drugbank_target|Q75N90 Fibrillin-3 (DB11093; DB11348; DB14481)
 OpenBabel12092121053D

  0  0  0     0  0            999 V3000
M  V30 BEGIN CTAB
M  V30 COUNTS 39962 40417 0 0 0
M  V30 BEGIN ATOM
M  V30 1 H -0.908 1.98254 -0.117106 0
M  V30 2 N 0 1.576 0 0
M  V30 3 C 0.933 2.03868 1.02534 0
M  V30 4 C 1.911 0.928543 1.3348 0
M  V30 5 O 3.095 1.19667 1.45644 0
M  V30 6 C 0.222 2.43627 2.35294 0
M  V30 7 C -0.732 3.65373 2.2001 0
M  V30 8 S 0.101 5.13292 1.52614 0
M  V30 9 C 1.257 5.56322 2.86805 0
M  V30 10 H 1.49 2.90518 0.631377 0
M  V30 11 H -0.977 1.52953 0.210867 0
M  V30 12 H 0.981 2.67203 3.11629 0
M  V30 13 H -0.358 1.57376 2.7183 0
M  V30 14 H -1.165 3.90944 3.18086 0
M  V30 15 H -1.563 3.418 1.51819 0
M  V30 16 H 0.729 5.58782 3.83104 0
M  V30 17 H 1.672 6.56266 2.65933 0
M  V30 18 H 2.08 4.83886 2.90714 0
M  V30 19 N 1.4781 -0.272755 1.55222 0
M  V30 20 C 2.7061 -1.02255 1.79865 0
M  V30 21 C 3.1211 -1.79924 0.572088 0
M  V30 22 O 2.4781 -1.76638 -0.458842 0
M  V30 23 C 2.5291 -1.98094 3.02392 0
M  V30 24 O 2.2501 -1.23572 4.20311 0
M  V30 25 C 3.7511 -2.84884 3.39641 0
M  V30 26 H 0.9711 -0.302057 0.599168 0
M  V30 27 H 3.5151 -0.303465 2.02236 0
M  V30 28 H 1.6701 -2.65465 2.82147 0
M  V30 29 H 2.0841 -1.88172 4.89583 0
M  V30 30 H 3.5581 -3.47927 4.28545 0
M  V30 31 H 4.0351 -3.54665 2.59055 0
M  V30 32 H 4.6411 -2.23003 3.62146 0
M  V30 33 N 2.9562 -1.48159 -0.537278 0
M  V30 34 C 3.8862 -1.65029 -1.6519 0
M  V30 35 C 4.8672 -0.499281 -1.62607 0
M  V30 36 O 6.0522 -0.730972 -1.79918 0
M  V30 37 C 3.1822 -1.68303 -3.03795 0
M  V30 38 C 2.1362 -2.8283 -3.21234 0
M  V30 39 C 1.4622 -2.71189 -4.60826 0
M  V30 40 C 2.7622 -4.24211 -3.04701 0
M  V30 41 H 4.4562 -2.58341 -1.51328 0
M  V30 42 H 2.0022 -1.24325 -0.726585 0
M  V30 43 H 3.9552 -1.78693 -3.81637 0
M  V30 44 H 2.6792 -0.715635 -3.18663 0
M  V30 45 H 1.3382 -2.71983 -2.45807 0
M  V30 46 H 0.9862 -1.72435 -4.7252 0
M  V30 47 H 0.6862 -3.48035 -4.7344 0
M  V30 48 H 2.2102 -2.83537 -5.40777 0
M  V30 49 H 3.6242 -4.3593 -3.72341 0
M  V30 50 H 2.0212 -5.01998 -3.28813 0
M  V30 51 H 3.0912 -4.41184 -2.01209 0
M  V30 52 N 4.4343 0.785586 -1.36625 0
M  V30 53 C 5.3443 1.92964 -1.33425 0
M  V30 54 C 6.3603 1.72394 -0.235851 0
M  V30 55 O 7.5363 1.95866 -0.468878 0
M  V30 56 C 4.6013 3.27884 -1.12662 0
M  V30 57 C 3.6623 3.61204 -2.32013 0
M  V30 58 C 2.8953 4.89687 -2.12231 0
M  V30 59 O 3.1183 5.59704 -1.09945 0
M  V30 60 O 2.0523 5.21752 -3.00098 0
M  V30 61 H 5.8783 1.98613 -2.29753 0
M  V30 62 H 3.4633 0.926384 -1.17211 0
M  V30 63 H 5.3453 4.08614 -1.03016 0
M  V30 64 H 4.0203 3.23118 -0.193991 0
M  V30 65 H 2.9273 2.80765 -2.47228 0
M  V30 66 H 4.2603 3.70698 -3.23796 0
M  V30 67 N 5.9124 1.20967 1.01018 0
M  V30 68 C 7.1604 1.02172 1.74371 0
M  V30 69 C 7.4814 -0.446414 1.89821 0
M  V30 70 O 6.7514 -1.32234 1.44537 0
M  V30 71 H 5.3314 0.375066 0.646014 0
M  V30 72 H 7.9934 1.52187 1.21758 0
M  V30 73 H 7.0894 1.48538 2.74487 0
M  V30 74 N 7.3905 -1.2043 1.01659 0
M  V30 75 C 8.3205 -2.25466 0.607226 0
M  V30 76 C 9.3015 -1.65853 -0.377716 0
M  V30 77 O 10.4865 -1.92409 -0.263149 0
M  V30 78 C 7.6165 -3.47256 -0.0552949 0
M  V30 79 C 6.5705 -4.19462 0.850632 0
M  V30 80 C 5.8965 -5.34673 0.0538859 0
M  V30 81 C 7.1965 -4.75603 2.15868 0
M  V30 82 H 8.8905 -2.59962 1.48526 0
M  V30 83 H 6.4365 -1.2496 0.715605 0
M  V30 84 H 8.3895 -4.19917 -0.353233 0
M  V30 85 H 7.1135 -3.11924 -0.968045 0
M  V30 86 H 5.7725 -3.48667 1.13257 0
M  V30 87 H 5.4205 -4.95585 -0.860514 0
M  V30 88 H 5.1205 -5.83913 0.657192 0
M  V30 89 H 6.6445 -6.10138 -0.237598 0
M  V30 90 H 8.0585 -5.40083 1.92311 0
M  V30 91 H 6.4555 -5.3528 2.71284 0
M  V30 92 H 7.5255 -3.94346 2.82169 0
M  V30 93 N 8.8686 -0.792821 -1.36206 0
M  V30 94 C 10.0986 -0.378275 -2.03107 0
M  V30 95 C 10.5066 1.01119 -1.59911 0
M  V30 96 O 9.8496 1.66052 -0.785658 0
M  V30 97 C 9.9116 -0.366535 -3.57627 0
M  V30 98 C 9.5756 -1.70416 -4.24037 0
M  V30 99 C 10.5726 -2.6602 -4.46687 0
M  V30 100 C 8.2576 -1.98439 -4.6144 0
M  V30 101 C 10.2516 -3.8784 -5.05825 0
M  V30 102 C 7.9386 -3.20525 -5.20295 0
M  V30 103 C 8.9366 -4.15044 -5.42427 0
M  V30 104 O 8.6246 -5.34978 -6.00045 0
M  V30 105 H 8.3566 -0.153543 -0.658332 0
M  V30 106 H 10.9106 -1.07383 -1.75094 0
M  V30 107 H 9.1406 0.385539 -3.84773 0
M  V30 108 H 10.8296 0.0238088 -4.05893 0
M  V30 109 H 11.5956 -2.45658 -4.18183 0
M  V30 110 H 7.4746 -1.25686 -4.43536 0
M  V30 111 H 11.0186 -4.61628 -5.23015 0
M  V30 112 H 6.9156 -3.40764 -5.48225 0
M  V30 113 H 7.6836 -5.36088 -6.18508 0
M  V30 114 N 10.3467 1.47872 -0.545128 0
M  V30 115 C 11.2767 2.32661 0.197793 0
M  V30 116 C 12.2577 1.43041 0.920504 0
M  V30 117 O 13.4427 1.71912 0.90333 0
M  V30 118 C 10.5727 3.24569 1.23582 0
M  V30 119 C 9.5267 4.23333 0.630323 0
M  V30 120 C 8.8527 5.0448 1.77211 0
M  V30 121 C 10.1527 5.20704 -0.407974 0
M  V30 122 H 11.8467 2.95024 -0.510045 0
M  V30 123 H 9.3927 1.4187 -0.246731 0
M  V30 124 H 11.3457 3.8272 1.76362 0
M  V30 125 H 10.0697 2.60236 1.97344 0
M  V30 126 H 8.7287 3.6639 0.123922 0
M  V30 127 H 8.3767 4.36561 2.49847 0
M  V30 128 H 8.0767 5.71339 1.37281 0
M  V30 129 H 9.6007 5.65487 2.3034 0
M  V30 130 H 11.0147 5.7329 0.033305 0
M  V30 131 H 9.4117 5.95699 -0.725486 0
M  V30 132 H 10.4817 4.66917 -1.30828 0
M  V30 133 N 11.8248 0.280983 1.55075 0
M  V30 134 C 12.7878 -0.590896 2.21452 0
M  V30 135 C 13.7878 -1.07682 1.19421 0
M  V30 136 O 14.9778 -0.97605 1.44288 0
M  V30 137 C 12.1098 -1.81587 2.88511 0
M  V30 138 H 13.3028 -0.0112554 2.99898 0
M  V30 139 H 10.8558 0.0316438 1.56268 0
M  V30 140 H 11.5908 -2.43587 2.14093 0
M  V30 141 H 11.3758 -1.4753 3.63287 0
M  V30 142 H 12.8658 -2.43575 3.39206 0
M  V30 143 N 13.3029 -1.57598 0.00835791 0
M  V30 144 C 14.7189 -1.55764 -0.347822 0
M  V30 145 C 14.9189 -1.01186 -1.74252 0
M  V30 146 O 13.9749 -0.649371 -2.44007 0
M  V30 147 C 15.2879 -2.99927 -0.215407 0
M  V30 148 C 16.8359 -3.11656 -0.289725 0
M  V30 149 C 17.3109 -4.57621 -0.18634 0
M  V30 150 N 18.8019 -4.62557 -0.243978 0
M  V30 151 C 19.5369 -5.73094 -0.18745 0
M  V30 152 N 19.0329 -6.92753 -0.0810331 0
M  V30 153 N 20.8259 -5.61588 -0.239925 0
M  V30 154 H 12.9769 -1.91411 0.92062 0
M  V30 155 H 15.2399 -0.879562 0.353659 0
M  V30 156 H 14.9459 -3.43729 0.744512 0
M  V30 157 H 14.8199 -3.63865 -0.994097 0
M  V30 158 H 17.2069 -2.67779 -1.24009 0
M  V30 159 H 17.2879 -2.5048 0.51898 0
M  V30 160 H 16.9319 -5.02174 0.760519 0
M  V30 161 H 16.8619 -5.16752 -1.01364 0
M  V30 162 H 19.3529 -3.76481 -0.327217 0
M  V30 163 H 19.6659 -7.72787 -0.0440241 0
M  V30 164 H 18.0109 -6.94984 -0.0465419 0
M  V30 165 H 21.2019 -4.66996 -0.321317 0
M  V30 166 H 21.3749 -6.47714 -0.192407 0
M  V30 167 N 14.781 0.264519 -1.55364 0
M  V30 168 C 16.029 0.993021 -1.76021 0
M  V30 169 C 16.35 1.86511 -0.569099 0
M  V30 170 O 15.62 1.91438 0.415735 0
M  V30 171 H 14.2 0.369639 -0.649135 0
M  V30 172 H 16.862 0.286707 -1.9278 0
M  V30 173 H 15.958 1.62502 -2.66457 0
M  V30 174 N 16.2591 1.48442 0.529413 0
M  V30 175 C 17.6701 1.5002 1.11134 0
M  V30 176 C 18.0211 0.27031 1.94329 0
M  V30 177 O 17.1461 -0.622507 2.07253 0
M  V30 178 C 17.7411 2.71834 2.02217 0
M  V30 179 C 16.3001 2.76283 2.55627 0
M  V30 180 C 15.4471 2.43542 1.326 0
M  V30 181 H 18.3981 1.5555 0.314641 0
M  V30 182 H 18.4191 2.50384 2.8651 0
M  V30 183 H 17.9311 3.61331 1.41639 0
M  V30 184 H 16.0321 1.90995 3.19924 0
M  V30 185 H 16.1451 3.77725 2.94721 0
M  V30 186 H 14.5091 1.94709 1.64196 0
M  V30 187 H 15.2921 3.3528 0.737734 0
M  V30 188 N 17.7372 -0.778329 1.37039 0
M  V30 189 C 18.6672 -1.90546 1.34962 0
M  V30 190 C 19.6482 -1.68681 0.219274 0
M  V30 191 O 20.8332 -1.89634 0.418624 0
M  V30 192 C 17.9632 -3.27734 1.14925 0
M  V30 193 C 16.9172 -3.64147 2.24902 0
M  V30 194 C 16.2432 -4.99806 1.89996 0
M  V30 195 C 17.5432 -3.71579 3.67051 0
M  V30 196 H 19.2372 -1.92541 2.29277 0
M  V30 197 H 16.7832 -0.924948 1.10366 0
M  V30 198 H 18.7362 -4.06215 1.12104 0
M  V30 199 H 17.4602 -3.26154 0.170631 0
M  V30 200 H 16.1192 -2.8797 2.26868 0
M  V30 201 H 15.7672 -4.94759 0.906796 0
M  V30 202 H 15.4672 -5.25139 2.63634 0
M  V30 203 H 16.9912 -5.80694 1.88749 0
M  V30 204 H 18.4052 -4.40227 3.67251 0
M  V30 205 H 16.8022 -4.08405 4.39688 0
M  V30 206 H 17.8722 -2.72404 4.01154 0
M  V30 207 N 19.2153 -1.21501 -1.00376 0
M  V30 208 C 20.1783 -0.976927 -2.07337 0
M  V30 209 C 21.1783 0.0525322 -1.60714 0
M  V30 210 O 22.3683 -0.184869 -1.73216 0
M  V30 211 C 19.5003 -0.473423 -3.37597 0
M  V30 212 H 20.6933 -1.92587 -2.29892 0
M  V30 213 H 18.2463 -1.03217 -1.17371 0
M  V30 214 H 18.9813 0.480379 -3.20722 0
M  V30 215 H 18.7663 -1.216 -3.72768 0
M  V30 216 H 20.2563 -0.32675 -4.1632 0
M  V30 217 N 20.6934 1.19889 -1.02296 0
M  V30 218 C 22.1094 1.41462 -0.738954 0
M  V30 219 C 22.3094 1.89721 0.678846 0
M  V30 220 O 21.3654 2.07016 1.4457 0
M  V30 221 C 22.6784 2.43083 -1.77005 0
M  V30 222 C 24.2264 2.5684 -1.78892 0
M  V30 223 C 24.7014 3.61709 -2.80945 0
M  V30 224 N 26.1924 3.69199 -2.79725 0
M  V30 225 C 26.9274 4.50019 -3.55345 0
M  V30 226 N 26.4234 5.34592 -4.40662 0
M  V30 227 N 28.2164 4.44612 -3.43914 0
M  V30 228 H 20.3674 0.868827 -1.93817 0
M  V30 229 H 22.6304 0.44399 -0.837602 0
M  V30 230 H 22.3364 2.14636 -2.78612 0
M  V30 231 H 22.2104 3.4217 -1.58744 0
M  V30 232 H 24.5974 2.84614 -0.779674 0
M  V30 233 H 24.6784 1.57927 -2.01228 0
M  V30 234 H 24.3224 3.34678 -3.82038 0
M  V30 235 H 24.2524 4.60259 -2.5587 0
M  V30 236 H 26.7434 3.08794 -2.17842 0
M  V30 237 H 27.0564 5.93363 -4.95116 0
M  V30 238 H 25.4014 5.34073 -4.44737 0
M  V30 239 H 28.5924 3.7758 -2.76679 0
M  V30 240 H 28.7654 5.0736 -4.031 0
M  V30 241 N 22.1715 0.800033 1.35784 0
M  V30 242 C 23.1015 0.220184 2.3246 0
M  V30 243 C 24.0825 -0.65073 1.57161 0
M  V30 244 O 25.2675 -0.582359 1.85263 0
M  V30 245 C 22.3975 -0.637353 3.41402 0
M  V30 246 C 21.3515 0.134531 4.27789 0
M  V30 247 C 20.6775 -0.844285 5.27992 0
M  V30 248 C 21.9775 1.32979 5.05088 0
M  V30 249 H 23.6715 1.02787 2.81203 0
M  V30 250 H 21.2175 0.495717 1.35199 0
M  V30 251 H 23.1705 -1.05302 4.08031 0
M  V30 252 H 21.8945 -1.47785 2.91251 0
M  V30 253 H 20.5535 0.531296 3.6273 0
M  V30 254 H 20.2015 -1.68011 4.74111 0
M  V30 255 H 19.9015 -0.332184 5.8666 0
M  V30 256 H 21.4255 -1.2583 5.97494 0
M  V30 257 H 22.8395 0.98934 5.64699 0
M  V30 258 H 21.2365 1.77593 5.7322 0
M  V30 259 H 22.3065 2.11978 4.36111 0
M  V30 260 N 23.6496 -1.47581 0.552962 0
M  V30 261 C 24.5796 -2.32762 -0.185451 0
M  V30 262 C 25.5606 -1.43527 -0.912905 0
M  V30 263 O 26.7456 -1.72388 -0.894201 0
M  V30 264 C 23.8756 -3.25219 -1.21859 0
M  V30 265 C 22.8296 -4.23661 -0.607864 0
M  V30 266 C 22.1556 -5.05413 -1.74533 0
M  V30 267 C 23.4556 -5.20481 0.435582 0
M  V30 268 H 25.1496 -2.94749 0.525684 0
M  V30 269 H 22.6956 -1.41738 0.254251 0
M  V30 270 H 24.6486 -3.8365 -1.7433 0
M  V30 271 H 23.3726 -2.61279 -1.95961 0
M  V30 272 H 22.0316 -3.66451 -0.104489 0
M  V30 273 H 21.6796 -4.3788 -2.47529 0
M  V30 274 H 21.3796 -5.72059 -1.34249 0
M  V30 275 H 22.9036 -5.66701 -2.27338 0
M  V30 276 H 24.3176 -5.733 -0.00290157 0
M  V30 277 H 22.7146 -5.95305 0.757067 0
M  V30 278 H 23.7846 -4.66217 1.33303 0
M  V30 279 N 25.1277 -0.289203 -1.54924 0
M  V30 280 C 26.0577 0.58549 -2.2604 0
M  V30 281 C 27.0387 1.14753 -1.25562 0
M  V30 282 O 28.2237 1.17906 -1.54311 0
M  V30 283 C 25.3537 1.76305 -2.99222 0
M  V30 284 C 24.3077 1.33191 -4.06748 0
M  V30 285 C 23.6337 2.5937 -4.6758 0
M  V30 286 C 24.9337 0.471775 -5.20165 0
M  V30 287 H 26.6277 -0.00763532 -2.99399 0
M  V30 288 H 24.1737 -0.00511229 -1.43999 0
M  V30 289 H 26.1267 2.38097 -3.47689 0
M  V30 290 H 24.8507 2.38223 -2.23422 0
M  V30 291 H 23.5097 0.737121 -3.59113 0
M  V30 292 H 23.1577 3.19576 -3.88433 0
M  V30 293 H 22.8577 2.31228 -5.40192 0
M  V30 294 H 24.3817 3.21985 -5.18804 0
M  V30 295 H 25.7957 0.995056 -5.64599 0
M  V30 296 H 24.1927 0.284639 -5.99425 0
M  V30 297 H 25.2627 -0.506041 -4.82252 0
M  V30 298 N 26.6058 1.57591 -0.0167156 0
M  V30 299 C 27.5688 2.08393 0.954204 0
M  V30 300 C 28.5688 0.996531 1.26198 0
M  V30 301 O 29.7588 1.25858 1.20438 0
M  V30 302 C 26.8908 2.5394 2.27436 0
M  V30 303 H 28.0838 2.95455 0.514451 0
M  V30 304 H 25.6368 1.54582 0.231089 0
M  V30 305 H 26.3718 1.70171 2.76066 0
M  V30 306 H 26.1568 3.33371 2.06412 0
M  V30 307 H 27.6468 2.93512 2.97053 0
M  V30 308 N 28.0839 -0.256276 1.55502 0
M  V30 309 C 29.3299 -0.982884 1.78076 0
M  V30 310 C 29.6849 -1.83319 0.584109 0
M  V30 311 O 28.9779 -1.86875 -0.422877 0
M  V30 312 C 29.1719 -1.88432 3.03691 0
M  V30 313 C 29.0009 -1.12276 4.35459 0
M  V30 314 C 27.7709 -0.831647 4.98409 0
M  V30 315 C 29.9689 -0.504933 5.11815 0
M  V30 316 N 27.9509 -0.0450423 6.13883 0
M  V30 317 C 29.3219 0.146696 6.19826 0
M  V30 318 C 31.3769 -0.414455 4.96172 0
M  V30 319 C 30.0799 0.880103 7.13895 0
M  V30 320 C 32.1059 0.305398 5.90611 0
M  V30 321 C 31.4679 0.945701 6.98023 0
M  V30 322 H 27.5669 -0.341084 0.703694 0
M  V30 323 H 30.1509 -0.256909 1.92998 0
M  V30 324 H 28.3219 -2.58241 2.90114 0
M  V30 325 H 30.0539 -2.54579 3.14598 0
M  V30 326 H 26.8089 -1.14111 4.59647 0
M  V30 327 H 27.2329 0.336079 6.76165 0
M  V30 328 H 31.8749 -0.895163 4.13215 0
M  V30 329 H 29.5929 1.37244 7.9636 0
M  V30 330 H 33.1789 0.375946 5.80584 0
M  V30 331 H 32.0589 1.49383 7.6984 0
M  V30 332 N 29.562 -1.4872 -0.521534 0
M  V30 333 C 30.787 -1.61101 -1.30618 0
M  V30 334 C 31.212 -0.274611 -1.86085 0
M  V30 335 O 30.57 0.754937 -1.64834 0
M  V30 336 C 30.618 -2.66709 -2.4269 0
M  V30 337 O 29.722 -2.24456 -3.45967 0
M  V30 338 H 29.063 -0.539921 -0.386499 0
M  V30 339 H 31.593 -1.94767 -0.626645 0
M  V30 340 H 31.603 -2.88245 -2.88754 0
M  V30 341 H 30.278 -3.63727 -2.01682 0
M  V30 342 H 28.855 -2.13168 -3.05964 0
M  V30 343 N 31.0401 0.771051 -1.3745 0
M  V30 344 C 32.0031 1.86598 -1.33093 0
M  V30 345 C 33.0031 1.59076 -0.234845 0
M  V30 346 O 34.1931 1.67145 -0.490732 0
M  V30 347 C 31.3251 3.23747 -1.06773 0
M  V30 348 H 32.5181 1.91873 -2.30488 0
M  V30 349 H 30.0711 0.970876 -1.2249 0
M  V30 350 H 30.8061 3.24148 -0.099129 0
M  V30 351 H 30.5911 3.45115 -1.86112 0
M  V30 352 H 32.0811 4.03824 -1.06377 0
M  V30 353 N 32.5182 1.22032 0.997298 0
M  V30 354 C 33.4482 1.01065 2.10495 0
M  V30 355 C 34.4292 -0.0669542 1.69968 0
M  V30 356 O 35.6142 0.0943987 1.9397 0
M  V30 357 C 32.7442 0.582874 3.42374 0
M  V30 358 C 31.6982 1.60592 3.96729 0
M  V30 359 C 31.0242 1.03412 5.24605 0
M  V30 360 C 32.3242 2.99478 4.27914 0
M  V30 361 H 34.0182 1.93708 2.28292 0
M  V30 362 H 31.5642 0.932761 1.09707 0
M  V30 363 H 33.5172 0.423332 4.19268 0
M  V30 364 H 32.2412 -0.379213 3.24391 0
M  V30 365 H 30.9002 1.75316 3.21963 0
M  V30 366 H 30.5482 0.063518 5.0296 0
M  V30 367 H 30.2482 1.71754 5.61938 0
M  V30 368 H 31.7722 0.886066 6.04137 0
M  V30 369 H 33.1862 2.88153 4.95622 0
M  V30 370 H 31.5832 3.64903 4.76409 0
M  V30 371 H 32.6532 3.49742 3.3587 0
M  V30 372 N 33.9963 -1.19345 1.0293 0
M  V30 373 C 34.9263 -2.2481 0.631105 0
M  V30 374 C 35.9073 -1.66245 -0.360104 0
M  V30 375 O 37.0923 -1.92677 -0.242726 0
M  V30 376 C 34.2223 -3.47295 -0.0184607 0
M  V30 377 C 33.1763 -4.18536 0.895073 0
M  V30 378 C 32.5023 -5.34586 0.110592 0
M  V30 379 C 33.8023 -4.73287 2.209 0
M  V30 380 H 35.4963 -2.58372 1.51275 0
M  V30 381 H 33.0423 -1.24194 0.728818 0
M  V30 382 H 34.9953 -4.20268 -0.308675 0
M  V30 383 H 33.7193 -3.12933 -0.934907 0
M  V30 384 H 32.3783 -3.47446 1.16949 0
M  V30 385 H 32.0263 -4.96469 -0.807902 0
M  V30 386 H 31.7263 -5.83183 0.719087 0
M  V30 387 H 33.2503 -6.10355 -0.172871 0
M  V30 388 H 34.6643 -5.38013 1.98028 0
M  V30 389 H 33.0613 -5.32373 2.76946 0
M  V30 390 H 34.1313 -3.91331 2.86336 0
M  V30 391 N 35.4744 -0.807222 -1.35358 0
M  V30 392 C 36.7144 -0.393534 -2.00576 0
M  V30 393 C 37.0784 1.0203 -1.62647 0
M  V30 394 O 38.2794 1.53603 -2.20589 0
M  V30 395 C 36.5504 -0.572017 -3.52793 0
M  V30 396 S 38.1094 -0.248845 -4.38094 0
M  V30 397 H 34.9274 -0.149425 -0.695121 0
M  V30 398 H 37.5294 -1.04961 -1.64935 0
M  V30 399 H 36.2334 -1.60097 -3.77885 0
M  V30 400 H 35.7644 0.099359 -3.93275 0
M  V30 401 H 37.7794 0.943253 -4.87152 0
M  V30 402 N 36.9525 1.47285 -0.560781 0
M  V30 403 C 37.8855 2.27009 0.232821 0
M  V30 404 C 38.8635 1.34273 0.917039 0
M  V30 405 O 40.0475 1.63659 0.935315 0
M  V30 406 C 37.1745 3.11406 1.33206 0
M  V30 407 C 36.2205 4.19746 0.756019 0
M  V30 408 S 37.0535 5.34003 -0.400165 0
M  V30 409 C 38.2095 6.21964 0.700805 0
M  V30 410 H 38.4425 2.93971 -0.443683 0
M  V30 411 H 35.9755 1.50446 -0.347181 0
M  V30 412 H 37.9335 3.60601 1.96156 0
M  V30 413 H 36.5945 2.438 1.98041 0
M  V30 414 H 35.7875 4.78541 1.5816 0
M  V30 415 H 35.3895 3.73451 0.202619 0
M  V30 416 H 37.6815 6.58529 1.59202 0
M  V30 417 H 38.6245 7.07941 0.150126 0
M  V30 418 H 39.0325 5.5566 0.995083 0
M  V30 419 N 38.4306 0.297415 1.54768 0
M  V30 420 C 39.3936 -0.567375 2.22066 0
M  V30 421 C 40.3936 -1.06409 1.20556 0
M  V30 422 O 41.5836 -0.960691 1.45315 0
M  V30 423 C 38.7156 -1.78517 2.90421 0
M  V30 424 H 39.9086 0.0205534 2.99893 0
M  V30 425 H 37.4616 0.0482163 1.56226 0
M  V30 426 H 38.1966 -2.41303 2.16664 0
M  V30 427 H 37.9816 -1.43669 3.64831 0
M  V30 428 H 39.4716 -2.39964 3.41771 0
M  V30 429 N 39.9087 -1.5758 0.0250728 0
M  V30 430 C 41.1567 -1.91255 -0.653151 0
M  V30 431 C 41.4777 -0.901691 -1.729 0
M  V30 432 O 40.7477 0.0573785 -1.95816 0
M  V30 433 H 39.3277 -0.705942 -0.244243 0
M  V30 434 H 41.9897 -1.94767 0.0719209 0
M  V30 435 H 41.0857 -2.91752 -1.10847 0
M  V30 436 N 41.3868 0.248026 -1.55636 0
M  V30 437 C 42.6348 0.974295 -1.77065 0
M  V30 438 C 42.9558 1.85897 -0.588849 0
M  V30 439 O 42.2258 1.91868 0.395407 0
M  V30 440 H 40.8058 0.362733 -0.653019 0
M  V30 441 H 43.4678 0.266244 -1.93073 0
M  V30 442 H 42.5638 1.59667 -2.68166 0
M  V30 443 N 42.8649 1.48995 0.513639 0
M  V30 444 C 43.7969 1.60836 1.63293 0
M  V30 445 C 44.8099 0.491701 1.55197 0
M  V30 446 O 45.9989 0.763238 1.6136 0
M  V30 447 C 43.0989 1.53731 3.02027 0
M  V30 448 C 42.2719 2.80715 3.35437 0
M  V30 449 C 41.3309 2.66837 4.53525 0
M  V30 450 O 40.3569 3.40753 4.55934 0
M  V30 451 N 41.5589 1.77539 5.52684 0
M  V30 452 H 44.3239 2.57366 1.53566 0
M  V30 453 H 41.8849 1.45925 0.701259 0
M  V30 454 H 43.8769 1.42118 3.78926 0
M  V30 455 H 42.4469 0.651092 3.05744 0
M  V30 456 H 41.6669 3.06772 2.47557 0
M  V30 457 H 42.9549 3.64927 3.54551 0
M  V30 458 H 42.3529 1.16719 5.53528 0
M  V30 459 H 40.9099 1.71856 6.28736 0
M  V30 460 N 44.343 -0.763751 1.37857 0
M  V30 461 C 45.591 -1.51957 1.33243 0
M  V30 462 C 45.912 -1.94835 -0.0801709 0
M  V30 463 O 45.182 -1.66894 -1.02582 0
M  V30 464 H 43.762 -0.563626 0.49024 0
M  V30 465 H 46.424 -0.908504 1.7243 0
M  V30 466 H 45.52 -2.41523 1.97669 0
M  V30 467 N 45.8211 -1.22559 -0.990812 0
M  V30 468 C 47.2371 -0.985996 -1.255 0
M  V30 469 C 47.4371 0.319173 -1.98956 0
M  V30 470 O 46.4931 1.04127 -2.3003 0
M  V30 471 C 47.8061 -2.18607 -2.06474 0
M  V30 472 C 49.3541 -2.22985 -2.19651 0
M  V30 473 C 49.8291 -3.4255 -3.04012 0
M  V30 474 N 51.3201 -3.42725 -3.11599 0
M  V30 475 C 52.0551 -4.31892 -3.7717 0
M  V30 476 N 51.5511 -5.31279 -4.44651 0
M  V30 477 N 53.3441 -4.19662 -3.73952 0
M  V30 478 H 45.4951 -2.06469 -0.49841 0
M  V30 479 H 47.7581 -0.904853 -0.282747 0
M  V30 480 H 47.4641 -3.13267 -1.59865 0
M  V30 481 H 47.3381 -2.18838 -3.07229 0
M  V30 482 H 49.7251 -1.28871 -2.65474 0
M  V30 483 H 49.8061 -2.26791 -1.18319 0
M  V30 484 H 49.4501 -4.36965 -2.58889 0
M  V30 485 H 49.3801 -3.35984 -4.0549 0
M  V30 486 H 51.8711 -2.70807 -2.63575 0
M  V30 487 H 52.1841 -5.95593 -4.92431 0
M  V30 488 H 50.5291 -5.3519 -4.43392 0
M  V30 489 H 53.7201 -3.41268 -3.20396 0
M  V30 490 H 53.8931 -4.89358 -4.24774 0
M  V30 491 N 47.2992 1.18797 -1.03562 0
M  V30 492 C 48.5452 1.89192 -0.746867 0
M  V30 493 C 48.9002 1.78531 0.717245 0
M  V30 494 O 48.1932 1.17137 1.51622 0
M  V30 495 C 48.3872 3.38692 -1.14117 0
M  V30 496 C 48.2162 3.63902 -2.64207 0
M  V30 497 C 46.9862 3.81553 -3.31279 0
M  V30 498 C 49.1842 3.64903 -3.62423 0
M  V30 499 N 47.1662 3.94455 -4.70402 0
M  V30 500 C 48.5372 3.83458 -4.87196 0
M  V30 501 C 50.5922 3.47965 -3.56125 0
M  V30 502 C 49.2952 3.86829 -6.06429 0
M  V30 503 C 51.3212 3.52616 -4.7478 0
M  V30 504 C 50.6832 3.71663 -5.9837 0
M  V30 505 H 46.7822 0.711141 -0.325273 0
M  V30 506 H 49.3662 1.42727 -1.32428 0
M  V30 507 H 47.5372 3.83864 -0.591889 0
M  V30 508 H 49.2692 3.96634 -0.803966 0
M  V30 509 H 46.0242 3.80723 -2.81686 0
M  V30 510 H 46.4482 4.0474 -5.42692 0
M  V30 511 H 51.0902 3.32189 -2.61553 0
M  V30 512 H 48.8082 4.01395 -7.01362 0
M  V30 513 H 52.3942 3.40791 -4.71543 0
M  V30 514 H 51.2742 3.75145 -6.88648 0
M  V30 515 N 48.7773 0.814389 1.34928 0
M  V30 516 C 50.0543 0.321363 1.92942 0
M  V30 517 C 50.4343 -1.19014 1.74353 0
M  V30 518 O 49.7823 -1.99328 1.11716 0
M  V30 519 C 49.9923 0.741323 3.41036 0
M  V30 520 C 51.3403 0.735266 4.18185 0
M  V30 521 O 52.3643 0.68336 3.49584 0
M  V30 522 O 51.2233 0.800703 5.40602 0
M  V30 523 H 48.3173 0.0858893 0.822528 0
M  V30 524 H 50.8633 0.898609 1.43955 0
M  V30 525 H 49.6353 1.78276 3.4833 0
M  V30 526 H 49.2583 0.139307 3.97356 0
M  V30 527 N 50.2554 -1.46986 0.568584 0
M  V30 528 C 51.5034 -2.02041 0.0487022 0
M  V30 529 C 51.8244 -1.44408 -1.31039 0
M  V30 530 O 51.0944 -0.623477 -1.85714 0
M  V30 531 H 49.6744 -0.746849 0.015014 0
M  V30 532 H 52.3364 -1.80257 0.741168 0
M  V30 533 H 51.4324 -3.12085 -0.0308961 0
M  V30 534 N 51.7335 -0.305618 -1.54608 0
M  V30 535 C 52.6965 0.555591 -2.22364 0
M  V30 536 C 53.6965 1.05768 -1.21119 0
M  V30 537 O 54.8865 0.952972 -1.45822 0
M  V30 538 C 52.0185 1.76974 -2.91364 0
M  V30 539 H 53.2115 -0.0364572 -2.99878 0
M  V30 540 H 50.7645 -0.0565007 -1.56198 0
M  V30 541 H 51.4995 2.40151 -2.17941 0
M  V30 542 H 51.2845 1.41732 -3.65588 0
M  V30 543 H 52.7745 2.38148 -3.43038 0
M  V30 544 N 53.2116 1.57565 -0.0334293 0
M  V30 545 C 54.1416 2.13511 0.945265 0
M  V30 546 C 55.1226 1.05231 1.33643 0
M  V30 547 O 56.3076 1.33084 1.41429 0
M  V30 548 C 53.4376 2.6657 2.22616 0
M  V30 549 C 52.3916 3.79676 1.97561 0
M  V30 550 C 51.7176 4.1918 3.31952 0
M  V30 551 C 53.0176 5.0557 1.31135 0
M  V30 552 H 54.7116 2.95538 0.479325 0
M  V30 553 H 52.2576 1.42166 0.229115 0
M  V30 554 H 54.2106 3.04344 2.91466 0
M  V30 555 H 52.9346 1.8171 2.71384 0
M  V30 556 H 51.5936 3.42347 1.31127 0
M  V30 557 H 51.2416 3.31296 3.78487 0
M  V30 558 H 50.9416 4.95402 3.15992 0
M  V30 559 H 52.4656 4.59541 4.02063 0
M  V30 560 H 53.8796 5.40903 1.89992 0
M  V30 561 H 52.2766 5.86818 1.25559 0
M  V30 562 H 53.3466 4.84062 0.284894 0
M  V30 563 N 54.6897 -0.239769 1.55765 0
M  V30 564 C 55.5997 -1.31831 1.94056 0
M  V30 565 C 56.6157 -1.52275 0.841925 0
M  V30 566 O 57.7917 -1.65759 1.14394 0
M  V30 567 C 54.8567 -2.65156 2.23368 0
M  V30 568 C 53.9177 -2.53173 3.46701 0
M  V30 569 C 53.1507 -3.8014 3.74606 0
M  V30 570 O 53.3737 -4.82343 3.04469 0
M  V30 571 O 52.3077 -3.78344 4.68123 0
M  V30 572 H 56.1337 -1.02347 2.85935 0
M  V30 573 H 53.7187 -0.441123 1.42739 0
M  V30 574 H 55.6007 -3.43929 2.43497 0
M  V30 575 H 54.2757 -2.94358 1.34666 0
M  V30 576 H 53.1827 -1.72662 3.31871 0
M  V30 577 H 54.5157 -2.28915 4.35728 0
M  V30 578 N 56.1678 -1.49265 -0.50573 0
M  V30 579 C 57.1308 -1.65075 -1.59006 0
M  V30 580 C 58.1308 -0.522768 -1.52065 0
M  V30 581 O 59.3208 -0.789117 -1.55302 0
M  V30 582 C 56.4528 -1.64369 -2.98656 0
M  V30 583 H 57.6458 -2.61784 -1.46319 0
M  V30 584 H 55.1988 -1.38226 -0.729616 0
M  V30 585 H 55.9338 -0.692272 -3.16825 0
M  V30 586 H 55.7188 -2.46282 -3.05103 0
M  V30 587 H 57.2088 -1.78674 -3.77446 0
M  V30 588 N 57.6459 0.756429 -1.3826 0
M  V30 589 C 58.6089 1.85176 -1.35065 0
M  V30 590 C 59.6089 1.58818 -0.251703 0
M  V30 591 O 60.7989 1.66615 -0.508433 0
M  V30 592 C 57.9309 3.22596 -1.10201 0
M  V30 593 H 59.1239 1.89417 -2.3251 0
M  V30 594 H 56.6769 0.95783 -1.23512 0
M  V30 595 H 57.4119 3.24025 -0.133504 0
M  V30 596 H 57.1969 3.43122 -1.89762 0
M  V30 597 H 58.6869 4.02673 -1.10654 0
M  V30 598 N 59.124 1.23083 0.984299 0
M  V30 599 C 60.372 1.05848 1.72165 0
M  V30 600 C 60.693 -0.406049 1.90726 0
M  V30 601 O 59.963 -1.29139 1.47309 0
M  V30 602 H 58.543 0.388685 0.637913 0
M  V30 603 H 61.205 1.54736 1.18503 0
M  V30 604 H 60.301 1.54327 2.71274 0
M  V30 605 N 60.6021 -1.18246 1.0419 0
M  V30 606 C 62.0131 -1.69914 0.773698 0
M  V30 607 C 62.3641 -1.83085 -0.705297 0
M  V30 608 O 61.4891 -1.51123 -1.5489 0
M  V30 609 C 62.0841 -3.08619 1.39784 0
M  V30 610 C 60.6431 -3.57494 1.17792 0
M  V30 611 C 59.7901 -2.34013 1.48773 0
M  V30 612 H 62.7411 -1.02904 1.20816 0
M  V30 613 H 62.7621 -3.71958 0.801714 0
M  V30 614 H 62.2741 -2.99001 2.47426 0
M  V30 615 H 60.3751 -3.72406 0.120295 0
M  V30 616 H 60.4881 -4.40852 1.87581 0
M  V30 617 H 58.8521 -2.37986 0.907463 0
M  V30 618 H 59.6351 -2.27013 2.57527 0
M  V30 619 N 62.0802 -0.821533 -1.34494 0
M  V30 620 C 63.3282 -0.408139 -1.97936 0
M  V30 621 C 63.6492 1.03193 -1.65457 0
M  V30 622 O 62.9192 1.71622 -0.944595 0
M  V30 623 H 61.4992 -0.147928 -0.732206 0
M  V30 624 H 64.1612 -1.05067 -1.64155 0
M  V30 625 H 63.2572 -0.52601 -3.07635 0
M  V30 626 N 63.5583 1.46682 -0.576371 0
M  V30 627 C 64.9743 1.57822 -0.237562 0
M  V30 628 C 65.1743 1.57237 1.26011 0
M  V30 629 O 64.2303 1.48596 2.04146 0
M  V30 630 C 65.5433 2.87499 -0.881168 0
M  V30 631 C 67.0913 3.01119 -0.85417 0
M  V30 632 C 67.5663 4.33524 -1.4772 0
M  V30 633 N 69.0573 4.40207 -1.44125 0
M  V30 634 C 69.7923 5.4126 -1.89276 0
M  V30 635 N 69.2883 6.49021 -2.42371 0
M  V30 636 N 71.0813 5.32422 -1.80231 0
M  V30 637 H 63.2323 1.45306 -1.54919 0
M  V30 638 H 65.4953 0.692733 -0.647167 0
M  V30 639 H 65.2013 2.9372 -1.93447 0
M  V30 640 H 65.0753 3.75224 -0.385592 0
M  V30 641 H 67.4623 2.94485 0.190491 0
M  V30 642 H 67.5433 2.14887 -1.3877 0
M  V30 643 H 67.1873 4.40916 -2.52103 0
M  V30 644 H 67.1173 5.1852 -0.918947 0
M  V30 645 H 69.6083 3.62931 -1.05307 0
M  V30 646 H 69.9213 7.2233 -2.74698 0
M  V30 647 H 68.2663 6.49858 -2.46393 0
M  V30 648 H 71.4573 4.47137 -1.38514 0
M  V30 649 H 71.6303 6.11034 -2.15735 0
M  V30 650 N 65.0364 0.313813 1.54444 0
M  V30 651 C 66.2824 -0.292108 2.00685 0
M  V30 652 C 66.6154 -1.52548 1.20177 0
M  V30 653 O 65.8904 -1.92452 0.281531 0
M  V30 654 C 66.1734 -0.635968 3.5444 0
M  V30 655 C 66.0264 0.607437 4.4568 0
M  V30 656 C 67.3454 -1.45747 4.15266 0
M  V30 657 H 64.4644 -0.104697 0.729526 0
M  V30 658 H 67.1064 0.428457 1.85106 0
M  V30 659 H 65.2564 -1.24986 3.67846 0
M  V30 660 H 66.9284 1.24581 4.44159 0
M  V30 661 H 65.1714 1.23822 4.15753 0
M  V30 662 H 65.8424 0.322515 5.51057 0
M  V30 663 H 68.3184 -0.938645 4.05375 0
M  V30 664 H 67.1944 -1.66683 5.2298 0
M  V30 665 H 67.4554 -2.45063 3.67963 0
M  V30 666 N 66.5145 -1.57545 0.0417849 0
M  V30 667 C 67.9305 -1.56467 -0.314704 0
M  V30 668 C 68.1305 -1.04859 -1.72066 0
M  V30 669 O 67.1865 -0.700983 -2.42575 0
M  V30 670 C 68.4995 -3.00317 -0.15174 0
M  V30 671 C 70.0475 -3.12201 -0.223553 0
M  V30 672 C 70.5225 -4.57913 -0.0892295 0
M  V30 673 N 72.0135 -4.6297 -0.145808 0
M  V30 674 C 72.7485 -5.73362 -0.0658459 0
M  V30 675 N 72.2445 -6.92769 0.0659282 0
M  V30 676 N 74.0375 -5.6197 -0.12075 0
M  V30 677 H 66.1885 -1.89416 0.961014 0
M  V30 678 H 68.4515 -0.871862 0.372237 0
M  V30 679 H 68.1575 -3.42073 0.817254 0
M  V30 680 H 68.0315 -3.65892 -0.916692 0
M  V30 681 H 70.4185 -2.70349 -1.18301 0
M  V30 682 H 70.4995 -2.49323 0.571994 0
M  V30 683 H 70.1435 -5.00448 0.866867 0
M  V30 684 H 70.0735 -5.18786 -0.903802 0
M  V30 685 H 72.5645 -3.7709 -0.247286 0
M  V30 686 H 72.8775 -7.72707 0.119905 0
M  V30 687 H 71.2225 -6.94927 0.100885 0
M  V30 688 H 74.4135 -4.67572 -0.222187 0
M  V30 689 H 74.5865 -6.47977 -0.0549735 0
M  V30 690 N 67.9926 0.231505 -1.5589 0
M  V30 691 C 69.4086 0.580748 -1.48659 0
M  V30 692 C 69.6086 1.87617 -0.73498 0
M  V30 693 O 68.6646 2.51046 -0.270586 0
M  V30 694 C 69.9776 0.669202 -2.93159 0
M  V30 695 C 71.5256 0.760499 -3.03621 0
M  V30 696 C 72.0006 0.880383 -4.49459 0
M  V30 697 N 73.4916 0.944861 -4.53461 0
M  V30 698 C 74.2266 1.05716 -5.63571 0
M  V30 699 N 73.7226 1.13403 -6.83456 0
M  V30 700 N 75.5156 1.09152 -5.514 0
M  V30 701 H 67.6666 -0.618695 -2.03189 0
M  V30 702 H 69.9296 -0.215728 -0.923128 0
M  V30 703 H 69.6356 -0.212904 -3.51055 0
M  V30 704 H 69.5096 1.5361 -3.44505 0
M  V30 705 H 71.8966 1.63305 -2.45796 0
M  V30 706 H 71.9776 -0.131864 -2.5546 0
M  V30 707 H 71.6216 0.0123284 -5.07899 0
M  V30 708 H 71.5516 1.78802 -4.95316 0
M  V30 709 H 74.0426 0.896176 -3.6712 0
M  V30 710 H 74.3556 1.21921 -7.63122 0
M  V30 711 H 72.7006 1.10333 -6.86186 0
M  V30 712 H 75.8916 1.02805 -4.56671 0
M  V30 713 H 76.0646 1.17558 -6.37247 0
M  V30 714 N 69.4707 1.49531 0.497807 0
M  V30 715 C 70.8867 1.36365 0.829266 0
M  V30 716 C 71.0867 0.399184 1.97506 0
M  V30 717 O 70.1427 -0.167977 2.51941 0
M  V30 718 C 71.4557 2.77153 1.16647 0
M  V30 719 C 73.0037 2.85877 1.27449 0
M  V30 720 C 73.4787 4.2744 1.64497 0
M  V30 721 N 74.9697 4.30265 1.7154 0
M  V30 722 C 75.7047 5.3677 2.01656 0
M  V30 723 N 75.2007 6.53516 2.29976 0
M  V30 724 N 76.9937 5.24189 2.02934 0
M  V30 725 H 69.1447 2.10831 -0.257703 0
M  V30 726 H 71.4077 0.946534 -0.0527091 0
M  V30 727 H 71.1137 3.49442 0.397872 0
M  V30 728 H 70.9877 3.12722 2.10915 0
M  V30 729 H 73.3747 2.13824 2.0338 0
M  V30 730 H 73.4557 2.53887 0.312244 0
M  V30 731 H 73.0997 5.00021 0.891151 0
M  V30 732 H 73.0297 4.56896 2.61827 0
M  V30 733 H 75.5207 3.4607 1.51802 0
M  V30 734 H 75.8337 7.30506 2.52153 0
M  V30 735 H 74.1787 6.56737 2.27425 0
M  V30 736 H 77.3697 4.31988 1.80289 0
M  V30 737 H 77.5427 6.07286 2.26071 0
M  V30 738 N 70.9488 -0.749086 1.3866 0
M  V30 739 C 72.1968 -1.50535 1.34847 0
M  V30 740 C 72.5178 -1.94909 -0.0595016 0
M  V30 741 O 71.7878 -1.67973 -1.00806 0
M  V30 742 H 70.3678 -0.558395 0.49619 0
M  V30 743 H 73.0298 -0.890165 1.73384 0
M  V30 744 H 72.1258 -2.39413 2.00219 0
M  V30 745 N 72.4269 -1.23603 -0.977757 0
M  V30 746 C 73.6519 -1.09735 -1.75991 0
M  V30 747 C 74.0769 0.346858 -1.84874 0
M  V30 748 O 73.4349 1.25093 -1.3123 0
M  V30 749 C 73.4829 -1.73051 -3.16363 0
M  V30 750 O 72.5869 -0.994452 -4.0023 0
M  V30 751 H 71.9279 -0.384476 -0.541364 0
M  V30 752 H 74.4579 -1.6371 -1.2272 0
M  V30 753 H 74.4679 -1.78398 -3.66931 0
M  V30 754 H 73.1429 -2.78137 -3.09213 0
M  V30 755 H 71.7199 -1.01812 -3.58732 0
M  V30 756 N 73.905 1.17692 -1.04816 0
M  V30 757 C 75.316 1.69501 -0.782698 0
M  V30 758 C 75.667 1.83456 0.695577 0
M  V30 759 O 74.792 1.51942 1.54086 0
M  V30 760 C 75.387 3.07874 -1.41419 0
M  V30 761 C 73.946 3.56864 -1.19686 0
M  V30 762 C 73.093 2.3322 -1.50012 0
M  V30 763 H 76.044 1.02262 -1.2136 0
M  V30 764 H 76.065 3.71528 -0.821428 0
M  V30 765 H 75.577 2.97685 -2.49009 0
M  V30 766 H 73.678 3.72337 -0.140043 0
M  V30 767 H 73.791 4.39851 -1.89916 0
M  V30 768 H 72.155 2.37501 -0.920071 0
M  V30 769 H 72.938 2.25644 -2.58727 0
M  V30 770 N 75.3831 0.828654 1.34056 0
M  V30 771 C 76.6311 0.41863 1.97717 0
M  V30 772 C 76.9521 -1.02314 1.66002 0
M  V30 773 O 76.2221 -1.71119 0.953683 0
M  V30 774 H 74.8021 0.151809 0.731412 0
M  V30 775 H 77.4641 1.05936 1.63596 0
M  V30 776 H 76.5601 0.542318 3.07352 0
M  V30 777 N 76.8612 -1.46375 0.584142 0
M  V30 778 C 78.1102 -2.01585 0.0679741 0
M  V30 779 C 78.4232 -1.46109 -1.30045 0
M  V30 780 O 79.6292 -1.93148 -1.90804 0
M  V30 781 C 78.0852 -3.5983 0.0709207 0
M  V30 782 C 77.6932 -4.24303 1.43775 0
M  V30 783 C 79.4372 -4.22693 -0.391228 0
M  V30 784 C 77.3442 -5.74631 1.39834 0
M  V30 785 H 76.2742 -0.753689 0.0216421 0
M  V30 786 H 78.9252 -1.68093 0.736001 0
M  V30 787 H 77.3072 -3.90405 -0.663299 0
M  V30 788 H 78.4812 -4.05335 2.19181 0
M  V30 789 H 76.7962 -3.73539 1.84004 0
M  V30 790 H 79.3932 -5.3289 -0.439524 0
M  V30 791 H 79.7362 -3.91728 -1.40906 0
M  V30 792 H 80.2692 -3.96749 0.288974 0
M  V30 793 H 77.0082 -6.10258 2.39303 0
M  V30 794 H 76.5282 -5.95858 0.686505 0
M  V30 795 H 78.2072 -6.37375 1.11187 0
M  V30 796 N 78.3393 -0.321999 -1.54275 0
M  V30 797 C 79.2693 0.537411 -2.27231 0
M  V30 798 C 80.2503 1.12064 -1.27968 0
M  V30 799 O 81.4353 1.14606 -1.56777 0
M  V30 800 C 78.5653 1.69919 -3.02894 0
M  V30 801 C 77.5193 1.24534 -4.09482 0
M  V30 802 C 76.8453 2.49394 -4.72977 0
M  V30 803 C 78.1453 0.361335 -5.21049 0
M  V30 804 H 79.8393 -0.0711406 -2.99315 0
M  V30 805 H 77.3853 -0.0356555 -1.43956 0
M  V30 806 H 79.3383 2.30668 -3.52662 0
M  V30 807 H 78.0623 2.33431 -2.28424 0
M  V30 808 H 76.7213 0.660782 -3.60596 0
M  V30 809 H 76.3693 3.11265 -3.95124 0
M  V30 810 H 76.0693 2.19718 -5.44975 0
M  V30 811 H 77.5933 3.10908 -5.25517 0
M  V30 812 H 79.0073 0.875072 -5.66582 0
M  V30 813 H 77.4043 0.157428 -5.99893 0
M  V30 814 H 78.4743 -0.60822 -4.8107 0
M  V30 815 N 79.8174 1.5752 -0.0501392 0
M  V30 816 C 80.7494 2.08413 0.95376 0
M  V30 817 C 81.7624 1.01175 1.27544 0
M  V30 818 O 82.9514 1.28744 1.23641 0
M  V30 819 C 80.0514 2.51138 2.27559 0
M  V30 820 C 79.2244 3.817 2.13598 0
M  V30 821 C 78.2834 4.10749 3.28895 0
M  V30 822 O 77.3094 4.80685 3.04845 0
M  V30 823 N 78.5114 3.62579 4.5334 0
M  V30 824 H 81.2764 2.95165 0.519383 0
M  V30 825 H 78.8374 1.61327 0.136127 0
M  V30 826 H 80.8294 2.67648 3.03557 0
M  V30 827 H 79.3994 1.6964 2.62567 0
M  V30 828 H 78.6194 3.74782 1.22197 0
M  V30 829 H 79.9074 4.67201 2.01496 0
M  V30 830 H 79.3054 3.06039 4.75769 0
M  V30 831 H 77.8624 3.84329 5.26436 0
M  V30 832 N 81.2955 -0.223234 1.56011 0
M  V30 833 C 82.5435 -0.946003 1.78592 0
M  V30 834 C 82.8645 -1.84936 0.618349 0
M  V30 835 O 82.1345 -1.92473 -0.364833 0
M  V30 836 H 80.7145 -0.352298 0.658707 0
M  V30 837 H 83.3765 -0.235494 1.93472 0
M  V30 838 H 82.4725 -1.55381 2.70672 0
M  V30 839 N 82.7736 -1.49793 -0.48987 0
M  V30 840 C 84.1846 -1.52914 -1.07118 0
M  V30 841 C 84.5356 -0.321738 -1.93544 0
M  V30 842 O 83.6606 0.567338 -2.08831 0
M  V30 843 C 84.2556 -2.771 -1.94938 0
M  V30 844 C 82.8146 -2.82963 -2.48212 0
M  V30 845 C 81.9616 -2.46972 -1.26096 0
M  V30 846 H 84.9126 -1.56329 -0.273289 0
M  V30 847 H 84.9336 -2.57892 -2.79771 0
M  V30 848 H 84.4456 -3.64959 -1.32009 0
M  V30 849 H 82.5466 -1.99411 -3.14748 0
M  V30 850 H 82.6596 -3.85406 -2.84603 0
M  V30 851 H 81.0236 -1.98994 -1.58976 0
M  V30 852 H 81.8066 -3.37118 -0.648581 0
M  V30 853 N 84.2517 0.741722 -1.39055 0
M  V30 854 C 85.1997 1.87702 -1.3737 0
M  V30 855 C 86.1937 1.67427 -0.257812 0
M  V30 856 O 87.3997 1.7485 -0.427489 0
M  V30 857 H 83.7747 0.617757 -0.428812 0
M  V30 858 H 85.7457 1.86239 -2.33147 0
M  V30 859 C 84.4947 3.25315 -1.22741 0
M  V30 860 H 83.8177 3.41509 -2.07873 0
M  V30 861 H 85.2577 4.04964 -1.25618 0
M  V30 862 C 83.7167 3.36838 0.0647316 0
M  V30 863 O 84.2467 3.88073 1.03741 0
M  V30 864 N 82.4527 2.90329 0.125544 0
M  V30 865 H 81.9997 2.48823 -0.666682 0
M  V30 866 H 81.9577 2.98418 0.989639 0
M  V30 867 N 85.7298 1.2412 0.971189 0
M  V30 868 C 86.9758 1.08041 1.71625 0
M  V30 869 C 87.3088 -0.380407 1.90438 0
M  V30 870 O 86.5838 -1.28127 1.46334 0
M  V30 871 C 86.8668 1.81682 3.10908 0
M  V30 872 C 86.7198 3.35493 2.99608 0
M  V30 873 C 88.0388 1.58671 4.10501 0
M  V30 874 H 85.1578 0.39388 0.622919 0
M  V30 875 H 87.7998 1.52743 1.13003 0
M  V30 876 H 85.9498 1.43684 3.60953 0
M  V30 877 H 87.6218 3.83068 2.57015 0
M  V30 878 H 85.8648 3.64052 2.35899 0
M  V30 879 H 86.5358 3.82217 3.98264 0
M  V30 880 H 89.0118 1.91719 3.69301 0
M  V30 881 H 87.8878 2.1266 5.06031 0
M  V30 882 H 88.1488 0.524161 4.38982 0
M  V30 883 N 87.2079 -1.17134 1.05439 0
M  V30 884 C 88.4479 -1.89137 0.77502 0
M  V30 885 C 88.8119 -1.79345 -0.685526 0
M  V30 886 O 90.0129 -2.46188 -1.0791 0
M  V30 887 C 88.2839 -3.35003 1.2453 0
M  V30 888 S 89.8429 -4.24952 1.09367 0
M  V30 889 H 86.6609 -0.652949 0.281387 0
M  V30 890 H 89.2629 -1.4145 1.34953 0
M  V30 891 H 87.9669 -3.39666 2.30338 0
M  V30 892 H 87.4979 -3.87736 0.665166 0
M  V30 893 H 89.5129 -4.96196 0.0193397 0
M  V30 894 N 88.686 -0.835752 -1.33615 0
M  V30 895 C 89.934 -0.429109 -1.97492 0
M  V30 896 C 90.255 1.01433 -1.66543 0
M  V30 897 O 89.525 1.70611 -0.962744 0
M  V30 898 H 88.105 -0.155686 -0.730596 0
M  V30 899 H 90.767 -1.06802 -1.63031 0
M  V30 900 H 89.863 -0.55861 -3.0706 0
M  V30 901 N 90.1641 1.46063 -0.591896 0
M  V30 902 C 91.3891 2.07226 -0.0850314 0
M  V30 903 C 91.8141 1.43625 1.21463 0
M  V30 904 O 91.1721 0.523305 1.73583 0
M  V30 905 C 91.2201 3.60554 0.0576567 0
M  V30 906 O 90.3241 3.97128 1.11188 0
M  V30 907 H 89.6651 0.660615 -0.0669568 0
M  V30 908 H 92.1951 1.8756 -0.81745 0
M  V30 909 H 92.2051 4.07165 0.2609 0
M  V30 910 H 90.8801 4.06235 -0.891416 0
M  V30 911 H 89.4571 3.62213 0.886356 0
M  V30 912 N 91.6422 0.330177 1.54103 0
M  V30 913 C 93.0582 -0.0222371 1.59585 0
M  V30 914 C 93.2582 -1.49902 1.34654 0
M  V30 915 O 92.3142 -2.25592 1.13421 0
M  V30 916 C 93.6272 0.401932 2.98002 0
M  V30 917 C 95.1752 0.353145 3.11001 0
M  V30 918 C 95.6502 0.752576 4.51775 0
M  V30 919 N 97.1412 0.706239 4.57784 0
M  V30 920 C 97.8762 0.987417 5.64834 0
M  V30 921 N 97.3722 1.33607 6.79795 0
M  V30 922 N 99.1652 0.91254 5.54643 0
M  V30 923 H 91.3162 1.29228 1.68564 0
M  V30 924 H 93.5792 0.525906 0.78875 0
M  V30 925 H 93.2852 1.4311 3.21267 0
M  V30 926 H 93.1592 -0.229699 3.765 0
M  V30 927 H 95.5462 -0.666822 2.87467 0
M  V30 928 H 95.6272 1.0198 2.34593 0
M  V30 929 H 95.2712 1.77049 4.76042 0
M  V30 930 H 95.2012 0.0635409 5.26562 0
M  V30 931 H 97.6922 0.44889 3.75224 0
M  V30 932 H 98.0052 1.53582 7.57385 0
M  V30 933 H 96.3502 1.37439 6.81275 0
M  V30 934 H 99.5412 0.639601 4.6371 0
M  V30 935 H 99.7142 1.13503 6.37982 0
M  V30 936 N 93.1203 -1.57491 0.0584922 0
M  V30 937 C 94.3673 -1.92978 -0.613648 0
M  V30 938 C 94.6953 -0.937461 -1.70417 0
M  V30 939 O 93.9503 0.049078 -1.95638 0
M  V30 940 C 94.2493 -3.3513 -1.24188 0
M  V30 941 C 93.9153 -4.50037 -0.278826 0
M  V30 942 C 92.5773 -4.81198 -0.0138447 0
M  V30 943 C 94.9293 -5.19807 0.380777 0
M  V30 944 C 92.2573 -5.79473 0.918052 0
M  V30 945 C 94.6093 -6.19079 1.30091 0
M  V30 946 C 93.2733 -6.48665 1.57449 0
M  V30 947 H 92.5433 -0.706157 -0.22455 0
M  V30 948 H 95.1903 -1.91082 0.126533 0
M  V30 949 H 93.4953 -3.33429 -2.05749 0
M  V30 950 H 95.1923 -3.59871 -1.769 0
M  V30 951 H 91.7823 -4.25726 -0.495539 0
M  V30 952 H 95.9663 -4.95939 0.189158 0
M  V30 953 H 91.2223 -6.00727 1.1374 0
M  V30 954 H 95.3963 -6.7225 1.81804 0
M  V30 955 H 93.0233 -7.24628 2.29822 0
M  V30 956 N 94.5984 0.214957 -1.56127 0
M  V30 957 C 95.5484 1.27006 -1.8935 0
M  V30 958 C 96.5324 1.41969 -0.757202 0
M  V30 959 O 97.7244 1.44673 -1.01973 0
M  V30 960 C 94.8534 2.61911 -2.2194 0
M  V30 961 C 93.9394 2.50822 -3.41978 0
M  V30 962 N 94.3304 2.09391 -4.60423 0
M  V30 963 C 92.6284 2.81765 -3.45723 0
M  V30 964 C 93.3294 2.09712 -5.42582 0
M  V30 965 N 92.3054 2.50454 -4.82466 0
M  V30 966 H 96.1074 0.940734 -2.78437 0
M  V30 967 H 93.6214 0.423492 -1.56781 0
M  V30 968 H 95.6184 3.38096 -2.43919 0
M  V30 969 H 94.2784 2.95684 -1.34169 0
M  V30 970 H 95.2894 1.80416 -4.85459 0
M  V30 971 H 91.9664 3.19865 -2.68314 0
M  V30 972 H 93.3564 1.79748 -6.4741 0
M  V30 973 N 96.0765 1.50051 0.48192 0
M  V30 974 C 97.0395 1.67584 1.5636 0
M  V30 975 C 98.0395 0.546894 1.51214 0
M  V30 976 O 99.2295 0.813725 1.54026 0
M  V30 977 C 96.3615 1.691 2.96003 0
M  V30 978 H 97.5545 2.64078 1.42136 0
M  V30 979 H 95.1075 1.39369 0.707533 0
M  V30 980 H 95.8425 0.742589 3.15684 0
M  V30 981 H 95.6275 2.51105 3.01146 0
M  V30 982 H 97.1175 1.84656 3.74556 0
M  V30 983 N 97.5546 -0.734337 1.39446 0
M  V30 984 C 98.7846 -1.52137 1.39778 0
M  V30 985 C 99.1926 -1.89198 -0.00929312 0
M  V30 986 O 98.5356 -1.54666 -0.991168 0
M  V30 987 C 98.5976 -2.83762 2.20724 0
M  V30 988 C 98.2616 -2.69131 3.69347 0
M  V30 989 C 99.2586 -2.37635 4.62413 0
M  V30 990 C 96.9436 -2.85982 4.1294 0
M  V30 991 C 98.9376 -2.23172 5.97054 0
M  V30 992 C 96.6246 -2.71137 5.47657 0
M  V30 993 C 97.6226 -2.39777 6.39528 0
M  V30 994 O 97.3106 -2.25026 7.71763 0
M  V30 995 H 97.0426 -0.476717 0.479288 0
M  V30 996 H 99.5966 -0.915012 1.83893 0
M  V30 997 H 97.8266 -3.4666 1.71359 0
M  V30 998 H 99.5156 -3.45383 2.13226 0
M  V30 999 H 100.282 -2.24267 4.30034 0
M  V30 1000 H 96.1606 -3.09383 3.41765 0
M  V30 1001 H 99.7046 -1.98617 6.68728 0
M  V30 1002 H 95.6016 -2.84083 5.79626 0
M  V30 1003 H 96.3696 -2.40091 7.82495 0
M  V30 1004 N 99.0327 -1.24633 -0.964593 0
M  V30 1005 C 100.273 -1.09981 -1.72289 0
M  V30 1006 C 100.637 0.354792 -1.88693 0
M  V30 1007 O 101.838 0.62289 -2.61483 0
M  V30 1008 C 100.109 -1.82262 -3.07434 0
M  V30 1009 S 101.668 -1.83379 -3.98645 0
M  V30 1010 H 98.4857 -0.393292 -0.59232 0
M  V30 1011 H 101.088 -1.58009 -1.15123 0
M  V30 1012 H 99.7917 -2.87206 -2.93157 0
M  V30 1013 H 99.3227 -1.3458 -3.69664 0
M  V30 1014 H 101.338 -0.903691 -4.87901 0
M  V30 1015 N 100.511 1.16574 -1.06058 0
M  V30 1016 C 101.751 1.88723 -0.78504 0
M  V30 1017 C 102.115 1.79706 0.676006 0
M  V30 1018 O 103.316 2.46757 1.06603 0
M  V30 1019 C 101.587 3.34338 -1.26304 0
M  V30 1020 S 103.146 4.24366 -1.1162 0
M  V30 1021 H 99.9638 0.651448 -0.284846 0
M  V30 1022 H 102.566 1.40732 -1.35701 0
M  V30 1023 H 101.27 3.38439 -2.32136 0
M  V30 1024 H 100.801 3.87378 -0.685719 0
M  V30 1025 H 102.816 4.96179 -0.0456539 0
M  V30 1026 N 101.989 0.842826 1.3317 0
M  V30 1027 C 103.4 0.496651 1.79973 0
M  V30 1028 C 103.751 -0.984641 1.69703 0
M  V30 1029 O 102.876 -1.76743 1.24863 0
M  V30 1030 C 103.471 0.894727 3.26772 0
M  V30 1031 C 102.03 0.600629 3.71577 0
M  V30 1032 C 101.177 1.10091 2.5451 0
M  V30 1033 H 104.128 1.03116 1.20635 0
M  V30 1034 H 104.149 0.206347 3.7994 0
M  V30 1035 H 103.661 1.97287 3.34215 0
M  V30 1036 H 101.762 -0.467284 3.69658 0
M  V30 1037 H 101.875 1.15863 4.64879 0
M  V30 1038 H 100.239 0.52162 2.49301 0
M  V30 1039 H 101.022 2.18591 2.64713 0
M  V30 1040 N 103.467 -1.45747 0.599634 0
M  V30 1041 C 104.715 -2.01893 0.0915472 0
M  V30 1042 C 105.036 -1.47155 -1.27946 0
M  V30 1043 O 104.306 -0.66273 -1.84349 0
M  V30 1044 H 102.886 -0.746363 0.0308524 0
M  V30 1045 H 105.548 -1.78645 0.779237 0
M  V30 1046 H 104.644 -3.1208 0.0353086 0
M  V30 1047 N 104.945 -0.338344 -1.53925 0
M  V30 1048 C 106.191 0.252842 -2.01822 0
M  V30 1049 C 106.546 1.48612 -1.22197 0
M  V30 1050 O 105.839 1.89238 -0.299892 0
M  V30 1051 C 106.033 0.62448 -3.51902 0
M  V30 1052 C 105.862 -0.571235 -4.46057 0
M  V30 1053 C 104.632 -1.07493 -4.93734 0
M  V30 1054 C 106.83 -1.42807 -4.94076 0
M  V30 1055 N 104.812 -2.23351 -5.71828 0
M  V30 1056 C 106.183 -2.43362 -5.70241 0
M  V30 1057 C 108.238 -1.45412 -4.76193 0
M  V30 1058 C 106.941 -3.46346 -6.30426 0
M  V30 1059 C 108.967 -2.47274 -5.37224 0
M  V30 1060 C 108.329 -3.46555 -6.13253 0
M  V30 1061 H 104.428 0.0559669 -0.779995 0
M  V30 1062 H 107.012 -0.476732 -1.88773 0
M  V30 1063 H 105.183 1.32317 -3.65167 0
M  V30 1064 H 106.915 1.19841 -3.86549 0
M  V30 1065 H 103.67 -0.643848 -4.69203 0
M  V30 1066 H 104.094 -2.81834 -6.15548 0
M  V30 1067 H 108.736 -0.700171 -4.16962 0
M  V30 1068 H 106.454 -4.22638 -6.88769 0
M  V30 1069 H 110.04 -2.50109 -5.25297 0
M  V30 1070 H 108.92 -4.24083 -6.59638 0
M  V30 1071 N 106.423 1.57458 -0.0668435 0
M  V30 1072 C 107.839 1.56947 0.289772 0
M  V30 1073 C 108.039 1.07584 1.70376 0
M  V30 1074 O 107.095 0.739486 2.41429 0
M  V30 1075 C 108.408 3.0052 0.103943 0
M  V30 1076 C 109.956 3.12517 0.173857 0
M  V30 1077 C 110.431 4.57997 0.0163682 0
M  V30 1078 N 111.922 4.63144 0.0721352 0
M  V30 1079 C 112.657 5.73394 -0.0253794 0
M  V30 1080 N 112.153 6.92576 -0.176133 0
M  V30 1081 N 113.946 5.62091 0.0313305 0
M  V30 1082 H 106.097 1.87863 -0.991027 0
M  V30 1083 H 108.36 0.86583 -0.38606 0
M  V30 1084 H 108.066 3.40729 -0.871572 0
M  V30 1085 H 107.94 3.67304 0.858366 0
M  V30 1086 H 110.327 2.72197 1.13985 0
M  V30 1087 H 110.408 2.48381 -0.611586 0
M  V30 1088 H 110.052 4.99005 -0.946374 0
M  V30 1089 H 109.982 5.20158 0.821153 0
M  V30 1090 H 112.473 3.77436 0.187263 0
M  V30 1091 H 112.786 7.72418 -0.242821 0
M  V30 1092 H 111.131 6.94678 -0.211429 0
M  V30 1093 H 114.322 4.67867 0.147773 0
M  V30 1094 H 114.495 6.47982 -0.048121 0
M  V30 1095 N 107.901 -0.206675 1.56239 0
M  V30 1096 C 109.129 -0.945345 1.8404 0
M  V30 1097 C 109.544 -1.77336 0.647885 0
M  V30 1098 O 108.901 -1.78425 -0.383511 0
M  V30 1099 C 108.952 -1.8509 3.10522 0
M  V30 1100 O 108.673 -1.05634 4.25174 0
M  V30 1101 C 110.174 -2.70222 3.51418 0
M  V30 1102 H 107.394 -0.276372 0.61144 0
M  V30 1103 H 109.938 -0.217417 2.03341 0
M  V30 1104 H 108.093 -2.53259 2.93153 0
M  V30 1105 H 108.507 -1.67238 4.97124 0
M  V30 1106 H 109.981 -3.29438 4.42916 0
M  V30 1107 H 110.458 -3.43358 2.73864 0
M  V30 1108 H 111.064 -2.07443 3.71278 0
M  V30 1109 N 109.379 -1.50304 -0.473955 0
M  V30 1110 C 110.626 -1.6115 -1.22625 0
M  V30 1111 C 110.954 -0.310517 -1.92005 0
M  V30 1112 O 110.209 0.703419 -1.82621 0
M  V30 1113 C 110.508 -2.73938 -2.29549 0
M  V30 1114 C 110.174 -4.14519 -1.7744 0
M  V30 1115 C 108.836 -4.5277 -1.62949 0
M  V30 1116 C 111.188 -5.02392 -1.3875 0
M  V30 1117 C 108.516 -5.76639 -1.08187 0
M  V30 1118 C 110.868 -6.26805 -0.854309 0
M  V30 1119 C 109.532 -6.63861 -0.696011 0
M  V30 1120 H 108.802 -0.589691 -0.448715 0
M  V30 1121 H 111.449 -1.84228 -0.522705 0
M  V30 1122 H 109.754 -2.44937 -3.05799 0
M  V30 1123 H 111.451 -2.79534 -2.87509 0
M  V30 1124 H 108.041 -3.8434 -1.89685 0
M  V30 1125 H 112.225 -4.73474 -1.4878 0
M  V30 1126 H 107.481 -6.04027 -0.946666 0
M  V30 1127 H 111.655 -6.94258 -0.545843 0
M  V30 1128 H 109.282 -7.59722 -0.26952 0
M  V30 1129 N 110.857 0.726932 -1.39834 0
M  V30 1130 C 112.268 1.30558 -1.3346 0
M  V30 1131 C 112.619 1.962 -0.00273003 0
M  V30 1132 O 111.744 1.96826 0.899371 0
M  V30 1133 C 112.339 2.37404 -2.41713 0
M  V30 1134 C 110.898 2.90921 -2.38835 0
M  V30 1135 C 110.045 1.64578 -2.2318 0
M  V30 1136 H 112.996 0.523862 -1.49804 0
M  V30 1137 H 113.017 3.17984 -2.08966 0
M  V30 1138 H 112.529 1.89599 -3.38635 0
M  V30 1139 H 110.63 3.42985 -1.45575 0
M  V30 1140 H 110.743 3.43487 -3.33997 0
M  V30 1141 H 109.107 1.89219 -1.70494 0
M  V30 1142 H 109.89 1.18814 -3.22084 0
M  V30 1143 N 112.336 1.25143 0.95797 0
M  V30 1144 C 113.584 1.09476 1.69881 0
M  V30 1145 C 113.905 -0.365502 1.91544 0
M  V30 1146 O 113.175 -1.25985 1.50015 0
M  V30 1147 H 111.755 0.402128 0.629525 0
M  V30 1148 H 114.417 1.57214 1.15194 0
M  V30 1149 H 113.513 1.60046 2.6794 0
M  V30 1150 N 113.814 -1.1601 1.06675 0
M  V30 1151 C 115.23 -1.38622 0.790948 0
M  V30 1152 C 115.43 -1.92109 -0.607965 0
M  V30 1153 O 114.486 -2.12239 -1.36787 0
M  V30 1154 C 115.799 -2.36347 1.85905 0
M  V30 1155 C 117.347 -2.50023 1.88301 0
M  V30 1156 C 117.822 -3.51033 2.94176 0
M  V30 1157 N 119.313 -3.58563 2.93235 0
M  V30 1158 C 120.048 -4.36521 3.71803 0
M  V30 1159 N 119.544 -5.17869 4.602 0
M  V30 1160 N 121.337 -4.31541 3.60178 0
M  V30 1161 H 113.488 -0.796294 1.96908 0
M  V30 1162 H 115.751 -0.412597 0.853503 0
M  V30 1163 H 115.457 -2.04147 2.86386 0
M  V30 1164 H 115.331 -3.36042 1.71334 0
M  V30 1165 H 117.718 -2.81524 0.884769 0
M  V30 1166 H 117.799 -1.5035 2.06951 0
M  V30 1167 H 117.443 -3.20268 3.94196 0
M  V30 1168 H 117.373 -4.50445 2.72776 0
M  V30 1169 H 119.864 -3.00496 2.29152 0
M  V30 1170 H 120.177 -5.74578 5.16797 0
M  V30 1171 H 118.522 -5.17199 4.64253 0
M  V30 1172 H 121.713 -3.67051 2.90502 0
M  V30 1173 H 121.886 -4.9205 4.21653 0
M  V30 1174 N 115.292 -0.849877 -1.32721 0
M  V30 1175 C 116.517 -0.463856 -2.02146 0
M  V30 1176 C 116.942 0.930449 -1.63476 0
M  V30 1177 O 116.3 1.61033 -0.832952 0
M  V30 1178 C 116.348 -0.604955 -3.55489 0
M  V30 1179 O 115.452 0.36425 -4.10788 0
M  V30 1180 H 114.793 -0.187046 -0.637111 0
M  V30 1181 H 117.323 -1.14775 -1.69375 0
M  V30 1182 H 117.333 -0.490696 -4.05038 0
M  V30 1183 H 116.008 -1.62174 -3.82978 0
M  V30 1184 H 114.585 0.206628 -3.72327 0
M  V30 1185 N 116.77 1.45427 -0.607355 0
M  V30 1186 C 117.702 2.2871 0.149752 0
M  V30 1187 C 118.715 1.39937 0.831958 0
M  V30 1188 O 119.904 1.64313 0.697385 0
M  V30 1189 C 117.004 3.15673 1.23304 0
M  V30 1190 C 116.177 4.32722 0.637996 0
M  V30 1191 C 115.236 5.00895 1.61215 0
M  V30 1192 O 114.262 5.57697 1.13854 0
M  V30 1193 N 115.464 5.00159 2.94655 0
M  V30 1194 H 118.229 2.94328 -0.564882 0
M  V30 1195 H 115.79 1.55612 -0.446823 0
M  V30 1196 H 117.782 3.58144 1.88454 0
M  V30 1197 H 116.352 2.51965 1.8502 0
M  V30 1198 H 115.572 3.93734 -0.191572 0
M  V30 1199 H 116.86 5.08321 0.220665 0
M  V30 1200 H 116.258 4.553 3.35735 0
M  V30 1201 H 114.815 5.46495 3.55228 0
M  V30 1202 N 118.248 0.346503 1.53744 0
M  V30 1203 C 119.488 -0.249413 2.02873 0
M  V30 1204 C 119.852 -1.47532 1.22876 0
M  V30 1205 O 121.053 -2.1456 1.61918 0
M  V30 1206 C 119.324 -0.552909 3.53097 0
M  V30 1207 S 120.883 -1.12521 4.24128 0
M  V30 1208 H 117.701 -0.074042 0.707134 0
M  V30 1209 H 120.303 0.48495 1.8939 0
M  V30 1210 H 119.007 0.347083 4.0893 0
M  V30 1211 H 118.538 -1.31686 3.70705 0
M  V30 1212 H 120.553 -2.41075 4.33702 0
M  V30 1213 N 119.726 -1.57421 0.075193 0
M  V30 1214 C 120.972 -1.93905 -0.594025 0
M  V30 1215 C 121.305 -0.955701 -1.69056 0
M  V30 1216 O 120.58 0.0145373 -1.94495 0
M  V30 1217 C 120.863 -3.40638 -1.1678 0
M  V30 1218 C 120.716 -4.49733 -0.0776792 0
M  V30 1219 C 122.035 -3.88259 -2.07228 0
M  V30 1220 H 119.154 -0.705105 -0.214466 0
M  V30 1221 H 121.796 -1.8947 0.141854 0
M  V30 1222 H 119.946 -3.44549 -1.79494 0
M  V30 1223 H 121.618 -4.57942 0.555573 0
M  V30 1224 H 119.861 -4.29751 0.591286 0
M  V30 1225 H 120.532 -5.49549 -0.519603 0
M  V30 1226 H 123.008 -3.86376 -1.54445 0
M  V30 1227 H 121.884 -4.91533 -2.44308 0
M  V30 1228 H 122.145 -3.26396 -2.98191 0
M  V30 1229 N 121.204 0.198386 -1.56346 0
M  V30 1230 C 122.45 0.920648 -1.80698 0
M  V30 1231 C 122.783 1.83045 -0.648697 0
M  V30 1232 O 122.058 1.91308 0.350925 0
M  V30 1233 C 122.341 1.73971 -3.15287 0
M  V30 1234 C 122.194 0.85485 -4.41602 0
M  V30 1235 C 123.513 2.71296 -3.46535 0
M  V30 1236 H 120.632 0.333261 -0.657348 0
M  V30 1237 H 123.274 0.188198 -1.89066 0
M  V30 1238 H 121.424 2.36416 -3.08285 0
M  V30 1239 H 123.096 0.245362 -4.60647 0
M  V30 1240 H 121.339 0.161398 -4.335 0
M  V30 1241 H 122.01 1.46286 -5.32264 0
M  V30 1242 H 124.486 2.18983 -3.53816 0
M  V30 1243 H 123.362 3.2569 -4.41834 0
M  V30 1244 H 123.623 3.5018 -2.69864 0
M  V30 1245 N 122.682 1.50554 0.465978 0
M  V30 1246 C 124.093 1.54599 1.04671 0
M  V30 1247 C 124.444 0.352488 1.93008 0
M  V30 1248 O 123.569 -0.534044 2.09707 0
M  V30 1249 C 124.164 2.80166 1.90505 0
M  V30 1250 C 122.723 2.86876 2.43678 0
M  V30 1251 C 121.87 2.48947 1.22151 0
M  V30 1252 H 124.821 1.56744 0.248384 0
M  V30 1253 H 124.842 2.62311 2.75633 0
M  V30 1254 H 124.354 3.67013 1.26186 0
M  V30 1255 H 122.455 2.04393 3.11536 0
M  V30 1256 H 122.568 3.89885 2.78436 0
M  V30 1257 H 120.932 2.01498 1.5579 0
M  V30 1258 H 121.715 3.38107 0.594866 0
M  V30 1259 N 124.16 -0.719506 1.40217 0
M  V30 1260 C 125.409 -1.47486 1.37589 0
M  V30 1261 C 125.722 -1.9559 -0.0201568 0
M  V30 1262 O 126.928 -2.70973 -0.169049 0
M  V30 1263 C 125.384 -2.66575 2.41796 0
M  V30 1264 C 124.992 -2.25358 3.87192 0
M  V30 1265 C 126.736 -3.4433 2.48269 0
M  V30 1266 C 124.643 -3.41262 4.83005 0
M  V30 1267 H 123.573 -0.553901 0.511576 0
M  V30 1268 H 126.224 -0.783427 1.65936 0
M  V30 1269 H 124.606 -3.3787 2.06543 0
M  V30 1270 H 125.78 -1.61509 4.31569 0
M  V30 1271 H 124.095 -1.60657 3.84159 0
M  V30 1272 H 126.692 -4.30569 3.17041 0
M  V30 1273 H 127.035 -3.87872 1.51198 0
M  V30 1274 H 127.568 -2.80076 2.82493 0
M  V30 1275 H 124.307 -3.02755 5.81394 0
M  V30 1276 H 123.827 -4.0404 4.43297 0
M  V30 1277 H 125.506 -4.07383 5.02641 0
M  V30 1278 N 125.638 -1.25649 -0.95132 0
M  V30 1279 C 126.878 -1.11802 -1.71113 0
M  V30 1280 C 127.242 0.334758 -1.89059 0
M  V30 1281 O 128.443 0.595121 -2.62129 0
M  V30 1282 C 126.714 -1.85512 -3.05483 0
M  V30 1283 S 128.273 -1.87597 -3.96677 0
M  V30 1284 H 125.091 -0.399552 -0.588115 0
M  V30 1285 H 127.693 -1.59222 -1.1344 0
M  V30 1286 H 126.397 -2.90299 -2.90094 0
M  V30 1287 H 125.928 -1.38493 -3.68216 0
M  V30 1288 H 127.943 -0.955389 -4.86916 0
M  V30 1289 N 127.117 1.15442 -1.07289 0
M  V30 1290 C 128.533 1.38201 -0.798288 0
M  V30 1291 C 128.733 1.92429 0.597769 0
M  V30 1292 O 127.789 2.12962 1.3566 0
M  V30 1293 C 129.102 2.35357 -1.87156 0
M  V30 1294 C 130.65 2.49021 -1.89624 0
M  V30 1295 C 131.125 3.49468 -2.96034 0
M  V30 1296 N 132.616 3.57003 -2.95132 0
M  V30 1297 C 133.351 4.34543 -3.74112 0
M  V30 1298 N 132.847 5.15421 -4.6294 0
M  V30 1299 N 134.64 4.29625 -3.62462 0
M  V30 1300 H 126.791 0.78584 -1.97328 0
M  V30 1301 H 129.054 0.408065 -0.855679 0
M  V30 1302 H 128.76 2.02626 -2.87464 0
M  V30 1303 H 128.634 3.35129 -1.73114 0
M  V30 1304 H 131.021 2.81051 -0.899687 0
M  V30 1305 H 131.102 1.4925 -2.07745 0
M  V30 1306 H 130.746 3.18173 -3.95889 0
M  V30 1307 H 130.676 4.48992 -2.75161 0
M  V30 1308 H 133.167 2.99276 -2.30743 0
M  V30 1309 H 133.48 5.7183 -5.19837 0
M  V30 1310 H 131.825 5.14729 -4.66989 0
M  V30 1311 H 135.016 3.65505 -2.92444 0
M  V30 1312 H 135.189 4.89807 -4.24256 0
M  V30 1313 N 128.595 0.856903 1.32268 0
M  V30 1314 C 130.011 0.547061 1.49931 0
M  V30 1315 C 130.211 -0.921781 1.7918 0
M  V30 1316 O 129.267 -1.70469 1.8627 0
M  V30 1317 C 130.58 1.43599 2.64196 0
M  V30 1318 C 132.128 1.43665 2.78081 0
M  V30 1319 C 132.603 2.31085 3.95428 0
M  V30 1320 N 134.094 2.28893 4.02694 0
M  V30 1321 C 134.829 2.93262 4.92732 0
M  V30 1322 N 134.325 3.66751 5.87763 0
M  V30 1323 N 136.118 2.82638 4.85873 0
M  V30 1324 H 128.269 1.8075 1.11549 0
M  V30 1325 H 130.532 0.772144 0.549997 0
M  V30 1326 H 130.238 2.48058 2.49319 0
M  V30 1327 H 130.112 1.12502 3.60032 0
M  V30 1328 H 132.499 0.399701 2.92381 0
M  V30 1329 H 132.58 1.7878 1.82952 0
M  V30 1330 H 132.224 3.34849 3.81888 0
M  V30 1331 H 132.154 1.93302 4.89839 0
M  V30 1332 H 134.645 1.75466 3.34694 0
M  V30 1333 H 134.958 4.13027 6.53168 0
M  V30 1334 H 133.303 3.70859 5.87783 0
M  V30 1335 H 136.494 2.24774 4.10602 0
M  V30 1336 H 136.667 3.33084 5.55841 0
M  V30 1337 N 130.073 -1.45103 0.615059 0
M  V30 1338 C 131.036 -2.29025 -0.0895485 0
M  V30 1339 C 132.036 -1.40174 -0.787906 0
M  V30 1340 O 133.226 -1.62217 -0.634933 0
M  V30 1341 C 130.358 -3.21376 -1.13711 0
M  V30 1342 H 131.551 -2.92807 0.648382 0
M  V30 1343 H 129.104 -1.51749 0.374444 0
M  V30 1344 H 129.839 -2.6241 -1.90556 0
M  V30 1345 H 129.624 -3.86834 -0.640475 0
M  V30 1346 H 131.114 -3.84459 -1.63036 0
M  V30 1347 N 131.551 -0.354651 -1.53558 0
M  V30 1348 C 132.791 0.238651 -2.03002 0
M  V30 1349 C 133.155 1.46878 -1.23656 0
M  V30 1350 O 134.356 2.13699 -1.63053 0
M  V30 1351 C 132.627 0.534175 -3.53386 0
M  V30 1352 S 134.186 1.10271 -4.24719 0
M  V30 1353 H 131.004 0.0702908 -0.707517 0
M  V30 1354 H 133.606 -0.494987 -1.8913 0
M  V30 1355 H 132.31 -0.368765 -4.0874 0
M  V30 1356 H 131.841 1.29718 -3.71398 0
M  V30 1357 H 133.856 2.38772 -4.34974 0
M  V30 1358 N 133.029 1.57378 -0.0835403 0
M  V30 1359 C 134.277 1.93547 0.581718 0
M  V30 1360 C 134.598 0.96524 1.69435 0
M  V30 1361 O 133.868 0.0153369 1.95894 0
M  V30 1362 H 132.448 0.714521 0.217874 0
M  V30 1363 H 135.11 1.94366 -0.144158 0
M  V30 1364 H 134.206 2.95665 0.999423 0
M  V30 1365 N 134.507 -0.190092 1.56449 0
M  V30 1366 C 135.417 -1.25591 1.98152 0
M  V30 1367 C 136.433 -1.49519 0.889944 0
M  V30 1368 O 137.609 -1.62036 1.19609 0
M  V30 1369 C 134.674 -2.57916 2.3169 0
M  V30 1370 C 133.735 -2.42015 3.5458 0
M  V30 1371 C 132.968 -3.6803 3.8651 0
M  V30 1372 O 133.191 -4.72413 3.1966 0
M  V30 1373 O 132.125 -3.6326 4.79923 0
M  V30 1374 H 135.951 -0.931988 2.89046 0
M  V30 1375 H 133.536 -0.395488 1.4407 0
M  V30 1376 H 135.418 -3.36008 2.54316 0
M  V30 1377 H 134.093 -2.89925 1.43963 0
M  V30 1378 H 133 -1.62017 3.37196 0
M  V30 1379 H 134.333 -2.14937 4.4279 0
M  V30 1380 N 135.985 -1.50799 -0.457987 0
M  V30 1381 C 137.233 -1.62121 -1.2067 0
M  V30 1382 C 137.554 -0.329793 -1.92191 0
M  V30 1383 O 136.824 0.653409 -1.84682 0
M  V30 1384 H 135.404 -0.597441 -0.448411 0
M  V30 1385 H 138.066 -1.87637 -0.527096 0
M  V30 1386 H 137.162 -2.43882 -1.94751 0
M  V30 1387 N 137.463 0.71206 -1.40597 0
M  V30 1388 C 138.71 1.47197 -1.39065 0
M  V30 1389 C 139.038 1.94499 0.00583891 0
M  V30 1390 O 138.293 1.68752 0.99102 0
M  V30 1391 C 138.592 2.71039 -2.32965 0
M  V30 1392 C 138.258 2.42484 -3.80148 0
M  V30 1393 C 136.92 2.34406 -4.20247 0
M  V30 1394 C 139.272 2.18598 -4.73143 0
M  V30 1395 C 136.6 2.00516 -5.51371 0
M  V30 1396 C 138.952 1.8622 -6.0457 0
M  V30 1397 C 137.616 1.76626 -6.43708 0
M  V30 1398 H 136.886 0.538634 -0.508876 0
M  V30 1399 H 139.533 0.815325 -1.73276 0
M  V30 1400 H 137.838 3.41558 -1.91951 0
M  V30 1401 H 139.535 3.29138 -2.29061 0
M  V30 1402 H 136.125 2.49659 -3.4838 0
M  V30 1403 H 140.309 2.23793 -4.42979 0
M  V30 1404 H 135.565 1.91628 -5.80593 0
M  V30 1405 H 139.739 1.66752 -6.76141 0
M  V30 1406 H 137.366 1.50133 -7.45228 0
M  V30 1407 N 138.941 1.26152 0.944643 0
M  V30 1408 C 140.181 1.12708 1.70517 0
M  V30 1409 C 140.545 -0.324727 1.89234 0
M  V30 1410 O 141.746 -0.581211 2.62441 0
M  V30 1411 C 140.017 1.8713 3.04495 0
M  V30 1412 S 141.576 1.89698 3.95677 0
M  V30 1413 H 138.394 0.402665 0.585988 0
M  V30 1414 H 140.996 1.59821 1.12594 0
M  V30 1415 H 139.7 2.91833 2.88551 0
M  V30 1416 H 139.231 1.40444 3.67477 0
M  V30 1417 H 141.246 0.981198 4.86402 0
M  V30 1418 N 140.419 -1.14872 1.07899 0
M  V30 1419 C 141.644 -1.90202 0.826926 0
M  V30 1420 C 142.069 -1.77774 -0.614664 0
M  V30 1421 O 141.427 -1.11431 -1.43013 0
M  V30 1422 C 141.475 -3.38352 1.24702 0
M  V30 1423 O 140.579 -4.10497 0.39575 0
M  V30 1424 H 139.92 -0.591968 0.300782 0
M  V30 1425 H 142.45 -1.45437 1.43907 0
M  V30 1426 H 142.46 -3.89156 1.22563 0
M  V30 1427 H 141.135 -3.46715 2.29698 0
M  V30 1428 H 139.712 -3.69796 0.480117 0
M  V30 1429 N 141.898 -0.863906 -1.31812 0
M  V30 1430 C 142.83 -0.272485 -2.27575 0
M  V30 1431 C 143.843 0.56104 -1.52827 0
M  V30 1432 O 145.032 0.384021 -1.7432 0
M  V30 1433 C 142.132 0.63283 -3.32939 0
M  V30 1434 C 141.305 -0.166902 -4.37081 0
M  V30 1435 C 140.364 0.665608 -5.21973 0
M  V30 1436 O 139.39 0.0958091 -5.69119 0
M  V30 1437 N 140.592 1.9787 -5.45736 0
M  V30 1438 H 143.357 -1.0954 -2.78964 0
M  V30 1439 H 140.918 -0.724791 -1.4477 0
M  V30 1440 H 142.91 1.19532 -3.86645 0
M  V30 1441 H 141.48 1.35642 -2.81638 0
M  V30 1442 H 140.7 -0.910838 -3.83533 0
M  V30 1443 H 141.988 -0.715874 -5.03739 0
M  V30 1444 H 141.386 2.46484 -5.09178 0
M  V30 1445 H 139.943 2.48911 -6.024 0
M  V30 1446 N 143.376 1.44774 -0.622745 0
M  V30 1447 C 144.787 1.85546 -0.207226 0
M  V30 1448 C 145.138 1.52093 1.23944 0
M  V30 1449 O 144.263 0.95492 1.94191 0
M  V30 1450 C 144.858 3.36781 -0.369313 0
M  V30 1451 C 143.417 3.76399 -0.00836847 0
M  V30 1452 C 142.564 2.68664 -0.686651 0
M  V30 1453 H 145.515 1.3536 -0.828454 0
M  V30 1454 H 145.536 3.78453 0.394162 0
M  V30 1455 H 145.048 3.61098 -1.42231 0
M  V30 1456 H 143.149 3.57698 1.04322 0
M  V30 1457 H 143.262 4.7732 -0.412584 0
M  V30 1458 H 141.626 2.54404 -0.122777 0
M  V30 1459 H 142.409 2.95815 -1.74208 0
M  V30 1460 N 144.854 0.36279 1.53368 0
M  V30 1461 C 145.802 -0.500155 2.27159 0
M  V30 1462 C 146.796 -1.08575 1.3003 0
M  V30 1463 O 148.002 -1.02927 1.47668 0
M  V30 1464 H 144.377 -0.180009 0.730138 0
M  V30 1465 H 146.348 0.14401 2.98052 0
M  V30 1466 C 145.097 -1.62937 3.07159 0
M  V30 1467 H 144.42 -1.18806 3.8174 0
M  V30 1468 H 145.86 -2.20795 3.61975 0
M  V30 1469 C 144.319 -2.57007 2.17829 0
M  V30 1470 O 144.849 -3.59752 1.78721 0
M  V30 1471 N 143.055 -2.26131 1.82518 0
M  V30 1472 H 142.602 -1.42616 2.14519 0
M  V30 1473 H 142.56 -2.89327 1.23034 0
M  V30 1474 N 146.332 -1.57332 0.0918853 0
M  V30 1475 C 147.262 -2.16872 -0.865371 0
M  V30 1476 C 148.243 -1.10118 -1.29646 0
M  V30 1477 O 149.428 -1.38242 -1.36392 0
M  V30 1478 C 146.558 -2.74649 -2.12569 0
M  V30 1479 C 145.512 -3.86747 -1.83333 0
M  V30 1480 C 144.838 -4.31212 -3.16166 0
M  V30 1481 C 146.138 -5.10089 -1.1228 0
M  V30 1482 H 147.832 -2.97114 -0.369307 0
M  V30 1483 H 145.378 -1.42918 -0.176194 0
M  V30 1484 H 147.331 -3.14952 -2.7997 0
M  V30 1485 H 146.055 -1.91657 -2.64452 0
M  V30 1486 H 144.714 -3.46978 -1.18331 0
M  V30 1487 H 144.362 -3.45115 -3.6593 0
M  V30 1488 H 144.062 -5.06788 -2.97388 0
M  V30 1489 H 145.586 -4.74146 -3.84731 0
M  V30 1490 H 147 -5.47582 -1.69785 0
M  V30 1491 H 145.397 -5.91073 -1.03693 0
M  V30 1492 H 146.467 -4.84786 -0.105041 0
M  V30 1493 N 147.81 0.181792 -1.56548 0
M  V30 1494 C 149.05 0.906711 -1.83189 0
M  V30 1495 C 149.414 1.79882 -0.671312 0
M  V30 1496 O 150.615 2.56054 -0.81792 0
M  V30 1497 C 148.886 1.69023 -3.14906 0
M  V30 1498 S 150.445 2.46535 -3.62996 0
M  V30 1499 H 147.263 0.303877 -0.642791 0
M  V30 1500 H 149.865 0.169107 -1.94767 0
M  V30 1501 H 148.569 1.02571 -3.97376 0
M  V30 1502 H 148.1 2.46941 -3.06241 0
M  V30 1503 H 150.115 3.71014 -3.29489 0
M  V30 1504 N 149.288 1.51039 0.449983 0
M  V30 1505 C 150.516 1.66869 1.2232 0
M  V30 1506 C 150.931 0.360727 1.85322 0
M  V30 1507 O 150.288 -0.659531 1.70166 0
M  V30 1508 C 150.339 2.77524 2.31652 0
M  V30 1509 O 150.06 4.03252 1.7123 0
M  V30 1510 C 151.561 3.04512 3.2216 0
M  V30 1511 H 148.781 0.560326 0.369155 0
M  V30 1512 H 151.325 1.97385 0.534719 0
M  V30 1513 H 149.48 2.49642 2.96239 0
M  V30 1514 H 149.894 4.64609 2.43389 0
M  V30 1515 H 151.368 3.85551 3.95038 0
M  V30 1516 H 151.845 2.16415 3.8218 0
M  V30 1517 H 152.451 3.34005 2.63288 0
M  V30 1518 N 150.766 -0.704594 1.40972 0
M  V30 1519 C 152.006 -1.47691 1.41304 0
M  V30 1520 C 152.37 -1.91992 0.0178582 0
M  V30 1521 O 153.571 -2.68599 -0.103996 0
M  V30 1522 C 151.842 -2.66254 2.38419 0
M  V30 1523 S 153.401 -3.55516 2.57204 0
M  V30 1524 H 150.219 -0.504808 0.500689 0
M  V30 1525 H 152.821 -0.822962 1.77335 0
M  V30 1526 H 151.525 -2.31897 3.38603 0
M  V30 1527 H 151.056 -3.3655 2.03711 0
M  V30 1528 H 153.071 -4.61115 1.83268 0
M  V30 1529 N 152.244 -1.26651 -0.937939 0
M  V30 1530 C 153.207 -1.08546 -2.01867 0
M  V30 1531 C 154.207 -0.0327327 -1.60767 0
M  V30 1532 O 155.397 -0.276427 -1.71993 0
M  V30 1533 C 152.529 -0.651711 -3.34613 0
M  V30 1534 H 153.722 -2.04502 -2.1936 0
M  V30 1535 H 151.275 -1.09294 -1.11734 0
M  V30 1536 H 152.01 0.309696 -3.22818 0
M  V30 1537 H 151.795 -1.41189 -3.65798 0
M  V30 1538 H 153.285 -0.546973 -4.14002 0
M  V30 1539 N 153.722 1.14298 -1.08507 0
M  V30 1540 C 154.999 1.81544 -0.728088 0
M  V30 1541 C 155.379 1.95838 0.78808 0
M  V30 1542 O 154.727 1.51904 1.70697 0
M  V30 1543 C 154.937 3.17169 -1.45619 0
M  V30 1544 C 156.285 3.9265 -1.61591 0
M  V30 1545 O 157.309 3.26762 -1.41793 0
M  V30 1546 O 156.168 5.10807 -1.94263 0
M  V30 1547 H 153.262 0.78491 -0.260471 0
M  V30 1548 H 155.808 1.21307 -1.18671 0
M  V30 1549 H 154.58 3.01934 -2.489 0
M  V30 1550 H 154.203 3.851 -0.989124 0
M  V30 1551 N 155.201 0.870884 1.31352 0
M  V30 1552 C 156.449 0.48132 1.96285 0
M  V30 1553 C 156.77 -0.969813 1.69173 0
M  V30 1554 O 156.04 -1.67998 1.00764 0
M  V30 1555 H 154.62 0.175002 0.726212 0
M  V30 1556 H 157.282 1.11087 1.60143 0
M  V30 1557 H 156.378 0.639825 3.05471 0
M  V30 1558 N 156.679 -1.44442 0.630414 0
M  V30 1559 C 157.907 -2.06414 0.141671 0
M  V30 1560 C 158.322 -1.47105 -1.18345 0
M  V30 1561 O 157.679 -0.593662 -1.72574 0
M  V30 1562 C 157.73 -3.61494 0.0199784 0
M  V30 1563 O 157.451 -4.18594 1.29269 0
M  V30 1564 C 158.952 -4.40499 -0.497544 0
M  V30 1565 H 156.172 -0.666292 0.0793452 0
M  V30 1566 H 158.716 -1.85323 0.864614 0
M  V30 1567 H 156.871 -3.8185 -0.653402 0
M  V30 1568 H 157.285 -5.12026 1.13707 0
M  V30 1569 H 158.759 -5.49433 -0.531708 0
M  V30 1570 H 159.236 -4.11895 -1.52445 0
M  V30 1571 H 159.842 -4.25061 0.142562 0
M  V30 1572 N 158.157 -0.370918 -1.53173 0
M  V30 1573 C 159.087 0.464847 -2.28826 0
M  V30 1574 C 160.068 1.07936 -1.31468 0
M  V30 1575 O 161.253 1.0956 -1.60344 0
M  V30 1576 C 158.383 1.60196 -3.08147 0
M  V30 1577 C 157.337 1.11443 -4.13237 0
M  V30 1578 C 156.663 2.3422 -4.80672 0
M  V30 1579 C 157.963 0.195384 -5.21934 0
M  V30 1580 H 159.657 -0.166329 -2.98938 0
M  V30 1581 H 157.203 -0.0814359 -1.4377 0
M  V30 1582 H 159.156 2.19332 -3.59822 0
M  V30 1583 H 157.88 2.26045 -2.35735 0
M  V30 1584 H 156.539 0.545727 -3.62515 0
M  V30 1585 H 156.187 2.98537 -4.04827 0
M  V30 1586 H 155.887 2.02269 -5.51689 0
M  V30 1587 H 157.411 2.94032 -5.35143 0
M  V30 1588 H 158.825 0.694375 -5.69079 0
M  V30 1589 H 157.222 -0.0335027 -6.00091 0
M  V30 1590 H 158.292 -0.760961 -4.78892 0
M  V30 1591 N 159.635 1.57281 -0.100228 0
M  V30 1592 C 160.598 2.13158 0.842398 0
M  V30 1593 C 161.598 1.06202 1.20738 0
M  V30 1594 O 162.788 1.32066 1.13597 0
M  V30 1595 C 159.92 2.65639 2.13655 0
M  V30 1596 H 161.113 2.97766 0.357114 0
M  V30 1597 H 158.666 1.5559 0.148823 0
M  V30 1598 H 159.401 1.84566 2.66657 0
M  V30 1599 H 159.186 3.43844 1.88451 0
M  V30 1600 H 160.676 3.08846 2.81077 0
M  V30 1601 N 161.113 -0.173488 1.56642 0
M  V30 1602 C 162.524 -0.736155 1.71574 0
M  V30 1603 C 162.875 -1.82888 0.710389 0
M  V30 1604 O 162 -2.16017 -0.1287 0
M  V30 1605 C 162.595 -1.34211 3.11083 0
M  V30 1606 C 161.154 -1.85162 3.27707 0
M  V30 1607 C 160.301 -0.729765 2.67525 0
M  V30 1608 H 163.252 0.0518786 1.58615 0
M  V30 1609 H 163.273 -2.21178 3.09613 0
M  V30 1610 H 162.785 -0.546579 3.84232 0
M  V30 1611 H 160.886 -2.67366 2.59512 0
M  V30 1612 H 160.999 -1.99855 4.35425 0
M  V30 1613 H 159.363 -1.14965 2.27278 0
M  V30 1614 H 160.146 0.0538806 3.43258 0
M  V30 1615 N 162.591 -1.51276 -0.441967 0
M  V30 1616 C 163.816 -1.67799 -1.21895 0
M  V30 1617 C 164.241 -0.372864 -1.84367 0
M  V30 1618 O 163.599 0.666501 -1.68604 0
M  V30 1619 C 163.647 -2.79199 -2.28211 0
M  V30 1620 O 162.751 -2.42479 -3.33583 0
M  V30 1621 H 162.092 -0.559649 -0.357336 0
M  V30 1622 H 164.622 -1.97815 -0.522522 0
M  V30 1623 H 164.632 -3.03146 -2.73069 0
M  V30 1624 H 163.307 -3.73906 -1.82118 0
M  V30 1625 H 161.884 -2.29087 -2.94234 0
M  V30 1626 N 164.069 0.697108 -1.41344 0
M  V30 1627 C 165.309 1.46939 -1.42085 0
M  V30 1628 C 165.673 1.9198 -0.0280397 0
M  V30 1629 O 166.874 2.6865 0.0897504 0
M  V30 1630 C 165.145 2.64985 -2.39828 0
M  V30 1631 S 166.704 3.54147 -2.59085 0
M  V30 1632 H 163.522 0.502146 -0.503359 0
M  V30 1633 H 166.124 0.813546 -1.77769 0
M  V30 1634 H 164.828 2.30098 -3.39828 0
M  V30 1635 H 164.359 3.35464 -2.05493 0
M  V30 1636 H 166.374 4.60137 -1.85711 0
M  V30 1637 N 165.547 1.27147 0.931209 0
M  V30 1638 C 166.795 1.13055 1.6752 0
M  V30 1639 C 167.116 -0.324791 1.92276 0
M  V30 1640 O 166.386 -1.22775 1.52654 0
M  V30 1641 H 164.966 0.415391 0.620854 0
M  V30 1642 H 167.628 1.59623 1.11833 0
M  V30 1643 H 166.724 1.65694 2.64485 0
M  V30 1644 N 167.025 -1.13721 1.09112 0
M  V30 1645 C 168.271 -1.85198 0.826414 0
M  V30 1646 C 168.604 -1.83129 -0.646319 0
M  V30 1647 O 167.879 -1.2671 -1.47563 0
M  V30 1648 C 168.162 -3.33507 1.35812 0
M  V30 1649 C 168.015 -3.44108 2.89672 0
M  V30 1650 C 169.334 -4.28838 0.989256 0
M  V30 1651 H 166.453 -0.67243 0.301675 0
M  V30 1652 H 169.095 -1.33499 1.35197 0
M  V30 1653 H 167.245 -3.77666 0.911082 0
M  V30 1654 H 168.917 -3.08684 3.428 0
M  V30 1655 H 167.16 -2.85087 3.26967 0
M  V30 1656 H 167.831 -4.48388 3.21951 0
M  V30 1657 H 170.307 -3.92734 1.37475 0
M  V30 1658 H 169.183 -5.31051 1.38838 0
M  V30 1659 H 169.444 -4.4198 -0.102924 0
M  V30 1660 N 168.503 -0.877838 -1.30888 0
M  V30 1661 C 169.728 -0.506629 -2.01117 0
M  V30 1662 C 170.153 0.895564 -1.65412 0
M  V30 1663 O 169.511 1.5923 -0.866922 0
M  V30 1664 C 169.559 -0.680223 -3.54126 0
M  V30 1665 O 168.663 0.277033 -4.11468 0
M  V30 1666 H 168.004 -0.200518 -0.633 0
M  V30 1667 H 170.534 -1.18342 -1.66902 0
M  V30 1668 H 170.544 -0.5765 -4.03907 0
M  V30 1669 H 169.219 -1.70261 -3.79452 0
M  V30 1670 H 167.796 0.127606 -3.72682 0
M  V30 1671 N 169.982 1.44106 -0.638065 0
M  V30 1672 C 171.398 1.56672 -0.304286 0
M  V30 1673 C 171.598 1.6244 1.19228 0
M  V30 1674 O 170.654 1.57121 1.9766 0
M  V30 1675 C 171.967 2.83503 -1.00231 0
M  V30 1676 C 173.515 2.97226 -0.981116 0
M  V30 1677 C 173.99 4.26868 -1.65974 0
M  V30 1678 N 175.481 4.33698 -1.62666 0
M  V30 1679 C 176.216 5.32745 -2.12063 0
M  V30 1680 N 175.712 6.38157 -2.6968 0
M  V30 1681 N 177.505 5.24299 -2.02651 0
M  V30 1682 H 169.656 1.38605 -1.60942 0
M  V30 1683 H 171.919 0.664661 -0.675965 0
M  V30 1684 H 171.625 2.85251 -2.0573 0
M  V30 1685 H 171.499 3.73251 -0.54439 0
M  V30 1686 H 173.886 2.95027 0.0654188 0
M  V30 1687 H 173.967 2.08808 -1.47759 0
M  V30 1688 H 173.611 4.29826 -2.70576 0
M  V30 1689 H 173.541 5.14156 -1.13804 0
M  V30 1690 H 176.032 3.58138 -1.20606 0
M  V30 1691 H 176.345 7.10029 -3.05087 0
M  V30 1692 H 174.69 6.38823 -2.73734 0
M  V30 1693 H 177.881 4.4086 -1.57353 0
M  V30 1694 H 178.054 6.01334 -2.41457 0
M  V30 1695 N 171.46 0.379036 1.52974 0
M  V30 1696 C 172.708 -0.206014 2.01047 0
M  V30 1697 C 173.029 -1.48175 1.26765 0
M  V30 1698 O 172.299 -1.92085 0.384743 0
M  V30 1699 H 170.879 -0.0791184 0.742798 0
M  V30 1700 H 173.541 0.508366 1.88153 0
M  V30 1701 H 172.637 -0.423501 3.09213 0
M  V30 1702 N 172.938 -1.57226 0.108567 0
M  V30 1703 C 174.163 -1.99604 -0.563303 0
M  V30 1704 C 174.588 -0.987563 -1.6009 0
M  V30 1705 O 173.946 0.0421687 -1.81251 0
M  V30 1706 C 173.994 -3.40902 -1.17552 0
M  V30 1707 O 173.098 -3.42896 -2.2912 0
M  V30 1708 H 172.439 -0.648704 -0.1417 0
M  V30 1709 H 174.969 -2.03679 0.193961 0
M  V30 1710 H 174.979 -3.78886 -1.51357 0
M  V30 1711 H 173.654 -4.1382 -0.415445 0
M  V30 1712 H 172.231 -3.1672 -1.96832 0
M  V30 1713 N 174.416 0.165178 -1.56732 0
M  V30 1714 C 175.664 0.879068 -1.8198 0
M  V30 1715 C 175.985 1.82514 -0.686561 0
M  V30 1716 O 175.255 1.93694 0.293146 0
M  V30 1717 H 173.835 0.327608 -0.671329 0
M  V30 1718 H 176.497 0.163526 -1.94213 0
M  V30 1719 H 175.593 1.45228 -2.76252 0
M  V30 1720 N 175.894 1.51508 0.433938 0
M  V30 1721 C 177.134 1.66006 1.19253 0
M  V30 1722 C 177.498 0.369868 1.88404 0
M  V30 1723 O 178.699 0.39066 2.65946 0
M  V30 1724 C 176.97 2.83229 2.17981 0
M  V30 1725 S 178.529 3.18075 3.02281 0
M  V30 1726 H 175.347 0.584821 0.404358 0
M  V30 1727 H 177.949 1.89425 0.48357 0
M  V30 1728 H 176.653 3.75407 1.65824 0
M  V30 1729 H 176.184 2.6201 2.93453 0
M  V30 1730 H 178.199 2.64772 4.19655 0
M  V30 1731 N 177.372 -0.689602 1.41712 0
M  V30 1732 C 178.597 -1.48329 1.44959 0
M  V30 1733 C 179.022 -1.8801 0.0581283 0
M  V30 1734 O 178.38 -1.55026 -0.940035 0
M  V30 1735 C 178.428 -2.71835 2.36935 0
M  V30 1736 O 177.532 -3.69549 1.8305 0
M  V30 1737 H 176.873 -0.446199 0.491734 0
M  V30 1738 H 179.403 -0.847127 1.86239 0
M  V30 1739 H 179.413 -3.20076 2.53013 0
M  V30 1740 H 178.088 -2.42291 3.38035 0
M  V30 1741 H 176.665 -3.2851 1.76452 0
M  V30 1742 N 178.85 -1.27639 -0.924453 0
M  V30 1743 C 180.096 -1.14336 -1.67497 0
M  V30 1744 C 180.429 0.309465 -1.91718 0
M  V30 1745 O 179.704 1.22608 -1.50989 0
M  V30 1746 C 179.987 -1.93096 -3.0395 0
M  V30 1747 C 179.84 -3.46381 -2.8695 0
M  V30 1748 C 181.159 -1.73798 -4.0433 0
M  V30 1749 H 178.278 -0.416728 -0.607871 0
M  V30 1750 H 180.92 -1.56832 -1.07256 0
M  V30 1751 H 179.07 -1.56982 -3.55372 0
M  V30 1752 H 180.742 -3.92343 -2.42621 0
M  V30 1753 H 178.985 -3.72557 -2.22225 0
M  V30 1754 H 179.656 -3.96735 -3.83804 0
M  V30 1755 H 182.132 -2.05293 -3.61931 0
M  V30 1756 H 181.008 -2.31294 -4.97789 0
M  V30 1757 H 181.269 -0.686725 -4.36734 0
M  V30 1758 N 180.328 1.1314 -1.09713 0
M  V30 1759 C 181.553 1.88862 -0.857081 0
M  V30 1760 C 181.978 1.78729 0.586304 0
M  V30 1761 O 181.336 1.13692 1.41222 0
M  V30 1762 C 181.384 3.36325 -1.30069 0
M  V30 1763 O 180.488 4.09815 -0.461007 0
M  V30 1764 H 179.829 0.587108 -0.310162 0
M  V30 1765 H 182.359 1.43129 -1.46203 0
M  V30 1766 H 182.369 3.87157 -1.28738 0
M  V30 1767 H 181.044 3.43017 -2.35185 0
M  V30 1768 H 179.621 3.68986 -0.538888 0
M  V30 1769 N 181.806 0.884767 1.30421 0
M  V30 1770 C 183.046 0.509806 1.9794 0
M  V30 1771 C 183.41 -0.923736 1.68319 0
M  V30 1772 O 184.611 -1.40481 2.29169 0
M  V30 1773 C 182.882 0.776732 3.48858 0
M  V30 1774 S 184.441 0.503843 4.35898 0
M  V30 1775 H 181.259 0.189699 0.685227 0
M  V30 1776 H 183.861 1.14399 1.58535 0
M  V30 1777 H 182.565 1.81857 3.67908 0
M  V30 1778 H 182.096 0.1301 3.93185 0
M  V30 1779 H 184.111 -0.657625 4.91823 0
M  V30 1780 N 183.284 -1.43765 0.645699 0
M  V30 1781 C 184.217 -2.2798 -0.100072 0
M  V30 1782 C 185.195 -1.39391 -0.837194 0
M  V30 1783 O 186.379 -1.68833 -0.838306 0
M  V30 1784 C 183.506 -3.18643 -1.14823 0
M  V30 1785 C 182.552 -4.2344 -0.510009 0
M  V30 1786 S 183.385 -5.30761 0.710824 0
M  V30 1787 C 184.541 -6.24992 -0.33699 0
M  V30 1788 H 184.774 -2.90884 0.614322 0
M  V30 1789 H 182.307 -1.48166 0.434304 0
M  V30 1790 H 184.265 -3.71424 -1.74799 0
M  V30 1791 H 182.926 -2.54932 -1.8349 0
M  V30 1792 H 182.119 -4.86948 -1.29991 0
M  V30 1793 H 181.721 -3.73997 0.0154577 0
M  V30 1794 H 184.013 -6.66691 -1.20537 0
M  V30 1795 H 184.956 -7.07612 0.262879 0
M  V30 1796 H 185.364 -5.60517 -0.669425 0
M  V30 1797 N 184.763 -0.387143 -1.52771 0
M  V30 1798 C 185.711 0.463953 -2.27926 0
M  V30 1799 C 186.705 1.06493 -1.31741 0
M  V30 1800 O 187.911 1.00565 -1.49287 0
M  V30 1801 H 184.286 0.16837 -0.732909 0
M  V30 1802 H 186.257 -0.19141 -2.97785 0
M  V30 1803 C 185.006 1.5803 -3.09713 0
M  V30 1804 H 184.329 1.12718 -3.83581 0
M  V30 1805 H 185.769 2.15008 -3.65442 0
M  V30 1806 C 184.228 2.53509 -2.2189 0
M  V30 1807 O 184.758 3.56863 -1.84422 0
M  V30 1808 N 182.964 2.23199 -1.86093 0
M  V30 1809 H 182.511 1.39185 -2.16761 0
M  V30 1810 H 182.469 2.87333 -1.27621 0
M  V30 1811 N 186.241 1.57166 -0.116904 0
M  V30 1812 C 187.489 1.94737 0.540533 0
M  V30 1813 C 187.81 1.00096 1.67349 0
M  V30 1814 O 187.08 0.0568854 1.95817 0
M  V30 1815 H 185.66 0.718981 0.202669 0
M  V30 1816 H 188.322 1.94017 -0.185353 0
M  V30 1817 H 187.418 2.97719 0.936483 0
M  V30 1818 N 187.719 -0.156864 1.56817 0
M  V30 1819 C 188.967 -0.869404 1.82444 0
M  V30 1820 C 189.288 -1.82147 0.69623 0
M  V30 1821 O 188.558 -1.93847 -0.28287 0
M  V30 1822 H 187.138 -0.324043 0.673056 0
M  V30 1823 H 189.8 -0.153224 1.94297 0
M  V30 1824 H 188.896 -1.43761 2.77019 0
M  V30 1825 N 189.197 -1.51736 -0.425897 0
M  V30 1826 C 190.425 -1.68794 -1.1965 0
M  V30 1827 C 190.84 -0.390164 -1.84725 0
M  V30 1828 O 190.197 0.632376 -1.71194 0
M  V30 1829 C 190.248 -2.81174 -2.27208 0
M  V30 1830 O 189.969 -4.05925 -1.64793 0
M  V30 1831 C 191.47 -3.09599 -3.17275 0
M  V30 1832 H 188.69 -0.566128 -0.360194 0
M  V30 1833 H 191.234 -1.98211 -0.503249 0
M  V30 1834 H 189.389 -2.54324 -2.9223 0
M  V30 1835 H 189.803 -4.68423 -2.35967 0
M  V30 1836 H 191.277 -3.91786 -3.88854 0
M  V30 1837 H 191.754 -2.22468 -3.78688 0
M  V30 1838 H 192.36 -3.38151 -2.57941 0
M  V30 1839 N 190.675 0.682077 -1.42076 0
M  V30 1840 C 191.915 1.45424 -1.43636 0
M  V30 1841 C 192.279 1.91939 -0.0484001 0
M  V30 1842 O 193.48 2.6873 0.0612514 0
M  V30 1843 C 191.751 2.62427 -2.42625 0
M  V30 1844 S 193.31 3.51379 -2.62827 0
M  V30 1845 H 190.128 0.496779 -0.508657 0
M  V30 1846 H 192.73 0.794645 -1.78621 0
M  V30 1847 H 191.434 2.26481 -3.42249 0
M  V30 1848 H 190.965 3.33266 -2.09039 0
M  V30 1849 H 192.98 4.58141 -1.9058 0
M  V30 1850 N 192.153 1.28127 0.917671 0
M  V30 1851 C 193.569 1.05749 1.19538 0
M  V30 1852 C 193.769 -0.202633 2.00479 0
M  V30 1853 O 192.825 -0.905382 2.3571 0
M  V30 1854 C 194.138 2.30273 1.93378 0
M  V30 1855 C 195.686 2.35412 2.06277 0
M  V30 1856 C 196.161 3.59692 2.83524 0
M  V30 1857 N 197.652 3.60309 2.91087 0
M  V30 1858 C 198.387 4.53147 3.51348 0
M  V30 1859 N 197.883 5.563 4.12919 0
M  V30 1860 N 199.676 4.40751 3.48849 0
M  V30 1861 H 191.827 2.09024 0.377184 0
M  V30 1862 H 194.09 0.919798 0.22951 0
M  V30 1863 H 193.796 3.22055 1.41328 0
M  V30 1864 H 193.67 2.36378 2.93947 0
M  V30 1865 H 196.057 1.4413 2.57508 0
M  V30 1866 H 196.138 2.33304 1.04895 0
M  V30 1867 H 195.782 4.51316 2.32973 0
M  V30 1868 H 195.712 3.59054 3.85211 0
M  V30 1869 H 198.203 2.85714 2.47338 0
M  V30 1870 H 198.516 6.2329 4.56869 0
M  V30 1871 H 196.861 5.60131 4.11435 0
M  V30 1872 H 200.052 3.59367 2.99955 0
M  V30 1873 H 200.225 5.13291 3.9552 0
M  V30 1874 N 193.631 -1.12557 1.10312 0
M  V30 1875 C 194.879 -1.83675 0.843091 0
M  V30 1876 C 195.2 -1.84435 -0.633131 0
M  V30 1877 O 194.47 -1.30657 -1.45964 0
M  V30 1878 H 193.05 -0.680138 0.308904 0
M  V30 1879 H 195.712 -1.36301 1.39313 0
M  V30 1880 H 194.808 -2.87908 1.2048 0
M  V30 1881 N 195.109 -0.891671 -1.2995 0
M  V30 1882 C 196.072 -0.36828 -2.26222 0
M  V30 1883 C 197.072 0.493014 -1.53056 0
M  V30 1884 O 198.262 0.299213 -1.71611 0
M  V30 1885 C 195.394 0.47442 -3.37583 0
M  V30 1886 H 196.587 -1.21844 -2.74033 0
M  V30 1887 H 194.14 -0.669107 -1.41254 0
M  V30 1888 H 194.875 1.34489 -2.95099 0
M  V30 1889 H 194.66 -0.142615 -3.91841 0
M  V30 1890 H 196.15 0.83218 -4.09224 0
M  V30 1891 N 196.587 1.43421 -0.653314 0
M  V30 1892 C 197.812 2.06678 -0.172846 0
M  V30 1893 C 198.237 1.48648 1.15262 0
M  V30 1894 O 197.595 0.596457 1.71208 0
M  V30 1895 C 197.643 3.60474 -0.0953184 0
M  V30 1896 O 196.747 4.01487 0.942442 0
M  V30 1897 H 196.088 0.657181 -0.0949155 0
M  V30 1898 H 198.618 1.83925 -0.896265 0
M  V30 1899 H 198.628 4.07905 0.0879728 0
M  V30 1900 H 197.303 4.02088 -1.06291 0
M  V30 1901 H 195.88 3.65646 0.731932 0
M  V30 1902 N 198.065 0.39524 1.52563 0
M  V30 1903 C 199.305 -0.184744 2.03563 0
M  V30 1904 C 199.669 -1.43548 1.27507 0
M  V30 1905 O 200.87 -2.093 1.68662 0
M  V30 1906 C 199.141 -0.440294 3.54678 0
M  V30 1907 S 200.7 -0.989712 4.27493 0
M  V30 1908 H 197.518 -0.0515075 0.709132 0
M  V30 1909 H 200.12 0.544957 1.87751 0
M  V30 1910 H 198.824 0.477005 4.07618 0
M  V30 1911 H 198.355 -1.19825 3.74707 0
M  V30 1912 H 200.37 -2.27155 4.41152 0
M  V30 1913 N 199.544 -1.57102 0.125237 0
M  V30 1914 C 200.474 -2.18659 -0.819174 0
M  V30 1915 C 201.455 -1.12843 -1.27281 0
M  V30 1916 O 202.64 -1.41104 -1.33429 0
M  V30 1917 C 199.77 -2.79096 -2.06695 0
M  V30 1918 C 198.724 -3.90548 -1.75088 0
M  V30 1919 C 198.05 -4.37821 -3.06948 0
M  V30 1920 C 199.35 -5.12356 -1.01435 0
M  V30 1921 H 201.044 -2.9783 -0.306202 0
M  V30 1922 H 198.59 -1.4326 -0.145839 0
M  V30 1923 H 200.543 -3.2082 -2.73226 0
M  V30 1924 H 199.267 -1.97223 -2.60328 0
M  V30 1925 H 197.926 -3.49409 -1.10944 0
M  V30 1926 H 197.574 -3.52799 -3.58527 0
M  V30 1927 H 197.274 -5.12982 -2.86571 0
M  V30 1928 H 198.798 -4.822 -3.74587 0
M  V30 1929 H 200.212 -5.5106 -1.58132 0
M  V30 1930 H 198.609 -5.9314 -0.911319 0
M  V30 1931 H 199.679 -4.849 -0.00218681 0
M  V30 1932 N 201.022 0.148545 -1.56898 0
M  V30 1933 C 202.262 0.86765 -1.85071 0
M  V30 1934 C 202.626 1.78417 -0.709317 0
M  V30 1935 O 203.827 2.54261 -0.872049 0
M  V30 1936 C 202.098 1.62306 -3.1842 0
M  V30 1937 S 203.657 2.3878 -3.68143 0
M  V30 1938 H 200.475 0.290174 -0.649092 0
M  V30 1939 H 203.077 0.127755 -1.95082 0
M  V30 1940 H 201.781 0.941192 -3.99462 0
M  V30 1941 H 201.312 2.4039 -3.1141 0
M  V30 1942 H 203.327 3.63942 -3.37285 0
M  V30 1943 N 202.5 1.5196 0.417844 0
M  V30 1944 C 203.432 1.70895 1.52733 0
M  V30 1945 C 204.445 0.589405 1.51756 0
M  V30 1946 O 205.634 0.864312 1.56179 0
M  V30 1947 C 202.734 1.72627 2.91639 0
M  V30 1948 C 201.907 3.01479 3.16905 0
M  V30 1949 C 200.966 2.95139 4.35637 0
M  V30 1950 O 199.992 3.69059 4.3334 0
M  V30 1951 N 201.194 2.12328 5.40275 0
M  V30 1952 H 203.959 2.66612 1.36888 0
M  V30 1953 H 201.52 1.50089 0.607037 0
M  V30 1954 H 203.512 1.65928 3.6912 0
M  V30 1955 H 202.082 0.844216 3.00985 0
M  V30 1956 H 201.302 3.21895 2.27546 0
M  V30 1957 H 202.59 3.86736 3.30625 0
M  V30 1958 H 201.988 1.51685 5.44985 0
M  V30 1959 H 200.545 2.11494 6.16534 0
M  V30 1960 N 203.978 -0.674533 1.42435 0
M  V30 1961 C 204.925 -1.78807 1.45934 0
M  V30 1962 C 205.895 -1.63157 0.311271 0
M  V30 1963 O 207.08 -1.83707 0.515383 0
M  V30 1964 C 204.22 -3.16839 1.36773 0
M  V30 1965 C 203.333 -3.43774 2.61617 0
M  V30 1966 C 202.468 -4.71536 2.44597 0
M  V30 1967 C 201.507 -4.91505 3.64814 0
M  V30 1968 N 200.644 -6.10508 3.46734 0
M  V30 1969 H 205.484 -1.75151 2.41093 0
M  V30 1970 H 203.021 -0.85504 1.19697 0
M  V30 1971 H 204.979 -3.96606 1.29459 0
M  V30 1972 H 203.609 -3.19619 0.452089 0
M  V30 1973 H 202.661 -2.58259 2.79297 0
M  V30 1974 H 203.973 -3.54423 3.50978 0
M  V30 1975 H 203.127 -5.59393 2.3487 0
M  V30 1976 H 201.866 -4.6317 1.52726 0
M  V30 1977 H 200.871 -4.0209 3.74972 0
M  V30 1978 H 202.096 -5.01716 4.57665 0
M  V30 1979 H 200.042 -6.03315 2.5758 0
M  V30 1980 H 199.959 -6.2202 4.29682 0
M  V30 1981 H 201.227 -7.01044 3.40819 0
M  V30 1982 N 205.456 -1.28612 -0.910864 0
M  V30 1983 C 206.704 -1.15705 -1.65701 0
M  V30 1984 C 207.025 0.29416 -1.92769 0
M  V30 1985 O 206.295 1.20331 -1.54588 0
M  V30 1986 H 204.875 -0.425216 -0.614167 0
M  V30 1987 H 207.537 -1.61381 -1.0928 0
M  V30 1988 H 206.633 -1.6988 -2.61815 0
M  V30 1989 N 206.934 1.1197 -1.10907 0
M  V30 1990 C 208.164 1.8713 -0.875553 0
M  V30 1991 C 208.572 1.8016 0.577843 0
M  V30 1992 O 207.915 1.17699 1.41042 0
M  V30 1993 C 207.977 3.37005 -1.2517 0
M  V30 1994 C 207.641 3.67748 -2.71313 0
M  V30 1995 C 208.638 3.65698 -3.69542 0
M  V30 1996 C 206.323 3.96928 -3.07821 0
M  V30 1997 C 208.317 3.92395 -5.023 0
M  V30 1998 C 206.004 4.23284 -4.40765 0
M  V30 1999 C 207.002 4.21005 -5.37814 0
M  V30 2000 O 206.69 4.46704 -6.68364 0
M  V30 2001 H 206.422 0.598786 -0.313737 0
M  V30 2002 H 208.976 1.42568 -1.47863 0
M  V30 2003 H 207.206 3.82146 -0.591741 0
M  V30 2004 H 208.895 3.93519 -0.994877 0
M  V30 2005 H 209.661 3.43211 -3.42682 0
M  V30 2006 H 205.54 3.97841 -2.32902 0
M  V30 2007 H 209.084 3.90531 -5.78041 0
M  V30 2008 H 204.981 4.45246 -4.67361 0
M  V30 2009 H 205.749 4.64299 -6.74069 0
M  V30 2010 N 208.412 0.89855 1.29475 0
M  V30 2011 C 209.64 0.539261 1.99749 0
M  V30 2012 C 210.055 -0.875716 1.67262 0
M  V30 2013 O 209.412 -1.57786 0.917049 0
M  V30 2014 C 209.463 0.72061 3.54245 0
M  V30 2015 O 209.184 2.07989 3.8558 0
M  V30 2016 C 210.685 0.366118 4.41786 0
M  V30 2017 H 207.905 0.207047 0.638258 0
M  V30 2018 H 210.449 1.20758 1.65039 0
M  V30 2019 H 208.604 0.0994862 3.87272 0
M  V30 2020 H 209.018 2.10841 4.80257 0
M  V30 2021 H 210.492 0.543848 5.49314 0
M  V30 2022 H 210.969 -0.696763 4.33638 0
M  V30 2023 H 211.575 0.964135 4.14228 0
M  V30 2024 N 209.89 -1.43072 0.660911 0
M  V30 2025 C 211.138 -2.01323 0.177094 0
M  V30 2026 C 211.459 -1.5245 -1.2159 0
M  V30 2027 O 210.729 -0.740322 -1.81373 0
M  V30 2028 H 209.309 -0.744382 0.0624804 0
M  V30 2029 H 211.971 -1.75179 0.854305 0
M  V30 2030 H 211.067 -3.11649 0.167641 0
M  V30 2031 N 211.368 -0.403325 -1.52352 0
M  V30 2032 C 212.596 0.174012 -2.06167 0
M  V30 2033 C 213.011 1.39347 -1.27388 0
M  V30 2034 O 212.368 1.79597 -0.324201 0
M  V30 2035 C 212.419 0.530223 -3.5759 0
M  V30 2036 O 212.14 -0.640806 -4.33388 0
M  V30 2037 C 213.641 1.16192 -4.27802 0
M  V30 2038 H 210.861 0.0229464 -0.670608 0
M  V30 2039 H 213.405 -0.572604 -1.9632 0
M  V30 2040 H 211.56 1.22673 -3.67464 0
M  V30 2041 H 211.974 -0.344851 -5.23365 0
M  V30 2042 H 213.448 1.36141 -5.34948 0
M  V30 2043 H 213.925 2.13335 -3.83907 0
M  V30 2044 H 214.531 0.505775 -4.22282 0
M  V30 2045 N 212.846 1.57033 -0.133567 0
M  V30 2046 C 214.092 1.95976 0.521649 0
M  V30 2047 C 214.425 1.01779 1.65393 0
M  V30 2048 O 213.7 0.0576581 1.94415 0
M  V30 2049 C 213.983 3.44738 1.04057 0
M  V30 2050 C 213.836 4.49711 -0.0892897 0
M  V30 2051 C 215.155 3.95682 1.92675 0
M  V30 2052 H 212.274 0.712579 0.188149 0
M  V30 2053 H 214.916 1.88813 -0.212076 0
M  V30 2054 H 213.066 3.50973 1.66583 0
M  V30 2055 H 214.738 4.55565 -0.725152 0
M  V30 2056 H 212.981 4.27261 -0.750378 0
M  V30 2057 H 213.652 5.51099 0.315284 0
M  V30 2058 H 216.128 3.91841 1.39998 0
M  V30 2059 H 215.004 5.00262 2.25897 0
M  V30 2060 H 215.265 3.37239 2.85872 0
M  V30 2061 N 214.325 -0.140222 1.56975 0
M  V30 2062 C 215.565 -0.857823 1.85528 0
M  V30 2063 C 215.929 -1.78039 0.718768 0
M  V30 2064 O 217.13 -2.53795 0.885521 0
M  V30 2065 C 215.401 -1.60615 3.19277 0
M  V30 2066 S 216.96 -2.36824 3.69405 0
M  V30 2067 H 213.778 -0.286727 0.650622 0
M  V30 2068 H 216.38 -0.117408 1.95147 0
M  V30 2069 H 215.084 -0.919994 3.99955 0
M  V30 2070 H 214.615 -2.38735 3.12681 0
M  V30 2071 H 216.63 -3.62148 3.3921 0
M  V30 2072 N 215.803 -1.52179 -0.40978 0
M  V30 2073 C 217.051 -1.65878 -1.15451 0
M  V30 2074 C 217.372 -0.390771 -1.91044 0
M  V30 2075 O 216.642 0.594323 -1.86667 0
M  V30 2076 H 215.222 -0.611405 -0.429177 0
M  V30 2077 H 217.884 -1.89219 -0.467134 0
M  V30 2078 H 216.98 -2.49954 -1.86894 0
M  V30 2079 N 217.281 0.66697 -1.42791 0
M  V30 2080 C 218.213 1.7925 -1.42836 0
M  V30 2081 C 219.226 1.59496 -0.326333 0
M  V30 2082 O 220.415 1.6847 -0.589916 0
M  V30 2083 C 217.515 3.16476 -1.21229 0
M  V30 2084 C 216.688 3.63011 -2.44013 0
M  V30 2085 C 215.747 4.78993 -2.17834 0
M  V30 2086 O 214.773 4.89137 -2.91091 0
M  V30 2087 N 215.975 5.68248 -1.18635 0
M  V30 2088 H 218.74 1.79695 -2.39854 0
M  V30 2089 H 216.301 0.850338 -1.37771 0
M  V30 2090 H 218.293 3.91734 -1.01621 0
M  V30 2091 H 216.863 3.10884 -0.32706 0
M  V30 2092 H 216.083 2.78346 -2.79137 0
M  V30 2093 H 217.371 3.90845 -3.25757 0
M  V30 2094 H 216.769 5.62712 -0.580615 0
M  V30 2095 H 215.326 6.43285 -1.05013 0
M  V30 2096 N 218.759 1.29093 0.90403 0
M  V30 2097 C 220.17 1.15186 1.46932 0
M  V30 2098 C 220.521 -0.254587 1.94541 0
M  V30 2099 O 219.646 -1.14972 1.83332 0
M  V30 2100 C 220.241 2.08492 2.67051 0
M  V30 2101 C 218.8 1.98621 3.19729 0
M  V30 2102 C 217.947 1.9967 1.92425 0
M  V30 2103 H 220.898 1.41641 0.715789 0
M  V30 2104 H 220.919 1.65461 3.42641 0
M  V30 2105 H 220.431 3.10847 2.3237 0
M  V30 2106 H 218.532 0.993389 3.59114 0
M  V30 2107 H 218.645 2.86068 3.8432 0
M  V30 2108 H 217.009 1.44208 2.09943 0
M  V30 2109 H 217.792 3.03721 1.60026 0
M  V30 2110 N 220.237 -1.11381 1.11499 0
M  V30 2111 C 221.486 -1.82494 0.858993 0
M  V30 2112 C 221.799 -1.85605 -0.617278 0
M  V30 2113 O 223.005 -2.52824 -0.989552 0
M  V30 2114 C 221.461 -3.27745 1.48699 0
M  V30 2115 C 221.069 -3.32961 2.99735 0
M  V30 2116 C 222.813 -4.03754 1.31085 0
M  V30 2117 C 220.72 -4.72612 3.55516 0
M  V30 2118 H 219.65 -0.683802 0.317696 0
M  V30 2119 H 222.301 -1.25331 1.34031 0
M  V30 2120 H 220.683 -3.84844 0.933339 0
M  V30 2121 H 221.857 -2.85741 3.61509 0
M  V30 2122 H 220.172 -2.70433 3.16631 0
M  V30 2123 H 222.769 -5.06891 1.70192 0
M  V30 2124 H 223.112 -4.15527 0.253496 0
M  V30 2125 H 223.645 -3.53043 1.83318 0
M  V30 2126 H 220.384 -4.66036 4.60967 0
M  V30 2127 H 219.904 -5.2024 2.98513 0
M  V30 2128 H 221.583 -5.4157 3.53992 0
M  V30 2129 N 221.715 -0.905404 -1.28997 0
M  V30 2130 C 222.955 -0.541232 -1.97104 0
M  V30 2131 C 223.319 0.896841 -1.69767 0
M  V30 2132 O 224.52 1.36817 -2.31375 0
M  V30 2133 C 222.791 -0.832134 -3.47578 0
M  V30 2134 S 224.35 -0.573127 -4.35041 0
M  V30 2135 H 221.168 -0.200576 -0.682122 0
M  V30 2136 H 223.77 -1.16906 -1.56694 0
M  V30 2137 H 222.474 -1.87687 -3.64968 0
M  V30 2138 H 222.005 -0.192636 -3.92928 0
M  V30 2139 H 224.02 0.579297 -4.92807 0
M  V30 2140 N 223.193 1.4272 -0.668489 0
M  V30 2141 C 224.47 1.95248 -0.117373 0
M  V30 2142 C 224.85 1.60919 1.36632 0
M  V30 2143 O 224.198 0.902095 2.09939 0
M  V30 2144 C 224.408 3.46927 -0.379806 0
M  V30 2145 C 225.756 4.23588 -0.292923 0
M  V30 2146 O 226.78 3.5482 -0.313204 0
M  V30 2147 O 225.639 5.46017 -0.229697 0
M  V30 2148 H 222.733 0.827 0.00079152 0
M  V30 2149 H 225.279 1.52581 -0.742783 0
M  V30 2150 H 224.051 3.65096 -1.40786 0
M  V30 2151 H 223.674 3.96627 0.277923 0
M  V30 2152 N 224.671 0.411399 1.52136 0
M  V30 2153 C 226.087 0.0623865 1.59478 0
M  V30 2154 C 226.287 -1.42554 1.4241 0
M  V30 2155 O 225.343 -2.19263 1.2522 0
M  V30 2156 C 226.656 0.559331 2.95452 0
M  V30 2157 C 228.204 0.517503 3.08692 0
M  V30 2158 C 228.679 0.990994 4.4715 0
M  V30 2159 N 230.17 0.947908 4.53397 0
M  V30 2160 C 230.905 1.28544 5.58806 0
M  V30 2161 N 230.401 1.69454 6.71757 0
M  V30 2162 N 232.194 1.20526 5.49026 0
M  V30 2163 H 224.345 1.37982 1.61477 0
M  V30 2164 H 226.608 0.566977 0.759764 0
M  V30 2165 H 226.314 1.59938 3.1323 0
M  V30 2166 H 226.188 -0.0298014 3.77188 0
M  V30 2167 H 228.575 -0.513505 2.90598 0
M  V30 2168 H 228.656 1.14272 2.28857 0
M  V30 2169 H 228.3 2.02034 4.65988 0
M  V30 2170 H 228.23 0.34257 5.25485 0
M  V30 2171 H 230.721 0.647157 3.72317 0
M  V30 2172 H 231.034 1.93513 7.48179 0
M  V30 2173 H 229.379 1.73359 6.73032 0
M  V30 2174 H 232.57 0.884505 4.59667 0
M  V30 2175 H 232.743 1.47161 6.31069 0
M  V30 2176 N 226.149 -1.5696 0.141893 0
M  V30 2177 C 227.397 -1.95573 -0.509484 0
M  V30 2178 C 227.718 -1.02746 -1.65736 0
M  V30 2179 O 226.988 -0.0880311 -1.95702 0
M  V30 2180 H 225.568 -0.722115 -0.191205 0
M  V30 2181 H 228.23 -1.93697 0.216196 0
M  V30 2182 H 227.326 -2.99171 -0.889 0
M  V30 2183 N 227.627 0.131896 -1.57047 0
M  V30 2184 C 228.867 0.847972 -1.85981 0
M  V30 2185 C 229.231 1.77655 -0.7282 0
M  V30 2186 O 230.432 2.53322 -0.898968 0
M  V30 2187 C 228.703 1.58919 -3.20124 0
M  V30 2188 S 230.262 2.34862 -3.70655 0
M  V30 2189 H 227.08 0.283273 -0.652133 0
M  V30 2190 H 229.682 0.107057 -1.95207 0
M  V30 2191 H 228.386 0.898771 -4.00438 0
M  V30 2192 H 227.917 2.37073 -3.13942 0
M  V30 2193 H 229.932 3.60344 -3.41126 0
M  V30 2194 N 229.106 1.52395 0.401703 0
M  V30 2195 C 230.056 1.72649 1.48917 0
M  V30 2196 C 231.04 0.580436 1.50066 0
M  V30 2197 O 232.232 0.83779 1.55917 0
M  V30 2198 C 229.361 1.88729 2.86769 0
M  V30 2199 C 228.447 3.09228 2.90239 0
M  V30 2200 N 228.838 4.31805 2.63396 0
M  V30 2201 C 227.136 3.09214 3.21408 0
M  V30 2202 C 227.837 5.13326 2.73625 0
M  V30 2203 N 226.813 4.48735 3.06819 0
M  V30 2204 H 230.615 2.65058 1.26971 0
M  V30 2205 H 228.129 1.50528 0.609504 0
M  V30 2206 H 230.126 2.01358 3.65049 0
M  V30 2207 H 228.786 0.975252 3.09708 0
M  V30 2208 H 229.797 4.60154 2.37653 0
M  V30 2209 H 226.474 2.27774 3.49893 0
M  V30 2210 H 227.864 6.21003 2.56524 0
M  V30 2211 N 230.584 -0.659388 1.43143 0
M  V30 2212 C 231.532 -1.79374 1.4808 0
M  V30 2213 C 232.526 -1.65639 0.354988 0
M  V30 2214 O 233.732 -1.7206 0.528704 0
M  V30 2215 H 230.107 -0.591705 0.4641 0
M  V30 2216 H 232.078 -1.72329 2.43609 0
M  V30 2217 C 230.827 -3.17606 1.41499 0
M  V30 2218 H 230.15 -3.28809 2.27431 0
M  V30 2219 H 231.59 -3.96951 1.49015 0
M  V30 2220 C 230.049 -3.36642 0.131765 0
M  V30 2221 O 230.579 -3.93461 -0.809386 0
M  V30 2222 N 228.785 -2.90567 0.0439396 0
M  V30 2223 H 228.332 -2.44513 0.810619 0
M  V30 2224 H 228.29 -3.03681 -0.813969 0
M  V30 2225 N 232.062 -1.29571 -0.897171 0
M  V30 2226 C 233.31 -1.17456 -1.64464 0
M  V30 2227 C 233.631 0.273698 -1.9307 0
M  V30 2228 O 232.901 1.18684 -1.55855 0
M  V30 2229 H 231.481 -0.431706 -0.609622 0
M  V30 2230 H 234.143 -1.62531 -1.07562 0
M  V30 2231 H 233.239 -1.72648 -2.59998 0
M  V30 2232 N 233.54 1.10788 -1.12088 0
M  V30 2233 C 234.788 1.8231 -0.872205 0
M  V30 2234 C 235.109 1.85419 0.603709 0
M  V30 2235 O 234.379 1.32963 1.43867 0
M  V30 2236 H 232.959 0.675137 -0.319686 0
M  V30 2237 H 235.621 1.34068 -1.41463 0
M  V30 2238 H 234.717 2.85955 -1.25045 0
M  V30 2239 N 235.018 0.912232 1.28515 0
M  V30 2240 C 236.434 0.610159 1.47476 0
M  V30 2241 C 236.634 -0.844955 1.82928 0
M  V30 2242 O 235.69 -1.62416 1.93332 0
M  V30 2243 C 237.003 1.54675 2.57868 0
M  V30 2244 C 238.551 1.55331 2.71738 0
M  V30 2245 C 239.026 2.47649 3.85272 0
M  V30 2246 N 240.517 2.45767 3.92623 0
M  V30 2247 C 241.252 3.13896 4.79851 0
M  V30 2248 N 240.748 3.9135 5.71679 0
M  V30 2249 N 242.541 3.02991 4.73448 0
M  V30 2250 H 234.692 1.85318 1.03783 0
M  V30 2251 H 236.955 0.794777 0.516753 0
M  V30 2252 H 236.661 2.5841 2.38574 0
M  V30 2253 H 236.535 1.27671 3.54937 0
M  V30 2254 H 238.922 0.52335 2.90422 0
M  V30 2255 H 239.003 1.86378 1.75205 0
M  V30 2256 H 238.647 3.50745 3.67342 0
M  V30 2257 H 238.577 2.13904 4.81199 0
M  V30 2258 H 241.068 1.89503 3.26951 0
M  V30 2259 H 241.381 4.40359 6.35062 0
M  V30 2260 H 239.726 3.95455 5.71524 0
M  V30 2261 H 242.917 2.41987 4.007 0
M  V30 2262 H 243.09 3.5636 5.41213 0
M  V30 2263 N 236.496 -1.42363 0.676048 0
M  V30 2264 C 237.736 -2.03392 0.20273 0
M  V30 2265 C 238.1 -1.52306 -1.16906 0
M  V30 2266 O 239.301 -2.05129 -1.73711 0
M  V30 2267 C 237.572 -3.56614 0.236947 0
M  V30 2268 S 239.131 -4.38489 -0.165186 0
M  V30 2269 H 235.949 -0.70611 0.0832418 0
M  V30 2270 H 238.551 -1.74093 0.88948 0
M  V30 2271 H 237.255 -3.91293 1.23767 0
M  V30 2272 H 236.786 -3.90587 -0.469596 0
M  V30 2273 H 238.801 -4.76093 -1.39822 0
M  V30 2274 N 237.974 -0.419461 -1.51915 0
M  V30 2275 C 239.223 0.154346 -2.01109 0
M  V30 2276 C 239.536 1.45338 -1.30905 0
M  V30 2277 O 240.742 2.10906 -1.7097 0
M  V30 2278 C 239.198 0.325615 -3.58424 0
M  V30 2279 C 238.806 -0.961934 -4.37551 0
M  V30 2280 C 240.55 0.854155 -4.15818 0
M  V30 2281 C 238.457 -0.757287 -5.86531 0
M  V30 2282 H 237.387 0.0614563 -0.751491 0
M  V30 2283 H 240.038 -0.54649 -1.75173 0
M  V30 2284 H 238.42 1.08903 -3.80731 0
M  V30 2285 H 239.594 -1.7323 -4.26999 0
M  V30 2286 H 237.909 -1.41766 -3.91524 0
M  V30 2287 H 240.506 1.02346 -5.24814 0
M  V30 2288 H 240.849 1.83172 -3.73837 0
M  V30 2289 H 241.382 0.149528 -3.97519 0
M  V30 2290 H 238.121 -1.70671 -6.32892 0
M  V30 2291 H 237.641 -0.0264061 -5.99794 0
M  V30 2292 H 239.32 -0.403482 -6.45741 0
M  V30 2293 N 239.452 1.56882 -0.150215 0
M  V30 2294 C 240.7 1.9584 0.499105 0
M  V30 2295 C 241.021 1.03623 1.65188 0
M  V30 2296 O 240.291 0.0984084 1.95653 0
M  V30 2297 H 238.871 0.723119 0.187373 0
M  V30 2298 H 241.533 1.9358 -0.226466 0
M  V30 2299 H 240.629 2.99638 0.873122 0
M  V30 2300 N 240.93 -0.123565 1.57115 0
M  V30 2301 C 242.341 -0.681198 1.73829 0
M  V30 2302 C 242.692 -1.80535 0.768214 0
M  V30 2303 O 241.817 -2.16317 -0.0599103 0
M  V30 2304 C 242.412 -1.24246 3.15196 0
M  V30 2305 C 240.971 -1.74643 3.33432 0
M  V30 2306 C 240.118 -0.644284 2.69711 0
M  V30 2307 H 243.069 0.102315 1.5837 0
M  V30 2308 H 243.09 -2.11216 3.16493 0
M  V30 2309 H 242.602 -0.424062 3.85776 0
M  V30 2310 H 240.703 -2.58974 2.67886 0
M  V30 2311 H 240.816 -1.85902 4.41562 0
M  V30 2312 H 239.18 -1.07676 2.3082 0
M  V30 2313 H 239.963 0.163058 3.42913 0
M  V30 2314 N 242.408 -1.52605 -0.393616 0
M  V30 2315 C 243.356 -1.77688 -1.50099 0
M  V30 2316 C 244.35 -0.644615 -1.56656 0
M  V30 2317 O 245.556 -0.826997 -1.59877 0
M  V30 2318 H 241.931 -0.562159 -0.499481 0
M  V30 2319 H 243.902 -2.7043 -1.26135 0
M  V30 2320 C 242.651 -1.95858 -2.87289 0
M  V30 2321 H 241.974 -2.8241 -2.82992 0
M  V30 2322 H 243.414 -2.174 -3.64024 0
M  V30 2323 C 241.873 -0.729848 -3.28899 0
M  V30 2324 O 242.403 0.0949217 -4.01588 0
M  V30 2325 N 240.609 -0.561283 -2.85128 0
M  V30 2326 H 240.156 -1.23357 -2.26143 0
M  V30 2327 H 240.114 0.2595 -3.13327 0
M  V30 2328 N 243.887 0.651787 -1.4349 0
M  V30 2329 C 245.303 0.96762 -1.26922 0
M  V30 2330 C 245.503 2.00602 -0.189982 0
M  V30 2331 O 244.559 2.48793 0.431107 0
M  V30 2332 C 245.872 1.45052 -2.63401 0
M  V30 2333 C 247.42 1.5671 -2.70945 0
M  V30 2334 C 247.895 2.0839 -4.07845 0
M  V30 2335 N 249.386 2.1569 -4.09917 0
M  V30 2336 C 250.121 2.56804 -5.12679 0
M  V30 2337 N 249.617 2.97203 -6.25813 0
M  V30 2338 N 251.41 2.56756 -5.00033 0
M  V30 2339 H 243.561 -0.0353158 -2.12371 0
M  V30 2340 H 245.824 0.0467858 -0.946845 0
M  V30 2341 H 245.53 0.761926 -3.43348 0
M  V30 2342 H 245.404 2.42529 -2.88894 0
M  V30 2343 H 247.791 2.2467 -1.9133 0
M  V30 2344 H 247.872 0.57662 -2.49216 0
M  V30 2345 H 247.516 1.41031 -4.87927 0
M  V30 2346 H 247.446 3.08271 -4.26938 0
M  V30 2347 H 249.937 1.87237 -3.28254 0
M  V30 2348 H 250.25 3.27328 -7.00055 0
M  V30 2349 H 248.595 2.95004 -6.29283 0
M  V30 2350 H 251.786 2.24572 -4.10713 0
M  V30 2351 H 251.959 2.88475 -5.80247 0
M  V30 2352 N 245.365 1.30045 0.890287 0
M  V30 2353 C 246.605 1.19839 1.65584 0
M  V30 2354 C 246.969 -0.244175 1.90441 0
M  V30 2355 O 248.17 -0.469378 2.6467 0
M  V30 2356 C 246.441 1.99876 2.96284 0
M  V30 2357 S 248 2.06309 3.87275 0
M  V30 2358 H 244.818 0.427157 0.568382 0
M  V30 2359 H 247.42 1.64453 1.05715 0
M  V30 2360 H 246.124 3.03809 2.75913 0
M  V30 2361 H 245.655 1.55903 3.61189 0
M  V30 2362 H 247.67 1.18661 4.81803 0
M  V30 2363 N 246.843 -1.10192 1.12674 0
M  V30 2364 C 247.806 -2.14786 0.799979 0
M  V30 2365 C 248.806 -1.59711 -0.18685 0
M  V30 2366 O 249.996 -1.74156 0.0392558 0
M  V30 2367 C 247.128 -3.40374 0.189228 0
M  V30 2368 H 248.321 -2.45203 1.72671 0
M  V30 2369 H 245.874 -1.25597 0.930326 0
M  V30 2370 H 246.609 -3.15577 -0.747107 0
M  V30 2371 H 246.394 -3.81637 0.899766 0
M  V30 2372 H 247.884 -4.17594 -0.0228143 0
M  V30 2373 N 248.321 -0.919034 -1.28029 0
M  V30 2374 C 249.561 -0.562107 -1.96519 0
M  V30 2375 C 249.925 0.878784 -1.70708 0
M  V30 2376 O 251.126 1.34355 -2.32813 0
M  V30 2377 C 249.397 -0.868953 -3.46676 0
M  V30 2378 S 250.956 -0.619237 -4.34409 0
M  V30 2379 H 247.774 -0.2078 -0.679956 0
M  V30 2380 H 250.376 -1.18562 -1.55446 0
M  V30 2381 H 249.08 -1.91547 -3.62957 0
M  V30 2382 H 248.611 -0.234301 -3.92702 0
M  V30 2383 H 250.626 0.526995 -4.93394 0
M  V30 2384 N 249.799 1.42003 -0.683588 0
M  V30 2385 C 251.045 2.01712 -0.209825 0
M  V30 2386 C 251.378 1.53968 1.18353 0
M  V30 2387 O 250.653 0.745661 1.79639 0
M  V30 2388 C 250.936 3.59202 -0.254197 0
M  V30 2389 C 250.789 4.17102 -1.68363 0
M  V30 2390 C 252.108 4.38344 0.392709 0
M  V30 2391 H 249.227 0.732891 -0.0777189 0
M  V30 2392 H 251.869 1.68909 -0.87004 0
M  V30 2393 H 250.019 3.87278 0.307954 0
M  V30 2394 H 251.691 3.99946 -2.29871 0
M  V30 2395 H 249.934 3.72597 -2.22157 0
M  V30 2396 H 250.605 5.26249 -1.6663 0
M  V30 2397 H 253.081 4.16011 -0.0859162 0
M  V30 2398 H 251.957 5.47901 0.331063 0
M  V30 2399 H 252.218 4.16887 1.47164 0
M  V30 2400 N 251.277 0.427512 1.51691 0
M  V30 2401 C 252.507 -0.140986 2.06118 0
M  V30 2402 C 252.915 -1.37854 1.29588 0
M  V30 2403 O 252.258 -1.80411 0.346036 0
M  V30 2404 C 252.32 -0.538276 3.55447 0
M  V30 2405 C 251.984 0.591095 4.53161 0
M  V30 2406 C 252.981 1.46027 4.98971 0
M  V30 2407 C 250.666 0.769028 4.96378 0
M  V30 2408 C 252.66 2.49216 5.8666 0
M  V30 2409 C 250.347 1.80421 5.83859 0
M  V30 2410 C 251.345 2.66417 6.28897 0
M  V30 2411 O 251.033 3.68159 7.14643 0
M  V30 2412 H 250.765 -0.0157455 0.675817 0
M  V30 2413 H 253.319 0.602495 1.96365 0
M  V30 2414 H 251.549 -1.33432 3.6295 0
M  V30 2415 H 253.238 -1.0368 3.92435 0
M  V30 2416 H 254.004 1.33429 4.66285 0
M  V30 2417 H 249.883 0.109273 4.6087 0
M  V30 2418 H 253.427 3.16372 6.21735 0
M  V30 2419 H 249.324 1.93042 6.15959 0
M  V30 2420 H 250.092 3.64622 7.32798 0
M  V30 2421 N 252.755 -1.56801 0.158532 0
M  V30 2422 C 254.003 -1.96102 -0.488712 0
M  V30 2423 C 254.324 -1.04498 -1.64636 0
M  V30 2424 O 253.594 -0.108783 -1.95598 0
M  V30 2425 H 252.174 -0.724102 -0.183535 0
M  V30 2426 H 254.836 -1.93457 0.236728 0
M  V30 2427 H 253.932 -3.00097 -0.857219 0
M  V30 2428 N 254.233 0.115231 -1.57178 0
M  V30 2429 C 255.48 0.822351 -1.8505 0
M  V30 2430 C 255.808 1.79701 -0.744168 0
M  V30 2431 O 255.063 1.93909 0.26414 0
M  V30 2432 C 255.362 1.60324 -3.19423 0
M  V30 2433 C 255.028 0.772536 -4.44233 0
M  V30 2434 C 253.69 0.543468 -4.78121 0
M  V30 2435 C 256.042 0.193746 -5.2084 0
M  V30 2436 C 253.37 -0.274583 -5.86057 0
M  V30 2437 C 255.722 -0.611517 -6.29637 0
M  V30 2438 C 254.386 -0.850867 -6.62055 0
M  V30 2439 H 253.656 0.30092 -0.677147 0
M  V30 2440 H 256.303 0.0845802 -1.91313 0
M  V30 2441 H 254.608 2.41203 -3.08753 0
M  V30 2442 H 256.305 2.1544 -3.38211 0
M  V30 2443 H 252.895 0.96117 -4.17683 0
M  V30 2444 H 257.079 0.357926 -4.95008 0
M  V30 2445 H 252.335 -0.469206 -6.09597 0
M  V30 2446 H 256.509 -1.06697 -6.88178 0
M  V30 2447 H 254.136 -1.48657 -7.45523 0
M  V30 2448 N 255.711 1.52812 0.385517 0
M  V30 2449 C 256.644 1.72592 1.49289 0
M  V30 2450 C 257.622 0.573819 1.52138 0
M  V30 2451 O 258.806 0.80404 1.70492 0
M  V30 2452 C 255.933 1.78669 2.87741 0
M  V30 2453 C 254.979 3.00455 3.02703 0
M  V30 2454 S 255.812 4.60366 2.73538 0
M  V30 2455 C 256.968 4.69263 4.14177 0
M  V30 2456 H 257.201 2.66248 1.32285 0
M  V30 2457 H 254.734 1.43148 0.578611 0
M  V30 2458 H 256.692 1.82855 3.67524 0
M  V30 2459 H 255.353 0.861 3.02069 0
M  V30 2460 H 254.546 3.01258 4.04054 0
M  V30 2461 H 254.148 2.94278 2.30817 0
M  V30 2462 H 256.44 4.48092 5.08153 0
M  V30 2463 H 257.383 5.71276 4.18388 0
M  V30 2464 H 257.791 3.98072 4.00249 0
M  V30 2465 N 257.189 -0.644168 1.43834 0
M  V30 2466 C 258.437 -1.40117 1.45642 0
M  V30 2467 C 258.758 -1.94814 0.0852413 0
M  V30 2468 O 258.028 -1.74988 -0.880688 0
M  V30 2469 H 256.608 -0.52005 0.536243 0
M  V30 2470 H 259.27 -0.7591 1.7951 0
M  V30 2471 H 258.366 -2.23902 2.17427 0
M  V30 2472 N 258.668 -1.30515 -0.883378 0
M  V30 2473 C 260.079 -1.17509 -1.45081 0
M  V30 2474 C 260.43 0.223605 -1.94922 0
M  V30 2475 O 259.555 1.12041 -1.85137 0
M  V30 2476 C 260.15 -2.12715 -2.63701 0
M  V30 2477 C 258.709 -2.03682 -3.16529 0
M  V30 2478 C 257.856 -2.02706 -1.89224 0
M  V30 2479 H 260.807 -1.42762 -0.693165 0
M  V30 2480 H 260.828 -1.70891 -3.39965 0
M  V30 2481 H 260.34 -3.14505 -2.27395 0
M  V30 2482 H 258.441 -1.05039 -3.57488 0
M  V30 2483 H 258.554 -2.92146 -3.7972 0
M  V30 2484 H 256.918 -1.4753 -2.07622 0
M  V30 2485 H 257.701 -3.06229 -1.55174 0
M  V30 2486 N 260.146 1.09593 -1.13257 0
M  V30 2487 C 261.078 2.16015 -0.766167 0
M  V30 2488 C 262.091 1.61423 0.211303 0
M  V30 2489 O 263.28 1.78498 -0.00863946 0
M  V30 2490 C 260.38 3.38706 -0.114662 0
M  V30 2491 C 259.553 4.22717 -1.12379 0
M  V30 2492 C 258.612 5.23835 -0.498301 0
M  V30 2493 O 257.638 5.573 -1.15781 0
M  V30 2494 N 258.84 5.75886 0.730417 0
M  V30 2495 H 261.605 2.48055 -1.68193 0
M  V30 2496 H 259.166 1.25292 -1.02535 0
M  V30 2497 H 261.158 4.03464 0.315991 0
M  V30 2498 H 259.728 3.04569 0.704011 0
M  V30 2499 H 258.948 3.54122 -1.73179 0
M  V30 2500 H 260.236 4.75673 -1.80589 0
M  V30 2501 H 259.634 5.50911 1.28504 0
M  V30 2502 H 258.191 6.42387 1.10376 0
M  V30 2503 N 261.624 0.925811 1.2754 0
M  V30 2504 C 262.864 0.572521 1.96218 0
M  V30 2505 C 263.228 -0.869719 1.71172 0
M  V30 2506 O 264.429 -1.33119 2.33523 0
M  V30 2507 C 262.7 0.887325 3.4621 0
M  V30 2508 S 264.259 0.642266 4.34074 0
M  V30 2509 H 261.077 0.211403 0.678845 0
M  V30 2510 H 263.679 1.19384 1.54815 0
M  V30 2511 H 262.383 1.93469 3.61936 0
M  V30 2512 H 261.914 0.255123 3.92572 0
M  V30 2513 H 263.929 -0.500822 4.93666 0
M  V30 2514 N 263.102 -1.41638 0.69111 0
M  V30 2515 C 264.012 -2.34588 0.0233487 0
M  V30 2516 C 265.028 -1.55987 -0.770984 0
M  V30 2517 O 266.204 -1.88486 -0.709569 0
M  V30 2518 C 263.269 -3.34684 -0.904851 0
M  V30 2519 C 262.33 -4.29176 -0.103225 0
M  V30 2520 C 261.563 -5.2449 -0.987216 0
M  V30 2521 O 261.786 -5.2514 -2.22674 0
M  V30 2522 O 260.72 -6.00295 -0.439281 0
M  V30 2523 H 264.546 -2.93261 0.789416 0
M  V30 2524 H 262.131 -1.42417 0.45142 0
M  V30 2525 H 264.013 -3.96133 -1.43724 0
M  V30 2526 H 262.688 -2.78461 -1.65049 0
M  V30 2527 H 261.595 -3.71089 0.473655 0
M  V30 2528 H 262.928 -4.88484 0.60365 0
M  V30 2529 N 264.58 -0.43555 -1.51462 0
M  V30 2530 C 265.996 -0.0877501 -1.59359 0
M  V30 2531 C 266.196 1.4027 -1.4466 0
M  V30 2532 O 265.252 2.17243 -1.28693 0
M  V30 2533 C 266.565 -0.606264 -2.94525 0
M  V30 2534 C 268.113 -0.566548 -3.0783 0
M  V30 2535 C 268.588 -1.06201 -4.45517 0
M  V30 2536 N 270.079 -1.01992 -4.51832 0
M  V30 2537 C 270.814 -1.37417 -5.5669 0
M  V30 2538 N 270.31 -1.80119 -6.68976 0
M  V30 2539 N 272.103 -1.29245 -5.47039 0
M  V30 2540 H 264.254 -1.40533 -1.59261 0
M  V30 2541 H 266.517 -0.578992 -0.750648 0
M  V30 2542 H 266.223 -1.64901 -3.10645 0
M  V30 2543 H 266.097 -0.0302097 -3.77188 0
M  V30 2544 H 268.484 0.467208 -2.91378 0
M  V30 2545 H 268.565 -1.17898 -2.2701 0
M  V30 2546 H 268.209 -2.09422 -4.62715 0
M  V30 2547 H 268.139 -0.426127 -5.24873 0
M  V30 2548 H 270.63 -0.706308 -3.71241 0
M  V30 2549 H 270.943 -2.05392 -7.45006 0
M  V30 2550 H 269.288 -1.84044 -6.70189 0
M  V30 2551 H 272.479 -0.957522 -4.58202 0
M  V30 2552 H 272.652 -1.57182 -6.28648 0
M  V30 2553 N 266.058 1.56714 -0.166846 0
M  V30 2554 C 267.335 1.88412 0.525373 0
M  V30 2555 C 267.715 1.07602 1.81618 0
M  V30 2556 O 267.063 0.168621 2.27877 0
M  V30 2557 C 267.273 3.40363 0.771613 0
M  V30 2558 C 268.621 4.10007 1.1036 0
M  V30 2559 O 269.645 3.45655 0.860304 0
M  V30 2560 O 268.504 5.2369 1.56239 0
M  V30 2561 H 265.598 0.781587 0.270278 0
M  V30 2562 H 268.144 1.68458 -0.204946 0
M  V30 2563 H 266.916 3.91046 -0.141093 0
M  V30 2564 H 266.539 3.65914 1.55541 0
M  V30 2565 N 267.536 -0.106894 1.57237 0
M  V30 2566 C 268.766 -0.825191 1.89405 0
M  V30 2567 C 269.174 -1.73374 0.757496 0
M  V30 2568 O 268.517 -1.81552 -0.280115 0
M  V30 2569 C 268.579 -1.70102 3.1671 0
M  V30 2570 C 268.243 -0.965523 4.46684 0
M  V30 2571 C 269.24 -0.300741 5.19029 0
M  V30 2572 C 266.925 -0.943105 4.93367 0
M  V30 2573 C 268.919 0.376622 6.36286 0
M  V30 2574 C 266.606 -0.261949 6.10538 0
M  V30 2575 C 267.604 0.396748 6.81847 0
M  V30 2576 O 267.292 1.06701 7.96787 0
M  V30 2577 H 267.024 -0.241852 0.631255 0
M  V30 2578 H 269.578 -0.0921491 2.05193 0
M  V30 2579 H 267.808 -2.47601 2.97036 0
M  V30 2580 H 269.497 -2.29483 3.34802 0
M  V30 2581 H 270.263 -0.309599 4.84011 0
M  V30 2582 H 266.142 -1.44524 4.3776 0
M  V30 2583 H 269.686 0.891334 6.91882 0
M  V30 2584 H 265.583 -0.250896 6.45012 0
M  V30 2585 H 266.351 0.972707 8.127 0
M  V30 2586 N 269.014 -1.53014 -0.377408 0
M  V30 2587 C 270.43 -1.42523 -0.718281 0
M  V30 2588 C 270.63 -0.55487 -1.9371 0
M  V30 2589 O 269.686 -0.0327593 -2.52479 0
M  V30 2590 C 270.999 -2.85546 -0.942539 0
M  V30 2591 C 272.547 -2.95101 -1.04329 0
M  V30 2592 C 273.022 -4.3916 -1.3001 0
M  V30 2593 N 274.513 -4.42536 -1.36806 0
M  V30 2594 C 275.248 -5.51097 -1.58364 0
M  V30 2595 N 274.744 -6.69724 -1.77317 0
M  V30 2596 N 276.537 -5.38657 -1.60638 0
M  V30 2597 H 268.688 -2.08116 0.424426 0
M  V30 2598 H 270.951 -0.939352 0.127759 0
M  V30 2599 H 270.657 -3.51499 -0.118929 0
M  V30 2600 H 270.531 -3.28493 -1.85397 0
M  V30 2601 H 272.918 -2.29309 -1.85745 0
M  V30 2602 H 272.999 -2.55566 -0.109505 0
M  V30 2603 H 272.643 -5.05521 -0.490991 0
M  V30 2604 H 272.573 -4.76258 -2.24691 0
M  V30 2605 H 275.064 -3.57039 -1.23821 0
M  V30 2606 H 275.377 -7.48233 -1.93306 0
M  V30 2607 H 273.722 -6.72732 -1.74518 0
M  V30 2608 H 276.913 -4.44948 -1.45391 0
M  V30 2609 H 277.086 -6.2333 -1.77098 0
M  V30 2610 N 270.492 0.636531 -1.44174 0
M  V30 2611 C 271.72 1.42353 -1.50144 0
M  V30 2612 C 272.135 1.88389 -0.124575 0
M  V30 2613 O 271.492 1.6051 0.868489 0
M  V30 2614 C 271.543 2.64744 -2.46156 0
M  V30 2615 O 271.264 2.20629 -3.7849 0
M  V30 2616 C 272.765 3.57929 -2.61537 0
M  V30 2617 H 269.985 0.436752 -0.5094 0
M  V30 2618 H 272.529 0.778933 -1.89084 0
M  V30 2619 H 270.684 3.25307 -2.10366 0
M  V30 2620 H 271.098 2.99938 -4.30276 0
M  V30 2621 H 272.572 4.40428 -3.32757 0
M  V30 2622 H 273.049 4.06382 -1.66585 0
M  V30 2623 H 273.655 3.03238 -2.98206 0
M  V30 2624 N 271.97 1.30982 0.876444 0
M  V30 2625 C 273.218 1.20058 1.62575 0
M  V30 2626 C 273.539 -0.242947 1.93481 0
M  V30 2627 O 272.809 -1.1619 1.57724 0
M  V30 2628 H 271.389 0.44135 0.602677 0
M  V30 2629 H 274.051 1.64222 1.04962 0
M  V30 2630 H 273.147 1.76762 2.57219 0
M  V30 2631 N 273.449 -1.08991 1.13837 0
M  V30 2632 C 274.86 -1.62746 0.914917 0
M  V30 2633 C 275.211 -1.88403 -0.547594 0
M  V30 2634 O 274.336 -1.63706 -1.41525 0
M  V30 2635 C 274.931 -2.95662 1.65437 0
M  V30 2636 C 273.49 -3.46225 1.47666 0
M  V30 2637 C 272.637 -2.20562 1.6807 0
M  V30 2638 H 275.588 -0.922946 1.29102 0
M  V30 2639 H 275.609 -3.63825 1.11407 0
M  V30 2640 H 275.121 -2.76956 2.71877 0
M  V30 2641 H 273.222 -3.70046 0.435478 0
M  V30 2642 H 273.335 -4.23368 2.24268 0
M  V30 2643 H 271.699 -2.29439 1.10589 0
M  V30 2644 H 272.482 -2.0437 2.7584 0
M  V30 2645 N 274.927 -0.932562 -1.27047 0
M  V30 2646 C 276.167 -0.582919 -1.95912 0
M  V30 2647 C 276.531 0.860629 -1.71631 0
M  V30 2648 O 277.732 1.31878 -2.34225 0
M  V30 2649 C 276.003 -0.905673 -3.45734 0
M  V30 2650 S 277.562 -0.665277 -4.33727 0
M  V30 2651 H 274.38 -0.215 -0.677714 0
M  V30 2652 H 276.982 -1.20204 -1.54179 0
M  V30 2653 H 275.686 -1.95386 -3.60905 0
M  V30 2654 H 275.217 -0.275939 -3.92431 0
M  V30 2655 H 277.232 0.474635 -4.93925 0
M  V30 2656 N 276.405 1.4127 -0.698611 0
M  V30 2657 C 277.652 2.0118 -0.230865 0
M  V30 2658 C 277.98 1.55338 1.17049 0
M  V30 2659 O 277.235 0.756775 1.80475 0
M  V30 2660 C 277.534 3.56592 -0.240192 0
M  V30 2661 C 277.2 4.21955 -1.58948 0
M  V30 2662 C 275.862 4.39524 -1.95887 0
M  V30 2663 C 278.214 4.58576 -2.47704 0
M  V30 2664 C 275.542 4.90992 -3.2116 0
M  V30 2665 C 277.894 5.11435 -3.72313 0
M  V30 2666 C 276.558 5.27215 -4.0939 0
M  V30 2667 H 275.828 0.736169 -0.0844796 0
M  V30 2668 H 278.475 1.69124 -0.8983 0
M  V30 2669 H 276.78 3.88456 0.510797 0
M  V30 2670 H 278.477 4.00758 0.139296 0
M  V30 2671 H 275.067 4.08657 -1.29219 0
M  V30 2672 H 279.251 4.44654 -2.20445 0
M  V30 2673 H 274.507 5.01393 -3.49878 0
M  V30 2674 H 278.681 5.38752 -4.4127 0
M  V30 2675 H 276.308 5.66859 -5.06533 0
M  V30 2676 N 277.883 0.443576 1.51229 0
M  V30 2677 C 279.131 -0.120557 2.0174 0
M  V30 2678 C 279.452 -1.42665 1.32935 0
M  V30 2679 O 278.722 -1.9028 0.465866 0
M  V30 2680 H 277.302 -0.0475426 0.745486 0
M  V30 2681 H 279.964 0.587711 1.85828 0
M  V30 2682 H 279.06 -0.291972 3.10731 0
M  V30 2683 N 279.361 -1.56624 0.175154 0
M  V30 2684 C 280.293 -2.15333 -0.785128 0
M  V30 2685 C 281.306 -1.1099 -1.19101 0
M  V30 2686 O 282.495 -1.38162 -1.13019 0
M  V30 2687 C 279.595 -2.68427 -2.06882 0
M  V30 2688 C 278.768 -3.97466 -1.8259 0
M  V30 2689 C 277.827 -4.35585 -2.95215 0
M  V30 2690 O 276.853 -5.03389 -2.65684 0
M  V30 2691 N 278.055 -3.97457 -4.23094 0
M  V30 2692 H 280.82 -2.98359 -0.283187 0
M  V30 2693 H 278.381 -1.61898 -0.00749817 0
M  V30 2694 H 280.373 -2.90924 -2.81328 0
M  V30 2695 H 278.943 -1.89968 -2.48256 0
M  V30 2696 H 278.163 -3.83307 -0.920287 0
M  V30 2697 H 279.451 -4.81736 -1.63733 0
M  V30 2698 H 278.849 -3.42878 -4.49945 0
M  V30 2699 H 277.406 -4.24947 -4.9423 0
M  V30 2700 N 280.839 0.0985539 -1.57292 0
M  V30 2701 C 282.085 0.803867 -1.86188 0
M  V30 2702 C 282.418 1.78549 -0.763794 0
M  V30 2703 O 281.693 1.93153 0.22855 0
M  V30 2704 C 281.976 1.53568 -3.25713 0
M  V30 2705 C 281.829 0.572277 -4.46145 0
M  V30 2706 C 283.148 2.48708 -3.63087 0
M  V30 2707 H 280.267 0.290781 -0.677211 0
M  V30 2708 H 282.909 0.0675783 -1.8988 0
M  V30 2709 H 281.059 2.16332 -3.22696 0
M  V30 2710 H 282.731 -0.0480894 -4.61275 0
M  V30 2711 H 280.974 -0.114618 -4.33649 0
M  V30 2712 H 281.645 1.12139 -5.40489 0
M  V30 2713 H 284.121 1.96039 -3.67026 0
M  V30 2714 H 282.997 2.96932 -4.61652 0
M  V30 2715 H 283.258 3.32309 -2.91588 0
M  V30 2716 N 282.317 1.53212 0.369288 0
M  V30 2717 C 283.565 1.68881 1.11012 0
M  V30 2718 C 283.886 0.441285 1.89941 0
M  V30 2719 O 283.156 -0.544623 1.88177 0
M  V30 2720 H 281.736 0.622569 0.412816 0
M  V30 2721 H 284.398 1.90391 0.416802 0
M  V30 2722 H 283.494 2.54822 1.80201 0
M  V30 2723 N 283.795 -0.628877 1.44509 0
M  V30 2724 C 285.206 -1.21054 1.42137 0
M  V30 2725 C 285.557 -1.95715 0.137881 0
M  V30 2726 O 284.682 -2.02554 -0.761645 0
M  V30 2727 C 285.277 -2.20189 2.57493 0
M  V30 2728 C 283.836 -2.73777 2.58308 0
M  V30 2729 C 282.983 -1.48813 2.33987 0
M  V30 2730 H 285.934 -0.41942 1.53057 0
M  V30 2731 H 285.955 -3.02833 2.30375 0
M  V30 2732 H 285.467 -1.6582 3.50892 0
M  V30 2733 H 283.568 -3.32142 1.68856 0
M  V30 2734 H 283.681 -3.19662 3.56865 0
M  V30 2735 H 282.045 -1.77024 1.83124 0
M  V30 2736 H 282.828 -0.963442 3.29504 0
M  V30 2737 N 285.273 -1.31445 -0.869486 0
M  V30 2738 C 286.183 -1.21097 -2.0093 0
M  V30 2739 C 287.199 -0.127584 -1.73532 0
M  V30 2740 O 288.375 -0.345477 -1.98415 0
M  V30 2741 C 285.44 -0.919378 -3.34288 0
M  V30 2742 C 284.501 -2.08971 -3.75006 0
M  V30 2743 C 283.734 -1.81194 -5.02001 0
M  V30 2744 O 283.957 -0.747296 -5.65484 0
M  V30 2745 O 282.891 -2.66883 -5.39497 0
M  V30 2746 H 286.717 -2.16883 -2.12592 0
M  V30 2747 H 284.302 -1.11189 -0.997868 0
M  V30 2748 H 286.184 -0.772625 -4.14257 0
M  V30 2749 H 284.859 0.00844772 -3.23699 0
M  V30 2750 H 283.766 -2.29187 -2.95676 0
M  V30 2751 H 285.099 -2.9998 -3.90221 0
M  V30 2752 N 286.751 1.08385 -1.14413 0
M  V30 2753 C 287.999 1.80419 -0.910679 0
M  V30 2754 C 288.32 1.86658 0.564243 0
M  V30 2755 O 287.59 1.35985 1.41014 0
M  V30 2756 H 286.17 0.668204 -0.333934 0
M  V30 2757 H 288.832 1.31037 -1.44275 0
M  V30 2758 H 287.928 2.83238 -1.31082 0
M  V30 2759 N 288.23 0.939286 1.26551 0
M  V30 2760 C 289.47 0.5933 1.956 0
M  V30 2761 C 289.834 -0.851515 1.72085 0
M  V30 2762 O 291.035 -1.30634 2.34921 0
M  V30 2763 C 289.306 0.923996 3.45249 0
M  V30 2764 S 290.865 0.688269 4.33369 0
M  V30 2765 H 287.683 0.218591 0.676564 0
M  V30 2766 H 290.285 1.2102 1.5354 0
M  V30 2767 H 288.989 1.97297 3.59864 0
M  V30 2768 H 288.52 0.296746 3.92279 0
M  V30 2769 H 290.535 -0.448434 4.9417 0
M  V30 2770 N 289.708 -1.40897 0.706093 0
M  V30 2771 C 290.64 -2.29199 0.00815776 0
M  V30 2772 C 291.653 -1.45336 -0.733582 0
M  V30 2773 O 292.842 -1.68727 -0.582537 0
M  V30 2774 C 289.942 -3.23417 -1.01265 0
M  V30 2775 C 289.115 -4.36089 -0.338387 0
M  V30 2776 C 288.174 -5.10811 -1.26326 0
M  V30 2777 O 287.2 -5.64215 -0.751651 0
M  V30 2778 N 288.402 -5.19269 -2.595 0
M  V30 2779 H 291.167 -2.89738 0.766297 0
M  V30 2780 H 288.728 -1.52164 0.55296 0
M  V30 2781 H 290.72 -3.70276 -1.63334 0
M  V30 2782 H 289.29 -2.64112 -1.67223 0
M  V30 2783 H 288.51 -3.91479 0.462352 0
M  V30 2784 H 289.798 -5.08634 0.130031 0
M  V30 2785 H 289.196 -4.77347 -3.03573 0
M  V30 2786 H 287.753 -5.69667 -3.16737 0
M  V30 2787 N 291.186 -0.45159 -1.50991 0
M  V30 2788 C 292.136 0.370861 -2.24964 0
M  V30 2789 C 293.12 0.978074 -1.2776 0
M  V30 2790 O 294.312 0.893854 -1.52772 0
M  V30 2791 C 291.441 1.46344 -3.10545 0
M  V30 2792 C 290.527 0.864924 -4.15187 0
M  V30 2793 N 290.918 -0.00311354 -5.058 0
M  V30 2794 C 289.216 1.13099 -4.31422 0
M  V30 2795 C 289.917 -0.340772 -5.80701 0
M  V30 2796 N 288.893 0.279203 -5.42883 0
M  V30 2797 H 292.695 -0.298134 -2.92384 0
M  V30 2798 H 290.209 -0.264528 -1.60231 0
M  V30 2799 H 292.206 2.06565 -3.62128 0
M  V30 2800 H 290.866 2.13463 -2.4467 0
M  V30 2801 H 291.877 -0.37058 -5.16572 0
M  V30 2802 H 288.554 1.79861 -3.76771 0
M  V30 2803 H 289.944 -1.048 -6.63677 0
M  V30 2804 N 292.664 1.56529 -0.183458 0
M  V30 2805 C 293.596 2.15747 0.773697 0
M  V30 2806 C 294.609 1.1162 1.1851 0
M  V30 2807 O 295.798 1.3876 1.12285 0
M  V30 2808 C 292.898 2.6952 2.05456 0
M  V30 2809 C 292.071 3.98429 1.8048 0
M  V30 2810 C 291.13 4.37145 2.92901 0
M  V30 2811 O 290.156 5.04791 2.6301 0
M  V30 2812 N 291.358 3.99695 4.2098 0
M  V30 2813 H 294.123 2.98505 0.26736 0
M  V30 2814 H 291.684 1.619 -0.0010878 0
M  V30 2815 H 293.676 2.92412 2.79781 0
M  V30 2816 H 292.246 1.91282 2.47245 0
M  V30 2817 H 291.466 3.8379 0.899947 0
M  V30 2818 H 292.754 4.82597 1.61175 0
M  V30 2819 H 292.152 3.4526 4.48121 0
M  V30 2820 H 290.709 4.27562 4.9197 0
M  V30 2821 N 294.142 -0.090211 1.57342 0
M  V30 2822 C 295.072 -1.10976 2.05443 0
M  V30 2823 C 296.053 -1.41482 0.944284 0
M  V30 2824 O 297.238 -1.51428 1.21586 0
M  V30 2825 C 294.368 -2.42831 2.48295 0
M  V30 2826 C 293.322 -2.26721 3.63018 0
M  V30 2827 C 292.648 -3.63796 3.91863 0
M  V30 2828 C 293.948 -1.7037 4.93732 0
M  V30 2829 H 295.642 -0.709564 2.9087 0
M  V30 2830 H 293.188 -0.339874 1.39932 0
M  V30 2831 H 295.141 -3.14431 2.80555 0
M  V30 2832 H 293.865 -2.84795 1.59873 0
M  V30 2833 H 292.524 -1.57565 3.31012 0
M  V30 2834 H 292.172 -4.03297 3.00601 0
M  V30 2835 H 291.872 -3.53861 4.69101 0
M  V30 2836 H 293.396 -4.36855 4.26603 0
M  V30 2837 H 294.81 -2.31816 5.24342 0
M  V30 2838 H 293.207 -1.71181 5.75167 0
M  V30 2839 H 294.277 -0.663542 4.80339 0
M  V30 2840 N 295.62 -1.53406 -0.361157 0
M  V30 2841 C 296.848 -1.73717 -1.12383 0
M  V30 2842 C 297.263 -0.468161 -1.82904 0
M  V30 2843 O 296.62 0.559198 -1.73722 0
M  V30 2844 C 296.671 -2.90558 -2.15078 0
M  V30 2845 O 296.392 -4.12549 -1.47428 0
M  V30 2846 C 297.893 -3.22777 -3.03858 0
M  V30 2847 H 295.113 -0.580896 -0.335858 0
M  V30 2848 H 297.657 -2.00167 -0.418728 0
M  V30 2849 H 295.812 -2.66489 -2.8118 0
M  V30 2850 H 296.226 -4.78009 -2.15887 0
M  V30 2851 H 297.7 -4.07927 -3.71887 0
M  V30 2852 H 298.177 -2.38329 -3.68912 0
M  V30 2853 H 298.783 -3.48787 -2.43367 0
M  V30 2854 N 297.098 0.621204 -1.44841 0
M  V30 2855 C 298.346 1.37783 -1.47852 0
M  V30 2856 C 298.667 1.94653 -0.116224 0
M  V30 2857 O 297.937 1.76367 0.852737 0
M  V30 2858 H 296.517 0.511453 -0.544449 0
M  V30 2859 H 299.179 0.730446 -1.80694 0
M  V30 2860 H 298.275 2.20414 -2.20961 0
M  V30 2861 N 298.576 1.31904 0.862503 0
M  V30 2862 C 299.506 1.22782 1.98612 0
M  V30 2863 C 300.487 0.113362 1.69722 0
M  V30 2864 O 301.672 0.299218 1.91881 0
M  V30 2865 C 298.802 0.942058 3.34279 0
M  V30 2866 C 297.756 2.0169 3.77499 0
M  V30 2867 C 297.082 1.58369 5.10709 0
M  V30 2868 C 298.382 3.43096 3.93805 0
M  V30 2869 H 300.076 2.16788 2.06502 0
M  V30 2870 H 297.622 1.04366 0.992154 0
M  V30 2871 H 299.575 0.864818 4.1243 0
M  V30 2872 H 298.299 -0.0336603 3.26583 0
M  V30 2873 H 296.958 2.08416 3.01593 0
M  V30 2874 H 296.606 0.595628 4.99461 0
M  V30 2875 H 296.306 2.30279 5.40597 0
M  V30 2876 H 297.83 1.52067 5.91361 0
M  V30 2877 H 299.244 3.39003 4.62331 0
M  V30 2878 H 297.641 4.13288 4.35101 0
M  V30 2879 H 298.711 3.83334 2.96957 0
M  V30 2880 N 300.054 -1.07777 1.14986 0
M  V30 2881 C 301.3 -1.80557 0.923422 0
M  V30 2882 C 301.633 -1.86298 -0.548337 0
M  V30 2883 O 300.908 -1.34354 -1.40639 0
M  V30 2884 C 301.191 -3.25839 1.53299 0
M  V30 2885 C 301.044 -3.28269 3.07505 0
M  V30 2886 C 302.363 -4.22991 1.21518 0
M  V30 2887 H 299.482 -0.655493 0.336894 0
M  V30 2888 H 302.124 -1.26144 1.42083 0
M  V30 2889 H 300.274 -3.72306 1.10999 0
M  V30 2890 H 301.946 -2.90079 3.58681 0
M  V30 2891 H 300.189 -2.67355 3.4162 0
M  V30 2892 H 300.86 -4.30691 3.45266 0
M  V30 2893 H 303.336 -3.84894 1.581 0
M  V30 2894 H 302.212 -5.22945 1.66793 0
M  V30 2895 H 302.473 -4.41904 0.131505 0
M  V30 2896 N 301.532 -0.945985 -1.26051 0
M  V30 2897 C 302.772 -0.603665 -1.95282 0
M  V30 2898 C 303.136 0.842377 -1.72534 0
M  V30 2899 O 304.337 1.29387 -2.35611 0
M  V30 2900 C 302.608 -0.942292 -3.44754 0
M  V30 2901 S 304.167 -0.711242 -4.32997 0
M  V30 2902 H 300.985 -0.222176 -0.675395 0
M  V30 2903 H 303.587 -1.21832 -1.52896 0
M  V30 2904 H 302.291 -1.99203 -3.58812 0
M  V30 2905 H 301.822 -0.317546 -3.92116 0
M  V30 2906 H 303.837 0.422221 -4.944 0
M  V30 2907 N 303.011 1.40521 -0.713556 0
M  V30 2908 C 304.239 2.05237 -0.261775 0
M  V30 2909 C 304.654 1.53755 1.09567 0
M  V30 2910 O 304.011 0.693268 1.6882 0
M  V30 2911 C 304.062 3.60763 -0.230706 0
M  V30 2912 O 303.783 4.10345 -1.53455 0
M  V30 2913 C 305.284 4.42651 0.239874 0
M  V30 2914 H 302.504 0.660533 -0.118057 0
M  V30 2915 H 305.048 1.79967 -0.971192 0
M  V30 2916 H 303.203 3.8501 0.429661 0
M  V30 2917 H 303.617 5.04526 -1.43366 0
M  V30 2918 H 305.091 5.51599 0.210468 0
M  V30 2919 H 305.568 4.20082 1.28171 0
M  V30 2920 H 306.174 4.23507 -0.390142 0
M  V30 2921 N 304.489 0.459591 1.5075 0
M  V30 2922 C 305.436 -0.340524 2.28274 0
M  V30 2923 C 306.406 -0.997371 1.32822 0
M  V30 2924 O 307.591 -1.01202 1.61749 0
M  V30 2925 C 304.731 -1.42317 3.14388 0
M  V30 2926 C 303.844 -0.782251 4.24859 0
M  V30 2927 C 302.979 -1.84182 4.98247 0
M  V30 2928 C 302.018 -1.18053 6.00608 0
M  V30 2929 N 301.155 -2.18244 6.67319 0
M  V30 2930 H 305.995 0.326899 2.96202 0
M  V30 2931 H 303.532 0.173057 1.46078 0
M  V30 2932 H 305.49 -2.06241 3.62658 0
M  V30 2933 H 304.12 -2.05992 2.4853 0
M  V30 2934 H 303.172 -0.0307404 3.80388 0
M  V30 2935 H 304.484 -0.259663 4.98124 0
M  V30 2936 H 303.638 -2.55714 5.50177 0
M  V30 2937 H 302.377 -2.39819 4.24662 0
M  V30 2938 H 301.382 -0.450776 5.47949 0
M  V30 2939 H 302.607 -0.631202 6.7616 0
M  V30 2940 H 300.553 -2.72919 5.96533 0
M  V30 2941 H 300.47 -1.70938 7.36421 0
M  V30 2942 H 301.738 -2.89191 7.23871 0
M  V30 2943 N 305.967 -1.56429 0.191757 0
M  V30 2944 C 306.93 -2.17707 -0.716688 0
M  V30 2945 C 307.93 -1.13061 -1.14341 0
M  V30 2946 O 309.12 -1.38464 -1.05704 0
M  V30 2947 C 306.252 -2.77644 -1.97804 0
M  V30 2948 H 307.445 -2.99342 -0.1829 0
M  V30 2949 H 304.998 -1.56193 -0.0578566 0
M  V30 2950 H 305.733 -1.99799 -2.55443 0
M  V30 2951 H 305.518 -3.54246 -1.68083 0
M  V30 2952 H 307.008 -3.24708 -2.62592 0
M  V30 2953 N 307.445 0.0818655 -1.57387 0
M  V30 2954 C 308.375 1.09885 -2.06028 0
M  V30 2955 C 309.356 1.4098 -0.951774 0
M  V30 2956 O 310.541 1.50781 -1.22387 0
M  V30 2957 C 307.671 2.4151 -2.4958 0
M  V30 2958 C 306.625 2.24792 -3.64215 0
M  V30 2959 C 305.951 3.61712 -3.93787 0
M  V30 2960 C 307.251 1.67749 -4.94629 0
M  V30 2961 H 308.945 0.694128 -2.91243 0
M  V30 2962 H 306.491 0.332448 -1.4011 0
M  V30 2963 H 308.444 3.12939 -2.82219 0
M  V30 2964 H 307.168 2.83943 -1.61381 0
M  V30 2965 H 305.827 1.55807 -3.31843 0
M  V30 2966 H 305.475 4.01697 -3.02735 0
M  V30 2967 H 305.175 3.51368 -4.70971 0
M  V30 2968 H 306.699 4.34587 -4.28913 0
M  V30 2969 H 308.113 2.29032 -5.25564 0
M  V30 2970 H 306.51 1.68128 -5.76067 0
M  V30 2971 H 307.58 0.638059 -4.80684 0
M  V30 2972 N 308.923 1.53595 0.353017 0
M  V30 2973 C 310.163 1.72094 1.10286 0
M  V30 2974 C 310.527 0.469217 1.86178 0
M  V30 2975 O 311.728 0.531083 2.63501 0
M  V30 2976 C 309.999 2.94386 2.02661 0
M  V30 2977 S 311.558 3.33651 2.84996 0
M  V30 2978 H 308.376 0.605433 0.372789 0
M  V30 2979 H 310.978 1.91722 0.38248 0
M  V30 2980 H 309.682 3.83669 1.45691 0
M  V30 2981 H 309.213 2.77197 2.79152 0
M  V30 2982 H 311.228 2.86645 4.0503 0
M  V30 2983 N 310.401 -0.613514 1.45168 0
M  V30 2984 C 311.641 -1.38405 1.5041 0
M  V30 2985 C 312.005 -1.91489 0.139922 0
M  V30 2986 O 313.206 -2.68716 0.067033 0
M  V30 2987 C 311.477 -2.50552 2.5487 0
M  V30 2988 S 313.036 -3.38439 2.79292 0
M  V30 2989 H 309.854 -0.471945 0.531779 0
M  V30 2990 H 312.456 -0.708518 1.82209 0
M  V30 2991 H 311.16 -2.09894 3.52665 0
M  V30 2992 H 310.691 -3.22913 2.24701 0
M  V30 2993 H 312.706 -4.48527 2.12222 0
M  V30 2994 N 311.879 -1.3236 -0.855495 0
M  V30 2995 C 312.842 -1.21164 -1.94556 0
M  V30 2996 C 313.842 -0.134908 -1.60233 0
M  V30 2997 O 315.032 -0.385249 -1.69887 0
M  V30 2998 C 312.164 -0.863192 -3.29791 0
M  V30 2999 H 313.357 -2.18038 -2.05911 0
M  V30 3000 H 310.91 -1.16179 -1.04557 0
M  V30 3001 H 311.645 0.103769 -3.24134 0
M  V30 3002 H 311.43 -1.64166 -3.56078 0
M  V30 3003 H 312.92 -0.809156 -4.09686 0
M  V30 3004 N 313.357 1.07166 -1.15556 0
M  V30 3005 C 314.585 1.83514 -0.955519 0
M  V30 3006 C 315 1.82163 0.49621 0
M  V30 3007 O 314.357 1.23441 1.34419 0
M  V30 3008 C 314.408 3.30515 -1.46432 0
M  V30 3009 O 314.129 3.31937 -2.85918 0
M  V30 3010 C 315.63 4.23625 -1.30603 0
M  V30 3011 H 312.85 0.578926 -0.339244 0
M  V30 3012 H 315.394 1.35265 -1.53374 0
M  V30 3013 H 313.549 3.76106 -0.928584 0
M  V30 3014 H 313.963 4.23794 -3.09029 0
M  V30 3015 H 315.437 5.24831 -1.71047 0
M  V30 3016 H 315.914 4.38485 -0.250441 0
M  V30 3017 H 316.52 3.83871 -1.83094 0
M  V30 3018 N 314.835 0.952656 1.25548 0
M  V30 3019 C 316.081 0.607272 1.93494 0
M  V30 3020 C 316.414 -0.853245 1.74452 0
M  V30 3021 O 315.689 -1.61194 1.08843 0
M  V30 3022 C 315.972 0.96435 3.46947 0
M  V30 3023 C 315.825 2.48045 3.75225 0
M  V30 3024 C 317.144 0.487987 4.37386 0
M  V30 3025 H 314.263 0.222096 0.702739 0
M  V30 3026 H 316.905 1.18895 1.48203 0
M  V30 3027 H 315.055 0.469361 3.85654 0
M  V30 3028 H 316.727 3.04905 3.46166 0
M  V30 3029 H 314.97 2.919 3.209 0
M  V30 3030 H 315.641 2.6808 4.82532 0
M  V30 3031 H 318.117 0.912558 4.0597 0
M  V30 3032 H 316.993 0.766547 5.43521 0
M  V30 3033 H 317.254 -0.612063 4.37843 0
M  V30 3034 N 316.313 -1.40141 0.720998 0
M  V30 3035 C 317.561 -2.0039 0.262323 0
M  V30 3036 C 317.882 -1.57469 -1.15015 0
M  V30 3037 O 317.152 -0.816582 -1.78069 0
M  V30 3038 H 315.732 -0.741063 0.093996 0
M  V30 3039 H 318.394 -1.71398 0.927835 0
M  V30 3040 H 317.49 -3.10658 0.299671 0
M  V30 3041 N 317.792 -0.46758 -1.50504 0
M  V30 3042 C 319.208 -0.121533 -1.59137 0
M  V30 3043 C 319.408 1.3717 -1.47603 0
M  V30 3044 O 318.464 2.14464 -1.33272 0
M  V30 3045 C 319.777 -0.6686 -2.93173 0
M  V30 3046 C 321.325 -0.631716 -3.06559 0
M  V30 3047 C 321.8 -1.15627 -4.43164 0
M  V30 3048 N 323.291 -1.11553 -4.49567 0
M  V30 3049 C 324.026 -1.49195 -5.5365 0
M  V30 3050 N 323.522 -1.94269 -6.65005 0
M  V30 3051 N 325.315 -1.4082 -5.44175 0
M  V30 3052 H 317.466 -1.4388 -1.56245 0
M  V30 3053 H 319.729 -0.594784 -0.738198 0
M  V30 3054 H 319.435 -1.71453 -3.07078 0
M  V30 3055 H 319.309 -0.11021 -3.77039 0
M  V30 3056 H 321.696 0.405297 -2.92304 0
M  V30 3057 H 321.777 -1.22687 -2.24458 0
M  V30 3058 H 321.421 -2.1919 -4.58168 0
M  V30 3059 H 321.351 -0.537365 -5.23851 0
M  V30 3060 H 323.842 -0.784895 -3.69659 0
M  V30 3061 H 324.155 -2.21148 -7.40482 0
M  V30 3062 H 322.5 -1.98219 -6.66134 0
M  V30 3063 H 325.691 -1.0545 -4.56068 0
M  V30 3064 H 325.864 -1.70481 -6.25172 0
M  V30 3065 N 319.27 1.56325 -0.20005 0
M  V30 3066 C 320.233 2.18084 0.705132 0
M  V30 3067 C 321.233 1.13666 1.1374 0
M  V30 3068 O 322.423 1.39023 1.04968 0
M  V30 3069 C 319.555 2.78689 1.96329 0
M  V30 3070 H 320.748 2.99435 0.167023 0
M  V30 3071 H 318.301 1.56221 0.0495725 0
M  V30 3072 H 319.036 2.0115 2.5438 0
M  V30 3073 H 318.821 3.55133 1.66202 0
M  V30 3074 H 320.311 3.26096 2.60866 0
M  V30 3075 N 320.748 -0.0735177 1.57428 0
M  V30 3076 C 321.994 -0.768909 1.88307 0
M  V30 3077 C 322.349 -1.75273 0.793535 0
M  V30 3078 O 321.642 -1.90527 -0.202466 0
M  V30 3079 C 321.836 -1.51799 3.23561 0
M  V30 3080 C 321.665 -0.608217 4.45568 0
M  V30 3081 C 320.435 -0.245808 5.04702 0
M  V30 3082 C 322.633 0.0942904 5.14214 0
M  V30 3083 N 320.615 0.66987 6.10234 0
M  V30 3084 C 321.986 0.867222 6.13905 0
M  V30 3085 C 324.041 0.165943 4.97623 0
M  V30 3086 C 322.744 1.70515 6.98797 0
M  V30 3087 C 324.77 0.990837 5.83041 0
M  V30 3088 C 324.132 1.75182 6.82269 0
M  V30 3089 H 320.231 -0.25685 0.738615 0
M  V30 3090 H 322.815 -0.030499 1.94676 0
M  V30 3091 H 320.986 -2.22713 3.18203 0
M  V30 3092 H 322.718 -2.16226 3.42094 0
M  V30 3093 H 319.473 -0.598284 4.69806 0
M  V30 3094 H 319.897 1.1209 6.67656 0
M  V30 3095 H 324.539 -0.408064 4.20826 0
M  V30 3096 H 322.257 2.29013 7.7497 0
M  V30 3097 H 325.843 1.04923 5.72261 0
M  V30 3098 H 324.723 2.37983 7.47217 0
M  V30 3099 N 322.226 -1.5378 -0.344866 0
M  V30 3100 C 323.474 -1.70625 -1.08311 0
M  V30 3101 C 323.795 -0.471447 -1.89215 0
M  V30 3102 O 323.065 0.514616 -1.8902 0
M  V30 3103 H 321.645 -0.629058 -0.402859 0
M  V30 3104 H 324.307 -1.9103 -0.386459 0
M  V30 3105 H 323.403 -2.57656 -1.76124 0
M  V30 3106 N 323.704 0.605807 -1.45491 0
M  V30 3107 C 324.634 1.72709 -1.57143 0
M  V30 3108 C 325.615 1.6476 -0.422884 0
M  V30 3109 O 326.8 1.83132 -0.646247 0
M  V30 3110 C 323.93 3.11316 -1.53948 0
M  V30 3111 C 322.884 3.34077 -2.67537 0
M  V30 3112 C 322.21 4.72975 -2.49397 0
M  V30 3113 C 323.51 3.24158 -4.09535 0
M  V30 3114 H 325.204 1.63214 -2.51001 0
M  V30 3115 H 322.75 0.78379 -1.208 0
M  V30 3116 H 324.703 3.89557 -1.60696 0
M  V30 3117 H 323.427 3.21655 -0.566205 0
M  V30 3118 H 322.086 2.58227 -2.6022 0
M  V30 3119 H 321.734 4.8005 -1.50205 0
M  V30 3120 H 321.434 4.8916 -3.25571 0
M  V30 3121 H 322.958 5.53414 -2.58002 0
M  V30 3122 H 324.372 3.92271 -4.18086 0
M  V30 3123 H 322.769 3.51872 -4.86113 0
M  V30 3124 H 323.839 2.2157 -4.31317 0
M  V30 3125 N 325.182 1.32811 0.848464 0
M  V30 3126 C 326.593 1.21315 1.41914 0
M  V30 3127 C 326.944 -0.171847 1.95446 0
M  V30 3128 O 326.069 -1.07093 1.88043 0
M  V30 3129 C 326.664 2.19631 2.57968 0
M  V30 3130 C 325.223 2.12003 3.11017 0
M  V30 3131 C 324.37 2.07651 1.83783 0
M  V30 3132 H 327.321 1.44549 0.655071 0
M  V30 3133 H 327.342 1.79845 3.35315 0
M  V30 3134 H 326.854 3.20423 2.18976 0
M  V30 3135 H 324.955 1.14481 3.54577 0
M  V30 3136 H 325.068 3.02111 3.71841 0
M  V30 3137 H 323.432 1.52983 2.03638 0
M  V30 3138 H 324.215 3.10235 1.47 0
M  V30 3139 N 326.66 -1.06551 1.16123 0
M  V30 3140 C 327.9 -1.80889 0.951766 0
M  V30 3141 C 328.264 -1.85062 -0.511465 0
M  V30 3142 O 329.465 -2.55353 -0.83954 0
M  V30 3143 C 327.736 -3.21609 1.55893 0
M  V30 3144 S 329.295 -4.12593 1.49373 0
M  V30 3145 H 326.113 -0.623156 0.342341 0
M  V30 3146 H 328.715 -1.27943 1.47821 0
M  V30 3147 H 327.419 -3.16165 2.61664 0
M  V30 3148 H 326.95 -3.79631 1.0317 0
M  V30 3149 H 328.965 -4.93753 0.492196 0
M  V30 3150 N 328.138 -0.959301 -1.25041 0
M  V30 3151 C 329.048 -0.489994 -2.29426 0
M  V30 3152 C 330.064 0.444944 -1.68215 0
M  V30 3153 O 331.24 0.320046 -1.98841 0
M  V30 3154 C 328.305 0.220309 -3.45999 0
M  V30 3155 C 327.366 -0.753418 -4.22637 0
M  V30 3156 C 326.599 -0.076918 -5.33645 0
M  V30 3157 O 326.822 1.13649 -5.58963 0
M  V30 3158 O 325.756 -0.764824 -5.97021 0
M  V30 3159 H 329.582 -1.35755 -2.71669 0
M  V30 3160 H 327.167 -0.725961 -1.30576 0
M  V30 3161 H 329.049 0.619677 -4.16819 0
M  V30 3162 H 327.724 1.06296 -3.0575 0
M  V30 3163 H 326.631 -1.20308 -3.54227 0
M  V30 3164 H 327.964 -1.56423 -4.66683 0
M  V30 3165 N 329.616 1.39756 -0.72842 0
M  V30 3166 C 330.546 2.33289 -0.0991354 0
M  V30 3167 C 331.527 1.53568 0.731489 0
M  V30 3168 O 332.712 1.81987 0.677807 0
M  V30 3169 C 329.842 3.3763 0.813834 0
M  V30 3170 C 328.796 4.2791 0.0878663 0
M  V30 3171 C 328.122 5.22894 1.11741 0
M  V30 3172 C 329.422 5.11314 -1.06563 0
M  V30 3173 H 331.116 2.86163 -0.880408 0
M  V30 3174 H 328.662 1.37591 -0.424819 0
M  V30 3175 H 330.615 4.0201 1.26355 0
M  V30 3176 H 329.339 2.83181 1.62715 0
M  V30 3177 H 327.998 3.65 -0.342159 0
M  V30 3178 H 327.646 4.64744 1.92412 0
M  V30 3179 H 327.346 5.84143 0.636477 0
M  V30 3180 H 328.87 5.90151 1.56697 0
M  V30 3181 H 330.284 5.69076 -0.694671 0
M  V30 3182 H 328.681 5.81671 -1.47577 0
M  V30 3183 H 329.751 4.46534 -1.89038 0
M  V30 3184 N 331.094 0.475555 1.50254 0
M  V30 3185 C 332.334 -0.0765802 2.04256 0
M  V30 3186 C 332.698 -1.36587 1.34937 0
M  V30 3187 O 333.899 -2.00066 1.79519 0
M  V30 3188 C 332.17 -0.251668 3.56513 0
M  V30 3189 S 333.729 -0.761716 4.32138 0
M  V30 3190 H 330.547 -0.0138456 0.710865 0
M  V30 3191 H 333.149 0.643714 1.84598 0
M  V30 3192 H 331.853 0.692404 4.04517 0
M  V30 3193 H 331.384 -0.997946 3.80532 0
M  V30 3194 H 333.399 -2.03451 4.52573 0
M  V30 3195 N 332.573 -1.56217 0.208337 0
M  V30 3196 C 333.984 -1.84243 -0.301904 0
M  V30 3197 C 334.335 -1.12939 -1.60434 0
M  V30 3198 O 333.46 -0.39461 -2.12772 0
M  V30 3199 C 334.055 -3.34231 -0.554543 0
M  V30 3200 C 332.614 -3.62621 -1.00912 0
M  V30 3201 C 331.761 -2.77224 -0.064933 0
M  V30 3202 H 334.712 -1.52712 0.431833 0
M  V30 3203 H 334.733 -3.5372 -1.40223 0
M  V30 3204 H 334.245 -3.86099 0.393561 0
M  V30 3205 H 332.346 -3.16197 -1.97104 0
M  V30 3206 H 332.459 -4.7071 -0.892674 0
M  V30 3207 H 330.823 -2.48256 -0.56929 0
M  V30 3208 H 331.606 -3.31887 0.877851 0
M  V30 3209 N 334.051 0.0651679 -1.57465 0
M  V30 3210 C 335.014 1.06117 -2.03155 0
M  V30 3211 C 336.014 1.31204 -0.929632 0
M  V30 3212 O 337.204 1.26813 -1.19432 0
M  V30 3213 C 334.336 2.4032 -2.41783 0
M  V30 3214 H 335.529 0.667231 -2.92383 0
M  V30 3215 H 333.082 0.311075 -1.53173 0
M  V30 3216 H 333.817 2.84532 -1.55601 0
M  V30 3217 H 333.602 2.23451 -3.22199 0
M  V30 3218 H 335.092 3.11898 -2.77685 0
M  V30 3219 N 335.529 1.53961 0.336706 0
M  V30 3220 C 336.461 1.78751 1.4346 0
M  V30 3221 C 337.474 0.669019 1.48418 0
M  V30 3222 O 338.663 0.945884 1.51378 0
M  V30 3223 C 335.763 1.87844 2.82078 0
M  V30 3224 C 334.936 3.17854 3.00479 0
M  V30 3225 C 333.995 3.17816 4.19379 0
M  V30 3226 O 333.021 3.91511 4.13168 0
M  V30 3227 N 334.223 2.40669 5.2826 0
M  V30 3228 H 336.988 2.73493 1.22563 0
M  V30 3229 H 334.549 1.53096 0.526625 0
M  V30 3230 H 336.541 1.85261 3.59806 0
M  V30 3231 H 335.111 1.00257 2.96086 0
M  V30 3232 H 334.331 3.33504 2.10163 0
M  V30 3233 H 335.619 4.03718 3.0966 0
M  V30 3234 H 335.017 1.8036 5.36178 0
M  V30 3235 H 333.574 2.43877 6.04456 0
M  V30 3236 N 337.007 -0.598083 1.45811 0
M  V30 3237 C 338.418 -1.18011 1.44673 0
M  V30 3238 C 338.769 -1.95378 0.179364 0
M  V30 3239 O 337.894 -2.04124 -0.718509 0
M  V30 3240 C 338.489 -2.14677 2.62105 0
M  V30 3241 C 337.048 -2.68236 2.64057 0
M  V30 3242 C 336.195 -1.43816 2.37091 0
M  V30 3243 H 339.146 -0.38686 1.53913 0
M  V30 3244 H 339.167 -2.97878 2.36746 0
M  V30 3245 H 338.679 -1.5834 3.5433 0
M  V30 3246 H 336.78 -3.28486 1.75864 0
M  V30 3247 H 336.893 -3.12021 3.63566 0
M  V30 3248 H 335.257 -1.731 1.86838 0
M  V30 3249 H 336.04 -0.893333 3.31473 0
M  V30 3250 N 338.485 -1.33259 -0.841409 0
M  V30 3251 C 339.435 -1.19872 -1.93945 0
M  V30 3252 C 340.419 -0.102269 -1.60575 0
M  V30 3253 O 341.611 -0.330114 -1.73894 0
M  V30 3254 C 338.74 -0.937517 -3.30251 0
M  V30 3255 C 337.826 -2.07629 -3.69799 0
M  V30 3256 N 338.217 -3.32604 -3.81062 0
M  V30 3257 C 336.515 -1.98242 -3.9952 0
M  V30 3258 C 337.216 -4.07275 -4.15333 0
M  V30 3259 N 336.192 -3.35691 -4.27566 0
M  V30 3260 H 339.994 -2.14604 -2.00805 0
M  V30 3261 H 337.508 -1.2523 -1.03398 0
M  V30 3262 H 339.505 -0.822545 -4.08705 0
M  V30 3263 H 338.165 0.00128798 -3.247 0
M  V30 3264 H 339.176 -3.67382 -3.65035 0
M  V30 3265 H 335.853 -1.12005 -4.02195 0
M  V30 3266 H 337.243 -5.1511 -4.31406 0
M  V30 3267 N 339.963 1.05934 -1.16686 0
M  V30 3268 C 341.374 1.60263 -0.957745 0
M  V30 3269 C 341.725 1.89789 0.49745 0
M  V30 3270 O 340.85 1.67401 1.37135 0
M  V30 3271 C 341.445 2.91172 -1.73218 0
M  V30 3272 C 340.004 3.42188 -1.56794 0
M  V30 3273 C 339.151 2.16028 -1.73859 0
M  V30 3274 H 342.102 0.888392 -1.31504 0
M  V30 3275 H 342.123 3.60744 -1.21014 0
M  V30 3276 H 341.635 2.6965 -2.79124 0
M  V30 3277 H 339.736 3.68762 -0.533437 0
M  V30 3278 H 339.849 4.17273 -2.35414 0
M  V30 3279 H 338.213 2.26426 -1.16633 0
M  V30 3280 H 338.996 1.96985 -2.81161 0
M  V30 3281 N 341.441 0.965919 1.2453 0
M  V30 3282 C 342.681 0.634656 1.94297 0
M  V30 3283 C 343.045 -0.814822 1.73852 0
M  V30 3284 O 344.246 -1.25622 2.3764 0
M  V30 3285 C 342.517 0.99702 3.43212 0
M  V30 3286 S 344.076 0.780038 4.31811 0
M  V30 3287 H 340.894 0.232893 0.671775 0
M  V30 3288 H 343.496 1.24249 1.50938 0
M  V30 3289 H 342.2 2.04886 3.55598 0
M  V30 3290 H 341.731 0.379888 3.91562 0
M  V30 3291 H 343.746 -0.343512 4.9501 0
M  V30 3292 N 342.919 -1.39368 0.735821 0
M  V30 3293 C 344.335 -1.54204 0.411492 0
M  V30 3294 C 344.535 -1.70268 -1.07755 0
M  V30 3295 O 343.591 -1.70364 -1.86366 0
M  V30 3296 C 344.904 -2.75925 1.19523 0
M  V30 3297 C 346.452 -2.89761 1.18354 0
M  V30 3298 C 346.927 -4.14421 1.94986 0
M  V30 3299 N 348.418 -4.21462 1.92156 0
M  V30 3300 C 349.153 -5.16871 2.48258 0
M  V30 3301 N 348.649 -6.18063 3.13001 0
M  V30 3302 N 350.442 -5.09093 2.38287 0
M  V30 3303 H 342.593 -1.27189 1.70108 0
M  V30 3304 H 344.856 -0.616517 0.720147 0
M  V30 3305 H 344.562 -2.70401 2.24892 0
M  V30 3306 H 344.436 -3.68614 0.800222 0
M  V30 3307 H 346.823 -2.94777 0.137975 0
M  V30 3308 H 346.904 -1.98133 1.61793 0
M  V30 3309 H 346.548 -4.10166 2.99543 0
M  V30 3310 H 346.478 -5.05095 1.48953 0
M  V30 3311 H 348.969 -3.48979 1.44991 0
M  V30 3312 H 349.282 -6.87326 3.53275 0
M  V30 3313 H 347.627 -6.18448 3.17091 0
M  V30 3314 H 350.818 -4.28973 1.8735 0
M  V30 3315 H 350.991 -5.83272 2.82308 0
M  V30 3316 N 344.397 -0.483516 -1.5 0
M  V30 3317 C 345.813 -0.138404 -1.58999 0
M  V30 3318 C 346.013 1.35597 -1.4905 0
M  V30 3319 O 345.069 2.13039 -1.35539 0
M  V30 3320 C 346.382 -0.699658 -2.92447 0
M  V30 3321 C 347.93 -0.664195 -3.05872 0
M  V30 3322 C 348.405 -1.20321 -4.41913 0
M  V30 3323 N 349.896 -1.16315 -4.48358 0
M  V30 3324 C 350.631 -1.55058 -5.52037 0
M  V30 3325 N 350.127 -2.01311 -6.62907 0
M  V30 3326 N 351.92 -1.46584 -5.42651 0
M  V30 3327 H 344.071 -1.45529 -1.5471 0
M  V30 3328 H 346.334 -0.60258 -0.731848 0
M  V30 3329 H 346.04 -1.747 -3.05242 0
M  V30 3330 H 345.914 -0.150194 -3.76901 0
M  V30 3331 H 348.301 0.374272 -2.92717 0
M  V30 3332 H 348.382 -1.25061 -2.23144 0
M  V30 3333 H 348.026 -2.24037 -4.55818 0
M  V30 3334 H 347.956 -0.592896 -5.23252 0
M  V30 3335 H 350.447 -0.824058 -3.68806 0
M  V30 3336 H 350.76 -2.2899 -7.38095 0
M  V30 3337 H 349.105 -2.05273 -6.63994 0
M  V30 3338 H 352.296 -1.10281 -4.54924 0
M  V30 3339 H 352.469 -1.77103 -6.23329 0
M  V30 3340 N 345.875 1.56104 -0.216619 0
M  V30 3341 C 347.123 1.97781 0.415593 0
M  V30 3342 C 347.444 1.10536 1.60645 0
M  V30 3343 O 346.714 0.181303 1.95059 0
M  V30 3344 H 345.294 0.730415 0.156534 0
M  V30 3345 H 347.956 1.92445 -0.308366 0
M  V30 3346 H 347.052 3.03072 0.74525 0
M  V30 3347 N 347.353 -0.0568162 1.57498 0
M  V30 3348 C 348.6 -0.753104 1.87975 0
M  V30 3349 C 348.928 -1.76815 0.81035 0
M  V30 3350 O 348.183 -1.94756 -0.19199 0
M  V30 3351 C 348.482 -1.48359 3.25153 0
M  V30 3352 C 348.148 -0.60713 4.46794 0
M  V30 3353 C 346.81 -0.365642 4.79809 0
M  V30 3354 C 349.162 -0.000305978 5.212 0
M  V30 3355 C 346.49 0.491905 5.84634 0
M  V30 3356 C 348.842 0.844781 6.26934 0
M  V30 3357 C 347.506 1.096 6.58441 0
M  V30 3358 H 346.776 -0.27558 0.687849 0
M  V30 3359 H 349.423 -0.0135173 1.91495 0
M  V30 3360 H 347.728 -2.29577 3.17492 0
M  V30 3361 H 349.425 -2.02739 3.45974 0
M  V30 3362 H 346.015 -0.805487 4.20963 0
M  V30 3363 H 350.199 -0.173961 4.95995 0
M  V30 3364 H 345.455 0.695131 6.07436 0
M  V30 3365 H 349.629 1.32165 6.83744 0
M  V30 3366 H 347.256 1.76224 7.39492 0
M  V30 3367 N 348.832 -1.54138 -0.328536 0
M  V30 3368 C 350.081 -1.71318 -1.06456 0
M  V30 3369 C 350.394 -0.491109 -1.89334 0
M  V30 3370 O 351.6 -0.54416 -2.65991 0
M  V30 3371 C 350.056 -3.03 -1.94214 0
M  V30 3372 C 349.664 -4.32595 -1.16471 0
M  V30 3373 C 351.408 -3.29544 -2.67583 0
M  V30 3374 C 349.315 -5.55341 -2.03347 0
M  V30 3375 H 348.245 -0.638429 -0.401155 0
M  V30 3376 H 350.896 -1.80633 -0.323106 0
M  V30 3377 H 349.278 -2.87579 -2.72239 0
M  V30 3378 H 350.452 -4.58766 -0.432525 0
M  V30 3379 H 348.767 -4.12777 -0.548063 0
M  V30 3380 H 351.364 -4.18444 -3.3288 0
M  V30 3381 H 351.707 -2.47206 -3.34955 0
M  V30 3382 H 352.24 -3.45809 -1.96623 0
M  V30 3383 H 348.979 -6.40268 -1.40491 0
M  V30 3384 H 348.499 -5.33397 -2.74313 0
M  V30 3385 H 350.178 -5.91557 -2.62049 0
M  V30 3386 N 350.31 0.590341 -1.46126 0
M  V30 3387 C 351.721 1.17243 -1.45296 0
M  V30 3388 C 352.072 1.95281 -0.189723 0
M  V30 3389 O 351.197 2.04502 0.707674 0
M  V30 3390 C 351.792 2.13284 -2.6324 0
M  V30 3391 C 350.351 2.66832 -2.65476 0
M  V30 3392 C 349.498 1.42557 -2.3785 0
M  V30 3393 H 352.449 0.378692 -1.54116 0
M  V30 3394 H 352.47 2.96619 -2.38323 0
M  V30 3395 H 351.982 1.56459 -3.55165 0
M  V30 3396 H 350.083 3.27548 -1.77603 0
M  V30 3397 H 350.196 3.10088 -3.65215 0
M  V30 3398 H 348.56 1.72107 -1.87753 0
M  V30 3399 H 349.343 0.875741 -3.31942 0
M  V30 3400 N 351.788 1.33704 0.83433 0
M  V30 3401 C 352.736 1.24323 1.96587 0
M  V30 3402 C 353.73 0.143659 1.6879 0
M  V30 3403 O 354.936 0.30791 1.77347 0
M  V30 3404 H 351.311 0.385925 0.645419 0
M  V30 3405 H 353.282 2.19978 2.01624 0
M  V30 3406 C 352.031 1.00394 3.32891 0
M  V30 3407 H 351.354 1.84231 3.54822 0
M  V30 3408 H 352.794 0.97862 4.12552 0
M  V30 3409 C 351.253 -0.293047 3.35623 0
M  V30 3410 O 351.783 -1.29823 3.80143 0
M  V30 3411 N 349.989 -0.322174 2.88809 0
M  V30 3412 H 349.536 0.496379 2.52772 0
M  V30 3413 H 349.494 -1.18977 2.91019 0
M  V30 3414 N 353.266 -1.05314 1.17247 0
M  V30 3415 C 354.515 -1.77685 0.954521 0
M  V30 3416 C 354.828 -1.88616 -0.518025 0
M  V30 3417 O 356.034 -2.57714 -0.854144 0
M  V30 3418 C 354.49 -3.19402 1.65863 0
M  V30 3419 C 354.098 -3.16605 3.16963 0
M  V30 3420 C 355.842 -3.96237 1.52303 0
M  V30 3421 C 353.749 -4.53103 3.80068 0
M  V30 3422 H 352.679 -0.666 0.353496 0
M  V30 3423 H 355.33 -1.1805 1.40486 0
M  V30 3424 H 353.712 -3.79355 1.13602 0
M  V30 3425 H 354.886 -2.66176 3.76148 0
M  V30 3426 H 353.201 -2.53268 3.30521 0
M  V30 3427 H 355.798 -4.97157 1.96822 0
M  V30 3428 H 356.141 -4.136 0.473401 0
M  V30 3429 H 356.674 -3.42829 2.01775 0
M  V30 3430 H 353.413 -4.40946 4.85023 0
M  V30 3431 H 352.933 -5.03686 3.2567 0
M  V30 3432 H 354.612 -5.22045 3.82202 0
M  V30 3433 N 354.744 -0.972509 -1.24016 0
M  V30 3434 C 355.694 -0.477561 -2.22942 0
M  V30 3435 C 356.678 0.44308 -1.54679 0
M  V30 3436 O 357.87 0.273219 -1.74879 0
M  V30 3437 C 354.999 0.226348 -3.42553 0
M  V30 3438 C 354.085 -0.713403 -4.18057 0
M  V30 3439 N 354.476 -1.8527 -4.70647 0
M  V30 3440 C 352.774 -0.525145 -4.42898 0
M  V30 3441 C 353.475 -2.44089 -5.28011 0
M  V30 3442 N 352.451 -1.72556 -5.15486 0
M  V30 3443 H 356.253 -1.34678 -2.61226 0
M  V30 3444 H 353.767 -0.832196 -1.39457 0
M  V30 3445 H 355.764 0.598184 -4.12586 0
M  V30 3446 H 354.424 1.09195 -3.05788 0
M  V30 3447 H 355.435 -2.2341 -4.67235 0
M  V30 3448 H 352.112 0.296096 -4.16449 0
M  V30 3449 H 353.502 -3.40259 -5.79374 0
M  V30 3450 N 356.222 1.38976 -0.743202 0
M  V30 3451 C 357.45 2.04636 -0.30525 0
M  V30 3452 C 357.865 1.56044 1.06281 0
M  V30 3453 O 357.222 0.728921 1.67311 0
M  V30 3454 C 357.273 3.60193 -0.307177 0
M  V30 3455 O 356.994 4.06998 -1.62124 0
M  V30 3456 C 358.495 4.4306 0.145928 0
M  V30 3457 H 355.715 0.65788 -0.132041 0
M  V30 3458 H 358.259 1.77866 -1.00915 0
M  V30 3459 H 356.414 3.85835 0.347898 0
M  V30 3460 H 356.828 5.01371 -1.54036 0
M  V30 3461 H 358.302 5.51921 0.0934183 0
M  V30 3462 H 358.779 4.22706 1.19231 0
M  V30 3463 H 359.385 4.22584 -0.479886 0
M  V30 3464 N 357.7 0.491464 1.49741 0
M  V30 3465 C 358.948 -0.0563141 2.02022 0
M  V30 3466 C 359.269 -1.38363 1.37407 0
M  V30 3467 O 358.539 -1.88702 0.526166 0
M  V30 3468 H 357.119 -0.0238014 0.746621 0
M  V30 3469 H 359.781 0.646533 1.83864 0
M  V30 3470 H 358.877 -0.192967 3.11503 0
M  V30 3471 N 359.178 -1.55987 0.224894 0
M  V30 3472 C 360.141 -2.19178 -0.670348 0
M  V30 3473 C 361.141 -1.15461 -1.11917 0
M  V30 3474 O 362.331 -1.40675 -1.02743 0
M  V30 3475 C 359.463 -2.81777 -1.9187 0
M  V30 3476 H 360.656 -2.99662 -0.119364 0
M  V30 3477 H 358.209 -1.5628 -0.0247128 0
M  V30 3478 H 358.944 -2.05172 -2.51147 0
M  V30 3479 H 358.729 -3.57732 -1.60531 0
M  V30 3480 H 360.219 -3.30205 -2.55645 0
M  V30 3481 N 360.656 0.0484629 -1.57525 0
M  V30 3482 C 361.896 0.748196 -1.90214 0
M  V30 3483 C 362.26 1.73545 -0.821347 0
M  V30 3484 O 363.461 2.48201 -1.03198 0
M  V30 3485 C 361.732 1.41727 -3.28098 0
M  V30 3486 S 363.291 2.14884 -3.82584 0
M  V30 3487 H 360.109 0.248307 -0.666232 0
M  V30 3488 H 362.711 0.00343188 -1.955 0
M  V30 3489 H 361.415 0.685244 -4.04639 0
M  V30 3490 H 360.946 2.20099 -3.26068 0
M  V30 3491 H 362.961 3.41755 -3.59747 0
M  V30 3492 N 362.134 1.5431 0.320358 0
M  V30 3493 C 363.066 1.80262 1.41556 0
M  V30 3494 C 364.079 0.684723 1.477 0
M  V30 3495 O 365.268 0.961886 1.50366 0
M  V30 3496 C 362.368 1.90825 2.8007 0
M  V30 3497 C 361.541 3.21023 2.97091 0
M  V30 3498 C 360.6 3.22247 4.15985 0
M  V30 3499 O 359.626 3.95871 4.08992 0
M  V30 3500 N 360.828 2.46258 5.25678 0
M  V30 3501 H 363.593 2.74778 1.19655 0
M  V30 3502 H 361.154 1.53646 0.510358 0
M  V30 3503 H 363.146 1.89067 3.57821 0
M  V30 3504 H 361.716 1.03392 2.95006 0
M  V30 3505 H 360.936 3.35715 2.06614 0
M  V30 3506 H 362.224 4.0698 3.05361 0
M  V30 3507 H 361.622 1.86037 5.34235 0
M  V30 3508 H 360.179 2.50275 6.01835 0
M  V30 3509 N 363.613 -0.582584 1.46437 0
M  V30 3510 C 364.89 -1.34276 1.4223 0
M  V30 3511 C 365.27 -2.10835 0.10583 0
M  V30 3512 O 364.618 -2.09485 -0.912596 0
M  V30 3513 C 364.828 -2.26865 2.65204 0
M  V30 3514 C 366.176 -2.88691 3.11356 0
M  V30 3515 O 367.2 -2.37178 2.65753 0
M  V30 3516 O 366.059 -3.82255 3.90568 0
M  V30 3517 H 363.153 -0.603326 0.565621 0
M  V30 3518 H 365.699 -0.603591 1.58603 0
M  V30 3519 H 364.471 -1.69724 3.52576 0
M  V30 3520 H 364.094 -3.08122 2.5129 0
M  V30 3521 N 365.091 -1.34144 -0.827227 0
M  V30 3522 C 366.337 -1.26446 -1.58554 0
M  V30 3523 C 366.67 0.1664 -1.93486 0
M  V30 3524 O 365.945 1.1107 -1.59667 0
M  V30 3525 C 366.228 -2.15111 -2.8879 0
M  V30 3526 C 366.081 -3.66712 -2.60465 0
M  V30 3527 C 367.4 -2.03311 -3.90324 0
M  V30 3528 H 364.519 -0.46067 -0.575284 0
M  V30 3529 H 367.161 -1.64356 -0.953269 0
M  V30 3530 H 365.311 -1.8291 -3.42748 0
M  V30 3531 H 366.983 -4.09259 -2.1285 0
M  V30 3532 H 365.226 -3.88014 -1.93978 0
M  V30 3533 H 365.897 -4.24112 -3.53317 0
M  V30 3534 H 368.373 -2.31574 -3.45706 0
M  V30 3535 H 367.249 -2.67582 -4.79261 0
M  V30 3536 H 367.51 -1.00879 -4.30437 0
M  V30 3537 N 366.569 1.04691 -1.17803 0
M  V30 3538 C 367.846 1.7472 -0.879328 0
M  V30 3539 C 368.226 2.01812 0.619271 0
M  V30 3540 O 367.574 1.65824 1.57209 0
M  V30 3541 C 367.784 3.03686 -1.71976 0
M  V30 3542 C 369.132 3.77542 -1.94286 0
M  V30 3543 O 370.156 3.13569 -1.68976 0
M  V30 3544 O 369.015 4.92506 -2.36855 0
M  V30 3545 H 366.109 0.760011 -0.326056 0
M  V30 3546 H 368.655 1.10813 -1.28525 0
M  V30 3547 H 367.427 2.79754 -2.73594 0
M  V30 3548 H 367.05 3.75332 -1.31194 0
M  V30 3549 N 368.047 0.979072 1.23499 0
M  V30 3550 C 368.957 0.526431 2.28617 0
M  V30 3551 C 369.973 -0.418126 1.68901 0
M  V30 3552 O 371.149 -0.288372 1.99325 0
M  V30 3553 C 368.214 -0.165235 3.46306 0
M  V30 3554 C 367.275 0.82056 4.21385 0
M  V30 3555 C 366.508 0.161807 5.33455 0
M  V30 3556 O 366.731 -1.04742 5.60701 0
M  V30 3557 O 365.665 0.859708 5.95729 0
M  V30 3558 H 369.491 1.4006 2.69475 0
M  V30 3559 H 367.076 0.746643 1.29405 0
M  V30 3560 H 368.958 -0.553287 4.17752 0
M  V30 3561 H 367.633 -1.01419 3.07402 0
M  V30 3562 H 366.54 1.25929 3.52268 0
M  V30 3563 H 367.873 1.63828 4.64135 0
M  V30 3564 N 369.525 -1.3858 0.750561 0
M  V30 3565 C 370.765 -2.02032 0.310258 0
M  V30 3566 C 371.129 -1.58288 -1.08668 0
M  V30 3567 O 372.33 -2.14049 -1.62593 0
M  V30 3568 C 370.601 -3.54856 0.425647 0
M  V30 3569 S 372.16 -4.38748 0.0674797 0
M  V30 3570 H 368.978 -0.700705 0.120554 0
M  V30 3571 H 371.58 -1.69134 0.980512 0
M  V30 3572 H 370.284 -3.84182 1.44335 0
M  V30 3573 H 369.815 -3.92527 -0.261894 0
M  V30 3574 H 371.83 -4.82835 -1.14388 0
M  V30 3575 N 371.003 -0.499398 -1.49478 0
M  V30 3576 C 371.935 0.316575 -2.27003 0
M  V30 3577 C 372.948 0.932047 -1.33479 0
M  V30 3578 O 374.137 0.815658 -1.58774 0
M  V30 3579 C 371.237 1.46055 -3.05812 0
M  V30 3580 C 370.41 0.952679 -4.26899 0
M  V30 3581 C 369.469 1.97407 -4.87767 0
M  V30 3582 O 368.495 1.54326 -5.4788 0
M  V30 3583 N 369.697 3.30436 -4.77276 0
M  V30 3584 H 372.462 -0.348168 -2.97671 0
M  V30 3585 H 370.023 -0.33185 -1.58463 0
M  V30 3586 H 372.015 2.14135 -3.43407 0
M  V30 3587 H 370.585 2.02948 -2.37762 0
M  V30 3588 H 369.805 0.0968248 -3.94081 0
M  V30 3589 H 371.093 0.59174 -5.05347 0
M  V30 3590 H 370.491 3.68126 -4.29534 0
M  V30 3591 H 369.048 3.94235 -5.19059 0
M  V30 3592 N 372.481 1.55866 -0.233164 0
M  V30 3593 C 373.444 2.1953 0.658715 0
M  V30 3594 C 374.444 1.16053 1.11303 0
M  V30 3595 O 375.634 1.41218 1.01996 0
M  V30 3596 C 372.766 2.82791 1.90373 0
M  V30 3597 H 373.959 2.99721 0.10347 0
M  V30 3598 H 371.512 1.56291 0.0164245 0
M  V30 3599 H 372.247 2.06501 2.50056 0
M  V30 3600 H 372.032 3.58578 1.58632 0
M  V30 3601 H 373.522 3.31556 2.53891 0
M  V30 3602 N 373.959 -0.0401083 1.57549 0
M  V30 3603 C 375.205 -0.734211 1.89043 0
M  V30 3604 C 375.538 -1.75591 0.829535 0
M  V30 3605 O 374.813 -1.93868 -0.156706 0
M  V30 3606 C 375.096 -1.41374 3.31188 0
M  V30 3607 C 374.949 -0.406299 4.47961 0
M  V30 3608 C 376.268 -2.35061 3.72068 0
M  V30 3609 H 373.387 -0.265447 0.687537 0
M  V30 3610 H 376.029 0.00294087 1.9 0
M  V30 3611 H 374.179 -2.04206 3.30503 0
M  V30 3612 H 375.851 0.219255 4.60779 0
M  V30 3613 H 374.094 0.275485 4.32924 0
M  V30 3614 H 374.765 -0.920022 5.44279 0
M  V30 3615 H 377.241 -1.82282 3.74049 0
M  V30 3616 H 376.117 -2.79593 4.72355 0
M  V30 3617 H 376.378 -3.21258 3.0372 0
M  V30 3618 N 375.437 -1.54477 -0.31217 0
M  V30 3619 C 376.848 -1.64344 -0.885891 0
M  V30 3620 C 377.199 -0.54485 -1.88483 0
M  V30 3621 O 376.324 0.320387 -2.14015 0
M  V30 3622 C 376.919 -2.97908 -1.61357 0
M  V30 3623 C 375.478 -3.09933 -2.13585 0
M  V30 3624 C 374.625 -2.59971 -0.964897 0
M  V30 3625 H 377.576 -1.58448 -0.0894528 0
M  V30 3626 H 377.597 -2.88706 -2.47848 0
M  V30 3627 H 377.109 -3.77845 -0.886277 0
M  V30 3628 H 375.21 -2.34694 -2.89395 0
M  V30 3629 H 375.323 -4.15916 -2.37804 0
M  V30 3630 H 373.687 -2.16147 -1.34731 0
M  V30 3631 H 374.47 -3.42376 -0.251742 0
M  V30 3632 N 376.915 0.57481 -1.46744 0
M  V30 3633 C 378.163 1.33009 -1.52161 0
M  V30 3634 C 378.484 1.94185 -0.178092 0
M  V30 3635 O 377.754 1.7899 0.796196 0
M  V30 3636 H 376.334 0.493873 -0.560445 0
M  V30 3637 H 378.996 0.672589 -1.82927 0
M  V30 3638 H 378.092 2.13273 -2.27862 0
M  V30 3639 N 378.394 1.34581 0.820102 0
M  V30 3640 C 379.324 1.29038 1.94606 0
M  V30 3641 C 380.305 0.1673 1.69275 0
M  V30 3642 O 381.49 0.360112 1.90832 0
M  V30 3643 C 378.62 1.04793 3.31113 0
M  V30 3644 C 377.574 2.13597 3.70891 0
M  V30 3645 C 376.9 1.74537 5.05412 0
M  V30 3646 C 378.2 3.55451 3.8269 0
M  V30 3647 H 379.894 2.23248 1.99501 0
M  V30 3648 H 377.44 1.0747 0.958449 0
M  V30 3649 H 379.393 0.995592 4.0947 0
M  V30 3650 H 378.117 0.0702565 3.26524 0
M  V30 3651 H 376.776 2.17905 2.9481 0
M  V30 3652 H 376.424 0.754226 4.97313 0
M  V30 3653 H 376.124 2.47361 5.32997 0
M  V30 3654 H 377.648 1.70803 5.86224 0
M  V30 3655 H 379.062 3.5354 4.51312 0
M  V30 3656 H 377.459 4.26922 4.21732 0
M  V30 3657 H 378.529 3.92587 2.84611 0
M  V30 3658 N 379.872 -1.04064 1.18357 0
M  V30 3659 C 381.112 -1.78829 0.989921 0
M  V30 3660 C 381.476 -1.86106 -0.472095 0
M  V30 3661 O 382.677 -2.57076 -0.785187 0
M  V30 3662 C 380.948 -3.1823 1.6268 0
M  V30 3663 S 382.507 -4.09332 1.58091 0
M  V30 3664 H 379.325 -0.615754 0.355482 0
M  V30 3665 H 381.927 -1.24778 1.50501 0
M  V30 3666 H 380.631 -3.10543 2.68311 0
M  V30 3667 H 380.162 -3.77357 1.112 0
M  V30 3668 H 382.177 -4.92598 0.596817 0
M  V30 3669 N 381.35 -0.985608 -1.22978 0
M  V30 3670 C 382.282 -0.488154 -2.23941 0
M  V30 3671 C 383.295 0.41282 -1.57479 0
M  V30 3672 O 384.484 0.216121 -1.77187 0
M  V30 3673 C 381.584 0.312611 -3.37455 0
M  V30 3674 C 380.757 -0.582741 -4.33501 0
M  V30 3675 C 379.816 0.165064 -5.25941 0
M  V30 3676 O 378.842 -0.447077 -5.67442 0
M  V30 3677 N 380.044 1.44953 -5.62111 0
M  V30 3678 H 382.809 -1.3563 -2.67254 0
M  V30 3679 H 380.37 -0.859477 -1.37203 0
M  V30 3680 H 382.362 0.821357 -3.96277 0
M  V30 3681 H 380.932 1.0818 -2.93285 0
M  V30 3682 H 380.152 -1.27225 -3.73105 0
M  V30 3683 H 381.44 -1.19275 -4.94622 0
M  V30 3684 H 380.838 1.9683 -5.30353 0
M  V30 3685 H 379.395 1.90361 -6.23383 0
M  V30 3686 N 382.828 1.3818 -0.7579 0
M  V30 3687 C 384.076 1.99624 -0.315361 0
M  V30 3688 C 384.397 1.60464 1.10799 0
M  V30 3689 O 383.667 0.863507 1.75842 0
M  V30 3690 H 382.247 0.73831 -0.113611 0
M  V30 3691 H 384.909 1.68878 -0.972952 0
M  V30 3692 H 384.005 3.09754 -0.381931 0
M  V30 3693 N 384.306 0.507319 1.49211 0
M  V30 3694 C 385.554 -0.0348839 2.0207 0
M  V30 3695 C 385.875 -1.36898 1.38866 0
M  V30 3696 O 385.145 -1.88133 0.546151 0
M  V30 3697 H 383.725 -0.0158812 0.746831 0
M  V30 3698 H 386.387 0.665998 1.83168 0
M  V30 3699 H 385.483 -0.159917 3.1169 0
M  V30 3700 N 385.784 -1.5574 0.241426 0
M  V30 3701 C 387.009 -2.0366 -0.392111 0
M  V30 3702 C 387.434 -1.11969 -1.51144 0
M  V30 3703 O 386.792 -0.111594 -1.80956 0
M  V30 3704 C 386.84 -3.49638 -0.882371 0
M  V30 3705 O 385.944 -3.6108 -1.99235 0
M  V30 3706 H 385.285 -0.658379 -0.0862122 0
M  V30 3707 H 387.815 -2.01302 0.365881 0
M  V30 3708 H 387.825 -3.90351 -1.18702 0
M  V30 3709 H 386.5 -4.15852 -0.0632361 0
M  V30 3710 H 385.077 -3.32262 -1.69282 0
M  V30 3711 N 387.262 0.0317525 -1.57568 0
M  V30 3712 C 388.502 0.727979 -1.90997 0
M  V30 3713 C 388.866 1.72664 -0.839708 0
M  V30 3714 O 390.067 2.47092 -1.05825 0
M  V30 3715 C 388.338 1.38239 -3.29583 0
M  V30 3716 S 389.897 2.10814 -3.84841 0
M  V30 3717 H 386.715 0.241226 -0.668828 0
M  V30 3718 H 389.317 -0.0173037 -1.95492 0
M  V30 3719 H 388.021 0.642288 -4.05343 0
M  V30 3720 H 387.552 2.16628 -3.28384 0
M  V30 3721 H 389.567 3.3792 -3.63352 0
M  V30 3722 N 388.74 1.54641 0.303973 0
M  V30 3723 C 389.986 1.74038 1.04109 0
M  V30 3724 C 390.319 0.523051 1.87024 0
M  V30 3725 O 389.594 -0.479874 1.88487 0
M  V30 3726 C 389.877 3.02761 1.94955 0
M  V30 3727 C 389.73 4.34787 1.1524 0
M  V30 3728 C 391.049 3.27336 2.94175 0
M  V30 3729 H 388.168 0.63323 0.377079 0
M  V30 3730 H 390.81 1.87354 0.316001 0
M  V30 3731 H 388.96 2.9154 2.56782 0
M  V30 3732 H 390.632 4.57922 0.557236 0
M  V30 3733 H 388.875 4.31407 0.455053 0
M  V30 3734 H 389.546 5.21116 1.8205 0
M  V30 3735 H 392.022 3.38148 2.42477 0
M  V30 3736 H 390.898 4.18726 3.54908 0
M  V30 3737 H 391.159 2.45491 3.67677 0
M  V30 3738 N 390.218 -0.567019 1.47046 0
M  V30 3739 C 391.166 -1.69593 1.59188 0
M  V30 3740 C 392.16 -1.63046 0.459609 0
M  V30 3741 O 393.366 -1.6835 0.637058 0
M  V30 3742 H 389.741 -0.560993 0.500791 0
M  V30 3743 H 391.712 -1.56488 2.54075 0
M  V30 3744 C 390.461 -3.07964 1.61411 0
M  V30 3745 H 389.784 -3.13679 2.47881 0
M  V30 3746 H 391.224 -3.86671 1.73958 0
M  V30 3747 C 389.683 -3.35123 0.34559 0
M  V30 3748 O 390.213 -3.97812 -0.557521 0
M  V30 3749 N 388.419 -2.89699 0.22864 0
M  V30 3750 H 387.966 -2.38863 0.964479 0
M  V30 3751 H 387.924 -3.08242 -0.619192 0
M  V30 3752 N 391.696 -1.35014 -0.812953 0
M  V30 3753 C 392.629 -1.21761 -1.93001 0
M  V30 3754 C 393.607 -0.10694 -1.62248 0
M  V30 3755 O 394.791 -0.273891 -1.865 0
M  V30 3756 C 391.918 -0.873404 -3.27245 0
M  V30 3757 C 390.964 -1.99523 -3.76952 0
M  V30 3758 S 391.797 -3.61009 -3.95516 0
M  V30 3759 C 392.953 -3.28651 -5.32672 0
M  V30 3760 H 393.186 -2.16315 -2.03948 0
M  V30 3761 H 390.719 -1.20156 -0.969631 0
M  V30 3762 H 392.677 -0.68161 -4.04802 0
M  V30 3763 H 391.338 0.053971 -3.14054 0
M  V30 3764 H 390.531 -1.70838 -4.74163 0
M  V30 3765 H 390.133 -2.14503 -3.06373 0
M  V30 3766 H 392.425 -2.81085 -6.1644 0
M  V30 3767 H 393.368 -4.25039 -5.66346 0
M  V30 3768 H 393.776 -2.6458 -4.98656 0
M  V30 3769 N 393.175 1.03435 -1.18907 0
M  V30 3770 C 394.421 1.77005 -0.989798 0
M  V30 3771 C 394.754 1.88205 0.478816 0
M  V30 3772 O 394.029 1.39481 1.35556 0
M  V30 3773 C 394.312 3.19925 -1.65287 0
M  V30 3774 C 394.165 3.1663 -3.19477 0
M  V30 3775 C 395.484 4.18189 -1.37134 0
M  V30 3776 H 392.603 0.642538 -0.360991 0
M  V30 3777 H 395.245 1.20784 -1.46667 0
M  V30 3778 H 393.395 3.67929 -1.24741 0
M  V30 3779 H 395.067 2.76567 -3.692 0
M  V30 3780 H 393.31 2.54491 -3.51307 0
M  V30 3781 H 393.981 4.1758 -3.61013 0
M  V30 3782 H 396.457 3.78761 -1.72276 0
M  V30 3783 H 395.333 5.16394 -1.86087 0
M  V30 3784 H 395.594 4.41112 -0.295424 0
M  V30 3785 N 394.653 0.992116 1.22453 0
M  V30 3786 C 395.901 0.666215 1.90804 0
M  V30 3787 C 396.222 -0.804152 1.77647 0
M  V30 3788 O 395.492 -1.57629 1.16318 0
M  V30 3789 H 394.072 0.243423 0.706225 0
M  V30 3790 H 396.734 1.25845 1.48825 0
M  V30 3791 H 395.83 0.928069 2.97982 0
M  V30 3792 N 396.131 -1.37776 0.765217 0
M  V30 3793 C 397.356 -2.04651 0.336537 0
M  V30 3794 C 397.781 -1.57337 -1.03086 0
M  V30 3795 O 397.139 -0.730621 -1.65927 0
M  V30 3796 C 397.187 -3.58577 0.381468 0
M  V30 3797 O 396.291 -4.07706 -0.62042 0
M  V30 3798 H 395.632 -0.64756 0.146838 0
M  V30 3799 H 398.162 -1.76221 1.03959 0
M  V30 3800 H 398.172 -4.07314 0.236448 0
M  V30 3801 H 396.847 -3.9237 1.37907 0
M  V30 3802 H 395.424 -3.70306 -0.439056 0
M  V30 3803 N 397.609 -0.515225 -1.4894 0
M  V30 3804 C 398.856 0.024215 -2.02486 0
M  V30 3805 C 399.184 1.35671 -1.39368 0
M  V30 3806 O 398.439 1.88566 -0.523574 0
M  V30 3807 C 398.738 0.210595 -3.56779 0
M  V30 3808 C 398.404 -1.04569 -4.38607 0
M  V30 3809 C 397.066 -1.39002 -4.60686 0
M  V30 3810 C 399.418 -1.88008 -4.86109 0
M  V30 3811 C 396.746 -2.568 -5.27514 0
M  V30 3812 C 399.098 -3.04972 -5.54234 0
M  V30 3813 C 397.762 -3.39768 -5.74555 0
M  V30 3814 H 397.032 0.00886088 -0.740947 0
M  V30 3815 H 399.679 -0.678263 -1.79086 0
M  V30 3816 H 397.984 0.99572 -3.78936 0
M  V30 3817 H 399.681 0.642659 -3.95817 0
M  V30 3818 H 396.271 -0.767497 -4.21672 0
M  V30 3819 H 400.455 -1.62719 -4.68867 0
M  V30 3820 H 395.711 -2.8398 -5.41447 0
M  V30 3821 H 399.885 -3.69943 -5.90013 0
M  V30 3822 H 397.512 -4.31148 -6.26112 0
M  V30 3823 N 399.087 1.5561 -0.249682 0
M  V30 3824 C 400.037 2.18157 0.662673 0
M  V30 3825 C 401.021 1.1383 1.13717 0
M  V30 3826 O 402.213 1.39731 1.08648 0
M  V30 3827 C 399.342 2.88672 1.85805 0
M  V30 3828 C 398.428 4.00258 1.40193 0
M  V30 3829 N 398.819 5.01473 0.660213 0
M  V30 3830 C 397.117 4.12864 1.68698 0
M  V30 3831 C 397.818 5.80155 0.423695 0
M  V30 3832 N 396.794 5.34533 0.988721 0
M  V30 3833 H 400.596 2.93769 0.0878688 0
M  V30 3834 H 398.11 1.62316 -0.0521183 0
M  V30 3835 H 400.107 3.31912 2.5227 0
M  V30 3836 H 398.767 2.14564 2.43705 0
M  V30 3837 H 399.778 5.16971 0.310047 0
M  V30 3838 H 396.455 3.4993 2.27717 0
M  V30 3839 H 397.845 6.71688 -0.168616 0
M  V30 3840 N 400.565 -0.0233959 1.57583 0
M  V30 3841 C 401.805 -0.71784 1.9138 0
M  V30 3842 C 402.169 -1.72216 0.848853 0
M  V30 3843 O 403.37 -2.46527 1.07134 0
M  V30 3844 C 401.641 -1.36489 3.30311 0
M  V30 3845 S 403.2 -2.0877 3.85954 0
M  V30 3846 H 400.018 -0.237676 0.670098 0
M  V30 3847 H 402.62 0.0276709 1.9548 0
M  V30 3848 H 401.324 -0.620782 4.05678 0
M  V30 3849 H 400.855 -2.14883 3.29528 0
M  V30 3850 H 402.87 -3.35988 3.65139 0
M  V30 3851 N 402.043 -1.548 -0.295768 0
M  V30 3852 C 403.459 -1.4613 -0.641722 0
M  V30 3853 C 403.659 -0.656771 -1.90496 0
M  V30 3854 O 402.715 -0.166547 -2.5195 0
M  V30 3855 C 404.028 -2.90141 -0.789852 0
M  V30 3856 C 405.576 -3.00216 -0.885396 0
M  V30 3857 C 406.051 -4.45434 -1.06548 0
M  V30 3858 N 407.542 -4.49166 -1.13156 0
M  V30 3859 C 408.277 -5.58717 -1.28929 0
M  V30 3860 N 407.773 -6.78182 -1.41567 0
M  V30 3861 N 409.566 -5.46415 -1.31859 0
M  V30 3862 H 401.717 -2.05574 0.534147 0
M  V30 3863 H 403.98 -0.931259 0.177372 0
M  V30 3864 H 403.686 -3.51635 0.0675598 0
M  V30 3865 H 403.56 -3.37859 -1.67724 0
M  V30 3866 H 405.947 -2.38833 -1.73329 0
M  V30 3867 H 406.028 -2.55787 0.0261185 0
M  V30 3868 H 405.672 -5.07413 -0.222335 0
M  V30 3869 H 405.602 -4.87499 -1.9913 0
M  V30 3870 H 408.093 -3.631 -1.04721 0
M  V30 3871 H 408.406 -7.57428 -1.53372 0
M  V30 3872 H 406.751 -6.81037 -1.38613 0
M  V30 3873 H 409.942 -4.5203 -1.21601 0
M  V30 3874 H 410.115 -6.31841 -1.43808 0
M  V30 3875 N 403.521 0.559213 -1.47345 0
M  V30 3876 C 404.761 1.32728 -1.55444 0
M  V30 3877 C 405.125 1.90838 -0.210895 0
M  V30 3878 O 406.326 2.68282 -0.166719 0
M  V30 3879 C 404.597 2.4092 -2.63993 0
M  V30 3880 S 406.156 3.2784 -2.91661 0
M  V30 3881 H 402.974 0.451883 -0.548929 0
M  V30 3882 H 405.576 0.640404 -1.84714 0
M  V30 3883 H 404.28 1.9666 -3.60212 0
M  V30 3884 H 403.811 3.14351 -2.36531 0
M  V30 3885 H 405.826 4.40341 -2.28722 0
M  V30 3886 N 404.999 1.35443 0.805782 0
M  V30 3887 C 406.41 1.25768 1.37983 0
M  V30 3888 C 406.761 -0.10958 1.95894 0
M  V30 3889 O 405.886 -1.01056 1.91355 0
M  V30 3890 C 406.481 2.27727 2.5085 0
M  V30 3891 C 405.04 2.2179 3.04115 0
M  V30 3892 C 404.187 2.13393 1.77084 0
M  V30 3893 H 407.138 1.4656 0.608752 0
M  V30 3894 H 407.159 1.90422 3.29424 0
M  V30 3895 H 406.671 3.27227 2.08671 0
M  V30 3896 H 404.772 1.25703 3.50756 0
M  V30 3897 H 404.885 3.13788 3.62042 0
M  V30 3898 H 403.249 1.59384 1.98668 0
M  V30 3899 H 404.032 3.14755 1.37056 0
M  V30 3900 N 406.477 -1.02803 1.19454 0
M  V30 3901 C 407.723 -1.76478 0.999171 0
M  V30 3902 C 408.056 -1.88456 -0.468828 0
M  V30 3903 O 407.331 -1.40198 -1.34814 0
M  V30 3904 C 407.614 -3.19044 1.66981 0
M  V30 3905 C 407.467 -3.14932 3.21151 0
M  V30 3906 C 408.786 -4.17456 1.39349 0
M  V30 3907 H 405.905 -0.640614 0.364393 0
M  V30 3908 H 408.547 -1.20005 1.47305 0
M  V30 3909 H 406.697 -3.67263 1.2669 0
M  V30 3910 H 408.369 -2.74605 3.70661 0
M  V30 3911 H 406.612 -2.52625 3.52652 0
M  V30 3912 H 407.283 -4.1566 3.63223 0
M  V30 3913 H 409.759 -3.77842 1.74283 0
M  V30 3914 H 408.635 -5.154 1.88823 0
M  V30 3915 H 408.896 -4.40949 0.318813 0
M  V30 3916 N 407.956 -0.998596 -1.21925 0
M  V30 3917 C 409.204 -0.676325 -1.90448 0
M  V30 3918 C 409.525 0.794719 -1.78071 0
M  V30 3919 O 408.795 1.5701 -1.17152 0
M  V30 3920 H 407.375 -0.247165 -0.704925 0
M  V30 3921 H 410.037 -1.26633 -1.48156 0
M  V30 3922 H 409.133 -0.943858 -2.97486 0
M  V30 3923 N 409.434 1.37368 -0.772513 0
M  V30 3924 C 410.384 2.27613 -0.132823 0
M  V30 3925 C 411.368 1.46138 0.673247 0
M  V30 3926 O 412.56 1.68686 0.536095 0
M  V30 3927 C 409.689 3.35122 0.744864 0
M  V30 3928 C 408.775 4.24044 -0.0690771 0
M  V30 3929 N 409.166 4.93355 -1.1151 0
M  V30 3930 C 407.464 4.45731 0.154782 0
M  V30 3931 C 408.165 5.59 -1.60917 0
M  V30 3932 N 407.141 5.35737 -0.921222 0
M  V30 3933 H 410.943 2.78675 -0.933681 0
M  V30 3934 H 408.457 1.50494 -0.610342 0
M  V30 3935 H 410.454 3.98683 1.21892 0
M  V30 3936 H 409.114 2.85616 1.54446 0
M  V30 3937 H 410.125 4.95785 -1.49726 0
M  V30 3938 H 406.802 4.07096 0.926224 0
M  V30 3939 H 408.192 6.24395 -2.48153 0
M  V30 3940 N 410.912 0.523116 1.48665 0
M  V30 3941 C 412.328 0.180511 1.58576 0
M  V30 3942 C 412.528 -1.31597 1.52592 0
M  V30 3943 O 411.584 -2.0937 1.4114 0
M  V30 3944 C 412.897 0.776949 2.90489 0
M  V30 3945 C 414.445 0.745058 3.04003 0
M  V30 3946 C 414.92 1.31995 4.38567 0
M  V30 3947 N 416.411 1.28162 4.45117 0
M  V30 3948 C 417.146 1.6964 5.47731 0
M  V30 3949 N 416.642 2.18816 6.57337 0
M  V30 3950 N 418.435 1.6092 5.38573 0
M  V30 3951 H 410.586 1.4958 1.50797 0
M  V30 3952 H 412.849 0.621772 0.715614 0
M  V30 3953 H 412.555 1.82732 3.00503 0
M  V30 3954 H 412.429 0.25007 3.7637 0
M  V30 3955 H 414.816 -0.296532 2.93606 0
M  V30 3956 H 414.897 1.30933 2.1975 0
M  V30 3957 H 414.541 2.36043 4.49718 0
M  V30 3958 H 414.471 0.731418 5.21496 0
M  V30 3959 H 416.962 0.92155 3.66491 0
M  V30 3960 H 417.275 2.48478 7.31764 0
M  V30 3961 H 415.62 2.22805 6.58318 0
M  V30 3962 H 418.811 1.22304 4.5184 0
M  V30 3963 H 418.984 1.93567 6.18414 0
M  V30 3964 N 412.39 -1.55475 0.257931 0
M  V30 3965 C 413.32 -2.24815 -0.630912 0
M  V30 3966 C 414.301 -1.23224 -1.17259 0
M  V30 3967 O 415.486 -1.51904 -1.20991 0
M  V30 3968 C 412.616 -2.95609 -1.82298 0
M  V30 3969 C 411.57 -4.03982 -1.41359 0
M  V30 3970 C 410.896 -4.6226 -2.68738 0
M  V30 3971 C 412.196 -5.19109 -0.57648 0
M  V30 3972 H 413.89 -2.99354 -0.0526878 0
M  V30 3973 H 411.436 -1.4398 -0.023901 0
M  V30 3974 H 413.389 -3.42822 -2.45054 0
M  V30 3975 H 412.113 -2.18577 -2.42676 0
M  V30 3976 H 410.772 -3.57555 -0.809324 0
M  V30 3977 H 410.42 -3.81915 -3.27338 0
M  V30 3978 H 410.12 -5.35424 -2.42065 0
M  V30 3979 H 411.644 -5.12212 -3.32372 0
M  V30 3980 H 413.058 -5.62479 -1.10861 0
M  V30 3981 H 411.455 -5.98729 -0.405351 0
M  V30 3982 H 412.525 -4.83174 0.408776 0
M  V30 3983 N 413.868 0.0150385 -1.57593 0
M  V30 3984 C 415.093 0.718067 -1.94573 0
M  V30 3985 C 415.518 1.6734 -0.859005 0
M  V30 3986 O 414.876 1.80362 0.184147 0
M  V30 3987 C 414.924 1.43918 -3.30636 0
M  V30 3988 O 414.028 2.55299 -3.23876 0
M  V30 3989 H 413.369 0.192125 -0.635597 0
M  V30 3990 H 415.899 -0.0336708 -2.04572 0
M  V30 3991 H 415.909 1.80598 -3.65853 0
M  V30 3992 H 414.584 0.738619 -4.09289 0
M  V30 3993 H 413.161 2.21058 -3.00312 0
M  V30 3994 N 415.346 1.54954 0.287554 0
M  V30 3995 C 416.623 1.65569 1.04146 0
M  V30 3996 C 417.003 0.512672 2.0478 0
M  V30 3997 O 416.351 -0.489038 2.23205 0
M  V30 3998 C 416.561 3.04163 1.71131 0
M  V30 3999 C 417.909 3.61429 2.22832 0
M  V30 4000 O 418.933 3.06702 1.81141 0
M  V30 4001 O 417.792 4.57281 2.9926 0
M  V30 4002 H 414.886 0.671881 0.482188 0
M  V30 4003 H 417.432 1.67297 0.28457 0
M  V30 4004 H 416.204 3.78796 0.981303 0
M  V30 4005 H 415.827 3.06271 2.53543 0
M  V30 4006 N 416.824 -0.551391 1.4764 0
M  V30 4007 C 418.049 -1.33837 1.58437 0
M  V30 4008 C 418.474 -1.866 0.237063 0
M  V30 4009 O 417.832 -1.6328 -0.787994 0
M  V30 4010 C 417.88 -2.48014 2.61766 0
M  V30 4011 O 416.984 -3.50419 2.1744 0
M  V30 4012 H 416.325 -0.397299 0.532024 0
M  V30 4013 H 418.855 -0.665759 1.93465 0
M  V30 4014 H 418.865 -2.94503 2.82369 0
M  V30 4015 H 417.54 -2.08969 3.5959 0
M  V30 4016 H 416.117 -3.10196 2.06961 0
M  V30 4017 N 418.302 -1.35869 -0.798587 0
M  V30 4018 C 419.527 -1.32883 -1.59238 0
M  V30 4019 C 419.952 0.0894587 -1.87887 0
M  V30 4020 O 419.31 1.05869 -1.47178 0
M  V30 4021 C 419.358 -2.14892 -2.89575 0
M  V30 4022 O 418.462 -1.53512 -3.82763 0
M  V30 4023 H 417.803 -0.455236 -0.48338 0
M  V30 4024 H 420.333 -1.79024 -0.990539 0
M  V30 4025 H 420.343 -2.27139 -3.38928 0
M  V30 4026 H 419.018 -3.17998 -2.68049 0
M  V30 4027 H 417.595 -1.50153 -3.41334 0
M  V30 4028 N 419.78 1.02168 -1.19998 0
M  V30 4029 C 420.743 2.08765 -0.94604 0
M  V30 4030 C 421.743 1.60618 0.0763846 0
M  V30 4031 O 422.933 1.73472 -0.159135 0
M  V30 4032 C 420.065 3.38262 -0.423255 0
M  V30 4033 H 421.258 2.32726 -1.89153 0
M  V30 4034 H 418.811 1.1889 -1.01464 0
M  V30 4035 H 419.546 3.19974 0.527938 0
M  V30 4036 H 419.331 3.74532 -1.16053 0
M  V30 4037 H 420.821 4.16759 -0.264911 0
M  V30 4038 N 421.258 1.00505 1.21394 0
M  V30 4039 C 422.221 0.570459 2.21987 0
M  V30 4040 C 423.221 -0.353211 1.56873 0
M  V30 4041 O 424.411 -0.14349 1.73608 0
M  V30 4042 C 421.543 -0.168555 3.40483 0
M  V30 4043 H 422.736 1.46021 2.6195 0
M  V30 4044 H 420.289 0.793565 1.34656 0
M  V30 4045 H 421.024 -1.07374 3.06009 0
M  V30 4046 H 420.809 0.494823 3.88965 0
M  V30 4047 H 422.299 -0.460362 4.15055 0
M  V30 4048 N 422.737 -1.36956 0.779787 0
M  V30 4049 C 423.977 -2.01328 0.353043 0
M  V30 4050 C 424.341 -1.60558 -1.05286 0
M  V30 4051 O 425.542 -2.1745 -1.58016 0
M  V30 4052 C 423.813 -3.53874 0.500822 0
M  V30 4053 S 425.372 -4.38506 0.16053 0
M  V30 4054 H 422.19 -0.69799 0.13539 0
M  V30 4055 H 424.792 -1.67016 1.01617 0
M  V30 4056 H 423.496 -3.81034 1.52451 0
M  V30 4057 H 423.027 -3.92994 -0.178574 0
M  V30 4058 H 425.042 -4.85153 -1.04121 0
M  V30 4059 N 424.215 -0.530993 -1.48385 0
M  V30 4060 C 425.125 0.23503 -2.3342 0
M  V30 4061 C 426.141 0.93801 -1.46552 0
M  V30 4062 O 427.317 0.912745 -1.7953 0
M  V30 4063 C 424.382 1.26778 -3.22689 0
M  V30 4064 C 423.443 0.575038 -4.25431 0
M  V30 4065 C 422.676 1.55858 -5.10435 0
M  V30 4066 O 422.899 2.79129 -4.97437 0
M  V30 4067 O 421.833 1.09742 -5.91811 0
M  V30 4068 H 425.659 -0.461794 -3.00169 0
M  V30 4069 H 423.244 -0.291903 -1.46521 0
M  V30 4070 H 425.126 1.86457 -3.77904 0
M  V30 4071 H 423.801 1.94699 -2.586 0
M  V30 4072 H 422.708 -0.0622782 -3.74048 0
M  V30 4073 H 424.041 -0.062253 -4.92161 0
M  V30 4074 N 425.693 1.55336 -0.266172 0
M  V30 4075 C 426.97 1.91372 0.404486 0
M  V30 4076 C 427.35 1.18935 1.74407 0
M  V30 4077 O 426.698 0.3132 2.26343 0
M  V30 4078 C 426.908 3.44581 0.553593 0
M  V30 4079 C 428.256 4.16196 0.840618 0
M  V30 4080 O 429.28 3.50426 0.638739 0
M  V30 4081 O 428.139 5.32567 1.22618 0
M  V30 4082 H 425.233 0.797194 0.220025 0
M  V30 4083 H 427.779 1.66813 -0.311664 0
M  V30 4084 H 426.551 3.89357 -0.389498 0
M  V30 4085 H 426.174 3.75065 1.31955 0
M  V30 4086 N 427.171 -0.0066808 1.57599 0
M  V30 4087 C 428.401 -0.703066 1.94269 0
M  V30 4088 C 428.809 -1.68206 0.866222 0
M  V30 4089 O 428.152 -1.82966 -0.164087 0
M  V30 4090 C 428.214 -1.49616 3.26887 0
M  V30 4091 C 427.878 -0.679494 4.5192 0
M  V30 4092 C 428.875 0.0299508 5.19891 0
M  V30 4093 C 426.56 -0.627433 4.98366 0
M  V30 4094 C 428.554 0.780514 6.32603 0
M  V30 4095 C 426.241 0.126861 6.10968 0
M  V30 4096 C 427.239 0.829574 6.77943 0
M  V30 4097 O 426.927 1.57157 7.88389 0
M  V30 4098 H 426.659 -0.201217 0.645359 0
M  V30 4099 H 429.213 0.0385326 2.05364 0
M  V30 4100 H 427.443 -2.28209 3.12182 0
M  V30 4101 H 429.132 -2.07726 3.48719 0
M  V30 4102 H 429.898 -0.00115963 4.85 0
M  V30 4103 H 425.777 -1.16392 4.46065 0
M  V30 4104 H 429.321 1.32954 6.84813 0
M  V30 4105 H 425.218 0.159815 6.45302 0
M  V30 4106 H 425.986 1.48758 8.04868 0
M  V30 4107 N 428.649 -1.55105 -0.279332 0
M  V30 4108 C 430.065 -1.46803 -0.626187 0
M  V30 4109 C 430.265 -0.676939 -1.89789 0
M  V30 4110 O 429.321 -0.19326 -2.51759 0
M  V30 4111 C 430.634 -2.90962 -0.759034 0
M  V30 4112 C 432.182 -3.01138 -0.853504 0
M  V30 4113 C 432.657 -4.46539 -1.01818 0
M  V30 4114 N 434.148 -4.50341 -1.08386 0
M  V30 4115 C 434.883 -5.60053 -1.22996 0
M  V30 4116 N 434.379 -6.79645 -1.34366 0
M  V30 4117 N 436.172 -5.47783 -1.26056 0
M  V30 4118 H 428.323 -2.04996 0.555921 0
M  V30 4119 H 430.586 -0.929325 0.187239 0
M  V30 4120 H 430.292 -3.51544 0.104852 0
M  V30 4121 H 430.166 -3.39619 -1.64131 0
M  V30 4122 H 432.553 -2.40658 -1.70786 0
M  V30 4123 H 432.634 -2.55745 0.0532466 0
M  V30 4124 H 432.278 -5.0762 -0.168504 0
M  V30 4125 H 432.208 -4.89583 -1.93948 0
M  V30 4126 H 434.699 -3.64191 -1.00864 0
M  V30 4127 H 435.012 -7.59012 -1.4533 0
M  V30 4128 H 433.357 -6.82469 -1.31382 0
M  V30 4129 H 436.548 -4.53294 -1.168 0
M  V30 4130 H 436.721 -6.33331 -1.37098 0
M  V30 4131 N 430.127 0.543554 -1.4793 0
M  V30 4132 C 431.09 1.63156 -1.60975 0
M  V30 4133 C 432.09 1.53346 -0.483899 0
M  V30 4134 O 433.28 1.5726 -0.749339 0
M  V30 4135 C 430.412 3.02743 -1.56716 0
M  V30 4136 H 431.605 1.52934 -2.57975 0
M  V30 4137 H 429.158 0.764557 -1.36324 0
M  V30 4138 H 429.893 3.18484 -0.611418 0
M  V30 4139 H 429.678 3.11272 -2.38438 0
M  V30 4140 H 431.168 3.81871 -1.6901 0
M  V30 4141 N 431.605 1.3629 0.791371 0
M  V30 4142 C 432.853 1.30154 1.5461 0
M  V30 4143 C 433.174 -0.119409 1.94634 0
M  V30 4144 O 432.444 -1.05924 1.64794 0
M  V30 4145 H 431.024 0.478784 0.573389 0
M  V30 4146 H 433.686 1.70565 0.94306 0
M  V30 4147 H 432.782 1.92762 2.45457 0
M  V30 4148 N 433.083 -1.0153 1.20538 0
M  V30 4149 C 434.046 -2.0826 0.957098 0
M  V30 4150 C 435.046 -1.60657 -0.0678655 0
M  V30 4151 O 436.236 -1.73385 0.168332 0
M  V30 4152 C 433.368 -3.38033 0.441188 0
M  V30 4153 H 434.561 -2.31719 1.90384 0
M  V30 4154 H 432.114 -1.1835 1.02093 0
M  V30 4155 H 432.849 -3.20249 -0.510961 0
M  V30 4156 H 432.634 -3.73911 1.18038 0
M  V30 4157 H 434.124 -4.16613 0.287009 0
M  V30 4158 N 434.561 -1.01147 -1.20859 0
M  V30 4159 C 435.801 -0.706331 -1.91808 0
M  V30 4160 C 436.165 0.749736 -1.76757 0
M  V30 4161 O 437.366 1.16716 -2.42138 0
M  V30 4162 C 435.637 -1.12371 -3.39275 0
M  V30 4163 S 437.196 -0.939764 -4.28619 0
M  V30 4164 H 434.014 -0.257665 -0.662669 0
M  V30 4165 H 436.616 -1.29766 -1.46223 0
M  V30 4166 H 435.32 -2.17943 -3.47749 0
M  V30 4167 H 434.851 -0.524952 -3.89882 0
M  V30 4168 H 436.866 0.159556 -4.95943 0
M  V30 4169 N 436.039 1.36541 -0.78704 0
M  V30 4170 C 437.286 1.99304 -0.358341 0
M  V30 4171 C 437.614 1.62467 1.06933 0
M  V30 4172 O 436.869 0.870019 1.75297 0
M  V30 4173 C 437.168 3.54343 -0.466485 0
M  V30 4174 C 436.834 4.10993 -1.85461 0
M  V30 4175 C 435.496 4.26177 -2.23443 0
M  V30 4176 C 437.848 4.41895 -2.76366 0
M  V30 4177 C 435.176 4.69573 -3.51736 0
M  V30 4178 C 437.528 4.86722 -4.04084 0
M  V30 4179 C 436.192 5.00112 -4.42091 0
M  V30 4180 H 435.462 0.729306 -0.131126 0
M  V30 4181 H 438.109 1.63068 -1.00404 0
M  V30 4182 H 436.414 3.90918 0.262719 0
M  V30 4183 H 438.111 4.00833 -0.115854 0
M  V30 4184 H 434.701 3.99612 -1.54946 0
M  V30 4185 H 438.885 4.29735 -2.48277 0
M  V30 4186 H 434.141 4.78127 -3.81057 0
M  V30 4187 H 438.315 5.09598 -4.7464 0
M  V30 4188 H 435.942 5.33498 -5.41557 0
M  V30 4189 N 437.518 0.538854 1.48102 0
M  V30 4190 C 438.743 0.0102694 2.07397 0
M  V30 4191 C 439.168 -1.26562 1.39153 0
M  V30 4192 O 438.526 -1.75357 0.460387 0
M  V30 4193 C 438.574 -0.187602 3.60112 0
M  V30 4194 O 437.678 -1.25432 3.92862 0
M  V30 4195 H 437.019 0.0430975 0.6626 0
M  V30 4196 H 439.549 0.749301 1.90385 0
M  V30 4197 H 439.559 -0.407517 4.0596 0
M  V30 4198 H 438.234 0.744386 4.09184 0
M  V30 4199 H 436.811 -1.01636 3.58782 0
M  V30 4200 N 438.996 -1.55193 0.274407 0
M  V30 4201 C 440.242 -1.99877 -0.343086 0
M  V30 4202 C 440.575 -1.16256 -1.55558 0
M  V30 4203 O 439.85 -0.232462 -1.93106 0
M  V30 4204 C 440.133 -3.52706 -0.725965 0
M  V30 4205 C 439.986 -4.47081 0.493818 0
M  V30 4206 C 441.305 -4.11422 -1.56268 0
M  V30 4207 H 438.424 -0.726625 -0.123229 0
M  V30 4208 H 441.066 -1.86136 0.38121 0
M  V30 4209 H 439.216 -3.64546 -1.34307 0
M  V30 4210 H 440.888 -4.47186 1.13237 0
M  V30 4211 H 439.131 -4.1877 1.13201 0
M  V30 4212 H 439.802 -5.51699 0.18217 0
M  V30 4213 H 442.278 -4.02855 -1.04151 0
M  V30 4214 H 441.154 -5.18568 -1.79939 0
M  V30 4215 H 441.415 -3.61607 -2.54348 0
M  V30 4216 N 440.474 -0.00167713 -1.576 0
M  V30 4217 C 441.404 0.988091 -2.11563 0
M  V30 4218 C 442.385 1.35736 -1.02517 0
M  V30 4219 O 443.57 1.44082 -1.30208 0
M  V30 4220 C 440.7 2.27941 -2.62031 0
M  V30 4221 C 439.654 2.0517 -3.75619 0
M  V30 4222 C 438.98 3.4033 -4.12407 0
M  V30 4223 C 440.28 1.41294 -5.02825 0
M  V30 4224 H 441.974 0.538771 -2.94513 0
M  V30 4225 H 439.52 0.257712 -1.41675 0
M  V30 4226 H 441.473 2.97539 -2.9841 0
M  V30 4227 H 440.197 2.74989 -1.76205 0
M  V30 4228 H 438.856 1.37998 -3.39635 0
M  V30 4229 H 438.504 3.85085 -3.23603 0
M  V30 4230 H 438.204 3.25909 -4.88935 0
M  V30 4231 H 439.728 4.1124 -4.51347 0
M  V30 4232 H 441.142 2.00851 -5.36965 0
M  V30 4233 H 439.539 1.37356 -5.84169 0
M  V30 4234 H 440.609 0.382362 -4.8339 0
M  V30 4235 N 441.952 1.55251 0.271103 0
M  V30 4236 C 443.199 1.75946 1.00245 0
M  V30 4237 C 443.527 0.561611 1.86215 0
M  V30 4238 O 442.782 -0.455832 1.90317 0
M  V30 4239 C 443.081 3.01879 1.91321 0
M  V30 4240 C 442.747 4.34337 1.21086 0
M  V30 4241 C 441.409 4.70338 1.01666 0
M  V30 4242 C 443.761 5.16325 0.71119 0
M  V30 4243 C 441.089 5.8588 0.310099 0
M  V30 4244 C 443.441 6.32597 0.0182157 0
M  V30 4245 C 442.105 6.67236 -0.18768 0
M  V30 4246 H 441.375 0.643833 0.366824 0
M  V30 4247 H 444.022 1.89521 0.27458 0
M  V30 4248 H 442.327 2.83212 2.70736 0
M  V30 4249 H 444.024 3.15088 2.48033 0
M  V30 4250 H 440.614 4.06043 1.37213 0
M  V30 4251 H 444.798 4.88987 0.848844 0
M  V30 4252 H 440.054 6.1124 0.139873 0
M  V30 4253 H 444.228 6.9538 -0.376711 0
M  V30 4254 H 441.855 7.56618 -0.73715 0
M  V30 4255 N 443.43 -0.535701 1.48216 0
M  V30 4256 C 444.678 -1.28928 1.55634 0
M  V30 4257 C 444.999 -1.93645 0.229514 0
M  V30 4258 O 444.269 -1.81038 -0.74846 0
M  V30 4259 H 442.849 -0.47884 0.573342 0
M  V30 4260 H 445.511 -0.623853 1.84646 0
M  V30 4261 H 444.607 -2.07157 2.33436 0
M  V30 4262 N 444.908 -1.36708 -0.784132 0
M  V30 4263 C 446.156 -1.30972 -1.53918 0
M  V30 4264 C 446.477 0.109086 -1.94695 0
M  V30 4265 O 445.747 1.05048 -1.65353 0
M  V30 4266 H 444.327 -0.481819 -0.570841 0
M  V30 4267 H 446.989 -1.71063 -0.934002 0
M  V30 4268 H 446.085 -1.94061 -2.44431 0
M  V30 4269 N 446.386 1.0089 -1.21074 0
M  V30 4270 C 447.802 1.2695 -0.967257 0
M  V30 4271 C 448.002 1.9846 0.348673 0
M  V30 4272 O 447.058 2.28459 1.0753 0
M  V30 4273 C 448.371 2.09697 -2.15517 0
M  V30 4274 C 449.919 2.22937 -2.197 0
M  V30 4275 C 450.394 3.09064 -3.37999 0
M  V30 4276 N 451.885 3.16653 -3.38061 0
M  V30 4277 C 452.62 3.8354 -4.26245 0
M  V30 4278 N 452.116 4.52488 -5.2462 0
M  V30 4279 N 453.909 3.80141 -4.14064 0
M  V30 4280 H 446.06 0.529005 -2.05707 0
M  V30 4281 H 448.323 0.296148 -0.900556 0
M  V30 4282 H 448.029 1.64497 -3.10859 0
M  V30 4283 H 447.903 3.10444 -2.14253 0
M  V30 4284 H 450.29 2.67357 -1.24916 0
M  V30 4285 H 450.371 1.21673 -2.2501 0
M  V30 4286 H 450.015 2.65347 -4.33074 0
M  V30 4287 H 449.945 4.10433 -3.29928 0
M  V30 4288 H 452.436 2.67566 -2.66865 0
M  V30 4289 H 452.749 5.01219 -5.88217 0
M  V30 4290 H 451.094 4.51288 -5.28549 0
M  V30 4291 H 454.285 3.25427 -3.36474 0
M  V30 4292 H 454.458 4.31992 -4.82998 0
M  V30 4293 N 447.864 1.01787 1.20321 0
M  V30 4294 C 449.104 0.716493 1.91431 0
M  V30 4295 C 449.468 -0.740352 1.77152 0
M  V30 4296 O 450.669 -1.1543 2.42754 0
M  V30 4297 C 448.94 1.14169 3.38674 0
M  V30 4298 S 450.499 0.962482 4.28114 0
M  V30 4299 H 447.317 0.261175 0.661293 0
M  V30 4300 H 449.919 1.30539 1.45533 0
M  V30 4301 H 448.623 2.19784 3.46588 0
M  V30 4302 H 448.154 0.545621 3.89598 0
M  V30 4303 H 450.169 -0.133253 4.96021 0
M  V30 4304 N 449.342 -1.36122 0.79427 0
M  V30 4305 C 450.305 -2.28309 0.201889 0
M  V30 4306 C 451.305 -1.49041 -0.603603 0
M  V30 4307 O 452.495 -1.68964 -0.423888 0
M  V30 4308 C 449.627 -3.3321 -0.719978 0
M  V30 4309 H 450.82 -2.82208 1.01481 0
M  V30 4310 H 448.373 -1.45768 0.564037 0
M  V30 4311 H 449.108 -2.84475 -1.55706 0
M  V30 4312 H 448.893 -3.91835 -0.144266 0
M  V30 4313 H 450.383 -4.02044 -1.12916 0
M  V30 4314 N 450.82 -0.546701 -1.47814 0
M  V30 4315 C 452.068 -0.0187037 -2.02091 0
M  V30 4316 C 452.389 1.33168 -1.42447 0
M  V30 4317 O 451.659 1.86619 -0.595839 0
M  V30 4318 H 450.239 -0.00392531 -0.74699 0
M  V30 4319 H 452.901 -0.714327 -1.81338 0
M  V30 4320 H 451.997 0.0772219 -3.12004 0
M  V30 4321 N 452.299 1.55045 -0.282633 0
M  V30 4322 C 453.576 1.9179 0.384166 0
M  V30 4323 C 453.956 1.20778 1.73136 0
M  V30 4324 O 453.304 0.33719 2.25998 0
M  V30 4325 C 453.514 3.45149 0.517014 0
M  V30 4326 C 454.862 4.17064 0.796427 0
M  V30 4327 O 455.886 3.51084 0.601535 0
M  V30 4328 O 454.745 5.33837 1.16962 0
M  V30 4329 H 451.839 0.799483 0.211558 0
M  V30 4330 H 454.385 1.66474 -0.32934 0
M  V30 4331 H 453.157 3.88922 -0.430772 0
M  V30 4332 H 452.78 3.76443 1.2797 0
M  V30 4333 N 453.777 0.010035 1.57597 0
M  V30 4334 C 454.707 -0.976857 2.12084 0
M  V30 4335 C 455.688 -1.35191 1.03235 0
M  V30 4336 O 456.873 -1.43389 1.3097 0
M  V30 4337 C 454.003 -2.26548 2.63236 0
M  V30 4338 C 452.957 -2.03175 3.76701 0
M  V30 4339 C 452.283 -3.38138 4.14206 0
M  V30 4340 C 453.583 -1.38625 5.03568 0
M  V30 4341 H 455.277 -0.523145 2.94794 0
M  V30 4342 H 452.823 -0.250195 1.4181 0
M  V30 4343 H 454.776 -2.95952 2.99984 0
M  V30 4344 H 453.5 -2.74051 1.77661 0
M  V30 4345 H 452.159 -1.36195 3.40362 0
M  V30 4346 H 451.807 -3.83363 3.25641 0
M  V30 4347 H 451.507 -3.23312 4.90656 0
M  V30 4348 H 453.031 -4.08841 4.53521 0
M  V30 4349 H 454.445 -1.98 5.38023 0
M  V30 4350 H 452.842 -1.34256 5.84889 0
M  V30 4351 H 453.912 -0.356722 4.83586 0
M  V30 4352 N 455.255 -1.55392 -0.262866 0
M  V30 4353 C 456.218 -1.88181 -1.30846 0
M  V30 4354 C 457.218 -0.757079 -1.41862 0
M  V30 4355 O 458.408 -1.02519 -1.40838 0
M  V30 4356 C 455.54 -2.09609 -2.68844 0
M  V30 4357 H 456.733 -2.81659 -1.02997 0
M  V30 4358 H 454.286 -1.48039 -0.501414 0
M  V30 4359 H 455.021 -1.18547 -3.01856 0
M  V30 4360 H 454.806 -2.91508 -2.62231 0
M  V30 4361 H 456.296 -2.36215 -3.44372 0
M  V30 4362 N 456.733 0.527833 -1.48498 0
M  V30 4363 C 457.981 1.28101 -1.56316 0
M  V30 4364 C 458.302 1.9352 -0.239781 0
M  V30 4365 O 457.572 1.81433 0.738849 0
M  V30 4366 H 456.152 0.475793 -0.575873 0
M  V30 4367 H 458.814 0.614052 -1.84974 0
M  V30 4368 H 457.91 2.05916 -2.34532 0
M  V30 4369 N 458.211 1.37122 0.776871 0
M  V30 4370 C 459.161 1.28989 1.88005 0
M  V30 4371 C 460.145 0.178765 1.59904 0
M  V30 4372 O 461.337 0.412705 1.72121 0
M  V30 4373 C 458.466 1.09402 3.25402 0
M  V30 4374 C 457.552 2.25036 3.59471 0
M  V30 4375 N 457.943 3.50407 3.64759 0
M  V30 4376 C 456.241 2.17078 3.89607 0
M  V30 4377 C 456.942 4.26628 3.95428 0
M  V30 4378 N 455.918 3.55709 4.11062 0
M  V30 4379 H 459.72 2.2394 1.90337 0
M  V30 4380 H 457.234 1.30021 0.973052 0
M  V30 4381 H 459.231 1.01661 4.04315 0
M  V30 4382 H 457.891 0.153632 3.24336 0
M  V30 4383 H 458.902 3.8438 3.47091 0
M  V30 4384 H 455.579 1.31067 3.96393 0
M  V30 4385 H 456.969 5.35107 4.06338 0
M  V30 4386 N 459.689 -1.00246 1.21608 0
M  V30 4387 C 460.919 -1.77373 1.05935 0
M  V30 4388 C 461.327 -1.85059 -0.393686 0
M  V30 4389 O 460.67 -1.31289 -1.28487 0
M  V30 4390 C 460.732 -3.22705 1.58435 0
M  V30 4391 C 460.396 -3.38591 3.06929 0
M  V30 4392 C 461.393 -3.2667 4.04454 0
M  V30 4393 C 459.078 -3.6395 3.46187 0
M  V30 4394 C 461.072 -3.39877 5.39224 0
M  V30 4395 C 458.759 -3.768 4.81108 0
M  V30 4396 C 459.757 -3.6477 5.77436 0
M  V30 4397 O 459.445 -3.77206 7.09909 0
M  V30 4398 H 459.177 -0.56419 0.372378 0
M  V30 4399 H 461.731 -1.26971 1.61454 0
M  V30 4400 H 459.961 -3.74255 0.973147 0
M  V30 4401 H 461.65 -3.81515 1.38568 0
M  V30 4402 H 462.416 -3.06999 3.75468 0
M  V30 4403 H 458.295 -3.72395 2.71741 0
M  V30 4404 H 461.839 -3.30404 6.14393 0
M  V30 4405 H 457.736 -3.95975 5.09779 0
M  V30 4406 H 458.504 -3.94138 7.17355 0
M  V30 4407 N 461.167 -1.02423 -1.1978 0
M  V30 4408 C 462.395 -0.737456 -1.93311 0
M  V30 4409 C 462.81 0.703023 -1.75223 0
M  V30 4410 O 462.167 1.47761 -1.07112 0
M  V30 4411 C 462.218 -1.0733 -3.45199 0
M  V30 4412 O 461.939 -2.4572 -3.62702 0
M  V30 4413 C 463.44 -0.80866 -4.35862 0
M  V30 4414 H 460.66 -0.2702 -0.614193 0
M  V30 4415 H 463.204 -1.36747 -1.52054 0
M  V30 4416 H 461.359 -0.488545 -3.84307 0
M  V30 4417 H 461.773 -2.58081 -4.56612 0
M  V30 4418 H 463.247 -1.09365 -5.41057 0
M  V30 4419 H 463.724 0.257025 -4.38447 0
M  V30 4420 H 464.33 -1.37592 -4.02428 0
M  V30 4421 N 462.645 1.35699 -0.801477 0
M  V30 4422 C 464.061 1.52065 -0.484596 0
M  V30 4423 C 464.261 1.75215 0.995084 0
M  V30 4424 O 463.317 1.79061 1.78026 0
M  V30 4425 C 464.63 2.69908 -1.32552 0
M  V30 4426 C 466.178 2.83784 -1.32044 0
M  V30 4427 C 466.653 4.04646 -2.14536 0
M  V30 4428 N 468.144 4.11814 -2.12046 0
M  V30 4429 C 468.879 5.04437 -2.72636 0
M  V30 4430 N 468.375 6.02426 -3.42133 0
M  V30 4431 N 470.168 4.97144 -2.62305 0
M  V30 4432 H 462.319 1.18928 -1.75983 0
M  V30 4433 H 464.582 0.581455 -0.748741 0
M  V30 4434 H 464.288 2.59363 -2.37537 0
M  V30 4435 H 464.162 3.64376 -0.975181 0
M  V30 4436 H 466.549 2.93783 -0.27846 0
M  V30 4437 H 466.63 1.90188 -1.71062 0
M  V30 4438 H 466.274 3.95407 -3.18772 0
M  V30 4439 H 466.204 4.97413 -1.72882 0
M  V30 4440 H 468.695 3.41664 -1.61476 0
M  V30 4441 H 469.008 6.69688 -3.85666 0
M  V30 4442 H 467.353 6.02615 -3.46237 0
M  V30 4443 H 470.544 4.19546 -2.07603 0
M  V30 4444 H 470.717 5.69138 -3.09815 0
M  V30 4445 N 464.123 0.554532 1.47522 0
M  V30 4446 C 465.539 0.214107 1.58157 0
M  V30 4447 C 465.739 -1.28331 1.55349 0
M  V30 4448 O 464.795 -2.06329 1.45549 0
M  V30 4449 C 466.108 0.838391 2.88776 0
M  V30 4450 C 467.656 0.809374 3.02354 0
M  V30 4451 C 468.131 1.41268 4.35669 0
M  V30 4452 N 469.622 1.37574 4.42298 0
M  V30 4453 C 470.357 1.8122 5.4401 0
M  V30 4454 N 469.853 2.3271 6.52547 0
M  V30 4455 N 471.646 1.72307 5.35039 0
M  V30 4456 H 463.797 1.52744 1.4759 0
M  V30 4457 H 466.06 0.636812 0.702264 0
M  V30 4458 H 465.766 1.89065 2.96559 0
M  V30 4459 H 465.64 0.329847 3.75755 0
M  V30 4460 H 468.027 -0.234187 2.94169 0
M  V30 4461 H 468.108 1.35565 2.16924 0
M  V30 4462 H 467.752 2.45529 4.4461 0
M  V30 4463 H 467.682 0.841871 5.19827 0
M  V30 4464 H 470.173 0.999081 3.64454 0
M  V30 4465 H 470.486 2.63944 7.26329 0
M  V30 4466 H 468.831 2.36719 6.53444 0
M  V30 4467 H 472.022 1.3186 4.49144 0
M  V30 4468 H 472.195 2.06641 6.14169 0
M  V30 4469 N 465.601 -1.54893 0.290851 0
M  V30 4470 C 466.533 -2.20564 -0.623236 0
M  V30 4471 C 467.546 -1.19519 -1.1054 0
M  V30 4472 O 468.735 -1.46165 -1.02459 0
M  V30 4473 C 465.835 -2.83033 -1.86401 0
M  V30 4474 C 465.008 -4.09916 -1.52604 0
M  V30 4475 C 464.067 -4.56284 -2.62091 0
M  V30 4476 O 463.093 -5.2171 -2.27612 0
M  V30 4477 N 464.295 -4.27746 -3.92446 0
M  V30 4478 H 467.06 -2.99638 -0.0610915 0
M  V30 4479 H 464.621 -1.61508 0.112615 0
M  V30 4480 H 466.613 -3.1099 -2.58973 0
M  V30 4481 H 465.183 -2.0786 -2.33481 0
M  V30 4482 H 464.403 -3.89078 -0.633424 0
M  V30 4483 H 465.691 -4.92554 -1.27547 0
M  V30 4484 H 465.089 -3.7531 -4.23272 0
M  V30 4485 H 463.646 -4.60437 -4.61347 0
M  V30 4486 N 467.08 -0.0183926 -1.57589 0
M  V30 4487 C 468.32 0.666846 -1.93216 0
M  V30 4488 C 468.684 1.69905 -0.894215 0
M  V30 4489 O 469.885 2.436 -1.13633 0
M  V30 4490 C 468.156 1.27684 -3.33814 0
M  V30 4491 S 469.715 1.98464 -3.91353 0
M  V30 4492 H 466.533 0.219826 -0.676164 0
M  V30 4493 H 469.135 -0.0794893 -1.95338 0
M  V30 4494 H 467.839 0.513006 -4.07181 0
M  V30 4495 H 467.37 2.06071 -3.3511 0
M  V30 4496 H 469.385 3.26189 -3.73918 0
M  V30 4497 N 468.558 1.5553 0.254621 0
M  V30 4498 C 469.798 1.7876 0.991179 0
M  V30 4499 C 470.162 0.586669 1.82817 0
M  V30 4500 O 471.363 0.697585 2.5959 0
M  V30 4501 C 469.634 3.06679 1.83529 0
M  V30 4502 S 471.193 3.511 2.632 0
M  V30 4503 H 468.011 0.627916 0.333531 0
M  V30 4504 H 470.613 1.93766 0.259778 0
M  V30 4505 H 469.317 3.92158 1.20996 0
M  V30 4506 H 468.848 2.94388 2.60958 0
M  V30 4507 H 470.863 3.11823 3.8598 0
M  V30 4508 N 470.036 -0.519951 1.48776 0
M  V30 4509 C 471.276 -1.2856 1.58908 0
M  V30 4510 C 471.64 -1.90212 0.261418 0
M  V30 4511 O 472.841 -2.67746 0.237791 0
M  V30 4512 C 471.112 -2.33836 2.70288 0
M  V30 4513 S 472.671 -3.19992 3.0025 0
M  V30 4514 H 469.489 -0.43717 0.560717 0
M  V30 4515 H 472.091 -0.591205 1.86346 0
M  V30 4516 H 470.795 -1.87041 3.653 0
M  V30 4517 H 470.326 -3.07969 2.44783 0
M  V30 4518 H 472.341 -4.34122 2.40317 0
M  V30 4519 N 471.514 -1.37532 -0.769588 0
M  V30 4520 C 472.791 -1.23392 -1.51768 0
M  V30 4521 C 473.171 0.17157 -2.10402 0
M  V30 4522 O 472.519 1.17943 -1.95708 0
M  V30 4523 C 472.729 -2.33163 -2.59685 0
M  V30 4524 C 474.077 -2.70809 -3.27028 0
M  V30 4525 O 475.101 -2.32355 -2.69981 0
M  V30 4526 O 473.96 -3.37066 -4.30173 0
M  V30 4527 H 471.054 -0.481617 -0.67229 0
M  V30 4528 H 473.6 -1.49318 -0.806368 0
M  V30 4529 H 472.372 -3.27273 -2.14494 0
M  V30 4530 H 471.995 -2.08713 -3.38415 0
M  V30 4531 N 472.992 0.995999 -1.22138 0
M  V30 4532 C 474.408 1.25917 -0.980667 0
M  V30 4533 C 474.608 1.98819 0.327604 0
M  V30 4534 O 473.664 2.29587 1.05101 0
M  V30 4535 C 474.977 2.07399 -2.17729 0
M  V30 4536 C 476.525 2.20594 -2.22052 0
M  V30 4537 C 477 3.05462 -3.41258 0
M  V30 4538 N 478.491 3.13049 -3.41401 0
M  V30 4539 C 479.226 3.78997 -4.30289 0
M  V30 4540 N 478.722 4.46899 -5.2939 0
M  V30 4541 N 480.515 3.75728 -4.18073 0
M  V30 4542 H 472.666 0.507158 -2.06256 0
M  V30 4543 H 474.929 0.28658 -0.903646 0
M  V30 4544 H 474.635 1.61191 -3.12586 0
M  V30 4545 H 474.509 3.08154 -2.17534 0
M  V30 4546 H 476.896 2.66017 -1.27745 0
M  V30 4547 H 476.977 1.1928 -2.26287 0
M  V30 4548 H 476.621 2.60739 -4.35864 0
M  V30 4549 H 476.551 4.06911 -3.34262 0
M  V30 4550 H 479.042 2.64721 -2.69688 0
M  V30 4551 H 479.355 4.94952 -5.935 0
M  V30 4552 H 477.7 4.45657 -5.33306 0
M  V30 4553 H 480.891 3.2184 -3.39907 0
M  V30 4554 H 481.064 4.26845 -4.87553 0
M  V30 4555 N 474.47 1.03057 1.19235 0
M  V30 4556 C 475.718 0.726581 1.88587 0
M  V30 4557 C 476.039 -0.747227 1.80115 0
M  V30 4558 O 475.309 -1.53849 1.21274 0
M  V30 4559 H 473.889 0.265768 0.698124 0
M  V30 4560 H 476.551 1.30516 1.44746 0
M  V30 4561 H 475.647 1.0224 2.94879 0
M  V30 4562 N 475.948 -1.35272 0.808662 0
M  V30 4563 C 477.364 -1.51806 0.492653 0
M  V30 4564 C 477.564 -1.7574 -0.985778 0
M  V30 4565 O 476.62 -1.80003 -1.77074 0
M  V30 4566 C 477.933 -2.69202 1.33981 0
M  V30 4567 C 479.481 -2.8308 1.33547 0
M  V30 4568 C 479.956 -4.03502 2.16679 0
M  V30 4569 N 481.447 -4.10684 2.14227 0
M  V30 4570 C 482.182 -5.02984 2.75308 0
M  V30 4571 N 481.678 -6.00603 3.45323 0
M  V30 4572 N 483.471 -4.95746 2.64938 0
M  V30 4573 H 475.622 -1.17993 1.76611 0
M  V30 4574 H 477.885 -0.577476 0.751814 0
M  V30 4575 H 477.591 -2.581 2.38909 0
M  V30 4576 H 477.465 -3.63854 0.994491 0
M  V30 4577 H 479.852 -2.93631 0.294036 0
M  V30 4578 H 479.933 -1.89278 1.72068 0
M  V30 4579 H 479.577 -3.93711 3.20864 0
M  V30 4580 H 479.507 -4.96489 1.75517 0
M  V30 4581 H 481.998 -3.40802 1.63285 0
M  V30 4582 H 482.311 -6.67633 3.89212 0
M  V30 4583 H 480.656 -6.0077 3.49428 0
M  V30 4584 H 483.847 -4.18439 2.09825 0
M  V30 4585 H 484.02 -5.67487 3.12829 0
M  V30 4586 N 477.426 -0.562348 -1.47226 0
M  V30 4587 C 478.666 -0.0426374 -2.04356 0
M  V30 4588 C 479.03 1.28487 -1.42671 0
M  V30 4589 O 480.231 1.89259 -1.90878 0
M  V30 4590 C 478.502 0.0433826 -3.57374 0
M  V30 4591 S 480.061 0.508472 -4.35844 0
M  V30 4592 H 476.879 -0.0276234 -0.710463 0
M  V30 4593 H 479.481 -0.750245 -1.80531 0
M  V30 4594 H 478.185 -0.927072 -3.99792 0
M  V30 4595 H 477.716 0.774387 -3.85703 0
M  V30 4596 H 479.731 1.76719 -4.63665 0
M  V30 4597 N 478.904 1.54736 -0.299062 0
M  V30 4598 C 480.15 2.01114 0.304123 0
M  V30 4599 C 480.505 1.18376 1.51674 0
M  V30 4600 O 479.798 0.251635 1.8994 0
M  V30 4601 C 479.992 3.50199 0.713835 0
M  V30 4602 C 479.821 4.47366 -0.457531 0
M  V30 4603 C 478.591 4.9631 -0.948933 0
M  V30 4604 C 480.789 4.9755 -1.30186 0
M  V30 4605 N 478.771 5.77327 -2.08726 0
M  V30 4606 C 480.142 5.7625 -2.28771 0
M  V30 4607 C 482.197 4.79739 -1.33246 0
M  V30 4608 C 480.9 6.39036 -3.3019 0
M  V30 4609 C 482.926 5.43343 -2.33521 0
M  V30 4610 C 482.288 6.21874 -3.30836 0
M  V30 4611 H 478.387 0.778318 0.0757992 0
M  V30 4612 H 480.971 1.89925 -0.428536 0
M  V30 4613 H 479.142 3.61681 1.41567 0
M  V30 4614 H 480.874 3.83374 1.29639 0
M  V30 4615 H 477.629 4.7069 -0.52423 0
M  V30 4616 H 478.053 6.22521 -2.66077 0
M  V30 4617 H 482.695 4.18609 -0.59383 0
M  V30 4618 H 480.413 6.99302 -4.04973 0
M  V30 4619 H 483.999 5.31492 -2.3666 0
M  V30 4620 H 482.879 6.70217 -4.07159 0
M  V30 4621 N 480.382 0.0267497 1.57577 0
M  V30 4622 C 481.345 -0.940916 2.08996 0
M  V30 4623 C 482.345 -1.25561 1.00455 0
M  V30 4624 O 483.535 -1.19634 1.26623 0
M  V30 4625 C 480.667 -2.25814 2.55384 0
M  V30 4626 H 481.86 -0.495628 2.95776 0
M  V30 4627 H 479.413 -0.221241 1.54726 0
M  V30 4628 H 480.148 -2.74976 1.71926 0
M  V30 4629 H 479.933 -2.04285 3.34679 0
M  V30 4630 H 481.423 -2.95178 2.95398 0
M  V30 4631 N 481.861 -1.55662 -0.24637 0
M  V30 4632 C 482.824 -1.89558 -1.28842 0
M  V30 4633 C 483.824 -0.772082 -1.41052 0
M  V30 4634 O 485.014 -1.04007 -1.39743 0
M  V30 4635 C 482.146 -2.12449 -2.66605 0
M  V30 4636 H 483.339 -2.82735 -1.00004 0
M  V30 4637 H 480.892 -1.48562 -0.485684 0
M  V30 4638 H 481.627 -1.21742 -3.00582 0
M  V30 4639 H 481.412 -2.94273 -2.59125 0
M  V30 4640 H 482.902 -2.39854 -3.41847 0
M  V30 4641 N 483.339 0.512053 -1.4905 0
M  V30 4642 C 484.587 1.26436 -1.57665 0
M  V30 4643 C 484.908 1.93255 -0.260293 0
M  V30 4644 O 484.178 1.82206 0.719564 0
M  V30 4645 H 482.758 0.469658 -0.580888 0
M  V30 4646 H 485.42 0.594398 -1.85615 0
M  V30 4647 H 484.516 2.03417 -2.36702 0
M  V30 4648 N 484.817 1.37938 0.762283 0
M  V30 4649 C 486.228 1.30094 1.33912 0
M  V30 4650 C 486.579 -0.0472026 1.96143 0
M  V30 4651 O 485.704 -0.94917 1.94473 0
M  V30 4652 C 486.299 2.35592 2.43478 0
M  V30 4653 C 484.858 2.31353 2.96905 0
M  V30 4654 C 484.005 2.18919 1.70205 0
M  V30 4655 H 486.956 1.48423 0.561816 0
M  V30 4656 H 486.977 2.00806 3.23199 0
M  V30 4657 H 486.489 3.33701 1.98155 0
M  V30 4658 H 484.59 1.36799 3.46579 0
M  V30 4659 H 484.703 3.25147 3.51875 0
M  V30 4660 H 483.067 1.65624 1.93496 0
M  V30 4661 H 483.85 3.18956 1.26973 0
M  V30 4662 N 486.295 -0.989507 1.22664 0
M  V30 4663 C 487.541 -1.7321 1.05481 0
M  V30 4664 C 487.874 -1.89852 -0.408635 0
M  V30 4665 O 487.149 -1.44416 -1.30285 0
M  V30 4666 C 487.432 -3.1357 1.77047 0
M  V30 4667 C 487.285 -3.04555 3.31008 0
M  V30 4668 C 488.604 -4.12812 1.5256 0
M  V30 4669 H 485.723 -0.628697 0.384589 0
M  V30 4670 H 488.365 -1.15258 1.51049 0
M  V30 4671 H 486.515 -3.63046 1.3831 0
M  V30 4672 H 488.187 -2.62674 3.7921 0
M  V30 4673 H 486.43 -2.41278 3.6051 0
M  V30 4674 H 487.101 -4.03894 3.76263 0
M  V30 4675 H 489.577 -3.72106 1.86215 0
M  V30 4676 H 488.453 -5.09132 2.05124 0
M  V30 4677 H 488.714 -4.39711 0.458936 0
M  V30 4678 N 487.773 -1.03688 -1.18687 0
M  V30 4679 C 489.184 -0.766488 -1.70241 0
M  V30 4680 C 489.535 0.713052 -1.82784 0
M  V30 4681 O 488.66 1.55529 -1.50465 0
M  V30 4682 C 489.255 -1.38475 -3.09209 0
M  V30 4683 C 487.814 -1.16276 -3.5799 0
M  V30 4684 C 486.961 -1.4778 -2.34641 0
M  V30 4685 H 489.912 -1.20378 -1.03415 0
M  V30 4686 H 489.933 -0.785939 -3.72295 0
M  V30 4687 H 489.445 -2.46157 -3.00048 0
M  V30 4688 H 487.546 -0.104508 -3.72453 0
M  V30 4689 H 487.659 -1.8571 -4.41643 0
M  V30 4690 H 486.023 -0.897366 -2.38368 0
M  V30 4691 H 486.806 -2.56562 -2.28102 0
M  V30 4692 N 489.251 1.34841 -0.815825 0
M  V30 4693 C 490.161 2.33425 -0.234462 0
M  V30 4694 C 491.177 1.62295 0.627413 0
M  V30 4695 O 492.353 1.94109 0.536987 0
M  V30 4696 C 489.418 3.41471 0.599849 0
M  V30 4697 C 488.479 4.28362 -0.283596 0
M  V30 4698 C 487.712 5.31248 0.51099 0
M  V30 4699 O 487.935 5.43056 1.7449 0
M  V30 4700 O 486.869 6.01812 -0.10297 0
M  V30 4701 H 490.695 2.84962 -1.05024 0
M  V30 4702 H 488.28 1.37774 -0.577809 0
M  V30 4703 H 490.162 4.07464 1.07475 0
M  V30 4704 H 488.837 2.9219 1.39308 0
M  V30 4705 H 487.744 3.65318 -0.805836 0
M  V30 4706 H 489.077 4.81066 -1.041 0
M  V30 4707 N 490.729 0.570148 1.46925 0
M  V30 4708 C 491.659 -0.158274 2.32963 0
M  V30 4709 C 492.64 -0.896093 1.44583 0
M  V30 4710 O 493.825 -0.874022 1.7342 0
M  V30 4711 C 490.955 -1.18055 3.26619 0
M  V30 4712 C 489.909 -0.558379 4.24342 0
M  V30 4713 C 489.235 -1.68623 5.07415 0
M  V30 4714 C 490.535 0.496295 5.19937 0
M  V30 4715 H 492.229 0.560046 2.94115 0
M  V30 4716 H 489.775 0.270775 1.41431 0
M  V30 4717 H 491.728 -1.69841 3.85658 0
M  V30 4718 H 490.452 -1.92899 2.63548 0
M  V30 4719 H 489.111 -0.0617157 3.66548 0
M  V30 4720 H 488.759 -2.42402 4.40738 0
M  V30 4721 H 488.459 -1.27564 5.73586 0
M  V30 4722 H 489.983 -2.20709 5.69315 0
M  V30 4723 H 491.397 0.0640052 5.73264 0
M  V30 4724 H 489.794 0.82649 5.94381 0
M  V30 4725 H 490.864 1.38735 4.6463 0
M  V30 4726 N 492.207 -1.54576 0.307264 0
M  V30 4727 C 493.447 -2.02172 -0.300962 0
M  V30 4728 C 493.811 -1.19081 -1.50611 0
M  V30 4729 O 495.012 -1.56405 -2.18612 0
M  V30 4730 C 493.283 -3.51576 -0.642591 0
M  V30 4731 S 494.842 -4.21127 -1.23279 0
M  V30 4732 H 491.66 -0.705021 -0.0920141 0
M  V30 4733 H 494.262 -1.90563 0.436594 0
M  V30 4734 H 492.966 -4.09681 0.242901 0
M  V30 4735 H 492.497 -3.67234 -1.41077 0
M  V30 4736 H 494.512 -4.27426 -2.52034 0
M  V30 4737 N 493.685 -0.035106 -1.57561 0
M  V30 4738 C 495.096 0.502885 -1.798 0
M  V30 4739 C 495.447 1.71892 -0.945921 0
M  V30 4740 O 494.572 2.15822 -0.157991 0
M  V30 4741 C 495.167 0.919097 -3.26095 0
M  V30 4742 C 493.726 1.40216 -3.49308 0
M  V30 4743 C 492.873 0.369709 -2.74824 0
M  V30 4744 H 495.824 -0.261102 -1.56537 0
M  V30 4745 H 495.845 1.78308 -3.36135 0
M  V30 4746 H 495.357 0.0338526 -3.88085 0
M  V30 4747 H 493.458 2.30714 -2.92578 0
M  V30 4748 H 493.571 1.40541 -4.58023 0
M  V30 4749 H 491.935 0.839113 -2.40481 0
M  V30 4750 H 492.718 -0.507173 -3.39533 0
M  V30 4751 N 495.163 1.55791 0.238111 0
M  V30 4752 C 496.574 1.68383 0.806472 0
M  V30 4753 C 496.925 0.634157 1.85669 0
M  V30 4754 O 496.05 -0.217913 2.153 0
M  V30 4755 C 496.645 3.05268 1.46959 0
M  V30 4756 C 495.204 3.1977 1.98555 0
M  V30 4757 C 494.351 2.64279 0.839763 0
M  V30 4758 H 497.302 1.58694 0.0137535 0
M  V30 4759 H 497.323 3.00203 2.33792 0
M  V30 4760 H 496.835 3.81643 0.704993 0
M  V30 4761 H 494.936 2.48234 2.77868 0
M  V30 4762 H 495.049 4.26788 2.17689 0
M  V30 4763 H 493.413 2.22329 1.24265 0
M  V30 4764 H 494.196 3.43187 0.0881032 0
M  V30 4765 N 496.642 -0.504142 1.49319 0
M  V30 4766 C 498.058 -0.835039 1.36012 0
M  V30 4767 C 498.258 -1.97674 0.390808 0
M  V30 4768 O 497.314 -2.51867 -0.178655 0
M  V30 4769 C 498.627 -1.17821 2.76656 0
M  V30 4770 C 500.175 -1.2866 2.85334 0
M  V30 4771 C 500.65 -1.66307 4.26739 0
M  V30 4772 N 502.141 -1.73362 4.29534 0
M  V30 4773 C 502.876 -2.0393 5.35911 0
M  V30 4774 N 502.372 -2.32744 6.52535 0
M  V30 4775 N 504.165 -2.05155 5.23324 0
M  V30 4776 H 496.316 0.248764 2.10938 0
M  V30 4777 H 498.579 0.0486962 0.946748 0
M  V30 4778 H 498.285 -0.412682 3.4927 0
M  V30 4779 H 498.159 -2.12239 3.11825 0
M  V30 4780 H 500.546 -2.04285 2.1296 0
M  V30 4781 H 500.627 -0.323004 2.53752 0
M  V30 4782 H 500.271 -0.91234 4.99639 0
M  V30 4783 H 500.201 -2.63761 4.55782 0
M  V30 4784 H 502.692 -1.53268 3.45424 0
M  V30 4785 H 503.005 -2.55248 7.2943 0
M  V30 4786 H 501.35 -2.30207 6.55767 0
M  V30 4787 H 504.541 -1.82119 4.3122 0
M  V30 4788 H 504.714 -2.28644 6.06322 0
M  V30 4789 N 498.12 -1.38341 -0.754957 0
M  V30 4790 C 499.368 -1.34208 -1.51105 0
M  V30 4791 C 499.689 0.0677634 -1.94882 0
M  V30 4792 O 498.959 1.01517 -1.67544 0
M  V30 4793 H 497.539 -0.493819 -0.560493 0
M  V30 4794 H 500.201 -1.73005 -0.897507 0
M  V30 4795 H 499.297 -1.99203 -2.4026 0
M  V30 4796 N 499.598 0.982988 -1.23187 0
M  V30 4797 C 500.823 1.76455 -1.08988 0
M  V30 4798 C 501.248 1.84726 0.354691 0
M  V30 4799 O 500.606 1.30699 1.25649 0
M  V30 4800 C 500.654 3.17094 -1.71708 0
M  V30 4801 O 499.758 4.00648 -0.977477 0
M  V30 4802 H 499.099 0.542988 -0.382177 0
M  V30 4803 H 501.629 1.23413 -1.63188 0
M  V30 4804 H 501.639 3.67684 -1.76841 0
M  V30 4805 H 500.314 3.10389 -2.76823 0
M  V30 4806 H 498.891 3.59161 -1.0029 0
M  V30 4807 N 501.076 1.04316 1.18135 0
M  V30 4808 C 502.024 0.630175 2.23901 0
M  V30 4809 C 503.018 -0.344254 1.65865 0
M  V30 4810 O 504.224 -0.211273 1.78756 0
M  V30 4811 H 500.599 0.185578 0.728742 0
M  V30 4812 H 502.57 1.53253 2.56039 0
M  V30 4813 C 501.319 0.011666 3.47698 0
M  V30 4814 H 500.642 0.752526 3.92654 0
M  V30 4815 H 502.082 -0.240046 4.2332 0
M  V30 4816 C 500.541 -1.23913 3.13285 0
M  V30 4817 O 501.071 -2.32959 3.27251 0
M  V30 4818 N 499.277 -1.13338 2.67587 0
M  V30 4819 H 498.824 -0.246006 2.56423 0
M  V30 4820 H 498.782 -1.97116 2.44934 0
M  V30 4821 N 502.554 -1.34406 0.822964 0
M  V30 4822 C 503.464 -2.33298 0.246838 0
M  V30 4823 C 504.48 -1.62625 -0.618797 0
M  V30 4824 O 505.656 -1.94391 -0.526685 0
M  V30 4825 C 502.721 -3.41785 -0.581731 0
M  V30 4826 C 501.782 -4.28206 0.306309 0
M  V30 4827 C 501.015 -5.31512 -0.48281 0
M  V30 4828 O 501.238 -5.43973 -1.71607 0
M  V30 4829 O 500.172 -6.01749 0.134884 0
M  V30 4830 H 503.998 -2.84401 1.06534 0
M  V30 4831 H 501.583 -1.37466 0.585108 0
M  V30 4832 H 503.465 -4.08028 -1.05313 0
M  V30 4833 H 502.14 -2.92925 -1.37756 0
M  V30 4834 H 501.047 -3.64885 0.825199 0
M  V30 4835 H 502.38 -4.80507 1.06649 0
M  V30 4836 N 504.032 -0.577932 -1.46621 0
M  V30 4837 C 505.279 -0.0616879 -2.02406 0
M  V30 4838 C 505.607 1.29638 -1.44997 0
M  V30 4839 O 504.862 1.86176 -0.60308 0
M  V30 4840 C 505.161 0.0590832 -3.57351 0
M  V30 4841 C 504.827 -1.23077 -4.33777 0
M  V30 4842 C 503.489 -1.58416 -4.54376 0
M  V30 4843 C 505.841 -2.08457 -4.77698 0
M  V30 4844 C 503.169 -2.78943 -5.16147 0
M  V30 4845 C 505.521 -3.28204 -5.408 0
M  V30 4846 C 504.185 -3.63832 -5.59627 0
M  V30 4847 H 503.455 -0.0225732 -0.740656 0
M  V30 4848 H 506.102 -0.753609 -1.76048 0
M  V30 4849 H 504.407 0.834104 -3.82818 0
M  V30 4850 H 506.104 0.474202 -3.98186 0
M  V30 4851 H 502.694 -0.945652 -4.18038 0
M  V30 4852 H 506.878 -1.82459 -4.61544 0
M  V30 4853 H 502.134 -3.06689 -5.28916 0
M  V30 4854 H 506.308 -3.94634 -5.73792 0
M  V30 4855 H 503.935 -4.57315 -6.07262 0
M  V30 4856 N 505.51 1.54411 -0.315457 0
M  V30 4857 C 506.442 2.21527 0.588067 0
M  V30 4858 C 507.455 1.21263 1.08624 0
M  V30 4859 O 508.644 1.47777 1.00121 0
M  V30 4860 C 505.744 2.85963 1.81875 0
M  V30 4861 C 504.917 4.12291 1.46063 0
M  V30 4862 C 503.976 4.60396 2.54799 0
M  V30 4863 O 503.002 5.25265 2.19283 0
M  V30 4864 N 504.204 4.33935 3.85591 0
M  V30 4865 H 506.969 2.99697 0.013414 0
M  V30 4866 H 504.53 1.61308 -0.138295 0
M  V30 4867 H 506.522 3.15071 2.53993 0
M  V30 4868 H 505.092 2.11548 2.30144 0
M  V30 4869 H 504.312 3.90036 0.571445 0
M  V30 4870 H 505.6 4.9452 1.19695 0
M  V30 4871 H 504.998 3.81996 4.17248 0
M  V30 4872 H 503.555 4.67718 4.53964 0
M  V30 4873 N 506.988 0.0434614 1.5754 0
M  V30 4874 C 507.92 -0.962586 2.08007 0
M  V30 4875 C 508.933 -1.27972 1.00634 0
M  V30 4876 O 510.122 -1.24186 1.28219 0
M  V30 4877 C 507.222 -2.28621 2.50171 0
M  V30 4878 C 506.395 -2.15214 3.80791 0
M  V30 4879 C 505.454 -3.30633 4.09351 0
M  V30 4880 O 504.48 -3.0688 4.79388 0
M  V30 4881 N 505.682 -4.54873 3.60654 0
M  V30 4882 H 508.447 -0.531891 2.94942 0
M  V30 4883 H 506.008 -0.142965 1.61268 0
M  V30 4884 H 508 -3.04689 2.66359 0
M  V30 4885 H 506.57 -2.63283 1.68525 0
M  V30 4886 H 505.79 -1.23785 3.74261 0
M  V30 4887 H 507.078 -2.03475 4.66343 0
M  V30 4888 H 506.476 -4.77063 3.04019 0
M  V30 4889 H 505.033 -5.2806 3.82094 0
M  V30 4890 N 508.466 -1.55915 -0.229846 0
M  V30 4891 C 509.396 -1.94754 -1.28815 0
M  V30 4892 C 510.377 -0.814657 -1.49323 0
M  V30 4893 O 511.562 -1.07631 -1.61645 0
M  V30 4894 C 508.692 -2.25705 -2.63959 0
M  V30 4895 C 507.646 -3.41406 -2.5812 0
M  V30 4896 C 506.972 -3.57941 -3.97218 0
M  V30 4897 C 508.272 -4.76616 -2.13623 0
M  V30 4898 H 509.966 -2.83404 -0.965547 0
M  V30 4899 H 507.512 -1.36353 -0.463028 0
M  V30 4900 H 509.465 -2.51467 -3.38146 0
M  V30 4901 H 508.189 -1.339 -2.9789 0
M  V30 4902 H 506.848 -3.1568 -1.86391 0
M  V30 4903 H 506.496 -2.63526 -4.28443 0
M  V30 4904 H 506.196 -4.35757 -3.94195 0
M  V30 4905 H 507.72 -3.86042 -4.73079 0
M  V30 4906 H 509.134 -5.01637 -2.77549 0
M  V30 4907 H 507.531 -5.57655 -2.21677 0
M  V30 4908 H 508.601 -4.7253 -1.08829 0
M  V30 4909 N 509.944 0.496216 -1.49584 0
M  V30 4910 C 511.184 1.26015 -1.60933 0
M  V30 4911 C 511.548 1.89772 -0.291646 0
M  V30 4912 O 512.749 2.67334 -0.280357 0
M  V30 4913 C 511.02 2.29506 -2.73974 0
M  V30 4914 S 512.579 3.15175 -3.05303 0
M  V30 4915 H 509.397 0.428194 -0.567601 0
M  V30 4916 H 511.999 0.561484 -1.87263 0
M  V30 4917 H 510.703 1.81205 -3.68229 0
M  V30 4918 H 510.234 3.04036 -2.49651 0
M  V30 4919 H 512.249 4.30244 -2.47193 0
M  V30 4920 N 511.423 1.38739 0.74761 0
M  V30 4921 C 512.386 1.36241 1.84312 0
M  V30 4922 C 513.386 0.261811 1.58654 0
M  V30 4923 O 514.576 0.519031 1.66288 0
M  V30 4924 C 511.708 1.12253 3.21888 0
M  V30 4925 H 512.901 2.33712 1.87933 0
M  V30 4926 H 510.454 1.2412 0.949946 0
M  V30 4927 H 511.189 0.154133 3.23934 0
M  V30 4928 H 510.974 1.91943 3.41907 0
M  V30 4929 H 512.464 1.13215 4.0196 0
M  V30 4930 N 512.901 -0.976442 1.23707 0
M  V30 4931 C 513.833 -2.07212 0.979574 0
M  V30 4932 C 514.846 -1.6273 -0.0478528 0
M  V30 4933 O 516.035 -1.77506 0.18815 0
M  V30 4934 C 513.135 -3.35835 0.45479 0
M  V30 4935 C 512.308 -4.09268 1.54331 0
M  V30 4936 C 511.367 -5.16166 1.02271 0
M  V30 4937 O 510.393 -5.42827 1.71254 0
M  V30 4938 N 511.595 -5.80313 -0.147419 0
M  V30 4939 H 514.36 -2.29878 1.92292 0
M  V30 4940 H 511.921 -1.14343 1.14618 0
M  V30 4941 H 513.913 -4.04597 0.0914631 0
M  V30 4942 H 512.483 -3.10106 -0.394068 0
M  V30 4943 H 511.703 -3.34906 2.07923 0
M  V30 4944 H 512.991 -4.55095 2.27522 0
M  V30 4945 H 512.389 -5.61043 -0.724353 0
M  V30 4946 H 510.946 -6.50231 -0.451972 0
M  V30 4947 N 514.379 -1.04941 -1.1758 0
M  V30 4948 C 515.795 -0.770282 -1.39781 0
M  V30 4949 C 515.995 0.636417 -1.91186 0
M  V30 4950 O 515.051 1.39923 -2.10185 0
M  V30 4951 C 516.364 -1.82376 -2.3908 0
M  V30 4952 C 517.912 -1.84569 -2.52791 0
M  V30 4953 C 518.387 -2.88933 -3.55361 0
M  V30 4954 N 519.878 -2.8788 -3.62877 0
M  V30 4955 C 520.613 -3.65282 -4.41992 0
M  V30 4956 N 520.109 -4.52461 -5.24643 0
M  V30 4957 N 521.902 -3.53732 -4.36841 0
M  V30 4958 H 514.053 -1.95705 -0.825438 0
M  V30 4959 H 516.316 -0.847284 -0.425222 0
M  V30 4960 H 516.022 -2.83323 -2.08376 0
M  V30 4961 H 515.896 -1.66327 -3.38549 0
M  V30 4962 H 518.283 -0.842879 -2.82807 0
M  V30 4963 H 518.364 -2.04696 -1.53406 0
M  V30 4964 H 518.008 -3.89398 -3.26085 0
M  V30 4965 H 517.938 -2.66059 -4.54445 0
M  V30 4966 H 520.429 -2.24666 -3.03864 0
M  V30 4967 H 520.742 -5.08211 -5.82187 0
M  V30 4968 H 519.087 -4.56524 -5.24033 0
M  V30 4969 H 522.278 -2.85021 -3.71323 0
M  V30 4970 H 522.451 -4.14302 -4.98255 0
M  V30 4971 N 515.857 1.33968 -0.830081 0
M  V30 4972 C 516.787 2.31911 -0.271911 0
M  V30 4973 C 517.768 1.58571 0.61556 0
M  V30 4974 O 518.953 1.86514 0.540946 0
M  V30 4975 C 516.083 3.42737 0.561146 0
M  V30 4976 C 515.037 4.27383 -0.229789 0
M  V30 4977 C 514.363 5.29742 0.726463 0
M  V30 4978 C 515.663 5.02 -1.44197 0
M  V30 4979 H 517.357 2.78844 -1.09025 0
M  V30 4980 H 514.903 1.34061 -0.52571 0
M  V30 4981 H 516.856 4.10276 0.961867 0
M  V30 4982 H 515.58 2.94471 1.41261 0
M  V30 4983 H 514.239 3.61456 -0.611964 0
M  V30 4984 H 513.887 4.77736 1.57408 0
M  V30 4985 H 513.587 5.87255 0.20142 0
M  V30 4986 H 515.111 6.00149 1.12489 0
M  V30 4987 H 516.525 5.62355 -1.11488 0
M  V30 4988 H 514.922 5.69122 -1.90317 0
M  V30 4989 H 515.992 4.31281 -2.2164 0
M  V30 4990 N 517.335 0.585699 1.46312 0
M  V30 4991 C 518.746 0.159938 1.86014 0
M  V30 4992 C 519.097 -1.27775 1.48889 0
M  V30 4993 O 518.222 -1.96559 0.90519 0
M  V30 4994 C 518.817 0.283485 3.37612 0
M  V30 4995 C 517.376 -0.0874256 3.76298 0
M  V30 4996 C 516.523 0.618055 2.70325 0
M  V30 4997 H 519.474 0.793737 1.37425 0
M  V30 4998 H 519.495 -0.490348 3.77327 0
M  V30 4999 H 519.007 1.32995 3.64601 0
M  V30 5000 H 517.108 -1.13391 3.54927 0
M  V30 5001 H 517.221 0.290975 4.78216 0
M  V30 5002 H 515.585 0.057993 2.54634 0
M  V30 5003 H 516.368 1.66623 3.00153 0
M  V30 5004 N 518.813 -1.54241 0.323641 0
M  V30 5005 C 519.743 -2.27289 -0.534993 0
M  V30 5006 C 520.724 -1.28087 -1.11927 0
M  V30 5007 O 521.909 -1.56899 -1.14439 0
M  V30 5008 C 519.039 -3.03075 -1.69596 0
M  V30 5009 C 517.993 -4.09614 -1.24098 0
M  V30 5010 C 517.319 -4.73242 -2.4889 0
M  V30 5011 C 518.619 -5.21087 -0.355789 0
M  V30 5012 H 520.313 -2.99308 0.0743257 0
M  V30 5013 H 517.859 -1.43952 0.0371874 0
M  V30 5014 H 519.812 -3.52907 -2.30293 0
M  V30 5015 H 518.536 -2.28673 -2.33187 0
M  V30 5016 H 517.195 -3.60666 -0.656945 0
M  V30 5017 H 516.843 -3.95455 -3.10845 0
M  V30 5018 H 516.543 -5.45209 -2.19138 0
M  V30 5019 H 518.067 -5.25848 -3.10348 0
M  V30 5020 H 519.481 -5.66675 -0.869042 0
M  V30 5021 H 517.878 -5.9991 -0.151045 0
M  V30 5022 H 518.948 -4.81005 0.613339 0
M  V30 5023 N 520.291 -0.0518155 -1.57515 0
M  V30 5024 C 521.221 0.920283 -2.146 0
M  V30 5025 C 522.202 1.32406 -1.06783 0
M  V30 5026 O 523.387 1.39866 -1.34726 0
M  V30 5027 C 520.517 2.1949 -2.6915 0
M  V30 5028 C 519.471 1.93116 -3.81956 0
M  V30 5029 C 518.797 3.27037 -4.23026 0
M  V30 5030 C 520.097 1.25225 -5.07066 0
M  V30 5031 H 521.791 0.444801 -2.96077 0
M  V30 5032 H 519.337 0.212508 -1.42423 0
M  V30 5033 H 521.29 2.87894 -3.07725 0
M  V30 5034 H 520.014 2.69244 -1.84865 0
M  V30 5035 H 518.673 1.27123 -3.43854 0
M  V30 5036 H 518.321 3.74595 -3.3569 0
M  V30 5037 H 518.021 3.10189 -4.99056 0
M  V30 5038 H 519.545 3.96673 -4.64202 0
M  V30 5039 H 520.959 1.83666 -5.43083 0
M  V30 5040 H 519.356 1.18702 -5.88243 0
M  V30 5041 H 520.426 0.228382 -4.84362 0
M  V30 5042 N 521.769 1.56035 0.221574 0
M  V30 5043 C 523.18 1.69229 0.788567 0
M  V30 5044 C 523.531 0.653814 1.84986 0
M  V30 5045 O 522.656 -0.195065 2.15519 0
M  V30 5046 C 523.251 3.06809 1.43713 0
M  V30 5047 C 521.81 3.21858 1.95152 0
M  V30 5048 C 520.957 2.65155 0.811685 0
M  V30 5049 H 523.908 1.587 -0.00307894 0
M  V30 5050 H 523.929 3.02666 2.30594 0
M  V30 5051 H 523.441 3.82369 0.664475 0
M  V30 5052 H 521.542 2.51167 2.7522 0
M  V30 5053 H 521.655 4.29073 2.1315 0
M  V30 5054 H 520.019 2.23635 1.21899 0
M  V30 5055 H 520.802 3.43261 0.0516987 0
M  V30 5056 N 523.247 -0.488276 1.49845 0
M  V30 5057 C 524.495 -1.23911 1.59657 0
M  V30 5058 C 524.816 -1.92816 0.291005 0
M  V30 5059 O 524.086 -1.83328 -0.690485 0
M  V30 5060 H 522.666 -0.460357 0.588286 0
M  V30 5061 H 525.328 -0.564794 1.86537 0
M  V30 5062 H 524.424 -1.99625 2.39909 0
M  V30 5063 N 524.725 -1.39134 -0.740242 0
M  V30 5064 C 525.675 -1.33928 -1.84519 0
M  V30 5065 C 526.659 -0.221097 -1.59374 0
M  V30 5066 O 527.851 -0.458195 -1.70967 0
M  V30 5067 C 524.98 -1.17991 -3.22387 0
M  V30 5068 C 524.066 -2.34488 -3.53378 0
M  V30 5069 N 524.457 -3.59954 -3.5534 0
M  V30 5070 C 522.755 -2.27331 -3.83714 0
M  V30 5071 C 523.456 -4.36962 -3.83978 0
M  V30 5072 N 522.432 -3.66482 -4.01487 0
M  V30 5073 H 526.234 -2.28907 -1.84333 0
M  V30 5074 H 523.748 -1.32555 -0.938237 0
M  V30 5075 H 525.745 -1.12345 -4.01478 0
M  V30 5076 H 524.405 -0.23957 -3.23815 0
M  V30 5077 H 525.416 -3.93448 -3.36778 0
M  V30 5078 H 522.093 -1.41531 -3.92779 0
M  V30 5079 H 523.483 -5.45692 -3.92008 0
M  V30 5080 N 526.204 0.969867 -1.24223 0
M  V30 5081 C 527.615 1.52717 -1.07399 0
M  V30 5082 C 527.966 1.92956 0.355298 0
M  V30 5083 O 527.091 1.77112 1.2434 0
M  V30 5084 C 527.686 2.77521 -1.94339 0
M  V30 5085 C 526.245 3.29615 -1.81744 0
M  V30 5086 C 525.392 2.02537 -1.89405 0
M  V30 5087 H 528.343 0.788399 -1.37732 0
M  V30 5088 H 528.364 3.50773 -1.47439 0
M  V30 5089 H 527.876 2.48203 -2.98357 0
M  V30 5090 H 525.977 3.63789 -0.805505 0
M  V30 5091 H 526.09 3.98661 -2.65718 0
M  V30 5092 H 524.454 2.17151 -1.33108 0
M  V30 5093 H 525.237 1.75587 -2.94999 0
M  V30 5094 N 527.682 1.05563 1.17022 0
M  V30 5095 C 528.93 0.76642 1.87004 0
M  V30 5096 C 529.251 -0.708854 1.8166 0
M  V30 5097 O 528.521 -1.51242 1.2451 0
M  V30 5098 H 527.101 0.280516 0.692329 0
M  V30 5099 H 529.763 1.33557 1.41945 0
M  V30 5100 H 528.859 1.08472 2.92644 0
M  V30 5101 N 529.16 -1.33526 0.837174 0
M  V30 5102 C 530.09 -2.31764 0.284206 0
M  V30 5103 C 531.071 -1.58896 -0.607142 0
M  V30 5104 O 532.256 -1.86798 -0.531047 0
M  V30 5105 C 529.386 -3.43029 -0.542962 0
M  V30 5106 C 528.34 -4.27255 0.252451 0
M  V30 5107 C 527.666 -5.3012 -0.69836 0
M  V30 5108 C 528.966 -5.01229 1.46858 0
M  V30 5109 H 530.66 -2.78262 1.10502 0
M  V30 5110 H 528.206 -1.3378 0.532812 0
M  V30 5111 H 530.159 -4.1078 -0.940096 0
M  V30 5112 H 528.883 -2.95216 -1.39697 0
M  V30 5113 H 527.542 -3.61127 0.631124 0
M  V30 5114 H 527.19 -4.78564 -1.54872 0
M  V30 5115 H 526.89 -5.87353 -0.170274 0
M  V30 5116 H 528.414 -6.00737 -1.09305 0
M  V30 5117 H 529.828 -5.61756 1.14469 0
M  V30 5118 H 528.225 -5.68104 1.93333 0
M  V30 5119 H 529.295 -4.301 2.23924 0
M  V30 5120 N 530.638 -0.59345 -1.46 0
M  V30 5121 C 531.885 -0.0831523 -2.02329 0
M  V30 5122 C 532.213 1.28093 -1.46364 0
M  V30 5123 O 531.468 1.85526 -0.622793 0
M  V30 5124 C 531.767 0.021178 -3.57394 0
M  V30 5125 C 531.433 -1.27671 -4.32448 0
M  V30 5126 C 530.095 -1.63227 -4.5267 0
M  V30 5127 C 532.447 -2.13511 -4.7546 0
M  V30 5128 C 529.775 -2.84401 -5.1316 0
M  V30 5129 C 532.127 -3.33922 -5.37289 0
M  V30 5130 C 530.791 -3.69747 -5.55737 0
M  V30 5131 H 530.061 -0.0304276 -0.740375 0
M  V30 5132 H 532.708 -0.772239 -1.75239 0
M  V30 5133 H 531.013 0.793454 -3.83682 0
M  V30 5134 H 532.71 0.431942 -3.98667 0
M  V30 5135 H 529.3 -0.989937 -4.17011 0
M  V30 5136 H 533.484 -1.87344 -4.59582 0
M  V30 5137 H 528.74 -3.12282 -5.25633 0
M  V30 5138 H 532.914 -4.00698 -5.69574 0
M  V30 5139 H 530.541 -4.6373 -6.02377 0
M  V30 5140 N 532.116 1.54067 -0.331816 0
M  V30 5141 C 533.527 1.86059 0.15454 0
M  V30 5142 C 533.878 1.25331 1.50952 0
M  V30 5143 O 533.003 0.562441 2.08963 0
M  V30 5144 C 533.598 3.37581 0.287192 0
M  V30 5145 C 532.157 3.69493 0.717773 0
M  V30 5146 C 531.304 2.76863 -0.155569 0
M  V30 5147 H 534.255 1.48797 -0.55182 0
M  V30 5148 H 534.276 3.63744 1.11671 0
M  V30 5149 H 533.788 3.81751 -0.699131 0
M  V30 5150 H 531.889 3.3086 1.71354 0
M  V30 5151 H 532.002 4.76315 0.5158 0
M  V30 5152 H 530.366 2.51995 0.370213 0
M  V30 5153 H 531.149 3.23861 -1.13881 0
M  V30 5154 N 533.594 0.0601682 1.57485 0
M  V30 5155 C 534.842 -0.610386 1.92662 0
M  V30 5156 C 535.163 -1.70849 0.939981 0
M  V30 5157 O 534.433 -1.95895 -0.0137455 0
M  V30 5158 H 533.013 -0.228457 0.711208 0
M  V30 5159 H 535.675 0.115288 1.94559 0
M  V30 5160 H 534.771 -1.0432 2.94149 0
M  V30 5161 N 535.072 -1.5615 -0.213296 0
M  V30 5162 C 536.002 -1.96109 -1.26742 0
M  V30 5163 C 536.983 -0.830448 -1.48451 0
M  V30 5164 O 538.168 -1.09339 -1.60495 0
M  V30 5165 C 535.298 -2.28492 -2.61551 0
M  V30 5166 C 534.252 -3.44124 -2.54485 0
M  V30 5167 C 533.578 -3.62134 -3.93399 0
M  V30 5168 C 534.878 -4.78855 -2.08556 0
M  V30 5169 H 536.572 -2.84412 -0.935434 0
M  V30 5170 H 534.118 -1.36836 -0.44854 0
M  V30 5171 H 536.071 -2.55039 -3.3546 0
M  V30 5172 H 534.795 -1.37052 -2.96453 0
M  V30 5173 H 533.454 -3.17639 -1.83033 0
M  V30 5174 H 533.102 -2.68055 -4.25623 0
M  V30 5175 H 532.802 -4.39913 -3.89551 0
M  V30 5176 H 534.326 -3.91038 -4.68958 0
M  V30 5177 H 535.74 -5.04552 -2.72213 0
M  V30 5178 H 534.137 -5.59975 -2.1575 0
M  V30 5179 H 535.207 -4.73657 -1.03811 0
M  V30 5180 N 536.55 0.480323 -1.50102 0
M  V30 5181 C 537.48 1.58769 -1.71215 0
M  V30 5182 C 538.461 1.60583 -0.560997 0
M  V30 5183 O 539.646 1.76996 -0.799127 0
M  V30 5184 C 536.776 2.97148 -1.79778 0
M  V30 5185 C 535.73 3.10201 -2.94888 0
M  V30 5186 C 535.056 4.50137 -2.88584 0
M  V30 5187 C 536.356 2.88283 -4.35534 0
M  V30 5188 H 538.05 1.41354 -2.6393 0
M  V30 5189 H 535.596 0.678591 -1.27008 0
M  V30 5190 H 537.549 3.74536 -1.93133 0
M  V30 5191 H 536.273 3.15699 -0.836772 0
M  V30 5192 H 534.932 2.35244 -2.81169 0
M  V30 5193 H 534.58 4.65593 -1.90349 0
M  V30 5194 H 534.28 4.59808 -3.65856 0
M  V30 5195 H 535.804 5.29558 -3.03976 0
M  V30 5196 H 537.218 3.55427 -4.49827 0
M  V30 5197 H 535.615 3.09408 -5.14186 0
M  V30 5198 H 536.685 1.84219 -4.48544 0
M  V30 5199 N 538.028 1.39524 0.732853 0
M  V30 5200 C 539.276 1.36594 1.48951 0
M  V30 5201 C 539.597 -0.0367507 1.94965 0
M  V30 5202 O 538.867 -0.988391 1.69138 0
M  V30 5203 H 537.447 0.502673 0.552566 0
M  V30 5204 H 540.109 1.74411 0.869869 0
M  V30 5205 H 539.205 2.03 2.3706 0
M  V30 5206 N 539.506 -0.963266 1.24736 0
M  V30 5207 C 540.753 -1.7068 1.0897 0
M  V30 5208 C 541.081 -1.90934 -0.370751 0
M  V30 5209 O 540.336 -1.47155 -1.29011 0
M  V30 5210 C 540.635 -3.09944 1.7796 0
M  V30 5211 C 540.301 -3.09518 3.27887 0
M  V30 5212 C 538.963 -3.09109 3.68789 0
M  V30 5213 C 541.315 -3.03509 4.23712 0
M  V30 5214 C 538.643 -3.00429 5.03944 0
M  V30 5215 C 540.995 -2.96371 5.5888 0
M  V30 5216 C 539.659 -2.94293 5.99123 0
M  V30 5217 H 538.929 -0.624564 0.398749 0
M  V30 5218 H 541.576 -1.12603 1.54896 0
M  V30 5219 H 539.881 -3.71513 1.2444 0
M  V30 5220 H 541.578 -3.66278 1.63222 0
M  V30 5221 H 538.168 -3.10603 2.95337 0
M  V30 5222 H 542.352 -3.0295 3.93109 0
M  V30 5223 H 537.608 -2.97183 5.34314 0
M  V30 5224 H 541.782 -2.90681 6.32833 0
M  V30 5225 H 539.409 -2.87322 7.03811 0
M  V30 5226 N 540.985 -1.06182 -1.16461 0
M  V30 5227 C 542.233 -0.776326 -1.86595 0
M  V30 5228 C 542.554 0.69921 -1.82033 0
M  V30 5229 O 541.824 1.50579 -1.2531 0
M  V30 5230 H 540.404 -0.284184 -0.690832 0
M  V30 5231 H 543.066 -1.34308 -1.41235 0
M  V30 5232 H 542.162 -1.10022 -2.92064 0
M  V30 5233 N 542.463 1.3308 -0.844243 0
M  V30 5234 C 543.688 2.02341 -0.455282 0
M  V30 5235 C 544.113 1.6308 0.93737 0
M  V30 5236 O 543.471 0.826118 1.61385 0
M  V30 5237 C 543.519 3.55743 -0.58988 0
M  V30 5238 O 542.623 4.1063 0.38166 0
M  V30 5239 H 541.964 0.637898 -0.184343 0
M  V30 5240 H 544.494 1.6986 -1.14056 0
M  V30 5241 H 544.504 4.05243 -0.473522 0
M  V30 5242 H 543.179 3.83662 -1.60549 0
M  V30 5243 H 541.756 3.72236 0.22241 0
M  V30 5244 N 543.941 0.601185 1.45683 0
M  V30 5245 C 544.889 -0.133955 2.32214 0
M  V30 5246 C 545.883 -0.866034 1.45589 0
M  V30 5247 O 547.089 -0.782326 1.6211 0
M  V30 5248 H 543.464 -0.0620613 0.749435 0
M  V30 5249 H 545.435 0.614389 2.92007 0
M  V30 5250 C 544.184 -1.12216 3.29094 0
M  V30 5251 H 543.507 -0.568273 3.95741 0
M  V30 5252 H 544.947 -1.60659 3.92383 0
M  V30 5253 C 543.406 -2.19251 2.55794 0
M  V30 5254 O 543.936 -3.26894 2.33459 0
M  V30 5255 N 542.142 -1.9436 2.16039 0
M  V30 5256 H 541.689 -1.06829 2.34404 0
M  V30 5257 H 541.647 -2.66181 1.67318 0
M  V30 5258 N 545.419 -1.53889 0.339982 0
M  V30 5259 C 546.667 -2.00458 -0.257112 0
M  V30 5260 C 546.988 -1.22953 -1.51353 0
M  V30 5261 O 546.258 -0.335734 -1.93002 0
M  V30 5262 H 544.838 -0.740544 -0.0979965 0
M  V30 5263 H 547.5 -1.89386 0.460317 0
M  V30 5264 H 546.596 -3.08035 -0.502057 0
M  V30 5265 N 546.897 -0.0685191 -1.57451 0
M  V30 5266 C 547.83 0.935736 -2.08133 0
M  V30 5267 C 548.808 1.29317 -0.985698 0
M  V30 5268 O 549.992 1.40304 -1.25886 0
M  V30 5269 C 547.119 2.2448 -2.53627 0
M  V30 5270 C 546.165 2.03917 -3.74593 0
M  V30 5271 S 546.998 1.30154 -5.19442 0
M  V30 5272 C 548.154 2.62346 -5.68265 0
M  V30 5273 H 548.387 0.504473 -2.92989 0
M  V30 5274 H 545.92 0.144169 -1.53725 0
M  V30 5275 H 547.878 2.99718 -2.80499 0
M  V30 5276 H 546.539 2.64731 -1.69045 0
M  V30 5277 H 545.732 3.00788 -4.04404 0
M  V30 5278 H 545.334 1.36815 -3.48077 0
M  V30 5279 H 547.626 3.58448 -5.7491 0
M  V30 5280 H 548.569 2.3715 -6.67207 0
M  V30 5281 H 548.977 2.69401 -4.96068 0
M  V30 5282 N 548.375 1.56261 0.205012 0
M  V30 5283 C 549.623 1.79684 0.925096 0
M  V30 5284 C 549.944 0.63989 1.84202 0
M  V30 5285 O 549.214 -0.342345 1.92885 0
M  V30 5286 H 547.794 0.662774 0.344587 0
M  V30 5287 H 550.456 1.93734 0.212899 0
M  V30 5288 H 549.552 2.72467 1.52211 0
M  V30 5289 N 549.853 -0.472356 1.50355 0
M  V30 5290 C 551.264 -1.05326 1.54154 0
M  V30 5291 C 551.615 -1.93155 0.344303 0
M  V30 5292 O 550.74 -2.09479 -0.542928 0
M  V30 5293 C 551.335 -1.91691 2.79356 0
M  V30 5294 C 549.894 -2.44892 2.8584 0
M  V30 5295 C 549.041 -1.23205 2.48426 0
M  V30 5296 H 551.992 -0.255027 1.56637 0
M  V30 5297 H 552.013 -2.76742 2.6114 0
M  V30 5298 H 551.525 -1.27741 3.66475 0
M  V30 5299 H 549.626 -3.12399 2.0307 0
M  V30 5300 H 549.739 -2.80086 3.88701 0
M  V30 5301 H 548.103 -1.56643 2.00836 0
M  V30 5302 H 548.886 -0.609194 3.37852 0
M  V30 5303 N 551.331 -1.39911 -0.725443 0
M  V30 5304 C 552.742 -1.33599 -1.30415 0
M  V30 5305 C 553.093 -0.00481792 -1.96199 0
M  V30 5306 O 552.218 0.897275 -1.96921 0
M  V30 5307 C 552.813 -2.41965 -2.37146 0
M  V30 5308 C 551.372 -2.39144 -2.90667 0
M  V30 5309 C 550.519 -2.23355 -1.64341 0
M  V30 5310 H 553.47 -1.4986 -0.522267 0
M  V30 5311 H 553.491 -2.09304 -3.17761 0
M  V30 5312 H 553.003 -3.38837 -1.89238 0
M  V30 5313 H 551.104 -1.4594 -3.4283 0
M  V30 5314 H 551.217 -3.34362 -3.43131 0
M  V30 5315 H 549.581 -1.70696 -1.89037 0
M  V30 5316 H 550.364 -3.2221 -1.18471 0
M  V30 5317 N 552.809 0.956637 -1.25245 0
M  V30 5318 C 553.739 2.07058 -1.07931 0
M  V30 5319 C 554.72 1.70096 0.0110361 0
M  V30 5320 O 555.905 1.93555 -0.158121 0
M  V30 5321 C 553.035 3.40272 -0.695124 0
M  V30 5322 C 551.989 3.91235 -1.73549 0
M  V30 5323 C 551.315 5.20921 -1.20604 0
M  V30 5324 C 552.615 4.17837 -3.13385 0
M  V30 5325 H 554.309 2.218 -2.01109 0
M  V30 5326 H 551.855 1.06581 -0.968326 0
M  V30 5327 H 553.808 4.1765 -0.560949 0
M  V30 5328 H 552.532 3.25462 0.272355 0
M  V30 5329 H 551.191 3.16025 -1.85807 0
M  V30 5330 H 550.839 5.02479 -0.228846 0
M  V30 5331 H 550.539 5.55987 -1.90136 0
M  V30 5332 H 552.063 6.00897 -1.08421 0
M  V30 5333 H 553.477 4.8588 -3.04292 0
M  V30 5334 H 551.874 4.64154 -3.80369 0
M  V30 5335 H 552.944 3.2419 -3.60595 0
M  V30 5336 N 554.287 1.06798 1.15896 0
M  V30 5337 C 555.535 0.786211 1.8618 0
M  V30 5338 C 555.856 -0.689547 1.82401 0
M  V30 5339 O 555.126 -1.49913 1.26107 0
M  V30 5340 H 553.706 0.287843 0.689315 0
M  V30 5341 H 556.368 1.35055 1.40521 0
M  V30 5342 H 555.464 1.1157 2.91477 0
M  V30 5343 N 555.766 -1.3263 0.851289 0
M  V30 5344 C 557.177 -1.79653 0.5081 0
M  V30 5345 C 557.528 -1.70327 -0.973815 0
M  V30 5346 O 556.653 -1.25986 -1.75944 0
M  V30 5347 C 557.248 -3.26196 0.915515 0
M  V30 5348 C 555.807 -3.71187 0.624277 0
M  V30 5349 C 554.954 -2.53804 1.11709 0
M  V30 5350 H 557.905 -1.19976 1.03882 0
M  V30 5351 H 557.926 -3.79801 0.230535 0
M  V30 5352 H 557.438 -3.32952 1.99411 0
M  V30 5353 H 555.539 -3.69948 -0.443737 0
M  V30 5354 H 555.652 -4.64132 1.18821 0
M  V30 5355 H 554.016 -2.48964 0.537484 0
M  V30 5356 H 554.799 -2.63315 2.20272 0
M  V30 5357 N 557.244 -0.608902 -1.45362 0
M  V30 5358 C 558.207 0.0992563 -2.28985 0
M  V30 5359 C 559.207 0.793841 -1.39838 0
M  V30 5360 O 560.397 0.641804 -1.61946 0
M  V30 5361 C 557.529 1.15073 -3.20891 0
M  V30 5362 H 558.722 -0.635964 -2.93079 0
M  V30 5363 H 556.275 -0.368007 -1.51906 0
M  V30 5364 H 557.01 1.91667 -2.616 0
M  V30 5365 H 556.795 0.656867 -3.86559 0
M  V30 5366 H 558.285 1.64665 -3.83765 0
M  V30 5367 N 558.722 1.53707 -0.348139 0
M  V30 5368 C 560.138 1.596 0.00361134 0
M  V30 5369 C 560.338 1.36394 1.4832 0
M  V30 5370 O 559.394 1.16046 2.24253 0
M  V30 5371 C 560.707 2.97512 -0.436682 0
M  V30 5372 C 562.255 3.10568 -0.389416 0
M  V30 5373 C 562.73 4.50866 -0.805249 0
M  V30 5374 N 564.221 4.56929 -0.759616 0
M  V30 5375 C 564.956 5.63643 -1.05327 0
M  V30 5376 N 564.452 6.78189 -1.41531 0
M  V30 5377 N 566.245 5.5354 -0.977207 0
M  V30 5378 H 558.396 1.67044 -1.31187 0
M  V30 5379 H 560.659 0.782559 -0.535075 0
M  V30 5380 H 560.365 3.19575 -1.46849 0
M  V30 5381 H 560.239 3.76742 0.185744 0
M  V30 5382 H 562.626 2.88226 0.633228 0
M  V30 5383 H 562.707 2.33387 -1.04711 0
M  V30 5384 H 562.351 4.73943 -1.82593 0
M  V30 5385 H 562.281 5.26452 -0.124989 0
M  V30 5386 H 564.772 3.74675 -0.49265 0
M  V30 5387 H 565.085 7.55541 -1.62411 0
M  V30 5388 H 563.43 6.79624 -1.45381 0
M  V30 5389 H 566.621 4.62932 -0.693675 0
M  V30 5390 H 566.794 6.36614 -1.2094 0
M  V30 5391 N 560.2 0.0768682 1.57412 0
M  V30 5392 C 561.13 -0.886026 2.16037 0
M  V30 5393 C 562.111 -1.30691 1.08876 0
M  V30 5394 O 563.296 -1.37705 1.36934 0
M  V30 5395 C 560.426 -2.1518 2.72608 0
M  V30 5396 C 559.38 -1.87015 3.8498 0
M  V30 5397 C 558.706 -3.20266 4.28175 0
M  V30 5398 C 560.006 -1.17143 5.08994 0
M  V30 5399 H 561.7 -0.397642 2.96748 0
M  V30 5400 H 559.246 -0.189823 1.42743 0
M  V30 5401 H 561.199 -2.82962 3.12266 0
M  V30 5402 H 559.923 -2.66269 1.89125 0
M  V30 5403 H 558.582 -1.21636 3.45833 0
M  V30 5404 H 558.23 -3.69207 3.41607 0
M  V30 5405 H 557.93 -3.0221 5.03927 0
M  V30 5406 H 559.454 -3.89237 4.70454 0
M  V30 5407 H 560.868 -1.75003 5.45937 0
M  V30 5408 H 559.265 -1.09328 5.90057 0
M  V30 5409 H 560.335 -0.151295 4.84664 0
M  V30 5410 N 561.678 -1.56367 -0.196722 0
M  V30 5411 C 562.626 -1.95304 -1.2633 0
M  V30 5412 C 563.62 -0.838252 -1.47206 0
M  V30 5413 O 564.826 -1.02325 -1.48087 0
M  V30 5414 H 561.201 -0.621013 -0.424083 0
M  V30 5415 H 563.172 -2.84254 -0.907879 0
M  V30 5416 C 561.921 -2.3074 -2.60104 0
M  V30 5417 H 561.244 -3.16047 -2.44856 0
M  V30 5418 H 562.684 -2.61849 -3.33484 0
M  V30 5419 C 561.143 -1.14143 -3.16975 0
M  V30 5420 O 561.673 -0.415602 -3.99544 0
M  V30 5421 N 559.879 -0.91867 -2.75697 0
M  V30 5422 H 559.426 -1.51065 -2.08656 0
M  V30 5423 H 559.384 -0.140321 -3.14087 0
M  V30 5424 N 563.156 0.464375 -1.50603 0
M  V30 5425 C 564.567 1.04507 -1.5471 0
M  V30 5426 C 564.918 1.9297 -0.354542 0
M  V30 5427 O 564.043 2.09763 0.531812 0
M  V30 5428 C 564.638 1.90207 -2.80369 0
M  V30 5429 C 563.197 2.43373 -2.87135 0
M  V30 5430 C 562.344 1.21886 -2.49076 0
M  V30 5431 H 565.295 0.246716 -1.56771 0
M  V30 5432 H 565.316 2.75353 -2.62604 0
M  V30 5433 H 564.828 1.25796 -3.67147 0
M  V30 5434 H 562.929 3.11318 -2.04724 0
M  V30 5435 H 563.042 2.7802 -3.90181 0
M  V30 5436 H 561.406 1.55575 -2.01664 0
M  V30 5437 H 562.189 0.591268 -3.3817 0
M  V30 5438 N 564.634 1.40294 0.718013 0
M  V30 5439 C 565.584 1.36847 1.82365 0
M  V30 5440 C 566.568 0.246424 1.59002 0
M  V30 5441 O 567.76 0.485336 1.70216 0
M  V30 5442 C 564.889 1.23105 3.20469 0
M  V30 5443 C 563.975 2.4008 3.49603 0
M  V30 5444 N 564.366 3.65562 3.49568 0
M  V30 5445 C 562.664 2.33407 3.80049 0
M  V30 5446 C 563.365 4.43015 3.76978 0
M  V30 5447 N 562.341 3.72823 3.95606 0
M  V30 5448 H 566.143 2.31811 1.80668 0
M  V30 5449 H 563.657 1.34031 0.91703 0
M  V30 5450 H 565.654 1.18718 3.9964 0
M  V30 5451 H 564.314 0.291056 3.23393 0
M  V30 5452 H 565.325 3.98756 3.30476 0
M  V30 5453 H 562.002 1.47762 3.90478 0
M  V30 5454 H 563.392 5.51859 3.83276 0
M  V30 5455 N 566.112 -0.949982 1.2575 0
M  V30 5456 C 567.36 -1.6918 1.10555 0
M  V30 5457 C 567.681 -1.91773 -0.353298 0
M  V30 5458 O 566.951 -1.50814 -1.25027 0
M  V30 5459 H 565.531 -0.626952 0.406129 0
M  V30 5460 H 568.193 -1.1419 1.57945 0
M  V30 5461 H 567.289 -2.66915 1.61749 0
M  V30 5462 N 567.59 -1.07411 -1.15328 0
M  V30 5463 C 568.815 -0.818856 -1.90551 0
M  V30 5464 C 569.24 0.622194 -1.77512 0
M  V30 5465 O 568.598 1.43484 -1.10824 0
M  V30 5466 C 568.646 -1.23267 -3.38877 0
M  V30 5467 O 567.75 -0.378345 -4.10661 0
M  V30 5468 H 567.091 -0.29827 -0.593238 0
M  V30 5469 H 569.621 -1.43289 -1.46046 0
M  V30 5470 H 569.631 -1.20912 -3.89672 0
M  V30 5471 H 568.306 -2.28226 -3.47686 0
M  V30 5472 H 566.883 -0.464437 -3.69996 0
M  V30 5473 N 569.068 1.32177 -0.85831 0
M  V30 5474 C 570.345 1.91781 -0.384624 0
M  V30 5475 C 570.725 1.78171 1.13217 0
M  V30 5476 O 570.073 1.18209 1.95548 0
M  V30 5477 C 570.283 3.38414 -0.853047 0
M  V30 5478 C 571.631 4.15542 -0.872359 0
M  V30 5479 O 572.655 3.47148 -0.797926 0
M  V30 5480 O 571.514 5.37678 -0.978009 0
M  V30 5481 H 568.608 0.819259 -0.112886 0
M  V30 5482 H 571.154 1.40923 -0.945453 0
M  V30 5483 H 569.926 3.4228 -1.89632 0
M  V30 5484 H 569.549 3.96683 -0.269874 0
M  V30 5485 N 570.547 0.616602 1.45037 0
M  V30 5486 C 571.51 -0.0871112 2.29034 0
M  V30 5487 C 572.51 -0.786414 1.40258 0
M  V30 5488 O 573.7 -0.633207 1.62284 0
M  V30 5489 C 570.832 -1.13369 3.21497 0
M  V30 5490 H 572.025 0.651497 2.92738 0
M  V30 5491 H 569.578 0.376058 1.51709 0
M  V30 5492 H 570.313 -1.90277 2.62612 0
M  V30 5493 H 570.098 -0.636358 3.86902 0
M  V30 5494 H 571.588 -1.62627 3.84633 0
M  V30 5495 N 572.025 -1.5352 0.356285 0
M  V30 5496 C 573.441 -1.59599 0.00485267 0
M  V30 5497 C 573.641 -1.37179 -1.47595 0
M  V30 5498 O 572.697 -1.17234 -2.23635 0
M  V30 5499 C 574.01 -2.97277 0.452454 0
M  V30 5500 C 575.558 -3.10357 0.405881 0
M  V30 5501 C 576.033 -4.50432 0.829148 0
M  V30 5502 N 577.524 -4.5652 0.783838 0
M  V30 5503 C 578.259 -5.63077 1.08315 0
M  V30 5504 N 577.755 -6.77429 1.45126 0
M  V30 5505 N 579.548 -5.53014 1.00655 0
M  V30 5506 H 571.699 -1.66346 1.32071 0
M  V30 5507 H 573.962 -0.77971 0.539218 0
M  V30 5508 H 573.668 -3.18792 1.48542 0
M  V30 5509 H 573.542 -3.76836 -0.165762 0
M  V30 5510 H 575.929 -2.88558 -0.617934 0
M  V30 5511 H 576.01 -2.32828 1.05947 0
M  V30 5512 H 575.654 -4.72968 1.85103 0
M  V30 5513 H 575.584 -5.26378 0.152906 0
M  V30 5514 H 578.075 -3.74408 0.512513 0
M  V30 5515 H 578.388 -7.54669 1.66415 0
M  V30 5516 H 576.733 -6.78844 1.48983 0
M  V30 5517 H 579.924 -4.62557 0.718215 0
M  V30 5518 H 580.097 -6.35964 1.24315 0
M  V30 5519 N 573.503 -0.0852151 -1.57369 0
M  V30 5520 C 574.751 0.579658 -1.93609 0
M  V30 5521 C 575.072 1.69332 -0.967043 0
M  V30 5522 O 574.342 1.95892 -0.0174215 0
M  V30 5523 H 572.922 0.217113 -0.714752 0
M  V30 5524 H 575.584 -0.146226 -1.94351 0
M  V30 5525 H 574.68 0.996276 -2.95771 0
M  V30 5526 N 574.981 1.5647 0.188427 0
M  V30 5527 C 576.23 1.80207 0.905995 0
M  V30 5528 C 576.543 0.659579 1.84144 0
M  V30 5529 O 577.749 0.781431 2.60011 0
M  V30 5530 C 576.205 3.19255 1.66145 0
M  V30 5531 C 575.813 4.41324 0.770504 0
M  V30 5532 C 577.557 3.52298 2.36826 0
M  V30 5533 C 575.464 5.71394 1.52521 0
M  V30 5534 H 574.394 0.671953 0.342045 0
M  V30 5535 H 577.045 1.82808 0.159164 0
M  V30 5536 H 575.427 3.10922 2.45242 0
M  V30 5537 H 576.601 4.60797 0.0177261 0
M  V30 5538 H 574.916 4.16035 0.174199 0
M  V30 5539 H 577.513 4.46715 2.93854 0
M  V30 5540 H 577.856 2.76359 3.11338 0
M  V30 5541 H 578.389 3.62108 1.6469 0
M  V30 5542 H 575.128 6.50316 0.82275 0
M  V30 5543 H 574.648 5.55928 2.25175 0
M  V30 5544 H 576.327 6.12747 2.07725 0
M  V30 5545 N 576.459 -0.456382 1.50847 0
M  V30 5546 C 577.87 -1.03685 1.55262 0
M  V30 5547 C 578.221 -1.92779 0.364771 0
M  V30 5548 O 577.346 -2.10043 -0.52068 0
M  V30 5549 C 577.941 -1.88718 2.81374 0
M  V30 5550 C 576.5 -2.41847 2.88422 0
M  V30 5551 C 575.647 -1.20564 2.49719 0
M  V30 5552 H 578.598 -0.238399 1.56899 0
M  V30 5553 H 578.619 -2.73957 2.6406 0
M  V30 5554 H 578.131 -1.23847 3.67809 0
M  V30 5555 H 576.232 -3.10228 2.06372 0
M  V30 5556 H 576.345 -2.75947 3.9165 0
M  V30 5557 H 574.709 -1.54504 2.02486 0
M  V30 5558 H 575.492 -0.573326 3.38479 0
M  V30 5559 N 577.937 -1.40673 -0.710563 0
M  V30 5560 C 579.162 -1.42741 -1.50465 0
M  V30 5561 C 579.587 -0.0302116 -1.88076 0
M  V30 5562 O 578.945 0.962945 -1.53613 0
M  V30 5563 C 578.993 -2.32873 -2.75322 0
M  V30 5564 O 578.097 -1.77544 -3.72226 0
M  V30 5565 H 577.438 -0.485056 -0.45345 0
M  V30 5566 H 579.968 -1.84961 -0.874681 0
M  V30 5567 H 579.978 -2.48233 -3.23797 0
M  V30 5568 H 578.653 -3.34401 -2.47283 0
M  V30 5569 H 577.23 -1.71556 -3.31093 0
M  V30 5570 N 579.415 0.9433 -1.26252 0
M  V30 5571 C 580.345 2.05902 -1.10122 0
M  V30 5572 C 581.326 1.70099 -0.00700552 0
M  V30 5573 O 582.511 1.93377 -0.178641 0
M  V30 5574 C 579.641 3.39516 -0.731175 0
M  V30 5575 C 578.595 3.89372 -1.77688 0
M  V30 5576 C 577.921 5.19613 -1.26122 0
M  V30 5577 C 579.221 4.14489 -3.17799 0
M  V30 5578 H 580.915 2.19655 -2.03451 0
M  V30 5579 H 578.461 1.05548 -0.979576 0
M  V30 5580 H 580.414 4.17031 -0.605215 0
M  V30 5581 H 579.138 3.25733 0.23782 0
M  V30 5582 H 577.797 3.14036 -1.89148 0
M  V30 5583 H 577.445 5.02208 -0.282128 0
M  V30 5584 H 577.145 5.53939 -1.96023 0
M  V30 5585 H 578.669 5.99713 -1.14789 0
M  V30 5586 H 580.083 4.82625 -3.09428 0
M  V30 5587 H 578.48 4.60094 -3.85271 0
M  V30 5588 H 579.55 3.20347 -3.64014 0
M  V30 5589 N 580.893 1.08022 1.14757 0
M  V30 5590 C 582.141 0.805913 1.85336 0
M  V30 5591 C 582.462 -0.670162 1.83122 0
M  V30 5592 O 581.732 -1.48567 1.2769 0
M  V30 5593 H 580.312 0.295138 0.686223 0
M  V30 5594 H 582.974 1.36538 1.3908 0
M  V30 5595 H 582.07 1.14655 2.90277 0
M  V30 5596 N 582.371 -1.3172 0.865308 0
M  V30 5597 C 583.782 -1.79104 0.527126 0
M  V30 5598 C 584.133 -1.7135 -0.955695 0
M  V30 5599 O 583.258 -1.27845 -1.74598 0
M  V30 5600 C 583.853 -3.25207 0.950061 0
M  V30 5601 C 582.412 -3.70504 0.663611 0
M  V30 5602 C 581.559 -2.52605 1.14395 0
M  V30 5603 H 584.51 -1.18868 1.05148 0
M  V30 5604 H 584.531 -3.79535 0.270805 0
M  V30 5605 H 584.043 -3.30818 2.02931 0
M  V30 5606 H 582.144 -3.70398 -0.404474 0
M  V30 5607 H 582.257 -4.62845 1.23737 0
M  V30 5608 H 580.621 -2.4838 0.563859 0
M  V30 5609 H 581.404 -2.60964 2.23053 0
M  V30 5610 N 583.85 -0.624285 -1.44708 0
M  V30 5611 C 585.098 -0.125802 -2.01708 0
M  V30 5612 C 585.418 1.2543 -1.49306 0
M  V30 5613 O 584.689 1.83198 -0.693924 0
M  V30 5614 H 583.269 -0.0435161 -0.745731 0
M  V30 5615 H 585.931 -0.809446 -1.77296 0
M  V30 5616 H 585.027 -0.0882734 -3.11975 0
M  V30 5617 N 585.328 1.53329 -0.364422 0
M  V30 5618 C 586.276 2.27212 0.497737 0
M  V30 5619 C 587.27 1.30146 1.08437 0
M  V30 5620 O 588.476 1.47778 1.0277 0
M  V30 5621 H 584.851 0.730329 0.179232 0
M  V30 5622 H 586.822 2.98037 -0.147182 0
M  V30 5623 C 585.571 3.07333 1.6261 0
M  V30 5624 H 584.894 3.81866 1.184 0
M  V30 5625 H 586.334 3.62209 2.20409 0
M  V30 5626 C 584.793 2.18102 2.56775 0
M  V30 5627 O 585.323 1.79104 3.59562 0
M  V30 5628 N 583.529 1.82759 2.25937 0
M  V30 5629 H 583.076 2.14671 1.42387 0
M  V30 5630 H 583.034 1.23342 2.89196 0
M  V30 5631 N 586.806 0.0935595 1.57322 0
M  V30 5632 C 588.031 -0.582324 1.99057 0
M  V30 5633 C 588.456 -1.61025 0.972242 0
M  V30 5634 O 587.814 -1.81202 -0.0594622 0
M  V30 5635 C 587.862 -1.20799 3.39765 0
M  V30 5636 O 586.966 -2.32382 3.40694 0
M  V30 5637 H 586.307 -0.147884 0.647323 0
M  V30 5638 H 588.837 0.174516 2.03854 0
M  V30 5639 H 588.847 -1.54966 3.77425 0
M  V30 5640 H 587.522 -0.454914 4.13405 0
M  V30 5641 H 586.099 -1.99845 3.14827 0
M  V30 5642 N 588.284 -1.56567 -0.180126 0
M  V30 5643 C 589.232 -1.96632 -1.24251 0
M  V30 5644 C 590.226 -0.853818 -1.46309 0
M  V30 5645 O 591.432 -1.0389 -1.46993 0
M  V30 5646 H 587.807 -0.625476 -0.417473 0
M  V30 5647 H 589.778 -2.85201 -0.877679 0
M  V30 5648 C 588.527 -2.33486 -2.57642 0
M  V30 5649 H 587.85 -3.18626 -2.4149 0
M  V30 5650 H 589.29 -2.65371 -3.30688 0
M  V30 5651 C 587.749 -1.17499 -3.15746 0
M  V30 5652 O 588.279 -0.457956 -3.99081 0
M  V30 5653 N 586.485 -0.94786 -2.74707 0
M  V30 5654 H 586.032 -1.53269 -2.07042 0
M  V30 5655 H 585.99 -0.173626 -3.1392 0
M  V30 5656 N 589.762 0.448376 -1.51087 0
M  V30 5657 C 591.011 1.19561 -1.62444 0
M  V30 5658 C 591.324 1.92602 -0.341151 0
M  V30 5659 O 592.53 2.69439 -0.333936 0
M  V30 5660 C 590.986 2.17373 -2.8684 0
M  V30 5661 C 590.594 1.5003 -4.22131 0
M  V30 5662 C 592.338 2.92597 -3.0755 0
M  V30 5663 C 590.245 2.46262 -5.37689 0
M  V30 5664 H 589.175 0.449975 -0.605011 0
M  V30 5665 H 591.826 0.463735 -1.77544 0
M  V30 5666 H 590.208 2.93948 -2.65349 0
M  V30 5667 H 591.382 0.790886 -4.53962 0
M  V30 5668 H 589.697 0.870011 -4.0721 0
M  V30 5669 H 592.294 3.64663 -3.91056 0
M  V30 5670 H 592.637 3.53306 -2.20183 0
M  V30 5671 H 593.17 2.23131 -3.29329 0
M  V30 5672 H 589.909 1.90258 -6.27281 0
M  V30 5673 H 589.429 3.15289 -5.10248 0
M  V30 5674 H 591.108 3.07623 -5.6919 0
M  V30 5675 N 591.24 1.41047 0.703093 0
M  V30 5676 C 592.488 1.39723 1.4602 0
M  V30 5677 C 592.809 0.00461257 1.94999 0
M  V30 5678 O 592.079 -0.952292 1.71196 0
M  V30 5679 H 590.659 0.514281 0.541779 0
M  V30 5680 H 593.321 1.76217 0.832678 0
M  V30 5681 H 592.417 2.07982 2.32701 0
M  V30 5682 N 592.718 -0.936591 1.26751 0
M  V30 5683 C 593.946 -1.71758 1.15355 0
M  V30 5684 C 594.361 -1.86549 -0.290683 0
M  V30 5685 O 593.718 -1.37616 -1.19868 0
M  V30 5686 C 593.769 -3.12193 1.82258 0
M  V30 5687 O 593.49 -2.98105 3.21038 0
M  V30 5688 C 594.991 -4.06485 1.76875 0
M  V30 5689 H 592.211 -0.537636 0.401483 0
M  V30 5690 H 594.755 -1.17382 1.67457 0
M  V30 5691 H 592.91 -3.63456 1.34083 0
M  V30 5692 H 593.324 -3.86824 3.54214 0
M  V30 5693 H 594.798 -5.02569 2.28316 0
M  V30 5694 H 595.275 -4.32986 0.736216 0
M  V30 5695 H 595.881 -3.61144 2.24623 0
M  V30 5696 N 594.196 -1.08629 -1.14182 0
M  V30 5697 C 595.159 -0.722027 -2.1753 0
M  V30 5698 C 596.159 0.244305 -1.58933 0
M  V30 5699 O 597.349 0.0235545 -1.74184 0
M  V30 5700 C 594.481 -0.0663966 -3.40835 0
M  V30 5701 H 595.674 -1.63719 -2.51269 0
M  V30 5702 H 593.227 -0.884442 -1.28869 0
M  V30 5703 H 593.962 0.860389 -3.12678 0
M  V30 5704 H 593.747 -0.761598 -3.84632 0
M  V30 5705 H 595.237 0.173346 -4.1724 0
M  V30 5706 N 595.674 1.31259 -0.872281 0
M  V30 5707 C 596.902 2.00795 -0.498907 0
M  V30 5708 C 597.317 1.65464 0.909238 0
M  V30 5709 O 596.674 0.885073 1.59602 0
M  V30 5710 C 596.725 3.55625 -0.649092 0
M  V30 5711 O 596.446 3.89692 -2.00179 0
M  V30 5712 C 597.947 4.42434 -0.277034 0
M  V30 5713 H 595.167 0.642299 -0.194145 0
M  V30 5714 H 597.711 1.67438 -1.17408 0
M  V30 5715 H 595.866 3.87394 -0.0214402 0
M  V30 5716 H 596.28 4.84407 -2.01122 0
M  V30 5717 H 597.754 5.50299 -0.433064 0
M  V30 5718 H 598.231 4.32146 0.783989 0
M  V30 5719 H 598.837 4.16086 -0.880483 0
M  V30 5720 N 597.152 0.631951 1.44375 0
M  V30 5721 C 598.082 -0.0593243 2.33425 0
M  V30 5722 C 599.063 -0.833964 1.48253 0
M  V30 5723 O 600.248 -0.799682 1.76971 0
M  V30 5724 C 597.378 -1.04096 3.31333 0
M  V30 5725 C 596.332 -0.377899 4.26328 0
M  V30 5726 C 595.658 -1.4695 5.14111 0
M  V30 5727 C 596.958 0.716371 5.17364 0
M  V30 5728 H 598.652 0.684287 2.91475 0
M  V30 5729 H 596.198 0.330518 1.40156 0
M  V30 5730 H 598.151 -1.53331 3.92514 0
M  V30 5731 H 596.875 -1.81547 2.71493 0
M  V30 5732 H 595.534 0.0938054 3.6648 0
M  V30 5733 H 595.182 -2.2349 4.50623 0
M  V30 5734 H 594.882 -1.03121 5.78481 0
M  V30 5735 H 596.406 -1.96363 5.78164 0
M  V30 5736 H 597.82 0.307089 5.72477 0
M  V30 5737 H 596.217 1.07784 5.90341 0
M  V30 5738 H 597.287 1.58316 4.58327 0
M  V30 5739 N 598.631 -1.53133 0.372548 0
M  V30 5740 C 599.579 -2.27473 -0.485681 0
M  V30 5741 C 600.573 -1.30719 -1.07745 0
M  V30 5742 O 601.779 -1.48321 -1.01985 0
M  V30 5743 H 598.154 -0.731269 -0.175356 0
M  V30 5744 H 600.125 -2.97955 0.162986 0
M  V30 5745 C 598.874 -3.08191 -1.60978 0
M  V30 5746 H 598.197 -3.82488 -1.16373 0
M  V30 5747 H 599.637 -3.63373 -2.18485 0
M  V30 5748 C 598.096 -2.19461 -2.55614 0
M  V30 5749 O 598.626 -1.81008 -3.58607 0
M  V30 5750 N 596.832 -1.83955 -2.24965 0
M  V30 5751 H 596.379 -2.15423 -1.41247 0
M  V30 5752 H 596.337 -1.24874 -2.88538 0
M  V30 5753 N 600.109 -0.101901 -1.5727 0
M  V30 5754 C 601.041 0.884723 -2.11436 0
M  V30 5755 C 602.054 1.24149 -1.05314 0
M  V30 5756 O 603.243 1.19341 -1.3274 0
M  V30 5757 C 600.343 2.19179 -2.58484 0
M  V30 5758 C 599.516 2.00933 -3.88516 0
M  V30 5759 C 598.575 3.15213 -4.2134 0
M  V30 5760 O 597.601 2.88877 -4.90448 0
M  V30 5761 N 598.803 4.41174 -3.77288 0
M  V30 5762 H 601.568 0.422058 -2.96713 0
M  V30 5763 H 599.129 0.0830128 -1.61687 0
M  V30 5764 H 601.121 2.94593 -2.77484 0
M  V30 5765 H 599.691 2.56847 -1.7818 0
M  V30 5766 H 598.911 1.09809 -3.78597 0
M  V30 5767 H 600.199 1.86026 -4.73573 0
M  V30 5768 H 599.597 4.6545 -3.21516 0
M  V30 5769 H 598.154 5.13515 -4.01429 0
M  V30 5770 N 601.587 1.56661 0.17182 0
M  V30 5771 C 602.815 1.861 0.904115 0
M  V30 5772 C 603.23 0.687227 1.75848 0
M  V30 5773 O 602.587 -0.343671 1.79235 0
M  V30 5774 C 602.638 3.14568 1.78127 0
M  V30 5775 O 602.359 4.27422 0.961366 0
M  V30 5776 C 603.86 3.5735 2.62327 0
M  V30 5777 H 601.08 0.617445 0.262684 0
M  V30 5778 H 603.624 2.03775 0.172068 0
M  V30 5779 H 601.779 2.98721 2.46666 0
M  V30 5780 H 602.193 5.00725 1.56123 0
M  V30 5781 H 603.667 4.50144 3.1949 0
M  V30 5782 H 604.144 2.81445 3.37173 0
M  V30 5783 H 604.75 3.75807 1.99121 0
M  V30 5784 N 603.065 -0.440357 1.51323 0
M  V30 5785 C 604.314 -1.18697 1.63076 0
M  V30 5786 C 604.627 -1.92418 0.35136 0
M  V30 5787 O 605.833 -2.69258 0.348221 0
M  V30 5788 C 604.289 -2.15849 2.87988 0
M  V30 5789 C 603.897 -1.47789 4.22921 0
M  V30 5790 C 605.641 -2.90962 3.09098 0
M  V30 5791 C 603.548 -2.43407 5.38987 0
M  V30 5792 H 602.478 -0.44676 0.607389 0
M  V30 5793 H 605.129 -0.454313 1.77787 0
M  V30 5794 H 603.511 -2.92537 2.66905 0
M  V30 5795 H 604.685 -0.7668 4.54375 0
M  V30 5796 H 603 -0.848404 4.07665 0
M  V30 5797 H 605.597 -3.62584 3.92985 0
M  V30 5798 H 605.94 -3.52133 2.22053 0
M  V30 5799 H 606.473 -2.21381 3.30507 0
M  V30 5800 H 603.212 -1.86929 6.28282 0
M  V30 5801 H 602.732 -3.12579 5.11913 0
M  V30 5802 H 604.411 -3.046 5.70813 0
M  V30 5803 N 604.543 -1.41418 -0.695603 0
M  V30 5804 C 605.82 -1.31264 -1.45014 0
M  V30 5805 C 606.2 0.0597994 -2.11015 0
M  V30 5806 O 605.548 1.07403 -2.01685 0
M  V30 5807 C 605.758 -2.466 -2.4696 0
M  V30 5808 C 607.106 -2.87763 -3.12214 0
M  V30 5809 O 608.13 -2.46339 -2.57285 0
M  V30 5810 O 606.989 -3.59395 -4.11701 0
M  V30 5811 H 604.083 -0.516576 -0.645816 0
M  V30 5812 H 606.629 -1.53382 -0.726084 0
M  V30 5813 H 605.401 -3.38183 -1.96845 0
M  V30 5814 H 605.024 -2.26358 -3.26876 0
M  V30 5815 N 606.021 0.929856 -1.27246 0
M  V30 5816 C 607.27 1.67182 -1.12842 0
M  V30 5817 C 607.583 1.9287 0.325666 0
M  V30 5818 O 608.789 2.64999 0.590572 0
M  V30 5819 C 607.245 3.01097 -1.97151 0
M  V30 5820 C 606.853 2.83115 -3.47203 0
M  V30 5821 C 608.597 3.78907 -1.91389 0
M  V30 5822 C 606.504 4.12573 -4.23719 0
M  V30 5823 H 605.434 0.627064 -0.418697 0
M  V30 5824 H 608.085 1.0332 -1.51649 0
M  V30 5825 H 606.467 3.66004 -1.51186 0
M  V30 5826 H 607.641 2.26989 -4.01015 0
M  V30 5827 H 605.956 2.18736 -3.54321 0
M  V30 5828 H 608.553 4.74837 -2.45834 0
M  V30 5829 H 608.896 4.0674 -0.887047 0
M  V30 5830 H 609.429 3.20794 -2.35237 0
M  V30 5831 H 606.168 3.8992 -5.26918 0
M  V30 5832 H 605.688 4.68371 -3.74685 0
M  V30 5833 H 607.367 4.8095 -4.32777 0
M  V30 5834 N 607.499 1.09233 1.13605 0
M  V30 5835 C 608.739 0.836786 1.86487 0
M  V30 5836 C 609.103 -0.626191 1.81502 0
M  V30 5837 O 610.304 -0.99758 2.49603 0
M  V30 5838 C 608.575 1.35476 3.30728 0
M  V30 5839 S 610.134 1.2328 4.21126 0
M  V30 5840 H 606.952 0.302702 0.643345 0
M  V30 5841 H 609.554 1.3953 1.36936 0
M  V30 5842 H 608.258 2.41381 3.31909 0
M  V30 5843 H 607.789 0.792286 3.85339 0
M  V30 5844 H 609.804 0.182468 4.95864 0
M  V30 5845 N 608.977 -1.30795 0.87923 0
M  V30 5846 C 610.393 -1.48981 0.57243 0
M  V30 5847 C 610.593 -1.80719 -0.891236 0
M  V30 5848 O 609.649 -1.89136 -1.67283 0
M  V30 5849 C 610.962 -2.61721 1.48063 0
M  V30 5850 C 612.51 -2.75603 1.48365 0
M  V30 5851 C 612.985 -3.91449 2.37763 0
M  V30 5852 N 614.476 -3.98751 2.35695 0
M  V30 5853 C 615.211 -4.87684 3.01583 0
M  V30 5854 N 614.707 -5.81454 3.76674 0
M  V30 5855 N 616.5 -4.81005 2.90844 0
M  V30 5856 H 608.651 -1.08465 1.82617 0
M  V30 5857 H 610.914 -0.536813 0.781368 0
M  V30 5858 H 610.62 -2.45073 2.52254 0
M  V30 5859 H 610.494 -3.58071 1.18596 0
M  V30 5860 H 612.881 -2.9166 0.44927 0
M  V30 5861 H 612.962 -1.79891 1.81859 0
M  V30 5862 H 612.606 -3.76149 3.41283 0
M  V30 5863 H 612.536 -4.86487 2.01589 0
M  V30 5864 H 615.027 -3.31668 1.81121 0
M  V30 5865 H 615.34 -6.46063 4.24054 0
M  V30 5866 H 613.685 -5.81403 3.80782 0
M  V30 5867 H 616.876 -4.06728 2.31711 0
M  V30 5868 H 617.049 -5.50107 3.42471 0
M  V30 5869 N 610.455 -0.639598 -1.44038 0
M  V30 5870 C 611.405 0.0823038 -2.27851 0
M  V30 5871 C 612.389 0.807991 -1.39141 0
M  V30 5872 O 613.581 0.692702 -1.62882 0
M  V30 5873 C 610.71 1.05742 -3.26609 0
M  V30 5874 C 609.796 0.330911 -4.22807 0
M  V30 5875 N 610.187 -0.645126 -5.01669 0
M  V30 5876 C 608.485 0.574214 -4.42288 0
M  V30 5877 C 609.186 -1.07513 -5.71678 0
M  V30 5878 N 608.162 -0.412164 -5.42035 0
M  V30 5879 H 611.964 -0.666861 -2.86234 0
M  V30 5880 H 609.478 -0.465777 -1.55577 0
M  V30 5881 H 611.475 1.58927 -3.85419 0
M  V30 5882 H 610.135 1.80679 -2.69787 0
M  V30 5883 H 611.146 -1.02329 -5.0769 0
M  V30 5884 H 607.823 1.30581 -3.96554 0
M  V30 5885 H 609.213 -1.88196 -6.45005 0
M  V30 5886 N 611.933 1.52934 -0.380664 0
M  V30 5887 C 613.18 2.01467 0.204278 0
M  V30 5888 C 613.508 1.26744 1.47533 0
M  V30 5889 O 612.763 0.353723 1.92477 0
M  V30 5890 C 613.062 3.5349 0.527199 0
M  V30 5891 C 612.728 4.46171 -0.651295 0
M  V30 5892 C 611.39 4.71227 -0.974619 0
M  V30 5893 C 613.742 5.00909 -1.44012 0
M  V30 5894 C 611.07 5.4827 -2.08847 0
M  V30 5895 C 613.422 5.7917 -2.5445 0
M  V30 5896 C 612.086 6.02507 -2.87301 0
M  V30 5897 H 611.356 0.73722 0.0747504 0
M  V30 5898 H 614.003 1.84411 -0.516234 0
M  V30 5899 H 612.308 3.68574 1.32892 0
M  V30 5900 H 614.005 3.88529 0.992283 0
M  V30 5901 H 610.595 4.26829 -0.389276 0
M  V30 5902 H 614.779 4.81485 -1.20357 0
M  V30 5903 H 610.035 5.64567 -2.34679 0
M  V30 5904 H 614.209 6.20588 -3.1598 0
M  V30 5905 H 611.836 6.61989 -3.7373 0
M  V30 5906 N 613.412 0.11024 1.57214 0
M  V30 5907 C 614.64 -0.557834 1.99238 0
M  V30 5908 C 615.055 -1.60778 0.989734 0
M  V30 5909 O 614.412 -1.82491 -0.0186092 0
M  V30 5910 C 614.463 -1.19189 3.41286 0
M  V30 5911 O 614.184 -0.183919 4.37714 0
M  V30 5912 C 615.685 -1.94413 3.98395 0
M  V30 5913 H 612.905 -0.148392 0.654386 0
M  V30 5914 H 615.449 0.193996 2.03578 0
M  V30 5915 H 613.604 -1.89456 3.37913 0
M  V30 5916 H 614.018 -0.643475 5.20538 0
M  V30 5917 H 615.492 -2.34116 4.99894 0
M  V30 5918 H 615.969 -2.81592 3.3705 0
M  V30 5919 H 616.575 -1.28928 4.05287 0
M  V30 5920 N 614.89 -1.56749 -0.16351 0
M  V30 5921 C 615.838 -1.97939 -1.22159 0
M  V30 5922 C 616.832 -0.869288 -1.45395 0
M  V30 5923 O 618.038 -1.05443 -1.45883 0
M  V30 5924 H 614.413 -0.629869 -0.410815 0
M  V30 5925 H 616.384 -2.86115 -0.847381 0
M  V30 5926 C 615.133 -2.36206 -2.55151 0
M  V30 5927 H 614.456 -3.2117 -2.38097 0
M  V30 5928 H 615.896 -2.68863 -3.27854 0
M  V30 5929 C 614.355 -1.20841 -3.14482 0
M  V30 5930 O 614.885 -0.500258 -3.98573 0
M  V30 5931 N 613.091 -0.976943 -2.73686 0
M  V30 5932 H 612.638 -1.55457 -2.05404 0
M  V30 5933 H 612.596 -0.206912 -3.13718 0
M  V30 5934 N 616.368 0.432326 -1.51554 0
M  V30 5935 C 617.298 1.53242 -1.76179 0
M  V30 5936 C 618.279 1.58717 -0.611801 0
M  V30 5937 O 619.464 1.74364 -0.855033 0
M  V30 5938 C 616.594 2.91278 -1.89141 0
M  V30 5939 C 615.548 3.00663 -3.04608 0
M  V30 5940 C 614.874 4.40728 -3.02759 0
M  V30 5941 C 616.174 2.74281 -4.44485 0
M  V30 5942 H 617.868 1.32886 -2.68294 0
M  V30 5943 H 615.414 0.637841 -1.29103 0
M  V30 5944 H 617.367 3.68203 -2.04951 0
M  V30 5945 H 616.091 3.12877 -0.936785 0
M  V30 5946 H 614.75 2.26179 -2.88511 0
M  V30 5947 H 614.398 4.59301 -2.05065 0
M  V30 5948 H 614.098 4.47936 -3.80299 0
M  V30 5949 H 615.622 5.19619 -3.20669 0
M  V30 5950 H 617.036 3.40936 -4.60907 0
M  V30 5951 H 615.433 2.92893 -5.23769 0
M  V30 5952 H 616.503 1.69856 -4.54177 0
M  V30 5953 N 617.846 1.41785 0.688094 0
M  V30 5954 C 619.086 1.43018 1.46032 0
M  V30 5955 C 619.45 0.0402632 1.91958 0
M  V30 5956 O 620.651 -0.0726425 2.68702 0
M  V30 5957 C 618.922 2.4151 2.63453 0
M  V30 5958 S 620.481 2.61335 3.5249 0
M  V30 5959 H 617.299 0.506546 0.498931 0
M  V30 5960 H 619.901 1.78283 0.80221 0
M  V30 5961 H 618.605 3.41286 2.27929 0
M  V30 5962 H 618.136 2.07624 3.34149 0
M  V30 5963 H 620.151 1.88637 4.58945 0
M  V30 5964 N 619.324 -0.923095 1.27737 0
M  V30 5965 C 620.254 -2.04124 1.13383 0
M  V30 5966 C 621.235 -1.70066 0.0340658 0
M  V30 5967 O 622.42 -1.93068 0.209383 0
M  V30 5968 C 619.55 -3.3831 0.785097 0
M  V30 5969 C 618.504 -3.86496 1.8386 0
M  V30 5970 C 617.83 -5.1754 1.34373 0
M  V30 5971 C 619.13 -4.09381 3.24353 0
M  V30 5972 H 620.824 -2.1639 2.06919 0
M  V30 5973 H 618.37 -1.03976 0.996243 0
M  V30 5974 H 620.323 -4.16016 0.671485 0
M  V30 5975 H 619.047 -3.2607 -0.185969 0
M  V30 5976 H 617.706 -3.10987 1.9412 0
M  V30 5977 H 617.354 -5.01696 0.361989 0
M  V30 5978 H 617.054 -5.50751 2.04811 0
M  V30 5979 H 618.578 -5.97811 1.24315 0
M  V30 5980 H 619.992 -4.77641 3.17067 0
M  V30 5981 H 618.389 -4.53906 3.92542 0
M  V30 5982 H 619.459 -3.14515 3.69064 0
M  V30 5983 N 620.802 -1.09834 -1.13024 0
M  V30 5984 C 621.75 -0.736283 -2.20639 0
M  V30 5985 C 622.744 0.264725 -1.67319 0
M  V30 5986 O 623.95 0.125745 -1.7956 0
M  V30 5987 H 620.325 -0.220136 -0.719058 0
M  V30 5988 H 622.296 -1.65295 -2.48436 0
M  V30 5989 C 621.045 -0.177544 -3.47246 0
M  V30 5990 H 620.368 -0.939009 -3.88616 0
M  V30 5991 H 621.808 0.0378007 -4.23983 0
M  V30 5992 C 620.267 1.08824 -3.1884 0
M  V30 5993 O 620.797 2.1708 -3.37993 0
M  V30 5994 N 619.003 1.00442 -2.7269 0
M  V30 5995 H 618.55 0.123383 -2.57304 0
M  V30 5996 H 618.508 1.85206 -2.5406 0
M  V30 5997 N 622.28 1.30327 -0.886154 0
M  V30 5998 C 623.528 1.9571 -0.504195 0
M  V30 5999 C 623.849 1.70294 0.950003 0
M  V30 6000 O 623.119 1.02718 1.66811 0
M  V30 6001 H 621.699 0.72412 -0.183465 0
M  V30 6002 H 624.361 1.58835 -1.12949 0
M  V30 6003 H 623.457 3.04704 -0.675431 0
M  V30 6004 N 623.758 0.647228 1.43697 0
M  V30 6005 C 625.174 0.314256 1.56476 0
M  V30 6006 C 625.374 -1.18191 1.63196 0
M  V30 6007 O 624.43 -1.96655 1.58376 0
M  V30 6008 C 625.743 1.02034 2.82859 0
M  V30 6009 C 627.291 1.00002 2.96595 0
M  V30 6010 C 627.766 1.68689 4.25803 0
M  V30 6011 N 629.257 1.65424 4.32654 0
M  V30 6012 C 629.992 2.1545 5.31384 0
M  V30 6013 N 629.488 2.73738 6.36427 0
M  V30 6014 N 631.281 2.05985 5.22998 0
M  V30 6015 H 623.432 1.61821 1.37578 0
M  V30 6016 H 625.695 0.680184 0.660344 0
M  V30 6017 H 625.401 2.07542 2.83935 0
M  V30 6018 H 625.275 0.568146 3.72897 0
M  V30 6019 H 627.662 -0.0466319 2.95063 0
M  V30 6020 H 627.743 1.49086 2.07863 0
M  V30 6021 H 627.387 2.73308 4.28095 0
M  V30 6022 H 627.317 1.17076 5.13421 0
M  V30 6023 H 629.808 1.22884 3.57363 0
M  V30 6024 H 630.121 3.09602 7.08072 0
M  V30 6025 H 628.466 2.77796 6.37067 0
M  V30 6026 H 631.657 1.60157 4.39849 0
M  V30 6027 H 631.83 2.45281 5.99784 0
M  V30 6028 N 625.236 -1.5273 0.388769 0
M  V30 6029 C 626.476 -2.03483 -0.193372 0
M  V30 6030 C 626.84 -1.26897 -1.44087 0
M  V30 6031 O 628.041 -1.67773 -2.10014 0
M  V30 6032 C 626.312 -3.54488 -0.455325 0
M  V30 6033 S 627.871 -4.27069 -1.00783 0
M  V30 6034 H 624.689 -0.708907 -0.0545131 0
M  V30 6035 H 627.291 -1.8798 0.536993 0
M  V30 6036 H 625.995 -4.07817 0.459722 0
M  V30 6037 H 625.526 -3.74196 -1.21413 0
M  V30 6038 H 627.541 -4.40185 -2.29023 0
M  V30 6039 N 626.714 -0.118576 -1.57153 0
M  V30 6040 C 627.644 0.828436 -2.1831 0
M  V30 6041 C 628.625 1.27758 -1.12303 0
M  V30 6042 O 629.81 1.34026 -1.40537 0
M  V30 6043 C 626.94 2.07876 -2.78217 0
M  V30 6044 C 625.894 1.76742 -3.89803 0
M  V30 6045 C 625.22 3.08801 -4.36516 0
M  V30 6046 C 626.52 1.03606 -5.11921 0
M  V30 6047 H 628.214 0.318824 -2.97698 0
M  V30 6048 H 625.76 0.151911 -1.43196 0
M  V30 6049 H 627.713 2.74584 -3.19659 0
M  V30 6050 H 626.437 2.61161 -1.96118 0
M  V30 6051 H 625.096 1.12424 -3.48936 0
M  V30 6052 H 624.744 3.6002 -3.51276 0
M  V30 6053 H 624.444 2.88743 -5.11763 0
M  V30 6054 H 625.968 3.76627 -4.80608 0
M  V30 6055 H 627.382 1.60467 -5.50385 0
M  V30 6056 H 625.779 0.936454 -5.92748 0
M  V30 6057 H 626.849 0.0227421 -4.84895 0
M  V30 6058 N 628.193 1.56834 0.155195 0
M  V30 6059 C 629.604 1.72421 0.716082 0
M  V30 6060 C 629.955 0.731685 1.82046 0
M  V30 6061 O 629.08 -0.103481 2.16152 0
M  V30 6062 C 629.675 3.12629 1.30571 0
M  V30 6063 C 628.234 3.29846 1.81325 0
M  V30 6064 C 627.381 2.68359 0.698494 0
M  V30 6065 H 630.332 1.58544 -0.0703861 0
M  V30 6066 H 630.353 3.12174 2.1755 0
M  V30 6067 H 629.865 3.84844 0.501701 0
M  V30 6068 H 627.966 2.62614 2.64319 0
M  V30 6069 H 628.079 4.37727 1.9476 0
M  V30 6070 H 626.443 2.28604 1.12305 0
M  V30 6071 H 627.226 3.43171 -0.0939366 0
M  V30 6072 N 629.671 -0.424282 1.51781 0
M  V30 6073 C 630.899 -1.1947 1.68921 0
M  V30 6074 C 631.314 -1.84683 0.39213 0
M  V30 6075 O 630.671 -1.71261 -0.630554 0
M  V30 6076 C 630.722 -2.26909 2.81416 0
M  V30 6077 O 630.443 -1.64361 4.061 0
M  V30 6078 C 631.944 -3.16945 3.09937 0
M  V30 6079 H 629.164 -0.359591 0.566511 0
M  V30 6080 H 631.708 -0.501139 1.98265 0
M  V30 6081 H 629.863 -2.91959 2.54635 0
M  V30 6082 H 630.277 -2.35468 4.68674 0
M  V30 6083 H 631.751 -3.88437 3.922 0
M  V30 6084 H 632.228 -3.78451 2.22871 0
M  V30 6085 H 632.834 -2.57581 3.38426 0
M  V30 6086 N 631.149 -1.42148 -0.680565 0
M  V30 6087 C 632.56 -1.3768 -1.26099 0
M  V30 6088 C 632.911 -0.0672348 -1.96085 0
M  V30 6089 O 632.036 0.834172 -1.99676 0
M  V30 6090 C 632.631 -2.49387 -2.29328 0
M  V30 6091 C 631.19 -2.4827 -2.82911 0
M  V30 6092 C 630.337 -2.2847 -1.57152 0
M  V30 6093 H 633.288 -1.51446 -0.474326 0
M  V30 6094 H 633.309 -2.19307 -3.10941 0
M  V30 6095 H 632.821 -3.44686 -1.78363 0
M  V30 6096 H 630.922 -1.56773 -3.38013 0
M  V30 6097 H 631.035 -3.45109 -3.3232 0
M  V30 6098 H 629.399 -1.76623 -1.83511 0
M  V30 6099 H 630.182 -3.25816 -1.0816 0
M  V30 6100 N 632.627 0.916307 -1.28225 0
M  V30 6101 C 633.852 1.7043 -1.18188 0
M  V30 6102 C 634.277 1.86346 0.256274 0
M  V30 6103 O 633.635 1.37175 1.18544 0
M  V30 6104 C 633.683 3.07546 -1.88275 0
M  V30 6105 O 632.787 3.94904 -1.18848 0
M  V30 6106 H 632.128 0.521967 -0.410423 0
M  V30 6107 H 634.658 1.14589 -1.69501 0
M  V30 6108 H 634.668 3.57793 -1.96082 0
M  V30 6109 H 633.343 2.95279 -2.92887 0
M  V30 6110 H 631.92 3.53339 -1.19187 0
M  V30 6111 N 634.105 1.10431 1.1244 0
M  V30 6112 C 635.33 0.869089 1.88313 0
M  V30 6113 C 635.755 -0.574912 1.79099 0
M  V30 6114 O 635.113 -1.40496 1.14589 0
M  V30 6115 C 635.161 1.32208 3.3549 0
M  V30 6116 O 634.265 0.487092 4.09513 0
M  V30 6117 H 633.606 0.313894 0.585121 0
M  V30 6118 H 636.136 1.47111 1.42195 0
M  V30 6119 H 636.146 1.31201 3.86329 0
M  V30 6120 H 634.821 2.37364 3.41513 0
M  V30 6121 H 633.398 0.562372 3.68635 0
M  V30 6122 N 635.583 -1.29855 0.893053 0
M  V30 6123 C 636.813 -1.99686 0.530019 0
M  V30 6124 C 637.221 -1.67066 -0.888012 0
M  V30 6125 O 636.564 -0.908366 -1.5967 0
M  V30 6126 C 636.626 -3.53855 0.63457 0
M  V30 6127 C 636.29 -4.10013 2.01837 0
M  V30 6128 C 637.287 -4.25406 2.98874 0
M  V30 6129 C 634.972 -4.45202 2.32595 0
M  V30 6130 C 636.966 -4.7521 4.24799 0
M  V30 6131 C 634.653 -4.94704 3.58763 0
M  V30 6132 C 635.651 -5.09662 4.5468 0
M  V30 6133 O 635.339 -5.58093 5.78608 0
M  V30 6134 H 635.071 -0.644913 0.20264 0
M  V30 6135 H 637.625 -1.66518 1.20253 0
M  V30 6136 H 635.855 -3.86583 -0.0949477 0
M  V30 6137 H 637.544 -4.04922 0.281648 0
M  V30 6138 H 638.31 -3.98515 2.76425 0
M  V30 6139 H 634.189 -4.32822 1.58701 0
M  V30 6140 H 637.733 -4.86801 4.99671 0
M  V30 6141 H 633.63 -5.21032 3.81046 0
M  V30 6142 H 634.398 -5.7642 5.81104 0
M  V30 6143 N 637.061 -0.65484 -1.43351 0
M  V30 6144 C 638.477 -0.32255 -1.56307 0
M  V30 6145 C 638.677 1.17324 -1.63821 0
M  V30 6146 O 637.733 1.95813 -1.59417 0
M  V30 6147 C 639.046 -1.03533 -2.82314 0
M  V30 6148 C 640.594 -1.01574 -2.9606 0
M  V30 6149 C 641.069 -1.70945 -4.24902 0
M  V30 6150 N 642.56 -1.67716 -4.3177 0
M  V30 6151 C 643.295 -2.18265 -5.30234 0
M  V30 6152 N 642.791 -2.7711 -6.34966 0
M  V30 6153 N 644.584 -2.08756 -5.21898 0
M  V30 6154 H 636.735 -1.62549 -1.36717 0
M  V30 6155 H 638.998 -0.683676 -0.656727 0
M  V30 6156 H 638.704 -2.09045 -2.8283 0
M  V30 6157 H 638.578 -0.587913 -3.7259 0
M  V30 6158 H 640.965 0.0309834 -2.95084 0
M  V30 6159 H 641.046 -1.50186 -2.07069 0
M  V30 6160 H 640.69 -2.75574 -4.26639 0
M  V30 6161 H 640.62 -1.19797 -5.12793 0
M  V30 6162 H 643.111 -1.24777 -3.56706 0
M  V30 6163 H 643.424 -3.13353 -7.06421 0
M  V30 6164 H 641.769 -2.81171 -6.35585 0
M  V30 6165 H 644.96 -1.62488 -4.38994 0
M  V30 6166 H 645.133 -2.48459 -5.98475 0
M  V30 6167 N 638.539 1.52521 -0.396863 0
M  V30 6168 C 639.779 2.03583 0.182578 0
M  V30 6169 C 640.143 1.2766 1.43412 0
M  V30 6170 O 641.344 1.68884 2.09121 0
M  V30 6171 C 639.615 3.54724 0.436519 0
M  V30 6172 S 641.174 4.27598 0.985163 0
M  V30 6173 H 637.992 0.709186 0.0507529 0
M  V30 6174 H 640.594 1.87693 -0.546955 0
M  V30 6175 H 639.298 4.07567 -0.481343 0
M  V30 6176 H 638.829 3.74834 1.19427 0
M  V30 6177 H 640.844 4.41393 2.26686 0
M  V30 6178 N 640.017 0.126909 1.57088 0
M  V30 6179 C 640.927 -0.833867 2.1928 0
M  V30 6180 C 641.943 -1.2868 1.17122 0
M  V30 6181 O 643.119 -1.34815 1.49622 0
M  V30 6182 C 640.184 -2.0632 2.78627 0
M  V30 6183 C 639.245 -1.66143 3.95847 0
M  V30 6184 C 638.478 -2.83217 4.52354 0
M  V30 6185 O 638.701 -3.98868 4.0775 0
M  V30 6186 O 637.635 -2.59846 5.42922 0
M  V30 6187 H 641.461 -0.334564 3.01852 0
M  V30 6188 H 639.046 -0.0991091 1.49071 0
M  V30 6189 H 640.928 -2.78304 3.16425 0
M  V30 6190 H 639.603 -2.55242 1.99082 0
M  V30 6191 H 638.51 -0.912435 3.62802 0
M  V30 6192 H 639.843 -1.21957 4.76852 0
M  V30 6193 N 641.495 -1.56914 -0.146875 0
M  V30 6194 C 642.735 -1.85163 -0.86568 0
M  V30 6195 C 643.099 -0.711215 -1.78342 0
M  V30 6196 O 644.3 -0.874754 -2.54168 0
M  V30 6197 C 642.571 -3.18593 -1.61967 0
M  V30 6198 S 644.13 -3.68397 -2.38388 0
M  V30 6199 H 640.948 -0.6494 -0.289483 0
M  V30 6200 H 643.55 -1.95096 -0.125679 0
M  V30 6201 H 642.254 -3.99562 -0.93694 0
M  V30 6202 H 641.785 -3.11666 -2.40058 0
M  V30 6203 H 643.8 -3.37672 -3.63582 0
M  V30 6204 N 642.974 0.416227 -1.52004 0
M  V30 6205 C 643.922 1.5272 -1.7544 0
M  V30 6206 C 644.916 1.57596 -0.621289 0
M  V30 6207 O 646.122 1.61087 -0.803172 0
M  V30 6208 H 642.497 0.507772 -0.554682 0
M  V30 6209 H 644.468 1.30136 -2.68528 0
M  V30 6210 C 643.217 2.90165 -1.91571 0
M  V30 6211 H 642.54 2.87154 -2.78178 0
M  V30 6212 H 643.98 3.67211 -2.11972 0
M  V30 6213 C 642.439 3.29947 -0.680942 0
M  V30 6214 O 642.969 4.01403 0.154527 0
M  V30 6215 N 641.175 2.8593 -0.518894 0
M  V30 6216 H 640.722 2.2795 -1.19986 0
M  V30 6217 H 640.68 3.12907 0.305985 0
M  V30 6218 N 644.452 1.42507 0.673017 0
M  V30 6219 C 645.698 1.43284 1.43519 0
M  V30 6220 C 646.031 0.049668 1.94136 0
M  V30 6221 O 645.306 -0.926369 1.71022 0
M  V30 6222 C 645.589 2.45874 2.63093 0
M  V30 6223 C 645.442 3.93388 2.18096 0
M  V30 6224 C 646.761 2.45431 3.6531 0
M  V30 6225 H 643.88 0.521752 0.520522 0
M  V30 6226 H 646.522 1.73932 0.764701 0
M  V30 6227 H 644.672 2.19869 3.20296 0
M  V30 6228 H 646.344 4.30379 1.66046 0
M  V30 6229 H 644.587 4.07169 1.49652 0
M  V30 6230 H 645.258 4.60752 3.03993 0
M  V30 6231 H 647.734 2.68561 3.17827 0
M  V30 6232 H 646.61 3.19189 4.46553 0
M  V30 6233 H 646.871 1.48092 4.16559 0
M  V30 6234 N 645.93 -0.909495 1.28709 0
M  V30 6235 C 647.178 -1.65577 1.15882 0
M  V30 6236 C 647.499 -1.928 -0.292108 0
M  V30 6237 O 646.769 -1.54716 -1.20166 0
M  V30 6238 H 645.349 -0.613714 0.425869 0
M  V30 6239 H 648.011 -1.09108 1.61498 0
M  V30 6240 H 647.107 -2.61634 1.70159 0
M  V30 6241 N 647.408 -1.11026 -1.11852 0
M  V30 6242 C 648.638 -0.877544 -1.87037 0
M  V30 6243 C 649.046 0.575925 -1.80221 0
M  V30 6244 O 648.389 1.40916 -1.17849 0
M  V30 6245 C 648.451 -1.25529 -3.36872 0
M  V30 6246 C 648.115 -2.71704 -3.67459 0
M  V30 6247 C 649.112 -3.69931 -3.65304 0
M  V30 6248 C 646.797 -3.08243 -3.966 0
M  V30 6249 C 648.791 -5.02717 -3.9186 0
M  V30 6250 C 646.478 -4.41215 -4.22815 0
M  V30 6251 C 647.476 -5.38262 -4.20432 0
M  V30 6252 O 647.164 -6.68839 -4.45992 0
M  V30 6253 H 646.896 -0.314374 -0.598452 0
M  V30 6254 H 649.45 -1.48015 -1.42411 0
M  V30 6255 H 647.68 -0.595808 -3.82082 0
M  V30 6256 H 649.369 -0.999064 -3.93413 0
M  V30 6257 H 650.135 -3.43047 -3.42846 0
M  V30 6258 H 646.014 -2.33326 -3.97593 0
M  V30 6259 H 649.558 -5.78456 -3.89916 0
M  V30 6260 H 645.455 -4.67835 -4.44748 0
M  V30 6261 H 646.223 -6.74563 -4.63581 0
M  V30 6262 N 648.886 1.2938 -0.899927 0
M  V30 6263 C 650.114 1.99691 -0.541386 0
M  V30 6264 C 650.529 1.67355 0.873936 0
M  V30 6265 O 649.886 0.918728 1.57688 0
M  V30 6266 C 649.937 3.54168 -0.72438 0
M  V30 6267 O 649.658 3.85359 -2.08399 0
M  V30 6268 C 651.159 4.41746 -0.370819 0
M  V30 6269 H 648.379 0.638037 -0.207726 0
M  V30 6270 H 650.923 1.6491 -1.20934 0
M  V30 6271 H 649.078 3.87261 -0.103607 0
M  V30 6272 H 649.492 4.80032 -2.11352 0
M  V30 6273 H 650.966 5.49256 -0.549693 0
M  V30 6274 H 651.443 4.33712 0.692148 0
M  V30 6275 H 652.049 4.14125 -0.968543 0
M  V30 6276 N 650.364 0.662433 1.43002 0
M  V30 6277 C 651.296 -0.062326 2.29115 0
M  V30 6278 C 652.309 -0.777926 1.43011 0
M  V30 6279 O 653.498 -0.634146 1.66856 0
M  V30 6280 C 650.598 -1.11163 3.2015 0
M  V30 6281 C 649.771 -0.472327 4.34842 0
M  V30 6282 C 648.83 -1.41974 5.06685 0
M  V30 6283 O 647.856 -0.924795 5.61637 0
M  V30 6284 N 649.058 -2.75345 5.11043 0
M  V30 6285 H 651.823 0.676838 2.91957 0
M  V30 6286 H 649.384 0.505907 1.53793 0
M  V30 6287 H 651.376 -1.74643 3.65078 0
M  V30 6288 H 649.946 -1.75266 2.58845 0
M  V30 6289 H 649.166 0.341751 3.92716 0
M  V30 6290 H 650.454 -0.0264381 5.08793 0
M  V30 6291 H 649.852 -3.18108 4.67786 0
M  V30 6292 H 648.409 -3.34105 5.59658 0
M  V30 6293 N 651.842 -1.52309 0.404946 0
M  V30 6294 C 653.119 -1.94237 -0.230544 0
M  V30 6295 C 653.499 -1.34154 -1.6299 0
M  V30 6296 O 652.847 -0.515713 -2.22604 0
M  V30 6297 C 653.057 -3.48166 -0.241106 0
M  V30 6298 C 654.405 -4.22074 -0.462488 0
M  V30 6299 O 655.429 -3.54754 -0.320644 0
M  V30 6300 O 654.288 -5.41443 -0.741708 0
M  V30 6301 H 651.382 -0.813766 -0.147358 0
M  V30 6302 H 653.928 -1.6333 0.460587 0
M  V30 6303 H 652.7 -3.84269 0.738467 0
M  V30 6304 H 652.323 -3.85422 -0.97651 0
M  V30 6305 N 653.32 -0.135238 -1.57019 0
M  V30 6306 C 654.566 0.519563 -1.96032 0
M  V30 6307 C 654.899 1.65284 -1.01955 0
M  V30 6308 O 654.174 1.94408 -0.059727 0
M  V30 6309 C 654.457 1.0369 -3.44848 0
M  V30 6310 C 654.31 -0.0940754 -4.49702 0
M  V30 6311 C 655.629 1.92254 -3.95887 0
M  V30 6312 H 652.748 0.18739 -0.712779 0
M  V30 6313 H 655.39 -0.214086 -1.8879 0
M  V30 6314 H 653.54 1.66209 -3.5115 0
M  V30 6315 H 655.212 -0.73 -4.55487 0
M  V30 6316 H 653.455 -0.754924 -4.27181 0
M  V30 6317 H 654.126 0.309419 -5.51132 0
M  V30 6318 H 656.602 1.39581 -3.9199 0
M  V30 6319 H 655.478 2.25364 -5.00502 0
M  V30 6320 H 655.739 2.85513 -3.37543 0
M  V30 6321 N 654.798 1.5699 0.138552 0
M  V30 6322 C 656.214 1.51844 0.491472 0
M  V30 6323 C 656.414 0.845063 1.82923 0
M  V30 6324 O 655.47 0.419143 2.48997 0
M  V30 6325 C 656.783 2.96615 0.493987 0
M  V30 6326 C 658.331 3.076 0.578913 0
M  V30 6327 C 658.806 4.53893 0.612009 0
M  V30 6328 N 660.297 4.5827 0.673997 0
M  V30 6329 C 661.032 5.68852 0.720729 0
M  V30 6330 N 660.528 6.88982 0.726292 0
M  V30 6331 N 662.321 5.56908 0.762253 0
M  V30 6332 H 654.472 1.99158 -0.738228 0
M  V30 6333 H 656.735 0.908693 -0.270149 0
M  V30 6334 H 656.441 3.49172 -0.420933 0
M  V30 6335 H 656.315 3.53017 1.32887 0
M  V30 6336 H 658.702 2.55057 1.48425 0
M  V30 6337 H 658.783 2.54227 -0.283286 0
M  V30 6338 H 658.427 5.07076 -0.289208 0
M  V30 6339 H 658.357 5.05057 1.49082 0
M  V30 6340 H 660.848 3.71793 0.676654 0
M  V30 6341 H 661.161 7.69014 0.764032 0
M  V30 6342 H 659.506 6.91526 0.69403 0
M  V30 6343 H 662.697 4.61969 0.755135 0
M  V30 6344 H 662.87 6.43102 0.795207 0
M  V30 6345 N 656.276 -0.40816 1.52223 0
M  V30 6346 C 657.524 -1.15274 1.66001 0
M  V30 6347 C 657.845 -1.91003 0.392803 0
M  V30 6348 O 657.115 -1.8673 -0.592336 0
M  V30 6349 H 655.695 -0.428526 0.611861 0
M  V30 6350 H 658.357 -0.46512 1.89269 0
M  V30 6351 H 657.453 -1.86628 2.50153 0
M  V30 6352 N 657.755 -1.42862 -0.66545 0
M  V30 6353 C 658.665 -1.49491 -1.80803 0
M  V30 6354 C 659.681 -0.382914 -1.69734 0
M  V30 6355 O 660.857 -0.635223 -1.9112 0
M  V30 6356 C 657.922 -1.40383 -3.17007 0
M  V30 6357 C 656.983 -2.62152 -3.39963 0
M  V30 6358 C 656.216 -2.53469 -4.69669 0
M  V30 6359 O 656.439 -1.57568 -5.48205 0
M  V30 6360 O 655.373 -3.43763 -4.94075 0
M  V30 6361 H 659.199 -2.45949 -1.78165 0
M  V30 6362 H 656.784 -1.24728 -0.822387 0
M  V30 6363 H 658.666 -1.377 -3.98267 0
M  V30 6364 H 657.341 -0.470546 -3.20262 0
M  V30 6365 H 656.248 -2.70409 -2.58515 0
M  V30 6366 H 657.581 -3.54411 -3.41546 0
M  V30 6367 N 659.233 0.902656 -1.29189 0
M  V30 6368 C 660.473 1.6672 -1.18254 0
M  V30 6369 C 660.837 1.90199 0.262336 0
M  V30 6370 O 662.038 2.6421 0.494612 0
M  V30 6371 C 660.309 2.98178 -1.9704 0
M  V30 6372 S 661.868 3.89226 -2.02605 0
M  V30 6373 H 658.686 0.572432 -0.421714 0
M  V30 6374 H 661.288 1.07279 -1.63436 0
M  V30 6375 H 659.992 2.788 -3.01163 0
M  V30 6376 H 659.523 3.62661 -1.5245 0
M  V30 6377 H 661.538 4.82913 -1.14059 0
M  V30 6378 N 660.711 1.11618 1.11262 0
M  V30 6379 C 661.96 0.860934 1.82403 0
M  V30 6380 C 662.273 -0.615303 1.8567 0
M  V30 6381 O 663.479 -0.986861 2.52929 0
M  V30 6382 C 661.935 1.49048 3.27586 0
M  V30 6383 C 661.543 3.00089 3.32642 0
M  V30 6384 C 663.287 1.31515 4.03614 0
M  V30 6385 C 661.194 3.56019 4.72234 0
M  V30 6386 H 660.124 0.318423 0.683464 0
M  V30 6387 H 662.775 1.34165 1.25188 0
M  V30 6388 H 661.157 0.937434 3.84744 0
M  V30 6389 H 662.331 3.61813 2.85356 0
M  V30 6390 H 660.646 3.16919 2.70096 0
M  V30 6391 H 663.243 1.70732 5.0671 0
M  V30 6392 H 663.586 0.257917 4.155 0
M  V30 6393 H 664.119 1.83694 3.52848 0
M  V30 6394 H 660.858 4.61463 4.65545 0
M  V30 6395 H 660.378 2.99066 5.19923 0
M  V30 6396 H 662.057 3.54568 5.41193 0
M  V30 6397 N 662.189 -1.289 0.906776 0
M  V30 6398 C 663.466 -1.90221 0.455537 0
M  V30 6399 C 663.846 -1.82251 -1.06527 0
M  V30 6400 O 663.194 -1.25385 -1.91026 0
M  V30 6401 C 663.404 -3.35015 0.97806 0
M  V30 6402 C 664.752 -4.12018 1.02598 0
M  V30 6403 O 665.776 -3.43947 0.926218 0
M  V30 6404 O 664.635 -5.33677 1.17689 0
M  V30 6405 H 661.729 -0.814505 0.143214 0
M  V30 6406 H 664.275 -1.37317 0.997104 0
M  V30 6407 H 663.047 -3.35006 2.02204 0
M  V30 6408 H 662.67 -3.95408 0.416914 0
M  V30 6409 N 663.667 -0.670007 -1.42649 0
M  V30 6410 C 664.913 -0.190568 -2.01903 0
M  V30 6411 C 665.246 1.19817 -1.52832 0
M  V30 6412 O 664.521 1.80342 -0.728485 0
M  V30 6413 C 664.804 -0.21991 -3.59428 0
M  V30 6414 C 664.657 -1.64376 -4.18689 0
M  V30 6415 C 665.976 0.434519 -4.3795 0
M  V30 6416 H 663.095 -0.0707219 -0.733599 0
M  V30 6417 H 665.737 -0.853883 -1.69732 0
M  V30 6418 H 663.887 0.344894 -3.86966 0
M  V30 6419 H 665.559 -2.26044 -4.02122 0
M  V30 6420 H 663.802 -2.18591 -3.747 0
M  V30 6421 H 664.473 -1.61601 -5.27815 0
M  V30 6422 H 666.949 -0.0462156 -4.16074 0
M  V30 6423 H 665.825 0.38333 -5.4756 0
M  V30 6424 H 666.086 1.51135 -4.15464 0
M  V30 6425 N 665.145 1.52092 -0.413018 0
M  V30 6426 C 666.422 1.94356 0.22024 0
M  V30 6427 C 666.802 1.35017 1.62277 0
M  V30 6428 O 666.15 0.527511 2.22328 0
M  V30 6429 C 666.36 3.48289 0.222638 0
M  V30 6430 C 667.708 4.22313 0.440098 0
M  V30 6431 O 668.732 3.54919 0.301826 0
M  V30 6432 O 667.591 5.41829 0.712984 0
M  V30 6433 H 664.685 0.814536 0.14304 0
M  V30 6434 H 667.231 1.63083 -0.469242 0
M  V30 6435 H 666.003 3.83872 -0.758836 0
M  V30 6436 H 665.626 3.85934 0.956057 0
M  V30 6437 N 666.623 0.143563 1.56945 0
M  V30 6438 C 667.533 -0.810562 2.20152 0
M  V30 6439 C 668.549 -1.27431 1.1848 0
M  V30 6440 O 669.725 -1.33221 1.51044 0
M  V30 6441 C 666.79 -2.03353 2.80799 0
M  V30 6442 C 665.851 -1.61936 3.97587 0
M  V30 6443 C 665.084 -2.78403 4.55332 0
M  V30 6444 O 665.307 -3.94521 4.11958 0
M  V30 6445 O 664.241 -2.54073 5.45647 0
M  V30 6446 H 668.067 -0.30253 3.02189 0
M  V30 6447 H 665.652 -0.0832925 1.49168 0
M  V30 6448 H 667.534 -2.74932 3.19359 0
M  V30 6449 H 666.209 -2.53116 2.01777 0
M  V30 6450 H 665.116 -0.873904 3.6375 0
M  V30 6451 H 666.449 -1.16892 4.78118 0
M  V30 6452 N 668.101 -1.57061 -0.130224 0
M  V30 6453 C 669.341 -1.86071 -0.845993 0
M  V30 6454 C 669.705 -0.73009 -1.77577 0
M  V30 6455 O 670.906 -0.901663 -2.53226 0
M  V30 6456 C 669.177 -3.20293 -1.58579 0
M  V30 6457 S 670.736 -3.70905 -2.34467 0
M  V30 6458 H 667.554 -0.652434 -0.282579 0
M  V30 6459 H 670.156 -1.95218 -0.10498 0
M  V30 6460 H 668.86 -4.00533 -0.894509 0
M  V30 6461 H 668.391 -3.14195 -2.36739 0
M  V30 6462 H 670.406 -3.41509 -3.59981 0
M  V30 6463 N 669.579 0.400081 -1.52437 0
M  V30 6464 C 670.807 1.16768 -1.70801 0
M  V30 6465 C 671.222 1.84036 -0.421462 0
M  V30 6466 O 670.579 1.72242 0.603228 0
M  V30 6467 C 670.63 2.22403 -2.8499 0
M  V30 6468 O 670.351 1.57879 -4.08663 0
M  V30 6469 C 671.852 3.11974 -3.1494 0
M  V30 6470 H 669.072 0.350533 -0.57216 0
M  V30 6471 H 671.616 0.469534 -1.99037 0
M  V30 6472 H 669.771 2.87871 -2.59247 0
M  V30 6473 H 670.185 2.27982 -4.7236 0
M  V30 6474 H 671.659 3.82148 -3.9833 0
M  V30 6475 H 672.136 3.74858 -2.28863 0
M  V30 6476 H 672.742 2.52165 -3.42481 0
M  V30 6477 N 671.057 1.43213 0.657864 0
M  V30 6478 C 672.282 1.48227 1.45064 0
M  V30 6479 C 672.707 0.0999939 1.87834 0
M  V30 6480 O 672.065 -0.905269 1.57081 0
M  V30 6481 C 672.113 2.42931 2.6649 0
M  V30 6482 O 671.217 1.91237 3.6538 0
M  V30 6483 H 670.558 0.501551 0.435135 0
M  V30 6484 H 673.088 1.8808 0.805431 0
M  V30 6485 H 673.098 2.6008 3.1436 0
M  V30 6486 H 671.773 3.43348 2.34701 0
M  V30 6487 H 670.35 1.83726 3.24498 0
M  V30 6488 N 672.536 -0.895792 1.29666 0
M  V30 6489 C 673.761 -1.68528 1.20885 0
M  V30 6490 C 674.186 -1.8673 -0.226595 0
M  V30 6491 O 673.544 -1.39044 -1.16347 0
M  V30 6492 C 673.592 -3.04512 1.93144 0
M  V30 6493 O 672.696 -3.92963 1.25115 0
M  V30 6494 H 672.037 -0.515371 0.418675 0
M  V30 6495 H 674.567 -1.11878 1.71302 0
M  V30 6496 H 674.577 -3.54628 2.0175 0
M  V30 6497 H 673.252 -2.90582 2.97548 0
M  V30 6498 H 671.829 -3.51399 1.24794 0
M  V30 6499 N 674.014 -1.12206 -1.10668 0
M  V30 6500 C 675.425 -0.890657 -1.64086 0
M  V30 6501 C 675.776 0.575502 -1.8757 0
M  V30 6502 O 674.901 1.4394 -1.61587 0
M  V30 6503 C 675.496 -1.61029 -2.98085 0
M  V30 6504 C 674.055 -1.4251 -3.48379 0
M  V30 6505 C 673.202 -1.64778 -2.23033 0
M  V30 6506 H 676.153 -1.27718 -0.94201 0
M  V30 6507 H 676.174 -1.05993 -3.65439 0
M  V30 6508 H 675.686 -2.67735 -2.80962 0
M  V30 6509 H 673.787 -0.380497 -3.70652 0
M  V30 6510 H 673.9 -2.17959 -4.26651 0
M  V30 6511 H 672.264 -1.07171 -2.31055 0
M  V30 6512 H 673.047 -2.72776 -2.08443 0
M  V30 6513 N 675.492 1.28418 -0.913599 0
M  V30 6514 C 676.732 1.96756 -0.553771 0
M  V30 6515 C 677.096 1.70334 0.886013 0
M  V30 6516 O 678.297 2.32242 1.35341 0
M  V30 6517 C 676.568 3.47041 -0.854249 0
M  V30 6518 S 678.127 4.34667 -0.600816 0
M  V30 6519 H 674.945 0.680831 -0.204915 0
M  V30 6520 H 677.547 1.55947 -1.17902 0
M  V30 6521 H 676.251 3.63766 -1.90007 0
M  V30 6522 H 675.782 3.92797 -0.217651 0
M  V30 6523 H 677.797 4.93166 0.547906 0
M  V30 6524 N 676.97 0.677563 1.42291 0
M  V30 6525 C 677.92 -0.0218641 2.2799 0
M  V30 6526 C 678.904 -0.770816 1.41235 0
M  V30 6527 O 680.096 -0.649273 1.64662 0
M  V30 6528 C 677.225 -0.970449 3.29298 0
M  V30 6529 C 676.311 -0.218695 4.23536 0
M  V30 6530 N 676.702 0.777908 4.99782 0
M  V30 6531 C 675 -0.456748 4.43655 0
M  V30 6532 C 675.701 1.22632 5.68627 0
M  V30 6533 N 674.677 0.55573 5.40752 0
M  V30 6534 H 678.479 0.742516 2.84366 0
M  V30 6535 H 675.993 0.506862 1.54288 0
M  V30 6536 H 677.99 -1.48652 3.89497 0
M  V30 6537 H 676.65 -1.73463 2.74483 0
M  V30 6538 H 677.661 1.15754 5.04798 0
M  V30 6539 H 674.338 -1.20021 3.99877 0
M  V30 6540 H 675.728 2.05231 6.39789 0
M  V30 6541 N 678.448 -1.51871 0.421078 0
M  V30 6542 C 679.398 -2.24171 -0.416111 0
M  V30 6543 C 680.382 -1.25763 -1.00362 0
M  V30 6544 O 681.574 -1.5094 -0.924452 0
M  V30 6545 C 678.703 -3.07533 -1.52571 0
M  V30 6546 C 677.789 -4.1336 -0.948399 0
M  V30 6547 N 678.18 -5.05704 -0.0987933 0
M  V30 6548 C 676.478 -4.29055 -1.21768 0
M  V30 6549 C 677.179 -5.8127 0.223705 0
M  V30 6550 N 676.155 -5.4221 -0.388524 0
M  V30 6551 H 679.957 -2.92925 0.239166 0
M  V30 6552 H 677.471 -1.60732 0.232191 0
M  V30 6553 H 679.468 -3.57893 -2.13819 0
M  V30 6554 H 678.128 -2.4032 -2.18349 0
M  V30 6555 H 679.139 -5.17214 0.266428 0
M  V30 6556 H 675.816 -3.73071 -1.87416 0
M  V30 6557 H 677.206 -6.65653 0.914076 0
M  V30 6558 N 679.926 -0.151884 -1.56866 0
M  V30 6559 C 681.174 0.497021 -1.95893 0
M  V30 6560 C 681.495 1.65078 -1.03799 0
M  V30 6561 O 680.765 1.95642 -0.10049 0
M  V30 6562 H 679.345 0.186603 -0.723318 0
M  V30 6563 H 682.007 -0.228525 -1.93556 0
M  V30 6564 H 681.103 0.869933 -2.99731 0
M  V30 6565 N 681.404 1.57128 0.121893 0
M  V30 6566 C 682.681 1.75664 0.860327 0
M  V30 6567 C 683.061 0.726585 1.98202 0
M  V30 6568 O 682.409 -0.24999 2.27128 0
M  V30 6569 C 682.619 3.20571 1.37968 0
M  V30 6570 C 683.967 3.82988 1.83317 0
M  V30 6571 O 684.991 3.24156 1.47654 0
M  V30 6572 O 683.85 4.86393 2.49168 0
M  V30 6573 H 680.944 0.719153 0.408348 0
M  V30 6574 H 683.49 1.6937 0.105859 0
M  V30 6575 H 682.262 3.87056 0.57477 0
M  V30 6576 H 681.885 3.31392 2.19694 0
M  V30 6577 N 682.882 -0.391992 1.52647 0
M  V30 6578 C 684.122 -1.1463 1.69232 0
M  V30 6579 C 684.486 -1.87312 0.421684 0
M  V30 6580 O 685.687 -2.64768 0.463852 0
M  V30 6581 C 683.958 -2.10088 2.89133 0
M  V30 6582 S 685.517 -2.93395 3.2629 0
M  V30 6583 H 682.335 -0.388076 0.59575 0
M  V30 6584 H 684.937 -0.431149 1.90687 0
M  V30 6585 H 683.641 -1.55408 3.79837 0
M  V30 6586 H 683.172 -2.86116 2.70003 0
M  V30 6587 H 685.187 -4.12193 2.76244 0
M  V30 6588 N 684.36 -1.4356 -0.65026 0
M  V30 6589 C 685.606 -1.45549 -1.41221 0
M  V30 6590 C 685.939 -0.0805472 -1.94033 0
M  V30 6591 O 685.214 0.899043 -1.72475 0
M  V30 6592 C 685.497 -2.50028 -2.59148 0
M  V30 6593 C 685.35 -3.96808 -2.1181 0
M  V30 6594 C 686.669 -2.51212 -3.61359 0
M  V30 6595 H 683.788 -0.529967 -0.512156 0
M  V30 6596 H 686.43 -1.75127 -0.736933 0
M  V30 6597 H 684.58 -2.24937 -3.16758 0
M  V30 6598 H 686.252 -4.32966 -1.59178 0
M  V30 6599 H 684.495 -4.09498 -1.43156 0
M  V30 6600 H 685.166 -4.6553 -2.96625 0
M  V30 6601 H 687.642 -2.73583 -3.13515 0
M  V30 6602 H 686.518 -3.26252 -4.41419 0
M  V30 6603 H 686.779 -1.54701 -4.1415 0
M  V30 6604 N 685.838 0.888903 -1.30139 0
M  V30 6605 C 686.786 2.0156 -1.16088 0
M  V30 6606 C 687.78 1.69239 -0.0737413 0
M  V30 6607 O 688.986 1.78468 -0.234313 0
M  V30 6608 H 685.361 0.660825 -0.358907 0
M  V30 6609 H 687.332 2.10547 -2.11453 0
M  V30 6610 C 686.081 3.36758 -0.865426 0
M  V30 6611 H 685.404 3.62137 -1.69402 0
M  V30 6612 H 686.844 4.16246 -0.807192 0
M  V30 6613 C 685.303 3.34124 0.431577 0
M  V30 6614 O 685.833 3.7445 1.45431 0
M  V30 6615 N 684.039 2.87229 0.441321 0
M  V30 6616 H 683.586 2.54609 -0.391433 0
M  V30 6617 H 683.544 2.8585 1.30909 0
M  V30 6618 N 687.317 1.12792 1.10072 0
M  V30 6619 C 688.566 0.880232 1.81479 0
M  V30 6620 C 688.879 -0.595575 1.86312 0
M  V30 6621 O 690.085 -0.959979 2.53962 0
M  V30 6622 C 688.541 1.52514 3.25987 0
M  V30 6623 C 688.149 3.036 3.29441 0
M  V30 6624 C 689.893 1.35788 4.02196 0
M  V30 6625 C 687.8 3.61007 4.68431 0
M  V30 6626 H 686.73 0.325654 0.680048 0
M  V30 6627 H 689.381 1.35485 1.23758 0
M  V30 6628 H 687.763 0.978188 3.83728 0
M  V30 6629 H 688.937 3.64819 2.81502 0
M  V30 6630 H 687.252 3.19765 2.66719 0
M  V30 6631 H 689.849 1.76096 5.0487 0
M  V30 6632 H 690.192 0.301972 4.15203 0
M  V30 6633 H 690.725 1.87426 3.50879 0
M  V30 6634 H 687.464 4.66375 4.60625 0
M  V30 6635 H 686.984 3.04564 5.16721 0
M  V30 6636 H 688.663 3.60289 5.37402 0
M  V30 6637 N 688.795 -1.27931 0.920396 0
M  V30 6638 C 690.206 -1.76707 0.602616 0
M  V30 6639 C 690.557 -1.75249 -0.882159 0
M  V30 6640 O 689.682 -1.35135 -1.69019 0
M  V30 6641 C 690.277 -3.20884 1.08714 0
M  V30 6642 C 688.836 -3.67356 0.820157 0
M  V30 6643 C 687.983 -2.47525 1.25006 0
M  V30 6644 H 690.934 -1.14301 1.10095 0
M  V30 6645 H 690.955 -3.78045 0.431535 0
M  V30 6646 H 690.467 -3.21913 2.1678 0
M  V30 6647 H 688.568 -3.7178 -0.247012 0
M  V30 6648 H 688.681 -4.57181 1.43257 0
M  V30 6649 H 687.045 -2.45765 0.668698 0
M  V30 6650 H 687.828 -2.51269 2.3392 0
M  V30 6651 N 690.273 -0.685099 -1.4193 0
M  V30 6652 C 691.521 -0.21124 -2.00993 0
M  V30 6653 C 691.842 1.18985 -1.54491 0
M  V30 6654 O 691.112 1.8009 -0.771 0
M  V30 6655 H 689.692 -0.0751059 -0.743215 0
M  V30 6656 H 692.354 -0.883915 -1.73704 0
M  V30 6657 H 691.45 -0.220513 -3.1132 0
M  V30 6658 N 691.751 1.51645 -0.429126 0
M  V30 6659 C 692.979 2.06433 0.138994 0
M  V30 6660 C 693.394 1.29735 1.37165 0
M  V30 6661 O 692.751 0.354638 1.79021 0
M  V30 6662 C 692.802 3.58439 0.469452 0
M  V30 6663 O 692.523 4.32238 -0.714273 0
M  V30 6664 C 694.024 4.29712 1.08914 0
M  V30 6665 H 691.244 0.6709 0.0115608 0
M  V30 6666 H 693.788 1.9532 -0.605843 0
M  V30 6667 H 691.943 3.69494 1.16419 0
M  V30 6668 H 692.357 5.22704 -0.433633 0
M  V30 6669 H 693.831 5.37182 1.27042 0
M  V30 6670 H 694.308 3.87473 2.06788 0
M  V30 6671 H 694.914 4.2308 0.434028 0
M  V30 6672 N 693.229 0.160201 1.56784 0
M  V30 6673 C 694.459 -0.493449 2.00621 0
M  V30 6674 C 694.867 -1.5809 1.03943 0
M  V30 6675 O 694.21 -1.83675 0.0305343 0
M  V30 6676 C 694.272 -1.14169 3.4089 0
M  V30 6677 C 693.936 -0.197243 4.56574 0
M  V30 6678 C 694.933 0.580174 5.16653 0
M  V30 6679 C 692.618 -0.0963038 5.02208 0
M  V30 6680 C 694.612 1.44584 6.20785 0
M  V30 6681 C 692.299 0.772959 6.06192 0
M  V30 6682 C 693.297 1.54263 6.65351 0
M  V30 6683 O 692.985 2.39738 7.67321 0
M  V30 6684 H 692.717 -0.131764 0.663034 0
M  V30 6685 H 695.271 0.255728 2.03802 0
M  V30 6686 H 693.501 -1.93877 3.34587 0
M  V30 6687 H 695.19 -1.69641 3.6875 0
M  V30 6688 H 695.956 0.5123 4.82287 0
M  V30 6689 H 691.835 -0.685143 4.5588 0
M  V30 6690 H 695.379 2.04706 6.66889 0
M  V30 6691 H 691.276 0.842077 6.39984 0
M  V30 6692 H 692.044 2.33131 7.84597 0
M  V30 6693 N 694.707 -1.5719 -0.113559 0
M  V30 6694 C 695.657 -1.97166 -1.14497 0
M  V30 6695 C 696.641 -0.847413 -1.36776 0
M  V30 6696 O 697.833 -1.11114 -1.37777 0
M  V30 6697 C 694.962 -2.38411 -2.47013 0
M  V30 6698 C 694.048 -3.5748 -2.28185 0
M  V30 6699 N 694.439 -4.72998 -1.79182 0
M  V30 6700 C 692.737 -3.63218 -2.58821 0
M  V30 6701 C 693.438 -5.55007 -1.74191 0
M  V30 6702 N 692.414 -4.9765 -2.18735 0
M  V30 6703 H 696.216 -2.83937 -0.758733 0
M  V30 6704 H 693.73 -1.59191 -0.321234 0
M  V30 6705 H 695.727 -2.65269 -3.21618 0
M  V30 6706 H 694.387 -1.53007 -2.8639 0
M  V30 6707 H 695.398 -4.96109 -1.48649 0
M  V30 6708 H 692.075 -2.88434 -3.01847 0
M  V30 6709 H 693.465 -6.57678 -1.37512 0
M  V30 6710 N 696.185 0.383891 -1.52853 0
M  V30 6711 C 697.425 1.13731 -1.69837 0
M  V30 6712 C 697.789 1.87086 -0.431611 0
M  V30 6713 O 698.99 2.64518 -0.477886 0
M  V30 6714 C 697.261 2.08551 -2.90243 0
M  V30 6715 S 698.82 2.9166 -3.27841 0
M  V30 6716 H 695.638 0.384911 -0.5978 0
M  V30 6717 H 698.24 0.42103 -1.90913 0
M  V30 6718 H 696.944 1.53392 -3.80656 0
M  V30 6719 H 696.475 2.8468 -2.71516 0
M  V30 6720 H 698.49 4.10723 -2.78426 0
M  V30 6721 N 697.663 1.43903 0.642637 0
M  V30 6722 C 699.079 1.27536 0.959519 0
M  V30 6723 C 699.279 0.202751 2.00477 0
M  V30 6724 O 698.335 -0.415256 2.49062 0
M  V30 6725 C 699.648 2.6432 1.43372 0
M  V30 6726 C 701.196 2.71937 1.54981 0
M  V30 6727 C 701.671 4.09164 2.05789 0
M  V30 6728 N 703.162 4.11282 2.13076 0
M  V30 6729 C 703.897 5.14303 2.53534 0
M  V30 6730 N 703.393 6.27693 2.93212 0
M  V30 6731 N 705.186 5.01657 2.53567 0
M  V30 6732 H 697.337 2.12344 -0.0488376 0
M  V30 6733 H 699.6 0.947124 0.0407559 0
M  V30 6734 H 699.306 3.43826 0.740048 0
M  V30 6735 H 699.18 2.90432 2.40685 0
M  V30 6736 H 701.567 1.92757 2.23448 0
M  V30 6737 H 701.648 2.49578 0.560739 0
M  V30 6738 H 701.292 4.88815 1.37921 0
M  V30 6739 H 701.222 4.28893 3.05546 0
M  V30 6740 H 703.713 3.2944 1.85143 0
M  V30 6741 H 704.026 7.02125 3.22863 0
M  V30 6742 H 702.371 6.31149 2.90991 0
M  V30 6743 H 705.562 4.12134 2.21952 0
M  V30 6744 H 705.735 5.82072 2.84774 0
M  V30 6745 N 699.141 -0.881989 1.30609 0
M  V30 6746 C 700.381 -1.64817 1.20891 0
M  V30 6747 C 700.745 -1.90593 -0.232043 0
M  V30 6748 O 701.946 -2.64964 -0.452516 0
M  V30 6749 C 700.217 -2.95006 2.01758 0
M  V30 6750 S 701.776 -3.85953 2.08771 0
M  V30 6751 H 698.594 -0.565651 0.430767 0
M  V30 6752 H 701.196 -1.04665 1.65122 0
M  V30 6753 H 699.9 -2.73973 3.0556 0
M  V30 6754 H 699.431 -3.60189 1.582 0
M  V30 6755 H 701.446 -4.81037 1.21727 0
M  V30 6756 N 700.619 -1.13374 -1.09472 0
M  V30 6757 C 701.849 -0.917019 -1.85133 0
M  V30 6758 C 702.257 0.537568 -1.81402 0
M  V30 6759 O 701.6 1.38385 -1.20811 0
M  V30 6760 C 701.662 -1.32646 -3.34134 0
M  V30 6761 C 701.326 -2.79437 -3.61613 0
M  V30 6762 C 702.323 -3.77596 -3.57375 0
M  V30 6763 C 700.008 -3.16586 -3.89973 0
M  V30 6764 C 702.002 -5.10916 -3.81108 0
M  V30 6765 C 699.689 -4.50085 -4.13361 0
M  V30 6766 C 700.687 -5.47059 -4.0892 0
M  V30 6767 O 700.375 -6.78149 -4.31705 0
M  V30 6768 H 700.107 -0.326997 -0.591649 0
M  V30 6769 H 702.661 -1.51002 -1.39239 0
M  V30 6770 H 700.891 -0.676719 -3.80733 0
M  V30 6771 H 702.58 -1.08229 -3.91205 0
M  V30 6772 H 703.346 -3.50242 -3.35493 0
M  V30 6773 H 699.225 -2.41707 -3.92554 0
M  V30 6774 H 702.769 -5.86597 -3.77558 0
M  V30 6775 H 698.666 -4.77163 -4.34724 0
M  V30 6776 H 699.434 -6.84244 -4.49168 0
M  V30 6777 N 702.098 1.27442 -0.927168 0
M  V30 6778 C 703.509 1.76385 -0.611979 0
M  V30 6779 C 703.86 1.75715 0.872853 0
M  V30 6780 O 702.985 1.3603 1.683 0
M  V30 6781 C 703.58 3.20303 -1.10414 0
M  V30 6782 C 702.139 3.66916 -0.839628 0
M  V30 6783 C 701.286 2.46859 -1.26317 0
M  V30 6784 H 704.237 1.13716 -1.107 0
M  V30 6785 H 704.258 3.77811 -0.451578 0
M  V30 6786 H 703.77 3.20759 -2.18484 0
M  V30 6787 H 701.871 3.71906 0.227292 0
M  V30 6788 H 701.984 4.56415 -1.45679 0
M  V30 6789 H 700.348 2.45407 -0.681723 0
M  V30 6790 H 701.131 2.50025 -2.3525 0
M  V30 6791 N 703.576 0.692616 1.41565 0
M  V30 6792 C 704.824 0.221896 2.00878 0
M  V30 6793 C 705.145 -1.18164 1.5512 0
M  V30 6794 O 704.415 -1.79679 0.78054 0
M  V30 6795 H 702.995 0.0790463 0.742806 0
M  V30 6796 H 705.657 0.893115 1.73232 0
M  V30 6797 H 704.753 0.23702 3.11199 0
M  V30 6798 N 705.054 -1.51416 0.437162 0
M  V30 6799 C 706.301 -2.02086 -0.129364 0
M  V30 6800 C 706.629 -1.32133 -1.42728 0
M  V30 6801 O 705.884 -0.424916 -1.91031 0
M  V30 6802 C 706.183 -3.55203 -0.39564 0
M  V30 6803 C 705.849 -4.43447 0.81644 0
M  V30 6804 C 704.511 -4.67285 1.14884 0
M  V30 6805 C 706.863 -4.95219 1.62503 0
M  V30 6806 C 704.191 -5.40141 2.29052 0
M  V30 6807 C 706.543 -5.69327 2.7577 0
M  V30 6808 C 705.207 -5.91429 3.09464 0
M  V30 6809 H 704.477 -0.739486 -0.0473375 0
M  V30 6810 H 707.124 -1.82368 0.584321 0
M  V30 6811 H 705.429 -3.73252 -1.19121 0
M  V30 6812 H 707.126 -3.91944 -0.847399 0
M  V30 6813 H 703.716 -4.2509 0.547422 0
M  V30 6814 H 707.9 -4.76686 1.38144 0
M  V30 6815 H 703.156 -5.55468 2.55471 0
M  V30 6816 H 707.33 -6.08433 3.38795 0
M  V30 6817 H 704.957 -6.47662 3.98042 0
M  V30 6818 N 706.532 -0.168513 -1.56696 0
M  V30 6819 C 707.464 0.794249 -2.14998 0
M  V30 6820 C 708.477 1.1957 -1.10485 0
M  V30 6821 O 709.666 1.13604 -1.37682 0
M  V30 6822 C 706.766 2.08018 -2.67547 0
M  V30 6823 C 705.939 1.84274 -3.96689 0
M  V30 6824 C 704.998 2.97059 -4.3433 0
M  V30 6825 O 704.024 2.67815 -5.02259 0
M  V30 6826 N 705.226 4.24775 -3.9566 0
M  V30 6827 H 707.991 0.295832 -2.98236 0
M  V30 6828 H 705.552 0.0143611 -1.61894 0
M  V30 6829 H 707.544 2.82559 -2.89729 0
M  V30 6830 H 706.114 2.49059 -1.88914 0
M  V30 6831 H 705.334 0.936528 -3.82914 0
M  V30 6832 H 706.622 1.65773 -4.81037 0
M  V30 6833 H 706.02 4.51395 -3.40968 0
M  V30 6834 H 704.577 4.96027 -4.22848 0
M  V30 6835 N 708.01 1.57248 0.105221 0
M  V30 6836 C 708.973 2.00388 1.11252 0
M  V30 6837 C 709.973 0.89594 1.33527 0
M  V30 6838 O 711.163 1.16166 1.29811 0
M  V30 6839 C 708.295 2.35589 2.46395 0
M  V30 6840 H 709.488 2.90591 0.741424 0
M  V30 6841 H 707.041 1.52332 0.349956 0
M  V30 6842 H 707.776 1.4831 2.884 0
M  V30 6843 H 707.561 3.16408 2.31578 0
M  V30 6844 H 709.051 2.69658 3.18864 0
M  V30 6845 N 709.488 -0.375779 1.53054 0
M  V30 6846 C 710.716 -1.14036 1.72637 0
M  V30 6847 C 711.131 -1.83342 0.450687 0
M  V30 6848 O 710.488 -1.7318 -0.575749 0
M  V30 6849 C 710.539 -2.17841 2.88492 0
M  V30 6850 O 710.26 -1.51358 4.11123 0
M  V30 6851 C 711.761 -3.06924 3.19863 0
M  V30 6852 H 708.981 -0.341386 0.577665 0
M  V30 6853 H 711.525 -0.437809 1.99759 0
M  V30 6854 H 709.68 -2.8371 2.63794 0
M  V30 6855 H 710.094 -2.20439 4.75928 0
M  V30 6856 H 711.568 -3.75763 4.04359 0
M  V30 6857 H 712.045 -3.71169 2.34798 0
M  V30 6858 H 712.651 -2.46684 3.46449 0
M  V30 6859 N 710.966 -1.44241 -0.634997 0
M  V30 6860 C 712.377 -1.41622 -1.21655 0
M  V30 6861 C 712.728 -0.129584 -1.95772 0
M  V30 6862 O 711.853 0.770225 -2.02229 0
M  V30 6863 C 712.448 -2.56557 -2.21278 0
M  V30 6864 C 711.007 -2.57145 -2.7487 0
M  V30 6865 C 710.154 -2.33354 -1.49804 0
M  V30 6866 H 713.105 -1.52878 -0.425905 0
M  V30 6867 H 713.126 -2.29089 -3.03807 0
M  V30 6868 H 712.638 -3.50186 -1.67306 0
M  V30 6869 H 710.739 -1.67447 -3.32855 0
M  V30 6870 H 710.852 -3.55507 -3.21172 0
M  V30 6871 H 709.216 -1.82372 -1.77799 0
M  V30 6872 H 709.999 -3.29092 -0.977402 0
M  V30 6873 N 712.444 0.87505 -1.31075 0
M  V30 6874 C 713.672 1.66058 -1.23419 0
M  V30 6875 C 714.087 1.87723 0.201347 0
M  V30 6876 O 713.444 1.43178 1.13165 0
M  V30 6877 C 713.495 3.03142 -1.96945 0
M  V30 6878 O 713.216 2.82448 -3.34895 0
M  V30 6879 C 714.717 3.97583 -1.96067 0
M  V30 6880 H 711.937 0.517868 -0.426677 0
M  V30 6881 H 714.481 1.09258 -1.72867 0
M  V30 6882 H 712.636 3.56645 -1.51271 0
M  V30 6883 H 713.05 3.69483 -3.72267 0
M  V30 6884 H 714.524 4.91104 -2.52034 0
M  V30 6885 H 715.001 4.2898 -0.941961 0
M  V30 6886 H 715.607 3.50015 -2.41597 0
M  V30 6887 N 713.922 1.13953 1.08869 0
M  V30 6888 C 715.338 0.878924 1.33218 0
M  V30 6889 C 715.538 -0.482478 1.95638 0
M  V30 6890 O 714.594 -1.22778 2.2064 0
M  V30 6891 C 715.907 2.00798 2.23832 0
M  V30 6892 C 717.455 2.04073 2.37325 0
M  V30 6893 C 717.93 3.16258 3.31278 0
M  V30 6894 N 719.421 3.15805 3.38853 0
M  V30 6895 C 720.156 3.99249 4.11567 0
M  V30 6896 N 719.652 4.92721 4.87029 0
M  V30 6897 N 721.445 3.87327 4.0735 0
M  V30 6898 H 713.596 2.01645 0.66731 0
M  V30 6899 H 715.859 0.878395 0.356547 0
M  V30 6900 H 715.565 2.98986 1.85203 0
M  V30 6901 H 715.439 1.92704 3.24261 0
M  V30 6902 H 717.826 1.06495 2.75214 0
M  V30 6903 H 717.907 2.16239 1.36654 0
M  V30 6904 H 717.551 4.14079 2.9411 0
M  V30 6905 H 717.481 3.0133 4.31866 0
M  V30 6906 H 719.972 2.48102 2.8505 0
M  V30 6907 H 720.285 5.52867 5.39961 0
M  V30 6908 H 718.63 4.96723 4.86098 0
M  V30 6909 H 721.821 3.13627 3.475 0
M  V30 6910 H 721.994 4.52585 4.63757 0
M  V30 6911 N 715.4 -1.26948 0.933913 0
M  V30 6912 C 716.332 -2.25768 0.395137 0
M  V30 6913 C 717.345 -1.55637 -0.477585 0
M  V30 6914 O 718.534 -1.76142 -0.289204 0
M  V30 6915 C 715.634 -3.35874 -0.451882 0
M  V30 6916 C 714.807 -4.3554 0.40299 0
M  V30 6917 C 713.866 -5.24809 -0.3824 0
M  V30 6918 O 712.892 -5.68805 0.212057 0
M  V30 6919 N 714.094 -5.55636 -1.68072 0
M  V30 6920 H 716.859 -2.72634 1.24463 0
M  V30 6921 H 714.42 -1.40639 0.802008 0
M  V30 6922 H 716.412 -3.92542 -0.984516 0
M  V30 6923 H 714.982 -2.8856 -1.20215 0
M  V30 6924 H 714.202 -3.78047 1.11688 0
M  V30 6925 H 715.49 -4.99131 0.987201 0
M  V30 6926 H 714.888 -5.2176 -2.18592 0
M  V30 6927 H 713.445 -6.14978 -2.15975 0
M  V30 6928 N 716.879 -0.700114 -1.41195 0
M  V30 6929 C 717.842 -0.0465706 -2.29153 0
M  V30 6930 C 718.842 0.703302 -1.44604 0
M  V30 6931 O 720.032 0.537513 -1.657 0
M  V30 6932 C 717.164 0.944324 -3.2756 0
M  V30 6933 H 718.357 -0.821064 -2.88442 0
M  V30 6934 H 715.91 -0.463869 -1.49258 0
M  V30 6935 H 716.645 1.74642 -2.73259 0
M  V30 6936 H 716.43 0.409701 -3.89954 0
M  V30 6937 H 717.92 1.39925 -3.9346 0
M  V30 6938 N 718.357 1.51182 -0.445186 0
M  V30 6939 C 719.597 2.04061 0.117717 0
M  V30 6940 C 719.961 1.32158 1.39278 0
M  V30 6941 O 721.162 1.75452 2.03642 0
M  V30 6942 C 719.433 3.55933 0.323445 0
M  V30 6943 S 720.992 4.30516 0.848627 0
M  V30 6944 H 717.81 0.710442 0.028165 0
M  V30 6945 H 720.412 1.85858 -0.606391 0
M  V30 6946 H 719.116 4.0583 -0.610764 0
M  V30 6947 H 718.647 3.78444 1.07441 0
M  V30 6948 H 720.662 4.48382 2.12528 0
M  V30 6949 N 719.835 0.176821 1.56605 0
M  V30 6950 C 721.081 -0.467406 1.9734 0
M  V30 6951 C 721.414 -1.62523 1.06301 0
M  V30 6952 O 720.689 -1.94182 0.11125 0
M  V30 6953 C 720.972 -0.945106 3.47476 0
M  V30 6954 C 720.825 0.213273 4.49294 0
M  V30 6955 C 722.144 -1.8169 4.00845 0
M  V30 6956 H 719.263 -0.168426 0.717497 0
M  V30 6957 H 721.905 0.264065 1.88156 0
M  V30 6958 H 720.055 -1.56841 3.55434 0
M  V30 6959 H 721.727 0.850508 4.53392 0
M  V30 6960 H 719.97 0.867918 4.25029 0
M  V30 6961 H 720.641 -0.163187 5.51759 0
M  V30 6962 H 723.117 -1.29139 3.95553 0
M  V30 6963 H 721.993 -2.12015 5.06301 0
M  V30 6964 H 722.254 -2.76463 3.44994 0
M  V30 6965 N 721.313 -1.57302 -0.09688 0
M  V30 6966 C 722.59 -1.7701 -0.832272 0
M  V30 6967 C 722.97 -0.758025 -1.97021 0
M  V30 6968 O 722.318 0.213824 -2.27497 0
M  V30 6969 C 722.528 -3.22725 -1.32851 0
M  V30 6970 C 723.876 -3.85856 -1.772 0
M  V30 6971 O 724.9 -3.26464 -1.42478 0
M  V30 6972 O 723.759 -4.90295 -2.41398 0
M  V30 6973 H 720.853 -0.725558 -0.396856 0
M  V30 6974 H 723.399 -1.69516 -0.0789005 0
M  V30 6975 H 722.171 -3.87921 -0.51312 0
M  V30 6976 H 721.794 -3.34845 -2.14394 0
M  V30 6977 N 722.791 0.367657 -1.53252 0
M  V30 6978 C 724.037 1.11216 -1.69584 0
M  V30 6979 C 724.37 1.89026 -0.445269 0
M  V30 6980 O 723.645 1.86342 0.557404 0
M  V30 6981 C 723.928 2.07308 -2.94441 0
M  V30 6982 C 723.781 1.3312 -4.2965 0
M  V30 6983 C 725.1 3.07459 -3.14892 0
M  V30 6984 H 722.219 0.40294 -0.617096 0
M  V30 6985 H 724.861 0.393201 -1.85887 0
M  V30 6986 H 723.011 2.68617 -2.80673 0
M  V30 6987 H 724.683 0.746111 -4.55226 0
M  V30 6988 H 722.926 0.633051 -4.29156 0
M  V30 6989 H 723.597 2.03443 -5.13142 0
M  V30 6990 H 726.073 2.56252 -3.27832 0
M  V30 6991 H 724.949 3.71919 -4.03693 0
M  V30 6992 H 725.21 3.77514 -2.30077 0
M  V30 6993 N 724.269 1.44576 0.627338 0
M  V30 6994 C 725.546 1.38033 1.38586 0
M  V30 6995 C 725.926 0.0409468 2.1106 0
M  V30 6996 O 725.274 -0.976582 2.0658 0
M  V30 6997 C 725.484 2.58102 2.34913 0
M  V30 6998 C 726.832 3.02332 2.98129 0
M  V30 6999 O 727.856 2.58334 2.45238 0
M  V30 7000 O 726.715 3.78628 3.94085 0
M  V30 7001 H 723.809 0.546801 0.620434 0
M  V30 7002 H 726.355 1.56672 0.652077 0
M  V30 7003 H 725.127 3.4719 1.80485 0
M  V30 7004 H 724.75 2.41696 3.15703 0
M  V30 7005 N 725.747 -0.868086 1.31537 0
M  V30 7006 C 726.657 -2.00801 1.21311 0
M  V30 7007 C 727.673 -1.73518 0.129431 0
M  V30 7008 O 728.849 -1.98378 0.347588 0
M  V30 7009 C 725.914 -3.3419 0.922935 0
M  V30 7010 C 724.975 -3.74783 2.0937 0
M  V30 7011 C 724.208 -5.01807 1.81728 0
M  V30 7012 O 724.431 -5.65404 0.753313 0
M  V30 7013 O 723.365 -5.39213 2.67457 0
M  V30 7014 H 727.191 -2.12361 2.17109 0
M  V30 7015 H 724.776 -0.996684 1.11295 0
M  V30 7016 H 726.658 -4.14174 0.777033 0
M  V30 7017 H 725.333 -3.237 -0.00500301 0
M  V30 7018 H 724.24 -2.95432 2.29501 0
M  V30 7019 H 725.573 -3.89902 3.00396 0
M  V30 7020 N 727.225 -1.14528 -1.08264 0
M  V30 7021 C 728.465 -0.924808 -1.82282 0
M  V30 7022 C 728.829 0.538881 -1.84283 0
M  V30 7023 O 730.03 0.877355 -2.54079 0
M  V30 7024 C 728.301 -1.51102 -3.23887 0
M  V30 7025 S 729.86 -1.43232 -4.14765 0
M  V30 7026 H 726.678 -0.333052 -0.62817 0
M  V30 7027 H 729.28 -1.45905 -1.30123 0
M  V30 7028 H 727.984 -2.56942 -3.20014 0
M  V30 7029 H 727.515 -0.975234 -3.8112 0
M  V30 7030 H 729.53 -0.418843 -4.94429 0
M  V30 7031 N 728.703 1.26451 -0.940633 0
M  V30 7032 C 729.952 1.93071 -0.583656 0
M  V30 7033 C 730.265 1.74618 0.881366 0
M  V30 7034 O 731.471 2.35689 1.34769 0
M  V30 7035 C 729.927 3.45927 -0.993106 0
M  V30 7036 C 729.535 3.73115 -2.4797 0
M  V30 7037 C 731.279 4.18554 -0.707998 0
M  V30 7038 C 729.186 5.19408 -2.82788 0
M  V30 7039 H 728.116 0.722824 -0.214572 0
M  V30 7040 H 730.767 1.43538 -1.1432 0
M  V30 7041 H 729.149 3.94341 -0.362099 0
M  V30 7042 H 730.323 3.35408 -3.15971 0
M  V30 7043 H 728.638 3.13719 -2.73805 0
M  V30 7044 H 731.235 5.26293 -0.94447 0
M  V30 7045 H 731.578 4.14782 0.355225 0
M  V30 7046 H 732.111 3.76003 -1.2987 0
M  V30 7047 H 728.85 5.28281 -3.88071 0
M  V30 7048 H 728.37 5.58214 -2.19449 0
M  V30 7049 H 730.049 5.87407 -2.71224 0
M  V30 7050 N 730.181 0.707592 1.40822 0
M  V30 7051 C 731.427 0.244031 2.01326 0
M  V30 7052 C 731.76 -1.15722 1.55955 0
M  V30 7053 O 731.035 -1.78347 0.776044 0
M  V30 7054 C 731.318 0.315128 3.58718 0
M  V30 7055 C 731.171 1.75419 4.14184 0
M  V30 7056 C 732.49 -0.318251 4.38948 0
M  V30 7057 H 729.609 0.0901471 0.731466 0
M  V30 7058 H 732.251 0.898584 1.67408 0
M  V30 7059 H 730.401 -0.242176 3.87744 0
M  V30 7060 H 732.073 2.36626 3.95987 0
M  V30 7061 H 730.316 2.28449 3.68773 0
M  V30 7062 H 730.987 1.75538 5.23345 0
M  V30 7063 H 733.463 0.156514 4.15806 0
M  V30 7064 H 732.339 -0.238019 5.48384 0
M  V30 7065 H 732.6 -1.40067 4.19325 0
M  V30 7066 N 731.66 -1.50943 0.453197 0
M  V30 7067 C 732.885 -2.07116 -0.108463 0
M  V30 7068 C 733.31 -1.31681 -1.3432 0
M  V30 7069 O 732.668 -0.359256 -1.77705 0
M  V30 7070 C 732.716 -3.58447 -0.393424 0
M  V30 7071 O 731.82 -3.85038 -1.47714 0
M  V30 7072 H 731.161 -0.66398 0.0050993 0
M  V30 7073 H 733.691 -1.94362 0.639095 0
M  V30 7074 H 733.701 -4.02961 -0.639222 0
M  V30 7075 H 732.376 -4.12774 0.508946 0
M  V30 7076 H 730.953 -3.52376 -1.22006 0
M  V30 7077 N 733.138 -0.185124 -1.56509 0
M  V30 7078 C 734.386 0.455357 -1.96903 0
M  V30 7079 C 734.707 1.62839 -1.07277 0
M  V30 7080 O 733.977 1.95385 -0.141966 0
M  V30 7081 H 732.557 0.171218 -0.727113 0
M  V30 7082 H 735.219 -0.26953 -1.93027 0
M  V30 7083 H 734.315 0.80616 -3.01509 0
M  V30 7084 N 734.616 1.57351 0.0885366 0
M  V30 7085 C 735.864 1.86051 0.789262 0
M  V30 7086 C 736.185 0.774763 1.78948 0
M  V30 7087 O 735.455 -0.198324 1.94894 0
M  V30 7088 H 734.035 0.686508 0.294475 0
M  V30 7089 H 736.697 1.94779 0.0686055 0
M  V30 7090 H 735.793 2.83007 1.31581 0
M  V30 7091 N 736.094 -0.359525 1.53444 0
M  V30 7092 C 737.024 -1.44662 1.8329 0
M  V30 7093 C 738.005 -1.55617 0.68683 0
M  V30 7094 O 739.19 -1.70086 0.93725 0
M  V30 7095 C 736.32 -2.81923 2.02822 0
M  V30 7096 C 735.274 -2.85787 3.18606 0
M  V30 7097 C 734.6 -4.25781 3.23442 0
M  V30 7098 C 735.9 -2.52762 4.57065 0
M  V30 7099 H 737.594 -1.19934 2.74329 0
M  V30 7100 H 735.14 -0.575517 1.31999 0
M  V30 7101 H 737.093 -3.58005 2.22285 0
M  V30 7102 H 735.817 -3.08051 1.085 0
M  V30 7103 H 734.476 -2.12157 2.98973 0
M  V30 7104 H 734.124 -4.48994 2.26745 0
M  V30 7105 H 733.824 -4.29281 4.01238 0
M  V30 7106 H 735.348 -5.03727 3.45096 0
M  V30 7107 H 736.762 -3.18557 4.76649 0
M  V30 7108 H 735.159 -2.67569 5.37147 0
M  V30 7109 H 736.229 -1.47993 4.61764 0
M  V30 7110 N 737.572 -1.44907 -0.619662 0
M  V30 7111 C 738.812 -1.49822 -1.39042 0
M  V30 7112 C 739.176 -0.131803 -1.91547 0
M  V30 7113 O 740.377 -0.0556413 -2.68742 0
M  V30 7114 C 738.648 -2.53805 -2.5163 0
M  V30 7115 S 740.207 -2.77855 -3.3962 0
M  V30 7116 H 737.025 -0.529774 -0.474195 0
M  V30 7117 H 739.627 -1.81907 -0.716236 0
M  V30 7118 H 738.331 -3.51772 -2.11387 0
M  V30 7119 H 737.862 -2.23331 -3.23863 0
M  V30 7120 H 739.877 -2.10319 -4.49422 0
M  V30 7121 N 739.05 0.861098 -1.31996 0
M  V30 7122 C 740 1.95703 -1.1698 0
M  V30 7123 C 740.984 1.60709 -0.0784201 0
M  V30 7124 O 742.176 1.74365 -0.304262 0
M  V30 7125 C 739.305 3.31606 -0.888388 0
M  V30 7126 C 738.391 3.7284 -2.02117 0
M  V30 7127 N 738.782 3.85957 -3.26911 0
M  V30 7128 C 737.08 4.02419 -1.92289 0
M  V30 7129 C 737.781 4.21333 -4.01065 0
M  V30 7130 N 736.757 4.32502 -3.29307 0
M  V30 7131 H 740.559 2.03968 -2.11599 0
M  V30 7132 H 738.073 1.05245 -1.23682 0
M  V30 7133 H 740.07 4.09881 -0.761782 0
M  V30 7134 H 738.73 3.24662 0.0494898 0
M  V30 7135 H 739.741 3.70449 -3.61923 0
M  V30 7136 H 736.418 4.03814 -1.06022 0
M  V30 7137 H 737.808 4.39005 -5.08649 0
M  V30 7138 N 740.528 1.15101 1.07655 0
M  V30 7139 C 741.458 0.867864 2.16773 0
M  V30 7140 C 742.439 -0.180283 1.69142 0
M  V30 7141 O 743.624 -0.0353152 1.94168 0
M  V30 7142 C 740.754 0.35299 3.45501 0
M  V30 7143 C 739.708 1.33746 4.06566 0
M  V30 7144 C 739.034 0.681562 5.30338 0
M  V30 7145 C 740.334 2.7024 4.46954 0
M  V30 7146 H 742.028 1.78034 2.40716 0
M  V30 7147 H 739.574 0.857435 1.15689 0
M  V30 7148 H 741.527 0.142465 4.21159 0
M  V30 7149 H 740.251 -0.594945 3.21135 0
M  V30 7150 H 738.91 1.53429 3.32949 0
M  V30 7151 H 738.558 -0.272422 5.02262 0
M  V30 7152 H 738.258 1.33853 5.72151 0
M  V30 7153 H 739.782 0.48074 6.08705 0
M  V30 7154 H 741.196 2.5442 5.13754 0
M  V30 7155 H 739.593 3.32282 4.99709 0
M  V30 7156 H 740.663 3.26537 3.58471 0
M  V30 7157 N 742.006 -1.2595 0.947325 0
M  V30 7158 C 743.254 -1.93081 0.596996 0
M  V30 7159 C 743.575 -1.74632 -0.867672 0
M  V30 7160 O 742.845 -1.1056 -1.6172 0
M  V30 7161 H 741.425 -0.714542 0.217805 0
M  V30 7162 H 744.087 -1.53265 1.20398 0
M  V30 7163 H 743.183 -3.01134 0.82004 0
M  V30 7164 N 743.484 -0.715051 -1.40445 0
M  V30 7165 C 744.9 -0.388555 -1.54798 0
M  V30 7166 C 745.1 1.10271 -1.68649 0
M  V30 7167 O 744.156 1.88875 -1.67578 0
M  V30 7168 C 745.469 -1.15414 -2.77669 0
M  V30 7169 C 747.017 -1.14039 -2.91486 0
M  V30 7170 C 747.492 -1.88812 -4.1727 0
M  V30 7171 N 748.983 -1.85878 -4.24268 0
M  V30 7172 C 749.718 -2.40558 -5.20499 0
M  V30 7173 N 749.214 -3.03791 -6.22642 0
M  V30 7174 N 751.007 -2.30703 -5.12574 0
M  V30 7175 H 743.158 -1.68201 -1.297 0
M  V30 7176 H 745.421 -0.710915 -0.627139 0
M  V30 7177 H 745.127 -2.20853 -2.7371 0
M  V30 7178 H 745.001 -0.745412 -3.69761 0
M  V30 7179 H 747.388 -0.0941996 -2.9495 0
M  V30 7180 H 747.469 -1.58834 -2.00513 0
M  V30 7181 H 747.113 -2.93422 -4.14568 0
M  V30 7182 H 747.043 -1.41438 -5.0725 0
M  V30 7183 H 749.534 -1.39794 -3.51093 0
M  V30 7184 H 749.847 -3.43032 -6.92495 0
M  V30 7185 H 748.192 -3.07875 -6.23087 0
M  V30 7186 H 751.383 -1.80961 -4.31707 0
M  V30 7187 H 751.556 -2.73618 -5.87398 0
M  V30 7188 N 744.962 1.50701 -0.461195 0
M  V30 7189 C 746.202 2.04174 0.0960673 0
M  V30 7190 C 746.566 1.33628 1.37868 0
M  V30 7191 O 747.767 1.77602 2.0177 0
M  V30 7192 C 746.038 3.56256 0.285676 0
M  V30 7193 S 747.597 4.31392 0.802917 0
M  V30 7194 H 744.415 0.710701 0.0206282 0
M  V30 7195 H 747.017 1.85204 -0.62607 0
M  V30 7196 H 745.721 4.05159 -0.653773 0
M  V30 7197 H 745.252 3.79562 1.03421 0
M  V30 7198 H 747.267 4.50611 2.07761 0
M  V30 7199 N 746.441 0.193421 1.56409 0
M  V30 7200 C 747.687 -0.446449 1.97825 0
M  V30 7201 C 748.02 -1.61386 1.08019 0
M  V30 7202 O 747.295 -1.94053 0.131839 0
M  V30 7203 C 747.578 -0.908199 3.48459 0
M  V30 7204 C 747.431 0.260914 4.49043 0
M  V30 7205 C 748.75 -1.77428 4.0275 0
M  V30 7206 H 745.869 -0.160807 0.719243 0
M  V30 7207 H 748.511 0.284006 1.87865 0
M  V30 7208 H 746.661 -1.53062 3.57077 0
M  V30 7209 H 748.333 0.898548 4.52464 0
M  V30 7210 H 746.576 0.912949 4.24085 0
M  V30 7211 H 747.247 -0.104657 5.51901 0
M  V30 7212 H 749.723 -1.24936 3.96901 0
M  V30 7213 H 748.599 -2.06633 5.08521 0
M  V30 7214 H 748.86 -2.72788 3.47907 0
M  V30 7215 N 747.919 -1.57396 -0.0801906 0
M  V30 7216 C 748.867 -2.04136 -1.11495 0
M  V30 7217 C 749.861 -0.945137 -1.40583 0
M  V30 7218 O 751.067 -1.13028 -1.40088 0
M  V30 7219 H 747.442 -0.65076 -0.37685 0
M  V30 7220 H 749.413 -2.90205 -0.694526 0
M  V30 7221 C 748.162 -2.49399 -2.42272 0
M  V30 7222 H 747.485 -3.33339 -2.20737 0
M  V30 7223 H 748.925 -2.85864 -3.13142 0
M  V30 7224 C 747.384 -1.37341 -3.07635 0
M  V30 7225 O 747.914 -0.710829 -3.95361 0
M  V30 7226 N 746.12 -1.12064 -2.68123 0
M  V30 7227 H 745.667 -1.66126 -1.96875 0
M  V30 7228 H 745.625 -0.372916 -3.12181 0
M  V30 7229 N 749.397 0.351382 -1.53633 0
M  V30 7230 C 750.625 1.11275 -1.74429 0
M  V30 7231 C 751.04 1.82602 -0.479798 0
M  V30 7232 O 750.397 1.74074 0.548125 0
M  V30 7233 C 750.448 2.13223 -2.91921 0
M  V30 7234 O 750.169 1.44798 -4.13479 0
M  V30 7235 C 751.67 3.01797 -3.24706 0
M  V30 7236 H 748.89 0.332153 -0.583023 0
M  V30 7237 H 751.434 0.405974 -2.0043 0
M  V30 7238 H 749.589 2.79477 -2.68274 0
M  V30 7239 H 750.003 2.12839 -4.79374 0
M  V30 7240 H 751.477 3.69282 -4.10286 0
M  V30 7241 H 751.954 3.67387 -2.40673 0
M  V30 7242 H 752.56 2.41141 -3.5033 0
M  V30 7243 N 750.875 1.45233 0.611969 0
M  V30 7244 C 751.785 1.56098 1.7513 0
M  V30 7245 C 752.801 0.445646 1.68196 0
M  V30 7246 O 753.977 0.705718 1.88631 0
M  V30 7247 C 751.042 1.52052 3.11579 0
M  V30 7248 C 750.103 2.74589 3.29999 0
M  V30 7249 C 749.336 2.70726 4.59938 0
M  V30 7250 O 749.559 1.77806 5.41979 0
M  V30 7251 O 748.493 3.61864 4.80976 0
M  V30 7252 H 752.319 2.52392 1.68914 0
M  V30 7253 H 749.904 1.27695 0.775528 0
M  V30 7254 H 751.786 1.52387 3.92882 0
M  V30 7255 H 750.461 0.589085 3.18295 0
M  V30 7256 H 749.368 2.79817 2.48301 0
M  V30 7257 H 750.701 3.66843 3.28157 0
M  V30 7258 N 752.353 -0.854086 1.3245 0
M  V30 7259 C 753.601 -1.60513 1.228 0
M  V30 7260 C 753.922 -1.93865 -0.210073 0
M  V30 7261 O 753.192 -1.59673 -1.13496 0
M  V30 7262 H 751.772 -0.595099 0.451516 0
M  V30 7263 H 754.434 -1.0216 1.6598 0
M  V30 7264 H 753.53 -2.54182 1.81102 0
M  V30 7265 N 753.831 -1.1567 -1.07043 0
M  V30 7266 C 755.056 -0.957946 -1.83952 0
M  V30 7267 C 755.481 0.488807 -1.81638 0
M  V30 7268 O 754.839 1.34869 -1.21162 0
M  V30 7269 C 754.887 -1.48064 -3.288 0
M  V30 7270 O 753.991 -0.681921 -4.06723 0
M  V30 7271 H 753.332 -0.341453 -0.569479 0
M  V30 7272 H 755.862 -1.53728 -1.35015 0
M  V30 7273 H 755.872 -1.49484 -3.7963 0
M  V30 7274 H 754.547 -2.53388 -3.29799 0
M  V30 7275 H 753.124 -0.737612 -3.65532 0
M  V30 7276 N 755.309 1.25446 -0.953992 0
M  V30 7277 C 756.556 1.93143 -0.608429 0
M  V30 7278 C 756.884 1.74727 0.854451 0
M  V30 7279 O 756.139 1.0855 1.62836 0
M  V30 7280 C 756.438 3.45555 -0.912496 0
M  V30 7281 C 756.104 3.84126 -2.36131 0
M  V30 7282 C 754.766 3.94367 -2.75732 0
M  V30 7283 C 757.118 4.0324 -3.30223 0
M  V30 7284 C 754.446 4.21127 -4.08496 0
M  V30 7285 C 756.798 4.31493 -4.62598 0
M  V30 7286 C 755.462 4.3995 -5.01996 0
M  V30 7287 H 754.732 0.706762 -0.22264 0
M  V30 7288 H 757.379 1.49005 -1.20291 0
M  V30 7289 H 755.684 3.91091 -0.235618 0
M  V30 7290 H 757.381 3.9612 -0.623714 0
M  V30 7291 H 753.971 3.76711 -2.04418 0
M  V30 7292 H 758.155 3.94744 -3.00817 0
M  V30 7293 H 753.411 4.2589 -4.38665 0
M  V30 7294 H 757.585 4.45227 -5.35486 0
M  V30 7295 H 755.212 4.60439 -6.04896 0
M  V30 7296 N 756.787 0.722489 1.40064 0
M  V30 7297 C 757.719 0.0349057 2.29173 0
M  V30 7298 C 758.732 -0.716571 1.46182 0
M  V30 7299 O 759.921 -0.562806 1.69395 0
M  V30 7300 C 757.021 -0.974839 3.24577 0
M  V30 7301 C 756.194 -0.287471 4.36454 0
M  V30 7302 C 755.253 -1.20356 5.12251 0
M  V30 7303 O 754.279 -0.685753 5.65054 0
M  V30 7304 N 755.481 -2.53422 5.22262 0
M  V30 7305 H 758.246 0.800058 2.88824 0
M  V30 7306 H 755.807 0.57068 1.51509 0
M  V30 7307 H 757.799 -1.59002 3.72157 0
M  V30 7308 H 756.369 -1.6413 2.66046 0
M  V30 7309 H 755.589 0.508008 3.90913 0
M  V30 7310 H 756.877 0.189382 5.08447 0
M  V30 7311 H 756.275 -2.97981 4.80857 0
M  V30 7312 H 754.832 -3.10067 5.73325 0
M  V30 7313 N 758.265 -1.50454 0.469181 0
M  V30 7314 C 759.505 -2.04222 -0.0852381 0
M  V30 7315 C 759.869 -1.34357 -1.37158 0
M  V30 7316 O 761.07 -1.78669 -2.00825 0
M  V30 7317 C 759.341 -3.56403 -0.266778 0
M  V30 7318 S 760.9 -4.31811 -0.780028 0
M  V30 7319 H 757.718 -0.7108 -0.0168589 0
M  V30 7320 H 760.32 -1.8487 0.635883 0
M  V30 7321 H 759.024 -4.04807 0.67525 0
M  V30 7322 H 758.555 -3.80106 -1.01407 0
M  V30 7323 H 760.57 -4.51706 -2.05368 0
M  V30 7324 N 759.743 -0.201713 -1.56304 0
M  V30 7325 C 760.989 0.435952 -1.98059 0
M  V30 7326 C 761.322 1.60811 -1.08873 0
M  V30 7327 O 760.597 1.9398 -0.142128 0
M  V30 7328 C 760.88 0.889706 -3.48936 0
M  V30 7329 C 760.733 -0.284725 -4.48898 0
M  V30 7330 C 762.052 1.7529 -4.03685 0
M  V30 7331 H 759.171 0.15699 -0.720085 0
M  V30 7332 H 761.813 -0.293965 -1.87712 0
M  V30 7333 H 759.963 1.51166 -3.57884 0
M  V30 7334 H 761.635 -0.922531 -4.51981 0
M  V30 7335 H 759.878 -0.935427 -4.23594 0
M  V30 7336 H 760.549 0.0753865 -5.51949 0
M  V30 7337 H 763.025 1.2283 -3.97558 0
M  V30 7338 H 761.901 2.03933 -5.0961 0
M  V30 7339 H 762.162 2.70939 -3.49348 0
M  V30 7340 N 761.222 1.57436 0.0718424 0
M  V30 7341 C 762.462 1.89082 0.776351 0
M  V30 7342 C 762.826 0.795494 1.74745 0
M  V30 7343 O 764.027 0.995025 2.49705 0
M  V30 7344 C 762.298 3.25958 1.46582 0
M  V30 7345 S 763.857 3.79352 2.2054 0
M  V30 7346 H 760.675 0.662472 0.25817 0
M  V30 7347 H 763.277 1.95473 0.0324536 0
M  V30 7348 H 761.981 4.03577 0.745237 0
M  V30 7349 H 761.512 3.22764 2.24915 0
M  V30 7350 H 763.527 3.54634 3.47058 0
M  V30 7351 N 762.7 -0.34323 1.53817 0
M  V30 7352 C 763.648 -1.44176 1.82527 0
M  V30 7353 C 764.642 -1.54452 0.695772 0
M  V30 7354 O 765.848 -1.57072 0.879114 0
M  V30 7355 H 762.223 -0.480729 0.578277 0
M  V30 7356 H 764.194 -1.17176 2.74431 0
M  V30 7357 C 762.943 -2.80695 2.05197 0
M  V30 7358 H 762.266 -2.73554 2.91561 0
M  V30 7359 H 763.706 -3.56679 2.29251 0
M  V30 7360 C 762.165 -3.26322 0.837589 0
M  V30 7361 O 762.695 -4.01683 0.0371631 0
M  V30 7362 N 760.901 -2.83128 0.654724 0
M  V30 7363 H 760.448 -2.21965 1.30725 0
M  V30 7364 H 760.406 -3.14011 -0.156345 0
M  V30 7365 N 764.178 -1.45556 -0.604258 0
M  V30 7366 C 765.141 -1.54091 -1.69672 0
M  V30 7367 C 766.141 -0.420076 -1.55216 0
M  V30 7368 O 767.331 -0.683671 -1.60224 0
M  V30 7369 C 764.463 -1.44063 -3.08964 0
M  V30 7370 H 765.656 -2.51431 -1.6347 0
M  V30 7371 H 763.209 -1.33046 -0.820273 0
M  V30 7372 H 763.944 -0.479201 -3.2074 0
M  V30 7373 H 763.729 -2.25362 -3.20865 0
M  V30 7374 H 765.219 -1.53075 -3.88533 0
M  V30 7375 N 765.656 0.84705 -1.32902 0
M  V30 7376 C 766.904 1.5986 -1.2365 0
M  V30 7377 C 767.225 1.93974 0.199789 0
M  V30 7378 O 766.495 1.60273 1.12648 0
M  V30 7379 H 765.075 0.592696 -0.454665 0
M  V30 7380 H 767.737 1.01278 -1.66519 0
M  V30 7381 H 766.833 2.53218 -1.82448 0
M  V30 7382 N 767.134 1.16236 1.06428 0
M  V30 7383 C 768.381 0.943034 1.79201 0
M  V30 7384 C 768.709 -0.529243 1.87161 0
M  V30 7385 O 767.964 -1.40874 1.35842 0
M  V30 7386 C 768.263 1.51396 3.2375 0
M  V30 7387 C 767.929 3.00833 3.35873 0
M  V30 7388 C 766.591 3.41626 3.38888 0
M  V30 7389 C 768.943 3.96825 3.37904 0
M  V30 7390 C 766.271 4.77033 3.4155 0
M  V30 7391 C 768.623 5.32116 3.42104 0
M  V30 7392 C 767.287 5.72392 3.43401 0
M  V30 7393 H 766.557 0.34508 0.655744 0
M  V30 7394 H 769.204 1.44929 1.25171 0
M  V30 7395 H 767.509 0.929114 3.80624 0
M  V30 7396 H 769.206 1.31996 3.78653 0
M  V30 7397 H 765.796 2.68306 3.3423 0
M  V30 7398 H 769.98 3.66376 3.34787 0
M  V30 7399 H 765.236 5.07569 3.40858 0
M  V30 7400 H 769.41 6.06286 3.42623 0
M  V30 7401 H 767.037 6.77296 3.45216 0
M  V30 7402 N 768.612 -1.24939 0.960631 0
M  V30 7403 C 769.522 -2.29374 0.492435 0
M  V30 7404 C 770.538 -1.68262 -0.443154 0
M  V30 7405 O 771.714 -1.98875 -0.31793 0
M  V30 7406 C 768.779 -3.46023 -0.216626 0
M  V30 7407 C 767.84 -4.22557 0.757915 0
M  V30 7408 C 767.073 -5.33636 0.0825969 0
M  V30 7409 O 767.296 -5.59084 -1.13054 0
M  V30 7410 O 766.23 -5.96939 0.771177 0
M  V30 7411 H 770.056 -2.71525 1.36044 0
M  V30 7412 H 767.641 -1.30499 0.72735 0
M  V30 7413 H 769.523 -4.16885 -0.615241 0
M  V30 7414 H 768.198 -3.05862 -1.05971 0
M  V30 7415 H 767.105 -3.54099 1.20685 0
M  V30 7416 H 768.438 -4.66516 1.5692 0
M  V30 7417 N 770.09 -0.729906 -1.39679 0
M  V30 7418 C 771.02 -0.101618 -2.33279 0
M  V30 7419 C 772.001 0.729854 -1.53646 0
M  V30 7420 O 773.186 0.67587 -1.82059 0
M  V30 7421 C 770.316 0.81024 -3.37716 0
M  V30 7422 C 769.27 0.0833126 -4.27919 0
M  V30 7423 C 768.596 1.11185 -5.23012 0
M  V30 7424 C 769.896 -1.07107 -5.112 0
M  V30 7425 H 771.59 -0.883452 -2.86069 0
M  V30 7426 H 769.136 -0.426283 -1.37546 0
M  V30 7427 H 771.089 1.25927 -4.02145 0
M  V30 7428 H 769.813 1.62413 -2.83354 0
M  V30 7429 H 768.472 -0.346043 -3.64963 0
M  V30 7430 H 768.12 1.91917 -4.64948 0
M  V30 7431 H 767.82 0.63026 -5.8421 0
M  V30 7432 H 769.344 1.56068 -5.90318 0
M  V30 7433 H 770.758 -0.700726 -5.69002 0
M  V30 7434 H 769.155 -1.48196 -5.81514 0
M  V30 7435 H 770.225 -1.89513 -4.46332 0
M  V30 7436 N 771.568 1.50203 -0.477153 0
M  V30 7437 C 772.793 2.07263 0.0754986 0
M  V30 7438 C 773.218 1.33801 1.32208 0
M  V30 7439 O 772.576 0.387482 1.77111 0
M  V30 7440 C 772.624 3.59028 0.336348 0
M  V30 7441 O 771.728 3.87339 1.4157 0
M  V30 7442 H 771.069 0.663815 -0.015662 0
M  V30 7443 H 773.599 1.93321 -0.669936 0
M  V30 7444 H 773.609 4.03927 0.575034 0
M  V30 7445 H 772.284 4.11912 -0.574551 0
M  V30 7446 H 770.861 3.54272 1.16385 0
M  V30 7447 N 773.046 0.209999 1.56195 0
M  V30 7448 C 774.457 -0.299943 1.84275 0
M  V30 7449 C 774.808 -1.60314 1.1311 0
M  V30 7450 O 773.933 -2.1273 0.396874 0
M  V30 7451 C 774.528 -0.550986 3.3429 0
M  V30 7452 C 773.087 -1.00526 3.62728 0
M  V30 7453 C 772.234 -0.0619828 2.77231 0
M  V30 7454 H 775.185 0.433458 1.52666 0
M  V30 7455 H 775.206 -1.39846 3.53869 0
M  V30 7456 H 774.718 0.397669 3.86057 0
M  V30 7457 H 772.819 -1.96768 3.16407 0
M  V30 7458 H 772.932 -0.887664 4.70805 0
M  V30 7459 H 771.296 -0.566648 2.48317 0
M  V30 7460 H 772.079 0.881383 3.31793 0
M  V30 7461 N 774.524 -1.57472 -0.0634922 0
M  V30 7462 C 775.801 -1.78736 -0.794538 0
M  V30 7463 C 776.181 -0.799645 -1.95369 0
M  V30 7464 O 775.529 0.165521 -2.279 0
M  V30 7465 C 775.739 -3.25471 -1.25975 0
M  V30 7466 C 777.087 -3.89528 -1.68976 0
M  V30 7467 O 778.111 -3.29412 -1.35521 0
M  V30 7468 O 776.97 -4.95305 -2.30944 0
M  V30 7469 H 774.064 -0.733813 -0.381376 0
M  V30 7470 H 776.61 -1.69646 -0.0429258 0
M  V30 7471 H 775.382 -3.88922 -0.430721 0
M  V30 7472 H 775.005 -3.39317 -2.07243 0
M  V30 7473 N 776.003 0.335068 -1.53997 0
M  V30 7474 C 777.251 1.07223 -1.71312 0
M  V30 7475 C 777.572 1.88911 -0.483486 0
M  V30 7476 O 776.842 1.89344 0.50257 0
M  V30 7477 H 775.422 0.398846 -0.63161 0
M  V30 7478 H 778.084 0.374288 -1.91272 0
M  V30 7479 H 777.18 1.7448 -2.58772 0
M  V30 7480 N 777.481 1.45874 0.596531 0
M  V30 7481 C 778.428 1.55389 1.70655 0
M  V30 7482 C 779.398 0.399036 1.61236 0
M  V30 7483 O 780.583 0.61396 1.80652 0
M  V30 7484 C 777.723 1.53705 3.0898 0
M  V30 7485 C 776.836 2.79823 3.29125 0
M  V30 7486 C 775.971 2.69735 4.5762 0
M  V30 7487 C 775.01 3.90856 4.71061 0
M  V30 7488 N 774.147 3.79237 5.90867 0
M  V30 7489 H 778.987 2.50211 1.61859 0
M  V30 7490 H 776.524 1.24146 0.789069 0
M  V30 7491 H 778.482 1.50715 3.89026 0
M  V30 7492 H 777.112 0.624247 3.16706 0
M  V30 7493 H 776.164 2.92852 2.42779 0
M  V30 7494 H 777.476 3.69628 3.34927 0
M  V30 7495 H 776.63 2.64773 5.45875 0
M  V30 7496 H 775.369 1.77547 4.54234 0
M  V30 7497 H 774.374 3.96164 3.81227 0
M  V30 7498 H 775.599 4.84124 4.76236 0
M  V30 7499 H 773.545 2.89825 5.88504 0
M  V30 7500 H 773.462 4.62686 5.97877 0
M  V30 7501 H 774.73 3.78227 6.8159 0
M  V30 7502 N 778.959 -0.83999 1.33349 0
M  V30 7503 C 779.907 -1.97113 1.23488 0
M  V30 7504 C 780.901 -1.68849 0.136503 0
M  V30 7505 O 782.107 -1.77476 0.300389 0
M  V30 7506 H 778.482 -0.647049 0.383185 0
M  V30 7507 H 780.453 -2.02554 2.19122 0
M  V30 7508 C 779.202 -3.33314 0.989815 0
M  V30 7509 H 778.525 -3.556 1.82726 0
M  V30 7510 H 779.965 -4.12963 0.961123 0
M  V30 7511 C 778.424 -3.35496 -0.307272 0
M  V30 7512 O 778.954 -3.79589 -1.31434 0
M  V30 7513 N 777.16 -2.88669 -0.334414 0
M  V30 7514 H 776.707 -2.5298 0.485659 0
M  V30 7515 H 776.665 -2.90512 -1.20209 0
M  V30 7516 N 780.437 -1.16799 -1.0581 0
M  V30 7517 C 781.677 -0.963264 -1.80279 0
M  V30 7518 C 782.041 0.499671 -1.85384 0
M  V30 7519 O 783.242 0.823264 -2.55882 0
M  V30 7520 C 781.513 -1.57938 -3.20609 0
M  V30 7521 S 783.072 -1.51997 -4.11634 0
M  V30 7522 H 779.89 -0.346302 -0.620964 0
M  V30 7523 H 782.492 -1.48632 -1.26999 0
M  V30 7524 H 781.196 -2.63672 -3.14492 0
M  V30 7525 H 780.727 -1.05586 -3.78966 0
M  V30 7526 H 782.742 -0.523625 -4.93429 0
M  V30 7527 N 781.915 1.24427 -0.967243 0
M  V30 7528 C 783.161 1.92772 -0.629812 0
M  V30 7529 C 783.494 1.75436 0.832827 0
M  V30 7530 O 782.769 1.10716 1.59913 0
M  V30 7531 C 783.052 3.45798 -1.00477 0
M  V30 7532 C 782.905 3.72304 -2.52407 0
M  V30 7533 C 784.224 4.36787 -0.538999 0
M  V30 7534 H 781.343 0.700099 -0.230282 0
M  V30 7535 H 783.985 1.46805 -1.20616 0
M  V30 7536 H 782.135 3.8508 -0.514336 0
M  V30 7537 H 783.807 3.42584 -3.08924 0
M  V30 7538 H 782.05 3.17472 -2.95625 0
M  V30 7539 H 782.721 4.7937 -2.73693 0
M  V30 7540 H 785.197 4.04877 -0.959874 0
M  V30 7541 H 784.073 5.4259 -0.829926 0
M  V30 7542 H 784.334 4.38527 0.560923 0
M  V30 7543 N 783.393 0.737304 1.3929 0
M  V30 7544 C 784.67 0.212464 1.94443 0
M  V30 7545 C 785.05 -1.28621 1.67391 0
M  V30 7546 O 784.398 -2.0529 1.00342 0
M  V30 7547 C 784.608 0.548565 3.44662 0
M  V30 7548 C 785.956 0.499177 4.21656 0
M  V30 7549 O 786.98 0.485892 3.5287 0
M  V30 7550 O 785.839 0.495739 5.44247 0
M  V30 7551 H 782.933 0.0395457 0.826054 0
M  V30 7552 H 785.479 0.816319 1.48776 0
M  V30 7553 H 784.251 1.58426 3.57795 0
M  V30 7554 H 783.874 -0.0841399 3.97511 0
M  V30 7555 N 784.871 -1.49948 0.485112 0
M  V30 7556 C 785.821 -2.25734 -0.320658 0
M  V30 7557 C 786.805 -1.29907 -0.949373 0
M  V30 7558 O 787.997 -1.54725 -0.859601 0
M  V30 7559 C 785.126 -3.13728 -1.39391 0
M  V30 7560 C 784.212 -4.1701 -0.772225 0
M  V30 7561 N 784.603 -5.05667 0.115782 0
M  V30 7562 C 782.901 -4.33834 -1.03461 0
M  V30 7563 C 783.602 -5.79798 0.47004 0
M  V30 7564 N 782.578 -5.4337 -0.158204 0
M  V30 7565 H 786.38 -2.91647 0.36319 0
M  V30 7566 H 783.894 -1.59602 0.300154 0
M  V30 7567 H 785.891 -3.66639 -1.98447 0
M  V30 7568 H 784.551 -2.49365 -2.0796 0
M  V30 7569 H 785.562 -5.15619 0.485557 0
M  V30 7570 H 782.239 -3.80684 -1.71424 0
M  V30 7571 H 783.629 -6.61177 1.19558 0
M  V30 7572 N 786.349 -0.21828 -1.56081 0
M  V30 7573 C 787.297 0.709679 -2.21509 0
M  V30 7574 C 788.291 1.20221 -1.19346 0
M  V30 7575 O 789.497 1.16241 -1.37433 0
M  V30 7576 H 785.872 0.247271 -0.710184 0
M  V30 7577 H 787.843 0.134386 -2.98097 0
M  V30 7578 C 786.592 1.90853 -2.90638 0
M  V30 7579 H 785.915 1.53865 -3.69006 0
M  V30 7580 H 787.355 2.53568 -3.39822 0
M  V30 7581 C 785.814 2.76189 -1.92929 0
M  V30 7582 O 786.344 3.74842 -1.44416 0
M  V30 7583 N 784.55 2.42157 -1.6065 0
M  V30 7584 H 784.097 1.61987 -2.00294 0
M  V30 7585 H 784.055 2.99534 -0.955347 0
M  V30 7586 N 787.827 1.57504 0.0551401 0
M  V30 7587 C 788.737 2.08198 1.08124 0
M  V30 7588 C 789.753 1.01496 1.41331 0
M  V30 7589 O 790.929 1.33073 1.51174 0
M  V30 7590 C 787.994 2.52968 2.37083 0
M  V30 7591 C 787.055 3.7404 2.10696 0
M  V30 7592 C 786.288 4.16665 3.33505 0
M  V30 7593 O 786.511 3.59019 4.4324 0
M  V30 7594 O 785.445 5.09324 3.20737 0
M  V30 7595 H 789.271 2.95977 0.680518 0
M  V30 7596 H 786.856 1.46933 0.270401 0
M  V30 7597 H 788.738 2.82211 3.12946 0
M  V30 7598 H 787.413 1.6831 2.76502 0
M  V30 7599 H 786.32 3.49855 1.32484 0
M  V30 7600 H 787.653 4.59601 1.76148 0
M  V30 7601 N 789.305 -0.326896 1.54172 0
M  V30 7602 C 790.545 -1.07349 1.73941 0
M  V30 7603 C 790.909 -1.85355 0.50075 0
M  V30 7604 O 792.11 -2.62562 0.575731 0
M  V30 7605 C 790.381 -1.97636 2.97783 0
M  V30 7606 S 791.94 -2.79292 3.3844 0
M  V30 7607 H 788.758 -0.362459 0.611673 0
M  V30 7608 H 791.36 -0.349884 1.92344 0
M  V30 7609 H 790.064 -1.39158 3.86087 0
M  V30 7610 H 789.595 -2.74406 2.81895 0
M  V30 7611 H 791.61 -4.00106 2.93478 0
M  V30 7612 N 790.784 -1.46188 -0.588786 0
M  V30 7613 C 791.747 -1.55882 -1.68029 0
M  V30 7614 C 792.747 -0.436515 -1.54762 0
M  V30 7615 O 793.937 -0.700626 -1.59489 0
M  V30 7616 C 791.069 -1.47332 -3.07418 0
M  V30 7617 H 792.262 -2.5315 -1.60795 0
M  V30 7618 H 789.815 -1.33908 -0.806116 0
M  V30 7619 H 790.55 -0.513193 -3.20214 0
M  V30 7620 H 790.335 -2.28753 -3.18456 0
M  V30 7621 H 791.825 -1.57187 -3.86887 0
M  V30 7622 N 792.262 0.832906 -1.33792 0
M  V30 7623 C 793.49 1.62048 -1.28639 0
M  V30 7624 C 793.905 1.88269 0.141522 0
M  V30 7625 O 793.262 1.46706 1.08553 0
M  V30 7626 C 793.313 2.96722 -2.0649 0
M  V30 7627 O 793.034 2.7165 -3.43712 0
M  V30 7628 C 794.535 3.91144 -2.08617 0
M  V30 7629 H 791.755 0.504032 -0.442937 0
M  V30 7630 H 794.299 1.03704 -1.76255 0
M  V30 7631 H 792.454 3.51652 -1.62541 0
M  V30 7632 H 792.868 3.57453 -3.83833 0
M  V30 7633 H 794.342 4.82837 -2.67531 0
M  V30 7634 H 794.819 4.25766 -1.07796 0
M  V30 7635 H 795.425 3.42152 -2.52611 0
M  V30 7636 N 793.74 1.17359 1.05189 0
M  V30 7637 C 794.965 0.98709 1.82404 0
M  V30 7638 C 795.39 -0.459848 1.82392 0
M  V30 7639 O 794.748 -1.32924 1.23292 0
M  V30 7640 C 794.796 1.53276 3.26403 0
M  V30 7641 O 793.9 0.746541 4.05587 0
M  V30 7642 H 793.241 0.35047 0.563974 0
M  V30 7643 H 795.771 1.55856 1.32552 0
M  V30 7644 H 795.781 1.55504 3.77203 0
M  V30 7645 H 794.456 2.58603 3.25726 0
M  V30 7646 H 793.033 0.795671 3.64312 0
M  V30 7647 N 795.218 -1.23913 0.973828 0
M  V30 7648 C 796.446 -1.96195 0.656891 0
M  V30 7649 C 796.861 -1.72166 -0.774876 0
M  V30 7650 O 796.218 -1.0091 -1.52064 0
M  V30 7651 C 796.269 -3.49342 0.929638 0
M  V30 7652 O 795.99 -3.72553 2.30512 0
M  V30 7653 C 797.491 -4.38833 0.627739 0
M  V30 7654 H 794.711 -0.624841 0.244572 0
M  V30 7655 H 797.255 -1.57579 1.30343 0
M  V30 7656 H 795.41 -3.85999 0.329216 0
M  V30 7657 H 795.824 -4.66893 2.3898 0
M  V30 7658 H 797.298 -5.45117 0.868991 0
M  V30 7659 H 797.775 -4.37009 -0.438104 0
M  V30 7660 H 798.381 -4.07773 1.20834 0
M  V30 7661 N 796.696 -0.74468 -1.38897 0
M  V30 7662 C 797.629 -0.0596441 -2.28122 0
M  V30 7663 C 798.607 0.73764 -1.44906 0
M  V30 7664 O 799.791 0.718155 -1.74284 0
M  V30 7665 C 796.918 0.922533 -3.25894 0
M  V30 7666 C 795.964 0.212566 -4.2597 0
M  V30 7667 S 796.797 -1.08035 -5.24489 0
M  V30 7668 C 797.953 -0.101014 -6.25818 0
M  V30 7669 H 798.186 -0.816289 -2.85874 0
M  V30 7670 H 795.719 -0.536882 -1.44765 0
M  V30 7671 H 797.677 1.4839 -3.82741 0
M  V30 7672 H 796.338 1.65209 -2.67142 0
M  V30 7673 H 795.531 0.956106 -4.94848 0
M  V30 7674 H 795.133 -0.277029 -3.72973 0
M  V30 7675 H 797.425 0.736072 -6.7349 0
M  V30 7676 H 798.368 -0.757206 -7.0404 0
M  V30 7677 H 798.776 0.275706 -5.63826 0
M  V30 7678 N 798.174 1.49689 -0.493057 0
M  V30 7679 C 799.414 2.04332 0.0527374 0
M  V30 7680 C 799.778 1.36522 1.35003 0
M  V30 7681 O 800.979 1.81842 1.97957 0
M  V30 7682 C 799.25 3.56782 0.210044 0
M  V30 7683 S 800.809 4.32998 0.711232 0
M  V30 7684 H 797.627 0.710978 0.00554853 0
M  V30 7685 H 800.229 1.83835 -0.665213 0
M  V30 7686 H 798.933 4.03681 -0.739566 0
M  V30 7687 H 798.464 3.81671 0.953468 0
M  V30 7688 H 800.479 4.54916 1.98156 0
M  V30 7689 N 799.652 0.226554 1.55963 0
M  V30 7690 C 800.898 -0.404387 1.98727 0
M  V30 7691 C 801.231 -1.59059 1.11418 0
M  V30 7692 O 800.506 -1.93729 0.172971 0
M  V30 7693 C 800.789 -0.834081 3.50307 0
M  V30 7694 C 800.642 0.356104 4.48388 0
M  V30 7695 C 801.961 -1.68845 4.06423 0
M  V30 7696 H 799.08 -0.145515 0.722492 0
M  V30 7697 H 801.722 0.323791 1.87221 0
M  V30 7698 H 799.872 -1.45454 3.60244 0
M  V30 7699 H 801.544 0.99432 4.50456 0
M  V30 7700 H 799.787 1.0027 4.22053 0
M  V30 7701 H 800.458 0.0124333 5.51999 0
M  V30 7702 H 802.934 -1.16489 3.99461 0
M  V30 7703 H 801.81 -1.958 5.1279 0
M  V30 7704 H 802.071 -2.65347 3.53615 0
M  V30 7705 N 801.13 -1.57531 -0.0467866 0
M  V30 7706 C 802.078 -2.06455 -1.0714 0
M  V30 7707 C 803.072 -0.974744 -1.38546 0
M  V30 7708 O 804.278 -1.15974 -1.37659 0
M  V30 7709 H 800.653 -0.658607 -0.362962 0
M  V30 7710 H 802.624 -2.91613 -0.632813 0
M  V30 7711 C 801.373 -2.54481 -2.36927 0
M  V30 7712 H 800.696 -3.37946 -2.13617 0
M  V30 7713 H 802.136 -2.92442 -3.07007 0
M  V30 7714 C 800.595 -1.43836 -3.04652 0
M  V30 7715 O 801.125 -0.794531 -3.93764 0
M  V30 7716 N 799.331 -1.17727 -2.65686 0
M  V30 7717 H 798.878 -1.70265 -1.93307 0
M  V30 7718 H 798.836 -0.439051 -3.11319 0
M  V30 7719 N 802.608 0.318715 -1.54344 0
M  V30 7720 C 803.856 1.054 -1.72439 0
M  V30 7721 C 804.177 1.88388 -0.503495 0
M  V30 7722 O 803.447 1.89866 0.48246 0
M  V30 7723 H 802.027 0.392124 -0.635805 0
M  V30 7724 H 804.689 0.35398 -1.91659 0
M  V30 7725 H 803.785 1.71726 -2.60608 0
M  V30 7726 N 804.086 1.46499 0.581025 0
M  V30 7727 C 805.332 1.52121 1.34116 0
M  V30 7728 C 805.665 0.173031 1.93428 0
M  V30 7729 O 804.94 -0.815729 1.76568 0
M  V30 7730 C 805.223 2.62108 2.46924 0
M  V30 7731 C 805.076 4.06462 1.92636 0
M  V30 7732 C 806.395 2.68167 3.48962 0
M  V30 7733 H 803.514 0.5538 0.486287 0
M  V30 7734 H 806.156 1.78443 0.652538 0
M  V30 7735 H 804.306 2.39794 3.05665 0
M  V30 7736 H 805.978 4.40068 1.3834 0
M  V30 7737 H 804.221 4.15862 1.23455 0
M  V30 7738 H 804.892 4.79152 2.74076 0
M  V30 7739 H 807.368 2.8823 3.00104 0
M  V30 7740 H 806.244 3.46942 4.2535 0
M  V30 7741 H 806.505 1.74284 4.06297 0
M  V30 7742 N 805.565 -0.825799 1.34232 0
M  V30 7743 C 806.805 -1.59541 1.27773 0
M  V30 7744 C 807.169 -1.91405 -0.150998 0
M  V30 7745 O 808.37 -2.66644 -0.339728 0
M  V30 7746 C 806.641 -2.86183 2.14089 0
M  V30 7747 S 808.2 -3.76751 2.24953 0
M  V30 7748 H 805.018 -0.546871 0.454371 0
M  V30 7749 H 807.62 -0.975677 1.69413 0
M  V30 7750 H 806.324 -2.60767 3.16905 0
M  V30 7751 H 805.855 -3.53155 1.73335 0
M  V30 7752 H 807.87 -4.75442 1.4202 0
M  V30 7753 N 807.043 -1.17915 -1.04565 0
M  V30 7754 C 807.973 -0.925033 -2.14395 0
M  V30 7755 C 808.954 0.135375 -1.6956 0
M  V30 7756 O 810.139 -0.0161774 -1.94193 0
M  V30 7757 C 807.269 -0.444469 -3.44444 0
M  V30 7758 C 806.223 -1.44478 -4.02877 0
M  V30 7759 C 805.549 -0.821933 -5.28345 0
M  V30 7760 C 806.849 -2.81995 -4.39632 0
M  V30 7761 H 808.543 -1.84354 -2.35911 0
M  V30 7762 H 806.089 -0.887806 -1.13375 0
M  V30 7763 H 808.042 -0.254078 -4.20633 0
M  V30 7764 H 806.766 0.509592 -3.226 0
M  V30 7765 H 805.425 -1.62203 -3.28764 0
M  V30 7766 H 805.073 0.139161 -5.02807 0
M  V30 7767 H 804.773 -1.48976 -5.68401 0
M  V30 7768 H 806.297 -0.641959 -6.07216 0
M  V30 7769 H 807.711 -2.67952 -5.06828 0
M  V30 7770 H 806.108 -3.45414 -4.90723 0
M  V30 7771 H 807.178 -3.35927 -3.49687 0
M  V30 7772 N 808.521 1.23394 -0.980386 0
M  V30 7773 C 809.469 2.26872 -0.513018 0
M  V30 7774 C 810.463 1.63853 0.429948 0
M  V30 7775 O 811.669 1.77417 0.303842 0
M  V30 7776 H 808.044 0.737398 -0.147473 0
M  V30 7777 H 810.015 2.63654 -1.39746 0
M  V30 7778 C 808.764 3.47289 0.168962 0
M  V30 7779 H 808.087 3.96033 -0.547546 0
M  V30 7780 H 809.527 4.21502 0.459616 0
M  V30 7781 C 807.986 3.06425 1.40019 0
M  V30 7782 O 808.516 3.14708 2.49643 0
M  V30 7783 N 806.722 2.61339 1.27084 0
M  V30 7784 H 806.269 2.54799 0.378872 0
M  V30 7785 H 806.227 2.34364 2.09573 0
M  V30 7786 N 809.999 0.752036 1.385 0
M  V30 7787 C 810.909 0.125318 2.34265 0
M  V30 7788 C 811.925 -0.702437 1.59191 0
M  V30 7789 O 813.101 -0.626951 1.91393 0
M  V30 7790 C 810.166 -0.758486 3.38301 0
M  V30 7791 C 809.227 0.0834636 4.29219 0
M  V30 7792 C 808.46 -0.758252 5.28286 0
M  V30 7793 O 808.683 -1.99632 5.34325 0
M  V30 7794 O 807.617 -0.177878 6.01637 0
M  V30 7795 H 811.443 0.91617 2.89551 0
M  V30 7796 H 809.028 0.512911 1.4032 0
M  V30 7797 H 810.91 -1.26365 4.02007 0
M  V30 7798 H 809.585 -1.52786 2.85374 0
M  V30 7799 H 808.492 0.634545 3.68679 0
M  V30 7800 H 809.825 0.815455 4.85398 0
M  V30 7801 N 811.477 -1.49425 0.500989 0
M  V30 7802 C 812.754 -1.9531 -0.106551 0
M  V30 7803 C 813.134 -1.44248 -1.54129 0
M  V30 7804 O 812.482 -0.656237 -2.18874 0
M  V30 7805 C 812.692 -3.48995 -0.0191972 0
M  V30 7806 C 814.04 -4.24161 -0.193129 0
M  V30 7807 O 815.064 -3.56075 -0.0943843 0
M  V30 7808 O 813.923 -5.45064 -0.395869 0
M  V30 7809 H 811.017 -0.82149 -0.0953068 0
M  V30 7810 H 813.563 -1.6007 0.563526 0
M  V30 7811 H 812.335 -3.78794 0.981353 0
M  V30 7812 H 811.958 -3.90852 -0.72942 0
M  V30 7813 N 812.955 -0.234822 -1.55841 0
M  V30 7814 C 814.203 0.392483 -1.98252 0
M  V30 7815 C 814.524 1.59344 -1.12404 0
M  V30 7816 O 813.794 1.94834 -0.204055 0
M  V30 7817 H 812.374 0.147999 -0.732192 0
M  V30 7818 H 815.036 -0.330804 -1.92072 0
M  V30 7819 H 814.132 0.709829 -3.03921 0
M  V30 7820 N 814.433 1.57553 0.0384317 0
M  V30 7821 C 815.658 1.93485 0.746872 0
M  V30 7822 C 816.083 0.834069 1.68597 0
M  V30 7823 O 815.441 -0.210902 1.80069 0
M  V30 7824 C 815.489 3.28463 1.4881 0
M  V30 7825 O 814.593 3.20051 2.60079 0
M  V30 7826 H 813.934 0.632675 0.201539 0
M  V30 7827 H 816.464 2.046 -0.00329815 0
M  V30 7828 H 816.474 3.63132 1.86009 0
M  V30 7829 H 815.149 4.08147 0.799297 0
M  V30 7830 H 813.726 2.96998 2.25492 0
M  V30 7831 N 815.911 -0.310526 1.54511 0
M  V30 7832 C 817.158 -1.04691 1.73338 0
M  V30 7833 C 817.486 -1.87584 0.514038 0
M  V30 7834 O 816.741 -1.89096 -0.504119 0
M  V30 7835 C 817.04 -1.98942 2.96912 0
M  V30 7836 C 816.706 -1.321 4.31115 0
M  V30 7837 C 815.368 -1.13603 4.67598 0
M  V30 7838 C 817.72 -0.842362 5.14348 0
M  V30 7839 C 815.048 -0.459102 5.84901 0
M  V30 7840 C 817.4 -0.179202 6.32346 0
M  V30 7841 C 816.064 0.0178111 6.67498 0
M  V30 7842 H 815.334 -0.38309 0.634289 0
M  V30 7843 H 817.981 -0.322723 1.88761 0
M  V30 7844 H 816.286 -2.77856 2.76231 0
M  V30 7845 H 817.983 -2.55972 3.08674 0
M  V30 7846 H 814.573 -1.47502 4.02419 0
M  V30 7847 H 818.757 -0.973013 4.86668 0
M  V30 7848 H 814.013 -0.295385 6.10686 0
M  V30 7849 H 818.187 0.199619 6.96114 0
M  V30 7850 H 815.814 0.544356 7.58249 0
M  V30 7851 N 817.389 -1.46805 -0.573248 0
M  V30 7852 C 818.614 -1.56433 -1.36175 0
M  V30 7853 C 819.039 -0.209336 -1.86932 0
M  V30 7854 O 818.397 0.812146 -1.62092 0
M  V30 7855 C 818.445 -2.58055 -2.51873 0
M  V30 7856 O 817.549 -2.12214 -3.53609 0
M  V30 7857 H 816.89 -0.526068 -0.405153 0
M  V30 7858 H 819.42 -1.92456 -0.694405 0
M  V30 7859 H 819.43 -2.77966 -2.98662 0
M  V30 7860 H 818.105 -3.56448 -2.14284 0
M  V30 7861 H 816.682 -2.02333 -3.13234 0
M  V30 7862 N 818.867 0.818669 -1.34668 0
M  V30 7863 C 820.107 1.58862 -1.28617 0
M  V30 7864 C 820.471 1.91483 0.140845 0
M  V30 7865 O 821.672 2.66821 0.325583 0
M  V30 7866 C 819.943 2.85044 -2.15604 0
M  V30 7867 S 821.502 3.75553 -2.26948 0
M  V30 7868 H 818.32 0.544454 -0.457265 0
M  V30 7869 H 820.922 0.966679 -1.69928 0
M  V30 7870 H 819.626 2.59083 -3.18284 0
M  V30 7871 H 819.157 3.52231 -1.75205 0
M  V30 7872 H 821.172 4.74682 -1.44539 0
M  V30 7873 N 820.346 1.18468 1.03938 0
M  V30 7874 C 821.276 0.936389 2.13902 0
M  V30 7875 C 822.257 -0.126381 1.6963 0
M  V30 7876 O 823.442 0.0264757 1.94182 0
M  V30 7877 C 820.572 0.462729 3.44204 0
M  V30 7878 C 819.526 1.46613 4.02105 0
M  V30 7879 C 818.852 0.84994 5.27902 0
M  V30 7880 C 820.152 2.84323 4.3813 0
M  V30 7881 H 821.846 1.85602 2.3493 0
M  V30 7882 H 819.392 0.893806 1.12903 0
M  V30 7883 H 821.345 0.276382 4.20493 0
M  V30 7884 H 820.069 -0.492477 3.22866 0
M  V30 7885 H 818.728 1.63944 3.27899 0
M  V30 7886 H 818.376 -0.112493 5.02874 0
M  V30 7887 H 818.076 1.51988 5.67603 0
M  V30 7888 H 819.6 0.674152 6.06867 0
M  V30 7889 H 821.014 2.70636 5.054 0
M  V30 7890 H 819.411 3.48012 4.88884 0
M  V30 7891 H 820.481 3.37776 3.47901 0
M  V30 7892 N 821.824 -1.22873 0.986916 0
M  V30 7893 C 823.064 -1.93192 0.667543 0
M  V30 7894 C 823.428 -1.7521 -0.785196 0
M  V30 7895 O 824.629 -2.39737 -1.2157 0
M  V30 7896 C 822.9 -3.4147 1.05513 0
M  V30 7897 S 824.459 -4.30425 0.853218 0
M  V30 7898 H 821.277 -0.667726 0.244261 0
M  V30 7899 H 823.879 -1.48808 1.26793 0
M  V30 7900 H 822.583 -3.52069 2.10892 0
M  V30 7901 H 822.114 -3.9086 0.446293 0
M  V30 7902 H 824.129 -4.95521 -0.259444 0
M  V30 7903 N 823.302 -0.75937 -1.38099 0
M  V30 7904 C 824.249 -0.135508 -2.30402 0
M  V30 7905 C 825.219 0.703356 -1.50473 0
M  V30 7906 O 826.404 0.658287 -1.79084 0
M  V30 7907 C 823.544 0.747228 -3.36913 0
M  V30 7908 C 822.657 -0.106893 -4.31868 0
M  V30 7909 C 821.792 0.779388 -5.25451 0
M  V30 7910 C 820.831 -0.0780179 -6.1205 0
M  V30 7911 N 819.968 0.765545 -6.97914 0
M  V30 7912 H 824.808 -0.9282 -2.83176 0
M  V30 7913 H 822.345 -0.46935 -1.39411 0
M  V30 7914 H 824.303 1.27371 -3.97281 0
M  V30 7915 H 822.933 1.50565 -2.85535 0
M  V30 7916 H 821.985 -0.751063 -3.72912 0
M  V30 7917 H 823.297 -0.768798 -4.9284 0
M  V30 7918 H 822.451 1.37282 -5.90964 0
M  V30 7919 H 821.19 1.47501 -4.6486 0
M  V30 7920 H 820.195 -0.684078 -5.45528 0
M  V30 7921 H 821.42 -0.770786 -6.74712 0
M  V30 7922 H 819.366 1.44601 -6.39864 0
M  V30 7923 H 819.283 0.160666 -7.55829 0
M  V30 7924 H 820.551 1.34377 -7.6783 0
M  V30 7925 N 824.78 1.49157 -0.508906 0
M  V30 7926 C 826.191 1.86593 -0.0630975 0
M  V30 7927 C 826.542 1.42051 1.35337 0
M  V30 7928 O 825.667 0.801866 2.00995 0
M  V30 7929 C 826.262 3.38629 -0.107729 0
M  V30 7930 C 824.821 3.75336 0.282776 0
M  V30 7931 C 823.968 2.7317 -0.4768 0
M  V30 7932 H 826.919 1.41362 -0.72128 0
M  V30 7933 H 826.94 3.74271 0.685689 0
M  V30 7934 H 826.452 3.71017 -1.13876 0
M  V30 7935 H 824.553 3.48558 1.31675 0
M  V30 7936 H 824.666 4.79081 -0.0421728 0
M  V30 7937 H 823.03 2.54591 0.0743552 0
M  V30 7938 H 823.813 3.08403 -1.50807 0
M  V30 7939 N 826.258 0.243083 1.55714 0
M  V30 7940 C 827.506 -0.381964 1.98458 0
M  V30 7941 C 827.827 -1.58745 1.13247 0
M  V30 7942 O 827.097 -1.94723 0.214384 0
M  V30 7943 H 825.677 -0.144114 0.732967 0
M  V30 7944 H 828.339 0.340985 1.91894 0
M  V30 7945 H 827.435 -0.693702 3.04293 0
M  V30 7946 N 827.736 -1.57571 -0.0300757 0
M  V30 7947 C 828.983 -1.89226 -0.721091 0
M  V30 7948 C 829.311 -0.840244 -1.75414 0
M  V30 7949 O 828.566 0.158906 -1.95054 0
M  V30 7950 C 828.865 -3.27624 -1.42818 0
M  V30 7951 C 828.531 -4.4776 -0.531208 0
M  V30 7952 C 827.193 -4.8036 -0.28415 0
M  V30 7953 C 829.545 -5.21125 0.0881582 0
M  V30 7954 C 826.873 -5.83715 0.591065 0
M  V30 7955 C 829.225 -6.2541 0.95107 0
M  V30 7956 C 827.889 -6.56486 1.2076 0
M  V30 7957 H 827.159 -0.692428 -0.263866 0
M  V30 7958 H 829.806 -1.91491 0.0189874 0
M  V30 7959 H 828.111 -3.21343 -2.24155 0
M  V30 7960 H 829.808 -3.49365 -1.96838 0
M  V30 7961 H 826.398 -4.2227 -0.73392 0
M  V30 7962 H 830.582 -4.96219 -0.0897496 0
M  V30 7963 H 825.838 -6.06168 0.798132 0
M  V30 7964 H 830.012 -6.81402 1.43751 0
M  V30 7965 H 827.639 -7.36395 1.88751 0
M  V30 7966 N 829.214 0.302327 -1.54673 0
M  V30 7967 C 830.144 1.37759 -1.88533 0
M  V30 7968 C 831.125 1.52961 -0.744113 0
M  V30 7969 O 832.31 1.6649 -0.999731 0
M  V30 7970 C 829.44 2.74201 -2.13146 0
M  V30 7971 C 828.394 2.73765 -3.28993 0
M  V30 7972 C 827.72 4.13483 -3.39022 0
M  V30 7973 C 829.02 2.35624 -4.66132 0
M  V30 7974 H 830.714 1.0967 -2.78591 0
M  V30 7975 H 828.26 0.52613 -1.34044 0
M  V30 7976 H 830.213 3.49508 -2.35419 0
M  V30 7977 H 828.937 3.03812 -1.19858 0
M  V30 7978 H 827.596 2.00914 -3.06642 0
M  V30 7979 H 827.244 4.40269 -2.43253 0
M  V30 7980 H 826.944 4.14093 -4.16894 0
M  V30 7981 H 828.468 4.90572 -3.63553 0
M  V30 7982 H 829.882 3.00647 -4.88143 0
M  V30 7983 H 828.279 2.47449 -5.46707 0
M  V30 7984 H 829.349 1.30753 -4.66939 0
M  V30 7985 N 830.692 1.47107 0.565454 0
M  V30 7986 C 831.622 1.61846 1.68309 0
M  V30 7987 C 832.603 0.468159 1.63531 0
M  V30 7988 O 833.788 0.696504 1.8128 0
M  V30 7989 C 830.918 1.62474 3.06952 0
M  V30 7990 C 829.872 2.76649 3.26572 0
M  V30 7991 C 829.198 2.62345 4.65917 0
M  V30 7992 C 830.498 4.18319 3.12741 0
M  V30 7993 H 832.192 2.55407 1.5623 0
M  V30 7994 H 829.738 1.22916 0.750179 0
M  V30 7995 H 831.691 1.71378 3.84977 0
M  V30 7996 H 830.415 0.654692 3.19971 0
M  V30 7997 H 829.074 2.67242 2.50952 0
M  V30 7998 H 828.722 1.63386 4.75725 0
M  V30 7999 H 828.422 3.38936 4.79996 0
M  V30 8000 H 829.946 2.73165 5.46089 0
M  V30 8001 H 831.36 4.28745 3.80593 0
M  V30 8002 H 829.757 4.95632 3.38333 0
M  V30 8003 H 830.827 4.37263 2.09592 0
M  V30 8004 N 832.17 -0.811516 1.35101 0
M  V30 8005 C 833.133 -1.90467 1.27495 0
M  V30 8006 C 834.133 -1.59703 0.187516 0
M  V30 8007 O 835.323 -1.68528 0.440896 0
M  V30 8008 C 832.455 -3.26774 0.971154 0
M  V30 8009 H 833.648 -1.98631 2.2469 0
M  V30 8010 H 831.201 -1.00681 1.19553 0
M  V30 8011 H 831.936 -3.243 0.0028557 0
M  V30 8012 H 831.721 -3.50488 1.75785 0
M  V30 8013 H 833.211 -4.06804 0.943414 0
M  V30 8014 N 833.648 -1.19017 -1.03309 0
M  V30 8015 C 835.059 -0.993206 -1.5809 0
M  V30 8016 C 835.41 0.45505 -1.9085 0
M  V30 8017 O 834.535 1.33372 -1.70414 0
M  V30 8018 C 835.13 -1.79661 -2.87241 0
M  V30 8019 C 833.689 -1.64377 -3.38611 0
M  V30 8020 C 832.836 -1.78628 -2.12102 0
M  V30 8021 H 835.787 -1.3345 -0.858879 0
M  V30 8022 H 835.808 -1.29019 -3.57958 0
M  V30 8023 H 835.32 -2.85061 -2.63366 0
M  V30 8024 H 833.421 -0.615447 -3.67482 0
M  V30 8025 H 833.534 -2.44651 -4.11926 0
M  V30 8026 H 831.898 -1.21648 -2.23772 0
M  V30 8027 H 832.681 -2.8548 -1.90673 0
M  V30 8028 N 835.127 1.22348 -0.993418 0
M  V30 8029 C 836.375 1.90733 -0.668246 0
M  V30 8030 C 836.696 1.77732 0.802261 0
M  V30 8031 O 835.966 1.16486 1.57505 0
M  V30 8032 H 834.546 0.705966 -0.244174 0
M  V30 8033 H 837.208 1.48691 -1.26004 0
M  V30 8034 H 836.304 2.97883 -0.931239 0
M  V30 8035 N 836.605 0.766683 1.37694 0
M  V30 8036 C 837.853 0.328065 1.9942 0
M  V30 8037 C 838.174 -1.09775 1.61166 0
M  V30 8038 O 837.444 -1.75288 0.874686 0
M  V30 8039 H 836.024 0.11831 0.737572 0
M  V30 8040 H 838.686 0.983686 1.68255 0
M  V30 8041 H 837.782 0.401647 3.09505 0
M  V30 8042 N 838.083 -1.48885 0.516809 0
M  V30 8043 C 839.033 -2.26363 -0.272704 0
M  V30 8044 C 840.017 -1.31891 -0.921604 0
M  V30 8045 O 841.209 -1.56514 -0.826589 0
M  V30 8046 C 838.338 -3.16614 -1.32705 0
M  V30 8047 C 837.424 -4.18554 -0.683598 0
M  V30 8048 N 837.815 -5.05308 0.223015 0
M  V30 8049 C 836.113 -4.35931 -0.942351 0
M  V30 8050 C 836.814 -5.7867 0.592918 0
M  V30 8051 N 835.79 -5.43583 -0.042912 0
M  V30 8052 H 839.592 -2.90811 0.424971 0
M  V30 8053 H 837.106 -1.5893 0.333941 0
M  V30 8054 H 839.103 -3.70766 -1.90625 0
M  V30 8055 H 837.763 -2.5372 -2.02624 0
M  V30 8056 H 838.774 -5.14473 0.594818 0
M  V30 8057 H 835.451 -3.84234 -1.6331 0
M  V30 8058 H 836.841 -6.58493 1.33556 0
M  V30 8059 N 839.561 -0.251338 -1.55583 0
M  V30 8060 C 840.791 0.375642 -2.03156 0
M  V30 8061 C 841.199 1.51761 -1.12983 0
M  V30 8062 O 840.542 1.83184 -0.13757 0
M  V30 8063 C 840.604 0.941001 -3.46966 0
M  V30 8064 C 840.268 -0.0692886 -4.56947 0
M  V30 8065 C 841.265 -0.88041 -5.12391 0
M  V30 8066 C 838.95 -0.196661 -5.01915 0
M  V30 8067 C 840.944 -1.80532 -6.11299 0
M  V30 8068 C 838.631 -1.12507 -6.00654 0
M  V30 8069 C 839.629 -1.92792 -6.55225 0
M  V30 8070 O 839.317 -2.84067 -7.52038 0
M  V30 8071 H 839.049 0.0928836 -0.669588 0
M  V30 8072 H 841.603 -0.374115 -2.01964 0
M  V30 8073 H 839.833 1.7404 -3.45322 0
M  V30 8074 H 841.522 1.47853 -3.78014 0
M  V30 8075 H 842.288 -0.792615 -4.78479 0
M  V30 8076 H 838.167 0.418187 -4.59099 0
M  V30 8077 H 841.711 -2.43239 -6.5382 0
M  V30 8078 H 837.608 -1.21377 -6.33986 0
M  V30 8079 H 838.376 -2.78479 -7.6967 0
M  V30 8080 N 841.039 1.57585 0.0217189 0
M  V30 8081 C 842.279 1.91457 0.715803 0
M  V30 8082 C 842.643 0.850685 1.72126 0
M  V30 8083 O 843.844 1.07396 2.46413 0
M  V30 8084 C 842.115 3.30456 1.36138 0
M  V30 8085 S 843.674 3.86176 2.0836 0
M  V30 8086 H 840.492 0.67035 0.236963 0
M  V30 8087 H 843.094 1.95477 -0.0297511 0
M  V30 8088 H 841.798 4.05744 0.616465 0
M  V30 8089 H 841.329 3.29757 2.14532 0
M  V30 8090 H 843.344 3.65496 3.356 0
M  V30 8091 N 842.517 -0.29412 1.54831 0
M  V30 8092 C 843.45 -1.38779 1.81151 0
M  V30 8093 C 844.428 -1.48464 0.663124 0
M  V30 8094 O 845.612 -1.65418 0.903835 0
M  V30 8095 C 842.739 -2.76627 1.95436 0
M  V30 8096 C 841.785 -2.84333 3.17895 0
M  V30 8097 S 842.618 -2.45726 4.75793 0
M  V30 8098 C 843.774 -3.85589 4.93023 0
M  V30 8099 H 844.007 -1.16246 2.73631 0
M  V30 8100 H 841.54 -0.492611 1.46331 0
M  V30 8101 H 843.498 -3.56021 2.04351 0
M  V30 8102 H 842.159 -2.96425 1.03881 0
M  V30 8103 H 841.352 -3.85457 3.24713 0
M  V30 8104 H 840.954 -2.1294 3.07461 0
M  V30 8105 H 843.246 -4.80656 4.77468 0
M  V30 8106 H 844.189 -3.83737 5.95107 0
M  V30 8107 H 844.597 -3.75911 4.21131 0
M  V30 8108 N 843.995 -1.47404 -0.557645 0
M  V30 8109 C 845.272 -1.44488 -1.31843 0
M  V30 8110 C 845.652 -0.1416 -2.10625 0
M  V30 8111 O 845 0.876908 -2.11004 0
M  V30 8112 C 845.21 -2.69016 -2.22331 0
M  V30 8113 C 846.558 -3.16212 -2.83364 0
M  V30 8114 O 847.582 -2.69741 -2.32634 0
M  V30 8115 O 846.441 -3.96999 -3.75571 0
M  V30 8116 H 843.535 -0.57578 -0.593639 0
M  V30 8117 H 846.081 -1.59605 -0.576584 0
M  V30 8118 H 844.853 -3.55406 -1.63715 0
M  V30 8119 H 844.476 -2.56484 -3.03812 0
M  V30 8120 N 845.473 0.80434 -1.35529 0
M  V30 8121 C 846.722 1.55665 -1.28263 0
M  V30 8122 C 847.035 1.95096 0.140352 0
M  V30 8123 O 848.241 2.69422 0.335303 0
M  V30 8124 C 846.697 2.80935 -2.24952 0
M  V30 8125 C 846.305 2.48733 -3.72607 0
M  V30 8126 C 848.049 3.5894 -2.26632 0
M  V30 8127 C 845.956 3.70308 -4.61114 0
M  V30 8128 H 844.886 0.584301 -0.476559 0
M  V30 8129 H 847.537 0.88395 -1.60806 0
M  V30 8130 H 845.919 3.49927 -1.85383 0
M  V30 8131 H 847.093 1.87733 -4.20824 0
M  V30 8132 H 845.408 1.83969 -3.73557 0
M  V30 8133 H 848.005 4.49244 -2.89973 0
M  V30 8134 H 848.348 3.96433 -1.27069 0
M  V30 8135 H 848.881 2.96912 -2.64742 0
M  V30 8136 H 845.62 3.37922 -5.61684 0
M  V30 8137 H 845.14 4.30526 -4.17621 0
M  V30 8138 H 846.819 4.37511 -4.76648 0
M  V30 8139 N 846.951 1.19563 1.02676 0
M  V30 8140 C 848.228 0.908857 1.73203 0
M  V30 8141 C 848.608 -0.584928 2.02834 0
M  V30 8142 O 847.956 -1.54372 1.68469 0
M  V30 8143 C 848.166 1.77105 3.00724 0
M  V30 8144 C 849.514 2.00667 3.7419 0
M  V30 8145 O 850.538 1.74274 3.10656 0
M  V30 8146 O 849.397 2.4518 4.88415 0
M  V30 8147 H 846.491 0.338909 0.754367 0
M  V30 8148 H 849.037 1.30387 1.08616 0
M  V30 8149 H 847.809 2.78303 2.7507 0
M  V30 8150 H 847.432 1.37546 3.73051 0
M  V30 8151 N 848.429 -1.21819 0.999893 0
M  V30 8152 C 849.339 -2.27691 0.565159 0
M  V30 8153 C 850.355 -1.69587 -0.389398 0
M  V30 8154 O 851.531 -1.99786 -0.254499 0
M  V30 8155 C 848.596 -3.46537 -0.106432 0
M  V30 8156 C 847.657 -4.19932 0.891964 0
M  V30 8157 C 846.89 -5.33103 0.252327 0
M  V30 8158 O 847.113 -5.62398 -0.952103 0
M  V30 8159 O 846.047 -5.94184 0.960698 0
M  V30 8160 H 849.873 -2.67059 1.44613 0
M  V30 8161 H 847.458 -1.28119 0.768499 0
M  V30 8162 H 849.34 -4.18631 -0.482301 0
M  V30 8163 H 848.015 -3.09079 -0.961865 0
M  V30 8164 H 846.922 -3.5008 1.3189 0
M  V30 8165 H 848.255 -4.61287 1.71682 0
M  V30 8166 N 849.908 -0.773975 -1.37286 0
M  V30 8167 C 851.148 -0.344505 -2.01476 0
M  V30 8168 C 851.512 1.05966 -1.6011 0
M  V30 8169 O 852.713 1.58937 -2.16778 0
M  V30 8170 C 850.984 -0.485816 -3.54083 0
M  V30 8171 S 852.543 -0.141939 -4.3857 0
M  V30 8172 H 849.361 -0.13243 -0.698558 0
M  V30 8173 H 851.963 -1.00908 -1.67445 0
M  V30 8174 H 850.667 -1.50835 -3.81677 0
M  V30 8175 H 850.198 0.195232 -3.92915 0
M  V30 8176 H 852.213 1.06177 -4.84707 0
M  V30 8177 N 851.386 1.48609 -0.524698 0
M  V30 8178 C 852.318 2.27508 0.278 0
M  V30 8179 C 853.331 1.35042 0.909258 0
M  V30 8180 O 854.52 1.60136 0.788592 0
M  V30 8181 C 851.62 3.08247 1.40843 0
M  V30 8182 C 850.793 4.28455 0.880083 0
M  V30 8183 C 849.852 4.91048 1.891 0
M  V30 8184 O 848.878 5.5042 1.45005 0
M  V30 8185 N 850.08 4.82816 3.22288 0
M  V30 8186 H 852.845 2.97037 -0.398642 0
M  V30 8187 H 850.406 1.57876 -0.358698 0
M  V30 8188 H 852.398 3.46992 2.08276 0
M  V30 8189 H 850.968 2.41173 1.98883 0
M  V30 8190 H 850.188 3.94189 0.0299228 0
M  V30 8191 H 851.476 5.06279 0.505881 0
M  V30 8192 H 850.874 4.3572 3.60783 0
M  V30 8193 H 849.431 5.25676 3.85368 0
M  V30 8194 N 852.864 0.259585 1.55447 0
M  V30 8195 C 854.092 -0.365392 2.03648 0
M  V30 8196 C 854.507 -1.50613 1.13847 0
M  V30 8197 O 853.864 -1.81837 0.155414 0
M  V30 8198 C 853.915 -0.861172 3.51093 0
M  V30 8199 O 853.636 0.234121 4.37474 0
M  V30 8200 C 855.137 -1.55555 4.15111 0
M  V30 8201 H 852.357 -0.0853439 0.66555 0
M  V30 8202 H 854.901 0.387151 2.00802 0
M  V30 8203 H 853.056 -1.56385 3.54433 0
M  V30 8204 H 853.47 -0.1444 5.24301 0
M  V30 8205 H 854.944 -1.85403 5.19932 0
M  V30 8206 H 855.421 -2.48185 3.62355 0
M  V30 8207 H 856.027 -0.89712 4.15731 0
M  V30 8208 N 854.342 -1.57594 -0.0133615 0
M  V30 8209 C 855.753 -1.78168 -0.557937 0
M  V30 8210 C 856.104 -0.892616 -1.74719 0
M  V30 8211 O 855.229 -0.0915491 -2.16206 0
M  V30 8212 C 855.824 -3.23115 -1.01894 0
M  V30 8213 C 854.383 -3.44831 -1.50892 0
M  V30 8214 C 853.53 -2.73558 -0.454044 0
M  V30 8215 H 856.481 -1.57266 0.212843 0
M  V30 8216 H 856.502 -3.30493 -1.8856 0
M  V30 8217 H 856.014 -3.87798 -0.153175 0
M  V30 8218 H 854.115 -2.85345 -2.39602 0
M  V30 8219 H 854.228 -4.53485 -1.54559 0
M  V30 8220 H 852.592 -2.37787 -0.912666 0
M  V30 8221 H 853.375 -3.40932 0.402524 0
M  V30 8222 N 855.82 0.285905 -1.54985 0
M  V30 8223 C 857.068 1.01718 -1.74636 0
M  V30 8224 C 857.389 1.87277 -0.543342 0
M  V30 8225 O 856.659 1.90847 0.442078 0
M  V30 8226 H 855.239 0.378549 -0.643979 0
M  V30 8227 H 857.901 0.313247 -1.92366 0
M  V30 8228 H 856.997 1.66159 -2.64192 0
M  V30 8229 N 857.298 1.47698 0.54982 0
M  V30 8230 C 858.547 1.53961 1.30303 0
M  V30 8231 C 858.86 0.209731 1.94472 0
M  V30 8232 O 860.066 0.150418 2.71083 0
M  V30 8233 C 858.522 2.71436 2.36328 0
M  V30 8234 C 858.13 4.10983 1.78316 0
M  V30 8235 C 859.874 2.86996 3.12783 0
M  V30 8236 C 857.781 5.19747 2.82164 0
M  V30 8237 H 856.711 0.573098 0.489975 0
M  V30 8238 H 859.362 1.73989 0.583089 0
M  V30 8239 H 857.744 2.44801 3.11269 0
M  V30 8240 H 858.918 4.47552 1.09697 0
M  V30 8241 H 857.233 4.00371 1.1442 0
M  V30 8242 H 859.83 3.65422 3.90347 0
M  V30 8243 H 860.173 1.95712 3.67427 0
M  V30 8244 H 860.706 3.13436 2.44954 0
M  V30 8245 H 857.445 6.12932 2.32366 0
M  V30 8246 H 856.965 4.87688 3.49171 0
M  V30 8247 H 858.644 5.47014 3.4552 0
M  V30 8248 N 858.776 -0.797141 1.35954 0
M  V30 8249 C 860.016 -1.56795 1.31128 0
M  V30 8250 C 860.38 -1.91683 -0.110364 0
M  V30 8251 O 861.581 -2.67305 -0.283093 0
M  V30 8252 C 859.852 -2.81577 2.20111 0
M  V30 8253 S 861.411 -3.71895 2.32894 0
M  V30 8254 H 858.229 -0.53711 0.465869 0
M  V30 8255 H 860.831 -0.939522 1.71445 0
M  V30 8256 H 859.535 -2.53986 3.22365 0
M  V30 8257 H 859.066 -3.49399 1.80786 0
M  V30 8258 H 861.081 -4.72322 1.52073 0
M  V30 8259 N 860.254 -1.20106 -1.0204 0
M  V30 8260 C 861.5 -1.01039 -1.75838 0
M  V30 8261 C 861.833 0.456819 -1.88751 0
M  V30 8262 O 861.108 1.33919 -1.41053 0
M  V30 8263 C 861.391 -1.69009 -3.17975 0
M  V30 8264 C 861.244 -3.2315 -3.1288 0
M  V30 8265 C 862.563 -1.42005 -4.16561 0
M  V30 8266 H 859.682 -0.368465 -0.638281 0
M  V30 8267 H 862.324 -1.48066 -1.19064 0
M  V30 8268 H 860.474 -1.29026 -3.66449 0
M  V30 8269 H 862.146 -3.72402 -2.72239 0
M  V30 8270 H 860.389 -3.54253 -2.50374 0
M  V30 8271 H 861.06 -3.65862 -4.13339 0
M  V30 8272 H 863.536 -1.76685 -3.76725 0
M  V30 8273 H 862.412 -1.92101 -5.14187 0
M  V30 8274 H 862.673 -0.346884 -4.40737 0
M  V30 8275 N 861.732 1.21287 -1.00634 0
M  V30 8276 C 862.68 2.25733 -0.561026 0
M  V30 8277 C 863.674 1.64728 0.395095 0
M  V30 8278 O 864.88 1.78022 0.266141 0
M  V30 8279 H 861.255 0.734104 -0.163081 0
M  V30 8280 H 863.226 2.60631 -1.45307 0
M  V30 8281 C 861.975 3.47569 0.0952587 0
M  V30 8282 H 861.298 3.94782 -0.631427 0
M  V30 8283 H 862.738 4.22382 0.370105 0
M  V30 8284 C 861.197 3.09326 1.33488 0
M  V30 8285 O 861.727 3.19933 2.42912 0
M  V30 8286 N 859.933 2.63976 1.21512 0
M  V30 8287 H 859.48 2.55545 0.324741 0
M  V30 8288 H 859.438 2.38757 2.04555 0
M  V30 8289 N 863.21 0.781244 1.36873 0
M  V30 8290 C 864.458 0.349198 1.9906 0
M  V30 8291 C 864.779 -1.0806 1.62321 0
M  V30 8292 O 864.049 -1.74351 0.893229 0
M  V30 8293 H 862.629 0.126126 0.736275 0
M  V30 8294 H 865.291 1.00148 1.67202 0
M  V30 8295 H 864.387 0.434451 3.09061 0
M  V30 8296 N 864.689 -1.48329 0.532571 0
M  V30 8297 C 865.639 -2.2664 -0.24868 0
M  V30 8298 C 866.623 -1.32861 -0.907563 0
M  V30 8299 O 867.815 -1.57382 -0.809942 0
M  V30 8300 C 864.944 -3.18004 -1.29339 0
M  V30 8301 C 864.03 -4.19256 -0.639166 0
M  V30 8302 N 864.421 -5.05043 0.276597 0
M  V30 8303 C 862.719 -4.36906 -0.896062 0
M  V30 8304 C 863.42 -5.78009 0.654261 0
M  V30 8305 N 862.396 -5.43598 0.0147447 0
M  V30 8306 H 866.198 -2.90344 0.455792 0
M  V30 8307 H 863.712 -1.58566 0.350778 0
M  V30 8308 H 865.709 -3.72767 -1.86682 0
M  V30 8309 H 864.369 -2.55855 -1.99921 0
M  V30 8310 H 865.38 -5.13813 0.649351 0
M  V30 8311 H 862.057 -3.85945 -1.59226 0
M  V30 8312 H 863.447 -6.57039 1.40532 0
M  V30 8313 N 866.167 -0.267825 -1.55308 0
M  V30 8314 C 867.407 0.352316 -2.01341 0
M  V30 8315 C 867.771 1.53593 -1.1521 0
M  V30 8316 O 868.972 2.22521 -1.50791 0
M  V30 8317 C 867.243 0.731857 -3.49827 0
M  V30 8318 S 868.802 1.33956 -4.17853 0
M  V30 8319 H 865.62 0.109927 -0.702451 0
M  V30 8320 H 868.222 -0.387955 -1.91612 0
M  V30 8321 H 866.926 -0.138561 -4.10166 0
M  V30 8322 H 866.457 1.50378 -3.63525 0
M  V30 8323 H 868.472 2.62831 -4.20874 0
M  V30 8324 N 867.645 1.57599 0.00500368 0
M  V30 8325 C 868.873 1.94626 0.702016 0
M  V30 8326 C 869.288 0.86953 1.67585 0
M  V30 8327 O 868.645 -0.15199 1.81866 0
M  V30 8328 C 868.696 3.31658 1.43824 0
M  V30 8329 O 868.417 4.35197 0.503467 0
M  V30 8330 C 869.918 3.83114 2.23021 0
M  V30 8331 H 867.138 0.641785 0.195841 0
M  V30 8332 H 869.682 2.04451 -0.0446287 0
M  V30 8333 H 867.837 3.23156 2.13655 0
M  V30 8334 H 868.251 5.1444 1.02235 0
M  V30 8335 H 869.725 4.81438 2.7004 0
M  V30 8336 H 870.202 3.15559 3.05482 0
M  V30 8337 H 870.808 3.94775 1.58216 0
M  V30 8338 N 869.123 -0.277682 1.55134 0
M  V30 8339 C 870.071 -1.36305 1.88478 0
M  V30 8340 C 871.065 -1.51362 0.760654 0
M  V30 8341 O 872.271 -1.53202 0.944943 0
M  V30 8342 H 868.646 -0.45577 0.598146 0
M  V30 8343 H 870.617 -1.05431 2.79154 0
M  V30 8344 C 869.366 -2.71739 2.16918 0
M  V30 8345 H 868.689 -2.60942 3.02901 0
M  V30 8346 H 870.129 -3.46635 2.44172 0
M  V30 8347 C 868.588 -3.22476 0.975239 0
M  V30 8348 O 869.118 -4.01164 0.207497 0
M  V30 8349 N 867.324 -2.80097 0.774219 0
M  V30 8350 H 866.871 -2.16221 1.40022 0
M  V30 8351 H 866.829 -3.14392 -0.023021 0
M  V30 8352 N 870.601 -1.47988 -0.541979 0
M  V30 8353 C 871.829 -1.59034 -1.32347 0
M  V30 8354 C 872.244 -0.246123 -1.87189 0
M  V30 8355 O 871.601 0.762889 -1.6579 0
M  V30 8356 C 871.652 -2.62759 -2.48274 0
M  V30 8357 O 871.373 -3.91963 -1.95695 0
M  V30 8358 C 872.874 -2.84133 -3.4027 0
M  V30 8359 H 870.094 -0.536574 -0.402901 0
M  V30 8360 H 872.638 -1.93725 -0.655045 0
M  V30 8361 H 870.793 -2.3096 -3.11025 0
M  V30 8362 H 871.207 -4.48769 -2.7149 0
M  V30 8363 H 872.681 -3.60538 -4.17991 0
M  V30 8364 H 873.158 -1.92512 -3.9476 0
M  V30 8365 H 873.764 -3.17188 -2.83322 0
M  V30 8366 N 872.079 0.78992 -1.36375 0
M  V30 8367 C 872.989 1.93386 -1.32812 0
M  V30 8368 C 874.005 1.72468 -0.230377 0
M  V30 8369 O 875.181 1.96014 -0.462657 0
M  V30 8370 C 872.246 3.2824 -1.11621 0
M  V30 8371 C 871.307 3.61939 -2.30865 0
M  V30 8372 C 870.54 4.90359 -2.10675 0
M  V30 8373 O 870.763 5.6005 -1.08168 0
M  V30 8374 O 869.697 5.22702 -2.9844 0
M  V30 8375 H 873.523 1.99342 -2.29121 0
M  V30 8376 H 871.108 0.9301 -1.16917 0
M  V30 8377 H 872.99 4.08939 -1.01719 0
M  V30 8378 H 871.665 3.23178 -0.183732 0
M  V30 8379 H 870.572 2.81549 -2.46335 0
M  V30 8380 H 871.905 3.71725 -3.22617 0
M  V30 8381 N 873.557 1.20646 1.01402 0
M  V30 8382 C 874.805 1.01618 1.74695 0
M  V30 8383 C 875.126 -0.452438 1.89679 0
M  V30 8384 O 874.396 -1.32693 1.44116 0
M  V30 8385 H 872.976 0.373013 0.647202 0
M  V30 8386 H 875.638 1.518 1.22241 0
M  V30 8387 H 874.734 1.47666 2.74957 0
M  V30 8388 N 875.035 -1.20752 1.01276 0
M  V30 8389 C 876.26 -1.94547 0.718769 0
M  V30 8390 C 876.685 -1.7404 -0.713563 0
M  V30 8391 O 876.043 -1.03221 -1.49047 0
M  V30 8392 C 876.091 -3.44823 1.05497 0
M  V30 8393 O 875.195 -4.12072 0.164516 0
M  V30 8394 H 874.536 -0.607931 0.267051 0
M  V30 8395 H 877.066 -1.53292 1.35509 0
M  V30 8396 H 877.076 -3.95427 1.00507 0
M  V30 8397 H 875.751 -3.59072 2.09858 0
M  V30 8398 H 874.328 -3.71909 0.271615 0
M  V30 8399 N 876.513 -0.788492 -1.36457 0
M  V30 8400 C 877.76 -0.360461 -1.99266 0
M  V30 8401 C 878.088 1.0676 -1.62581 0
M  V30 8402 O 877.343 1.75205 -0.871884 0
M  V30 8403 C 877.642 -0.470255 -3.54293 0
M  V30 8404 C 877.308 -1.85899 -4.10795 0
M  V30 8405 C 875.97 -2.23896 -4.25939 0
M  V30 8406 C 878.322 -2.76836 -4.41601 0
M  V30 8407 C 875.65 -3.52235 -4.69199 0
M  V30 8408 C 878.002 -4.04602 -4.86292 0
M  V30 8409 C 876.666 -4.42623 -4.99641 0
M  V30 8410 H 875.936 -0.131902 -0.729166 0
M  V30 8411 H 878.583 -1.00577 -1.62962 0
M  V30 8412 H 876.888 0.258559 -3.90946 0
M  V30 8413 H 878.585 -0.120119 -4.0082 0
M  V30 8414 H 875.175 -1.55372 -3.99447 0
M  V30 8415 H 879.359 -2.48735 -4.2947 0
M  V30 8416 H 874.615 -3.81565 -4.77722 0
M  V30 8417 H 878.789 -4.75182 -5.09092 0
M  V30 8418 H 876.416 -5.42125 -5.32921 0
M  V30 8419 N 877.991 1.48044 -0.54043 0
M  V30 8420 C 879.407 1.58354 -0.199006 0
M  V30 8421 C 879.607 1.54118 1.29807 0
M  V30 8422 O 878.663 1.43573 2.07709 0
M  V30 8423 C 879.976 2.89563 -0.810797 0
M  V30 8424 C 881.524 3.03113 -0.780486 0
M  V30 8425 C 881.999 4.36997 -1.37104 0
M  V30 8426 N 883.49 4.43591 -1.33347 0
M  V30 8427 C 884.225 5.45714 -1.76021 0
M  V30 8428 N 883.721 6.54738 -2.26473 0
M  V30 8429 N 885.514 5.36659 -1.67194 0
M  V30 8430 H 877.665 1.49041 -1.51329 0
M  V30 8431 H 879.928 0.708309 -0.630081 0
M  V30 8432 H 879.634 2.9835 -1.86227 0
M  V30 8433 H 879.508 3.76053 -0.293977 0
M  V30 8434 H 881.895 2.93932 0.262246 0
M  V30 8435 H 881.976 2.18207 -1.33489 0
M  V30 8436 H 881.62 4.46932 -2.41276 0
M  V30 8437 H 881.55 5.20607 -0.792229 0
M  V30 8438 H 884.041 3.65391 -0.964259 0
M  V30 8439 H 884.354 7.28814 -2.57002 0
M  V30 8440 H 882.699 6.55673 -2.30473 0
M  V30 8441 H 885.89 4.50382 -1.27569 0
M  V30 8442 H 886.063 6.16113 -2.00771 0
M  V30 8443 N 879.47 0.276058 1.55163 0
M  V30 8444 C 880.71 -0.341634 2.01525 0
M  V30 8445 C 881.074 -1.52979 1.16023 0
M  V30 8446 O 882.275 -2.21718 1.51968 0
M  V30 8447 C 880.546 -0.713294 3.5021 0
M  V30 8448 S 882.105 -1.31739 4.18558 0
M  V30 8449 H 878.923 -0.1062 0.703024 0
M  V30 8450 H 881.525 0.398112 1.91404 0
M  V30 8451 H 880.229 0.160311 4.10087 0
M  V30 8452 H 879.76 -1.48448 3.64317 0
M  V30 8453 H 881.775 -2.60595 4.22261 0
M  V30 8454 N 880.948 -1.576 0.00335426 0
M  V30 8455 C 881.88 -2.0549 -1.01521 0
M  V30 8456 C 882.893 -0.973441 -1.30491 0
M  V30 8457 O 884.082 -1.25017 -1.27409 0
M  V30 8458 C 881.182 -2.44272 -2.34914 0
M  V30 8459 C 880.355 -3.75191 -2.24835 0
M  V30 8460 C 879.414 -4.00804 -3.40944 0
M  V30 8461 O 878.44 -4.71423 -3.18981 0
M  V30 8462 N 879.642 -3.48961 -4.63904 0
M  V30 8463 H 882.407 -2.93493 -0.60678 0
M  V30 8464 H 879.968 -1.60851 -0.18396 0
M  V30 8465 H 881.96 -2.58518 -3.11369 0
M  V30 8466 H 880.53 -1.6177 -2.67487 0
M  V30 8467 H 879.75 -3.70989 -1.3327 0
M  V30 8468 H 881.038 -4.61013 -2.15277 0
M  V30 8469 H 880.436 -2.9178 -4.84645 0
M  V30 8470 H 878.993 -3.68531 -5.37613 0
M  V30 8471 N 882.426 0.269451 -1.5528 0
M  V30 8472 C 883.666 1.00819 -1.77806 0
M  V30 8473 C 884.03 1.83369 -0.569198 0
M  V30 8474 O 885.231 2.60244 -0.672783 0
M  V30 8475 C 883.502 1.86447 -3.04913 0
M  V30 8476 S 885.061 2.66538 -3.48573 0
M  V30 8477 H 881.879 0.339508 -0.624704 0
M  V30 8478 H 884.481 0.278256 -1.9351 0
M  V30 8479 H 883.185 1.24733 -3.90986 0
M  V30 8480 H 882.716 2.63755 -2.91885 0
M  V30 8481 H 884.731 3.88938 -3.08126 0
M  V30 8482 N 883.904 1.48273 0.534124 0
M  V30 8483 C 884.834 1.6538 1.64839 0
M  V30 8484 C 885.815 0.502741 1.62501 0
M  V30 8485 O 887 0.734799 1.79762 0
M  V30 8486 C 884.13 1.68949 3.03436 0
M  V30 8487 C 883.084 2.83513 3.20631 0
M  V30 8488 C 882.41 2.72169 4.60248 0
M  V30 8489 C 883.71 4.24858 3.03797 0
M  V30 8490 H 885.404 2.58663 1.50777 0
M  V30 8491 H 882.95 1.24479 0.723937 0
M  V30 8492 H 884.903 1.79505 3.81256 0
M  V30 8493 H 883.627 0.722415 3.1851 0
M  V30 8494 H 882.286 2.72505 2.45227 0
M  V30 8495 H 881.934 1.7344 4.72152 0
M  V30 8496 H 881.634 3.49042 4.72698 0
M  V30 8497 H 883.158 2.84687 5.40172 0
M  V30 8498 H 884.572 4.36721 3.71413 0
M  V30 8499 H 882.969 5.02697 3.27743 0
M  V30 8500 H 884.039 4.41611 2.0027 0
M  V30 8501 N 885.382 -0.782676 1.36792 0
M  V30 8502 C 886.63 -1.53778 1.31136 0
M  V30 8503 C 886.951 -1.94706 -0.107014 0
M  V30 8504 O 886.221 -1.65465 -1.04872 0
M  V30 8505 H 884.801 -0.570328 0.482426 0
M  V30 8506 H 887.463 -0.932181 1.71162 0
M  V30 8507 H 886.559 -2.44224 1.94321 0
M  V30 8508 N 886.86 -1.21182 -1.00761 0
M  V30 8509 C 888.108 -1.02543 -1.74153 0
M  V30 8510 C 888.429 0.442372 -1.89916 0
M  V30 8511 O 887.699 1.31927 -1.44818 0
M  V30 8512 H 886.279 -0.37644 -0.645214 0
M  V30 8513 H 888.941 -1.52446 -1.21434 0
M  V30 8514 H 888.037 -1.49122 -2.7417 0
M  V30 8515 N 888.338 1.20213 -1.01915 0
M  V30 8516 C 889.268 2.25336 -0.612023 0
M  V30 8517 C 890.249 1.65933 0.374186 0
M  V30 8518 O 891.434 1.92464 0.259053 0
M  V30 8519 C 888.564 3.47267 0.047904 0
M  V30 8520 C 887.518 4.1928 -0.859557 0
M  V30 8521 C 886.844 5.3466 -0.0652655 0
M  V30 8522 C 888.144 4.75143 -2.1688 0
M  V30 8523 H 889.838 2.59645 -1.49079 0
M  V30 8524 H 887.384 1.24808 -0.718263 0
M  V30 8525 H 889.337 4.19991 0.344294 0
M  V30 8526 H 888.061 3.12129 0.961404 0
M  V30 8527 H 886.72 3.48425 -1.13999 0
M  V30 8528 H 886.368 4.95767 0.849964 0
M  V30 8529 H 886.068 5.83772 -0.669618 0
M  V30 8530 H 887.592 6.10187 0.224612 0
M  V30 8531 H 889.006 5.39672 -1.9346 0
M  V30 8532 H 887.403 5.34702 -2.72422 0
M  V30 8533 H 888.473 3.93744 -2.83008 0
M  V30 8534 N 889.816 0.795718 1.36037 0
M  V30 8535 C 890.779 0.204318 2.28287 0
M  V30 8536 C 891.779 -0.602017 1.49105 0
M  V30 8537 O 892.969 -0.422089 1.69009 0
M  V30 8538 C 890.101 -0.716431 3.33287 0
M  V30 8539 H 891.294 1.01781 2.821 0
M  V30 8540 H 888.847 0.565588 1.45708 0
M  V30 8541 H 889.582 -1.55403 2.84641 0
M  V30 8542 H 889.367 -0.140096 3.9185 0
M  V30 8543 H 890.857 -1.12488 4.02164 0
M  V30 8544 N 891.294 -1.47756 0.548274 0
M  V30 8545 C 892.54 -2.02789 0.0209265 0
M  V30 8546 C 892.873 -1.42268 -1.32187 0
M  V30 8547 O 892.148 -0.575001 -1.85806 0
M  V30 8548 C 892.431 -3.60007 -0.0816674 0
M  V30 8549 C 892.284 -4.30977 1.28759 0
M  V30 8550 C 893.603 -4.32777 -0.799515 0
M  V30 8551 H 890.722 -0.736944 0.00907884 0
M  V30 8552 H 893.364 -1.76282 0.708839 0
M  V30 8553 H 891.514 -3.82722 -0.667537 0
M  V30 8554 H 893.186 -4.19629 1.91597 0
M  V30 8555 H 891.429 -3.9168 1.86466 0
M  V30 8556 H 892.1 -5.39488 1.16861 0
M  V30 8557 H 894.576 -4.15001 -0.30216 0
M  V30 8558 H 893.452 -5.42431 -0.840239 0
M  V30 8559 H 893.713 -4.01358 -1.85375 0
M  V30 8560 N 892.772 -0.284283 -1.55015 0
M  V30 8561 C 894.02 0.329212 -1.99401 0
M  V30 8562 C 894.341 1.55687 -1.17416 0
M  V30 8563 O 893.611 1.94087 -0.265937 0
M  V30 8564 H 892.191 0.12463 -0.73653 0
M  V30 8565 H 894.853 -0.391743 -1.90922 0
M  V30 8566 H 893.949 0.61278 -3.06025 0
M  V30 8567 N 894.251 1.57596 -0.0117121 0
M  V30 8568 C 895.479 1.9536 0.681334 0
M  V30 8569 C 895.894 0.887255 1.66653 0
M  V30 8570 O 895.251 -0.132692 1.82017 0
M  V30 8571 C 895.302 3.33165 1.40298 0
M  V30 8572 O 895.023 4.35707 0.45728 0
M  V30 8573 C 896.524 3.85458 2.18946 0
M  V30 8574 H 893.744 0.643826 0.189023 0
M  V30 8575 H 896.288 2.04392 -0.066311 0
M  V30 8576 H 894.443 3.25404 2.10216 0
M  V30 8577 H 894.857 5.15495 0.96773 0
M  V30 8578 H 896.331 4.84275 2.64918 0
M  V30 8579 H 896.808 3.18781 3.02118 0
M  V30 8580 H 897.414 3.96431 1.5402 0
M  V30 8581 N 895.729 -0.261212 1.5542 0
M  V30 8582 C 897.006 -1.01321 1.67312 0
M  V30 8583 C 897.386 -2.0388 0.547356 0
M  V30 8584 O 896.734 -2.24003 -0.451083 0
M  V30 8585 C 896.944 -1.65943 3.07024 0
M  V30 8586 C 898.292 -2.16666 3.65159 0
M  V30 8587 O 899.316 -1.75909 3.09733 0
M  V30 8588 O 898.175 -2.91455 4.62294 0
M  V30 8589 H 895.269 -0.470714 0.679968 0
M  V30 8590 H 897.815 -0.256133 1.67756 0
M  V30 8591 H 896.587 -0.916868 3.80407 0
M  V30 8592 H 896.21 -2.48308 3.1053 0
M  V30 8593 N 897.207 -1.48554 -0.526253 0
M  V30 8594 C 898.455 -1.56452 -1.27935 0
M  V30 8595 C 898.776 -0.24184 -1.93495 0
M  V30 8596 O 898.046 0.736917 -1.81511 0
M  V30 8597 H 896.626 -0.576379 -0.47518 0
M  V30 8598 H 899.288 -1.85039 -0.612083 0
M  V30 8599 H 898.384 -2.34751 -2.05666 0
M  V30 8600 N 898.685 0.775411 -1.37205 0
M  V30 8601 C 900.101 1.07546 -1.17924 0
M  V30 8602 C 900.301 2.01496 -0.0128897 0
M  V30 8603 O 899.357 2.44039 0.64816 0
M  V30 8604 C 900.67 1.67647 -2.49629 0
M  V30 8605 C 902.218 1.79923 -2.56119 0
M  V30 8606 C 902.693 2.43438 -3.87946 0
M  V30 8607 N 904.184 2.50893 -3.89368 0
M  V30 8608 C 904.919 3.00881 -4.88117 0
M  V30 8609 N 904.415 3.5107 -5.97262 0
M  V30 8610 N 906.208 2.99722 -4.75524 0
M  V30 8611 H 898.359 0.151524 -2.11859 0
M  V30 8612 H 900.622 0.129845 -0.939066 0
M  V30 8613 H 900.328 1.06082 -3.3532 0
M  V30 8614 H 900.202 2.66988 -2.66453 0
M  V30 8615 H 902.589 2.40621 -1.70838 0
M  V30 8616 H 902.67 0.793482 -2.43182 0
M  V30 8617 H 902.314 1.8338 -4.73639 0
M  V30 8618 H 902.244 3.44611 -3.98184 0
M  V30 8619 H 904.735 2.1537 -3.10522 0
M  V30 8620 H 905.048 3.87604 -6.68568 0
M  V30 8621 H 903.393 3.49184 -6.00912 0
M  V30 8622 H 906.584 2.5981 -3.8938 0
M  V30 8623 H 906.757 3.38369 -5.52639 0
M  V30 8624 N 900.163 1.21714 1.00117 0
M  V30 8625 C 901.409 1.03823 1.74208 0
M  V30 8626 C 901.742 -0.426733 1.89454 0
M  V30 8627 O 901.017 -1.31658 1.43166 0
M  V30 8628 C 901.3 1.74047 3.15246 0
M  V30 8629 C 901.153 3.28087 3.077 0
M  V30 8630 C 902.472 1.48614 4.14249 0
M  V30 8631 H 899.591 0.378573 0.632338 0
M  V30 8632 H 902.233 1.49942 1.16694 0
M  V30 8633 H 900.383 1.3484 3.64349 0
M  V30 8634 H 902.055 3.76686 2.6628 0
M  V30 8635 H 900.298 3.58191 2.44707 0
M  V30 8636 H 900.969 3.72392 4.07466 0
M  V30 8637 H 903.445 1.82656 3.73866 0
M  V30 8638 H 902.321 2.00257 5.11066 0
M  V30 8639 H 902.582 0.416957 4.40129 0
M  V30 8640 N 901.641 -1.19671 1.02551 0
M  V30 8641 C 902.881 -1.90971 0.728668 0
M  V30 8642 C 903.245 -1.7762 -0.729057 0
M  V30 8643 O 904.446 -2.43484 -1.13882 0
M  V30 8644 C 902.717 -3.3794 1.16323 0
M  V30 8645 S 904.276 -4.27493 0.989722 0
M  V30 8646 H 901.094 -0.659617 0.265381 0
M  V30 8647 H 903.696 -1.44698 1.31463 0
M  V30 8648 H 902.4 -3.45181 2.21986 0
M  V30 8649 H 901.931 -3.89243 0.570417 0
M  V30 8650 H 903.946 -4.96096 -0.101666 0
M  V30 8651 N 903.119 -0.802921 -1.35613 0
M  V30 8652 C 904.365 -0.382141 -1.99167 0
M  V30 8653 C 904.698 1.04704 -1.63556 0
M  V30 8654 O 903.973 1.72578 -0.89706 0
M  V30 8655 C 904.256 -0.561493 -3.55695 0
M  V30 8656 C 904.109 -2.03534 -4.01116 0
M  V30 8657 C 905.428 0.0151135 -4.40097 0
M  V30 8658 H 902.547 -0.140322 -0.723518 0
M  V30 8659 H 905.189 -1.01177 -1.6082 0
M  V30 8660 H 903.339 -0.0255083 -3.88492 0
M  V30 8661 H 905.011 -2.63343 -3.78746 0
M  V30 8662 H 903.254 -2.5331 -3.52159 0
M  V30 8663 H 903.925 -2.11173 -5.1001 0
M  V30 8664 H 906.401 -0.442582 -4.1374 0
M  V30 8665 H 905.277 -0.140316 -5.48721 0
M  V30 8666 H 905.538 1.10848 -4.27978 0
M  V30 8667 N 904.597 1.47463 -0.556102 0
M  V30 8668 C 905.874 1.9557 0.0339892 0
M  V30 8669 C 906.254 1.49869 1.48669 0
M  V30 8670 O 905.602 0.737019 2.16288 0
M  V30 8671 C 905.812 3.48826 -0.110343 0
M  V30 8672 C 907.16 4.24585 0.0355716 0
M  V30 8673 O 908.184 3.5618 -0.0378356 0
M  V30 8674 O 907.043 5.46158 0.193299 0
M  V30 8675 H 904.137 0.824461 0.0647521 0
M  V30 8676 H 906.683 1.57868 -0.622547 0
M  V30 8677 H 905.455 3.74891 -1.12126 0
M  V30 8678 H 905.078 3.9329 0.583855 0
M  V30 8679 N 906.075 0.2925 1.54862 0
M  V30 8680 C 907.303 -0.322113 2.04377 0
M  V30 8681 C 907.718 -1.48164 1.17016 0
M  V30 8682 O 907.075 -1.81466 0.19395 0
M  V30 8683 C 907.126 -0.786506 3.5284 0
M  V30 8684 O 906.847 0.326863 4.36879 0
M  V30 8685 C 908.348 -1.46715 4.18318 0
M  V30 8686 H 905.568 -0.0712074 0.667211 0
M  V30 8687 H 908.112 0.429657 1.99935 0
M  V30 8688 H 906.267 -1.48832 3.5767 0
M  V30 8689 H 906.681 -0.0331558 5.2449 0
M  V30 8690 H 908.155 -1.74333 5.23748 0
M  V30 8691 H 908.632 -2.40443 3.67538 0
M  V30 8692 H 909.238 -0.808735 4.1754 0
M  V30 8693 N 907.553 -1.57587 0.0200696 0
M  V30 8694 C 908.503 -2.0616 -0.973751 0
M  V30 8695 C 909.487 -0.960282 -1.29102 0
M  V30 8696 O 910.679 -1.22391 -1.27865 0
M  V30 8697 C 907.808 -2.58487 -2.25919 0
M  V30 8698 C 906.894 -3.75533 -1.97068 0
M  V30 8699 N 907.285 -4.86482 -1.38451 0
M  V30 8700 C 905.583 -3.83847 -2.27107 0
M  V30 8701 C 906.284 -5.67773 -1.26527 0
M  V30 8702 N 905.26 -5.14398 -1.75772 0
M  V30 8703 H 909.062 -2.89346 -0.515365 0
M  V30 8704 H 906.576 -1.61341 -0.185163 0
M  V30 8705 H 908.573 -2.91572 -2.97979 0
M  V30 8706 H 907.233 -1.76728 -2.72392 0
M  V30 8707 H 908.244 -5.06922 -1.06069 0
M  V30 8708 H 904.921 -3.12978 -2.76316 0
M  V30 8709 H 906.311 -6.66966 -0.812785 0
M  V30 8710 N 909.032 0.252966 -1.55557 0
M  V30 8711 C 910.278 0.983306 -1.77367 0
M  V30 8712 C 910.611 1.85203 -0.584258 0
M  V30 8713 O 909.886 1.89963 0.417644 0
M  V30 8714 C 910.169 1.84896 -3.09007 0
M  V30 8715 C 910.022 1.00883 -4.38341 0
M  V30 8716 C 911.341 2.83254 -3.36831 0
M  V30 8717 H 908.46 0.356056 -0.645286 0
M  V30 8718 H 911.102 0.254232 -1.88291 0
M  V30 8719 H 909.252 2.47058 -2.99825 0
M  V30 8720 H 910.924 0.40638 -4.59507 0
M  V30 8721 H 909.167 0.31297 -4.3267 0
M  V30 8722 H 909.838 1.64818 -5.2682 0
M  V30 8723 H 912.314 2.31228 -3.45937 0
M  V30 8724 H 911.19 3.40949 -4.30169 0
M  V30 8725 H 911.451 3.59407 -2.57447 0
M  V30 8726 N 910.51 1.48831 0.518367 0
M  V30 8727 C 911.926 1.35209 0.847979 0
M  V30 8728 C 912.126 0.371927 1.98038 0
M  V30 8729 O 911.182 -0.202681 2.51685 0
M  V30 8730 C 912.495 2.7552 1.20455 0
M  V30 8731 C 914.043 2.84094 1.31377 0
M  V30 8732 C 914.518 4.25132 1.70372 0
M  V30 8733 N 916.009 4.27861 1.77453 0
M  V30 8734 C 916.744 5.3394 2.09035 0
M  V30 8735 N 916.24 6.50285 2.3896 0
M  V30 8736 N 918.033 5.21343 2.10139 0
M  V30 8737 H 910.184 2.11166 -0.228624 0
M  V30 8738 H 912.447 0.94717 -0.0396599 0
M  V30 8739 H 912.153 3.48861 0.445991 0
M  V30 8740 H 912.027 3.09785 2.15204 0
M  V30 8741 H 914.414 2.11001 2.06307 0
M  V30 8742 H 914.495 2.53433 0.347203 0
M  V30 8743 H 914.139 4.98745 0.959975 0
M  V30 8744 H 914.069 4.53245 2.68098 0
M  V30 8745 H 916.56 3.43945 1.56557 0
M  V30 8746 H 916.873 7.26961 2.62196 0
M  V30 8747 H 915.218 6.5354 2.36454 0
M  V30 8748 H 918.409 4.29462 1.86225 0
M  V30 8749 H 918.582 6.04112 2.34419 0
M  V30 8750 N 911.988 -0.768124 1.37614 0
M  V30 8751 C 913.213 -1.56239 1.36397 0
M  V30 8752 C 913.638 -1.8804 -0.0475839 0
M  V30 8753 O 912.996 -1.495 -1.02564 0
M  V30 8754 C 913.044 -2.84716 2.21289 0
M  V30 8755 O 912.148 -3.79249 1.62001 0
M  V30 8756 H 911.489 -0.473119 0.465891 0
M  V30 8757 H 914.019 -0.950415 1.81186 0
M  V30 8758 H 914.029 -3.33784 2.34632 0
M  V30 8759 H 912.704 -2.60899 3.2389 0
M  V30 8760 H 911.281 -3.37904 1.57719 0
M  V30 8761 N 913.466 -1.22244 -0.994698 0
M  V30 8762 C 914.694 -1.07218 -1.76952 0
M  V30 8763 C 915.109 0.377388 -1.8499 0
M  V30 8764 O 914.466 1.26157 -1.31874 0
M  V30 8765 C 914.517 -1.67496 -3.20355 0
M  V30 8766 O 914.238 -3.06782 -3.12756 0
M  V30 8767 C 915.739 -1.57721 -4.14294 0
M  V30 8768 H 912.959 -0.375966 -0.555779 0
M  V30 8769 H 915.503 -1.61799 -1.25065 0
M  V30 8770 H 913.658 -1.16982 -3.69315 0
M  V30 8771 H 914.072 -3.35784 -4.02926 0
M  V30 8772 H 915.546 -2.04623 -5.12673 0
M  V30 8773 H 916.023 -0.533434 -4.35949 0
M  V30 8774 H 916.629 -2.07531 -3.71229 0
M  V30 8775 N 914.944 1.19125 -1.03184 0
M  V30 8776 C 916.184 1.90582 -0.738785 0
M  V30 8777 C 916.548 1.78004 0.719627 0
M  V30 8778 O 917.749 2.44084 1.12589 0
M  V30 8779 C 916.02 3.37319 -1.18114 0
M  V30 8780 S 917.579 4.26962 -1.01238 0
M  V30 8781 H 914.397 0.6582 -0.268875 0
M  V30 8782 H 916.999 1.43999 -1.32229 0
M  V30 8783 H 915.703 3.43999 -2.23814 0
M  V30 8784 H 915.234 3.88935 -0.591051 0
M  V30 8785 H 917.249 4.96143 0.0753558 0
M  V30 8786 N 916.422 0.810101 1.35185 0
M  V30 8787 C 917.652 0.404109 2.02609 0
M  V30 8788 C 918.06 -0.990748 1.61186 0
M  V30 8789 O 917.403 -1.65038 0.80674 0
M  V30 8790 C 917.465 0.412047 3.57131 0
M  V30 8791 C 917.129 1.75802 4.21832 0
M  V30 8792 C 918.126 2.71687 4.43263 0
M  V30 8793 C 915.811 2.04299 4.58876 0
M  V30 8794 C 917.805 3.9425 5.00845 0
M  V30 8795 C 915.492 3.27125 5.16171 0
M  V30 8796 C 916.49 4.21918 5.37098 0
M  V30 8797 O 916.178 5.42576 5.93184 0
M  V30 8798 H 915.91 0.161914 0.656323 0
M  V30 8799 H 918.464 1.09605 1.73712 0
M  V30 8800 H 916.694 -0.336509 3.85233 0
M  V30 8801 H 918.383 0.0278817 4.0589 0
M  V30 8802 H 919.149 2.50964 4.15021 0
M  V30 8803 H 915.028 1.31324 4.41899 0
M  V30 8804 H 918.572 4.68251 5.17094 0
M  V30 8805 H 914.469 3.47718 5.43841 0
M  V30 8806 H 915.237 5.43921 6.11631 0
M  V30 8807 N 917.9 -1.47166 0.563914 0
M  V30 8808 C 919.148 -2.02056 0.0422873 0
M  V30 8809 C 919.469 -1.43992 -1.31497 0
M  V30 8810 O 918.739 -0.617578 -1.85911 0
M  V30 8811 H 917.319 -0.746893 0.0126427 0
M  V30 8812 H 919.981 -1.80492 0.735441 0
M  V30 8813 H 919.077 -3.12073 -0.0408044 0
M  V30 8814 N 919.378 -0.300708 -1.54705 0
M  V30 8815 C 920.341 0.562648 -2.22187 0
M  V30 8816 C 921.341 1.06152 -1.20782 0
M  V30 8817 O 922.531 0.957596 -1.45519 0
M  V30 8818 C 919.663 1.77899 -2.908 0
M  V30 8819 H 920.856 -0.0269361 -2.99888 0
M  V30 8820 H 918.409 -0.0515412 -1.56215 0
M  V30 8821 H 919.144 2.40841 -2.17177 0
M  V30 8822 H 918.929 1.42892 -3.65136 0
M  V30 8823 H 920.419 2.39236 -3.42281 0
M  V30 8824 N 920.856 1.57574 -0.0284266 0
M  V30 8825 C 922.105 1.9095 0.649704 0
M  V30 8826 C 922.418 0.906421 1.7333 0
M  V30 8827 O 923.624 1.1314 2.46803 0
M  V30 8828 C 922.08 3.39061 1.20687 0
M  V30 8829 C 921.688 4.47726 0.156597 0
M  V30 8830 C 923.432 3.81505 1.86156 0
M  V30 8831 C 921.339 5.86935 0.725365 0
M  V30 8832 H 920.269 0.712589 0.24644 0
M  V30 8833 H 922.92 1.83261 -0.0936143 0
M  V30 8834 H 921.302 3.41679 2.00178 0
M  V30 8835 H 922.476 4.56667 -0.6158 0
M  V30 8836 H 920.791 4.14481 -0.399288 0
M  V30 8837 H 923.388 4.82865 2.29665 0
M  V30 8838 H 923.731 3.16529 2.70398 0
M  V30 8839 H 924.264 3.81307 1.13356 0
M  V30 8840 H 921.003 6.55453 -0.0789081 0
M  V30 8841 H 920.523 5.81602 1.46627 0
M  V30 8842 H 922.202 6.35483 1.21532 0
M  V30 8843 N 922.334 -0.244713 1.55689 0
M  V30 8844 C 923.244 -1.32447 1.93636 0
M  V30 8845 C 924.26 -1.52541 0.837086 0
M  V30 8846 O 925.436 -1.66121 1.13867 0
M  V30 8847 C 922.501 -2.65864 2.22525 0
M  V30 8848 C 921.562 -2.54273 3.45896 0
M  V30 8849 C 920.795 -3.81327 3.73397 0
M  V30 8850 O 921.018 -4.83307 3.02936 0
M  V30 8851 O 919.952 -3.79829 4.66919 0
M  V30 8852 H 923.778 -1.03255 2.85608 0
M  V30 8853 H 921.363 -0.445652 1.42598 0
M  V30 8854 H 923.245 -3.447 2.42404 0
M  V30 8855 H 921.92 -2.94784 1.33731 0
M  V30 8856 H 920.827 -1.73715 3.31321 0
M  V30 8857 H 922.16 -2.30297 4.34999 0
M  V30 8858 N 923.813 -1.49104 -0.510467 0
M  V30 8859 C 924.76 -1.65074 -1.61305 0
M  V30 8860 C 925.73 -0.492362 -1.58635 0
M  V30 8861 O 926.915 -0.718241 -1.76765 0
M  V30 8862 C 924.055 -1.71457 -2.99493 0
M  V30 8863 C 923.168 -2.98536 -3.12251 0
M  V30 8864 C 922.303 -2.95957 -4.41116 0
M  V30 8865 C 921.342 -4.17655 -4.47471 0
M  V30 8866 N 920.479 -4.13041 -5.67751 0
M  V30 8867 H 925.319 -2.59222 -1.46996 0
M  V30 8868 H 922.856 -1.28535 -0.715346 0
M  V30 8869 H 924.814 -1.7314 -3.79577 0
M  V30 8870 H 923.444 -0.807834 -3.12528 0
M  V30 8871 H 922.496 -3.06509 -2.25292 0
M  V30 8872 H 923.808 -3.88527 -3.12807 0
M  V30 8873 H 922.962 -2.96149 -5.2951 0
M  V30 8874 H 921.701 -2.03728 -4.4311 0
M  V30 8875 H 920.706 -4.17717 -3.57481 0
M  V30 8876 H 921.931 -5.11066 -4.472 0
M  V30 8877 H 919.877 -3.23643 -5.70606 0
M  V30 8878 H 919.794 -4.96757 -5.69884 0
M  V30 8879 H 921.062 -4.17322 -6.58379 0
M  V30 8880 N 925.291 0.760815 -1.38019 0
M  V30 8881 C 926.539 1.51673 -1.33566 0
M  V30 8882 C 926.86 1.94852 0.076024 0
M  V30 8883 O 926.13 1.67112 1.02227 0
M  V30 8884 H 924.71 0.562581 -0.491438 0
M  V30 8885 H 927.372 0.904832 -1.72623 0
M  V30 8886 H 926.468 2.41102 -1.98182 0
M  V30 8887 N 926.769 1.22769 0.988202 0
M  V30 8888 C 927.994 1.08239 1.76915 0
M  V30 8889 C 928.419 -0.362519 1.84574 0
M  V30 8890 O 927.777 -1.26202 1.30165 0
M  V30 8891 C 927.825 1.70363 3.17819 0
M  V30 8892 O 926.929 0.960484 4.01059 0
M  V30 8893 H 926.27 0.379872 0.544604 0
M  V30 8894 H 928.8 1.62663 1.24104 0
M  V30 8895 H 928.81 1.7528 3.6843 0
M  V30 8896 H 927.485 2.75505 3.1156 0
M  V30 8897 H 926.062 0.987667 3.59582 0
M  V30 8898 N 928.247 -1.18576 1.03814 0
M  V30 8899 C 929.487 -1.90187 0.748882 0
M  V30 8900 C 929.851 -1.78383 -0.710177 0
M  V30 8901 O 931.052 -2.44678 -1.11293 0
M  V30 8902 C 929.323 -3.36688 1.19901 0
M  V30 8903 S 930.882 -4.26419 1.03501 0
M  V30 8904 H 927.7 -0.656765 0.272362 0
M  V30 8905 H 930.302 -1.43296 1.32991 0
M  V30 8906 H 929.006 -3.42808 2.25635 0
M  V30 8907 H 928.537 -3.88616 0.611669 0
M  V30 8908 H 930.552 -4.96176 -0.0490431 0
M  V30 8909 N 929.725 -0.817259 -1.34754 0
M  V30 8910 C 930.688 -0.240611 -2.27934 0
M  V30 8911 C 931.688 0.578219 -1.50044 0
M  V30 8912 O 932.878 0.395148 -1.69659 0
M  V30 8913 C 930.01 0.663318 -3.34384 0
M  V30 8914 H 931.203 -1.06257 -2.80445 0
M  V30 8915 H 928.756 -0.588697 -1.4479 0
M  V30 8916 H 929.491 1.50855 -2.87077 0
M  V30 8917 H 929.276 0.0777388 -3.92023 0
M  V30 8918 H 930.766 1.06076 -4.03903 0
M  V30 8919 N 931.203 1.46865 -0.571711 0
M  V30 8920 C 932.619 1.57897 -0.23255 0
M  V30 8921 C 932.819 1.56836 1.26509 0
M  V30 8922 O 931.875 1.47947 2.04617 0
M  V30 8923 C 933.188 2.87778 -0.872036 0
M  V30 8924 C 934.736 3.01389 -0.844605 0
M  V30 8925 C 935.211 4.33991 -1.46343 0
M  V30 8926 N 936.702 4.40662 -1.42727 0
M  V30 8927 C 937.437 5.41858 -1.87557 0
M  V30 8928 N 936.933 6.49787 -2.4031 0
M  V30 8929 N 938.726 5.32992 -1.7854 0
M  V30 8930 H 930.877 1.45798 -1.54457 0
M  V30 8931 H 933.14 0.694785 -0.644964 0
M  V30 8932 H 932.846 2.94332 -1.92513 0
M  V30 8933 H 932.72 3.75345 -0.373677 0
M  V30 8934 H 935.107 2.94423 0.19984 0
M  V30 8935 H 935.188 2.15327 -1.38087 0
M  V30 8936 H 934.832 4.41714 -2.50701 0
M  V30 8937 H 934.762 5.18809 -0.902479 0
M  V30 8938 H 937.253 3.63263 -1.04155 0
M  V30 8939 H 937.566 7.23199 -2.72403 0
M  V30 8940 H 935.911 6.50637 -2.44329 0
M  V30 8941 H 939.102 4.47575 -1.37093 0
M  V30 8942 H 939.275 6.11716 -2.13794 0
M  V30 8943 N 932.681 0.308908 1.54543 0
M  V30 8944 C 934.092 -0.182144 1.85809 0
M  V30 8945 C 934.443 -1.52796 1.23076 0
M  V30 8946 O 933.568 -2.09775 0.531358 0
M  V30 8947 C 934.163 -0.337275 3.37117 0
M  V30 8948 C 932.722 -0.772545 3.68387 0
M  V30 8949 C 931.869 0.114451 2.77064 0
M  V30 8950 H 934.82 0.529671 1.496 0
M  V30 8951 H 934.841 -1.17058 3.62046 0
M  V30 8952 H 934.353 0.642382 3.82747 0
M  V30 8953 H 932.454 -1.76247 3.2828 0
M  V30 8954 H 932.567 -0.586453 4.75497 0
M  V30 8955 H 930.931 -0.407581 2.51418 0
M  V30 8956 H 931.714 1.09061 3.25516 0
M  V30 8957 N 934.159 -1.57557 0.0367827 0
M  V30 8958 C 935.406 -1.92114 -0.640185 0
M  V30 8959 C 935.734 -0.913887 -1.71693 0
M  V30 8960 O 934.989 0.0760343 -1.95552 0
M  V30 8961 C 935.288 -3.33387 -1.28794 0
M  V30 8962 C 934.954 -4.4961 -0.340819 0
M  V30 8963 C 933.616 -4.81133 -0.0801574 0
M  V30 8964 C 935.968 -5.20283 0.309106 0
M  V30 8965 C 933.296 -5.80683 0.838107 0
M  V30 8966 C 935.648 -6.20813 1.21547 0
M  V30 8967 C 934.312 -6.50773 1.48495 0
M  V30 8968 H 933.582 -0.702996 -0.23426 0
M  V30 8969 H 936.229 -1.91238 0.100188 0
M  V30 8970 H 934.534 -3.30561 -2.10324 0
M  V30 8971 H 936.231 -3.57399 -1.81843 0
M  V30 8972 H 932.821 -4.25002 -0.554161 0
M  V30 8973 H 937.005 -4.96153 0.120794 0
M  V30 8974 H 932.261 -6.02238 1.05451 0
M  V30 8975 H 936.435 -6.74692 1.72522 0
M  V30 8976 H 934.062 -7.27727 2.19814 0
M  V30 8977 N 935.637 0.236453 -1.55816 0
M  V30 8978 C 937.048 0.80468 -1.68469 0
M  V30 8979 C 937.399 1.85601 -0.636133 0
M  V30 8980 O 936.524 2.15323 0.215622 0
M  V30 8981 C 937.119 1.46634 -3.05424 0
M  V30 8982 C 935.678 1.98214 -3.19981 0
M  V30 8983 C 934.825 0.83695 -2.64368 0
M  V30 8984 H 937.776 0.0120647 -1.58695 0
M  V30 8985 H 937.797 2.33472 -3.00451 0
M  V30 8986 H 937.309 0.700931 -3.81718 0
M  V30 8987 H 935.41 2.77604 -2.4853 0
M  V30 8988 H 935.523 2.17235 -4.2702 0
M  V30 8989 H 933.887 1.24028 -2.22462 0
M  V30 8990 H 934.67 0.084451 -3.43196 0
M  V30 8991 N 937.115 1.49373 0.502552 0
M  V30 8992 C 938.363 1.58467 1.25429 0
M  V30 8993 C 938.684 0.272593 1.93085 0
M  V30 8994 O 937.954 -0.707947 1.82661 0
M  V30 8995 H 936.534 0.583866 0.46595 0
M  V30 8996 H 939.196 1.8599 0.582568 0
M  V30 8997 H 938.292 2.37993 2.01906 0
M  V30 8998 N 938.594 -0.753485 1.38421 0
M  V30 8999 C 939.822 -1.54272 1.37868 0
M  V30 9000 C 940.237 -1.88774 -0.0315155 0
M  V30 9001 O 939.594 -1.52785 -0.998148 0
M  V30 9002 C 939.645 -2.84179 2.23438 0
M  V30 9003 O 939.366 -2.51149 3.58965 0
M  V30 9004 C 940.867 -3.78316 2.31067 0
M  V30 9005 H 938.087 -0.47735 0.47157 0
M  V30 9006 H 940.631 -0.932509 1.82001 0
M  V30 9007 H 938.786 -3.41577 1.82767 0
M  V30 9008 H 939.2 -3.34466 4.04021 0
M  V30 9009 H 940.674 -4.66418 2.95226 0
M  V30 9010 H 941.151 -4.18757 1.32436 0
M  V30 9011 H 941.757 -3.26842 2.72129 0
M  V30 9012 N 940.072 -1.23292 -0.981677 0
M  V30 9013 C 941.318 -1.06582 -1.72535 0
M  V30 9014 C 941.651 0.396538 -1.90108 0
M  V30 9015 O 940.926 1.29363 -1.45243 0
M  V30 9016 C 941.209 -1.7904 -3.12437 0
M  V30 9017 C 941.062 -3.32941 -3.02441 0
M  V30 9018 C 942.381 -1.55185 -4.11832 0
M  V30 9019 H 939.5 -0.388585 -0.626236 0
M  V30 9020 H 942.142 -1.51779 -1.14293 0
M  V30 9021 H 940.292 -1.40619 -3.62158 0
M  V30 9022 H 941.964 -3.80875 -2.60254 0
M  V30 9023 H 940.207 -3.62039 -2.38977 0
M  V30 9024 H 940.878 -3.78827 -4.0149 0
M  V30 9025 H 943.354 -1.88581 -3.70913 0
M  V30 9026 H 942.23 -2.08362 -5.07815 0
M  V30 9027 H 942.491 -0.486925 -4.3941 0
M  V30 9028 N 941.55 1.18024 -1.04442 0
M  V30 9029 C 942.778 1.92032 -0.770161 0
M  V30 9030 C 943.193 1.76391 0.673181 0
M  V30 9031 O 942.55 1.09604 1.45922 0
M  V30 9032 C 942.601 3.43328 -1.13173 0
M  V30 9033 O 942.322 3.5848 -2.51841 0
M  V30 9034 C 943.823 4.34427 -0.882523 0
M  V30 9035 H 941.043 0.609518 -0.280586 0
M  V30 9036 H 943.587 1.49711 -1.39308 0
M  V30 9037 H 941.742 3.83423 -0.553704 0
M  V30 9038 H 942.156 4.52166 -2.65794 0
M  V30 9039 H 943.63 5.39123 -1.18533 0
M  V30 9040 H 944.107 4.3882 0.18257 0
M  V30 9041 H 944.713 4.00035 -1.44403 0
M  V30 9042 N 943.028 0.824394 1.34319 0
M  V30 9043 C 943.975 0.245282 2.29493 0
M  V30 9044 C 944.945 -0.630762 1.53657 0
M  V30 9045 O 946.13 -0.572094 1.82021 0
M  V30 9046 C 943.27 -0.585631 3.40095 0
M  V30 9047 C 942.383 0.312821 4.30866 0
M  V30 9048 C 941.518 -0.527801 5.28571 0
M  V30 9049 C 940.557 0.369946 6.10981 0
M  V30 9050 N 939.694 -0.43169 7.00772 0
M  V30 9051 H 944.534 1.06225 2.78425 0
M  V30 9052 H 942.071 0.53533 1.37013 0
M  V30 9053 H 944.029 -1.08271 4.02906 0
M  V30 9054 H 942.659 -1.3677 2.92393 0
M  V30 9055 H 941.711 0.928129 3.68904 0
M  V30 9056 H 943.023 1.00306 4.8861 0
M  V30 9057 H 942.177 -1.0893 5.96841 0
M  V30 9058 H 940.916 -1.25154 4.71368 0
M  V30 9059 H 939.921 0.943577 5.41643 0
M  V30 9060 H 941.146 1.09182 6.70266 0
M  V30 9061 H 939.092 -1.13908 6.46035 0
M  V30 9062 H 939.009 0.200133 7.55735 0
M  V30 9063 H 940.277 -0.975894 7.73367 0
M  V30 9064 N 944.506 -1.46559 0.579492 0
M  V30 9065 C 945.731 -2.0729 0.0674595 0
M  V30 9066 C 946.156 -1.4259 -1.22677 0
M  V30 9067 O 945.514 -0.50857 -1.74021 0
M  V30 9068 C 945.562 -3.60492 -0.0882227 0
M  V30 9069 O 944.666 -3.96172 -1.14551 0
M  V30 9070 H 944.007 -0.661159 0.0613536 0
M  V30 9071 H 946.537 -1.88247 0.801519 0
M  V30 9072 H 946.547 -4.06929 -0.295411 0
M  V30 9073 H 945.222 -4.06976 0.856943 0
M  V30 9074 H 943.799 -3.61448 -0.917033 0
M  V30 9075 N 945.984 -0.3171 -1.54377 0
M  V30 9076 C 946.894 0.560867 -2.27797 0
M  V30 9077 C 947.91 1.13473 -1.31908 0
M  V30 9078 O 949.086 1.15608 -1.64914 0
M  V30 9079 C 946.151 1.70886 -3.0166 0
M  V30 9080 C 945.212 1.16745 -4.13121 0
M  V30 9081 C 944.445 2.26073 -4.83453 0
M  V30 9082 O 944.668 3.46292 -4.53252 0
M  V30 9083 O 943.602 1.91856 -5.70504 0
M  V30 9084 H 947.428 -0.035193 -3.0368 0
M  V30 9085 H 945.013 -0.0830062 -1.49169 0
M  V30 9086 H 946.895 2.37736 -3.47936 0
M  V30 9087 H 945.57 2.29122 -2.28658 0
M  V30 9088 H 944.477 0.464224 -3.71209 0
M  V30 9089 H 945.81 0.630307 -4.88147 0
M  V30 9090 N 947.462 1.57535 -0.0451378 0
M  V30 9091 C 948.702 1.9432 0.633955 0
M  V30 9092 C 949.066 0.922924 1.68363 0
M  V30 9093 O 950.267 1.17751 2.41636 0
M  V30 9094 C 948.538 3.35933 1.21999 0
M  V30 9095 S 950.097 3.94666 1.91793 0
M  V30 9096 H 946.915 0.679798 0.208318 0
M  V30 9097 H 949.517 1.95175 -0.112633 0
M  V30 9098 H 948.221 4.07993 0.443821 0
M  V30 9099 H 947.752 3.38559 2.00353 0
M  V30 9100 H 949.767 3.79401 3.19796 0
M  V30 9101 N 948.94 -0.228186 1.55939 0
M  V30 9102 C 950.18 -0.960695 1.80416 0
M  V30 9103 C 950.544 -1.81795 0.617615 0
M  V30 9104 O 951.745 -2.58369 0.741545 0
M  V30 9105 C 950.016 -1.78298 3.09749 0
M  V30 9106 S 951.575 -2.57203 3.55517 0
M  V30 9107 H 948.393 -0.322825 0.633486 0
M  V30 9108 H 950.995 -0.226852 1.94179 0
M  V30 9109 H 949.699 -1.14323 3.94155 0
M  V30 9110 H 949.23 -2.55924 2.98775 0
M  V30 9111 H 951.245 -3.80632 3.1833 0
M  V30 9112 N 950.418 -1.49637 -0.494624 0
M  V30 9113 C 951.658 -1.61067 -1.25844 0
M  V30 9114 C 952.022 -0.293666 -1.89741 0
M  V30 9115 O 953.223 -0.283202 -2.67304 0
M  V30 9116 C 951.494 -2.74218 -2.29215 0
M  V30 9117 S 953.053 -3.05639 -3.1485 0
M  V30 9118 H 949.871 -0.568056 -0.42759 0
M  V30 9119 H 952.473 -1.87323 -0.559491 0
M  V30 9120 H 951.177 -3.68422 -1.80813 0
M  V30 9121 H 950.708 -2.49975 -3.0377 0
M  V30 9122 H 952.723 -2.47651 -4.29981 0
M  V30 9123 N 951.896 0.746133 -1.38819 0
M  V30 9124 C 952.859 1.84167 -1.36437 0
M  V30 9125 C 953.859 1.58626 -0.263499 0
M  V30 9126 O 955.049 1.66233 -0.520801 0
M  V30 9127 C 952.181 3.21769 -1.12596 0
M  V30 9128 H 953.374 1.87684 -2.33912 0
M  V30 9129 H 950.927 0.948625 -1.24221 0
M  V30 9130 H 951.662 3.23917 -0.15758 0
M  V30 9131 H 951.447 3.41702 -1.92307 0
M  V30 9132 H 952.937 4.0184 -1.13643 0
M  V30 9133 N 953.375 1.23811 0.975125 0
M  V30 9134 C 954.323 1.02149 2.0897 0
M  V30 9135 C 955.317 -0.0412172 1.6935 0
M  V30 9136 O 956.523 0.112726 1.79647 0
M  V30 9137 H 952.898 0.313259 0.683647 0
M  V30 9138 H 954.869 1.96686 2.24404 0
M  V30 9139 C 953.618 0.635023 3.41852 0
M  V30 9140 H 952.941 1.44449 3.72793 0
M  V30 9141 H 954.381 0.52301 4.20762 0
M  V30 9142 C 952.84 -0.657207 3.30428 0
M  V30 9143 O 953.37 -1.70494 3.63723 0
M  V30 9144 N 951.576 -0.635122 2.83575 0
M  V30 9145 H 951.123 0.21784 2.56677 0
M  V30 9146 H 951.081 -1.49995 2.76313 0
M  V30 9147 N 954.853 -1.17469 1.05066 0
M  V30 9148 C 956.264 -1.69334 0.786304 0
M  V30 9149 C 956.615 -1.83604 -0.691671 0
M  V30 9150 O 955.74 -1.52269 -1.53763 0
M  V30 9151 C 956.335 -3.07572 1.42074 0
M  V30 9152 C 954.894 -3.56609 1.20446 0
M  V30 9153 C 954.041 -2.329 1.50508 0
M  V30 9154 H 956.992 -1.02003 1.21577 0
M  V30 9155 H 957.013 -3.71352 0.829334 0
M  V30 9156 H 956.525 -2.97154 2.49642 0
M  V30 9157 H 954.626 -3.72306 0.147968 0
M  V30 9158 H 954.739 -4.39446 1.90852 0
M  V30 9159 H 953.103 -2.37305 0.925124 0
M  V30 9160 H 953.886 -2.25093 2.59207 0
M  V30 9161 N 956.331 -0.831506 -1.3388 0
M  V30 9162 C 957.608 -0.345907 -1.92517 0
M  V30 9163 C 957.988 1.16784 -1.75854 0
M  V30 9164 O 957.336 1.97889 -1.14245 0
M  V30 9165 C 957.546 -0.784692 -3.40064 0
M  V30 9166 C 958.894 -0.78846 -4.17215 0
M  V30 9167 O 959.918 -0.727823 -3.48685 0
M  V30 9168 O 958.777 -0.869481 -5.39539 0
M  V30 9169 H 955.871 -0.0963568 -0.821367 0
M  V30 9170 H 958.417 -0.916868 -1.42799 0
M  V30 9171 H 957.189 -1.82697 -3.46031 0
M  V30 9172 H 956.812 -0.189897 -3.97146 0
M  V30 9173 N 957.809 1.4625 -0.587256 0
M  V30 9174 C 958.759 2.27407 0.164393 0
M  V30 9175 C 959.743 1.36138 0.857628 0
M  V30 9176 O 960.935 1.60279 0.750973 0
M  V30 9177 C 958.064 3.22585 1.17447 0
M  V30 9178 C 957.15 4.21339 0.483121 0
M  V30 9179 N 957.541 5.03669 -0.46385 0
M  V30 9180 C 955.839 4.39931 0.73329 0
M  V30 9181 C 956.54 5.75182 -0.868334 0
M  V30 9182 N 955.516 5.43169 -0.216487 0
M  V30 9183 H 959.318 2.88453 -0.563237 0
M  V30 9184 H 956.832 1.57155 -0.409388 0
M  V30 9185 H 958.829 3.79439 1.72718 0
M  V30 9186 H 957.489 2.63098 1.90288 0
M  V30 9187 H 958.5 5.11049 -0.839602 0
M  V30 9188 H 955.177 3.91588 1.44792 0
M  V30 9189 H 956.567 6.51371 -1.64821 0
M  V30 9190 N 959.287 0.325282 1.54207 0
M  V30 9191 C 960.535 -0.276229 2.00203 0
M  V30 9192 C 960.856 -1.52519 1.21503 0
M  V30 9193 O 960.126 -1.93313 0.317302 0
M  V30 9194 H 958.706 -0.105059 0.739575 0
M  V30 9195 H 961.368 0.442225 1.89817 0
M  V30 9196 H 960.464 -0.531427 3.07542 0
M  V30 9197 N 960.765 -1.57509 0.0534917 0
M  V30 9198 C 962.012 -1.92782 -0.619772 0
M  V30 9199 C 962.34 -0.932046 -1.70714 0
M  V30 9200 O 961.595 0.0552891 -1.95622 0
M  V30 9201 C 961.894 -3.34734 -1.25251 0
M  V30 9202 C 961.56 -4.49946 -0.293113 0
M  V30 9203 C 960.222 -4.81191 -0.0291223 0
M  V30 9204 C 962.574 -5.19925 0.364271 0
M  V30 9205 C 959.902 -5.79761 0.899649 0
M  V30 9206 C 962.254 -6.19489 1.28125 0
M  V30 9207 C 960.918 -6.49161 1.55389 0
M  V30 9208 H 960.188 -0.705441 -0.226791 0
M  V30 9209 H 962.835 -1.91121 0.120466 0
M  V30 9210 H 961.14 -3.32774 -2.06807 0
M  V30 9211 H 962.837 -3.59308 -1.78042 0
M  V30 9212 H 959.427 -4.25566 -0.509053 0
M  V30 9213 H 963.611 -4.95997 0.173411 0
M  V30 9214 H 958.867 -6.01085 1.11833 0
M  V30 9215 H 963.041 -6.72824 1.79669 0
M  V30 9216 H 960.668 -7.25354 2.2752 0
M  V30 9217 N 962.243 0.219913 -1.56058 0
M  V30 9218 C 963.491 0.942199 -1.78793 0
M  V30 9219 C 963.812 1.84804 -0.622284 0
M  V30 9220 O 963.082 1.9255 0.360735 0
M  V30 9221 H 961.662 0.350895 -0.659455 0
M  V30 9222 H 964.324 0.231376 -1.93522 0
M  V30 9223 H 963.42 1.54804 -2.71002 0
M  V30 9224 N 963.721 1.49897 0.486681 0
M  V30 9225 C 964.631 1.70379 1.6127 0
M  V30 9226 C 965.647 0.58659 1.63814 0
M  V30 9227 O 966.823 0.863044 1.81971 0
M  V30 9228 C 963.888 1.77911 2.97571 0
M  V30 9229 C 962.949 3.01569 3.0554 0
M  V30 9230 C 962.182 3.08732 4.35339 0
M  V30 9231 O 962.405 2.23099 5.2496 0
M  V30 9232 O 961.339 4.01325 4.48578 0
M  V30 9233 H 965.165 2.65799 1.46916 0
M  V30 9234 H 962.75 1.33808 0.664516 0
M  V30 9235 H 964.632 1.85135 3.78554 0
M  V30 9236 H 963.307 0.856722 3.12157 0
M  V30 9237 H 962.214 2.99854 2.23693 0
M  V30 9238 H 963.547 3.93335 2.95886 0
M  V30 9239 N 965.199 -0.738761 1.39212 0
M  V30 9240 C 966.61 -1.31684 1.32348 0
M  V30 9241 C 966.961 -1.96195 -0.0139041 0
M  V30 9242 O 966.086 -1.96056 -0.916025 0
M  V30 9243 C 966.681 -2.39444 2.39691 0
M  V30 9244 C 965.24 -2.92935 2.36359 0
M  V30 9245 C 964.387 -1.66465 2.21776 0
M  V30 9246 H 967.338 -0.536543 1.49355 0
M  V30 9247 H 967.359 -3.19744 2.06262 0
M  V30 9248 H 966.871 -1.92463 3.37016 0
M  V30 9249 H 964.972 -3.44207 1.42662 0
M  V30 9250 H 965.085 -3.46306 3.31073 0
M  V30 9251 H 963.449 -1.90657 1.68884 0
M  V30 9252 H 964.232 -1.21541 3.21065 0
M  V30 9253 N 966.677 -1.24326 -0.968545 0
M  V30 9254 C 967.917 -1.09434 -1.72637 0
M  V30 9255 C 968.281 0.360781 -1.8858 0
M  V30 9256 O 969.482 0.631188 -2.61284 0
M  V30 9257 C 967.753 -1.81285 -3.08011 0
M  V30 9258 S 969.312 -1.82113 -3.99225 0
M  V30 9259 H 966.13 -0.391409 -0.593565 0
M  V30 9260 H 968.732 -1.57643 -1.15624 0
M  V30 9261 H 967.436 -2.86274 -2.94067 0
M  V30 9262 H 966.967 -1.33405 -3.7009 0
M  V30 9263 H 968.982 -0.888196 -4.88186 0
M  V30 9264 N 968.156 1.1691 -1.05688 0
M  V30 9265 C 969.088 2.20648 -0.620237 0
M  V30 9266 C 970.101 1.59652 0.318604 0
M  V30 9267 O 971.29 1.78157 0.110553 0
M  V30 9268 C 968.39 3.38716 0.111729 0
M  V30 9269 C 967.563 4.29277 -0.839062 0
M  V30 9270 C 966.622 5.25993 -0.147453 0
M  V30 9271 O 965.648 5.63787 -0.783151 0
M  V30 9272 N 966.85 5.69725 1.11327 0
M  V30 9273 H 969.615 2.58731 -1.51256 0
M  V30 9274 H 967.176 1.31858 -0.939412 0
M  V30 9275 H 969.168 4.00455 0.584657 0
M  V30 9276 H 967.738 2.99189 0.905784 0
M  V30 9277 H 966.958 3.64894 -1.4915 0
M  V30 9278 H 968.246 4.86669 -1.48428 0
M  V30 9279 H 967.644 5.41103 1.64999 0
M  V30 9280 H 966.201 6.33584 1.53018 0
M  V30 9281 N 969.634 0.838594 1.33437 0
M  V30 9282 C 970.564 0.286672 2.31734 0
M  V30 9283 C 971.545 -0.605451 1.5896 0
M  V30 9284 O 972.73 -0.529059 1.86854 0
M  V30 9285 C 969.86 -0.539311 3.43087 0
M  V30 9286 C 968.814 0.256997 4.27228 0
M  V30 9287 C 968.14 -0.692718 5.30194 0
M  V30 9288 C 969.44 1.47391 5.01072 0
M  V30 9289 H 971.134 1.10798 2.78144 0
M  V30 9290 H 968.68 0.534235 1.33723 0
M  V30 9291 H 970.633 -0.935724 4.1088 0
M  V30 9292 H 969.357 -1.39383 2.95364 0
M  V30 9293 H 968.016 0.634967 3.61059 0
M  V30 9294 H 967.664 -1.54363 4.78729 0
M  V30 9295 H 967.364 -0.164023 5.87371 0
M  V30 9296 H 968.888 -1.08665 6.00853 0
M  V30 9297 H 970.302 1.15067 5.61634 0
M  V30 9298 H 968.699 1.93937 5.67898 0
M  V30 9299 H 969.769 2.24382 4.29861 0
M  V30 9300 N 971.112 -1.45937 0.595003 0
M  V30 9301 C 972.352 -2.0421 0.0881479 0
M  V30 9302 C 972.716 -1.45498 -1.25277 0
M  V30 9303 O 973.917 -1.95047 -1.8496 0
M  V30 9304 C 972.188 -3.57382 0.0362346 0
M  V30 9305 S 973.747 -4.36869 -0.41126 0
M  V30 9306 H 970.565 -0.709672 0.0434424 0
M  V30 9307 H 973.167 -1.78815 0.790273 0
M  V30 9308 H 971.871 -3.97628 1.0159 0
M  V30 9309 H 971.402 -3.87332 -0.688278 0
M  V30 9310 H 973.417 -4.67486 -1.66347 0
M  V30 9311 N 972.59 -0.333456 -1.54032 0
M  V30 9312 C 974.001 0.15256 -1.86076 0
M  V30 9313 C 974.352 1.50819 -1.25492 0
M  V30 9314 O 973.477 2.08903 -0.564665 0
M  V30 9315 C 974.072 0.283599 -3.37611 0
M  V30 9316 C 972.631 0.713841 -3.69569 0
M  V30 9317 C 971.778 -0.158515 -2.76847 0
M  V30 9318 H 974.729 -0.553404 -1.48738 0
M  V30 9319 H 974.75 1.11284 -3.63863 0
M  V30 9320 H 974.262 -0.703193 -3.81676 0
M  V30 9321 H 972.363 1.71002 -3.31042 0
M  V30 9322 H 972.476 0.510731 -4.7637 0
M  V30 9323 H 970.84 0.367531 -2.52034 0
M  V30 9324 H 971.623 -1.14226 -3.2374 0
M  V30 9325 N 974.068 1.57479 -0.061844 0
M  V30 9326 C 975.031 2.1104 0.894127 0
M  V30 9327 C 976.031 1.03227 1.23292 0
M  V30 9328 O 977.221 1.29256 1.16784 0
M  V30 9329 C 974.353 2.6035 2.20069 0
M  V30 9330 H 975.546 2.96807 0.429619 0
M  V30 9331 H 973.099 1.55181 0.18672 0
M  V30 9332 H 973.834 1.78008 2.71079 0
M  V30 9333 H 973.619 3.39146 1.9678 0
M  V30 9334 H 975.109 3.019 2.88525 0
M  V30 9335 N 975.546 -0.211634 1.56173 0
M  V30 9336 C 976.493 -1.26231 1.93221 0
M  V30 9337 C 977.463 -1.46076 0.790641 0
M  V30 9338 O 978.648 -1.59482 1.04739 0
M  V30 9339 C 975.788 -2.60559 2.26281 0
M  V30 9340 C 974.901 -2.48431 3.5342 0
M  V30 9341 C 974.036 -3.7535 3.7588 0
M  V30 9342 C 973.075 -3.57985 4.96501 0
M  V30 9343 N 972.212 -4.76877 5.15299 0
M  V30 9344 H 977.052 -0.939367 2.82807 0
M  V30 9345 H 974.589 -0.452511 1.39967 0
M  V30 9346 H 976.547 -3.38796 2.43461 0
M  V30 9347 H 975.177 -2.9093 1.39855 0
M  V30 9348 H 974.229 -1.61577 3.44379 0
M  V30 9349 H 975.541 -2.31526 4.41811 0
M  V30 9350 H 974.695 -4.62029 3.9321 0
M  V30 9351 H 973.434 -3.95191 2.85788 0
M  V30 9352 H 972.439 -2.69691 4.79111 0
M  V30 9353 H 973.664 -3.39605 5.88086 0
M  V30 9354 H 971.61 -4.97013 4.28152 0
M  V30 9355 H 971.527 -4.62735 5.9784 0
M  V30 9356 H 972.795 -5.64954 5.37073 0
M  V30 9357 N 977.024 -1.50153 -0.478725 0
M  V30 9358 C 978.301 -1.51274 -1.23999 0
M  V30 9359 C 978.681 -0.253048 -2.09578 0
M  V30 9360 O 978.029 0.763827 -2.15355 0
M  V30 9361 C 978.239 -2.80423 -2.07759 0
M  V30 9362 C 979.587 -3.30788 -2.66204 0
M  V30 9363 O 980.611 -2.81693 -2.18008 0
M  V30 9364 O 979.47 -4.1635 -3.53999 0
M  V30 9365 H 976.564 -0.606438 -0.562283 0
M  V30 9366 H 979.11 -1.62436 -0.491171 0
M  V30 9367 H 977.882 -3.63584 -1.44645 0
M  V30 9368 H 977.505 -2.72228 -2.89789 0
M  V30 9369 N 978.502 0.731368 -1.39602 0
M  V30 9370 C 979.727 1.52567 -1.40492 0
M  V30 9371 C 980.152 1.881 -0.00228828 0
M  V30 9372 O 979.51 1.52167 0.985643 0
M  V30 9373 C 979.558 2.78749 -2.2876 0
M  V30 9374 O 978.662 3.7482 -1.71999 0
M  V30 9375 H 978.003 0.460601 -0.478271 0
M  V30 9376 H 980.533 0.902042 -1.83642 0
M  V30 9377 H 980.543 3.27446 -2.43399 0
M  V30 9378 H 979.218 2.5222 -3.30693 0
M  V30 9379 H 977.795 3.33604 -1.66622 0
M  V30 9380 N 979.98 1.24838 0.961938 0
M  V30 9381 C 980.943 1.04674 2.03902 0
M  V30 9382 C 981.943 0.00204674 1.608 0
M  V30 9383 O 983.133 0.243555 1.72489 0
M  V30 9384 C 980.265 0.587736 3.35795 0
M  V30 9385 H 981.458 2.00278 2.23223 0
M  V30 9386 H 979.011 1.07142 1.138 0
M  V30 9387 H 979.746 -0.371244 3.22168 0
M  V30 9388 H 979.531 1.34182 3.68426 0
M  V30 9389 H 981.021 0.467867 4.14971 0
M  V30 9390 N 981.458 -1.16348 1.06306 0
M  V30 9391 C 982.368 -2.24375 0.685059 0
M  V30 9392 C 983.384 -1.71413 -0.298956 0
M  V30 9393 O 984.56 -2.00854 -0.148239 0
M  V30 9394 C 981.625 -3.46614 0.0774088 0
M  V30 9395 C 980.686 -4.14613 1.11331 0
M  V30 9396 C 979.919 -5.31016 0.534559 0
M  V30 9397 O 980.142 -5.66654 -0.65265 0
M  V30 9398 O 979.076 -5.88256 1.27431 0
M  V30 9399 H 982.902 -2.59018 1.58566 0
M  V30 9400 H 980.487 -1.23865 0.835332 0
M  V30 9401 H 982.369 -4.20599 -0.259716 0
M  V30 9402 H 981.044 -3.13743 -0.796677 0
M  V30 9403 H 979.951 -3.42597 1.50261 0
M  V30 9404 H 981.284 -4.51538 1.95893 0
M  V30 9405 N 982.937 -0.845659 -1.3299 0
M  V30 9406 C 984.184 -0.444653 -1.97558 0
M  V30 9407 C 984.512 0.997682 -1.66963 0
M  V30 9408 O 983.767 1.71349 -0.94541 0
M  V30 9409 C 984.066 -0.6201 -3.51979 0
M  V30 9410 C 983.732 -2.03155 -4.02541 0
M  V30 9411 C 982.394 -2.4176 -4.16059 0
M  V30 9412 C 984.746 -2.95317 -4.29462 0
M  V30 9413 C 982.074 -3.71818 -4.53837 0
M  V30 9414 C 984.426 -4.24863 -4.68694 0
M  V30 9415 C 983.09 -4.63416 -4.80419 0
M  V30 9416 H 982.36 -0.16271 -0.722915 0
M  V30 9417 H 985.007 -1.07399 -1.58549 0
M  V30 9418 H 983.312 0.092513 -3.91691 0
M  V30 9419 H 985.009 -0.290012 -3.9995 0
M  V30 9420 H 981.599 -1.72174 -3.92497 0
M  V30 9421 H 985.783 -2.66726 -4.18534 0
M  V30 9422 H 981.039 -4.01484 -4.61108 0
M  V30 9423 H 985.213 -4.96347 -4.8848 0
M  V30 9424 H 982.84 -5.6424 -5.09448 0
M  V30 9425 N 984.415 1.45619 -0.602734 0
M  V30 9426 C 985.347 2.28662 0.157012 0
M  V30 9427 C 986.36 1.39672 0.836396 0
M  V30 9428 O 987.549 1.64091 0.702599 0
M  V30 9429 C 984.649 3.1528 1.24306 0
M  V30 9430 C 983.822 4.32517 0.651731 0
M  V30 9431 C 982.881 5.00381 1.62804 0
M  V30 9432 O 981.907 5.57333 1.15624 0
M  V30 9433 N 983.109 4.99221 2.96241 0
M  V30 9434 H 985.874 2.94506 -0.555535 0
M  V30 9435 H 983.435 1.55753 -0.441881 0
M  V30 9436 H 985.427 3.57544 1.8959 0
M  V30 9437 H 983.997 2.51376 1.85819 0
M  V30 9438 H 983.217 3.93793 -0.17907 0
M  V30 9439 H 984.505 5.08249 0.236802 0
M  V30 9440 H 983.903 4.54232 3.37179 0
M  V30 9441 H 982.46 5.45364 3.56961 0
M  V30 9442 N 985.893 0.34162 1.53853 0
M  V30 9443 C 986.856 -0.503541 2.236 0
M  V30 9444 C 987.856 -1.02912 1.23554 0
M  V30 9445 O 989.046 -0.918678 1.48007 0
M  V30 9446 C 986.178 -1.70126 2.95415 0
M  V30 9447 H 987.371 0.106437 2.99711 0
M  V30 9448 H 984.924 0.0929408 1.56023 0
M  V30 9449 H 985.659 -2.34999 2.23486 0
M  V30 9450 H 985.444 -1.33161 3.68796 0
M  V30 9451 H 986.934 -2.30077 3.48503 0
M  V30 9452 N 987.371 -1.57444 0.0701946 0
M  V30 9453 C 988.301 -2.15659 -0.895176 0
M  V30 9454 C 989.282 -1.08321 -1.31151 0
M  V30 9455 O 990.467 -1.36349 -1.38284 0
M  V30 9456 C 987.597 -2.71693 -2.16334 0
M  V30 9457 C 986.551 -3.84183 -1.88645 0
M  V30 9458 C 985.877 -4.26814 -3.22078 0
M  V30 9459 C 987.177 -5.08493 -1.19299 0
M  V30 9460 H 988.871 -2.96576 -0.410217 0
M  V30 9461 H 986.417 -1.42662 -0.195872 0
M  V30 9462 H 988.37 -3.11064 -2.84284 0
M  V30 9463 H 987.094 -1.87994 -2.67069 0
M  V30 9464 H 985.753 -3.45314 -1.23101 0
M  V30 9465 H 985.401 -3.40039 -3.70651 0
M  V30 9466 H 985.101 -5.02642 -3.04344 0
M  V30 9467 H 986.625 -4.68799 -3.91228 0
M  V30 9468 H 988.039 -5.4519 -1.77316 0
M  V30 9469 H 986.436 -5.89588 -1.11828 0
M  V30 9470 H 987.506 -4.84595 -0.171839 0
M  V30 9471 N 988.849 0.203349 -1.56283 0
M  V30 9472 C 990.089 0.931871 -1.81922 0
M  V30 9473 C 990.453 1.8079 -0.646459 0
M  V30 9474 O 991.654 2.57157 -0.782556 0
M  V30 9475 C 989.925 1.73347 -3.12547 0
M  V30 9476 S 991.484 2.51514 -3.59564 0
M  V30 9477 H 988.302 0.312706 -0.638542 0
M  V30 9478 H 990.904 0.195931 -1.94516 0
M  V30 9479 H 989.608 1.08038 -3.95924 0
M  V30 9480 H 989.139 2.51138 -3.02809 0
M  V30 9481 H 991.154 3.7552 -3.24345 0
M  V30 9482 N 990.327 1.50405 0.470755 0
M  V30 9483 C 991.552 1.65442 1.25075 0
M  V30 9484 C 991.977 0.337612 1.85045 0
M  V30 9485 O 991.335 -0.698555 1.67302 0
M  V30 9486 C 991.383 2.74793 2.33498 0
M  V30 9487 O 990.487 2.36069 3.3815 0
M  V30 9488 H 989.828 0.552728 0.367951 0
M  V30 9489 H 992.358 1.96782 0.560177 0
M  V30 9490 H 992.368 2.97879 2.78804 0
M  V30 9491 H 991.043 3.70363 1.8922 0
M  V30 9492 H 989.62 2.2343 2.98552 0
M  V30 9493 N 991.805 -0.723954 1.39988 0
M  V30 9494 C 993.03 -1.5182 1.41299 0
M  V30 9495 C 993.455 -1.88096 0.0122636 0
M  V30 9496 O 992.813 -1.52687 -0.977559 0
M  V30 9497 C 992.861 -2.77532 2.30235 0
M  V30 9498 O 991.965 -3.73903 1.73984 0
M  V30 9499 H 991.306 -0.458058 0.480707 0
M  V30 9500 H 993.836 -0.892291 1.84118 0
M  V30 9501 H 993.846 -3.2615 2.45132 0
M  V30 9502 H 992.521 -2.50462 3.32026 0
M  V30 9503 H 991.098 -3.32715 1.68389 0
M  V30 9504 N 993.283 -1.25346 -0.955304 0
M  V30 9505 C 994.531 -1.09837 -1.69647 0
M  V30 9506 C 994.852 0.361425 -1.91621 0
M  V30 9507 O 994.122 1.25666 -1.50283 0
M  V30 9508 H 992.702 -0.403467 -0.628668 0
M  V30 9509 H 995.364 -1.57459 -1.14859 0
M  V30 9510 H 994.46 -1.60616 -2.67598 0
M  V30 9511 N 994.761 1.15782 -1.06922 0
M  V30 9512 C 995.691 2.22538 -0.707045 0
M  V30 9513 C 996.672 1.67371 0.303471 0
M  V30 9514 O 997.857 1.9339 0.177189 0
M  V30 9515 C 994.987 3.47158 -0.0994269 0
M  V30 9516 C 993.941 4.15257 -1.03661 0
M  V30 9517 C 993.267 5.33902 -0.291974 0
M  V30 9518 C 994.567 4.65516 -2.36837 0
M  V30 9519 H 996.261 2.53089 -1.59958 0
M  V30 9520 H 993.807 1.21649 -0.770552 0
M  V30 9521 H 995.76 4.21073 0.165852 0
M  V30 9522 H 994.484 3.15926 0.828155 0
M  V30 9523 H 993.143 3.43276 -1.28674 0
M  V30 9524 H 992.791 4.98926 0.638928 0
M  V30 9525 H 992.491 5.80407 -0.916613 0
M  V30 9526 H 994.015 6.1059 -0.0343915 0
M  V30 9527 H 995.429 5.30981 -2.16175 0
M  V30 9528 H 993.826 5.22666 -2.94856 0
M  V30 9529 H 994.896 3.81387 -2.99453 0
M  V30 9530 N 996.239 0.8527 1.3254 0
M  V30 9531 C 997.487 0.454224 1.96929 0
M  V30 9532 C 997.808 -0.993034 1.67821 0
M  V30 9533 O 997.078 -1.69371 0.984393 0
M  V30 9534 H 995.658 0.164977 0.728554 0
M  V30 9535 H 998.32 1.0887 1.61658 0
M  V30 9536 H 997.416 0.597667 3.06324 0
M  V30 9537 N 997.718 -1.45297 0.610449 0
M  V30 9538 C 998.967 -2.0143 0.104323 0
M  V30 9539 C 999.28 -1.48431 -1.27388 0
M  V30 9540 O 1000.49 -1.96558 -1.87289 0
M  V30 9541 C 998.942 -3.59644 0.135812 0
M  V30 9542 C 998.55 -4.2164 1.51405 0
M  V30 9543 C 1000.29 -4.2333 -0.314922 0
M  V30 9544 C 998.201 -5.72015 1.50176 0
M  V30 9545 H 997.131 -0.753176 0.035233 0
M  V30 9546 H 999.782 -1.66738 0.7662 0
M  V30 9547 H 998.164 -3.91538 -0.592773 0
M  V30 9548 H 999.338 -4.01315 2.26457 0
M  V30 9549 H 997.653 -3.70159 1.90712 0
M  V30 9550 H 1000.25 -5.33597 -0.343335 0
M  V30 9551 H 1000.59 -3.94206 -1.33817 0
M  V30 9552 H 1001.13 -3.96163 0.360489 0
M  V30 9553 H 997.865 -6.05842 2.50271 0
M  V30 9554 H 997.385 -5.94523 0.793869 0
M  V30 9555 H 999.064 -6.35266 1.22665 0
M  V30 9556 N 999.196 -0.349774 -1.5367 0
M  V30 9557 C 1000.42 0.246038 -2.05432 0
M  V30 9558 C 1000.84 1.43719 -1.22435 0
M  V30 9559 O 1000.2 1.80622 -0.261166 0
M  V30 9560 C 1000.25 0.65501 -3.55516 0
M  V30 9561 O 999.968 -0.488782 -4.35365 0
M  V30 9562 C 1001.47 1.31088 -4.23475 0
M  V30 9563 H 998.689 0.0463952 -0.669394 0
M  V30 9564 H 1001.23 -0.503566 -1.98203 0
M  V30 9565 H 999.388 1.35455 -3.62947 0
M  V30 9566 H 999.802 -0.161528 -5.24251 0
M  V30 9567 H 1001.28 1.54774 -5.29857 0
M  V30 9568 H 1001.75 2.26636 -3.76208 0
M  V30 9569 H 1002.36 0.653211 -4.20254 0
M  V30 9570 N 1000.67 1.57404 -0.0785433 0
M  V30 9571 C 1001.9 1.98074 0.597862 0
M  V30 9572 C 1002.32 0.95714 1.6274 0
M  V30 9573 O 1001.67 -0.0553728 1.82416 0
M  V30 9574 C 1001.72 3.38815 1.26041 0
M  V30 9575 O 1001.45 4.37254 0.27207 0
M  V30 9576 C 1002.95 3.94397 2.024 0
M  V30 9577 H 1000.17 0.651263 0.161546 0
M  V30 9578 H 1002.71 2.03927 -0.152941 0
M  V30 9579 H 1000.87 3.34028 1.96225 0
M  V30 9580 H 1001.28 5.19136 0.74822 0
M  V30 9581 H 1002.75 4.95075 2.4414 0
M  V30 9582 H 1003.23 3.31308 2.88326 0
M  V30 9583 H 1003.84 4.02607 1.37068 0
M  V30 9584 N 1002.15 -0.195058 1.56388 0
M  V30 9585 C 1003.43 -0.941335 1.71459 0
M  V30 9586 C 1003.81 -2.01375 0.633336 0
M  V30 9587 O 1003.16 -2.25715 -0.35567 0
M  V30 9588 C 1003.37 -1.52772 3.13786 0
M  V30 9589 C 1004.71 -2.00983 3.7402 0
M  V30 9590 O 1005.74 -1.62614 3.16915 0
M  V30 9591 O 1004.6 -2.71586 4.7424 0
M  V30 9592 H 1001.69 -0.441451 0.699321 0
M  V30 9593 H 1004.24 -0.184752 1.68691 0
M  V30 9594 H 1003.01 -0.754699 3.83953 0
M  V30 9595 H 1002.63 -2.34914 3.20782 0
M  V30 9596 N 1003.63 -1.50653 -0.462772 0
M  V30 9597 C 1004.88 -1.61737 -1.21184 0
M  V30 9598 C 1005.2 -0.32369 -1.92295 0
M  V30 9599 O 1004.47 0.659269 -1.84473 0
M  V30 9600 H 1003.05 -0.596015 -0.450306 0
M  V30 9601 H 1005.71 -1.87469 -0.533051 0
M  V30 9602 H 1004.81 -2.43262 -1.95525 0
M  V30 9603 N 1005.11 0.71652 -1.4037 0
M  V30 9604 C 1006.52 1.02447 -1.22379 0
M  V30 9605 C 1006.72 2.0126 -0.0983394 0
M  V30 9606 O 1005.78 2.46569 0.544071 0
M  V30 9607 C 1007.09 1.56909 -2.56515 0
M  V30 9608 C 1008.64 1.68898 -2.6352 0
M  V30 9609 C 1009.12 2.26765 -3.97922 0
M  V30 9610 N 1010.61 2.34152 -3.99658 0
M  V30 9611 C 1011.34 2.79907 -5.00439 0
M  V30 9612 N 1010.84 3.25422 -6.11615 0
M  V30 9613 N 1012.63 2.79283 -4.87809 0
M  V30 9614 H 1004.78 0.0615306 -2.12311 0
M  V30 9615 H 1007.05 0.0898994 -0.943728 0
M  V30 9616 H 1006.75 0.917649 -3.39517 0
M  V30 9617 H 1006.63 2.55446 -2.77538 0
M  V30 9618 H 1009.01 2.33159 -1.8089 0
M  V30 9619 H 1009.09 0.689626 -2.46329 0
M  V30 9620 H 1008.74 1.63126 -4.80991 0
M  V30 9621 H 1008.67 3.27413 -4.12442 0
M  V30 9622 H 1011.16 2.02006 -3.19378 0
M  V30 9623 H 1011.47 3.58899 -6.84406 0
M  V30 9624 H 1009.82 3.23383 -6.15181 0
M  V30 9625 H 1013.01 2.43061 -4.00049 0
M  V30 9626 H 1013.18 3.14626 -5.66493 0
M  V30 9627 N 1006.59 1.25851 0.948643 0
M  V30 9628 C 1007.86 1.01717 1.67072 0
M  V30 9629 C 1008.24 -0.454749 2.06144 0
M  V30 9630 O 1007.59 -1.43345 1.77945 0
M  V30 9631 C 1007.8 1.95872 2.88852 0
M  V30 9632 C 1009.15 2.24057 3.60671 0
M  V30 9633 O 1010.17 1.93678 2.98944 0
M  V30 9634 O 1009.03 2.75745 4.71833 0
M  V30 9635 H 1006.13 0.386198 0.731287 0
M  V30 9636 H 1008.67 1.37031 1.00104 0
M  V30 9637 H 1007.44 2.95233 2.56814 0
M  V30 9638 H 1007.07 1.60992 3.63548 0
M  V30 9639 N 1008.06 -1.15214 1.07534 0
M  V30 9640 C 1009.31 -1.85388 0.794617 0
M  V30 9641 C 1009.63 -1.83331 -0.681838 0
M  V30 9642 O 1010.83 -2.49207 -1.0774 0
M  V30 9643 C 1009.29 -3.32747 1.37141 0
M  V30 9644 C 1008.9 -3.43244 2.87902 0
M  V30 9645 C 1010.64 -4.08093 1.16879 0
M  V30 9646 C 1008.55 -4.84762 3.38763 0
M  V30 9647 H 1007.48 -0.694499 0.293577 0
M  V30 9648 H 1010.13 -1.29944 1.29564 0
M  V30 9649 H 1008.51 -3.87874 0.798121 0
M  V30 9650 H 1009.68 -2.98214 3.51291 0
M  V30 9651 H 1008 -2.81345 3.06975 0
M  V30 9652 H 1010.6 -5.12535 1.52353 0
M  V30 9653 H 1010.94 -4.1616 0.107958 0
M  V30 9654 H 1011.47 -3.59241 1.70854 0
M  V30 9655 H 1008.21 -4.81879 4.4438 0
M  V30 9656 H 1007.73 -5.30366 2.80128 0
M  V30 9657 H 1009.41 -5.53624 3.34827 0
M  V30 9658 N 1009.54 -0.859717 -1.32086 0
M  V30 9659 C 1010.49 -0.296897 -2.30697 0
M  V30 9660 C 1011.48 0.582473 -1.59071 0
M  V30 9661 O 1012.69 0.469713 -1.73763 0
M  V30 9662 H 1009.07 -0.0773132 -0.748015 0
M  V30 9663 H 1011.04 -1.14273 -2.75652 0
M  V30 9664 C 1009.79 0.495546 -3.44151 0
M  V30 9665 H 1009.11 -0.171829 -3.99431 0
M  V30 9666 H 1010.55 0.854854 -4.15293 0
M  V30 9667 C 1009.01 1.68278 -2.91863 0
M  V30 9668 O 1009.54 2.78194 -2.89777 0
M  V30 9669 N 1007.74 1.51151 -2.48197 0
M  V30 9670 H 1007.29 0.617345 -2.50093 0
M  V30 9671 H 1007.25 2.3073 -2.13567 0
M  V30 9672 N 1011.02 1.44971 -0.618145 0
M  V30 9673 C 1011.93 2.34403 0.0960457 0
M  V30 9674 C 1012.95 1.51862 0.849355 0
M  V30 9675 O 1014.12 1.84632 0.804557 0
M  V30 9676 C 1011.19 3.29646 1.07397 0
M  V30 9677 C 1010.25 4.28095 0.321466 0
M  V30 9678 C 1009.48 5.18787 1.25281 0
M  V30 9679 O 1009.7 5.1313 2.49106 0
M  V30 9680 O 1008.64 5.97282 0.744156 0
M  V30 9681 H 1012.46 2.96898 -0.639176 0
M  V30 9682 H 1010.05 1.44529 -0.37837 0
M  V30 9683 H 1011.93 3.88307 1.63694 0
M  V30 9684 H 1010.61 2.69702 1.79004 0
M  V30 9685 H 1009.51 3.73019 -0.284223 0
M  V30 9686 H 1010.85 4.90923 -0.354315 0
M  V30 9687 N 1012.5 0.357919 1.53482 0
M  V30 9688 C 1013.74 -0.23433 2.03052 0
M  V30 9689 C 1014.1 -1.46614 1.23969 0
M  V30 9690 O 1015.3 -2.13351 1.63508 0
M  V30 9691 C 1013.57 -0.526653 3.53498 0
M  V30 9692 S 1015.13 -1.09366 4.24952 0
M  V30 9693 H 1011.95 -0.0687848 0.707665 0
M  V30 9694 H 1014.55 0.499011 1.89024 0
M  V30 9695 H 1013.26 0.377463 4.0866 0
M  V30 9696 H 1012.79 -1.28927 3.71674 0
M  V30 9697 H 1014.8 -2.37845 4.35481 0
M  V30 9698 N 1013.98 -1.5736 0.0868897 0
M  V30 9699 C 1014.94 -2.12436 -0.860439 0
M  V30 9700 C 1015.94 -1.05175 -1.21634 0
M  V30 9701 O 1017.13 -1.31098 -1.14713 0
M  V30 9702 C 1014.26 -2.63818 -2.159 0
M  V30 9703 H 1015.45 -2.97453 -0.382346 0
M  V30 9704 H 1013.01 -1.55458 -0.162009 0
M  V30 9705 H 1013.74 -1.82298 -2.68212 0
M  V30 9706 H 1013.53 -3.42234 -1.91359 0
M  V30 9707 H 1015.02 -3.06452 -2.83685 0
M  V30 9708 N 1015.45 0.186762 -1.56489 0
M  V30 9709 C 1016.38 1.23395 -1.98232 0
M  V30 9710 C 1017.37 1.4702 -0.855526 0
M  V30 9711 O 1018.55 1.58616 -1.12048 0
M  V30 9712 C 1015.68 2.57635 -2.32898 0
M  V30 9713 C 1014.63 2.48607 -3.48394 0
M  V30 9714 C 1013.96 3.87196 -3.68759 0
M  V30 9715 C 1015.26 2.00398 -4.82325 0
M  V30 9716 H 1016.95 0.887026 -2.85958 0
M  V30 9717 H 1014.5 0.42525 -1.37578 0
M  V30 9718 H 1016.45 3.31082 -2.60696 0
M  V30 9719 H 1015.18 2.94084 -1.42064 0
M  V30 9720 H 1013.84 1.77615 -3.207 0
M  V30 9721 H 1013.48 4.21012 -2.75241 0
M  V30 9722 H 1013.18 3.82029 -4.46462 0
M  V30 9723 H 1014.71 4.62253 -3.98941 0
M  V30 9724 H 1016.12 2.6361 -5.091 0
M  V30 9725 H 1014.52 2.06214 -5.63556 0
M  V30 9726 H 1015.59 0.957562 -4.75351 0
M  V30 9727 N 1016.93 1.50896 0.454776 0
M  V30 9728 C 1018.21 1.53227 1.21576 0
M  V30 9729 C 1018.59 0.286358 2.09149 0
M  V30 9730 O 1017.94 -0.729469 2.16543 0
M  V30 9731 C 1018.15 2.83693 2.03271 0
M  V30 9732 C 1019.5 3.34981 2.60908 0
M  V30 9733 O 1020.52 2.85126 2.13499 0
M  V30 9734 O 1019.38 4.21929 3.4733 0
M  V30 9735 H 1016.47 0.615306 0.552564 0
M  V30 9736 H 1019.02 1.63197 0.465266 0
M  V30 9737 H 1017.79 3.65839 1.38843 0
M  V30 9738 H 1017.41 2.76803 2.85422 0
M  V30 9739 N 1018.41 -0.709066 1.40748 0
M  V30 9740 C 1019.82 -1.28847 1.35112 0
M  V30 9741 C 1020.17 -1.9618 0.0277149 0
M  V30 9742 O 1019.3 -1.97955 -0.874233 0
M  V30 9743 C 1019.89 -2.34306 2.44716 0
M  V30 9744 C 1018.45 -2.87856 2.4252 0
M  V30 9745 C 1017.6 -1.61723 2.25257 0
M  V30 9746 H 1020.55 -0.504742 1.50459 0
M  V30 9747 H 1020.57 -3.15297 2.12998 0
M  V30 9748 H 1020.08 -1.85271 3.41022 0
M  V30 9749 H 1018.18 -3.41103 1.49931 0
M  V30 9750 H 1018.3 -3.39205 3.38344 0
M  V30 9751 H 1016.66 -1.87032 1.7289 0
M  V30 9752 H 1017.44 -1.14703 3.23571 0
M  V30 9753 N 1019.89 -1.26353 -0.941956 0
M  V30 9754 C 1020.8 -1.09618 -2.07415 0
M  V30 9755 C 1021.82 -0.0298963 -1.73974 0
M  V30 9756 O 1022.99 -0.233466 -2.00042 0
M  V30 9757 C 1020.06 -0.73013 -3.38925 0
M  V30 9758 C 1019.12 -1.87574 -3.86153 0
M  V30 9759 C 1018.35 -1.52706 -5.11387 0
M  V30 9760 O 1018.57 -0.428438 -5.68789 0
M  V30 9761 O 1017.51 -2.36154 -5.53638 0
M  V30 9762 H 1021.33 -2.04598 -2.2444 0
M  V30 9763 H 1018.92 -1.05407 -1.05876 0
M  V30 9764 H 1020.8 -0.538684 -4.17943 0
M  V30 9765 H 1019.48 0.190282 -3.2314 0
M  V30 9766 H 1018.38 -2.12214 -3.08084 0
M  V30 9767 H 1019.72 -2.77585 -4.06457 0
M  V30 9768 N 1021.37 1.14642 -1.08144 0
M  V30 9769 C 1022.61 1.85892 -0.810683 0
M  V30 9770 C 1022.95 1.82575 0.661821 0
M  V30 9771 O 1022.22 1.25454 1.48632 0
M  V30 9772 C 1022.5 3.34647 -1.32979 0
M  V30 9773 C 1022.36 3.46551 -2.86744 0
M  V30 9774 C 1023.68 4.29661 -0.952864 0
M  V30 9775 H 1020.8 0.674963 -0.295963 0
M  V30 9776 H 1023.44 1.3464 -1.3406 0
M  V30 9777 H 1021.59 3.78425 -0.87903 0
M  V30 9778 H 1023.26 3.11579 -3.40171 0
M  V30 9779 H 1021.5 2.87849 -3.24539 0
M  V30 9780 H 1022.17 4.51101 -3.18138 0
M  V30 9781 H 1024.65 3.93885 -1.34141 0
M  V30 9782 H 1023.53 5.32209 -1.34331 0
M  V30 9783 H 1023.79 4.41877 0.140392 0
M  V30 9784 N 1022.85 0.866709 1.31628 0
M  V30 9785 C 1024.09 0.482479 1.98624 0
M  V30 9786 C 1024.45 -0.946844 1.6703 0
M  V30 9787 O 1025.65 -1.43626 2.27212 0
M  V30 9788 C 1023.92 0.728582 3.49895 0
M  V30 9789 S 1025.48 0.443724 4.36551 0
M  V30 9790 H 1022.3 0.180238 0.687776 0
M  V30 9791 H 1024.9 1.12203 1.60096 0
M  V30 9792 H 1023.6 1.76769 3.70379 0
M  V30 9793 H 1023.14 0.075903 3.93327 0
M  V30 9794 H 1025.15 -0.72534 4.9087 0
M  V30 9795 N 1024.32 -1.44642 0.625825 0
M  V30 9796 C 1025.29 -2.29085 -0.072526 0
M  V30 9797 C 1026.29 -1.40755 -0.777467 0
M  V30 9798 O 1027.48 -1.62684 -0.622861 0
M  V30 9799 C 1024.61 -3.22212 -1.1132 0
M  V30 9800 H 1025.8 -2.92317 0.670124 0
M  V30 9801 H 1023.35 -1.51466 0.38571 0
M  V30 9802 H 1024.09 -2.63819 -1.88601 0
M  V30 9803 H 1023.87 -3.87299 -0.611709 0
M  V30 9804 H 1025.36 -3.8566 -1.60175 0
M  V30 9805 N 1025.8 -0.366053 -1.5329 0
M  V30 9806 C 1026.75 0.495319 -2.27265 0
M  V30 9807 C 1027.74 1.08298 -1.30261 0
M  V30 9808 O 1028.95 1.02613 -1.47887 0
M  V30 9809 H 1025.32 0.178454 -0.730519 0
M  V30 9810 H 1027.3 -0.150354 -2.98021 0
M  V30 9811 C 1026.04 1.62283 -3.07505 0
M  V30 9812 H 1025.37 1.17993 -3.81992 0
M  V30 9813 H 1026.81 2.20024 -3.62444 0
M  V30 9814 C 1025.27 2.56542 -2.18375 0
M  V30 9815 O 1025.8 3.59371 -1.79486 0
M  V30 9816 N 1024 2.25742 -1.82999 0
M  V30 9817 H 1023.55 1.42159 -2.14822 0
M  V30 9818 H 1023.51 2.89064 -1.2365 0
M  V30 9819 N 1027.28 1.57312 -0.0952337 0
M  V30 9820 C 1028.53 1.93974 0.567319 0
M  V30 9821 C 1028.85 0.977805 1.68713 0
M  V30 9822 O 1028.12 0.0298944 1.95877 0
M  V30 9823 H 1026.7 0.71612 0.212558 0
M  V30 9824 H 1029.36 1.94254 -0.158598 0
M  V30 9825 H 1028.46 2.964 0.977423 0
M  V30 9826 N 1028.76 -0.17846 1.56586 0
M  V30 9827 C 1030 -0.897562 1.81856 0
M  V30 9828 C 1030.34 -1.82204 0.671955 0
M  V30 9829 O 1029.61 -1.91739 -0.326535 0
M  V30 9830 C 1029.89 -1.69942 3.17477 0
M  V30 9831 C 1029.75 -0.798545 4.42655 0
M  V30 9832 C 1031.07 -2.66861 3.49962 0
M  V30 9833 H 1028.19 -0.324863 0.661539 0
M  V30 9834 H 1030.83 -0.164106 1.8929 0
M  V30 9835 H 1028.98 -2.32471 3.11271 0
M  V30 9836 H 1030.65 -0.18668 4.60922 0
M  V30 9837 H 1028.89 -0.106181 4.3367 0
M  V30 9838 H 1029.56 -1.39496 5.34083 0
M  V30 9839 H 1032.04 -2.1446 3.56576 0
M  V30 9840 H 1030.92 -3.20037 4.45946 0
M  V30 9841 H 1031.18 -3.46715 2.74301 0
M  V30 9842 N 1030.24 -1.51135 -0.446768 0
M  V30 9843 C 1031.48 -1.64989 -1.20656 0
M  V30 9844 C 1031.84 -0.353882 -1.88711 0
M  V30 9845 O 1033.04 -0.368099 -2.66268 0
M  V30 9846 C 1031.31 -2.81371 -2.20375 0
M  V30 9847 S 1032.87 -3.15501 -3.04967 0
M  V30 9848 H 1029.69 -0.581372 -0.409301 0
M  V30 9849 H 1032.29 -1.89008 -0.499613 0
M  V30 9850 H 1030.99 -3.73988 -1.69001 0
M  V30 9851 H 1030.53 -2.59512 -2.95664 0
M  V30 9852 H 1032.54 -2.61205 -4.21884 0
M  V30 9853 N 1031.71 0.701592 -1.41122 0
M  V30 9854 C 1032.62 1.84548 -1.44841 0
M  V30 9855 C 1033.64 1.70654 -0.339594 0
M  V30 9856 O 1034.82 1.92675 -0.586378 0
M  V30 9857 C 1031.88 3.20477 -1.3227 0
M  V30 9858 C 1030.94 3.46524 -2.53415 0
M  V30 9859 C 1030.17 4.75968 -2.41434 0
M  V30 9860 O 1030.4 5.52037 -1.43566 0
M  V30 9861 O 1029.33 5.02664 -3.31078 0
M  V30 9862 H 1033.16 1.84367 -2.41335 0
M  V30 9863 H 1030.74 0.853863 -1.22595 0
M  V30 9864 H 1032.62 4.01642 -1.2752 0
M  V30 9865 H 1031.3 3.21355 -0.388889 0
M  V30 9866 H 1030.21 2.65313 -2.63742 0
M  V30 9867 H 1031.54 3.50455 -3.45604 0
M  V30 9868 N 1033.19 1.2685 0.935242 0
M  V30 9869 C 1034.14 1.08746 2.05614 0
M  V30 9870 C 1035.13 0.012681 1.69395 0
M  V30 9871 O 1036.34 0.169822 1.79197 0
M  V30 9872 H 1032.71 0.33485 0.673335 0
M  V30 9873 H 1034.69 2.03725 2.18033 0
M  V30 9874 C 1033.43 0.74346 3.39659 0
M  V30 9875 H 1032.76 1.56236 3.68008 0
M  V30 9876 H 1034.2 0.656607 4.18885 0
M  V30 9877 C 1032.66 -0.551751 3.32351 0
M  V30 9878 O 1033.19 -1.58836 3.68963 0
M  V30 9879 N 1031.39 -0.544583 2.85452 0
M  V30 9880 H 1030.94 0.29939 2.55854 0
M  V30 9881 H 1030.9 -1.41129 2.80945 0
M  V30 9882 N 1034.67 -1.14067 1.0875 0
M  V30 9883 C 1035.6 -2.21385 0.74236 0
M  V30 9884 C 1036.58 -1.67833 -0.276805 0
M  V30 9885 O 1037.77 -1.93647 -0.1464 0
M  V30 9886 C 1034.9 -3.46956 0.154644 0
M  V30 9887 C 1033.85 -4.13555 1.10255 0
M  V30 9888 C 1033.18 -5.3337 0.376877 0
M  V30 9889 C 1034.48 -4.6169 2.44213 0
M  V30 9890 H 1036.17 -2.50512 1.63964 0
M  V30 9891 H 1033.72 -1.20408 0.789807 0
M  V30 9892 H 1035.67 -4.21284 -0.0988419 0
M  V30 9893 H 1034.39 -3.17203 -0.777789 0
M  V30 9894 H 1033.05 -3.41186 1.34119 0
M  V30 9895 H 1032.7 -4.99879 -0.559472 0
M  V30 9896 H 1032.4 -5.78875 1.00884 0
M  V30 9897 H 1033.92 -6.10458 0.131527 0
M  V30 9898 H 1035.34 -5.27475 2.24595 0
M  V30 9899 H 1033.74 -5.17909 3.03134 0
M  V30 9900 H 1034.81 -3.76574 3.05483 0
M  V30 9901 N 1036.15 -0.873678 -1.31166 0
M  V30 9902 C 1037.56 -0.566109 -1.49223 0
M  V30 9903 C 1037.76 0.898889 -1.80339 0
M  V30 9904 O 1036.82 1.68084 -1.88425 0
M  V30 9905 C 1038.13 -1.46952 -2.62346 0
M  V30 9906 C 1039.68 -1.47195 -2.76229 0
M  V30 9907 C 1040.16 -2.36102 -3.92454 0
M  V30 9908 N 1041.65 -2.34003 -3.99746 0
M  V30 9909 C 1042.38 -2.99513 -4.88958 0
M  V30 9910 N 1041.88 -3.74206 -5.83045 0
M  V30 9911 N 1043.67 -2.88802 -4.82234 0
M  V30 9912 H 1035.82 -1.82156 -1.09239 0
M  V30 9913 H 1038.09 -0.779086 -0.54012 0
M  V30 9914 H 1037.79 -2.51213 -2.4614 0
M  V30 9915 H 1037.67 -1.17077 -3.5857 0
M  V30 9916 H 1040.05 -0.436902 -2.91848 0
M  V30 9917 H 1040.13 -1.81095 -1.80661 0
M  V30 9918 H 1039.78 -3.39685 -3.77593 0
M  V30 9919 H 1039.71 -1.99524 -4.87337 0
M  V30 9920 H 1042.2 -1.79713 -3.32433 0
M  V30 9921 H 1042.51 -4.21312 -6.47855 0
M  V30 9922 H 1040.86 -3.78314 -5.83012 0
M  V30 9923 H 1044.05 -2.29984 -4.07707 0
M  V30 9924 H 1044.22 -3.40136 -5.51554 0
M  V30 9925 N 1037.63 1.44308 -0.633487 0
M  V30 9926 C 1038.87 2.01624 -0.138643 0
M  V30 9927 C 1039.2 1.50101 1.24477 0
M  V30 9928 O 1038.47 0.705575 1.82752 0
M  V30 9929 H 1037.05 0.745439 -0.0482636 0
M  V30 9930 H 1039.71 1.76777 -0.820719 0
M  V30 9931 H 1038.8 3.11913 -0.108136 0
M  V30 9932 N 1039.1 0.374177 1.53094 0
M  V30 9933 C 1040.33 -0.215903 2.06273 0
M  V30 9934 C 1040.75 -1.40979 1.24526 0
M  V30 9935 O 1040.11 -1.79331 0.266462 0
M  V30 9936 C 1040.16 -0.579089 3.5592 0
M  V30 9937 O 1039.26 -1.67516 3.76845 0
M  V30 9938 H 1038.61 -0.0293981 0.663349 0
M  V30 9939 H 1041.14 0.537271 1.9742 0
M  V30 9940 H 1041.15 -0.847678 3.99097 0
M  V30 9941 H 1039.82 0.293843 4.14861 0
M  V30 9942 H 1038.4 -1.40146 3.45563 0
M  V30 9943 N 1040.58 -1.57259 0.103575 0
M  V30 9944 C 1041.81 -1.98711 -0.565454 0
M  V30 9945 C 1042.22 -0.981759 -1.61735 0
M  V30 9946 O 1041.56 0.0357019 -1.83665 0
M  V30 9947 C 1041.63 -3.36552 -1.26384 0
M  V30 9948 C 1041.29 -4.55566 -0.361714 0
M  V30 9949 C 1042.29 -5.18408 0.393539 0
M  V30 9950 C 1039.97 -5.01534 -0.277292 0
M  V30 9951 C 1041.97 -6.25594 1.2211 0
M  V30 9952 C 1039.65 -6.08584 0.553919 0
M  V30 9953 C 1040.65 -6.7048 1.30176 0
M  V30 9954 O 1040.34 -7.75464 2.1192 0
M  V30 9955 H 1040.07 -0.657853 -0.155582 0
M  V30 9956 H 1042.62 -2.04591 0.182089 0
M  V30 9957 H 1040.85 -3.2738 -2.05813 0
M  V30 9958 H 1042.54 -3.62395 -1.82824 0
M  V30 9959 H 1043.31 -4.8382 0.338098 0
M  V30 9960 H 1039.19 -4.53114 -0.849047 0
M  V30 9961 H 1042.73 -6.73836 1.80531 0
M  V30 9962 H 1038.63 -6.42604 0.610809 0
M  V30 9963 H 1039.4 -7.92491 2.04694 0
M  V30 9964 N 1042.06 0.170153 -1.56679 0
M  V30 9965 C 1043.48 0.521966 -1.50823 0
M  V30 9966 C 1043.68 1.84589 -0.808037 0
M  V30 9967 O 1042.73 2.49791 -0.368891 0
M  V30 9968 C 1044.05 0.553648 -2.95559 0
M  V30 9969 C 1045.59 0.640769 -3.06371 0
M  V30 9970 C 1046.07 0.703332 -4.52567 0
M  V30 9971 N 1047.56 0.76619 -4.56819 0
M  V30 9972 C 1048.29 0.835192 -5.67285 0
M  V30 9973 N 1047.79 0.864957 -6.87379 0
M  V30 9974 N 1049.58 0.874302 -5.55259 0
M  V30 9975 H 1041.73 -0.697952 -2.00605 0
M  V30 9976 H 1044 -0.251787 -0.913952 0
M  V30 9977 H 1043.7 -0.350498 -3.49949 0
M  V30 9978 H 1043.58 1.39973 -3.50268 0
M  V30 9979 H 1045.96 1.53534 -2.52015 0
M  V30 9980 H 1046.05 -0.232008 -2.54746 0
M  V30 9981 H 1045.69 -0.186986 -5.07556 0
M  V30 9982 H 1045.62 1.59227 -5.0195 0
M  V30 9983 H 1048.11 0.751424 -3.70354 0
M  V30 9984 H 1048.42 0.918814 -7.67318 0
M  V30 9985 H 1046.77 0.833215 -6.89987 0
M  V30 9986 H 1049.96 0.848057 -4.60354 0
M  V30 9987 H 1050.13 0.924615 -6.4137 0
M  V30 9988 N 1043.54 1.5137 0.438746 0
M  V30 9989 C 1044.78 1.65627 1.19779 0
M  V30 9990 C 1045.14 0.363885 1.8852 0
M  V30 9991 O 1046.34 0.382215 2.66069 0
M  V30 9992 C 1044.61 2.82536 2.18879 0
M  V30 9993 S 1046.17 3.17113 3.0329 0
M  V30 9994 H 1042.99 0.583535 0.406212 0
M  V30 9995 H 1045.59 1.89271 0.489582 0
M  V30 9996 H 1044.3 3.74879 1.67015 0
M  V30 9997 H 1043.83 2.61077 2.94283 0
M  V30 9998 H 1045.84 2.63439 4.20493 0
M  V30 9999 N 1045.02 -0.694098 1.41492 0
M  V30 10000 C 1046.26 -1.4563 1.41137 0
M  V30 10001 C 1046.6 -1.94189 0.0208428 0
M  V30 10002 O 1045.87 -1.69628 -0.951655 0
M  V30 10003 C 1046.15 -2.66714 2.41941 0
M  V30 10004 C 1046.01 -2.23912 3.90107 0
M  V30 10005 C 1047.33 -3.68913 2.39981 0
M  V30 10006 H 1044.44 -0.52821 0.513968 0
M  V30 10007 H 1047.09 -0.790437 1.72778 0
M  V30 10008 H 1045.24 -3.23525 2.1509 0
M  V30 10009 H 1046.91 -1.72417 4.27867 0
M  V30 10010 H 1045.15 -1.5568 4.04903 0
M  V30 10011 H 1045.82 -3.108 4.56188 0
M  V30 10012 H 1048.3 -3.21779 2.63813 0
M  V30 10013 H 1047.17 -4.51242 3.12524 0
M  V30 10014 H 1047.44 -4.18711 1.41892 0
M  V30 10015 N 1046.49 -1.27344 -0.928501 0
M  V30 10016 C 1047.73 -1.14871 -1.69068 0
M  V30 10017 C 1048.1 0.300603 -1.89632 0
M  V30 10018 O 1049.3 0.547743 -2.6316 0
M  V30 10019 C 1047.57 -1.90992 -3.02087 0
M  V30 10020 S 1049.13 -1.94722 -3.93229 0
M  V30 10021 H 1045.95 -0.410095 -0.580812 0
M  V30 10022 H 1048.55 -1.61242 -1.1055 0
M  V30 10023 H 1047.25 -2.95484 -2.84811 0
M  V30 10024 H 1046.78 -1.45112 -3.65658 0
M  V30 10025 H 1048.8 -1.04306 -4.85113 0
M  V30 10026 N 1047.97 1.13488 -1.09353 0
M  V30 10027 C 1048.92 2.20949 -0.726923 0
M  V30 10028 C 1049.91 1.67205 0.271816 0
M  V30 10029 O 1051.12 1.79505 0.133356 0
M  V30 10030 H 1047.5 0.719985 -0.217086 0
M  V30 10031 H 1049.47 2.49134 -1.6424 0
M  V30 10032 C 1048.22 3.47319 -0.162822 0
M  V30 10033 H 1047.54 3.89011 -0.922527 0
M  V30 10034 H 1048.98 4.23963 0.0557734 0
M  V30 10035 C 1047.44 3.18376 1.10175 0
M  V30 10036 O 1047.97 3.3707 2.18511 0
M  V30 10037 N 1046.17 2.72262 1.01597 0
M  V30 10038 H 1045.72 2.5725 0.134289 0
M  V30 10039 H 1045.68 2.53272 1.86281 0
M  V30 10040 N 1049.45 0.880621 1.30701 0
M  V30 10041 C 1050.38 0.360251 2.30704 0
M  V30 10042 C 1051.36 -0.554572 1.60806 0
M  V30 10043 O 1052.55 -0.469345 1.88443 0
M  V30 10044 C 1049.68 -0.429888 3.44629 0
M  V30 10045 C 1048.63 0.392786 4.26194 0
M  V30 10046 C 1047.96 -0.52369 5.32129 0
M  V30 10047 C 1049.26 1.63258 4.96129 0
M  V30 10048 H 1050.95 1.19591 2.74478 0
M  V30 10049 H 1048.5 0.576508 1.31956 0
M  V30 10050 H 1050.45 -0.804532 4.13649 0
M  V30 10051 H 1049.17 -1.29916 2.99649 0
M  V30 10052 H 1047.83 0.749514 3.58856 0
M  V30 10053 H 1047.48 -1.39054 4.83397 0
M  V30 10054 H 1047.18 0.0229272 5.87596 0
M  V30 10055 H 1048.71 -0.894946 6.04006 0
M  V30 10056 H 1050.12 1.32877 5.57689 0
M  V30 10057 H 1048.52 2.11906 5.61441 0
M  V30 10058 H 1049.59 2.37944 4.22505 0
M  V30 10059 N 1050.93 -1.4397 0.641131 0
M  V30 10060 C 1052.18 -2.01548 0.149333 0
M  V30 10061 C 1052.5 -1.50759 -1.23679 0
M  V30 10062 O 1051.77 -0.715257 -1.82376 0
M  V30 10063 H 1050.35 -0.745173 0.0522161 0
M  V30 10064 H 1053.01 -1.7634 0.830082 0
M  V30 10065 H 1052.11 -3.11851 0.124676 0
M  V30 10066 N 1052.41 -0.382291 -1.52893 0
M  V30 10067 C 1053.64 0.202114 -2.05609 0
M  V30 10068 C 1054.05 1.4164 -1.25438 0
M  V30 10069 O 1053.39 1.81359 -0.292324 0
M  V30 10070 C 1053.45 0.64356 -3.53693 0
M  V30 10071 C 1053.11 -0.456305 -4.54716 0
M  V30 10072 C 1054.11 -1.3115 -5.03086 0
M  V30 10073 C 1051.8 -0.621329 -4.98442 0
M  V30 10074 C 1053.79 -2.3169 -5.938 0
M  V30 10075 C 1051.48 -1.63008 -5.88958 0
M  V30 10076 C 1052.48 -2.47629 -6.36529 0
M  V30 10077 O 1052.16 -3.46781 -7.25257 0
M  V30 10078 H 1051.9 0.0358014 -0.675051 0
M  V30 10079 H 1054.45 -0.543935 -1.98067 0
M  V30 10080 H 1052.68 1.44148 -3.58829 0
M  V30 10081 H 1054.37 1.15284 -3.89184 0
M  V30 10082 H 1055.13 -1.19528 -4.70041 0
M  V30 10083 H 1051.01 0.027593 -4.60992 0
M  V30 10084 H 1054.56 -2.97776 -6.30853 0
M  V30 10085 H 1050.45 -1.74671 -6.21418 0
M  V30 10086 H 1051.22 -3.42707 -7.433 0
M  V30 10087 N 1053.89 1.57202 -0.111913 0
M  V30 10088 C 1054.8 2.18475 0.854753 0
M  V30 10089 C 1055.81 1.15888 1.29792 0
M  V30 10090 O 1056.99 1.48329 1.36237 0
M  V30 10091 C 1054.05 2.76645 2.0897 0
M  V30 10092 C 1053.11 3.94244 1.69913 0
M  V30 10093 C 1052.35 4.49631 2.8752 0
M  V30 10094 O 1052.57 4.03926 4.02741 0
M  V30 10095 O 1051.5 5.40417 2.65015 0
M  V30 10096 H 1055.33 3.01519 0.363352 0
M  V30 10097 H 1052.91 1.4897 0.113329 0
M  V30 10098 H 1054.8 3.13755 2.81311 0
M  V30 10099 H 1053.47 1.96637 2.5713 0
M  V30 10100 H 1052.38 3.61915 0.947013 0
M  V30 10101 H 1053.71 4.75666 1.26501 0
M  V30 10102 N 1055.36 -0.161842 1.56767 0
M  V30 10103 C 1056.33 -1.18404 1.96247 0
M  V30 10104 C 1057.33 -1.3667 0.84722 0
M  V30 10105 O 1058.52 -1.33915 1.11411 0
M  V30 10106 C 1055.65 -2.54728 2.26553 0
M  V30 10107 H 1056.84 -0.845703 2.87729 0
M  V30 10108 H 1054.39 -0.404645 1.50971 0
M  V30 10109 H 1055.13 -2.93559 1.37816 0
M  V30 10110 H 1054.91 -2.42834 3.07854 0
M  V30 10111 H 1056.4 -3.28378 2.57987 0
M  V30 10112 N 1056.84 -1.516 -0.430713 0
M  V30 10113 C 1058.09 -1.64271 -1.17726 0
M  V30 10114 C 1058.41 -0.364406 -1.91565 0
M  V30 10115 O 1057.68 0.619991 -1.8583 0
M  V30 10116 H 1056.26 -0.605432 -0.437562 0
M  V30 10117 H 1058.92 -1.88557 -0.493166 0
M  V30 10118 H 1058.02 -2.47355 -1.90321 0
M  V30 10119 N 1058.32 0.686584 -1.41858 0
M  V30 10120 C 1059.28 1.78214 -1.44126 0
M  V30 10121 C 1060.28 1.57366 -0.330541 0
M  V30 10122 O 1061.47 1.63874 -0.590837 0
M  V30 10123 C 1058.6 3.16704 -1.26142 0
M  V30 10124 H 1059.8 1.77594 -2.41661 0
M  V30 10125 H 1057.35 0.895085 -1.28132 0
M  V30 10126 H 1058.09 3.22957 -0.294823 0
M  V30 10127 H 1057.87 3.33238 -2.06627 0
M  V30 10128 H 1059.36 3.96658 -1.30584 0
M  V30 10129 N 1059.8 1.27835 0.921735 0
M  V30 10130 C 1061.02 1.17465 1.70929 0
M  V30 10131 C 1061.45 -0.264171 1.86236 0
M  V30 10132 O 1060.81 -1.19124 1.36671 0
M  V30 10133 C 1060.85 1.8697 3.08342 0
M  V30 10134 O 1059.96 1.17173 3.95404 0
M  V30 10135 H 1059.3 0.408206 0.523702 0
M  V30 10136 H 1061.83 1.69013 1.15307 0
M  V30 10137 H 1061.84 1.94564 3.58621 0
M  V30 10138 H 1060.51 2.91633 2.96518 0
M  V30 10139 H 1059.09 1.17688 3.53842 0
M  V30 10140 N 1061.28 -1.12907 1.09954 0
M  V30 10141 C 1062.52 -1.83941 0.837255 0
M  V30 10142 C 1062.84 -1.84234 -0.638984 0
M  V30 10143 O 1062.11 -1.30193 -1.46378 0
M  V30 10144 H 1060.69 -0.681115 0.306743 0
M  V30 10145 H 1063.36 -1.36743 1.38879 0
M  V30 10146 H 1062.45 -2.88289 1.19565 0
M  V30 10147 N 1062.75 -0.88754 -1.30232 0
M  V30 10148 C 1063.7 -0.354497 -2.28061 0
M  V30 10149 C 1064.67 0.556732 -1.56492 0
M  V30 10150 O 1065.86 0.484597 -1.84543 0
M  V30 10151 C 1063 0.422701 -3.42501 0
M  V30 10152 C 1062.11 -0.518036 -4.28883 0
M  V30 10153 C 1061.24 0.275011 -5.30488 0
M  V30 10154 C 1060.28 -0.661032 -6.0852 0
M  V30 10155 N 1059.42 0.0968509 -7.02033 0
M  V30 10156 H 1064.26 -1.19388 -2.73039 0
M  V30 10157 H 1061.8 -0.600091 -1.34303 0
M  V30 10158 H 1063.75 0.889249 -4.07613 0
M  V30 10159 H 1062.38 1.22664 -2.98586 0
M  V30 10160 H 1061.44 -1.10308 -3.64055 0
M  V30 10161 H 1062.75 -1.23504 -4.83268 0
M  V30 10162 H 1061.9 0.803301 -6.01358 0
M  V30 10163 H 1060.64 1.02522 -4.76802 0
M  V30 10164 H 1059.65 -1.20093 -5.36524 0
M  V30 10165 H 1060.87 -1.41037 -6.64293 0
M  V30 10166 H 1058.82 0.829548 -6.50734 0
M  V30 10167 H 1058.73 -0.560476 -7.5392 0
M  V30 10168 H 1060 0.6058 -7.77142 0
M  V30 10169 N 1064.23 1.43628 -0.648757 0
M  V30 10170 C 1065.51 1.95391 -0.0904551 0
M  V30 10171 C 1065.89 1.59021 1.38837 0
M  V30 10172 O 1065.24 0.873078 2.11163 0
M  V30 10173 C 1065.45 3.47418 -0.33196 0
M  V30 10174 C 1066.8 4.23952 -0.234521 0
M  V30 10175 O 1067.82 3.55218 -0.264276 0
M  V30 10176 O 1066.68 5.46282 -0.154428 0
M  V30 10177 H 1063.77 0.82691 0.0121884 0
M  V30 10178 H 1066.32 1.5359 -0.721685 0
M  V30 10179 H 1065.09 3.67001 -1.35741 0
M  V30 10180 H 1064.71 3.96207 0.332556 0
M  V30 10181 N 1065.71 0.390394 1.52688 0
M  V30 10182 C 1066.95 -0.191207 2.03504 0
M  V30 10183 C 1067.31 -1.43952 1.27051 0
M  V30 10184 O 1068.52 -2.09835 1.67996 0
M  V30 10185 C 1066.79 -0.451552 3.54536 0
M  V30 10186 S 1068.35 -1.00328 4.27176 0
M  V30 10187 H 1065.16 -0.0537587 0.708965 0
M  V30 10188 H 1067.77 0.538993 1.87923 0
M  V30 10189 H 1066.47 0.464061 4.07768 0
M  V30 10190 H 1066 -1.21015 3.74325 0
M  V30 10191 H 1068.02 -2.28555 4.40428 0
M  V30 10192 N 1067.19 -1.57141 0.120249 0
M  V30 10193 C 1068.42 -1.99589 -0.545136 0
M  V30 10194 C 1068.83 -0.999951 -1.60145 0
M  V30 10195 O 1068.19 0.00698897 -1.82499 0
M  V30 10196 C 1068.24 -3.42038 -1.17014 0
M  V30 10197 O 1067.96 -4.37822 -0.156044 0
M  V30 10198 C 1069.46 -3.99625 -1.91872 0
M  V30 10199 H 1066.68 -0.655318 -0.144222 0
M  V30 10200 H 1069.23 -2.0345 0.206955 0
M  V30 10201 H 1067.38 -3.39113 -1.873 0
M  V30 10202 H 1067.79 -5.20937 -0.610317 0
M  V30 10203 H 1069.27 -5.01374 -2.30928 0
M  V30 10204 H 1069.75 -3.38836 -2.7944 0
M  V30 10205 H 1070.35 -4.061 -1.26345 0
M  V30 10206 N 1068.67 0.153526 -1.5685 0
M  V30 10207 C 1069.94 0.895545 -1.73895 0
M  V30 10208 C 1070.32 1.99625 -0.686504 0
M  V30 10209 O 1069.67 2.26579 0.2957 0
M  V30 10210 C 1069.88 1.44399 -3.17726 0
M  V30 10211 C 1071.23 1.90996 -3.79217 0
M  V30 10212 O 1072.25 1.54155 -3.21115 0
M  V30 10213 O 1071.11 2.58917 -4.81274 0
M  V30 10214 H 1068.21 0.422755 -0.710779 0
M  V30 10215 H 1070.75 0.139961 -1.69122 0
M  V30 10216 H 1069.52 0.652635 -3.85819 0
M  V30 10217 H 1069.15 2.26326 -3.26898 0
M  V30 10218 N 1070.14 1.51827 0.422667 0
M  V30 10219 C 1071.39 1.65464 1.17258 0
M  V30 10220 C 1071.72 0.376834 1.90509 0
M  V30 10221 O 1071 -0.624219 1.84211 0
M  V30 10222 C 1071.28 2.86776 2.17788 0
M  V30 10223 C 1071.13 4.24571 1.48523 0
M  V30 10224 C 1072.45 3.03603 3.18611 0
M  V30 10225 H 1069.57 0.602169 0.424925 0
M  V30 10226 H 1072.21 1.84349 0.45996 0
M  V30 10227 H 1070.36 2.70806 2.78561 0
M  V30 10228 H 1072.04 4.5224 0.909739 0
M  V30 10229 H 1070.28 4.26595 0.787354 0
M  V30 10230 H 1070.95 5.05475 2.2181 0
M  V30 10231 H 1073.43 3.18381 2.67904 0
M  V30 10232 H 1072.3 3.90022 3.8623 0
M  V30 10233 H 1072.56 2.16318 3.85563 0
M  V30 10234 N 1071.62 -0.679052 1.4222 0
M  V30 10235 C 1072.9 -1.43473 1.32947 0
M  V30 10236 C 1073.28 -2.11071 -0.0351689 0
M  V30 10237 O 1072.63 -2.02925 -1.05042 0
M  V30 10238 C 1072.84 -2.44065 2.49466 0
M  V30 10239 C 1074.19 -3.08834 2.91387 0
M  V30 10240 O 1075.21 -2.54392 2.49325 0
M  V30 10241 O 1074.07 -4.07478 3.64175 0
M  V30 10242 H 1071.16 -0.639743 0.524078 0
M  V30 10243 H 1073.71 -0.708134 1.54219 0
M  V30 10244 H 1072.48 -1.92884 3.40457 0
M  V30 10245 H 1072.1 -3.24212 2.30158 0
M  V30 10246 N 1073.1 -1.28322 -0.914942 0
M  V30 10247 C 1074.01 -1.13993 -2.05043 0
M  V30 10248 C 1075.03 -0.0667921 -1.73872 0
M  V30 10249 O 1076.2 -0.275845 -1.99502 0
M  V30 10250 C 1073.27 -0.801856 -3.373 0
M  V30 10251 C 1072.33 -1.95723 -3.82088 0
M  V30 10252 C 1071.56 -1.63519 -5.08033 0
M  V30 10253 O 1071.78 -0.54899 -5.67752 0
M  V30 10254 O 1070.72 -2.47844 -5.48504 0
M  V30 10255 H 1074.54 -2.09313 -2.2005 0
M  V30 10256 H 1072.13 -1.0763 -1.03616 0
M  V30 10257 H 1074.01 -0.627214 -4.16706 0
M  V30 10258 H 1072.69 0.121696 -3.23471 0
M  V30 10259 H 1071.59 -2.18702 -3.03514 0
M  V30 10260 H 1072.93 -2.86144 -4.00478 0
M  V30 10261 N 1074.58 1.12322 -1.10551 0
M  V30 10262 C 1075.82 1.85497 -0.858492 0
M  V30 10263 C 1076.18 1.8222 0.604966 0
M  V30 10264 O 1077.38 2.5075 0.968382 0
M  V30 10265 C 1075.65 3.29124 -1.39327 0
M  V30 10266 S 1077.21 4.19659 -1.28186 0
M  V30 10267 H 1074.03 0.639768 -0.31019 0
M  V30 10268 H 1076.63 1.35298 -1.41119 0
M  V30 10269 H 1075.34 3.29069 -2.45238 0
M  V30 10270 H 1074.87 3.84388 -0.837203 0
M  V30 10271 H 1076.88 4.95618 -0.240325 0
M  V30 10272 N 1076.06 0.894434 1.2976 0
M  V30 10273 C 1077.02 0.373094 2.26143 0
M  V30 10274 C 1078.02 -0.489756 1.5316 0
M  V30 10275 O 1079.21 -0.29556 1.71674 0
M  V30 10276 C 1076.34 -0.467234 3.37683 0
M  V30 10277 H 1077.53 1.22427 2.73773 0
M  V30 10278 H 1075.09 0.672112 1.41111 0
M  V30 10279 H 1075.82 -1.33861 2.95384 0
M  V30 10280 H 1075.61 0.150954 3.91809 0
M  V30 10281 H 1077.1 -0.823469 4.094 0
M  V30 10282 N 1077.53 -1.43282 0.656365 0
M  V30 10283 C 1078.46 -2.33492 -0.0196962 0
M  V30 10284 C 1079.45 -1.49647 -0.80868 0
M  V30 10285 O 1080.63 -1.78303 -0.769529 0
M  V30 10286 C 1077.76 -3.33052 -0.984574 0
M  V30 10287 C 1076.71 -4.26908 -0.305483 0
M  V30 10288 C 1076.04 -5.16531 -1.38202 0
M  V30 10289 C 1077.34 -5.16073 0.804081 0
M  V30 10290 H 1079.03 -2.90272 0.733661 0
M  V30 10291 H 1076.58 -1.39574 0.354259 0
M  V30 10292 H 1078.53 -3.9506 -1.46647 0
M  V30 10293 H 1077.26 -2.74535 -1.76913 0
M  V30 10294 H 1075.92 -3.66268 0.155995 0
M  V30 10295 H 1075.56 -4.54351 -2.1581 0
M  V30 10296 H 1075.26 -5.80148 -0.932878 0
M  V30 10297 H 1076.79 -5.81414 -1.86522 0
M  V30 10298 H 1078.2 -5.71873 0.404212 0
M  V30 10299 H 1076.6 -5.88427 1.17789 0
M  V30 10300 H 1077.67 -4.55574 1.66073 0
M  V30 10301 N 1079.01 -0.398486 -1.52479 0
M  V30 10302 C 1079.96 0.447001 -2.28264 0
M  V30 10303 C 1080.96 1.05511 -1.32529 0
M  V30 10304 O 1082.16 0.994528 -1.5003 0
M  V30 10305 H 1078.54 0.162919 -0.73414 0
M  V30 10306 H 1080.51 -0.213534 -2.97635 0
M  V30 10307 C 1079.26 1.55724 -3.10879 0
M  V30 10308 H 1078.58 1.09864 -3.84409 0
M  V30 10309 H 1080.02 2.12286 -3.67029 0
M  V30 10310 C 1078.48 2.51853 -2.23768 0
M  V30 10311 O 1079.01 3.55483 -1.87069 0
M  V30 10312 N 1077.21 2.2181 -1.87746 0
M  V30 10313 H 1076.76 1.3757 -2.17789 0
M  V30 10314 H 1076.72 2.86376 -1.29753 0
M  V30 10315 N 1080.49 1.57075 -0.12858 0
M  V30 10316 C 1081.72 2.00305 0.537839 0
M  V30 10317 C 1082.14 1.00787 1.58819 0
M  V30 10318 O 1081.5 -0.0190839 1.8129 0
M  V30 10319 C 1081.55 3.42371 1.13201 0
M  V30 10320 O 1080.65 3.45786 2.24735 0
M  V30 10321 H 1079.99 0.650456 0.133428 0
M  V30 10322 H 1082.52 2.03415 -0.219882 0
M  V30 10323 H 1082.53 3.80783 1.4652 0
M  V30 10324 H 1081.21 4.14315 0.362713 0
M  V30 10325 H 1079.78 3.19201 1.92783 0
M  V30 10326 N 1081.97 -0.145205 1.5693 0
M  V30 10327 C 1082.9 -1.18096 2.01434 0
M  V30 10328 C 1083.88 -1.447 0.894204 0
M  V30 10329 O 1085.07 -1.55589 1.16214 0
M  V30 10330 C 1082.2 -2.51369 2.39647 0
M  V30 10331 C 1081.15 -2.39283 3.54863 0
M  V30 10332 C 1080.48 -3.77283 3.78895 0
M  V30 10333 C 1081.78 -1.8754 4.87469 0
M  V30 10334 H 1083.47 -0.810897 2.8821 0
M  V30 10335 H 1081.02 -0.388624 1.38657 0
M  V30 10336 H 1082.97 -3.24054 2.69382 0
M  V30 10337 H 1081.69 -2.90214 1.49811 0
M  V30 10338 H 1080.35 -1.6905 3.25296 0
M  V30 10339 H 1080 -4.13567 2.86307 0
M  V30 10340 H 1079.7 -3.70057 4.56433 0
M  V30 10341 H 1081.22 -4.51514 4.11057 0
M  V30 10342 H 1082.64 -2.50019 5.1591 0
M  V30 10343 H 1081.03 -1.912 5.68826 0
M  V30 10344 H 1082.1 -0.831194 4.77723 0
M  V30 10345 N 1083.45 -1.52049 -0.414609 0
M  V30 10346 C 1084.38 -1.77956 -1.51175 0
M  V30 10347 C 1085.36 -0.630282 -1.57992 0
M  V30 10348 O 1086.54 -0.875324 -1.73354 0
M  V30 10349 C 1083.67 -1.92527 -2.89051 0
M  V30 10350 C 1082.63 -3.08096 -2.97087 0
M  V30 10351 C 1081.95 -3.07882 -4.37164 0
M  V30 10352 C 1083.25 -4.47656 -2.69075 0
M  V30 10353 H 1084.95 -2.69827 -1.29746 0
M  V30 10354 H 1082.49 -1.29839 -0.62273 0
M  V30 10355 H 1084.45 -2.09234 -3.65786 0
M  V30 10356 H 1083.17 -0.973235 -3.11762 0
M  V30 10357 H 1081.83 -2.91131 -2.22797 0
M  V30 10358 H 1081.48 -2.10411 -4.56877 0
M  V30 10359 H 1081.18 -3.85501 -4.43467 0
M  V30 10360 H 1082.7 -3.26712 -5.15841 0
M  V30 10361 H 1084.12 -4.64855 -3.35534 0
M  V30 10362 H 1082.51 -5.27151 -2.8676 0
M  V30 10363 H 1083.58 -4.56129 -1.64544 0
M  V30 10364 N 1084.93 0.6715 -1.42579 0
M  V30 10365 C 1086.17 1.44353 -1.44712 0
M  V30 10366 C 1086.53 1.91898 -0.0626628 0
M  V30 10367 O 1087.73 2.68768 0.0412789 0
M  V30 10368 C 1086 2.60616 -2.44569 0
M  V30 10369 S 1087.56 3.49416 -2.65431 0
M  V30 10370 H 1084.38 0.492985 -0.512334 0
M  V30 10371 H 1086.98 0.781349 -1.79207 0
M  V30 10372 H 1085.68 2.23931 -3.43923 0
M  V30 10373 H 1085.22 3.31703 -2.1151 0
M  V30 10374 H 1087.23 4.56712 -1.9398 0
M  V30 10375 N 1086.4 1.28806 0.908124 0
M  V30 10376 C 1087.68 1.06981 1.63751 0
M  V30 10377 C 1088.06 -0.388936 2.07486 0
M  V30 10378 O 1087.41 -1.37611 1.82415 0
M  V30 10379 C 1087.62 2.04962 2.82474 0
M  V30 10380 C 1088.97 2.35418 3.5336 0
M  V30 10381 O 1089.99 2.03091 2.92631 0
M  V30 10382 O 1088.85 2.90617 4.62822 0
M  V30 10383 H 1085.94 0.409267 0.71863 0
M  V30 10384 H 1088.49 1.40146 0.956934 0
M  V30 10385 H 1087.26 3.03254 2.47291 0
M  V30 10386 H 1086.88 1.72476 3.58242 0
M  V30 10387 N 1087.88 -1.11734 1.11145 0
M  V30 10388 C 1088.83 -2.19765 0.761982 0
M  V30 10389 C 1089.82 -1.67616 -0.24518 0
M  V30 10390 O 1091.03 -1.79695 -0.104781 0
M  V30 10391 H 1087.4 -0.71644 0.228513 0
M  V30 10392 H 1089.38 -2.4649 1.68183 0
M  V30 10393 C 1088.12 -3.47016 0.218057 0
M  V30 10394 H 1087.45 -3.87494 0.984299 0
M  V30 10395 H 1088.89 -4.23998 0.0116825 0
M  V30 10396 C 1087.35 -3.20088 -1.05096 0
M  V30 10397 O 1087.88 -3.40503 -2.1312 0
M  V30 10398 N 1086.08 -2.73844 -0.972523 0
M  V30 10399 H 1085.63 -2.57431 -0.0933459 0
M  V30 10400 H 1085.59 -2.56204 -1.82228 0
M  V30 10401 N 1089.36 -0.901303 -1.29284 0
M  V30 10402 C 1090.61 -0.527 -1.95108 0
M  V30 10403 C 1090.93 0.930065 -1.71391 0
M  V30 10404 O 1090.2 1.65601 -1.04658 0
M  V30 10405 H 1088.78 -0.191903 -0.721929 0
M  V30 10406 H 1091.44 -1.14795 -1.57506 0
M  V30 10407 H 1090.54 -0.710945 -3.03895 0
M  V30 10408 N 1090.84 1.42931 -0.663954 0
M  V30 10409 C 1092.08 2.02505 -0.190647 0
M  V30 10410 C 1092.44 1.51506 1.18591 0
M  V30 10411 O 1091.73 0.702962 1.78239 0
M  V30 10412 C 1091.93 3.57072 -0.153163 0
M  V30 10413 C 1091.75 4.23069 -1.52454 0
M  V30 10414 C 1090.52 4.58694 -2.11961 0
M  V30 10415 C 1092.72 4.51373 -2.46509 0
M  V30 10416 N 1090.7 5.09818 -3.41993 0
M  V30 10417 C 1092.08 5.03931 -3.61184 0
M  V30 10418 C 1094.13 4.33351 -2.45176 0
M  V30 10419 C 1092.83 5.40362 -4.74765 0
M  V30 10420 C 1094.86 4.70851 -3.57845 0
M  V30 10421 C 1094.22 5.23551 -4.71246 0
M  V30 10422 H 1090.32 0.773581 -0.114438 0
M  V30 10423 H 1092.9 1.73951 -0.874589 0
M  V30 10424 H 1091.08 3.85166 0.500156 0
M  V30 10425 H 1092.81 4.03336 0.332015 0
M  V30 10426 H 1089.56 4.44091 -1.6456 0
M  V30 10427 H 1089.99 5.39821 -4.08561 0
M  V30 10428 H 1094.63 3.91871 -1.58735 0
M  V30 10429 H 1092.35 5.8078 -5.6189 0
M  V30 10430 H 1095.93 4.58593 -3.58028 0
M  V30 10431 H 1094.81 5.52029 -5.56986 0
M  V30 10432 N 1092.32 0.406567 1.52266 0
M  V30 10433 C 1093.56 -0.169611 2.03695 0
M  V30 10434 C 1093.92 -1.42596 1.2857 0
M  V30 10435 O 1095.12 -2.08041 1.70212 0
M  V30 10436 C 1093.39 -0.413924 3.54995 0
M  V30 10437 S 1094.95 -0.957916 4.28217 0
M  V30 10438 H 1091.77 -0.0462362 0.709495 0
M  V30 10439 H 1094.37 0.558895 1.87341 0
M  V30 10440 H 1093.07 0.507285 4.07253 0
M  V30 10441 H 1092.61 -1.17038 3.75587 0
M  V30 10442 H 1094.62 -2.2387 4.42828 0
M  V30 10443 N 1093.79 -1.57004 0.136909 0
M  V30 10444 C 1094.73 -2.13355 -0.837405 0
M  V30 10445 C 1095.74 -1.08053 -1.21772 0
M  V30 10446 O 1096.93 -1.35365 -1.16355 0
M  V30 10447 C 1094.03 -2.63302 -2.13366 0
M  V30 10448 C 1093.2 -3.92896 -1.92228 0
M  V30 10449 C 1092.26 -4.28257 -3.05749 0
M  V30 10450 O 1091.29 -4.96761 -2.7788 0
M  V30 10451 N 1092.49 -3.87021 -4.3266 0
M  V30 10452 H 1095.25 -2.9758 -0.35586 0
M  V30 10453 H 1092.81 -1.61832 -0.0469758 0
M  V30 10454 H 1094.81 -2.83977 -2.88339 0
M  V30 10455 H 1093.38 -1.83858 -2.52814 0
M  V30 10456 H 1092.6 -3.80949 -1.01349 0
M  V30 10457 H 1093.88 -4.776 -1.75431 0
M  V30 10458 H 1093.28 -3.31804 -4.58173 0
M  V30 10459 H 1091.84 -4.12768 -5.04446 0
M  V30 10460 N 1095.27 0.136881 -1.57004 0
M  V30 10461 C 1096.22 1.18782 -1.99984 0
M  V30 10462 C 1097.21 1.43899 -0.893841 0
M  V30 10463 O 1098.42 1.44072 -1.07904 0
M  V30 10464 H 1094.8 0.400065 -0.636751 0
M  V30 10465 H 1096.77 0.798696 -2.87512 0
M  V30 10466 C 1095.52 2.51105 -2.40502 0
M  V30 10467 H 1094.84 2.32611 -3.25165 0
M  V30 10468 H 1096.28 3.23244 -2.74389 0
M  V30 10469 C 1094.74 3.12386 -1.26161 0
M  V30 10470 O 1095.27 3.97666 -0.567836 0
M  V30 10471 N 1093.47 2.71989 -1.02326 0
M  V30 10472 H 1093.02 2.02736 -1.58921 0
M  V30 10473 H 1092.98 3.13322 -0.26013 0
M  V30 10474 N 1096.75 1.52266 0.40654 0
M  V30 10475 C 1097.98 1.70598 1.17945 0
M  V30 10476 C 1098.4 0.415793 1.83447 0
M  V30 10477 O 1097.76 -0.626968 1.70114 0
M  V30 10478 C 1097.81 2.84449 2.21633 0
M  V30 10479 O 1096.91 2.50199 3.27833 0
M  V30 10480 H 1096.25 0.567837 0.344177 0
M  V30 10481 H 1098.78 1.98981 0.476211 0
M  V30 10482 H 1098.79 3.09436 2.65919 0
M  V30 10483 H 1097.47 3.78055 1.73341 0
M  V30 10484 H 1096.04 2.35892 2.88807 0
M  V30 10485 N 1098.23 -0.663929 1.42933 0
M  V30 10486 C 1099.64 -1.24484 1.39143 0
M  V30 10487 C 1099.99 -1.95993 0.0901142 0
M  V30 10488 O 1099.12 -2.00636 -0.810812 0
M  V30 10489 C 1099.71 -2.26402 2.52047 0
M  V30 10490 C 1098.27 -2.79995 2.51555 0
M  V30 10491 C 1097.42 -1.54475 2.30289 0
M  V30 10492 H 1100.37 -0.456619 1.51989 0
M  V30 10493 H 1100.39 -3.08361 2.22921 0
M  V30 10494 H 1099.9 -1.74328 3.46744 0
M  V30 10495 H 1098 -3.36161 1.60707 0
M  V30 10496 H 1098.11 -3.2827 3.48964 0
M  V30 10497 H 1096.48 -1.81437 1.78753 0
M  V30 10498 H 1097.26 -1.04351 3.27056 0
M  V30 10499 N 1099.71 -1.29285 -0.901281 0
M  V30 10500 C 1100.95 -1.16934 -1.64836 0
M  V30 10501 C 1101.28 0.279826 -1.92982 0
M  V30 10502 O 1100.55 1.19179 -1.55478 0
M  V30 10503 H 1099.13 -0.429768 -0.61099 0
M  V30 10504 H 1101.79 -1.62189 -1.08077 0
M  V30 10505 H 1100.88 -1.71821 -2.60545 0
M  V30 10506 N 1101.18 1.11143 -1.11736 0
M  V30 10507 C 1102.41 1.87285 -0.891007 0
M  V30 10508 C 1102.83 1.79758 0.553971 0
M  V30 10509 O 1102.19 1.16221 1.39149 0
M  V30 10510 C 1102.24 3.33924 -1.36114 0
M  V30 10511 O 1101.34 4.08917 -0.534851 0
M  V30 10512 H 1100.69 0.581418 -0.320701 0
M  V30 10513 H 1103.22 1.40469 -1.4876 0
M  V30 10514 H 1103.23 3.84772 -1.35701 0
M  V30 10515 H 1101.9 3.38719 -2.41334 0
M  V30 10516 H 1100.48 3.67954 -0.605355 0
M  V30 10517 N 1102.66 0.908147 1.28804 0
M  V30 10518 C 1103.89 0.553287 1.99054 0
M  V30 10519 C 1104.3 -0.868455 1.68091 0
M  V30 10520 O 1103.64 -1.58599 0.926939 0
M  V30 10521 C 1103.71 0.675823 3.5309 0
M  V30 10522 C 1103.37 2.06608 4.0763 0
M  V30 10523 C 1104.37 3.03819 4.21889 0
M  V30 10524 C 1102.05 2.37775 4.42457 0
M  V30 10525 C 1104.05 4.30316 4.7022 0
M  V30 10526 C 1101.73 3.64512 4.90484 0
M  V30 10527 C 1102.73 4.60597 5.04321 0
M  V30 10528 O 1102.42 5.85082 5.51302 0
M  V30 10529 H 1102.15 0.210152 0.642504 0
M  V30 10530 H 1104.7 1.22188 1.65104 0
M  V30 10531 H 1102.93 -0.0498253 3.86668 0
M  V30 10532 H 1104.62 0.328884 4.04565 0
M  V30 10533 H 1105.39 2.81057 3.95262 0
M  V30 10534 H 1101.27 1.63742 4.3094 0
M  V30 10535 H 1104.81 5.05318 4.80936 0
M  V30 10536 H 1100.71 3.87101 5.1655 0
M  V30 10537 H 1101.48 5.87791 5.69599 0
M  V30 10538 N 1104.14 -1.42577 0.671525 0
M  V30 10539 C 1105.37 -2.06442 0.199152 0
M  V30 10540 C 1105.79 -1.50104 -1.1336 0
M  V30 10541 O 1105.15 -0.618211 -1.70434 0
M  V30 10542 C 1105.2 -3.60323 0.141215 0
M  V30 10543 O 1104.3 -4.02655 -0.891238 0
M  V30 10544 H 1103.64 -0.655919 0.103277 0
M  V30 10545 H 1106.17 -1.82768 0.919614 0
M  V30 10546 H 1106.18 -4.07984 -0.0360209 0
M  V30 10547 H 1104.86 -4.00702 1.11403 0
M  V30 10548 H 1103.43 -3.66549 -0.685309 0
M  V30 10549 N 1105.62 -0.414636 -1.52048 0
M  V30 10550 C 1106.86 0.158807 -2.03782 0
M  V30 10551 C 1107.22 1.41912 -1.29325 0
M  V30 10552 O 1108.42 2.07136 -1.71313 0
M  V30 10553 C 1106.69 0.395092 -3.55209 0
M  V30 10554 S 1108.25 0.935193 -4.28719 0
M  V30 10555 H 1105.07 0.0424729 -0.70973 0
M  V30 10556 H 1107.67 -0.568822 -1.87042 0
M  V30 10557 H 1106.38 -0.528875 -4.06978 0
M  V30 10558 H 1105.91 1.15044 -3.76203 0
M  V30 10559 H 1107.92 2.21519 -4.44009 0
M  V30 10560 N 1107.1 1.56929 -0.145233 0
M  V30 10561 C 1108.32 2.00864 0.516564 0
M  V30 10562 C 1108.75 1.02466 1.57741 0
M  V30 10563 O 1108.1 0.000145439 1.813 0
M  V30 10564 C 1108.15 3.43552 1.09563 0
M  V30 10565 O 1107.26 3.4815 2.21055 0
M  V30 10566 H 1106.6 0.651835 0.126521 0
M  V30 10567 H 1109.13 2.0317 -0.241445 0
M  V30 10568 H 1109.14 3.82316 1.42473 0
M  V30 10569 H 1107.81 4.14677 0.318749 0
M  V30 10570 H 1106.39 3.21228 1.89387 0
M  V30 10571 N 1108.58 -0.128553 1.57075 0
M  V30 10572 C 1109.82 -0.844012 1.86161 0
M  V30 10573 C 1110.18 -1.77499 0.73198 0
M  V30 10574 O 1111.38 -2.5313 0.904357 0
M  V30 10575 C 1109.65 -1.58238 3.20462 0
M  V30 10576 S 1111.21 -2.34073 3.71154 0
M  V30 10577 H 1108.03 -0.281884 0.652734 0
M  V30 10578 H 1110.63 -0.102902 1.95229 0
M  V30 10579 H 1109.33 -0.890246 4.00628 0
M  V30 10580 H 1108.87 -2.36404 3.14446 0
M  V30 10581 H 1110.88 -3.59617 3.41892 0
M  V30 10582 N 1110.05 -1.5248 -0.398459 0
M  V30 10583 C 1111.46 -1.59107 -0.976817 0
M  V30 10584 C 1111.82 -0.438104 -1.91246 0
M  V30 10585 O 1110.94 0.440111 -2.11877 0
M  V30 10586 C 1111.54 -2.88373 -1.77838 0
M  V30 10587 C 1110.09 -2.97445 -2.30659 0
M  V30 10588 C 1109.24 -2.5414 -1.10942 0
M  V30 10589 H 1112.19 -1.57695 -0.178324 0
M  V30 10590 H 1112.21 -2.74327 -2.63676 0
M  V30 10591 H 1111.73 -3.72269 -1.09714 0
M  V30 10592 H 1109.83 -2.18066 -3.02123 0
M  V30 10593 H 1109.94 -4.019 -2.60794 0
M  V30 10594 H 1108.3 -2.08237 -1.46661 0
M  V30 10595 H 1109.09 -3.40421 -0.443684 0
M  V30 10596 N 1111.53 0.65634 -1.43283 0
M  V30 10597 C 1112.94 1.23744 -1.39801 0
M  V30 10598 C 1113.29 1.95942 -0.100507 0
M  V30 10599 O 1112.42 2.01063 0.800161 0
M  V30 10600 C 1113.01 2.25062 -2.53244 0
M  V30 10601 C 1111.57 2.78657 -2.53036 0
M  V30 10602 C 1110.72 1.53251 -2.31105 0
M  V30 10603 H 1113.67 0.448553 -1.52229 0
M  V30 10604 H 1113.69 3.07174 -2.24553 0
M  V30 10605 H 1113.2 1.72487 -3.47664 0
M  V30 10606 H 1111.3 3.35304 -1.62487 0
M  V30 10607 H 1111.42 3.26414 -3.507 0
M  V30 10608 H 1109.78 1.80487 -1.79713 0
M  V30 10609 H 1110.56 1.02615 -3.27605 0
M  V30 10610 N 1113.01 1.29761 0.894412 0
M  V30 10611 C 1114.26 1.17806 1.64214 0
M  V30 10612 C 1114.58 -0.269588 1.93127 0
M  V30 10613 O 1113.85 -1.18352 1.56107 0
M  V30 10614 H 1112.43 0.433002 0.608702 0
M  V30 10615 H 1115.09 1.6276 1.07216 0
M  V30 10616 H 1114.19 1.73201 2.5963 0
M  V30 10617 N 1114.49 -1.10549 1.12324 0
M  V30 10618 C 1115.73 -1.82485 0.877817 0
M  V30 10619 C 1116.06 -1.85131 -0.596373 0
M  V30 10620 O 1115.32 -1.30675 -1.45679 0
M  V30 10621 C 1115.62 -3.28997 1.39626 0
M  V30 10622 C 1115.28 -3.465 2.88529 0
M  V30 10623 C 1113.94 -3.50984 3.29186 0
M  V30 10624 C 1116.3 -3.51991 3.84385 0
M  V30 10625 C 1113.62 -3.58525 4.6441 0
M  V30 10626 C 1115.98 -3.61065 5.19437 0
M  V30 10627 C 1114.64 -3.63813 5.5964 0
M  V30 10628 H 1113.91 -0.667758 0.321216 0
M  V30 10629 H 1116.56 -1.30314 1.40323 0
M  V30 10630 H 1114.86 -3.83726 0.791291 0
M  V30 10631 H 1116.56 -3.83165 1.18259 0
M  V30 10632 H 1113.15 -3.43686 2.56082 0
M  V30 10633 H 1117.33 -3.47777 3.54069 0
M  V30 10634 H 1112.59 -3.58934 4.94951 0
M  V30 10635 H 1116.76 -3.64257 5.9354 0
M  V30 10636 H 1114.39 -3.69409 6.6441 0
M  V30 10637 N 1115.97 -0.914965 -1.28321 0
M  V30 10638 C 1116.92 -0.375436 -2.24888 0
M  V30 10639 C 1117.9 0.51313 -1.52498 0
M  V30 10640 O 1119.09 0.352654 -1.73451 0
M  V30 10641 C 1116.22 0.382266 -3.41165 0
M  V30 10642 C 1115.31 -0.522089 -4.20874 0
M  V30 10643 N 1115.7 -1.63623 -4.78603 0
M  V30 10644 C 1114 -0.322703 -4.44831 0
M  V30 10645 C 1114.7 -2.19766 -5.38589 0
M  V30 10646 N 1113.67 -1.48878 -5.22816 0
M  V30 10647 H 1117.47 -1.2263 -2.67094 0
M  V30 10648 H 1114.99 -0.767759 -1.43106 0
M  V30 10649 H 1116.99 0.785641 -4.0943 0
M  V30 10650 H 1115.65 1.23021 -3.00493 0
M  V30 10651 H 1116.66 -2.01879 -4.76933 0
M  V30 10652 H 1113.33 0.485627 -4.14666 0
M  V30 10653 H 1114.72 -3.13494 -5.94282 0
M  V30 10654 N 1117.44 1.42219 -0.679077 0
M  V30 10655 C 1118.69 2.01479 -0.203119 0
M  V30 10656 C 1119.02 1.5371 1.19178 0
M  V30 10657 O 1118.27 0.731832 1.81501 0
M  V30 10658 C 1118.57 3.56889 -0.191027 0
M  V30 10659 C 1118.24 4.24106 -1.53118 0
M  V30 10660 C 1116.9 4.42182 -1.89812 0
M  V30 10661 C 1119.25 4.61946 -2.41361 0
M  V30 10662 C 1116.58 4.95371 -3.14364 0
M  V30 10663 C 1118.93 5.16518 -3.65229 0
M  V30 10664 C 1117.6 5.32807 -4.02086 0
M  V30 10665 H 1116.87 0.737263 -0.0743264 0
M  V30 10666 H 1119.51 1.70346 -0.874908 0
M  V30 10667 H 1117.82 3.87715 0.564282 0
M  V30 10668 H 1119.52 4.00528 0.194511 0
M  V30 10669 H 1116.11 4.10399 -1.23575 0
M  V30 10670 H 1120.29 4.4765 -2.14297 0
M  V30 10671 H 1115.55 5.06167 -3.42935 0
M  V30 10672 H 1119.72 5.44782 -4.33804 0
M  V30 10673 H 1117.35 5.73785 -4.98673 0
M  V30 10674 N 1118.92 0.422693 1.51826 0
M  V30 10675 C 1120.17 -0.141187 2.02909 0
M  V30 10676 C 1120.52 -1.41649 1.30205 0
M  V30 10677 O 1119.82 -1.87297 0.403769 0
M  V30 10678 C 1120.01 -0.429516 3.5481 0
M  V30 10679 C 1119.84 0.816291 4.42229 0
M  V30 10680 C 1118.61 1.34551 4.87057 0
M  V30 10681 C 1120.81 1.69829 4.85451 0
M  V30 10682 N 1118.79 2.54538 5.58644 0
M  V30 10683 C 1120.16 2.74431 5.55956 0
M  V30 10684 C 1122.21 1.71445 4.67452 0
M  V30 10685 C 1120.92 3.80576 6.10372 0
M  V30 10686 C 1122.94 2.76516 5.22774 0
M  V30 10687 C 1122.31 3.79839 5.93213 0
M  V30 10688 H 1118.4 -0.0128783 0.781894 0
M  V30 10689 H 1120.99 0.580083 1.85858 0
M  V30 10690 H 1119.16 -1.11982 3.71907 0
M  V30 10691 H 1120.89 -0.983467 3.92568 0
M  V30 10692 H 1117.65 0.901554 4.6494 0
M  V30 10693 H 1118.07 3.15342 5.99073 0
M  V30 10694 H 1122.71 0.92899 4.12468 0
M  V30 10695 H 1120.43 4.59969 6.6442 0
M  V30 10696 H 1124.02 2.7869 5.10708 0
M  V30 10697 H 1122.9 4.59806 6.35254 0
M  V30 10698 N 1120.4 -1.5685 0.153553 0
M  V30 10699 C 1121.33 -2.14231 -0.814729 0
M  V30 10700 C 1122.34 -1.09339 -1.20619 0
M  V30 10701 O 1123.53 -1.36592 -1.14913 0
M  V30 10702 C 1120.63 -2.6555 -2.10562 0
M  V30 10703 C 1119.81 -3.94912 -1.8805 0
M  V30 10704 C 1118.87 -4.31476 -3.0119 0
M  V30 10705 O 1117.89 -4.9968 -2.72596 0
M  V30 10706 N 1119.09 -3.91588 -4.28531 0
M  V30 10707 H 1121.86 -2.9794 -0.324277 0
M  V30 10708 H 1119.42 -1.61873 -0.0298087 0
M  V30 10709 H 1121.41 -2.87019 -2.85311 0
M  V30 10710 H 1119.98 -1.86529 -2.5085 0
M  V30 10711 H 1119.2 -3.82002 -0.973024 0
M  V30 10712 H 1120.49 -4.79433 -1.70356 0
M  V30 10713 H 1119.89 -3.36645 -4.54628 0
M  V30 10714 H 1118.44 -4.18095 -5.00039 0
M  V30 10715 N 1121.88 0.120221 -1.57141 0
M  V30 10716 C 1123.15 0.858458 -1.75755 0
M  V30 10717 C 1123.53 1.98124 -0.728693 0
M  V30 10718 O 1122.88 2.27155 0.247573 0
M  V30 10719 C 1123.09 1.37627 -3.20718 0
M  V30 10720 C 1124.44 1.82909 -3.83183 0
M  V30 10721 O 1125.46 1.47309 -3.24312 0
M  V30 10722 O 1124.32 2.4865 -4.86657 0
M  V30 10723 H 1121.42 0.407583 -0.719587 0
M  V30 10724 H 1123.96 0.104057 -1.69381 0
M  V30 10725 H 1122.74 0.570651 -3.87117 0
M  V30 10726 H 1122.36 2.19341 -3.31625 0
M  V30 10727 N 1123.36 1.52689 0.390367 0
M  V30 10728 C 1124.58 1.71541 1.15678 0
M  V30 10729 C 1125 0.433171 1.83764 0
M  V30 10730 O 1124.36 -0.592248 1.72623 0
M  V30 10731 C 1124.41 2.864 2.20584 0
M  V30 10732 O 1124.13 4.0966 1.55274 0
M  V30 10733 C 1125.63 3.1692 3.09962 0
M  V30 10734 H 1122.85 0.574381 0.346883 0
M  V30 10735 H 1125.39 1.99332 0.456851 0
M  V30 10736 H 1123.55 2.61075 2.86214 0
M  V30 10737 H 1123.96 4.73802 2.2497 0
M  V30 10738 H 1125.44 4.00755 3.79604 0
M  V30 10739 H 1125.91 2.31245 3.73393 0
M  V30 10740 H 1126.52 3.4408 2.49979 0
M  V30 10741 N 1124.83 -0.648732 1.43629 0
M  V30 10742 C 1125.74 -1.79046 1.51591 0
M  V30 10743 C 1126.76 -1.69276 0.402697 0
M  V30 10744 O 1127.94 -1.90366 0.657484 0
M  V30 10745 C 1125 -3.15347 1.44073 0
M  V30 10746 C 1124.06 -3.3688 2.66102 0
M  V30 10747 C 1123.3 -4.66679 2.58933 0
M  V30 10748 O 1123.52 -5.46328 1.63956 0
M  V30 10749 O 1122.45 -4.9003 3.49506 0
M  V30 10750 H 1126.28 -1.75283 2.48011 0
M  V30 10751 H 1123.86 -0.807774 1.2568 0
M  V30 10752 H 1125.75 -3.96633 1.42339 0
M  V30 10753 H 1124.42 -3.19691 0.50789 0
M  V30 10754 H 1123.33 -2.55341 2.73407 0
M  V30 10755 H 1124.66 -3.37386 3.58373 0
M  V30 10756 N 1126.31 -1.30234 -0.887518 0
M  V30 10757 C 1127.56 -1.18277 -1.63381 0
M  V30 10758 C 1127.87 0.262079 -1.93836 0
M  V30 10759 O 1129.08 0.503127 -2.66797 0
M  V30 10760 C 1127.54 -2.06944 -2.94452 0
M  V30 10761 C 1127.14 -3.56323 -2.71547 0
M  V30 10762 C 1128.89 -2.03743 -3.7241 0
M  V30 10763 C 1126.8 -4.37054 -3.98419 0
M  V30 10764 H 1125.73 -0.439087 -0.612959 0
M  V30 10765 H 1128.38 -1.54964 -0.982779 0
M  V30 10766 H 1126.76 -1.63138 -3.60835 0
M  V30 10767 H 1127.93 -4.08261 -2.13681 0
M  V30 10768 H 1126.25 -3.61321 -2.06969 0
M  V30 10769 H 1128.84 -2.61312 -4.66497 0
M  V30 10770 H 1129.19 -1.02029 -4.03603 0
M  V30 10771 H 1129.72 -2.45657 -3.12886 0
M  V30 10772 H 1126.46 -5.39453 -3.72385 0
M  V30 10773 H 1125.98 -3.89881 -4.55799 0
M  V30 10774 H 1127.66 -4.48356 -4.66462 0
M  V30 10775 N 1127.79 1.09952 -1.12909 0
M  V30 10776 C 1129.03 1.83635 -0.897646 0
M  V30 10777 C 1129.39 1.83462 0.566179 0
M  V30 10778 O 1130.6 2.52748 0.914977 0
M  V30 10779 C 1128.87 3.26095 -1.46277 0
M  V30 10780 S 1130.43 4.16846 -1.37059 0
M  V30 10781 H 1127.24 0.633045 -0.32369 0
M  V30 10782 H 1129.85 1.32275 -1.43957 0
M  V30 10783 H 1128.55 3.23793 -2.52163 0
M  V30 10784 H 1128.08 3.82526 -0.918549 0
M  V30 10785 H 1130.1 4.94996 -0.345399 0
M  V30 10786 N 1129.27 0.921757 1.27833 0
M  V30 10787 C 1130.22 0.414838 2.27041 0
M  V30 10788 C 1131.19 -0.515045 1.57913 0
M  V30 10789 O 1132.37 -0.435499 1.85763 0
M  V30 10790 C 1129.51 -0.331744 3.43502 0
M  V30 10791 C 1128.62 0.631565 4.27358 0
M  V30 10792 C 1127.76 -0.134265 5.3103 0
M  V30 10793 C 1126.8 0.822138 6.06554 0
M  V30 10794 N 1125.93 0.0893149 7.02043 0
M  V30 10795 H 1130.77 1.26585 2.69778 0
M  V30 10796 H 1128.31 0.635488 1.32665 0
M  V30 10797 H 1130.27 -0.780866 4.09827 0
M  V30 10798 H 1128.9 -1.14704 3.01733 0
M  V30 10799 H 1127.95 1.19922 3.61003 0
M  V30 10800 H 1129.26 1.36274 4.79824 0
M  V30 10801 H 1128.42 -0.643579 6.03277 0
M  V30 10802 H 1127.16 -0.898443 4.79353 0
M  V30 10803 H 1126.16 1.34275 5.33151 0
M  V30 10804 H 1127.39 1.586 6.6032 0
M  V30 10805 H 1125.33 -0.656725 6.52704 0
M  V30 10806 H 1125.25 0.760167 7.52169 0
M  V30 10807 H 1126.52 -0.399541 7.78475 0
M  V30 10808 N 1130.75 -1.41857 0.686609 0
M  V30 10809 C 1132.02 -1.95082 0.142228 0
M  V30 10810 C 1132.4 -1.62646 -1.34572 0
M  V30 10811 O 1131.75 -0.928757 -2.08773 0
M  V30 10812 C 1131.96 -3.46415 0.423955 0
M  V30 10813 C 1133.31 -4.23181 0.346842 0
M  V30 10814 O 1134.33 -3.54393 0.358363 0
M  V30 10815 O 1133.19 -5.4568 0.299211 0
M  V30 10816 H 1130.29 -0.826943 0.00974 0
M  V30 10817 H 1132.83 -1.51622 0.762153 0
M  V30 10818 H 1131.6 -3.63273 1.45424 0
M  V30 10819 H 1131.23 -3.96949 -0.227391 0
M  V30 10820 N 1132.22 -0.430739 -1.51599 0
M  V30 10821 C 1133.47 0.138133 -2.02329 0
M  V30 10822 C 1133.8 1.42934 -1.31466 0
M  V30 10823 O 1133.08 1.89743 -0.427551 0
M  V30 10824 C 1133.36 0.363677 -3.58259 0
M  V30 10825 C 1133.21 -0.94572 -4.39746 0
M  V30 10826 C 1134.53 1.13637 -4.25176 0
M  V30 10827 H 1131.65 0.0487287 -0.735387 0
M  V30 10828 H 1134.29 -0.568444 -1.81297 0
M  V30 10829 H 1132.44 0.965552 -3.7631 0
M  V30 10830 H 1134.12 -1.58107 -4.33359 0
M  V30 10831 H 1132.36 -1.55183 -4.05094 0
M  V30 10832 H 1133.03 -0.742031 -5.4699 0
M  V30 10833 H 1135.51 0.626608 -4.11355 0
M  V30 10834 H 1134.38 1.26294 -5.34173 0
M  V30 10835 H 1134.64 2.16273 -3.85588 0
M  V30 10836 N 1133.7 1.56767 -0.161869 0
M  V30 10837 C 1134.98 1.88245 0.531352 0
M  V30 10838 C 1135.36 1.07025 1.81958 0
M  V30 10839 O 1134.71 0.161385 2.27929 0
M  V30 10840 C 1134.92 3.40117 0.782416 0
M  V30 10841 C 1136.27 4.09655 1.11661 0
M  V30 10842 O 1137.29 3.4538 0.871274 0
M  V30 10843 O 1136.15 5.23192 1.57901 0
M  V30 10844 H 1133.24 0.780725 0.272759 0
M  V30 10845 H 1135.79 1.68522 -0.199597 0
M  V30 10846 H 1134.56 3.91088 -0.128677 0
M  V30 10847 H 1134.18 3.65418 1.56702 0
M  V30 10848 N 1135.18 -0.111886 1.57202 0
M  V30 10849 C 1136.09 -1.1556 2.04165 0
M  V30 10850 C 1137.11 -1.44898 0.963354 0
M  V30 10851 O 1138.28 -1.55873 1.27536 0
M  V30 10852 C 1135.35 -2.46048 2.44256 0
M  V30 10853 C 1134.41 -2.24043 3.66201 0
M  V30 10854 C 1133.64 -3.4831 4.04371 0
M  V30 10855 O 1133.86 -4.55895 3.42806 0
M  V30 10856 O 1132.8 -3.38891 4.9743 0
M  V30 10857 H 1136.62 -0.786778 2.93332 0
M  V30 10858 H 1134.21 -0.323196 1.45862 0
M  V30 10859 H 1136.09 -3.22916 2.70745 0
M  V30 10860 H 1134.77 -2.8239 1.58233 0
M  V30 10861 H 1133.67 -1.4501 3.44852 0
M  V30 10862 H 1135.01 -1.92602 4.52952 0
M  V30 10863 N 1136.66 -1.52894 -0.382264 0
M  V30 10864 C 1137.9 -1.69958 -1.1355 0
M  V30 10865 C 1138.26 -0.433602 -1.8704 0
M  V30 10866 O 1139.46 -0.480701 -2.64467 0
M  V30 10867 C 1137.73 -2.90465 -2.08242 0
M  V30 10868 S 1139.29 -3.28151 -2.91311 0
M  V30 10869 H 1136.11 -0.598209 -0.384275 0
M  V30 10870 H 1138.71 -1.90957 -0.418998 0
M  V30 10871 H 1137.42 -3.80819 -1.52987 0
M  V30 10872 H 1136.95 -2.71819 -2.84391 0
M  V30 10873 H 1138.96 -2.78863 -4.10426 0
M  V30 10874 N 1138.14 0.641106 -1.43971 0
M  V30 10875 C 1139.07 1.76489 -1.52885 0
M  V30 10876 C 1140.05 1.65742 -0.38258 0
M  V30 10877 O 1141.23 1.84653 -0.601397 0
M  V30 10878 C 1138.36 3.14977 -1.4631 0
M  V30 10879 C 1137.32 3.40502 -2.59311 0
M  V30 10880 C 1136.64 4.78916 -2.37789 0
M  V30 10881 C 1137.94 3.34048 -4.01509 0
M  V30 10882 H 1139.64 1.69286 -2.46946 0
M  V30 10883 H 1137.18 0.813015 -1.18853 0
M  V30 10884 H 1139.14 3.9336 -1.51149 0
M  V30 10885 H 1137.86 3.2294 -0.487599 0
M  V30 10886 H 1136.52 2.64495 -2.53846 0
M  V30 10887 H 1136.17 4.8357 -1.38454 0
M  V30 10888 H 1135.87 4.96954 -3.13545 0
M  V30 10889 H 1137.39 5.59541 -2.4443 0
M  V30 10890 H 1138.81 4.0235 -4.08396 0
M  V30 10891 H 1137.2 3.63622 -4.77388 0
M  V30 10892 H 1138.27 2.32022 -4.25786 0
M  V30 10893 N 1139.62 1.30703 0.880598 0
M  V30 10894 C 1140.84 1.22843 1.67106 0
M  V30 10895 C 1141.27 -0.204788 1.86982 0
M  V30 10896 O 1140.62 -1.14716 1.40392 0
M  V30 10897 C 1140.67 1.96685 3.02237 0
M  V30 10898 O 1139.78 1.29693 3.91476 0
M  V30 10899 H 1139.12 0.424661 0.51045 0
M  V30 10900 H 1141.65 1.72596 1.09871 0
M  V30 10901 H 1141.66 2.05874 3.52249 0
M  V30 10902 H 1140.33 3.00919 2.8709 0
M  V30 10903 H 1138.91 1.28886 3.49918 0
M  V30 10904 N 1141.09 -1.09351 1.1349 0
M  V30 10905 C 1142.32 -1.85844 0.92069 0
M  V30 10906 C 1142.74 -1.80616 -0.525303 0
M  V30 10907 O 1142.1 -1.1842 -1.37282 0
M  V30 10908 C 1142.15 -3.31716 1.4141 0
M  V30 10909 O 1141.25 -4.08014 0.599838 0
M  V30 10910 H 1140.59 -0.576242 0.32991 0
M  V30 10911 H 1143.12 -1.38084 1.50976 0
M  V30 10912 H 1143.13 -3.82564 1.41805 0
M  V30 10913 H 1141.81 -3.34837 2.46692 0
M  V30 10914 H 1140.39 -3.66944 0.663816 0
M  V30 10915 N 1142.57 -0.928524 -1.27343 0
M  V30 10916 C 1143.98 -0.613856 -1.7632 0
M  V30 10917 C 1144.33 0.870983 -1.75808 0
M  V30 10918 O 1143.46 1.68155 -1.36209 0
M  V30 10919 C 1144.05 -1.10755 -3.20186 0
M  V30 10920 C 1142.61 -0.843532 -3.66826 0
M  V30 10921 C 1141.76 -1.26579 -2.46724 0
M  V30 10922 H 1144.71 -1.10821 -1.13598 0
M  V30 10923 H 1144.73 -0.455598 -3.77763 0
M  V30 10924 H 1144.24 -2.18825 -3.20526 0
M  V30 10925 H 1142.34 0.223334 -3.7193 0
M  V30 10926 H 1142.46 -1.46165 -4.56259 0
M  V30 10927 H 1140.82 -0.684334 -2.45334 0
M  V30 10928 H 1141.6 -2.35516 -2.49774 0
M  V30 10929 N 1144.05 1.41491 -0.694123 0
M  V30 10930 C 1145.29 2.03117 -0.228614 0
M  V30 10931 C 1145.65 1.53782 1.14957 0
M  V30 10932 O 1146.85 2.07325 1.71084 0
M  V30 10933 C 1145.13 3.56283 -0.282341 0
M  V30 10934 S 1146.68 4.38664 0.109333 0
M  V30 10935 H 1143.5 0.704993 -0.092227 0
M  V30 10936 H 1146.1 1.72947 -0.911578 0
M  V30 10937 H 1144.81 3.89685 -1.2874 0
M  V30 10938 H 1144.34 3.91154 0.419818 0
M  V30 10939 H 1146.35 4.77835 1.33747 0
M  V30 10940 N 1145.53 0.438773 1.51369 0
M  V30 10941 C 1146.77 -0.127401 2.02399 0
M  V30 10942 C 1147.11 -1.42235 1.32223 0
M  V30 10943 O 1146.38 -1.89513 0.437607 0
M  V30 10944 C 1146.66 -0.344673 3.58447 0
M  V30 10945 C 1146.52 0.969027 4.39238 0
M  V30 10946 C 1147.84 -1.11381 4.25773 0
M  V30 10947 H 1144.96 -0.0448281 0.735635 0
M  V30 10948 H 1147.6 0.57805 1.80993 0
M  V30 10949 H 1145.75 -0.945582 3.76817 0
M  V30 10950 H 1147.42 1.60403 4.32514 0
M  V30 10951 H 1145.66 1.57329 4.04265 0
M  V30 10952 H 1146.33 0.771029 5.46589 0
M  V30 10953 H 1148.81 -0.604785 4.11681 0
M  V30 10954 H 1147.69 -1.23459 5.34835 0
M  V30 10955 H 1147.95 -2.14225 3.8673 0
M  V30 10956 N 1147.01 -1.56678 0.170181 0
M  V30 10957 C 1148.23 -2.0166 -0.484543 0
M  V30 10958 C 1148.66 -1.04962 -1.56091 0
M  V30 10959 O 1148.01 -0.0289887 -1.81277 0
M  V30 10960 C 1148.06 -3.45252 -1.04084 0
M  V30 10961 O 1147.17 -3.51623 -2.15488 0
M  V30 10962 H 1146.51 -0.653765 -0.116135 0
M  V30 10963 H 1149.04 -2.02761 0.273737 0
M  V30 10964 H 1149.05 -3.84534 -1.36373 0
M  V30 10965 H 1147.72 -4.15131 -0.252738 0
M  V30 10966 H 1146.3 -3.242 -1.84252 0
M  V30 10967 N 1148.48 0.103547 -1.57259 0
M  V30 10968 C 1149.73 0.806979 -1.8529 0
M  V30 10969 C 1150.05 1.79679 -0.757653 0
M  V30 10970 O 1149.32 1.94695 0.216913 0
M  V30 10971 H 1147.9 0.301012 -0.683667 0
M  V30 10972 H 1150.56 0.0871886 -1.94705 0
M  V30 10973 H 1149.66 1.34275 -2.81738 0
M  V30 10974 N 1149.96 1.53094 0.37415 0
M  V30 10975 C 1151.21 1.69111 1.11934 0
M  V30 10976 C 1151.54 0.437252 1.89213 0
M  V30 10977 O 1150.82 -0.565298 1.86104 0
M  V30 10978 C 1151.1 2.93559 2.08554 0
M  V30 10979 C 1150.95 4.29082 1.3494 0
M  V30 10980 C 1152.27 3.13586 3.08791 0
M  V30 10981 H 1149.39 0.615383 0.405553 0
M  V30 10982 H 1152.03 1.85719 0.401078 0
M  V30 10983 H 1150.18 2.79531 2.69805 0
M  V30 10984 H 1151.85 4.54906 0.765402 0
M  V30 10985 H 1150.1 4.28884 0.651238 0
M  V30 10986 H 1150.77 5.12275 2.05616 0
M  V30 10987 H 1153.24 3.26743 2.57639 0
M  V30 10988 H 1152.12 4.02112 3.73627 0
M  V30 10989 H 1152.38 2.28475 3.78486 0
M  V30 10990 N 1151.44 -0.633461 1.44309 0
M  V30 10991 C 1152.68 -1.40465 1.48489 0
M  V30 10992 C 1153.04 -1.91664 0.113519 0
M  V30 10993 O 1154.24 -2.68783 0.0299948 0
M  V30 10994 C 1152.52 -2.54041 2.51392 0
M  V30 10995 S 1154.07 -3.42256 2.74602 0
M  V30 10996 H 1150.89 -0.479228 0.525225 0
M  V30 10997 H 1153.49 -0.733561 1.81216 0
M  V30 10998 H 1152.2 -2.14734 3.49739 0
M  V30 10999 H 1151.73 -3.25979 2.2023 0
M  V30 11000 H 1153.74 -4.51409 2.06021 0
M  V30 11001 N 1152.92 -1.31168 -0.873655 0
M  V30 11002 C 1154.33 -1.09745 -1.1588 0
M  V30 11003 C 1154.53 0.134471 -2.01051 0
M  V30 11004 O 1153.59 0.824857 -2.38647 0
M  V30 11005 C 1154.9 -2.36704 -1.85451 0
M  V30 11006 C 1156.45 -2.42278 -1.98167 0
M  V30 11007 C 1156.93 -3.69108 -2.71152 0
M  V30 11008 N 1158.42 -3.69981 -2.7869 0
M  V30 11009 C 1159.15 -4.64811 -3.35765 0
M  V30 11010 N 1158.65 -5.69995 -3.938 0
M  V30 11011 N 1160.44 -4.52337 -3.33688 0
M  V30 11012 H 1152.59 -2.10184 -0.306021 0
M  V30 11013 H 1154.86 -0.927058 -0.198159 0
M  V30 11014 H 1154.56 -3.26666 -1.30316 0
M  V30 11015 H 1154.44 -2.46219 -2.85755 0
M  V30 11016 H 1156.82 -1.52787 -2.52468 0
M  V30 11017 H 1156.9 -2.3673 -0.969164 0
M  V30 11018 H 1156.55 -4.58963 -2.1752 0
M  V30 11019 H 1156.48 -3.71922 -3.72803 0
M  V30 11020 H 1158.97 -2.93944 -2.37498 0
M  V30 11021 H 1159.28 -6.38438 -4.3545 0
M  V30 11022 H 1157.63 -5.73773 -3.92186 0
M  V30 11023 H 1160.82 -3.69341 -2.87584 0
M  V30 11024 H 1160.99 -5.2642 -3.77871 0
M  V30 11025 N 1154.4 1.08748 -1.14068 0
M  V30 11026 C 1155.34 2.17667 -0.819981 0
M  V30 11027 C 1156.34 1.68207 0.200654 0
M  V30 11028 O 1157.54 1.79909 0.0571014 0
M  V30 11029 H 1153.92 0.710129 -0.247427 0
M  V30 11030 H 1155.89 2.41944 -1.74659 0
M  V30 11031 C 1154.64 3.46315 -0.309985 0
M  V30 11032 H 1153.96 3.84748 -1.08669 0
M  V30 11033 H 1155.4 4.23818 -0.124094 0
M  V30 11034 C 1153.86 3.22762 0.965724 0
M  V30 11035 O 1154.39 3.46034 2.04018 0
M  V30 11036 N 1152.6 2.76326 0.899576 0
M  V30 11037 H 1152.14 2.57588 0.0250598 0
M  V30 11038 H 1152.1 2.60945 1.75371 0
M  V30 11039 N 1155.87 0.935264 1.26849 0
M  V30 11040 C 1156.8 0.457776 2.28969 0
M  V30 11041 C 1157.79 -0.48587 1.63013 0
M  V30 11042 O 1158.97 -0.388998 1.90264 0
M  V30 11043 C 1156.1 -0.283332 3.46142 0
M  V30 11044 C 1155.05 0.573196 4.24144 0
M  V30 11045 C 1154.38 -0.297525 5.33872 0
M  V30 11046 C 1155.68 1.84153 4.88759 0
M  V30 11047 H 1157.37 1.31125 2.69159 0
M  V30 11048 H 1154.92 0.631956 1.29392 0
M  V30 11049 H 1156.87 -0.628366 4.16689 0
M  V30 11050 H 1155.6 -1.1709 3.04889 0
M  V30 11051 H 1154.26 0.901043 3.55354 0
M  V30 11052 H 1153.9 -1.18427 4.8886 0
M  V30 11053 H 1153.6 0.272126 5.8697 0
M  V30 11054 H 1155.13 -0.637961 6.07258 0
M  V30 11055 H 1156.54 1.5641 5.51551 0
M  V30 11056 H 1154.94 2.35528 5.51948 0
M  V30 11057 H 1156.01 2.5565 4.12033 0
M  V30 11058 N 1157.35 -1.41121 0.701616 0
M  V30 11059 C 1158.32 -2.29148 0.0490091 0
M  V30 11060 C 1159.32 -1.44679 -0.701763 0
M  V30 11061 O 1160.51 -1.65757 -0.53575 0
M  V30 11062 C 1157.64 -3.2766 -0.940837 0
M  V30 11063 H 1158.83 -2.88354 0.824133 0
M  V30 11064 H 1156.38 -1.49209 0.465457 0
M  V30 11065 H 1157.12 -2.73445 -1.74351 0
M  V30 11066 H 1156.9 -3.89997 -0.405551 0
M  V30 11067 H 1158.39 -3.93609 -1.39507 0
M  V30 11068 N 1158.83 -0.446794 -1.51134 0
M  V30 11069 C 1160.08 0.116263 -2.01765 0
M  V30 11070 C 1160.4 1.42382 -1.33238 0
M  V30 11071 O 1159.67 1.9018 -0.469915 0
M  V30 11072 H 1158.25 0.0459558 -0.745585 0
M  V30 11073 H 1160.91 -0.591664 -1.85702 0
M  V30 11074 H 1160.01 0.285358 -3.10793 0
M  V30 11075 N 1160.31 1.56586 -0.178487 0
M  V30 11076 C 1161.53 2.01915 0.473841 0
M  V30 11077 C 1161.96 1.05789 1.55533 0
M  V30 11078 O 1161.32 0.0386018 1.81259 0
M  V30 11079 C 1161.36 3.45799 1.02251 0
M  V30 11080 O 1160.47 3.52761 2.1362 0
M  V30 11081 H 1159.81 0.654372 0.112666 0
M  V30 11082 H 1162.34 2.02613 -0.284486 0
M  V30 11083 H 1162.35 3.85252 1.34332 0
M  V30 11084 H 1161.02 4.1526 0.230719 0
M  V30 11085 H 1159.6 3.25172 1.8253 0
M  V30 11086 N 1161.79 -0.095206 1.57312 0
M  V30 11087 C 1163.02 -0.811092 1.90013 0
M  V30 11088 C 1163.42 -1.72807 0.770359 0
M  V30 11089 O 1162.77 -1.81755 -0.266615 0
M  V30 11090 C 1162.83 -1.67744 3.17966 0
M  V30 11091 C 1162.49 -0.932301 4.47389 0
M  V30 11092 C 1163.49 -0.262161 5.19239 0
M  V30 11093 C 1161.18 -0.906414 4.94054 0
M  V30 11094 C 1163.17 0.423898 6.35989 0
M  V30 11095 C 1160.86 -0.216569 6.10716 0
M  V30 11096 C 1161.85 0.447408 6.81533 0
M  V30 11097 O 1161.54 1.12619 7.95972 0
M  V30 11098 H 1161.27 -0.237154 0.633035 0
M  V30 11099 H 1163.83 -0.0768976 2.05256 0
M  V30 11100 H 1162.06 -2.45387 2.98868 0
M  V30 11101 H 1163.75 -2.26988 3.36498 0
M  V30 11102 H 1164.51 -0.273621 4.84228 0
M  V30 11103 H 1160.39 -1.41267 4.38822 0
M  V30 11104 H 1163.94 0.942727 6.91201 0
M  V30 11105 H 1159.83 -0.202955 6.45181 0
M  V30 11106 H 1160.6 1.03308 8.11954 0
M  V30 11107 N 1163.26 -1.53291 -0.366026 0
M  V30 11108 C 1164.49 -1.73359 -1.12934 0
M  V30 11109 C 1164.91 -0.462352 -1.83051 0
M  V30 11110 O 1164.26 0.564711 -1.73543 0
M  V30 11111 C 1164.32 -2.89873 -2.15999 0
M  V30 11112 O 1164.04 -4.12079 -1.48737 0
M  V30 11113 C 1165.54 -3.21811 -3.04881 0
M  V30 11114 H 1162.76 -0.579827 -0.337701 0
M  V30 11115 H 1165.3 -2.00033 -0.425081 0
M  V30 11116 H 1163.46 -2.65595 -2.82025 0
M  V30 11117 H 1163.87 -4.77322 -2.17404 0
M  V30 11118 H 1165.34 -4.06744 -3.7318 0
M  V30 11119 H 1165.82 -2.37156 -3.69667 0
M  V30 11120 H 1166.43 -3.48013 -2.44473 0
M  V30 11121 N 1164.74 0.6258 -1.44643 0
M  V30 11122 C 1165.98 1.39676 -1.49232 0
M  V30 11123 C 1166.35 1.91601 -0.123682 0
M  V30 11124 O 1167.55 2.68764 -0.0442486 0
M  V30 11125 C 1165.82 2.52704 -2.52736 0
M  V30 11126 S 1167.38 3.40795 -2.76413 0
M  V30 11127 H 1164.2 0.476436 -0.527759 0
M  V30 11128 H 1166.8 0.72394 -1.81602 0
M  V30 11129 H 1165.5 2.12876 -3.50873 0
M  V30 11130 H 1165.03 3.24806 -2.21956 0
M  V30 11131 H 1167.05 4.5031 -2.08412 0
M  V30 11132 N 1166.22 1.31629 0.866686 0
M  V30 11133 C 1167.17 1.19556 1.97421 0
M  V30 11134 C 1168.14 0.0805578 1.65905 0
M  V30 11135 O 1169.32 0.253997 1.89102 0
M  V30 11136 C 1166.46 0.912234 3.32825 0
M  V30 11137 C 1165.58 2.11088 3.76916 0
M  V30 11138 C 1164.71 1.76406 5.01053 0
M  V30 11139 C 1163.75 2.9266 5.37602 0
M  V30 11140 N 1162.89 2.58152 6.52918 0
M  V30 11141 H 1167.73 2.14294 2.0708 0
M  V30 11142 H 1165.26 1.06595 1.0137 0
M  V30 11143 H 1167.22 0.72851 4.1079 0
M  V30 11144 H 1165.85 0.00167404 3.228 0
M  V30 11145 H 1164.9 2.40527 2.94705 0
M  V30 11146 H 1166.22 2.98089 3.99931 0
M  V30 11147 H 1165.37 1.54515 5.86694 0
M  V30 11148 H 1164.11 0.866018 4.79949 0
M  V30 11149 H 1163.11 3.15196 4.50479 0
M  V30 11150 H 1164.34 3.83179 5.6067 0
M  V30 11151 H 1162.28 1.70874 6.33355 0
M  V30 11152 H 1162.2 3.38682 6.75892 0
M  V30 11153 H 1163.47 2.39662 7.41743 0
M  V30 11154 N 1167.7 -1.08142 1.14644 0
M  V30 11155 C 1168.94 -1.82183 0.926747 0
M  V30 11156 C 1169.3 -1.8434 -0.53692 0
M  V30 11157 O 1170.5 -2.54172 -0.874651 0
M  V30 11158 C 1168.78 -3.23726 1.51446 0
M  V30 11159 S 1170.33 -4.14612 1.43673 0
M  V30 11160 H 1167.15 -0.627815 0.333721 0
M  V30 11161 H 1169.75 -1.29968 1.46043 0
M  V30 11162 H 1168.46 -3.19741 2.57282 0
M  V30 11163 H 1167.99 -3.81016 0.979289 0
M  V30 11164 H 1170 -4.94384 0.424105 0
M  V30 11165 N 1169.18 -0.941978 -1.26351 0
M  V30 11166 C 1170.43 -0.588806 -1.93333 0
M  V30 11167 C 1170.75 0.875067 -1.74263 0
M  V30 11168 O 1170.02 1.62187 -1.09873 0
M  V30 11169 H 1168.6 -0.214774 -0.715459 0
M  V30 11170 H 1171.26 -1.19747 -1.53774 0
M  V30 11171 H 1170.35 -0.807267 -3.01479 0
M  V30 11172 N 1170.66 1.40747 -0.709091 0
M  V30 11173 C 1172.07 1.83955 -0.318968 0
M  V30 11174 C 1172.42 1.59304 1.14527 0
M  V30 11175 O 1171.54 1.07052 1.88066 0
M  V30 11176 C 1172.14 3.33934 -0.572147 0
M  V30 11177 C 1170.7 3.75661 -0.235802 0
M  V30 11178 C 1169.84 2.64024 -0.847743 0
M  V30 11179 H 1172.79 1.30107 -0.908734 0
M  V30 11180 H 1172.82 3.80143 0.164752 0
M  V30 11181 H 1172.33 3.51844 -1.63791 0
M  V30 11182 H 1170.43 3.63348 0.825164 0
M  V30 11183 H 1170.54 4.73955 -0.700263 0
M  V30 11184 H 1168.91 2.53197 -0.276283 0
M  V30 11185 H 1169.69 2.84748 -1.91765 0
M  V30 11186 N 1172.13 0.454803 1.50895 0
M  V30 11187 C 1173.38 -0.105562 2.01824 0
M  V30 11188 C 1173.7 -1.41673 1.33992 0
M  V30 11189 O 1172.97 -1.89929 0.479994 0
M  V30 11190 H 1171.55 -0.0420011 0.745818 0
M  V30 11191 H 1174.21 0.601504 1.85386 0
M  V30 11192 H 1173.31 -0.268872 3.1094 0
M  V30 11193 N 1173.61 -1.56489 0.186789 0
M  V30 11194 C 1174.84 -2.02163 -0.463126 0
M  V30 11195 C 1175.26 -1.06612 -1.54969 0
M  V30 11196 O 1174.62 -0.0482139 -1.81236 0
M  V30 11197 C 1174.67 -3.46337 -1.00416 0
M  V30 11198 O 1173.77 -3.53889 -2.11747 0
M  V30 11199 H 1173.11 -0.65496 -0.109194 0
M  V30 11200 H 1175.64 -2.02459 0.295227 0
M  V30 11201 H 1175.65 -3.85959 -1.32287 0
M  V30 11202 H 1174.33 -4.15376 -0.208693 0
M  V30 11203 H 1172.9 -3.26136 -1.80803 0
M  V30 11204 N 1175.09 0.086862 -1.5736 0
M  V30 11205 C 1176.51 0.441284 -1.53378 0
M  V30 11206 C 1176.71 1.80046 -0.904748 0
M  V30 11207 O 1175.76 2.47484 -0.500781 0
M  V30 11208 C 1177.07 0.3962 -2.98078 0
M  V30 11209 C 1178.62 0.477468 -3.09337 0
M  V30 11210 C 1179.1 0.462448 -4.55659 0
M  V30 11211 N 1180.59 0.522963 -4.60238 0
M  V30 11212 C 1181.32 0.533313 -5.70914 0
M  V30 11213 N 1180.82 0.499376 -6.90998 0
M  V30 11214 N 1182.61 0.578742 -5.59113 0
M  V30 11215 H 1174.76 -0.803308 -1.96623 0
M  V30 11216 H 1177.03 -0.299879 -0.89932 0
M  V30 11217 H 1176.73 -0.535505 -3.47599 0
M  V30 11218 H 1176.61 1.21209 -3.57195 0
M  V30 11219 H 1178.99 1.39959 -2.59799 0
M  V30 11220 H 1179.07 -0.366717 -2.53158 0
M  V30 11221 H 1178.72 -0.455768 -5.05851 0
M  V30 11222 H 1178.65 1.32396 -5.09685 0
M  V30 11223 H 1181.14 0.554051 -3.73816 0
M  V30 11224 H 1181.45 0.510784 -7.7111 0
M  V30 11225 H 1179.8 0.466296 -6.93434 0
M  V30 11226 H 1182.99 0.602841 -4.64202 0
M  V30 11227 H 1183.16 0.583339 -6.45369 0
M  V30 11228 N 1176.57 1.53483 0.357892 0
M  V30 11229 C 1177.5 1.83444 1.44466 0
M  V30 11230 C 1178.48 0.688486 1.55544 0
M  V30 11231 O 1179.66 0.93906 1.69986 0
M  V30 11232 C 1176.79 2.03122 2.81707 0
M  V30 11233 C 1175.75 3.1891 2.85448 0
M  V30 11234 C 1175.07 3.23895 4.25436 0
M  V30 11235 C 1176.37 4.57334 2.52275 0
M  V30 11236 H 1178.07 2.74456 1.19642 0
M  V30 11237 H 1175.61 1.3206 0.574112 0
M  V30 11238 H 1177.57 2.22666 3.57768 0
M  V30 11239 H 1176.29 1.08827 3.07935 0
M  V30 11240 H 1174.95 2.99199 2.11838 0
M  V30 11241 H 1174.6 2.27223 4.48753 0
M  V30 11242 H 1174.3 4.01694 4.28854 0
M  V30 11243 H 1175.82 3.45632 5.0336 0
M  V30 11244 H 1177.24 4.76988 3.1805 0
M  V30 11245 H 1175.63 5.37431 2.66998 0
M  V30 11246 H 1176.7 4.61921 1.47501 0
M  V30 11247 N 1178.05 -0.61812 1.44973 0
M  V30 11248 C 1179.32 -1.37705 1.38913 0
M  V30 11249 C 1179.7 -2.1103 0.054385 0
M  V30 11250 O 1179.05 -2.07197 -0.963409 0
M  V30 11251 C 1179.26 -2.33265 2.59593 0
M  V30 11252 C 1180.61 -2.96197 3.04224 0
M  V30 11253 O 1181.63 -2.43589 2.59891 0
M  V30 11254 O 1180.49 -3.91666 3.8113 0
M  V30 11255 H 1177.59 -0.61694 0.55074 0
M  V30 11256 H 1180.13 -0.642088 1.57084 0
M  V30 11257 H 1178.9 -1.78271 3.48332 0
M  V30 11258 H 1178.53 -3.14158 2.43702 0
M  V30 11259 N 1179.52 -1.32087 -0.859693 0
M  V30 11260 C 1180.93 -1.20107 -1.42938 0
M  V30 11261 C 1181.29 0.188411 -1.95293 0
M  V30 11262 O 1180.41 1.08683 -1.87128 0
M  V30 11263 C 1181.01 -2.17436 -2.59821 0
M  V30 11264 C 1179.56 -2.09359 -3.12803 0
M  V30 11265 C 1178.71 -2.06086 -1.85537 0
M  V30 11266 H 1181.66 -1.43989 -0.667302 0
M  V30 11267 H 1181.68 -1.76996 -3.36828 0
M  V30 11268 H 1181.2 -3.18555 -2.21685 0
M  V30 11269 H 1179.3 -1.1147 -3.55535 0
M  V30 11270 H 1179.41 -2.98947 -3.74389 0
M  V30 11271 H 1177.77 -1.51251 -2.04928 0
M  V30 11272 H 1178.56 -3.08978 -1.49625 0
M  V30 11273 N 1181 1.07532 -1.15215 0
M  V30 11274 C 1182.23 1.84356 -0.950139 0
M  V30 11275 C 1182.65 1.81429 0.496502 0
M  V30 11276 O 1182.01 1.20589 1.35381 0
M  V30 11277 C 1182.06 3.29425 -1.46669 0
M  V30 11278 O 1181.16 4.07008 -0.664674 0
M  V30 11279 H 1180.5 0.570921 -0.339036 0
M  V30 11280 H 1183.03 1.35665 -1.53154 0
M  V30 11281 H 1183.04 3.8026 -1.47873 0
M  V30 11282 H 1181.72 3.3087 -2.51988 0
M  V30 11283 H 1180.29 3.65841 -0.72211 0
M  V30 11284 N 1182.48 0.948665 1.2585 0
M  V30 11285 C 1183.73 0.59905 1.93018 0
M  V30 11286 C 1184.05 -0.865813 1.74725 0
M  V30 11287 O 1183.32 -1.61602 1.10732 0
M  V30 11288 H 1181.9 0.218565 0.71431 0
M  V30 11289 H 1184.56 1.20561 1.53137 0
M  V30 11290 H 1183.66 0.823244 3.01047 0
M  V30 11291 N 1183.96 -1.40369 0.716545 0
M  V30 11292 C 1185.19 -2.05181 0.266143 0
M  V30 11293 C 1185.6 -1.53988 -1.09239 0
M  V30 11294 O 1184.96 -0.696859 -1.68672 0
M  V30 11295 C 1185.01 -3.60713 0.238384 0
M  V30 11296 O 1184.73 -4.10018 1.54328 0
M  V30 11297 C 1186.23 -4.42701 -0.230453 0
M  V30 11298 H 1183.45 -0.66028 0.119463 0
M  V30 11299 H 1186 -1.7976 0.97502 0
M  V30 11300 H 1184.15 -3.85101 -0.421466 0
M  V30 11301 H 1184.56 -5.0422 1.4444 0
M  V30 11302 H 1186.04 -5.51642 -0.198728 0
M  V30 11303 H 1186.52 -4.20354 -1.27276 0
M  V30 11304 H 1187.12 -4.23423 0.399155 0
M  V30 11305 N 1185.44 -0.462799 -1.50652 0
M  V30 11306 C 1186.68 0.0950445 -2.02277 0
M  V30 11307 C 1187.01 1.40465 -1.34536 0
M  V30 11308 O 1186.27 1.90283 -0.457279 0
M  V30 11309 C 1186.57 0.335294 -3.55824 0
M  V30 11310 C 1186.23 -0.891589 -4.41997 0
M  V30 11311 C 1184.89 -1.22799 -4.65268 0
M  V30 11312 C 1187.25 -1.70885 -4.9239 0
M  V30 11313 C 1184.57 -2.38186 -5.36175 0
M  V30 11314 C 1186.93 -2.85394 -5.64564 0
M  V30 11315 C 1185.59 -3.19458 -5.86091 0
M  V30 11316 H 1184.86 0.0347793 -0.740183 0
M  V30 11317 H 1187.51 -0.61519 -1.8135 0
M  V30 11318 H 1185.81 1.12769 -3.7522 0
M  V30 11319 H 1187.51 0.780752 -3.93326 0
M  V30 11320 H 1184.1 -0.619495 -4.24099 0
M  V30 11321 H 1188.28 -1.46215 -4.74273 0
M  V30 11322 H 1183.54 -2.64862 -5.51052 0
M  V30 11323 H 1187.71 -3.49073 -6.02595 0
M  V30 11324 H 1185.34 -4.08978 -6.40813 0
M  V30 11325 N 1186.91 1.56388 -0.195085 0
M  V30 11326 C 1188.15 1.99478 0.445855 0
M  V30 11327 C 1188.52 1.0792 1.588 0
M  V30 11328 O 1189.72 1.40246 2.29313 0
M  V30 11329 C 1187.99 3.46032 0.894248 0
M  V30 11330 S 1189.55 4.11149 1.53303 0
M  V30 11331 H 1186.37 0.696558 0.142575 0
M  V30 11332 H 1188.97 1.93213 -0.298149 0
M  V30 11333 H 1187.67 4.10366 0.0529258 0
M  V30 11334 H 1187.2 3.56114 1.67172 0
M  V30 11335 H 1189.22 4.08155 2.82177 0
M  V30 11336 N 1188.39 -0.0785156 1.57404 0
M  V30 11337 C 1189.32 -1.09446 2.06262 0
M  V30 11338 C 1190.3 -1.40777 0.954772 0
M  V30 11339 O 1191.49 -1.5052 1.22708 0
M  V30 11340 C 1188.62 -2.40979 2.50093 0
M  V30 11341 C 1187.57 -2.24017 3.64692 0
M  V30 11342 C 1186.9 -3.60873 3.94556 0
M  V30 11343 C 1188.2 -1.66696 4.94985 0
M  V30 11344 H 1189.89 -0.687928 2.9139 0
M  V30 11345 H 1187.44 -0.329466 1.4018 0
M  V30 11346 H 1189.39 -3.12337 2.82884 0
M  V30 11347 H 1188.12 -2.83599 1.61985 0
M  V30 11348 H 1186.77 -1.55101 3.32174 0
M  V30 11349 H 1186.42 -4.01051 3.0359 0
M  V30 11350 H 1186.12 -3.50365 4.71718 0
M  V30 11351 H 1187.65 -4.33673 4.29837 0
M  V30 11352 H 1189.06 -2.27913 5.2605 0
M  V30 11353 H 1187.46 -1.66902 5.76423 0
M  V30 11354 H 1188.53 -0.627827 4.80818 0
M  V30 11355 N 1189.87 -1.5367 -0.349747 0
M  V30 11356 C 1191.15 -1.61238 -1.10732 0
M  V30 11357 C 1191.53 -0.429756 -2.06679 0
M  V30 11358 O 1190.88 0.578564 -2.21054 0
M  V30 11359 C 1191.09 -2.97022 -1.83245 0
M  V30 11360 C 1192.43 -3.52158 -2.37212 0
M  V30 11361 O 1193.46 -2.99156 -1.9335 0
M  V30 11362 O 1192.32 -4.44853 -3.1744 0
M  V30 11363 H 1189.41 -0.65191 -0.508864 0
M  V30 11364 H 1191.96 -1.66015 -0.351738 0
M  V30 11365 H 1190.73 -3.74535 -1.13311 0
M  V30 11366 H 1190.35 -2.95808 -2.65675 0
M  V30 11367 N 1191.35 0.610423 -1.45298 0
M  V30 11368 C 1192.57 1.40112 -1.52917 0
M  V30 11369 C 1193 1.87404 -0.161696 0
M  V30 11370 O 1192.36 1.59973 0.853135 0
M  V30 11371 C 1192.4 2.58359 -2.51561 0
M  V30 11372 O 1191.51 3.58895 -2.03146 0
M  V30 11373 H 1190.85 0.41841 -0.515586 0
M  V30 11374 H 1193.38 0.743159 -1.90626 0
M  V30 11375 H 1193.39 3.0564 -2.70275 0
M  V30 11376 H 1192.06 2.23286 -3.50879 0
M  V30 11377 H 1190.64 3.18282 -1.94296 0
M  V30 11378 N 1192.83 1.32541 0.852676 0
M  V30 11379 C 1194.05 1.2622 1.6394 0
M  V30 11380 C 1194.47 -0.169455 1.88038 0
M  V30 11381 O 1193.83 -1.10719 1.45078 0
M  V30 11382 C 1193.88 2.02062 2.99755 0
M  V30 11383 O 1193.6 3.39641 2.76723 0
M  V30 11384 C 1195.1 2.02787 3.94198 0
M  V30 11385 H 1192.32 0.435405 0.510552 0
M  V30 11386 H 1194.86 1.74696 1.06309 0
M  V30 11387 H 1193.02 1.57303 3.54026 0
M  V30 11388 H 1193.43 3.78484 3.63111 0
M  V30 11389 H 1194.91 2.60333 4.86755 0
M  V30 11390 H 1195.38 1.01464 4.27319 0
M  V30 11391 H 1195.99 2.47504 3.45864 0
M  V30 11392 N 1194.3 -1.0692 1.15784 0
M  V30 11393 C 1195.25 -2.14235 0.858616 0
M  V30 11394 C 1196.22 -1.65006 -0.190295 0
M  V30 11395 O 1197.41 -1.90715 -0.0568853 0
M  V30 11396 C 1194.55 -3.43229 0.35888 0
M  V30 11397 C 1193.66 -4.06225 1.46987 0
M  V30 11398 C 1192.79 -5.2307 0.925812 0
M  V30 11399 C 1191.83 -5.78037 2.01345 0
M  V30 11400 N 1190.97 -6.86206 1.48544 0
M  V30 11401 H 1195.81 -2.3917 1.77769 0
M  V30 11402 H 1193.35 -1.17354 0.886925 0
M  V30 11403 H 1195.31 -4.17169 0.0508198 0
M  V30 11404 H 1193.94 -3.18531 -0.523259 0
M  V30 11405 H 1192.99 -3.29895 1.89403 0
M  V30 11406 H 1194.3 -4.43081 2.29088 0
M  V30 11407 H 1193.45 -6.04011 0.570555 0
M  V30 11408 H 1192.19 -4.87644 0.0740371 0
M  V30 11409 H 1191.2 -4.95738 2.37748 0
M  V30 11410 H 1192.42 -6.15517 2.86907 0
M  V30 11411 H 1190.37 -6.52711 0.656092 0
M  V30 11412 H 1190.29 -7.2197 2.24266 0
M  V30 11413 H 1191.55 -7.70842 1.15856 0
M  V30 11414 N 1195.78 -0.955326 -1.25345 0
M  V30 11415 C 1197.03 -0.609278 -1.92697 0
M  V30 11416 C 1197.35 0.856535 -1.75181 0
M  V30 11417 O 1196.62 1.61013 -1.11587 0
M  V30 11418 H 1195.2 -0.22235 -0.713141 0
M  V30 11419 H 1197.86 -1.21372 -1.52496 0
M  V30 11420 H 1196.96 -0.839198 -3.00606 0
M  V30 11421 N 1197.26 1.39987 -0.723979 0
M  V30 11422 C 1198.49 2.05037 -0.27702 0
M  V30 11423 C 1198.9 1.54565 1.08421 0
M  V30 11424 O 1198.26 0.705795 1.683 0
M  V30 11425 C 1198.31 3.60582 -0.25751 0
M  V30 11426 O 1198.03 4.09194 -1.565 0
M  V30 11427 C 1199.53 4.42817 0.206972 0
M  V30 11428 H 1196.75 0.659637 -0.122963 0
M  V30 11429 H 1199.3 1.7924 -0.98454 0
M  V30 11430 H 1197.45 3.85319 0.401037 0
M  V30 11431 H 1197.87 5.03447 -1.47112 0
M  V30 11432 H 1199.34 5.5174 0.16947 0
M  V30 11433 H 1199.82 4.21023 1.25045 0
M  V30 11434 H 1200.42 4.23205 -0.421604 0
M  V30 11435 N 1198.74 0.470782 1.50404 0
M  V30 11436 C 1199.98 -0.0830648 2.04231 0
M  V30 11437 C 1200.34 -1.37015 1.34503 0
M  V30 11438 O 1201.54 -2.00635 1.78883 0
M  V30 11439 C 1199.82 -0.262986 3.56431 0
M  V30 11440 S 1201.37 -0.775432 4.31894 0
M  V30 11441 H 1198.19 -0.0161025 0.710818 0
M  V30 11442 H 1200.79 0.63785 1.84802 0
M  V30 11443 H 1199.5 0.679558 4.04735 0
M  V30 11444 H 1199.03 -1.01002 3.80213 0
M  V30 11445 H 1201.04 -2.04887 4.51924 0
M  V30 11446 N 1200.22 -1.56282 0.203376 0
M  V30 11447 C 1201.46 -1.98864 -0.427176 0
M  V30 11448 C 1201.82 -1.08828 -1.58664 0
M  V30 11449 O 1201.11 -0.134399 -1.91128 0
M  V30 11450 C 1201.31 -3.45148 -0.927759 0
M  V30 11451 C 1201.13 -4.49333 0.18166 0
M  V30 11452 C 1199.9 -5.01204 0.642046 0
M  V30 11453 C 1202.1 -5.04612 0.993548 0
M  V30 11454 N 1200.08 -5.89066 1.72842 0
M  V30 11455 C 1201.46 -5.89223 1.92915 0
M  V30 11456 C 1203.51 -4.87023 1.03503 0
M  V30 11457 C 1202.21 -6.58125 2.90282 0
M  V30 11458 C 1204.24 -5.56671 1.99679 0
M  V30 11459 C 1203.6 -6.41035 2.91982 0
M  V30 11460 H 1199.7 -0.772186 -0.123501 0
M  V30 11461 H 1202.28 -1.92201 0.310974 0
M  V30 11462 H 1200.46 -3.52295 -1.63533 0
M  V30 11463 H 1202.19 -3.7468 -1.52961 0
M  V30 11464 H 1198.94 -4.73022 0.233895 0
M  V30 11465 H 1199.37 -6.377 2.27306 0
M  V30 11466 H 1204.01 -4.21468 0.335379 0
M  V30 11467 H 1201.73 -7.22874 3.61219 0
M  V30 11468 H 1205.31 -5.45034 2.0354 0
M  V30 11469 H 1204.19 -6.93979 3.65189 0
M  V30 11470 N 1201.7 0.070167 -1.57444 0
M  V30 11471 C 1202.63 1.08351 -2.06839 0
M  V30 11472 C 1203.61 1.40269 -0.962224 0
M  V30 11473 O 1204.79 1.49867 -1.23505 0
M  V30 11474 C 1201.92 2.39649 -2.51368 0
M  V30 11475 C 1200.88 2.22079 -3.65875 0
M  V30 11476 C 1200.2 3.58776 -3.96464 0
M  V30 11477 C 1201.5 1.64069 -4.95862 0
M  V30 11478 H 1203.2 0.672465 -2.9175 0
M  V30 11479 H 1200.74 0.322027 -1.40353 0
M  V30 11480 H 1202.69 3.10833 -2.84537 0
M  V30 11481 H 1201.42 2.82736 -1.63487 0
M  V30 11482 H 1200.08 1.53337 -3.32992 0
M  V30 11483 H 1199.73 3.99436 -3.05712 0
M  V30 11484 H 1199.43 3.47859 -4.7357 0
M  V30 11485 H 1200.95 4.31387 -4.32131 0
M  V30 11486 H 1202.36 2.2512 -5.27251 0
M  V30 11487 H 1200.76 1.63843 -5.773 0
M  V30 11488 H 1201.83 0.60232 -4.81145 0
M  V30 11489 N 1203.17 1.53854 0.341593 0
M  V30 11490 C 1204.12 1.81979 1.41959 0
M  V30 11491 C 1205.09 0.665616 1.5218 0
M  V30 11492 O 1206.28 0.910246 1.67688 0
M  V30 11493 C 1203.42 2.03681 2.78583 0
M  V30 11494 C 1202.53 3.31389 2.77137 0
M  V30 11495 C 1201.66 3.43148 4.05491 0
M  V30 11496 C 1200.7 4.64799 3.98282 0
M  V30 11497 N 1199.84 4.73581 5.18329 0
M  V30 11498 H 1204.68 2.73953 1.17275 0
M  V30 11499 H 1202.22 1.35689 0.568062 0
M  V30 11500 H 1204.17 2.14253 3.57983 0
M  V30 11501 H 1202.8 1.15017 3.01614 0
M  V30 11502 H 1201.86 3.29649 1.89832 0
M  V30 11503 H 1203.17 4.20885 2.67689 0
M  V30 11504 H 1202.32 3.53163 4.93316 0
M  V30 11505 H 1201.06 2.51712 4.17723 0
M  V30 11506 H 1200.07 4.54859 3.08842 0
M  V30 11507 H 1201.29 5.57601 3.87631 0
M  V30 11508 H 1199.24 3.85055 5.31102 0
M  V30 11509 H 1199.15 5.57016 5.11145 0
M  V30 11510 H 1200.42 4.87908 6.0792 0
M  V30 11511 N 1204.65 -0.602709 1.4562 0
M  V30 11512 C 1205.9 -1.35769 1.49163 0
M  V30 11513 C 1206.21 -1.95102 0.139485 0
M  V30 11514 O 1207.42 -2.71449 0.0525919 0
M  V30 11515 C 1205.88 -2.45959 2.62739 0
M  V30 11516 C 1205.48 -1.93017 4.04288 0
M  V30 11517 C 1207.23 -3.22926 2.75534 0
M  V30 11518 C 1205.13 -3.00718 5.09237 0
M  V30 11519 H 1204.06 -0.510317 0.555061 0
M  V30 11520 H 1206.72 -0.645434 1.71774 0
M  V30 11521 H 1205.1 -3.19892 2.3342 0
M  V30 11522 H 1206.27 -1.2576 4.43307 0
M  V30 11523 H 1204.59 -1.2878 3.95986 0
M  V30 11524 H 1207.18 -4.03267 3.51112 0
M  V30 11525 H 1207.53 -3.74243 1.82339 0
M  V30 11526 H 1208.06 -2.56095 3.04402 0
M  V30 11527 H 1204.8 -2.54312 6.04157 0
M  V30 11528 H 1204.32 -3.66526 4.74783 0
M  V30 11529 H 1206 -3.65016 5.34202 0
M  V30 11530 N 1206.13 -1.32992 -0.845635 0
M  V30 11531 C 1207.06 -1.18513 -1.96182 0
M  V30 11532 C 1208.07 -0.11781 -1.62373 0
M  V30 11533 O 1209.26 -0.36761 -1.74674 0
M  V30 11534 C 1206.36 -0.793812 -3.29472 0
M  V30 11535 C 1205.54 -1.95134 -3.91461 0
M  V30 11536 C 1204.6 -1.54209 -5.03096 0
M  V30 11537 O 1203.62 -2.25545 -5.22607 0
M  V30 11538 N 1204.82 -0.443235 -5.78805 0
M  V30 11539 H 1207.59 -2.14663 -2.09141 0
M  V30 11540 H 1205.15 -1.25648 -1.02099 0
M  V30 11541 H 1207.14 -0.502263 -4.01571 0
M  V30 11542 H 1205.71 0.0768031 -3.12506 0
M  V30 11543 H 1204.93 -2.40889 -3.12035 0
M  V30 11544 H 1206.22 -2.72604 -4.2961 0
M  V30 11545 H 1205.62 0.150298 -5.655 0
M  V30 11546 H 1204.17 -0.211331 -6.51457 0
M  V30 11547 N 1207.61 1.06304 -1.1635 0
M  V30 11548 C 1208.52 2.17296 -0.884289 0
M  V30 11549 C 1209.53 1.73408 0.143414 0
M  V30 11550 O 1210.71 2.01373 -0.0331987 0
M  V30 11551 C 1207.77 3.44509 -0.389163 0
M  V30 11552 C 1206.84 4.02906 -1.48208 0
M  V30 11553 C 1206.07 5.24047 -1.01048 0
M  V30 11554 O 1206.29 5.70229 0.139821 0
M  V30 11555 O 1205.23 5.74394 -1.79876 0
M  V30 11556 H 1209.05 2.4369 -1.81243 0
M  V30 11557 H 1206.64 1.15841 -0.943459 0
M  V30 11558 H 1208.52 4.21229 -0.120018 0
M  V30 11559 H 1207.19 3.19642 0.510968 0
M  V30 11560 H 1206.1 3.27677 -1.80496 0
M  V30 11561 H 1207.43 4.32068 -2.35751 0
M  V30 11562 N 1209.09 0.96196 1.24836 0
M  V30 11563 C 1210.31 0.637709 1.97353 0
M  V30 11564 C 1210.74 -0.784919 1.7094 0
M  V30 11565 O 1210.09 -1.53188 0.969694 0
M  V30 11566 C 1210.14 0.911485 3.4889 0
M  V30 11567 O 1209.25 -0.00601668 4.124 0
M  V30 11568 H 1208.59 0.241685 0.618453 0
M  V30 11569 H 1211.12 1.29055 1.58764 0
M  V30 11570 H 1211.13 0.840702 3.99245 0
M  V30 11571 H 1209.8 1.9483 3.67442 0
M  V30 11572 H 1208.38 0.117597 3.72715 0
M  V30 11573 N 1210.56 -1.39601 0.731392 0
M  V30 11574 C 1211.98 -1.54334 0.406594 0
M  V30 11575 C 1212.18 -1.69925 -1.08295 0
M  V30 11576 O 1211.24 -1.69771 -1.86906 0
M  V30 11577 C 1212.55 -2.76303 1.18647 0
M  V30 11578 C 1214.1 -2.90135 1.17433 0
M  V30 11579 C 1214.57 -4.15038 1.93669 0
M  V30 11580 N 1216.06 -4.2207 1.90817 0
M  V30 11581 C 1216.8 -5.17656 2.46616 0
M  V30 11582 N 1216.29 -6.19054 3.11037 0
M  V30 11583 N 1218.09 -5.09847 2.3667 0
M  V30 11584 H 1210.24 -1.27728 1.69703 0
M  V30 11585 H 1212.5 -0.6188 0.718186 0
M  V30 11586 H 1212.21 -2.71113 2.24032 0
M  V30 11587 H 1212.08 -3.68866 0.788514 0
M  V30 11588 H 1214.47 -2.9482 0.128615 0
M  V30 11589 H 1214.55 -1.98646 1.61163 0
M  V30 11590 H 1214.19 -4.11115 2.9824 0
M  V30 11591 H 1214.12 -5.05565 1.47349 0
M  V30 11592 H 1216.61 -3.49437 1.43882 0
M  V30 11593 H 1216.93 -6.88444 3.51091 0
M  V30 11594 H 1215.27 -6.19452 3.15126 0
M  V30 11595 H 1218.46 -4.29566 1.85987 0
M  V30 11596 H 1218.64 -5.84165 2.80455 0
M  V30 11597 N 1212.04 -0.478751 -1.50152 0
M  V30 11598 C 1213.28 0.0722328 -2.04272 0
M  V30 11599 C 1213.65 1.36299 -1.35227 0
M  V30 11600 O 1214.85 1.99683 -1.79945 0
M  V30 11601 C 1213.12 0.24408 -3.56566 0
M  V30 11602 S 1214.68 0.752517 -4.32299 0
M  V30 11603 H 1211.5 0.0123326 -0.710893 0
M  V30 11604 H 1214.1 -0.647641 -1.84461 0
M  V30 11605 H 1212.8 -0.701012 -4.04369 0
M  V30 11606 H 1212.33 0.989845 -3.80744 0
M  V30 11607 H 1214.35 2.02488 -4.53005 0
M  V30 11608 N 1213.52 1.56172 -0.211661 0
M  V30 11609 C 1214.43 2.23468 0.714081 0
M  V30 11610 C 1215.45 1.23908 1.22159 0
M  V30 11611 O 1216.62 1.56693 1.26528 0
M  V30 11612 C 1213.69 2.89375 1.90953 0
M  V30 11613 C 1212.75 4.04251 1.44497 0
M  V30 11614 C 1211.98 4.67006 2.58343 0
M  V30 11615 O 1212.2 4.28721 3.76237 0
M  V30 11616 O 1211.14 5.56177 2.3011 0
M  V30 11617 H 1214.96 3.03219 0.170862 0
M  V30 11618 H 1212.55 1.49389 0.0183607 0
M  V30 11619 H 1214.43 3.3101 2.60787 0
M  V30 11620 H 1213.11 2.12591 2.44104 0
M  V30 11621 H 1212.01 3.67205 0.714932 0
M  V30 11622 H 1213.35 4.82748 0.959947 0
M  V30 11623 N 1215 -0.0618163 1.57479 0
M  V30 11624 C 1216.24 -0.760193 1.88013 0
M  V30 11625 C 1216.58 -1.76718 0.805258 0
M  V30 11626 O 1215.85 -1.93633 -0.183408 0
M  V30 11627 C 1216.14 -1.45924 3.29208 0
M  V30 11628 C 1215.99 -0.467994 4.47359 0
M  V30 11629 C 1217.31 -2.40166 3.68793 0
M  V30 11630 H 1214.43 -0.274896 0.683814 0
M  V30 11631 H 1217.07 -0.0232433 1.89986 0
M  V30 11632 H 1215.22 -2.08741 3.27657 0
M  V30 11633 H 1216.89 0.155735 4.61037 0
M  V30 11634 H 1215.13 0.215797 4.33263 0
M  V30 11635 H 1215.8 -0.994942 5.42959 0
M  V30 11636 H 1218.28 -1.87419 3.71501 0
M  V30 11637 H 1217.16 -2.86076 4.68457 0
M  V30 11638 H 1217.42 -3.25413 2.99264 0
M  V30 11639 N 1216.48 -1.54033 -0.333429 0
M  V30 11640 C 1217.42 -1.83441 -1.43011 0
M  V30 11641 C 1218.42 -0.705592 -1.54006 0
M  V30 11642 O 1219.62 -0.889098 -1.56509 0
M  V30 11643 H 1216 -0.581326 -0.477037 0
M  V30 11644 H 1217.97 -2.75172 -1.15426 0
M  V30 11645 C 1216.72 -2.0698 -2.79382 0
M  V30 11646 H 1216.04 -2.93297 -2.71692 0
M  V30 11647 H 1217.48 -2.31517 -3.55212 0
M  V30 11648 C 1215.94 -0.85835 -3.25782 0
M  V30 11649 O 1216.47 -0.062739 -4.01651 0
M  V30 11650 N 1214.68 -0.672738 -2.82706 0
M  V30 11651 H 1214.22 -1.32136 -2.21128 0
M  V30 11652 H 1214.18 0.136347 -3.14104 0
M  V30 11653 N 1217.95 0.594978 -1.45938 0
M  V30 11654 C 1218.88 1.71536 -1.58422 0
M  V30 11655 C 1219.87 1.64441 -0.435116 0
M  V30 11656 O 1221.05 1.82647 -0.659839 0
M  V30 11657 C 1218.18 3.10163 -1.56257 0
M  V30 11658 C 1217.13 3.3208 -2.70013 0
M  V30 11659 C 1216.46 4.71108 -2.52905 0
M  V30 11660 C 1217.76 3.21105 -4.11933 0
M  V30 11661 H 1219.45 1.61344 -2.52207 0
M  V30 11662 H 1217 0.774791 -1.2138 0
M  V30 11663 H 1218.95 3.88352 -1.63587 0
M  V30 11664 H 1217.68 3.21225 -0.590093 0
M  V30 11665 H 1216.34 2.56286 -2.62132 0
M  V30 11666 H 1215.98 4.7892 -1.53768 0
M  V30 11667 H 1215.68 4.86727 -3.29197 0
M  V30 11668 H 1217.21 5.51482 -2.62107 0
M  V30 11669 H 1218.62 3.89153 -4.2099 0
M  V30 11670 H 1217.02 3.4825 -4.88715 0
M  V30 11671 H 1218.09 2.18359 -4.32952 0
M  V30 11672 N 1219.43 1.33438 0.838571 0
M  V30 11673 C 1220.36 1.19552 1.9555 0
M  V30 11674 C 1221.38 0.12642 1.62308 0
M  V30 11675 O 1222.57 0.376868 1.74476 0
M  V30 11676 C 1219.67 0.811273 3.29046 0
M  V30 11677 C 1218.84 1.97207 3.9042 0
M  V30 11678 C 1217.9 1.56875 5.02271 0
M  V30 11679 O 1216.92 2.28314 5.21403 0
M  V30 11680 N 1218.13 0.473924 5.78562 0
M  V30 11681 H 1220.89 2.15769 2.07999 0
M  V30 11682 H 1218.45 1.26187 1.01432 0
M  V30 11683 H 1220.44 0.523553 4.01299 0
M  V30 11684 H 1219.01 -0.0602291 3.12542 0
M  V30 11685 H 1218.23 2.4254 3.10754 0
M  V30 11686 H 1219.52 2.74878 4.28158 0
M  V30 11687 H 1218.92 -0.120306 5.65572 0
M  V30 11688 H 1217.48 0.245877 6.51336 0
M  V30 11689 N 1220.91 -1.05686 1.16912 0
M  V30 11690 C 1222.16 -1.78244 0.95254 0
M  V30 11691 C 1222.48 -1.87924 -0.520525 0
M  V30 11692 O 1221.75 -1.39239 -1.37802 0
M  V30 11693 H 1220.33 -0.660228 0.349439 0
M  V30 11694 H 1222.99 -1.27634 1.47294 0
M  V30 11695 H 1222.09 -2.80102 1.37657 0
M  V30 11696 N 1222.39 -0.968567 -1.24324 0
M  V30 11697 C 1223.35 -0.504307 -2.23583 0
M  V30 11698 C 1224.35 0.399626 -1.55755 0
M  V30 11699 O 1225.54 0.194966 -1.73106 0
M  V30 11700 C 1222.67 0.26956 -3.39833 0
M  V30 11701 H 1223.87 -1.3818 -2.6617 0
M  V30 11702 H 1221.42 -0.753241 -1.36952 0
M  V30 11703 H 1222.15 1.16411 -3.02686 0
M  V30 11704 H 1221.94 -0.379133 -3.90263 0
M  V30 11705 H 1223.43 0.583376 -4.13505 0
M  V30 11706 N 1223.87 1.39211 -0.738786 0
M  V30 11707 C 1225.09 2.05256 -0.297421 0
M  V30 11708 C 1225.52 1.55341 1.06069 0
M  V30 11709 O 1224.87 0.698823 1.67291 0
M  V30 11710 C 1224.92 3.59239 -0.312969 0
M  V30 11711 O 1224.03 4.06448 0.698112 0
M  V30 11712 H 1223.37 0.650245 -0.134454 0
M  V30 11713 H 1225.9 1.78173 -1.00577 0
M  V30 11714 H 1225.91 4.07691 -0.158675 0
M  V30 11715 H 1224.58 3.94931 -1.30394 0
M  V30 11716 H 1223.16 3.69401 0.509643 0
M  V30 11717 N 1225.34 0.486708 1.49896 0
M  V30 11718 C 1226.27 -0.288898 2.31706 0
M  V30 11719 C 1227.26 -0.975901 1.3932 0
M  V30 11720 O 1228.44 -0.970065 1.68236 0
M  V30 11721 C 1225.57 -1.36218 3.19471 0
M  V30 11722 C 1224.52 -0.795884 4.20535 0
M  V30 11723 C 1223.85 -1.96862 4.97141 0
M  V30 11724 C 1225.15 0.203421 5.21904 0
M  V30 11725 H 1226.84 0.393934 2.96797 0
M  V30 11726 H 1224.39 0.190894 1.42729 0
M  V30 11727 H 1226.34 -1.91238 3.75508 0
M  V30 11728 H 1225.07 -2.074 2.52295 0
M  V30 11729 H 1223.73 -0.267538 3.65622 0
M  V30 11730 H 1223.37 -2.66779 4.26425 0
M  V30 11731 H 1223.07 -1.59585 5.65514 0
M  V30 11732 H 1224.6 -2.52343 5.56017 0
M  V30 11733 H 1226.01 -0.258144 5.72719 0
M  V30 11734 H 1224.41 0.491273 5.98086 0
M  V30 11735 H 1225.48 1.12414 4.7169 0
M  V30 11736 N 1226.82 -1.56058 0.219941 0
M  V30 11737 C 1228.24 -1.59024 -0.135476 0
M  V30 11738 C 1228.44 -1.23672 -1.59083 0
M  V30 11739 O 1227.5 -0.971197 -2.33075 0
M  V30 11740 C 1228.81 -3.00103 0.189356 0
M  V30 11741 C 1230.36 -3.12724 0.131463 0
M  V30 11742 C 1230.83 -4.55977 0.429947 0
M  V30 11743 N 1232.32 -4.61643 0.37946 0
M  V30 11744 C 1233.06 -5.70419 0.58393 0
M  V30 11745 N 1232.55 -6.87565 0.850088 0
M  V30 11746 N 1234.35 -5.59722 0.516477 0
M  V30 11747 H 1226.5 -1.77313 1.16935 0
M  V30 11748 H 1228.76 -0.824096 0.468583 0
M  V30 11749 H 1228.47 -3.30616 1.19941 0
M  V30 11750 H 1228.34 -3.73919 -0.49641 0
M  V30 11751 H 1230.73 -2.82008 -0.869223 0
M  V30 11752 H 1230.81 -2.41241 0.85068 0
M  V30 11753 H 1230.45 -4.8741 1.42806 0
M  V30 11754 H 1230.38 -5.25684 -0.310444 0
M  V30 11755 H 1232.87 -3.77465 0.181373 0
M  V30 11756 H 1233.19 -7.66378 0.994251 0
M  V30 11757 H 1231.53 -6.89313 0.887265 0
M  V30 11758 H 1234.72 -4.6708 0.308784 0
M  V30 11759 H 1234.9 -6.4443 0.679236 0
M  V30 11760 N 1228.3 0.053464 -1.57509 0
M  V30 11761 C 1229.53 0.765301 -1.92764 0
M  V30 11762 C 1229.95 1.69385 -0.817943 0
M  V30 11763 O 1229.31 1.7986 0.228075 0
M  V30 11764 C 1229.36 1.51938 -3.27028 0
M  V30 11765 O 1228.46 2.63121 -3.17555 0
M  V30 11766 H 1227.8 0.207567 -0.630723 0
M  V30 11767 H 1230.33 0.0162254 -2.04594 0
M  V30 11768 H 1230.34 1.89466 -3.6134 0
M  V30 11769 H 1229.02 0.838207 -4.07366 0
M  V30 11770 H 1227.59 2.28316 -2.94832 0
M  V30 11771 N 1229.78 1.54207 0.325255 0
M  V30 11772 C 1230.69 1.86495 1.42326 0
M  V30 11773 C 1231.71 0.756718 1.56684 0
M  V30 11774 O 1232.88 1.05084 1.71812 0
M  V30 11775 C 1229.95 2.08414 2.77064 0
M  V30 11776 C 1229.01 3.32221 2.71897 0
M  V30 11777 C 1228.24 3.53085 4.00209 0
M  V30 11778 O 1228.46 2.77421 4.98391 0
M  V30 11779 O 1227.4 4.46559 4.0357 0
M  V30 11780 H 1231.22 2.79859 1.17951 0
M  V30 11781 H 1228.81 1.40091 0.519124 0
M  V30 11782 H 1230.69 2.24171 3.56827 0
M  V30 11783 H 1229.37 1.18238 3.01333 0
M  V30 11784 H 1228.27 3.21851 1.90691 0
M  V30 11785 H 1229.61 4.22449 2.52582 0
M  V30 11786 N 1231.26 -0.58723 1.46251 0
M  V30 11787 C 1232.5 -1.3567 1.52882 0
M  V30 11788 C 1232.86 -1.91206 0.174438 0
M  V30 11789 O 1234.06 -2.68552 0.115491 0
M  V30 11790 C 1232.33 -2.45914 2.59347 0
M  V30 11791 S 1233.89 -3.33347 2.85351 0
M  V30 11792 H 1230.71 -0.462276 0.540205 0
M  V30 11793 H 1233.31 -0.675537 1.83458 0
M  V30 11794 H 1232.02 -2.03498 3.56394 0
M  V30 11795 H 1231.55 -3.18807 2.30489 0
M  V30 11796 H 1233.56 -4.44626 2.20278 0
M  V30 11797 N 1232.74 -1.33881 -0.831482 0
M  V30 11798 C 1233.98 -1.27095 -1.60082 0
M  V30 11799 C 1234.34 0.15911 -1.9134 0
M  V30 11800 O 1235.54 0.351029 -2.66498 0
M  V30 11801 C 1233.81 -2.12874 -2.87088 0
M  V30 11802 S 1235.37 -2.23354 -3.77702 0
M  V30 11803 H 1232.19 -0.452049 -0.548792 0
M  V30 11804 H 1234.79 -1.68998 -0.98285 0
M  V30 11805 H 1233.49 -3.15797 -2.62108 0
M  V30 11806 H 1233.03 -1.71836 -3.53887 0
M  V30 11807 H 1235.04 -1.40003 -4.76039 0
M  V30 11808 N 1234.21 1.05064 -1.1747 0
M  V30 11809 C 1235.18 2.1101 -0.89485 0
M  V30 11810 C 1236.18 1.60384 0.11553 0
M  V30 11811 O 1237.37 1.73808 -0.116785 0
M  V30 11812 C 1234.5 3.39194 -0.340642 0
M  V30 11813 H 1235.69 2.37269 -1.83421 0
M  V30 11814 H 1233.24 1.21329 -0.985343 0
M  V30 11815 H 1233.98 3.18591 0.605808 0
M  V30 11816 H 1233.76 3.77251 -1.06885 0
M  V30 11817 H 1235.25 4.17281 -0.163204 0
M  V30 11818 N 1235.69 0.975146 1.23809 0
M  V30 11819 C 1236.92 0.658978 1.96125 0
M  V30 11820 C 1237.33 -0.773044 1.72248 0
M  V30 11821 O 1236.69 -1.51956 1.01072 0
M  V30 11822 C 1236.74 0.933355 3.49243 0
M  V30 11823 O 1236.46 2.30909 3.72307 0
M  V30 11824 C 1237.96 0.632408 4.38766 0
M  V30 11825 H 1235.18 0.245237 0.62458 0
M  V30 11826 H 1237.73 1.3051 1.5744 0
M  V30 11827 H 1235.88 0.333323 3.85963 0
M  V30 11828 H 1236.3 2.39476 4.66638 0
M  V30 11829 H 1237.77 0.874791 5.45024 0
M  V30 11830 H 1238.25 -0.433453 4.37056 0
M  V30 11831 H 1238.85 1.21268 4.07645 0
M  V30 11832 N 1237.17 -1.38817 0.746158 0
M  V30 11833 C 1238.1 -2.33144 0.128836 0
M  V30 11834 C 1239.08 -1.54487 -0.711873 0
M  V30 11835 O 1240.27 -1.82836 -0.654577 0
M  V30 11836 C 1237.4 -3.38639 -0.770772 0
M  V30 11837 C 1236.35 -4.27987 -0.0333669 0
M  V30 11838 C 1235.68 -5.24274 -1.05073 0
M  V30 11839 C 1236.98 -5.09915 1.13066 0
M  V30 11840 H 1238.67 -2.85019 0.916778 0
M  V30 11841 H 1236.22 -1.37039 0.442306 0
M  V30 11842 H 1238.17 -4.03587 -1.21225 0
M  V30 11843 H 1236.89 -2.8523 -1.59095 0
M  V30 11844 H 1235.55 -3.64534 0.388612 0
M  V30 11845 H 1235.2 -4.67156 -1.86478 0
M  V30 11846 H 1234.9 -5.84906 -0.562037 0
M  V30 11847 H 1236.42 -5.92099 -1.49169 0
M  V30 11848 H 1237.84 -5.68145 0.767084 0
M  V30 11849 H 1236.23 -5.79744 1.54972 0
M  V30 11850 H 1237.3 -4.4409 1.94709 0
M  V30 11851 N 1238.65 -0.49465 -1.49636 0
M  V30 11852 C 1239.9 0.0520143 -2.02033 0
M  V30 11853 C 1240.22 1.38071 -1.37701 0
M  V30 11854 O 1239.49 1.88589 -0.530181 0
M  V30 11855 H 1238.07 0.0222123 -0.74667 0
M  V30 11856 H 1240.73 -0.650445 -1.83726 0
M  V30 11857 H 1239.82 0.186337 -3.11543 0
M  V30 11858 N 1240.13 1.55939 -0.228214 0
M  V30 11859 C 1241.09 2.1932 0.665681 0
M  V30 11860 C 1242.09 1.15699 1.11671 0
M  V30 11861 O 1243.28 1.40893 1.02444 0
M  V30 11862 C 1240.41 2.82185 1.9127 0
M  V30 11863 H 1241.6 2.99687 0.112986 0
M  V30 11864 H 1239.16 1.56285 0.0213865 0
M  V30 11865 H 1239.89 2.05706 2.5071 0
M  V30 11866 H 1239.68 3.58073 1.5977 0
M  V30 11867 H 1241.17 3.30748 2.54942 0
M  V30 11868 N 1241.6 -0.0451101 1.57535 0
M  V30 11869 C 1242.57 -1.03521 2.0449 0
M  V30 11870 C 1243.57 -1.30009 0.946265 0
M  V30 11871 O 1244.76 -1.25282 1.21038 0
M  V30 11872 C 1241.89 -2.37221 2.44824 0
M  V30 11873 H 1243.08 -0.629943 2.93209 0
M  V30 11874 H 1240.64 -0.291544 1.53557 0
M  V30 11875 H 1241.37 -2.82528 1.59212 0
M  V30 11876 H 1241.16 -2.19329 3.25018 0
M  V30 11877 H 1242.65 -3.08337 2.81635 0
M  V30 11878 N 1243.08 -1.54377 -0.317073 0
M  V30 11879 C 1244.33 -1.74083 -1.05198 0
M  V30 11880 C 1244.68 -0.511755 -1.85469 0
M  V30 11881 O 1243.98 0.495851 -1.85073 0
M  V30 11882 C 1244.17 -2.96066 -2.00199 0
M  V30 11883 C 1244 -4.3072 -1.29269 0
M  V30 11884 C 1242.77 -4.94764 -1.0265 0
M  V30 11885 C 1244.97 -5.09441 -0.705297 0
M  V30 11886 N 1242.95 -6.13234 -0.285795 0
M  V30 11887 C 1244.32 -6.19925 -0.0965349 0
M  V30 11888 C 1246.38 -4.94165 -0.608753 0
M  V30 11889 C 1245.08 -7.16798 0.599411 0
M  V30 11890 C 1247.1 -5.91354 0.0735046 0
M  V30 11891 C 1246.47 -7.01195 0.671184 0
M  V30 11892 H 1242.57 -0.689774 -0.368423 0
M  V30 11893 H 1245.15 -1.91841 -0.332412 0
M  V30 11894 H 1243.32 -2.79762 -2.69421 0
M  V30 11895 H 1245.05 -3.0437 -2.66722 0
M  V30 11896 H 1241.81 -4.54818 -1.32052 0
M  V30 11897 H 1242.23 -6.76963 0.0706046 0
M  V30 11898 H 1246.87 -4.09386 -1.05655 0
M  V30 11899 H 1244.59 -8.01131 1.05902 0
M  V30 11900 H 1248.18 -5.81612 0.147931 0
M  V30 11901 H 1247.06 -7.75107 1.19073 0
M  V30 11902 N 1244.56 0.579466 -1.4656 0
M  V30 11903 C 1245.81 1.33492 -1.51738 0
M  V30 11904 C 1246.13 1.94241 -0.171926 0
M  V30 11905 O 1245.4 1.78737 0.801875 0
M  V30 11906 H 1243.98 0.49565 -0.558874 0
M  V30 11907 H 1246.64 0.678394 -1.82712 0
M  V30 11908 H 1245.74 2.13995 -2.27183 0
M  V30 11909 N 1246.04 1.3432 0.824371 0
M  V30 11910 C 1247.26 1.2982 1.61745 0
M  V30 11911 C 1247.69 -0.125298 1.87682 0
M  V30 11912 O 1247.05 -1.08658 1.45131 0
M  V30 11913 C 1247.09 2.09327 2.93623 0
M  V30 11914 O 1246.2 1.4618 3.85623 0
M  V30 11915 H 1245.54 0.445929 0.491979 0
M  V30 11916 H 1248.07 1.77101 1.02452 0
M  V30 11917 H 1248.08 2.20629 3.43201 0
M  V30 11918 H 1246.75 3.12825 2.74069 0
M  V30 11919 H 1245.33 1.43611 3.44137 0
M  V30 11920 N 1247.52 -1.0444 1.18026 0
M  V30 11921 C 1248.93 -1.5903 0.978076 0
M  V30 11922 C 1249.28 -1.90407 -0.473241 0
M  V30 11923 O 1248.4 -1.69133 -1.34992 0
M  V30 11924 C 1249 -2.88942 1.76912 0
M  V30 11925 C 1247.56 -3.40164 1.61139 0
M  V30 11926 C 1246.7 -2.13797 1.76596 0
M  V30 11927 H 1249.66 -0.871574 1.32625 0
M  V30 11928 H 1249.68 -3.59173 1.25598 0
M  V30 11929 H 1249.19 -2.66074 2.82535 0
M  V30 11930 H 1247.29 -3.68053 0.580353 0
M  V30 11931 H 1247.4 -4.14241 2.40709 0
M  V30 11932 H 1245.77 -2.24922 1.19507 0
M  V30 11933 H 1246.55 -1.93389 2.83647 0
M  V30 11934 N 1248.99 -0.981699 -1.2329 0
M  V30 11935 C 1250.23 -0.659348 -1.93473 0
M  V30 11936 C 1250.6 0.792616 -1.74876 0
M  V30 11937 O 1251.8 1.22586 -2.3922 0
M  V30 11938 C 1250.07 -1.04065 -3.41914 0
M  V30 11939 S 1251.63 -0.834964 -4.30783 0
M  V30 11940 H 1248.45 -0.241428 -0.668755 0
M  V30 11941 H 1251.05 -1.26161 -1.49344 0
M  V30 11942 H 1249.75 -2.09398 -3.5296 0
M  V30 11943 H 1249.28 -0.429721 -3.91046 0
M  V30 11944 H 1251.3 0.280447 -4.95407 0
M  V30 11945 N 1250.47 1.3842 -0.753509 0
M  V30 11946 C 1251.38 2.34252 -0.127811 0
M  V30 11947 C 1252.4 1.59266 0.700743 0
M  V30 11948 O 1253.57 1.9146 0.624914 0
M  V30 11949 C 1250.64 3.38382 0.754886 0
M  V30 11950 C 1249.7 4.2921 -0.0880312 0
M  V30 11951 C 1248.93 5.28367 0.75263 0
M  V30 11952 O 1249.16 5.34537 1.99064 0
M  V30 11953 O 1248.09 6.01656 0.171475 0
M  V30 11954 H 1251.92 2.89454 -0.91925 0
M  V30 11955 H 1249.5 1.40265 -0.514404 0
M  V30 11956 H 1251.38 4.02141 1.25938 0
M  V30 11957 H 1250.06 2.85536 1.52482 0
M  V30 11958 H 1248.97 3.68611 -0.638468 0
M  V30 11959 H 1250.3 4.85311 -0.82062 0
M  V30 11960 N 1251.95 0.502579 1.49372 0
M  V30 11961 C 1253.37 0.158641 1.5881 0
M  V30 11962 C 1253.57 -1.33688 1.50764 0
M  V30 11963 O 1252.62 -2.11295 1.38241 0
M  V30 11964 C 1253.94 0.736843 2.91532 0
M  V30 11965 C 1255.48 0.703093 3.05001 0
M  V30 11966 C 1255.96 1.25938 4.40345 0
M  V30 11967 N 1257.45 1.22015 4.46841 0
M  V30 11968 C 1258.18 1.62076 5.50017 0
M  V30 11969 N 1257.68 2.09736 6.6029 0
M  V30 11970 N 1259.47 1.53482 5.4074 0
M  V30 11971 H 1251.62 1.47487 1.52844 0
M  V30 11972 H 1253.89 0.611851 0.724115 0
M  V30 11973 H 1253.59 1.78573 3.02992 0
M  V30 11974 H 1253.47 0.198178 3.76679 0
M  V30 11975 H 1255.85 -0.336965 2.9317 0
M  V30 11976 H 1255.94 1.27892 2.21534 0
M  V30 11977 H 1255.58 2.29823 4.52928 0
M  V30 11978 H 1255.51 0.659481 5.22454 0
M  V30 11979 H 1258 0.870957 3.67726 0
M  V30 11980 H 1258.31 2.3837 7.35119 0
M  V30 11981 H 1256.66 2.13712 6.61326 0
M  V30 11982 H 1259.85 1.16065 4.53483 0
M  V30 11983 H 1260.02 1.85026 6.21023 0
M  V30 11984 N 1253.43 -1.55816 0.23648 0
M  V30 11985 C 1254.67 -2.0059 -0.39281 0
M  V30 11986 C 1255.03 -1.12092 -1.55883 0
M  V30 11987 O 1256.23 -1.46277 -2.25514 0
M  V30 11988 C 1254.5 -3.48281 -0.80219 0
M  V30 11989 S 1256.06 -4.15069 -1.42348 0
M  V30 11990 H 1252.88 -0.700093 -0.124057 0
M  V30 11991 H 1255.48 -1.92355 0.349272 0
M  V30 11992 H 1254.19 -4.10362 0.0558941 0
M  V30 11993 H 1253.72 -3.60421 -1.57671 0
M  V30 11994 H 1255.73 -4.15493 -2.71257 0
M  V30 11995 N 1254.91 0.036755 -1.57557 0
M  V30 11996 C 1255.82 1.05687 -2.09446 0
M  V30 11997 C 1256.83 1.40137 -1.03139 0
M  V30 11998 O 1258.01 1.49611 -1.34828 0
M  V30 11999 C 1255.07 2.34114 -2.55717 0
M  V30 12000 C 1254.13 2.06316 -3.76473 0
M  V30 12001 C 1253.37 3.2862 -4.20529 0
M  V30 12002 O 1253.59 4.3902 -3.64167 0
M  V30 12003 O 1252.52 3.14772 -5.13033 0
M  V30 12004 H 1256.35 0.64593 -2.96751 0
M  V30 12005 H 1253.94 0.253235 -1.47238 0
M  V30 12006 H 1255.82 3.09631 -2.85844 0
M  V30 12007 H 1254.49 2.74519 -1.71526 0
M  V30 12008 H 1253.4 1.28392 -3.51378 0
M  V30 12009 H 1254.73 1.70772 -4.61625 0
M  V30 12010 N 1256.39 1.54543 0.308881 0
M  V30 12011 C 1257.63 1.7266 1.04266 0
M  V30 12012 C 1257.95 0.51518 1.88694 0
M  V30 12013 O 1259.15 0.577988 2.65276 0
M  V30 12014 C 1257.61 3.05448 1.9034 0
M  V30 12015 C 1257.22 4.34043 1.10953 0
M  V30 12016 C 1258.96 3.32925 2.63365 0
M  V30 12017 C 1256.87 5.57886 1.96258 0
M  V30 12018 H 1255.8 0.643485 0.392992 0
M  V30 12019 H 1258.45 1.8103 0.300077 0
M  V30 12020 H 1256.83 2.91023 2.68555 0
M  V30 12021 H 1258.01 4.59279 0.374069 0
M  V30 12022 H 1256.32 4.13442 0.495453 0
M  V30 12023 H 1258.92 4.22649 3.27524 0
M  V30 12024 H 1259.26 2.51451 3.3178 0
M  V30 12025 H 1259.79 3.48285 1.92204 0
M  V30 12026 H 1256.53 6.42005 1.32326 0
M  V30 12027 H 1256.05 5.36847 2.67498 0
M  V30 12028 H 1257.73 5.94846 2.54494 0
M  V30 12029 N 1257.86 -0.571685 1.46866 0
M  V30 12030 C 1259.14 -1.33216 1.43223 0
M  V30 12031 C 1259.52 -2.1075 0.121495 0
M  V30 12032 O 1258.87 -2.10157 -0.897003 0
M  V30 12033 C 1259.08 -2.24888 2.66882 0
M  V30 12034 C 1260.43 -2.86369 3.13493 0
M  V30 12035 O 1261.45 -2.35197 2.67509 0
M  V30 12036 O 1260.31 -3.79342 3.93398 0
M  V30 12037 H 1257.4 -0.599106 0.570089 0
M  V30 12038 H 1259.95 -0.591788 1.59047 0
M  V30 12039 H 1258.72 -1.67099 3.53827 0
M  V30 12040 H 1258.34 -3.06246 2.53573 0
M  V30 12041 N 1259.34 -1.34755 -0.817236 0
M  V30 12042 C 1260.75 -1.24594 -1.39044 0
M  V30 12043 C 1261.1 0.126184 -1.95794 0
M  V30 12044 O 1260.23 1.02675 -1.90491 0
M  V30 12045 C 1260.82 -2.25592 -2.52772 0
M  V30 12046 C 1259.38 -2.19204 -3.05984 0
M  V30 12047 C 1258.53 -2.11884 -1.78886 0
M  V30 12048 H 1261.48 -1.46039 -0.621155 0
M  V30 12049 H 1261.5 -1.87622 -3.31026 0
M  V30 12050 H 1261.01 -3.25447 -2.11438 0
M  V30 12051 H 1259.11 -1.22725 -3.51809 0
M  V30 12052 H 1259.23 -3.10707 -3.64689 0
M  V30 12053 H 1257.59 -1.57694 -2.00012 0
M  V30 12054 H 1258.37 -3.13582 -1.39719 0
M  V30 12055 N 1260.82 1.03812 -1.18578 0
M  V30 12056 C 1261.78 2.10049 -0.91718 0
M  V30 12057 C 1262.78 1.60498 0.0985122 0
M  V30 12058 O 1263.97 1.73674 -0.135213 0
M  V30 12059 C 1261.1 3.38813 -0.376599 0
M  V30 12060 H 1262.3 2.3531 -1.85927 0
M  V30 12061 H 1259.85 1.20277 -0.998156 0
M  V30 12062 H 1260.59 3.19216 0.571983 0
M  V30 12063 H 1260.37 3.76096 -1.10881 0
M  V30 12064 H 1261.86 4.17084 -0.207453 0
M  V30 12065 N 1262.3 0.988223 1.22768 0
M  V30 12066 C 1263.54 0.669599 1.93121 0
M  V30 12067 C 1263.9 -0.783331 1.75294 0
M  V30 12068 O 1265.1 -1.21315 2.39867 0
M  V30 12069 C 1263.37 1.05876 3.41358 0
M  V30 12070 S 1264.93 0.857797 4.30334 0
M  V30 12071 H 1261.75 0.244972 0.667465 0
M  V30 12072 H 1264.35 1.26952 1.48673 0
M  V30 12073 H 1263.06 2.11267 3.51844 0
M  V30 12074 H 1262.59 0.450453 3.90813 0
M  V30 12075 H 1264.6 -0.254171 4.95549 0
M  V30 12076 N 1263.78 -1.38018 0.760839 0
M  V30 12077 C 1264.74 -2.28734 0.146154 0
M  V30 12078 C 1265.74 -1.47525 -0.639768 0
M  V30 12079 O 1266.93 -1.6788 -0.464964 0
M  V30 12080 C 1264.06 -3.31356 -0.801019 0
M  V30 12081 H 1265.25 -2.84599 0.945692 0
M  V30 12082 H 1262.81 -1.471 0.528323 0
M  V30 12083 H 1263.54 -2.80594 -1.62597 0
M  V30 12084 H 1263.33 -3.91366 -0.239775 0
M  V30 12085 H 1264.82 -3.99171 -1.22687 0
M  V30 12086 N 1265.25 -0.510493 -1.49103 0
M  V30 12087 C 1266.67 -0.167061 -1.58723 0
M  V30 12088 C 1266.87 1.32886 -1.51471 0
M  V30 12089 O 1265.93 2.10559 -1.39359 0
M  V30 12090 C 1267.24 -0.752293 -2.91137 0
M  V30 12091 C 1268.79 -0.719258 -3.04624 0
M  V30 12092 C 1269.26 -1.28272 -4.39671 0
M  V30 12093 N 1270.75 -1.24383 -4.46187 0
M  V30 12094 C 1271.49 -1.6499 -5.4915 0
M  V30 12095 N 1270.98 -2.13235 -6.59168 0
M  V30 12096 N 1272.78 -1.56348 -5.39918 0
M  V30 12097 H 1264.93 -1.48296 -1.5206 0
M  V30 12098 H 1267.19 -0.615683 -0.72086 0
M  V30 12099 H 1266.9 -1.80178 -3.02041 0
M  V30 12100 H 1266.77 -0.218152 -3.76569 0
M  V30 12101 H 1269.16 0.321413 -2.93344 0
M  V30 12102 H 1269.24 -1.29065 -2.20852 0
M  V30 12103 H 1268.88 -2.32222 -4.51703 0
M  V30 12104 H 1268.81 -0.687179 -5.22097 0
M  V30 12105 H 1271.3 -0.890446 -3.67259 0
M  V30 12106 H 1271.62 -2.42266 -7.33844 0
M  V30 12107 H 1269.96 -2.17216 -6.60183 0
M  V30 12108 H 1273.15 -1.18469 -4.52861 0
M  V30 12109 H 1273.33 -1.88317 -6.20033 0
M  V30 12110 N 1266.73 1.55688 -0.24474 0
M  V30 12111 C 1267.98 1.98498 0.379852 0
M  V30 12112 C 1268.3 1.13416 1.58625 0
M  V30 12113 O 1267.57 0.216456 1.947 0
M  V30 12114 H 1266.15 0.73312 0.143334 0
M  V30 12115 H 1268.81 1.91858 -0.343027 0
M  V30 12116 H 1267.91 3.04367 0.690463 0
M  V30 12117 N 1268.21 -0.0283989 1.57574 0
M  V30 12118 C 1269.46 -0.719077 1.89303 0
M  V30 12119 C 1269.78 -1.75325 0.84211 0
M  V30 12120 O 1269.04 -1.95071 -0.15683 0
M  V30 12121 C 1269.34 -1.4247 3.27776 0
M  V30 12122 C 1269 -0.526442 4.47816 0
M  V30 12123 C 1267.67 -0.279038 4.8039 0
M  V30 12124 C 1270.02 0.0937038 5.21116 0
M  V30 12125 C 1267.35 0.597277 5.83652 0
M  V30 12126 C 1269.7 0.957725 6.25308 0
M  V30 12127 C 1268.36 1.21458 6.56357 0
M  V30 12128 H 1267.63 -0.263129 0.692708 0
M  V30 12129 H 1270.28 0.0210252 1.91488 0
M  V30 12130 H 1268.58 -2.23813 3.21582 0
M  V30 12131 H 1270.28 -1.96466 3.49574 0
M  V30 12132 H 1266.87 -0.729426 4.22347 0
M  V30 12133 H 1271.06 -0.084469 4.96228 0
M  V30 12134 H 1266.31 0.804582 6.06083 0
M  V30 12135 H 1270.49 1.44476 6.81249 0
M  V30 12136 H 1268.11 1.89534 7.36193 0
M  V30 12137 N 1269.69 -1.54705 -0.300681 0
M  V30 12138 C 1270.65 -1.84934 -1.35395 0
M  V30 12139 C 1271.65 -0.72226 -1.43666 0
M  V30 12140 O 1272.84 -0.990543 -1.43296 0
M  V30 12141 C 1269.97 -2.02991 -2.73875 0
M  V30 12142 H 1271.17 -2.79063 -1.09835 0
M  V30 12143 H 1268.72 -1.46772 -0.537365 0
M  V30 12144 H 1269.45 -1.11151 -3.04657 0
M  V30 12145 H 1269.24 -2.85027 -2.69262 0
M  V30 12146 H 1270.73 -2.27747 -3.5003 0
M  V30 12147 N 1271.17 0.563888 -1.47167 0
M  V30 12148 C 1272.58 0.889156 -1.32537 0
M  V30 12149 C 1272.78 1.99088 -0.310854 0
M  V30 12150 O 1271.84 2.50943 0.27998 0
M  V30 12151 C 1273.15 1.28871 -2.71685 0
M  V30 12152 C 1274.7 1.40051 -2.79919 0
M  V30 12153 C 1275.17 1.83364 -4.19692 0
M  V30 12154 N 1276.67 1.90526 -4.22201 0
M  V30 12155 C 1277.4 2.25355 -5.2726 0
M  V30 12156 N 1276.9 2.58844 -6.42629 0
M  V30 12157 N 1278.69 2.26071 -5.14634 0
M  V30 12158 H 1270.84 -0.163581 -2.11769 0
M  V30 12159 H 1273.1 -0.0105151 -0.947942 0
M  V30 12160 H 1272.81 0.553057 -3.47324 0
M  V30 12161 H 1272.68 2.24629 -3.03021 0
M  V30 12162 H 1275.07 2.12698 -2.04557 0
M  V30 12163 H 1275.15 0.424971 -2.52245 0
M  V30 12164 H 1274.8 1.11289 -4.95557 0
M  V30 12165 H 1274.73 2.81909 -4.44786 0
M  V30 12166 H 1277.22 1.67059 -3.38968 0
M  V30 12167 H 1277.53 2.84427 -7.18555 0
M  V30 12168 H 1275.87 2.56439 -6.4596 0
M  V30 12169 H 1279.07 1.99343 -4.23533 0
M  V30 12170 H 1279.24 2.52885 -5.96618 0
M  V30 12171 N 1272.64 1.35187 0.810078 0
M  V30 12172 C 1273.58 1.22171 1.92742 0
M  V30 12173 C 1274.56 0.110393 1.62225 0
M  V30 12174 O 1275.74 0.27786 1.86441 0
M  V30 12175 C 1272.87 0.880367 3.27058 0
M  V30 12176 C 1271.91 2.00325 3.76527 0
M  V30 12177 S 1272.75 3.6185 3.94747 0
M  V30 12178 C 1273.9 3.29784 5.31971 0
M  V30 12179 H 1274.13 2.16749 2.03488 0
M  V30 12180 H 1271.67 1.20362 0.967072 0
M  V30 12181 H 1273.63 0.690224 4.04656 0
M  V30 12182 H 1272.29 -0.0472868 3.14064 0
M  V30 12183 H 1271.48 1.71847 4.73798 0
M  V30 12184 H 1271.08 2.15154 3.05916 0
M  V30 12185 H 1273.37 2.82396 6.1584 0
M  V30 12186 H 1274.32 4.26243 5.6544 0
M  V30 12187 H 1274.72 2.65641 4.98092 0
M  V30 12188 N 1274.12 -1.03182 1.19127 0
M  V30 12189 C 1275.35 -1.80165 1.01726 0
M  V30 12190 C 1275.77 -1.83742 -0.434095 0
M  V30 12191 O 1275.12 -1.27932 -1.30152 0
M  V30 12192 C 1275.17 -3.25354 1.57566 0
M  V30 12193 O 1274.89 -3.22042 2.9702 0
M  V30 12194 C 1276.4 -4.18948 1.44906 0
M  V30 12195 H 1273.62 -0.567078 0.358698 0
M  V30 12196 H 1276.16 -1.29982 1.57877 0
M  V30 12197 H 1274.31 -3.72738 1.0557 0
M  V30 12198 H 1274.73 -4.13061 3.23235 0
M  V30 12199 H 1276.2 -5.18723 1.88762 0
M  V30 12200 H 1276.68 -4.37383 0.399125 0
M  V30 12201 H 1277.29 -3.77435 1.96018 0
M  V30 12202 N 1275.6 -0.99472 -1.22242 0
M  V30 12203 C 1276.85 -0.670275 -1.90661 0
M  V30 12204 C 1277.17 0.800369 -1.77818 0
M  V30 12205 O 1276.44 1.57381 -1.16653 0
M  V30 12206 H 1275.02 -0.244925 -0.705706 0
M  V30 12207 H 1277.68 -1.26162 -1.48557 0
M  V30 12208 H 1276.78 -0.934408 -2.97784 0
M  V30 12209 N 1277.08 1.37613 -0.768148 0
M  V30 12210 C 1278.32 2.00075 -0.331331 0
M  V30 12211 C 1278.66 1.60839 1.08833 0
M  V30 12212 O 1277.93 0.852849 1.74805 0
M  V30 12213 C 1278.22 3.57009 -0.470789 0
M  V30 12214 C 1278.07 4.06166 -1.9326 0
M  V30 12215 C 1279.39 4.39916 0.127111 0
M  V30 12216 H 1276.51 0.726855 -0.121864 0
M  V30 12217 H 1279.15 1.63343 -0.970518 0
M  V30 12218 H 1277.3 3.88431 0.0733688 0
M  V30 12219 H 1278.97 3.85325 -2.53618 0
M  V30 12220 H 1277.21 3.58492 -2.44266 0
M  V30 12221 H 1277.88 5.15219 -1.98125 0
M  V30 12222 H 1280.36 4.14732 -0.337144 0
M  V30 12223 H 1279.24 5.489 -0.000624226 0
M  V30 12224 H 1279.5 4.25018 1.21704 0
M  V30 12225 N 1278.56 0.518393 1.4883 0
M  V30 12226 C 1279.78 -0.0162 2.06894 0
M  V30 12227 C 1280.2 -1.29222 1.37649 0
M  V30 12228 O 1279.56 -1.766 0.460288 0
M  V30 12229 C 1279.61 -0.255836 3.60594 0
M  V30 12230 O 1279.33 0.969612 4.27235 0
M  V30 12231 C 1280.83 -0.832117 4.3542 0
M  V30 12232 H 1278.05 0.0282877 0.670403 0
M  V30 12233 H 1280.59 0.720726 1.91379 0
M  V30 12234 H 1278.75 -0.942782 3.75753 0
M  V30 12235 H 1279.16 0.743172 5.19208 0
M  V30 12236 H 1280.64 -0.949279 5.43776 0
M  V30 12237 H 1281.11 -1.83421 3.99066 0
M  V30 12238 H 1281.72 -0.1821 4.2491 0
M  V30 12239 N 1280.03 -1.55556 0.252993 0
M  V30 12240 C 1281.27 -2.00995 -0.371513 0
M  V30 12241 C 1281.64 -1.13739 -1.54685 0
M  V30 12242 O 1282.84 -1.4866 -2.2395 0
M  V30 12243 C 1281.11 -3.49112 -0.765205 0
M  V30 12244 S 1282.67 -4.16556 -1.37938 0
M  V30 12245 H 1279.49 -0.70137 -0.116625 0
M  V30 12246 H 1282.09 -1.91973 0.369654 0
M  V30 12247 H 1280.79 -4.1028 0.0994153 0
M  V30 12248 H 1280.32 -3.62073 -1.5384 0
M  V30 12249 H 1282.34 -4.18346 -2.66835 0
M  V30 12250 N 1281.51 0.0200419 -1.57587 0
M  V30 12251 C 1282.79 0.744946 -1.80859 0
M  V30 12252 C 1283.17 1.93089 -0.853218 0
M  V30 12253 O 1282.52 2.28269 0.10261 0
M  V30 12254 C 1282.73 1.16952 -3.28821 0
M  V30 12255 C 1284.08 1.5817 -3.9404 0
M  V30 12256 O 1285.1 1.26385 -3.33024 0
M  V30 12257 O 1283.96 2.17197 -5.01486 0
M  V30 12258 H 1281.05 0.360995 -0.744051 0
M  V30 12259 H 1283.6 -0.00387374 -1.697 0
M  V30 12260 H 1282.37 0.323304 -3.89962 0
M  V30 12261 H 1281.99 1.97807 -3.44903 0
M  V30 12262 N 1282.99 1.54862 0.292472 0
M  V30 12263 C 1284.27 1.65237 1.04671 0
M  V30 12264 C 1284.65 0.506168 2.04942 0
M  V30 12265 O 1284 -0.496123 2.23049 0
M  V30 12266 C 1284.21 3.03618 1.72095 0
M  V30 12267 C 1285.55 3.6072 2.23979 0
M  V30 12268 O 1286.58 3.06126 1.82114 0
M  V30 12269 O 1285.44 4.56328 3.0071 0
M  V30 12270 H 1282.53 0.670347 0.484319 0
M  V30 12271 H 1285.08 1.67206 0.28988 0
M  V30 12272 H 1283.85 3.78482 0.993324 0
M  V30 12273 H 1283.47 3.05464 2.54514 0
M  V30 12274 N 1284.47 -0.556076 1.47464 0
M  V30 12275 C 1285.71 -1.31515 1.54375 0
M  V30 12276 C 1286.05 -1.93106 0.205837 0
M  V30 12277 O 1285.32 -1.77927 -0.785643 0
M  V30 12278 C 1285.61 -2.4244 2.66261 0
M  V30 12279 C 1285.46 -1.8571 4.09673 0
M  V30 12280 C 1286.78 -3.4436 2.74051 0
M  V30 12281 H 1283.9 -0.476817 0.561974 0
M  V30 12282 H 1286.54 -0.622157 1.79525 0
M  V30 12283 H 1284.69 -3.01551 2.44948 0
M  V30 12284 H 1286.36 -1.30851 4.42353 0
M  V30 12285 H 1284.6 -1.16379 4.17898 0
M  V30 12286 H 1285.27 -2.65904 4.83735 0
M  V30 12287 H 1287.75 -2.95169 2.93282 0
M  V30 12288 H 1286.63 -4.194 3.54111 0
M  V30 12289 H 1286.89 -4.03281 1.81155 0
M  V30 12290 N 1285.95 -1.35615 -0.802897 0
M  V30 12291 C 1286.9 -1.28877 -1.93632 0
M  V30 12292 C 1287.89 -0.183014 -1.68408 0
M  V30 12293 O 1289.1 -0.349218 -1.7658 0
M  V30 12294 H 1285.47 -0.400883 -0.636236 0
M  V30 12295 H 1287.44 -2.24624 -1.96435 0
M  V30 12296 C 1286.19 -1.08136 -3.30457 0
M  V30 12297 H 1285.51 -1.92463 -3.50426 0
M  V30 12298 H 1286.95 -1.07464 -4.10155 0
M  V30 12299 C 1285.41 0.214635 -3.36216 0
M  V30 12300 O 1285.94 1.20916 -3.8307 0
M  V30 12301 N 1284.15 0.25468 -2.89482 0
M  V30 12302 H 1283.7 -0.555239 -2.51545 0
M  V30 12303 H 1283.65 1.12152 -2.93716 0
M  V30 12304 N 1287.43 1.02549 -1.19673 0
M  V30 12305 C 1288.34 2.14373 -0.952972 0
M  V30 12306 C 1289.35 1.73776 0.0881727 0
M  V30 12307 O 1290.53 2.01165 -0.0972471 0
M  V30 12308 C 1287.59 3.43096 -0.498569 0
M  V30 12309 C 1286.65 3.97987 -1.60951 0
M  V30 12310 C 1285.89 5.20567 -1.17669 0
M  V30 12311 O 1286.11 5.70385 -0.0416636 0
M  V30 12312 O 1285.04 5.6838 -1.98059 0
M  V30 12313 H 1288.87 2.378 -1.88904 0
M  V30 12314 H 1286.45 1.12781 -0.979836 0
M  V30 12315 H 1288.34 4.20634 -0.253968 0
M  V30 12316 H 1287.01 3.21105 0.409018 0
M  V30 12317 H 1285.92 3.21768 -1.90829 0
M  V30 12318 H 1287.25 4.24349 -2.49377 0
M  V30 12319 N 1288.9 1.00119 1.21713 0
M  V30 12320 C 1290.14 0.690044 1.924 0
M  V30 12321 C 1290.51 -0.764695 1.76115 0
M  V30 12322 O 1291.71 -1.18764 2.4114 0
M  V30 12323 C 1289.98 1.09491 3.40215 0
M  V30 12324 S 1291.54 0.903392 4.294 0
M  V30 12325 H 1288.36 0.252037 0.66483 0
M  V30 12326 H 1290.96 1.28521 1.47318 0
M  V30 12327 H 1289.66 2.14987 3.49584 0
M  V30 12328 H 1289.19 0.491878 3.90313 0
M  V30 12329 H 1291.21 -0.201597 4.9579 0
M  V30 12330 N 1290.38 -1.37203 0.775435 0
M  V30 12331 C 1291.29 -2.34019 0.165062 0
M  V30 12332 C 1292.31 -1.6036 -0.675316 0
M  V30 12333 O 1293.48 -1.9243 -0.594375 0
M  V30 12334 C 1290.55 -3.3954 -0.700957 0
M  V30 12335 C 1289.61 -4.29015 0.156304 0
M  V30 12336 C 1288.84 -5.29497 -0.668476 0
M  V30 12337 O 1289.07 -5.37636 -1.90535 0
M  V30 12338 O 1288 -6.01852 -0.0757351 0
M  V30 12339 H 1291.83 -2.87955 0.965184 0
M  V30 12340 H 1289.41 -1.39429 0.536654 0
M  V30 12341 H 1291.29 -4.04094 -1.19524 0
M  V30 12342 H 1289.97 -2.87926 -1.4792 0
M  V30 12343 H 1288.87 -3.67549 0.69703 0
M  V30 12344 H 1290.21 -4.83944 0.897725 0
M  V30 12345 N 1291.86 -0.526279 -1.48553 0
M  V30 12346 C 1293.08 0.00731432 -2.07399 0
M  V30 12347 C 1293.51 1.27737 -1.38075 0
M  V30 12348 O 1292.87 1.75741 -0.445503 0
M  V30 12349 C 1292.92 0.218126 -3.5994 0
M  V30 12350 O 1292.02 1.28759 -3.91784 0
M  V30 12351 H 1291.36 -0.0374784 -0.662941 0
M  V30 12352 H 1293.89 -0.733133 -1.91014 0
M  V30 12353 H 1293.9 0.44192 -4.056 0
M  V30 12354 H 1292.58 -0.709668 -4.09801 0
M  V30 12355 H 1291.15 1.04674 -3.57907 0
M  V30 12356 N 1293.34 1.5542 -0.261239 0
M  V30 12357 C 1294.58 1.99284 0.359487 0
M  V30 12358 C 1294.91 1.14954 1.56894 0
M  V30 12359 O 1294.17 0.203796 1.94636 0
M  V30 12360 C 1294.47 3.48354 0.799021 0
M  V30 12361 C 1294.13 4.49872 -0.30426 0
M  V30 12362 C 1292.79 4.77353 -0.607237 0
M  V30 12363 C 1295.15 5.10547 -1.04838 0
M  V30 12364 C 1292.47 5.62781 -1.65816 0
M  V30 12365 C 1294.83 5.97115 -2.08893 0
M  V30 12366 C 1293.49 6.22923 -2.3984 0
M  V30 12367 H 1292.76 0.72923 0.131546 0
M  V30 12368 H 1295.41 1.87851 -0.372058 0
M  V30 12369 H 1293.71 3.57192 1.61001 0
M  V30 12370 H 1295.41 3.7969 1.28981 0
M  V30 12371 H 1292 4.28561 -0.0579863 0
M  V30 12372 H 1296.18 4.89352 -0.827566 0
M  V30 12373 H 1291.44 5.81026 -1.90311 0
M  V30 12374 H 1295.61 6.43168 -2.67035 0
M  V30 12375 H 1293.24 6.88912 -3.2141 0
M  V30 12376 N 1294.82 -0.0116844 1.57596 0
M  V30 12377 C 1296.23 -0.55604 1.78228 0
M  V30 12378 C 1296.58 -1.74624 0.894474 0
M  V30 12379 O 1295.7 -2.16196 0.0938498 0
M  V30 12380 C 1296.3 -1.0155 3.23223 0
M  V30 12381 C 1294.86 -1.50525 3.44992 0
M  V30 12382 C 1294 -0.451133 2.73606 0
M  V30 12383 H 1296.95 0.214516 1.57243 0
M  V30 12384 H 1296.98 -1.88208 3.30693 0
M  V30 12385 H 1296.49 -0.149048 3.87814 0
M  V30 12386 H 1294.59 -2.39298 2.856 0
M  V30 12387 H 1294.7 -1.54076 4.53649 0
M  V30 12388 H 1293.07 -0.910135 2.37884 0
M  V30 12389 H 1293.85 0.406152 3.40889 0
M  V30 12390 N 1296.29 -1.55015 -0.284256 0
M  V30 12391 C 1297.54 -1.74744 -1.01532 0
M  V30 12392 C 1297.86 -0.545334 -1.87219 0
M  V30 12393 O 1297.13 0.440046 -1.90894 0
M  V30 12394 H 1295.71 -0.644382 -0.377864 0
M  V30 12395 H 1298.37 -1.92399 -0.311199 0
M  V30 12396 H 1297.47 -2.64369 -1.65878 0
M  V30 12397 N 1297.77 0.548248 -1.47757 0
M  V30 12398 C 1299.02 1.30694 -1.55071 0
M  V30 12399 C 1299.35 1.92994 -0.216075 0
M  V30 12400 O 1298.63 1.78341 0.776196 0
M  V30 12401 C 1298.91 2.41024 -2.67543 0
M  V30 12402 C 1298.76 1.83534 -4.10652 0
M  V30 12403 C 1300.08 3.42902 -2.75874 0
M  V30 12404 H 1297.2 0.47383 -0.564494 0
M  V30 12405 H 1299.84 0.612628 -1.79852 0
M  V30 12406 H 1297.99 3.00248 -2.46543 0
M  V30 12407 H 1299.66 1.28503 -4.4304 0
M  V30 12408 H 1297.91 1.14161 -4.18509 0
M  V30 12409 H 1298.58 2.63335 -4.85138 0
M  V30 12410 H 1301.05 2.9361 -2.94843 0
M  V30 12411 H 1299.93 4.17516 -3.5633 0
M  V30 12412 H 1300.19 4.02314 -1.83291 0
M  V30 12413 N 1299.25 1.36039 0.795694 0
M  V30 12414 C 1300.49 1.31295 1.56656 0
M  V30 12415 C 1300.85 -0.108324 1.91694 0
M  V30 12416 O 1302.05 -0.280248 2.67335 0
M  V30 12417 C 1300.33 2.20411 2.81343 0
M  V30 12418 S 1301.88 2.33289 3.71647 0
M  V30 12419 H 1298.7 0.46644 0.536614 0
M  V30 12420 H 1301.3 1.71544 0.937697 0
M  V30 12421 H 1300.01 3.22635 2.53643 0
M  V30 12422 H 1299.54 1.81158 3.49207 0
M  V30 12423 H 1301.55 1.52575 4.7216 0
M  V30 12424 N 1300.73 -1.01913 1.20215 0
M  V30 12425 C 1302.14 -1.5692 1.01159 0
M  V30 12426 C 1302.49 -1.91368 -0.432746 0
M  V30 12427 O 1301.62 -1.71959 -1.31374 0
M  V30 12428 C 1302.21 -2.85125 1.83001 0
M  V30 12429 C 1300.77 -3.36669 1.68318 0
M  V30 12430 C 1299.92 -2.10003 1.81091 0
M  V30 12431 H 1302.87 -0.843246 1.34443 0
M  V30 12432 H 1302.89 -3.56428 1.33188 0
M  V30 12433 H 1302.4 -2.60021 2.88116 0
M  V30 12434 H 1300.5 -3.66739 0.658292 0
M  V30 12435 H 1300.61 -4.09042 2.49442 0
M  V30 12436 H 1298.98 -2.22337 1.24252 0
M  V30 12437 H 1299.76 -1.87329 2.87685 0
M  V30 12438 N 1302.21 -1.00763 -1.2118 0
M  V30 12439 C 1303.15 -0.563428 -2.25673 0
M  V30 12440 C 1304.15 0.393342 -1.6477 0
M  V30 12441 O 1305.35 0.264246 -1.7805 0
M  V30 12442 H 1301.73 -0.163862 -0.73393 0
M  V30 12443 H 1303.7 -1.45585 -2.60476 0
M  V30 12444 C 1302.45 0.0915599 -3.47579 0
M  V30 12445 H 1301.77 -0.635628 -3.94715 0
M  V30 12446 H 1303.21 0.36561 -4.22421 0
M  V30 12447 C 1301.67 1.33159 -3.09468 0
M  V30 12448 O 1302.2 2.42571 -3.20191 0
M  V30 12449 N 1300.41 1.21231 -2.64105 0
M  V30 12450 H 1299.95 0.322021 -2.55579 0
M  V30 12451 H 1299.91 2.04301 -2.38974 0
M  V30 12452 N 1303.68 1.3679 -0.7827 0
M  V30 12453 C 1304.93 1.99023 -0.351316 0
M  V30 12454 C 1305.25 1.62436 1.07887 0
M  V30 12455 O 1304.52 0.895084 1.74256 0
M  V30 12456 H 1303.1 0.736141 -0.126909 0
M  V30 12457 H 1305.77 1.67095 -1.00325 0
M  V30 12458 H 1304.86 3.09015 -0.43774 0
M  V30 12459 N 1305.16 0.53415 1.48272 0
M  V30 12460 C 1306.58 0.192291 1.58437 0
M  V30 12461 C 1306.78 -1.3046 1.53566 0
M  V30 12462 O 1305.83 -2.08316 1.42692 0
M  V30 12463 C 1307.15 0.798515 2.89904 0
M  V30 12464 C 1308.7 0.76763 3.03441 0
M  V30 12465 C 1309.17 1.3525 4.37574 0
M  V30 12466 N 1310.66 1.31466 4.44152 0
M  V30 12467 C 1311.4 1.73706 5.46456 0
M  V30 12468 N 1310.89 2.23695 6.55692 0
M  V30 12469 N 1312.69 1.64918 5.37363 0
M  V30 12470 H 1304.84 1.50696 1.49681 0
M  V30 12471 H 1307.1 0.627073 0.710973 0
M  V30 12472 H 1306.81 1.8496 2.99136 0
M  V30 12473 H 1306.68 0.278033 3.76174 0
M  V30 12474 H 1309.07 -0.274704 2.93819 0
M  V30 12475 H 1309.15 1.32562 2.18771 0
M  V30 12476 H 1308.79 2.39379 4.47951 0
M  V30 12477 H 1308.72 0.770153 5.20938 0
M  V30 12478 H 1311.21 0.948761 3.65796 0
M  V30 12479 H 1311.53 2.5391 7.29897 0
M  V30 12480 H 1309.87 2.27691 6.56644 0
M  V30 12481 H 1313.06 1.25658 4.50919 0
M  V30 12482 H 1313.23 1.98157 6.16958 0
M  V30 12483 N 1306.64 -1.55279 0.269478 0
M  V30 12484 C 1307.88 -2.01378 -0.350174 0
M  V30 12485 C 1308.24 -1.15373 -1.5347 0
M  V30 12486 O 1309.45 -1.51027 -2.22361 0
M  V30 12487 C 1307.72 -3.49904 -0.728134 0
M  V30 12488 S 1309.28 -4.17995 -1.33512 0
M  V30 12489 H 1306.09 -0.702567 -0.109179 0
M  V30 12490 H 1308.7 -1.91571 0.389994 0
M  V30 12491 H 1307.4 -4.10151 0.142925 0
M  V30 12492 H 1306.93 -3.63684 -1.49991 0
M  V30 12493 H 1308.95 -4.21153 -2.62383 0
M  V30 12494 N 1308.12 0.00332656 -1.576 0
M  V30 12495 C 1309.36 0.68989 -1.90705 0
M  V30 12496 C 1309.7 1.73608 -0.870291 0
M  V30 12497 O 1308.97 1.94181 0.111416 0
M  V30 12498 C 1309.26 1.33605 -3.34397 0
M  V30 12499 C 1309.11 0.301638 -4.48787 0
M  V30 12500 C 1310.43 2.26313 -3.77453 0
M  V30 12501 H 1307.55 0.249328 -0.693545 0
M  V30 12502 H 1310.19 -0.0472847 -1.89941 0
M  V30 12503 H 1308.34 1.96437 -3.35179 0
M  V30 12504 H 1310.01 -0.326738 -4.60141 0
M  V30 12505 H 1308.25 -0.376451 -4.32163 0
M  V30 12506 H 1308.92 0.792741 -5.46278 0
M  V30 12507 H 1311.4 1.73502 -3.78201 0
M  V30 12508 H 1310.28 2.68492 -4.78752 0
M  V30 12509 H 1310.54 3.14082 -3.11135 0
M  V30 12510 N 1309.6 1.55164 0.276031 0
M  V30 12511 C 1310.54 1.88623 1.36104 0
M  V30 12512 C 1311.54 0.762265 1.51281 0
M  V30 12513 O 1312.74 0.946573 1.53101 0
M  V30 12514 H 1309.12 0.59863 0.455133 0
M  V30 12515 H 1311.09 2.79266 1.05134 0
M  V30 12516 C 1309.84 2.17207 2.71508 0
M  V30 12517 H 1309.16 3.03179 2.6062 0
M  V30 12518 H 1310.6 2.44541 3.46375 0
M  V30 12519 C 1309.06 0.978671 3.22372 0
M  V30 12520 O 1309.59 0.211766 4.01141 0
M  V30 12521 N 1307.8 0.777199 2.80014 0
M  V30 12522 H 1307.34 1.40252 2.16072 0
M  V30 12523 H 1307.3 -0.0196754 3.14394 0
M  V30 12524 N 1311.07 -0.540404 1.48045 0
M  V30 12525 C 1312.3 -1.32177 1.59175 0
M  V30 12526 C 1312.72 -1.87163 0.248115 0
M  V30 12527 O 1312.07 -1.65871 -0.761124 0
M  V30 12528 C 1312.13 -2.47995 2.63023 0
M  V30 12529 O 1311.85 -1.95278 3.92171 0
M  V30 12530 C 1313.35 -3.39967 2.84495 0
M  V30 12531 H 1310.57 -0.40233 0.537002 0
M  V30 12532 H 1313.11 -0.652983 1.93795 0
M  V30 12533 H 1311.27 -3.10779 2.31291 0
M  V30 12534 H 1311.68 -2.71012 4.49058 0
M  V30 12535 H 1313.15 -4.17607 3.60982 0
M  V30 12536 H 1313.63 -3.94555 1.92932 0
M  V30 12537 H 1314.24 -2.82985 3.1749 0
M  V30 12538 N 1312.55 -1.36459 -0.788468 0
M  V30 12539 C 1313.52 -1.3071 -1.88275 0
M  V30 12540 C 1314.52 -0.214596 -1.59362 0
M  V30 12541 O 1315.71 -0.469437 -1.67756 0
M  V30 12542 C 1312.84 -1.02648 -3.25079 0
M  V30 12543 H 1314.03 -2.28029 -1.94788 0
M  V30 12544 H 1311.58 -1.21245 -0.986375 0
M  V30 12545 H 1312.32 -0.0578992 -3.24248 0
M  V30 12546 H 1312.1 -1.81708 -3.47454 0
M  V30 12547 H 1313.59 -1.01233 -4.05144 0
M  V30 12548 N 1314.03 1.01274 -1.20754 0
M  V30 12549 C 1315.28 1.74586 -1.01804 0
M  V30 12550 C 1315.6 1.89727 0.450419 0
M  V30 12551 O 1314.87 1.44257 1.32539 0
M  V30 12552 H 1313.45 0.646804 -0.373702 0
M  V30 12553 H 1316.11 1.22079 -1.5193 0
M  V30 12554 H 1315.21 2.748 -1.47958 0
M  V30 12555 N 1315.51 1.01404 1.20644 0
M  V30 12556 C 1316.73 0.720839 1.9447 0
M  V30 12557 C 1317.16 -0.711711 1.74116 0
M  V30 12558 O 1316.52 -1.48938 1.03379 0
M  V30 12559 C 1316.57 1.05864 3.4471 0
M  V30 12560 O 1315.67 0.168901 4.12054 0
M  V30 12561 H 1315.01 0.267698 0.607646 0
M  V30 12562 H 1317.54 1.35672 1.53147 0
M  V30 12563 H 1317.55 1.00928 3.9532 0
M  V30 12564 H 1316.23 2.1024 3.58848 0
M  V30 12565 H 1314.8 0.275572 3.7188 0
M  V30 12566 N 1316.99 -1.36373 0.789944 0
M  V30 12567 C 1318.23 -1.99227 0.362582 0
M  V30 12568 C 1318.56 -1.62694 -1.06587 0
M  V30 12569 O 1317.82 -0.873748 -1.75112 0
M  V30 12570 C 1318.12 -3.54243 0.474025 0
M  V30 12571 C 1317.78 -4.10597 1.86336 0
M  V30 12572 C 1316.44 -4.257 2.24349 0
M  V30 12573 C 1318.8 -4.41306 2.77306 0
M  V30 12574 C 1316.12 -4.68824 3.52734 0
M  V30 12575 C 1318.48 -4.85861 4.05119 0
M  V30 12576 C 1317.14 -4.9917 4.43154 0
M  V30 12577 H 1316.41 -0.729025 0.132678 0
M  V30 12578 H 1319.06 -1.62854 1.00751 0
M  V30 12579 H 1317.36 -3.90973 -0.254399 0
M  V30 12580 H 1319.06 -4.00807 0.124384 0
M  V30 12581 H 1315.65 -3.99281 1.55797 0
M  V30 12582 H 1319.83 -4.29205 2.49191 0
M  V30 12583 H 1315.09 -4.77315 3.82073 0
M  V30 12584 H 1319.26 -5.08587 4.75723 0
M  V30 12585 H 1316.89 -5.32344 5.42692 0
M  V30 12586 N 1318.47 -0.542005 -1.47987 0
M  V30 12587 C 1319.88 -0.200691 -1.58333 0
M  V30 12588 C 1320.08 1.29643 -1.54256 0
M  V30 12589 O 1319.14 2.07556 -1.43794 0
M  V30 12590 C 1320.45 -0.813878 -2.89476 0
M  V30 12591 C 1322 -0.783711 -3.0303 0
M  V30 12592 C 1322.47 -1.37569 -4.36851 0
M  V30 12593 N 1323.96 -1.33819 -4.43449 0
M  V30 12594 C 1324.7 -1.76602 -5.45527 0
M  V30 12595 N 1324.2 -2.27169 -6.54497 0
M  V30 12596 N 1325.99 -1.67765 -5.3648 0
M  V30 12597 H 1318.14 -1.51488 -1.4888 0
M  V30 12598 H 1320.4 -0.630835 -0.707638 0
M  V30 12599 H 1320.11 -1.86544 -2.98151 0
M  V30 12600 H 1319.98 -0.297978 -3.76021 0
M  V30 12601 H 1322.37 0.259118 -2.9396 0
M  V30 12602 H 1322.45 -1.33721 -2.18065 0
M  V30 12603 H 1322.09 -2.41751 -4.46675 0
M  V30 12604 H 1322.02 -0.797769 -5.20522 0
M  V30 12605 H 1324.52 -0.968147 -3.65288 0
M  V30 12606 H 1324.83 -2.57777 -7.2854 0
M  V30 12607 H 1323.17 -2.31171 -6.55427 0
M  V30 12608 H 1326.36 -1.28048 -4.50246 0
M  V30 12609 H 1326.54 -2.01426 -6.15899 0
M  V30 12610 N 1319.94 1.55134 -0.277709 0
M  V30 12611 C 1321.18 2.01561 0.339489 0
M  V30 12612 C 1321.55 1.16185 1.52856 0
M  V30 12613 O 1322.75 1.52204 2.21556 0
M  V30 12614 C 1321.02 3.50285 0.709567 0
M  V30 12615 S 1322.58 4.18697 1.31293 0
M  V30 12616 H 1319.4 0.703137 0.105452 0
M  V30 12617 H 1322 1.91361 -0.400148 0
M  V30 12618 H 1320.7 4.10069 -0.164675 0
M  V30 12619 H 1320.23 3.64475 1.4806 0
M  V30 12620 H 1322.25 4.22539 2.60145 0
M  V30 12621 N 1321.42 0.00503138 1.57599 0
M  V30 12622 C 1322.33 -1.00097 2.12174 0
M  V30 12623 C 1323.35 -1.37353 1.06818 0
M  V30 12624 O 1324.52 -1.45984 1.38747 0
M  V30 12625 C 1321.59 -2.27252 2.61835 0
M  V30 12626 C 1320.65 -1.96262 3.81811 0
M  V30 12627 C 1319.88 -3.17355 4.29094 0
M  V30 12628 O 1320.11 -4.2921 3.75679 0
M  V30 12629 O 1319.04 -3.01059 5.21198 0
M  V30 12630 H 1322.87 -0.567024 2.9836 0
M  V30 12631 H 1320.45 -0.214109 1.47858 0
M  V30 12632 H 1322.33 -3.01944 2.93952 0
M  V30 12633 H 1321.01 -2.69875 1.78744 0
M  V30 12634 H 1319.91 -1.19031 3.54658 0
M  V30 12635 H 1321.25 -1.58473 4.65991 0
M  V30 12636 N 1322.9 -1.55308 -0.267798 0
M  V30 12637 C 1324.14 -1.77913 -1.0063 0
M  V30 12638 C 1324.5 -0.571149 -1.83308 0
M  V30 12639 O 1325.7 -0.675552 -2.60173 0
M  V30 12640 C 1323.98 -3.05112 -1.86123 0
M  V30 12641 S 1325.53 -3.48856 -2.66167 0
M  V30 12642 H 1322.35 -0.625065 -0.338843 0
M  V30 12643 H 1324.95 -1.93539 -0.276196 0
M  V30 12644 H 1323.66 -3.91118 -1.24317 0
M  V30 12645 H 1323.19 -2.92165 -2.63444 0
M  V30 12646 H 1325.2 -3.0854 -3.8861 0
M  V30 12647 N 1324.38 0.532545 -1.4833 0
M  V30 12648 C 1325.79 1.11451 -1.49785 0
M  V30 12649 C 1326.14 1.94386 -0.266207 0
M  V30 12650 O 1325.26 2.07121 0.62688 0
M  V30 12651 C 1325.86 2.0279 -2.71407 0
M  V30 12652 C 1324.42 2.56209 -2.75742 0
M  V30 12653 C 1323.57 1.33114 -2.43261 0
M  V30 12654 H 1326.52 0.317924 -1.55483 0
M  V30 12655 H 1326.54 2.87038 -2.49779 0
M  V30 12656 H 1326.05 1.42401 -3.61031 0
M  V30 12657 H 1324.15 3.20327 -1.9032 0
M  V30 12658 H 1324.26 2.95518 -3.77102 0
M  V30 12659 H 1322.63 1.64607 -1.94362 0
M  V30 12660 H 1323.41 0.744809 -3.35123 0
M  V30 12661 N 1325.86 1.36875 0.78122 0
M  V30 12662 C 1326.77 1.3404 1.92537 0
M  V30 12663 C 1327.78 0.241354 1.72318 0
M  V30 12664 O 1328.96 0.475128 1.95715 0
M  V30 12665 C 1326.02 1.13708 3.27523 0
M  V30 12666 C 1325.08 2.33165 3.60462 0
M  V30 12667 C 1324.32 2.13793 4.89007 0
M  V30 12668 O 1324.54 1.11732 5.5935 0
M  V30 12669 O 1323.47 3.01762 5.20791 0
M  V30 12670 H 1327.3 2.30386 1.97879 0
M  V30 12671 H 1324.88 1.17506 0.922637 0
M  V30 12672 H 1326.77 1.0432 4.08283 0
M  V30 12673 H 1325.44 0.204306 3.23055 0
M  V30 12674 H 1324.35 2.48123 2.79974 0
M  V30 12675 H 1325.68 3.24977 3.69663 0
M  V30 12676 N 1327.33 -1.00632 1.21289 0
M  V30 12677 C 1328.58 -1.74044 1.02728 0
M  V30 12678 C 1328.9 -1.89963 -0.440351 0
M  V30 12679 O 1328.17 -1.44958 -1.31772 0
M  V30 12680 H 1326.75 -0.644813 0.377127 0
M  V30 12681 H 1329.41 -1.21272 1.52575 0
M  V30 12682 H 1328.51 -2.74011 1.49413 0
M  V30 12683 N 1328.81 -1.02043 -1.20104 0
M  V30 12684 C 1329.74 -0.614421 -2.25271 0
M  V30 12685 C 1330.72 0.37242 -1.65973 0
M  V30 12686 O 1331.91 0.257005 -1.92492 0
M  V30 12687 C 1329.04 0.0442085 -3.47272 0
M  V30 12688 C 1327.99 -0.864019 -4.19188 0
M  V30 12689 C 1327.32 -0.0709551 -5.34653 0
M  V30 12690 C 1328.62 -2.17385 -4.74912 0
M  V30 12691 H 1330.31 -1.49355 -2.59487 0
M  V30 12692 H 1327.86 -0.719591 -1.24731 0
M  V30 12693 H 1329.81 0.339825 -4.20028 0
M  V30 12694 H 1328.53 0.958082 -3.12231 0
M  V30 12695 H 1327.19 -1.1437 -3.48303 0
M  V30 12696 H 1326.84 0.844688 -4.95857 0
M  V30 12697 H 1326.54 -0.67583 -5.83701 0
M  V30 12698 H 1328.07 0.218118 -6.1021 0
M  V30 12699 H 1329.48 -1.94034 -5.39466 0
M  V30 12700 H 1327.88 -2.72991 -5.34412 0
M  V30 12701 H 1328.95 -2.83427 -3.93443 0
M  V30 12702 N 1330.29 1.35952 -0.797165 0
M  V30 12703 C 1331.22 2.27728 -0.146693 0
M  V30 12704 C 1332.2 1.47616 0.68178 0
M  V30 12705 O 1333.39 1.76898 0.651094 0
M  V30 12706 C 1330.51 3.29179 0.797442 0
M  V30 12707 C 1329.56 4.26471 0.0497851 0
M  V30 12708 S 1330.39 5.19982 -1.2798 0
M  V30 12709 C 1331.55 6.24977 -0.339864 0
M  V30 12710 H 1331.78 2.82549 -0.924834 0
M  V30 12711 H 1329.31 1.4261 -0.591759 0
M  V30 12712 H 1331.27 3.88127 1.33669 0
M  V30 12713 H 1329.93 2.73255 1.54889 0
M  V30 12714 H 1329.13 4.98138 0.766487 0
M  V30 12715 H 1328.73 3.71643 -0.419219 0
M  V30 12716 H 1331.02 6.75809 0.478412 0
M  V30 12717 H 1331.96 7.00636 -1.02544 0
M  V30 12718 H 1332.37 5.64468 0.0602491 0
M  V30 12719 N 1331.77 0.549846 1.47697 0
M  V30 12720 C 1332.7 -0.190364 2.32723 0
M  V30 12721 C 1333.68 -0.915933 1.43334 0
M  V30 12722 O 1334.86 -0.897838 1.72199 0
M  V30 12723 C 1331.99 -1.22545 3.24961 0
M  V30 12724 C 1330.95 -0.616805 4.23532 0
M  V30 12725 C 1330.27 -1.75599 5.05044 0
M  V30 12726 C 1331.57 0.424595 5.20571 0
M  V30 12727 H 1333.27 0.519461 2.94859 0
M  V30 12728 H 1330.81 0.251259 1.41791 0
M  V30 12729 H 1332.77 -1.75139 3.83281 0
M  V30 12730 H 1331.49 -1.96512 2.60865 0
M  V30 12731 H 1330.15 -0.112224 3.66428 0
M  V30 12732 H 1329.8 -2.48453 4.37356 0
M  V30 12733 H 1329.5 -1.35456 5.71774 0
M  V30 12734 H 1331.02 -2.28533 5.6622 0
M  V30 12735 H 1332.44 -0.0150025 5.73298 0
M  V30 12736 H 1330.83 0.7445 5.95464 0
M  V30 12737 H 1331.9 1.32318 4.66497 0
M  V30 12738 N 1333.25 -1.54984 0.285932 0
M  V30 12739 C 1334.52 -1.91872 -0.380083 0
M  V30 12740 C 1334.9 -1.21146 -1.72878 0
M  V30 12741 O 1334.25 -0.341999 -2.25926 0
M  V30 12742 C 1334.46 -3.45258 -0.509667 0
M  V30 12743 C 1335.81 -4.17232 -0.787549 0
M  V30 12744 O 1336.83 -3.51211 -0.594062 0
M  V30 12745 O 1335.69 -5.34085 -1.15826 0
M  V30 12746 H 1332.79 -0.799931 -0.209856 0
M  V30 12747 H 1335.33 -1.66403 0.332882 0
M  V30 12748 H 1334.1 -3.88829 0.439049 0
M  V30 12749 H 1333.73 -3.76715 -1.27168 0
M  V30 12750 N 1334.72 -0.0133892 -1.57594 0
M  V30 12751 C 1335.69 0.958601 -2.08191 0
M  V30 12752 C 1336.69 1.26408 -0.993865 0
M  V30 12753 O 1337.88 1.20703 -1.25604 0
M  V30 12754 C 1335.01 2.27971 -2.5346 0
M  V30 12755 H 1336.2 0.520686 -2.95345 0
M  V30 12756 H 1333.76 0.234351 -1.54533 0
M  V30 12757 H 1334.49 2.76424 -1.69588 0
M  V30 12758 H 1334.28 2.07116 -3.32935 0
M  V30 12759 H 1335.77 2.97672 -2.92884 0
M  V30 12760 N 1336.2 1.55448 0.259558 0
M  V30 12761 C 1337.43 1.81063 1.01148 0
M  V30 12762 C 1337.85 0.58875 1.78649 0
M  V30 12763 O 1337.21 -0.461971 1.75315 0
M  V30 12764 C 1337.26 3.04279 1.93512 0
M  V30 12765 O 1336.36 2.80307 3.02493 0
M  V30 12766 H 1335.7 0.598056 0.288487 0
M  V30 12767 H 1338.23 2.02614 0.284387 0
M  V30 12768 H 1338.24 3.33373 2.35215 0
M  V30 12769 H 1336.92 3.92856 1.36518 0
M  V30 12770 H 1335.5 2.62345 2.65008 0
M  V30 12771 N 1337.68 -0.524672 1.4861 0
M  V30 12772 C 1338.93 -1.27768 1.56588 0
M  V30 12773 C 1339.25 -1.93469 0.243899 0
M  V30 12774 O 1338.52 -1.8159 -0.734985 0
M  V30 12775 H 1337.1 -0.474566 0.576885 0
M  V30 12776 H 1339.76 -0.610114 1.85104 0
M  V30 12777 H 1338.86 -2.05416 2.34969 0
M  V30 12778 N 1339.16 -1.37287 -0.77395 0
M  V30 12779 C 1340.57 -1.18039 -1.0742 0
M  V30 12780 C 1340.77 -0.0150339 -2.01494 0
M  V30 12781 O 1339.83 0.645562 -2.44108 0
M  V30 12782 C 1341.14 -2.49808 -1.67382 0
M  V30 12783 C 1342.69 -2.5631 -1.7965 0
M  V30 12784 C 1343.17 -3.88204 -2.43025 0
M  V30 12785 N 1344.66 -3.89634 -2.50478 0
M  V30 12786 C 1345.39 -4.88437 -3.00361 0
M  V30 12787 N 1344.89 -5.97635 -3.50434 0
M  V30 12788 N 1346.68 -4.75843 -2.99215 0
M  V30 12789 H 1338.83 -2.11875 -0.149269 0
M  V30 12790 H 1341.1 -0.939203 -0.128846 0
M  V30 12791 H 1340.8 -3.35433 -1.05726 0
M  V30 12792 H 1340.68 -2.66737 -2.66704 0
M  V30 12793 H 1343.06 -1.71094 -2.40439 0
M  V30 12794 H 1343.14 -2.43266 -0.790894 0
M  V30 12795 H 1342.79 -4.73834 -1.82876 0
M  V30 12796 H 1342.72 -3.98551 -3.44187 0
M  V30 12797 H 1345.21 -3.10751 -2.15039 0
M  V30 12798 H 1345.52 -6.6898 -3.86893 0
M  V30 12799 H 1343.87 -6.01283 -3.48545 0
M  V30 12800 H 1347.06 -3.89656 -2.59395 0
M  V30 12801 H 1347.23 -5.52999 -3.37781 0
M  V30 12802 N 1340.64 0.999871 -1.21821 0
M  V30 12803 C 1341.57 2.10708 -1.00621 0
M  V30 12804 C 1342.55 1.69954 0.0705417 0
M  V30 12805 O 1343.73 1.9399 -0.0903042 0
M  V30 12806 C 1340.86 3.42496 -0.575646 0
M  V30 12807 C 1339.82 3.97068 -1.59754 0
M  V30 12808 C 1339.14 5.24822 -1.02304 0
M  V30 12809 C 1340.44 4.28545 -2.98574 0
M  V30 12810 H 1342.14 2.28701 -1.93226 0
M  V30 12811 H 1339.68 1.09903 -0.930443 0
M  V30 12812 H 1341.64 4.19357 -0.414481 0
M  V30 12813 H 1340.36 3.2431 0.386059 0
M  V30 12814 H 1339.02 3.22332 -1.74636 0
M  V30 12815 H 1338.67 5.02972 -0.0529016 0
M  V30 12816 H 1338.37 5.62299 -1.70567 0
M  V30 12817 H 1339.89 6.04322 -0.873312 0
M  V30 12818 H 1341.3 4.96229 -2.87106 0
M  V30 12819 H 1339.7 4.77178 -3.63897 0
M  V30 12820 H 1340.77 3.36607 -3.49032 0
M  V30 12821 N 1342.11 1.02678 1.19562 0
M  V30 12822 C 1343.35 0.7307 1.90893 0
M  V30 12823 C 1343.72 -0.727166 1.77697 0
M  V30 12824 O 1344.92 -1.13623 2.43605 0
M  V30 12825 C 1343.19 1.16683 3.37816 0
M  V30 12826 S 1344.75 0.994271 4.27387 0
M  V30 12827 H 1341.57 0.266082 0.659334 0
M  V30 12828 H 1344.17 1.31617 1.44558 0
M  V30 12829 H 1342.87 2.22354 3.44945 0
M  V30 12830 H 1342.4 0.574559 3.89182 0
M  V30 12831 H 1344.42 -0.0963871 4.96106 0
M  V30 12832 N 1343.59 -1.35528 0.804364 0
M  V30 12833 C 1344.84 -1.99126 0.384261 0
M  V30 12834 C 1345.17 -1.63668 -1.0453 0
M  V30 12835 O 1344.45 -0.898896 -1.72482 0
M  V30 12836 C 1344.73 -3.55636 0.565278 0
M  V30 12837 C 1344.58 -4.00899 2.03961 0
M  V30 12838 C 1345.9 -4.40099 -0.0104301 0
M  V30 12839 H 1343.02 -0.723369 0.141092 0
M  V30 12840 H 1345.66 -1.60712 1.01348 0
M  V30 12841 H 1343.81 -3.88489 0.0296425 0
M  V30 12842 H 1345.48 -3.78465 2.63746 0
M  V30 12843 H 1343.73 -3.5189 2.53685 0
M  V30 12844 H 1344.4 -5.09785 2.11716 0
M  V30 12845 H 1346.87 -4.13692 0.446985 0
M  V30 12846 H 1345.75 -5.48705 0.146155 0
M  V30 12847 H 1346.01 -4.28096 -1.10392 0
M  V30 12848 N 1345.07 -0.557671 -1.47404 0
M  V30 12849 C 1346.35 0.031908 -1.95574 0
M  V30 12850 C 1346.73 1.48509 -1.50027 0
M  V30 12851 O 1346.08 2.16209 -0.73932 0
M  V30 12852 C 1346.29 -0.114055 -3.48814 0
M  V30 12853 C 1347.63 0.0310533 -4.24589 0
M  V30 12854 O 1348.66 -0.041626 -3.56176 0
M  V30 12855 O 1347.52 0.187487 -5.46178 0
M  V30 12856 H 1344.61 0.0638747 -0.82453 0
M  V30 12857 H 1347.16 -0.624227 -1.57802 0
M  V30 12858 H 1345.93 -1.12525 -3.74772 0
M  V30 12859 H 1345.55 0.57967 -3.93352 0
M  V30 12860 N 1346.55 1.54831 -0.294147 0
M  V30 12861 C 1347.8 2.00298 0.317605 0
M  V30 12862 C 1348.13 1.18228 1.54064 0
M  V30 12863 O 1347.4 0.257034 1.92794 0
M  V30 12864 C 1347.69 3.53602 0.680991 0
M  V30 12865 C 1347.54 4.46416 -0.550711 0
M  V30 12866 C 1348.86 4.13379 1.51016 0
M  V30 12867 H 1345.98 0.728135 0.113965 0
M  V30 12868 H 1348.62 1.85636 -0.404883 0
M  V30 12869 H 1346.77 3.66227 1.29654 0
M  V30 12870 H 1348.44 4.45707 -1.18922 0
M  V30 12871 H 1346.68 4.17294 -1.18524 0
M  V30 12872 H 1347.36 5.51423 -0.252412 0
M  V30 12873 H 1349.83 4.04148 0.99012 0
M  V30 12874 H 1348.71 5.20818 1.73321 0
M  V30 12875 H 1348.97 3.64817 2.49722 0
M  V30 12876 N 1348.03 0.0217466 1.57585 0
M  V30 12877 C 1349.44 -0.334576 1.56054 0
M  V30 12878 C 1349.64 -1.73386 1.02663 0
M  V30 12879 O 1348.7 -2.43447 0.670078 0
M  V30 12880 C 1350.01 -0.189919 3.001 0
M  V30 12881 C 1351.56 -0.263238 3.11891 0
M  V30 12882 C 1352.04 -0.147455 4.57763 0
M  V30 12883 N 1353.53 -0.204672 4.62748 0
M  V30 12884 C 1354.26 -0.138755 5.73232 0
M  V30 12885 N 1353.76 -0.0221762 6.92796 0
M  V30 12886 N 1355.55 -0.192206 5.61771 0
M  V30 12887 H 1347.7 0.936849 1.90622 0
M  V30 12888 H 1349.96 0.361119 0.876526 0
M  V30 12889 H 1349.67 0.773687 3.43084 0
M  V30 12890 H 1349.54 -0.963148 3.64696 0
M  V30 12891 H 1351.93 -1.2173 2.68823 0
M  V30 12892 H 1352.01 0.540241 2.5003 0
M  V30 12893 H 1351.66 0.803155 5.0151 0
M  V30 12894 H 1351.59 -0.969703 5.17595 0
M  V30 12895 H 1354.08 -0.29522 3.76745 0
M  V30 12896 H 1354.39 0.021631 7.72797 0
M  V30 12897 H 1352.74 0.0125033 6.94999 0
M  V30 12898 H 1355.93 -0.28163 4.67252 0
M  V30 12899 H 1356.1 -0.137372 6.47854 0
M  V30 12900 N 1349.51 -1.55583 -0.251311 0
M  V30 12901 C 1350.44 -1.9296 -1.31486 0
M  V30 12902 C 1351.42 -0.794001 -1.50431 0
M  V30 12903 O 1352.6 -1.05393 -1.63113 0
M  V30 12904 C 1349.73 -2.22046 -2.67045 0
M  V30 12905 C 1348.69 -3.37816 -2.62801 0
M  V30 12906 C 1348.01 -3.52433 -4.02113 0
M  V30 12907 C 1349.31 -4.73626 -2.20171 0
M  V30 12908 H 1351.01 -2.82046 -1.00451 0
M  V30 12909 H 1348.55 -1.35702 -0.481775 0
M  V30 12910 H 1350.5 -2.46783 -3.41579 0
M  V30 12911 H 1349.23 -1.29782 -2.99707 0
M  V30 12912 H 1347.89 -3.13081 -1.90724 0
M  V30 12913 H 1347.54 -2.57597 -4.32034 0
M  V30 12914 H 1347.24 -4.30283 -4.00163 0
M  V30 12915 H 1348.76 -3.79486 -4.78354 0
M  V30 12916 H 1350.17 -4.97764 -2.84436 0
M  V30 12917 H 1348.57 -5.54547 -2.29341 0
M  V30 12918 H 1349.64 -4.70985 -1.1533 0
M  V30 12919 N 1350.98 0.516783 -1.48886 0
M  V30 12920 C 1351.89 1.6467 -1.67095 0
M  V30 12921 C 1352.91 1.64963 -0.553466 0
M  V30 12922 O 1354.09 1.83673 -0.826206 0
M  V30 12923 C 1351.15 3.01095 -1.71879 0
M  V30 12924 C 1350.21 3.11554 -2.95352 0
M  V30 12925 C 1349.44 4.41471 -2.99898 0
M  V30 12926 O 1349.67 5.29348 -2.12477 0
M  V30 12927 O 1348.6 4.56573 -3.92205 0
M  V30 12928 H 1352.43 1.52242 -2.62785 0
M  V30 12929 H 1350.01 0.69134 -1.32442 0
M  V30 12930 H 1351.89 3.82207 -1.77471 0
M  V30 12931 H 1350.57 3.1382 -0.793656 0
M  V30 12932 H 1349.48 2.29689 -2.95286 0
M  V30 12933 H 1350.81 3.03751 -3.87294 0
M  V30 12934 N 1352.46 1.37696 0.766659 0
M  V30 12935 C 1353.87 1.29668 1.34324 0
M  V30 12936 C 1354.22 -0.0534297 1.96127 0
M  V30 12937 O 1353.35 -0.95534 1.94171 0
M  V30 12938 C 1353.94 2.34818 2.44225 0
M  V30 12939 C 1352.5 2.3041 2.97638 0
M  V30 12940 C 1351.65 2.18378 1.70899 0
M  V30 12941 H 1354.6 1.48244 0.566526 0
M  V30 12942 H 1354.62 1.99778 3.23835 0
M  V30 12943 H 1354.13 3.3307 1.99214 0
M  V30 12944 H 1352.23 1.35698 3.47011 0
M  V30 12945 H 1352.35 3.24028 3.52906 0
M  V30 12946 H 1350.71 1.65008 1.94021 0
M  V30 12947 H 1351.49 3.18551 1.27985 0
M  V30 12948 N 1353.94 -0.993397 1.22349 0
M  V30 12949 C 1355.18 -1.74807 1.05933 0
M  V30 12950 C 1355.54 -1.87815 -0.398702 0
M  V30 12951 O 1356.74 -2.5996 -0.683703 0
M  V30 12952 C 1355.02 -3.11601 1.75042 0
M  V30 12953 S 1356.57 -4.02813 1.74032 0
M  V30 12954 H 1353.39 -0.601331 0.379371 0
M  V30 12955 H 1355.99 -1.18777 1.55282 0
M  V30 12956 H 1354.7 -2.99775 2.80291 0
M  V30 12957 H 1354.23 -3.72703 1.25922 0
M  V30 12958 H 1356.24 -4.89876 0.789658 0
M  V30 12959 N 1355.42 -1.03311 -1.19015 0
M  V30 12960 C 1356.66 -0.732039 -1.88805 0
M  V30 12961 C 1356.99 0.739688 -1.79886 0
M  V30 12962 O 1356.25 1.55476 -1.18851 0
M  V30 12963 C 1356.55 -1.13402 -3.38932 0
M  V30 12964 C 1356.21 -2.60473 -3.68055 0
M  V30 12965 C 1354.87 -3.00654 -3.75713 0
M  V30 12966 C 1357.23 -3.55604 -3.81045 0
M  V30 12967 C 1354.55 -4.3487 -3.93833 0
M  V30 12968 C 1356.91 -4.89529 -4.00679 0
M  V30 12969 C 1355.57 -5.29392 -4.06571 0
M  V30 12970 H 1354.84 -0.267872 -0.690888 0
M  V30 12971 H 1357.49 -1.29673 -1.40915 0
M  V30 12972 H 1355.79 -0.487997 -3.88749 0
M  V30 12973 H 1357.49 -0.878532 -3.91258 0
M  V30 12974 H 1354.08 -2.28348 -3.62706 0
M  V30 12975 H 1358.26 -3.25711 -3.74467 0
M  V30 12976 H 1353.52 -4.65285 -3.96636 0
M  V30 12977 H 1357.69 -5.63153 -4.09672 0
M  V30 12978 H 1355.32 -6.33402 -4.20364 0
M  V30 12979 N 1356.9 1.35099 -0.81154 0
M  V30 12980 C 1357.83 2.32264 -0.239925 0
M  V30 12981 C 1358.81 1.57708 0.637354 0
M  V30 12982 O 1359.99 1.85751 0.566598 0
M  V30 12983 C 1357.12 3.41931 0.608325 0
M  V30 12984 C 1356.08 4.27659 -0.170869 0
M  V30 12985 C 1355.4 5.28691 0.799398 0
M  V30 12986 C 1356.7 5.0394 -1.37266 0
M  V30 12987 H 1358.4 2.8032 -1.05172 0
M  V30 12988 H 1355.94 1.34773 -0.507185 0
M  V30 12989 H 1357.89 4.08911 1.01832 0
M  V30 12990 H 1356.62 2.92496 1.45306 0
M  V30 12991 H 1355.28 3.62265 -0.562094 0
M  V30 12992 H 1354.93 4.75521 1.63977 0
M  V30 12993 H 1354.63 5.86921 0.282331 0
M  V30 12994 H 1356.15 5.98542 1.20749 0
M  V30 12995 H 1357.56 5.63838 -1.03728 0
M  V30 12996 H 1355.96 5.7169 -1.82456 0
M  V30 12997 H 1357.03 4.34295 -2.15676 0
M  V30 12998 N 1358.37 0.56548 1.47106 0
M  V30 12999 C 1359.79 0.225855 1.57994 0
M  V30 13000 C 1359.99 -1.27173 1.56299 0
M  V30 13001 O 1359.05 -2.05242 1.47078 0
M  V30 13002 C 1360.36 0.859829 2.88145 0
M  V30 13003 C 1361.91 0.831821 3.01744 0
M  V30 13004 C 1362.38 1.44502 4.34607 0
M  V30 13005 N 1363.87 1.40857 4.41263 0
M  V30 13006 C 1364.61 1.85258 5.42648 0
M  V30 13007 N 1364.1 2.37553 6.508 0
M  V30 13008 N 1365.9 1.76279 5.33744 0
M  V30 13009 H 1358.05 1.53837 1.46451 0
M  V30 13010 H 1360.31 0.642013 0.697512 0
M  V30 13011 H 1360.02 1.91264 2.95146 0
M  V30 13012 H 1359.89 0.357762 3.755 0
M  V30 13013 H 1362.28 -0.212319 2.94335 0
M  V30 13014 H 1362.36 1.37173 2.1591 0
M  V30 13015 H 1362 2.48827 4.42773 0
M  V30 13016 H 1361.93 0.880479 5.19187 0
M  V30 13017 H 1364.42 1.02614 3.63702 0
M  V30 13018 H 1364.74 2.69335 7.24347 0
M  V30 13019 H 1363.08 2.41569 6.51667 0
M  V30 13020 H 1366.27 1.35195 4.48152 0
M  V30 13021 H 1366.45 2.11199 6.12616 0
M  V30 13022 N 1359.85 -1.54672 0.302354 0
M  V30 13023 C 1361.1 -2.01178 -0.299842 0
M  V30 13024 C 1361.45 -1.18698 -1.51422 0
M  V30 13025 O 1360.75 -0.255677 -1.89886 0
M  V30 13026 C 1360.94 -3.5035 -0.70638 0
M  V30 13027 C 1360.77 -4.47268 0.467051 0
M  V30 13028 C 1359.54 -4.96107 0.959494 0
M  V30 13029 C 1361.74 -4.97272 1.31245 0
M  V30 13030 N 1359.72 -5.76881 2.09955 0
M  V30 13031 C 1361.09 -5.75761 2.29997 0
M  V30 13032 C 1363.15 -4.79455 1.34267 0
M  V30 13033 C 1361.85 -6.38332 3.31549 0
M  V30 13034 C 1363.87 -5.42845 2.34677 0
M  V30 13035 C 1363.24 -6.21168 3.32159 0
M  V30 13036 H 1359.34 -0.778477 -0.0741425 0
M  V30 13037 H 1361.92 -1.89834 0.432577 0
M  V30 13038 H 1360.09 -3.61982 -1.40797 0
M  V30 13039 H 1361.82 -3.83649 -1.28823 0
M  V30 13040 H 1358.58 -4.70577 0.534246 0
M  V30 13041 H 1359 -6.21953 2.67401 0
M  V30 13042 H 1363.64 -4.18482 0.602738 0
M  V30 13043 H 1361.36 -6.98438 4.0646 0
M  V30 13044 H 1364.95 -5.30987 2.37791 0
M  V30 13045 H 1363.83 -6.69349 4.08584 0
M  V30 13046 N 1361.33 -0.0301034 -1.57571 0
M  V30 13047 C 1362.61 0.68703 -1.83137 0
M  V30 13048 C 1362.99 1.90277 -0.914216 0
M  V30 13049 O 1362.34 2.2848 0.0299358 0
M  V30 13050 C 1362.55 1.06431 -3.32375 0
M  V30 13051 C 1363.89 1.45554 -3.98873 0
M  V30 13052 O 1364.92 1.15727 -3.36877 0
M  V30 13053 O 1363.78 2.01133 -5.08142 0
M  V30 13054 H 1360.87 0.337141 -0.755159 0
M  V30 13055 H 1363.42 -0.0578604 -1.69601 0
M  V30 13056 H 1362.19 0.199077 -3.90793 0
M  V30 13057 H 1361.81 1.86734 -3.51022 0
M  V30 13058 N 1362.81 1.55714 0.243056 0
M  V30 13059 C 1363.72 1.93777 1.32241 0
M  V30 13060 C 1364.73 0.838709 1.52452 0
M  V30 13061 O 1365.91 1.14044 1.66 0
M  V30 13062 C 1362.98 2.22808 2.65627 0
M  V30 13063 C 1362.04 3.46166 2.53904 0
M  V30 13064 C 1361.27 3.73802 3.8093 0
M  V30 13065 O 1361.49 3.0345 4.82985 0
M  V30 13066 O 1360.43 4.67323 3.79332 0
M  V30 13067 H 1364.25 2.85718 1.02951 0
M  V30 13068 H 1361.84 1.42646 0.444135 0
M  V30 13069 H 1363.72 2.4277 3.44442 0
M  V30 13070 H 1362.39 1.34045 2.94642 0
M  V30 13071 H 1361.3 3.31506 1.73362 0
M  V30 13072 H 1362.63 4.35244 2.29834 0
M  V30 13073 N 1364.29 -0.50888 1.49158 0
M  V30 13074 C 1365.56 -1.27021 1.48745 0
M  V30 13075 C 1365.94 -2.10045 0.210772 0
M  V30 13076 O 1365.29 -2.13773 -0.807061 0
M  V30 13077 C 1365.5 -2.13367 2.76181 0
M  V30 13078 C 1366.85 -2.72815 3.25357 0
M  V30 13079 O 1367.87 -2.23639 2.77243 0
M  V30 13080 O 1366.73 -3.62316 4.09133 0
M  V30 13081 H 1363.83 -0.574387 0.594986 0
M  V30 13082 H 1366.37 -0.523798 1.61414 0
M  V30 13083 H 1365.14 -1.51941 3.60596 0
M  V30 13084 H 1364.77 -2.95215 2.66334 0
M  V30 13085 N 1365.76 -1.381 -0.759346 0
M  V30 13086 C 1366.67 -1.37086 -1.9038 0
M  V30 13087 C 1367.69 -0.268738 -1.71912 0
M  V30 13088 O 1368.87 -0.506205 -1.94935 0
M  V30 13089 C 1365.93 -1.18905 -3.25672 0
M  V30 13090 C 1364.99 -2.3887 -3.56707 0
M  V30 13091 C 1364.23 -2.21546 -4.85544 0
M  V30 13092 O 1364.45 -1.20616 -5.57501 0
M  V30 13093 O 1363.38 -3.10009 -5.15924 0
M  V30 13094 H 1367.21 -2.33505 -1.94188 0
M  V30 13095 H 1364.79 -1.18959 -0.903826 0
M  V30 13096 H 1366.68 -1.10803 -4.06572 0
M  V30 13097 H 1365.35 -0.255675 -3.22689 0
M  V30 13098 H 1364.26 -2.52546 -2.75992 0
M  V30 13099 H 1365.59 -3.30817 -3.64446 0
M  V30 13100 N 1367.24 0.986894 -1.22875 0
M  V30 13101 C 1368.48 1.74243 -1.06859 0
M  V30 13102 C 1368.85 1.88024 0.388736 0
M  V30 13103 O 1370.05 2.60318 0.669907 0
M  V30 13104 C 1368.32 3.10668 -1.76692 0
M  V30 13105 S 1369.88 4.01884 -1.76166 0
M  V30 13106 H 1366.7 0.59931 -0.382555 0
M  V30 13107 H 1369.3 1.17951 -1.55909 0
M  V30 13108 H 1368 2.98285 -2.81877 0
M  V30 13109 H 1367.53 3.7203 -1.27897 0
M  V30 13110 H 1369.55 4.89451 -0.815627 0
M  V30 13111 N 1368.72 1.0394 1.18466 0
M  V30 13112 C 1369.97 0.740576 1.88042 0
M  V30 13113 C 1370.29 -0.733822 1.80666 0
M  V30 13114 O 1369.56 -1.52943 1.22414 0
M  V30 13115 H 1368.14 0.270949 0.696129 0
M  V30 13116 H 1370.8 1.31588 1.43772 0
M  V30 13117 H 1369.9 1.04429 2.94111 0
M  V30 13118 N 1370.2 -1.34667 0.818693 0
M  V30 13119 C 1371.44 -1.98708 0.405359 0
M  V30 13120 C 1371.78 -1.64767 -1.02788 0
M  V30 13121 O 1371.05 -0.91714 -1.71519 0
M  V30 13122 C 1371.34 -3.55016 0.602966 0
M  V30 13123 C 1371.19 -3.98713 2.08201 0
M  V30 13124 C 1372.51 -4.40085 0.0362489 0
M  V30 13125 H 1369.63 -0.721831 0.148756 0
M  V30 13126 H 1372.27 -1.59628 1.03047 0
M  V30 13127 H 1370.42 -3.88435 0.0708453 0
M  V30 13128 H 1372.09 -3.75647 2.67745 0
M  V30 13129 H 1370.33 -3.49179 2.57403 0
M  V30 13130 H 1371 -5.0751 2.17111 0
M  V30 13131 H 1373.48 -4.13195 0.490837 0
M  V30 13132 H 1372.36 -5.4852 0.204344 0
M  V30 13133 H 1372.62 -4.29243 -1.05845 0
M  V30 13134 N 1371.68 -0.573274 -1.46804 0
M  V30 13135 C 1372.9 -0.0605984 -2.06811 0
M  V30 13136 C 1373.32 1.24024 -1.4235 0
M  V30 13137 O 1372.68 1.7477 -0.525515 0
M  V30 13138 C 1372.73 0.121828 -3.61295 0
M  V30 13139 O 1372.45 -1.12751 -4.23342 0
M  V30 13140 C 1373.95 0.669941 -4.38208 0
M  V30 13141 H 1371.17 -0.0531498 -0.668892 0
M  V30 13142 H 1373.71 -0.791259 -1.88572 0
M  V30 13143 H 1371.87 0.802674 -3.78993 0
M  V30 13144 H 1372.28 -0.935361 -5.16092 0
M  V30 13145 H 1373.76 0.746806 -5.46925 0
M  V30 13146 H 1374.23 1.68483 -4.05598 0
M  V30 13147 H 1374.84 0.0242721 -4.25293 0
M  V30 13148 N 1373.15 1.5451 -0.310553 0
M  V30 13149 C 1374.08 2.26827 0.554243 0
M  V30 13150 C 1375.07 1.27133 1.13009 0
M  V30 13151 O 1376.25 1.55923 1.15765 0
M  V30 13152 C 1373.38 3.01626 1.7216 0
M  V30 13153 C 1372.33 4.08547 1.27566 0
M  V30 13154 C 1371.66 4.71115 2.52893 0
M  V30 13155 C 1372.96 5.20766 0.399955 0
M  V30 13156 H 1374.65 2.9936 -0.0489475 0
M  V30 13157 H 1372.2 1.43978 -0.0249817 0
M  V30 13158 H 1374.15 3.50942 2.33276 0
M  V30 13159 H 1372.88 2.26688 2.35118 0
M  V30 13160 H 1371.54 3.60096 0.687499 0
M  V30 13161 H 1371.18 3.92805 3.14186 0
M  V30 13162 H 1370.88 5.43331 2.23752 0
M  V30 13163 H 1372.41 5.23198 3.14796 0
M  V30 13164 H 1373.82 5.65918 0.917054 0
M  V30 13165 H 1372.22 5.9976 0.2019 0
M  V30 13166 H 1373.29 4.81508 -0.572537 0
M  V30 13167 N 1374.63 0.0384594 1.57553 0
M  V30 13168 C 1376.04 -0.499057 1.79906 0
M  V30 13169 C 1376.4 -1.7169 0.949577 0
M  V30 13170 O 1375.52 -2.15788 0.162584 0
M  V30 13171 C 1376.12 -0.912155 3.2629 0
M  V30 13172 C 1374.67 -1.39473 3.49606 0
M  V30 13173 C 1373.82 -0.363859 2.74902 0
M  V30 13174 H 1376.77 0.264433 1.56481 0
M  V30 13175 H 1376.79 -1.77592 3.36513 0
M  V30 13176 H 1376.31 -0.0255928 3.88092 0
M  V30 13177 H 1374.41 -2.3009 2.93068 0
M  V30 13178 H 1374.52 -1.39566 4.58321 0
M  V30 13179 H 1372.88 -0.833993 2.40659 0
M  V30 13180 H 1373.67 0.514398 3.39424 0
M  V30 13181 N 1376.11 -1.55841 -0.234795 0
M  V30 13182 C 1377.36 -1.77886 -0.959217 0
M  V30 13183 C 1377.68 -0.604621 -1.8539 0
M  V30 13184 O 1376.95 0.379092 -1.92197 0
M  V30 13185 H 1375.53 -0.656077 -0.357172 0
M  V30 13186 H 1378.19 -1.93292 -0.249831 0
M  V30 13187 H 1377.29 -2.69512 -1.57383 0
M  V30 13188 N 1377.59 0.500963 -1.49426 0
M  V30 13189 C 1378.54 1.6025 -1.66098 0
M  V30 13190 C 1379.51 1.58318 -0.502453 0
M  V30 13191 O 1380.69 1.76304 -0.729482 0
M  V30 13192 C 1377.83 2.98396 -1.73361 0
M  V30 13193 C 1376.94 3.10343 -3.00518 0
M  V30 13194 C 1376.08 4.39222 -2.9876 0
M  V30 13195 C 1375.12 4.44803 -4.20496 0
M  V30 13196 N 1374.26 5.6511 -4.16648 0
M  V30 13197 H 1379.1 1.45342 -2.60153 0
M  V30 13198 H 1376.63 0.707147 -1.28988 0
M  V30 13199 H 1378.59 3.78467 -1.75553 0
M  V30 13200 H 1377.22 3.12007 -0.827718 0
M  V30 13201 H 1376.27 2.23336 -3.07937 0
M  V30 13202 H 1377.58 3.10327 -3.90511 0
M  V30 13203 H 1376.74 5.27613 -2.99515 0
M  V30 13204 H 1375.48 4.41804 -2.06545 0
M  V30 13205 H 1374.48 3.54814 -4.19985 0
M  V30 13206 H 1375.71 4.43937 -5.13903 0
M  V30 13207 H 1373.65 5.68533 -3.2727 0
M  V30 13208 H 1373.57 5.6671 -5.00376 0
M  V30 13209 H 1374.84 6.55708 -4.21506 0
M  V30 13210 N 1379.07 1.38501 0.752011 0
M  V30 13211 C 1380.3 1.37832 1.53902 0
M  V30 13212 C 1380.71 -0.0333526 1.89171 0
M  V30 13213 O 1380.05 -1.01076 1.53393 0
M  V30 13214 C 1380.11 2.17098 2.86546 0
M  V30 13215 C 1379.77 3.65895 2.73807 0
M  V30 13216 C 1380.77 4.59353 2.43497 0
M  V30 13217 C 1378.46 4.0927 2.9121 0
M  V30 13218 C 1380.45 5.94167 2.30746 0
M  V30 13219 C 1378.14 5.44165 2.78079 0
M  V30 13220 C 1379.14 6.36427 2.47891 0
M  V30 13221 O 1378.82 7.68839 2.34822 0
M  V30 13222 H 1378.56 0.473187 0.482773 0
M  V30 13223 H 1381.11 1.82715 0.938324 0
M  V30 13224 H 1379.34 1.66936 3.48811 0
M  V30 13225 H 1381.03 2.08817 3.48067 0
M  V30 13226 H 1381.79 4.27147 2.29718 0
M  V30 13227 H 1377.67 3.37803 3.13704 0
M  V30 13228 H 1381.22 6.66148 2.07105 0
M  V30 13229 H 1377.11 5.75967 2.91432 0
M  V30 13230 H 1377.88 7.79379 2.50022 0
M  V30 13231 N 1380.55 -0.980364 1.23396 0
M  V30 13232 C 1381.96 -1.24658 0.996622 0
M  V30 13233 C 1382.16 -1.9922 -0.302259 0
M  V30 13234 O 1381.22 -2.30906 -1.02169 0
M  V30 13235 C 1382.53 -2.0461 2.20353 0
M  V30 13236 C 1384.08 -2.17749 2.24843 0
M  V30 13237 C 1384.55 -3.01091 3.4512 0
M  V30 13238 N 1386.04 -3.08676 3.4536 0
M  V30 13239 C 1386.78 -3.73487 4.3508 0
M  V30 13240 N 1386.28 -4.40121 5.35038 0
M  V30 13241 N 1388.07 -3.70373 4.22824 0
M  V30 13242 H 1380.22 -0.480851 2.06885 0
M  V30 13243 H 1382.48 -0.275049 0.907222 0
M  V30 13244 H 1382.19 -1.57197 3.14614 0
M  V30 13245 H 1382.06 -3.05359 2.21441 0
M  V30 13246 H 1384.45 -2.64369 1.31122 0
M  V30 13247 H 1384.53 -1.16388 2.27788 0
M  V30 13248 H 1384.17 -2.55168 4.39149 0
M  V30 13249 H 1384.1 -4.02621 3.39417 0
M  V30 13250 H 1386.6 -2.61265 2.73037 0
M  V30 13251 H 1386.91 -4.87354 5.99755 0
M  V30 13252 H 1385.25 -4.38829 5.38938 0
M  V30 13253 H 1388.44 -3.17486 3.43977 0
M  V30 13254 H 1388.62 -4.20601 4.92949 0
M  V30 13255 N 1382.02 -1.04567 -1.17913 0
M  V30 13256 C 1382.96 -0.585519 -2.2056 0
M  V30 13257 C 1383.93 0.382581 -1.58035 0
M  V30 13258 O 1385.12 0.295692 -1.86166 0
M  V30 13259 C 1382.25 0.14396 -3.38394 0
M  V30 13260 C 1381.29 -0.778174 -4.19341 0
M  V30 13261 S 1382.12 -2.26385 -4.85294 0
M  V30 13262 C 1383.28 -1.54537 -6.06522 0
M  V30 13263 H 1383.51 -1.4552 -2.59251 0
M  V30 13264 H 1381.05 -0.857075 -1.28427 0
M  V30 13265 H 1383 0.558661 -4.06681 0
M  V30 13266 H 1381.67 0.989593 -2.98104 0
M  V30 13267 H 1380.86 -0.214053 -5.03545 0
M  V30 13268 H 1380.46 -1.13195 -3.56459 0
M  V30 13269 H 1382.75 -0.841199 -6.72257 0
M  V30 13270 H 1383.7 -2.36465 -6.6745 0
M  V30 13271 H 1384.1 -1.03551 -5.54921 0
M  V30 13272 N 1383.5 1.34231 -0.825823 0
M  V30 13273 C 1384.78 1.92662 -0.337743 0
M  V30 13274 C 1385.16 1.75358 1.17529 0
M  V30 13275 O 1384.51 1.13405 1.98372 0
M  V30 13276 C 1384.72 3.40394 -0.770269 0
M  V30 13277 C 1386.06 4.17546 -0.770767 0
M  V30 13278 O 1387.09 3.4899 -0.713035 0
M  V30 13279 O 1385.95 5.39903 -0.846602 0
M  V30 13280 H 1383.04 0.821768 -0.0928741 0
M  V30 13281 H 1385.59 1.43187 -0.910807 0
M  V30 13282 H 1384.36 3.46802 -1.81228 0
M  V30 13283 H 1383.98 3.97223 -0.17306 0
M  V30 13284 N 1384.98 0.581051 1.46498 0
M  V30 13285 C 1386.23 0.0660934 2.02692 0
M  V30 13286 C 1386.56 -1.28985 1.45178 0
M  V30 13287 O 1385.83 -1.84479 0.616247 0
M  V30 13288 C 1386.12 -0.00145411 3.601 0
M  V30 13289 C 1385.97 1.38327 4.28002 0
M  V30 13290 C 1387.29 -0.702914 4.3445 0
M  V30 13291 H 1384.41 0.0254923 0.736559 0
M  V30 13292 H 1387.05 0.74793 1.7466 0
M  V30 13293 H 1385.2 -0.582118 3.84114 0
M  V30 13294 H 1386.87 2.00897 4.15257 0
M  V30 13295 H 1385.11 1.95144 3.87429 0
M  V30 13296 H 1385.79 1.28849 5.36751 0
M  V30 13297 H 1388.26 -0.209641 4.15572 0
M  V30 13298 H 1387.14 -0.719202 5.44168 0
M  V30 13299 H 1387.4 -1.76389 4.05388 0
M  V30 13300 N 1386.46 -1.54343 0.318742 0
M  V30 13301 C 1387.7 -2.0239 -0.285929 0
M  V30 13302 C 1388.06 -1.20197 -1.49722 0
M  V30 13303 O 1389.26 -1.58025 -2.17443 0
M  V30 13304 C 1387.53 -3.52044 -0.616446 0
M  V30 13305 S 1389.09 -4.22031 -1.20146 0
M  V30 13306 H 1385.91 -0.705685 -0.0867722 0
M  V30 13307 H 1388.51 -1.90233 0.450744 0
M  V30 13308 H 1387.22 -4.09489 0.273339 0
M  V30 13309 H 1386.75 -3.68272 -1.38344 0
M  V30 13310 H 1388.76 -4.29287 -2.48851 0
M  V30 13311 N 1387.94 -0.0468143 -1.5753 0
M  V30 13312 C 1389.18 0.631887 -1.94388 0
M  V30 13313 C 1389.54 1.68265 -0.924715 0
M  V30 13314 O 1390.74 2.41511 -1.18008 0
M  V30 13315 C 1389.01 1.21642 -3.36063 0
M  V30 13316 S 1390.57 1.91373 -3.94869 0
M  V30 13317 H 1387.39 0.207594 -0.680019 0
M  V30 13318 H 1389.99 -0.11471 -1.95163 0
M  V30 13319 H 1388.69 0.439479 -4.0804 0
M  V30 13320 H 1388.23 1.99993 -3.38772 0
M  V30 13321 H 1390.24 3.19392 -3.79741 0
M  V30 13322 N 1389.41 1.55964 0.226527 0
M  V30 13323 C 1390.65 1.80518 0.958774 0
M  V30 13324 C 1391.02 0.619549 1.81729 0
M  V30 13325 O 1392.22 0.744294 2.5829 0
M  V30 13326 C 1390.49 3.09939 1.77968 0
M  V30 13327 S 1392.05 3.5579 2.56824 0
M  V30 13328 H 1388.87 0.633829 0.322151 0
M  V30 13329 H 1391.47 1.94203 0.224786 0
M  V30 13330 H 1390.17 3.94277 1.13903 0
M  V30 13331 H 1389.7 2.99047 2.55605 0
M  V30 13332 H 1391.72 3.18734 3.80293 0
M  V30 13333 N 1390.89 -0.493031 1.4969 0
M  V30 13334 C 1392.12 -1.27517 1.63567 0
M  V30 13335 C 1392.54 -1.85526 0.310105 0
M  V30 13336 O 1391.9 -1.66246 -0.723314 0
M  V30 13337 C 1391.95 -2.37551 2.71296 0
M  V30 13338 O 1391.05 -3.41617 2.31023 0
M  V30 13339 H 1390.39 -0.376116 0.547205 0
M  V30 13340 H 1392.92 -0.589328 1.95929 0
M  V30 13341 H 1392.93 -2.83196 2.93708 0
M  V30 13342 H 1391.61 -1.94697 3.67513 0
M  V30 13343 H 1390.19 -3.01836 2.18974 0
M  V30 13344 N 1392.37 -1.38898 -0.744656 0
M  V30 13345 C 1393.62 -1.34909 -1.49941 0
M  V30 13346 C 1393.93 0.0553979 -1.95522 0
M  V30 13347 O 1395.14 0.21785 -2.70625 0
M  V30 13348 C 1393.59 -2.36954 -2.70889 0
M  V30 13349 C 1393.2 -3.83069 -2.32298 0
M  V30 13350 C 1394.95 -2.42024 -3.48747 0
M  V30 13351 C 1392.85 -4.76777 -3.4991 0
M  V30 13352 H 1391.78 -0.501512 -0.563029 0
M  V30 13353 H 1394.43 -1.64497 -0.813201 0
M  V30 13354 H 1392.82 -2.00421 -3.41537 0
M  V30 13355 H 1393.99 -4.28588 -1.69259 0
M  V30 13356 H 1392.31 -3.81202 -1.67554 0
M  V30 13357 H 1394.9 -3.0923 -4.36212 0
M  V30 13358 H 1395.25 -1.44184 -3.90534 0
M  V30 13359 H 1395.78 -2.774 -2.85121 0
M  V30 13360 H 1392.52 -5.75844 -3.13183 0
M  V30 13361 H 1392.04 -4.35944 -4.11962 0
M  V30 13362 H 1393.72 -4.95219 -4.16374 0
M  V30 13363 N 1393.85 0.973806 -1.23914 0
M  V30 13364 C 1395.1 1.71259 -1.07307 0
M  V30 13365 C 1395.42 1.91064 0.389831 0
M  V30 13366 O 1394.69 1.48401 1.27883 0
M  V30 13367 H 1393.27 0.634588 -0.39409 0
M  V30 13368 H 1395.93 1.17184 -1.55737 0
M  V30 13369 H 1395.03 2.69953 -1.56626 0
M  V30 13370 N 1395.33 1.05191 1.17357 0
M  V30 13371 C 1396.29 0.65713 2.19578 0
M  V30 13372 C 1397.29 -0.29138 1.58138 0
M  V30 13373 O 1398.48 -0.075254 1.74037 0
M  V30 13374 C 1395.61 -0.0348162 3.40882 0
M  V30 13375 H 1396.8 1.56188 2.56018 0
M  V30 13376 H 1394.36 0.845795 1.31438 0
M  V30 13377 H 1395.09 -0.952835 3.09986 0
M  V30 13378 H 1394.88 0.647076 3.86724 0
M  V30 13379 H 1396.37 -0.297135 4.16542 0
M  V30 13380 N 1396.8 -1.33791 0.83293 0
M  V30 13381 C 1398.05 -1.98266 0.426412 0
M  V30 13382 C 1398.38 -1.65848 -1.01035 0
M  V30 13383 O 1397.66 -0.93528 -1.70537 0
M  V30 13384 C 1397.94 -3.54356 0.640586 0
M  V30 13385 C 1397.79 -3.96482 2.12419 0
M  V30 13386 C 1399.11 -4.40022 0.0829237 0
M  V30 13387 H 1396.23 -0.720213 0.156404 0
M  V30 13388 H 1398.87 -1.58527 1.04735 0
M  V30 13389 H 1397.02 -3.88338 0.11204 0
M  V30 13390 H 1398.7 -3.72786 2.71714 0
M  V30 13391 H 1396.94 -3.46429 2.61092 0
M  V30 13392 H 1397.61 -5.05179 2.22482 0
M  V30 13393 H 1400.09 -4.12651 0.534634 0
M  V30 13394 H 1398.96 -5.48272 0.262511 0
M  V30 13395 H 1399.22 -4.30341 -1.01287 0
M  V30 13396 N 1398.28 -0.588812 -1.46187 0
M  V30 13397 C 1399.53 -0.0851986 -2.03221 0
M  V30 13398 C 1399.88 1.26301 -1.45141 0
M  V30 13399 O 1399.18 1.8165 -0.609427 0
M  V30 13400 C 1399.37 0.0325249 -3.57385 0
M  V30 13401 C 1399.2 -1.30272 -4.30418 0
M  V30 13402 C 1397.97 -1.87848 -4.69085 0
M  V30 13403 C 1400.17 -2.2273 -4.63569 0
M  V30 13404 N 1398.15 -3.15048 -5.26894 0
M  V30 13405 C 1399.52 -3.34519 -5.22012 0
M  V30 13406 C 1401.58 -2.22334 -4.45502 0
M  V30 13407 C 1400.28 -4.46054 -5.64294 0
M  V30 13408 C 1402.3 -3.32904 -4.88804 0
M  V30 13409 C 1401.67 -4.43414 -5.47324 0
M  V30 13410 H 1397.77 -0.0741 -0.778481 0
M  V30 13411 H 1400.35 -0.783049 -1.78259 0
M  V30 13412 H 1398.52 0.699556 -3.82048 0
M  V30 13413 H 1400.25 0.54108 -4.01067 0
M  V30 13414 H 1397.01 -1.4127 -4.5204 0
M  V30 13415 H 1397.43 -3.79969 -5.60315 0
M  V30 13416 H 1402.07 -1.38165 -3.99588 0
M  V30 13417 H 1399.79 -5.30963 -6.09183 0
M  V30 13418 H 1403.38 -3.33723 -4.76571 0
M  V30 13419 H 1402.26 -5.27559 -5.80216 0
M  V30 13420 N 1399.76 1.54172 -0.326923 0
M  V30 13421 C 1401.01 2.00233 0.274098 0
M  V30 13422 C 1401.33 1.21665 1.5239 0
M  V30 13423 O 1400.6 0.319359 1.93279 0
M  V30 13424 H 1399.18 0.739687 0.104271 0
M  V30 13425 H 1401.84 1.8977 -0.444244 0
M  V30 13426 H 1400.94 3.07599 0.528154 0
M  V30 13427 N 1401.24 0.0551678 1.57503 0
M  V30 13428 C 1402.48 -0.618636 1.93134 0
M  V30 13429 C 1402.82 -1.70258 0.934125 0
M  V30 13430 O 1402.09 -1.9446 -0.0392699 0
M  V30 13431 C 1402.38 -1.21103 3.39126 0
M  V30 13432 C 1402.23 -0.134865 4.49598 0
M  V30 13433 C 1403.55 -2.12148 3.85592 0
M  V30 13434 H 1400.67 -0.223416 0.702321 0
M  V30 13435 H 1403.31 0.117748 1.89635 0
M  V30 13436 H 1401.46 -1.83862 3.42238 0
M  V30 13437 H 1403.13 0.497292 4.58612 0
M  V30 13438 H 1401.37 0.536587 4.30469 0
M  V30 13439 H 1402.04 -0.589447 5.48844 0
M  V30 13440 H 1404.52 -1.59346 3.8438 0
M  V30 13441 H 1403.4 -2.50539 4.88387 0
M  V30 13442 H 1403.66 -3.02318 3.22578 0
M  V30 13443 N 1402.72 -1.56081 -0.218252 0
M  V30 13444 C 1403.63 -1.95856 -1.29141 0
M  V30 13445 C 1404.64 -0.862857 -1.51099 0
M  V30 13446 O 1405.82 -1.1667 -1.64165 0
M  V30 13447 C 1402.88 -2.27005 -2.62049 0
M  V30 13448 C 1401.94 -3.50162 -2.48365 0
M  V30 13449 C 1401.18 -3.79815 -3.74935 0
M  V30 13450 O 1401.4 -3.11095 -4.78096 0
M  V30 13451 O 1400.33 -4.73299 -3.71849 0
M  V30 13452 H 1404.16 -2.8732 -0.983922 0
M  V30 13453 H 1401.75 -1.43334 -0.421385 0
M  V30 13454 H 1403.63 -2.4822 -3.40536 0
M  V30 13455 H 1402.3 -1.38715 -2.92472 0
M  V30 13456 H 1401.21 -3.34222 -1.68066 0
M  V30 13457 H 1402.54 -4.38845 -2.22881 0
M  V30 13458 N 1404.2 0.485086 -1.49949 0
M  V30 13459 C 1405.44 1.24816 -1.61865 0
M  V30 13460 C 1405.8 1.8955 -0.305741 0
M  V30 13461 O 1407 2.67118 -0.300216 0
M  V30 13462 C 1405.27 2.27464 -2.75672 0
M  V30 13463 S 1406.83 3.12898 -3.07637 0
M  V30 13464 H 1403.65 0.423964 -0.570767 0
M  V30 13465 H 1406.25 0.547552 -1.87676 0
M  V30 13466 H 1404.95 1.78464 -3.69566 0
M  V30 13467 H 1404.49 3.02172 -2.51904 0
M  V30 13468 H 1406.5 4.28395 -2.50384 0
M  V30 13469 N 1405.67 1.39291 0.737279 0
M  V30 13470 C 1406.58 1.40098 1.88175 0
M  V30 13471 C 1407.6 0.296053 1.71463 0
M  V30 13472 O 1408.78 0.537153 1.94105 0
M  V30 13473 C 1405.84 1.24071 3.2374 0
M  V30 13474 C 1404.9 2.44515 3.52861 0
M  V30 13475 C 1404.13 2.29243 4.81958 0
M  V30 13476 O 1404.36 1.2947 5.55512 0
M  V30 13477 O 1403.29 3.18178 5.10927 0
M  V30 13478 H 1407.12 2.36565 1.90449 0
M  V30 13479 H 1404.7 1.20382 0.884786 0
M  V30 13480 H 1406.58 1.17257 4.04758 0
M  V30 13481 H 1405.26 0.30698 3.22241 0
M  V30 13482 H 1404.17 2.56905 2.71939 0
M  V30 13483 H 1405.5 3.36573 3.59137 0
M  V30 13484 N 1407.15 -0.967221 1.24429 0
M  V30 13485 C 1408.11 -2.04344 1.03808 0
M  V30 13486 C 1409.11 -1.60799 -0.00476972 0
M  V30 13487 O 1410.3 -1.72591 0.236241 0
M  V30 13488 C 1407.44 -3.36041 0.573496 0
M  V30 13489 H 1408.63 -2.2407 1.9933 0
M  V30 13490 H 1406.18 -1.14253 1.06658 0
M  V30 13491 H 1406.92 -3.22008 -0.384898 0
M  V30 13492 H 1406.7 -3.68991 1.32619 0
M  V30 13493 H 1408.19 -4.15165 0.450272 0
M  V30 13494 N 1408.63 -1.05812 -1.16797 0
M  V30 13495 C 1409.87 -0.781055 -1.88889 0
M  V30 13496 C 1410.23 0.679797 -1.79563 0
M  V30 13497 O 1411.43 1.07124 -2.46532 0
M  V30 13498 C 1409.71 -1.25598 -3.34604 0
M  V30 13499 S 1411.26 -1.10724 -4.24601 0
M  V30 13500 H 1408.08 -0.28347 -0.652047 0
M  V30 13501 H 1410.68 -1.35404 -1.41018 0
M  V30 13502 H 1409.39 -2.31421 -3.38928 0
M  V30 13503 H 1408.92 -0.677541 -3.87522 0
M  V30 13504 H 1410.93 -0.0351807 -4.96188 0
M  V30 13505 N 1410.11 1.33347 -0.840014 0
M  V30 13506 C 1411.52 1.80077 -0.492851 0
M  V30 13507 C 1411.87 1.69495 0.988221 0
M  V30 13508 O 1410.99 1.2449 1.77006 0
M  V30 13509 C 1411.59 3.2696 -0.887827 0
M  V30 13510 C 1410.15 3.71703 -0.592785 0
M  V30 13511 C 1409.3 2.54742 -1.09554 0
M  V30 13512 H 1412.25 1.20853 -1.02861 0
M  V30 13513 H 1412.27 3.79983 -0.198327 0
M  V30 13514 H 1411.78 3.3463 -1.96581 0
M  V30 13515 H 1409.88 3.69559 0.475086 0
M  V30 13516 H 1409.99 4.65123 -1.14882 0
M  V30 13517 H 1408.36 2.49411 -0.516357 0
M  V30 13518 H 1409.14 2.65173 -2.18032 0
M  V30 13519 N 1411.59 0.596556 1.45873 0
M  V30 13520 C 1412.86 0.0199562 1.9559 0
M  V30 13521 C 1413.24 -1.44479 1.53912 0
M  V30 13522 O 1412.59 -2.14173 0.796384 0
M  V30 13523 C 1412.8 0.206497 3.48389 0
M  V30 13524 C 1414.15 0.0815298 4.24522 0
M  V30 13525 O 1415.17 0.136045 3.5594 0
M  V30 13526 O 1414.03 -0.0426117 5.46483 0
M  V30 13527 H 1411.13 -0.0419913 0.825933 0
M  V30 13528 H 1413.67 0.665846 1.56092 0
M  V30 13529 H 1412.44 1.22422 3.71656 0
M  V30 13530 H 1412.07 -0.475175 3.9475 0
M  V30 13531 N 1413.06 -1.53996 0.335095 0
M  V30 13532 C 1414.47 -1.86092 -0.15058 0
M  V30 13533 C 1414.83 -1.25652 -1.50685 0
M  V30 13534 O 1413.95 -0.566887 -2.08843 0
M  V30 13535 C 1414.55 -3.37641 -0.280007 0
M  V30 13536 C 1413.1 -3.69645 -0.709907 0
M  V30 13537 C 1412.25 -2.7683 0.161461 0
M  V30 13538 H 1415.2 -1.4868 0.554986 0
M  V30 13539 H 1415.22 -3.63981 -1.10896 0
M  V30 13540 H 1414.74 -3.81601 0.707254 0
M  V30 13541 H 1412.84 -3.31224 -1.7065 0
M  V30 13542 H 1412.95 -4.76424 -0.505661 0
M  V30 13543 H 1411.31 -2.52073 -0.364849 0
M  V30 13544 H 1412.1 -3.23618 1.1457 0
M  V30 13545 N 1414.54 -0.0635198 -1.57472 0
M  V30 13546 C 1415.45 0.921531 -2.15743 0
M  V30 13547 C 1416.47 1.33294 -1.11842 0
M  V30 13548 O 1417.64 1.40733 -1.4407 0
M  V30 13549 C 1414.71 2.17378 -2.70088 0
M  V30 13550 C 1413.77 1.81956 -3.88832 0
M  V30 13551 C 1413 3.01211 -4.40577 0
M  V30 13552 O 1413.23 4.14971 -3.9135 0
M  V30 13553 O 1412.16 2.81507 -5.32012 0
M  V30 13554 H 1415.99 0.455899 -3.00259 0
M  V30 13555 H 1413.57 0.159085 -1.48551 0
M  V30 13556 H 1415.45 2.90826 -3.04956 0
M  V30 13557 H 1414.13 2.63055 -1.88637 0
M  V30 13558 H 1413.03 1.05786 -3.58832 0
M  V30 13559 H 1414.37 1.41069 -4.71551 0
M  V30 13560 N 1416.02 1.56195 0.209972 0
M  V30 13561 C 1417.24 1.84189 0.953364 0
M  V30 13562 C 1417.67 0.645288 1.76685 0
M  V30 13563 O 1417.03 -0.405962 1.76696 0
M  V30 13564 C 1417.08 3.10281 1.83733 0
M  V30 13565 O 1416.18 2.89788 2.93422 0
M  V30 13566 H 1415.52 0.606931 0.269314 0
M  V30 13567 H 1418.05 2.03416 0.219783 0
M  V30 13568 H 1418.06 3.40688 2.2449 0
M  V30 13569 H 1416.74 3.97 1.23951 0
M  V30 13570 H 1415.31 2.70643 2.56528 0
M  V30 13571 N 1417.5 -0.477127 1.50204 0
M  V30 13572 C 1418.43 -1.58405 1.71552 0
M  V30 13573 C 1419.41 -1.60463 0.564413 0
M  V30 13574 O 1420.59 -1.76826 0.802893 0
M  V30 13575 C 1417.72 -2.96765 1.8041 0
M  V30 13576 C 1416.68 -3.09573 2.95548 0
M  V30 13577 C 1416 -4.49522 2.89542 0
M  V30 13578 C 1417.3 -2.87356 4.36147 0
M  V30 13579 H 1419 -1.40792 2.64231 0
M  V30 13580 H 1416.54 -0.675886 1.27153 0
M  V30 13581 H 1418.5 -3.74125 1.9393 0
M  V30 13582 H 1417.22 -3.1552 0.843489 0
M  V30 13583 H 1415.88 -2.34645 2.81669 0
M  V30 13584 H 1415.53 -4.65186 1.91339 0
M  V30 13585 H 1415.23 -4.59028 3.66834 0
M  V30 13586 H 1416.75 -5.28909 3.05102 0
M  V30 13587 H 1418.17 -3.54469 4.50583 0
M  V30 13588 H 1416.56 -3.08313 5.14843 0
M  V30 13589 H 1417.63 -1.83264 4.48935 0
M  V30 13590 N 1418.98 -1.3968 -0.729882 0
M  V30 13591 C 1419.89 -1.41094 -1.87429 0
M  V30 13592 C 1420.9 -0.305142 -1.71303 0
M  V30 13593 O 1422.08 -0.54744 -1.93817 0
M  V30 13594 C 1419.14 -1.25786 -3.23077 0
M  V30 13595 C 1418.2 -2.46382 -3.5156 0
M  V30 13596 C 1417.44 -2.31795 -4.80735 0
M  V30 13597 O 1417.66 -1.32415 -5.54818 0
M  V30 13598 O 1416.59 -3.20883 -5.09232 0
M  V30 13599 H 1420.42 -2.37571 -1.89192 0
M  V30 13600 H 1418.01 -1.2085 -0.878389 0
M  V30 13601 H 1419.89 -1.19402 -4.0413 0
M  V30 13602 H 1418.56 -0.324065 -3.22074 0
M  V30 13603 H 1417.47 -2.58343 -2.70573 0
M  V30 13604 H 1418.8 -3.38473 -3.57347 0
M  V30 13605 N 1420.45 0.960609 -1.2494 0
M  V30 13606 C 1421.7 1.70448 -1.09333 0
M  V30 13607 C 1422.03 1.91012 0.366687 0
M  V30 13608 O 1421.28 1.4743 1.28697 0
M  V30 13609 C 1421.58 3.09564 -1.78619 0
M  V30 13610 C 1421.25 3.08819 -3.28545 0
M  V30 13611 C 1419.91 3.08323 -3.69446 0
M  V30 13612 C 1422.26 3.02606 -4.24357 0
M  V30 13613 C 1419.59 2.99356 -5.04582 0
M  V30 13614 C 1421.94 2.9518 -5.5951 0
M  V30 13615 C 1420.61 2.93017 -5.99748 0
M  V30 13616 H 1419.88 0.623714 -0.400078 0
M  V30 13617 H 1422.52 1.12273 -1.55136 0
M  V30 13618 H 1420.83 3.71247 -1.2523 0
M  V30 13619 H 1422.53 3.6593 -1.64001 0
M  V30 13620 H 1419.12 3.09974 -2.95997 0
M  V30 13621 H 1423.3 3.02113 -3.93753 0
M  V30 13622 H 1418.56 2.96046 -5.34946 0
M  V30 13623 H 1422.73 2.89333 -6.3345 0
M  V30 13624 H 1420.36 2.85824 -7.04421 0
M  V30 13625 N 1421.93 1.0643 1.16234 0
M  V30 13626 C 1422.9 0.680383 2.18869 0
M  V30 13627 C 1423.9 -0.274591 1.58438 0
M  V30 13628 O 1425.09 -0.0567907 1.74107 0
M  V30 13629 C 1422.22 0.00134091 3.409 0
M  V30 13630 H 1423.41 1.58894 2.54347 0
M  V30 13631 H 1420.96 0.859688 1.30534 0
M  V30 13632 H 1421.7 -0.919903 3.1098 0
M  V30 13633 H 1421.48 0.688057 3.86016 0
M  V30 13634 H 1422.97 -0.252938 4.16833 0
M  V30 13635 N 1423.41 -1.329 0.847073 0
M  V30 13636 C 1424.64 -2.02244 0.459588 0
M  V30 13637 C 1425.06 -1.63279 -0.933897 0
M  V30 13638 O 1424.42 -0.829551 -1.61208 0
M  V30 13639 C 1424.47 -3.55616 0.59745 0
M  V30 13640 O 1423.57 -4.1071 -0.372919 0
M  V30 13641 H 1422.91 -0.637504 0.1857 0
M  V30 13642 H 1425.44 -1.69617 1.14417 0
M  V30 13643 H 1425.45 -4.05141 0.482145 0
M  V30 13644 H 1424.13 -3.8332 1.61365 0
M  V30 13645 H 1422.7 -3.72283 -0.214487 0
M  V30 13646 N 1424.89 -0.604284 -1.45555 0
M  V30 13647 C 1425.82 0.103859 -2.33269 0
M  V30 13648 C 1426.8 0.862104 -1.46635 0
M  V30 13649 O 1427.98 0.833308 -1.75413 0
M  V30 13650 C 1425.11 1.104 -3.29286 0
M  V30 13651 C 1424.07 0.459189 -4.2553 0
M  V30 13652 C 1423.39 1.56734 -5.11213 0
M  V30 13653 C 1424.69 -0.617509 -5.18637 0
M  V30 13654 H 1426.39 -0.628538 -2.92728 0
M  V30 13655 H 1423.93 -0.303711 -1.40761 0
M  V30 13656 H 1425.89 1.60794 -3.89517 0
M  V30 13657 H 1424.61 1.86695 -2.67979 0
M  V30 13658 H 1423.27 -0.0238508 -3.66592 0
M  V30 13659 H 1422.92 2.32049 -4.46276 0
M  V30 13660 H 1422.62 1.14142 -5.76407 0
M  V30 13661 H 1424.14 2.07361 -5.74312 0
M  V30 13662 H 1425.56 -0.197784 -5.72959 0
M  V30 13663 H 1423.95 -0.96499 -5.9229 0
M  V30 13664 H 1425.02 -1.49541 -4.61265 0
M  V30 13665 N 1426.37 1.53816 -0.343257 0
M  V30 13666 C 1427.61 2.0282 0.253695 0
M  V30 13667 C 1427.97 1.22564 1.47791 0
M  V30 13668 O 1429.17 1.61464 2.14902 0
M  V30 13669 C 1427.44 3.5298 0.560361 0
M  V30 13670 S 1429 4.23889 1.13416 0
M  V30 13671 H 1425.82 0.706976 0.0755344 0
M  V30 13672 H 1428.42 1.89492 -0.480951 0
M  V30 13673 H 1427.13 4.09002 -0.338451 0
M  V30 13674 H 1426.66 3.70426 1.32468 0
M  V30 13675 H 1428.67 4.33192 2.4199 0
M  V30 13676 N 1427.84 0.0718701 1.57436 0
M  V30 13677 C 1429.26 -0.460784 1.80924 0
M  V30 13678 C 1429.61 -1.69637 0.985781 0
M  V30 13679 O 1428.73 -2.15395 0.208319 0
M  V30 13680 C 1429.33 -0.842738 3.28151 0
M  V30 13681 C 1427.89 -1.32026 3.52486 0
M  V30 13682 C 1427.03 -0.305466 2.75612 0
M  V30 13683 H 1429.98 0.297566 1.55885 0
M  V30 13684 H 1430 -1.70414 3.40205 0
M  V30 13685 H 1429.52 0.056733 3.88059 0
M  V30 13686 H 1427.62 -2.23822 2.97883 0
M  V30 13687 H 1427.73 -1.29813 4.61178 0
M  V30 13688 H 1426.09 -0.782758 2.42374 0
M  V30 13689 H 1426.88 0.586279 3.38257 0
M  V30 13690 N 1429.32 -1.56304 -0.201686 0
M  V30 13691 C 1430.74 -1.49741 -0.552247 0
M  V30 13692 C 1430.94 -0.770683 -1.86179 0
M  V30 13693 O 1429.99 -0.318489 -2.50483 0
M  V30 13694 C 1431.31 -2.94384 -0.613083 0
M  V30 13695 C 1432.86 -3.05018 -0.702365 0
M  V30 13696 C 1433.33 -4.51058 -0.794371 0
M  V30 13697 N 1434.82 -4.55183 -0.858072 0
M  V30 13698 C 1435.56 -5.65487 -0.949317 0
M  V30 13699 N 1435.05 -6.85497 -1.00327 0
M  V30 13700 N 1436.85 -5.53385 -0.985995 0
M  V30 13701 H 1429 -2.01971 0.657394 0
M  V30 13702 H 1431.26 -0.918839 0.233322 0
M  V30 13703 H 1430.97 -3.50584 0.279921 0
M  V30 13704 H 1430.84 -3.47376 -1.47002 0
M  V30 13705 H 1433.23 -2.4887 -1.5858 0
M  V30 13706 H 1433.31 -2.55161 0.180636 0
M  V30 13707 H 1432.95 -5.07829 0.0846883 0
M  V30 13708 H 1432.88 -4.98641 -1.69308 0
M  V30 13709 H 1435.37 -3.68765 -0.825888 0
M  V30 13710 H 1435.69 -7.65312 -1.07322 0
M  V30 13711 H 1434.03 -6.88169 -0.972061 0
M  V30 13712 H 1437.22 -4.58552 -0.940635 0
M  V30 13713 H 1437.39 -6.39376 -1.05365 0
M  V30 13714 N 1430.8 0.469154 -1.50455 0
M  V30 13715 C 1432.05 1.21868 -1.61222 0
M  V30 13716 C 1432.37 1.9243 -0.315535 0
M  V30 13717 O 1431.64 1.84192 0.667083 0
M  V30 13718 H 1430.22 0.452828 -0.594101 0
M  V30 13719 H 1432.88 0.540993 -1.87241 0
M  V30 13720 H 1431.98 1.96554 -2.42431 0
M  V30 13721 N 1432.28 1.40065 0.722464 0
M  V30 13722 C 1433.21 1.42532 1.84951 0
M  V30 13723 C 1434.19 0.287082 1.6766 0
M  V30 13724 O 1435.37 0.494715 1.87793 0
M  V30 13725 C 1432.5 1.28041 3.22836 0
M  V30 13726 C 1431.46 2.39396 3.54787 0
M  V30 13727 C 1430.78 2.09986 4.91742 0
M  V30 13728 C 1432.08 3.81729 3.56483 0
M  V30 13729 H 1433.78 2.36851 1.83144 0
M  V30 13730 H 1431.32 1.14005 0.879714 0
M  V30 13731 H 1433.28 1.28385 4.01367 0
M  V30 13732 H 1432 0.301947 3.25201 0
M  V30 13733 H 1430.66 2.3829 2.78592 0
M  V30 13734 H 1430.31 1.10547 4.90702 0
M  V30 13735 H 1430.01 2.84586 5.14086 0
M  V30 13736 H 1431.53 2.12 5.72615 0
M  V30 13737 H 1432.95 3.84696 4.25067 0
M  V30 13738 H 1431.34 4.55791 3.90351 0
M  V30 13739 H 1432.41 4.11807 2.56014 0
M  V30 13740 N 1433.76 -0.95397 1.25448 0
M  V30 13741 C 1435.01 -1.6953 1.10018 0
M  V30 13742 C 1435.33 -1.9166 -0.359385 0
M  V30 13743 O 1434.6 -1.50417 -1.25506 0
M  V30 13744 H 1433.18 -0.628238 0.404136 0
M  V30 13745 H 1435.84 -1.14691 1.57581 0
M  V30 13746 H 1434.93 -2.67427 1.60901 0
M  V30 13747 N 1435.24 -1.07045 -1.15668 0
M  V30 13748 C 1436.48 -0.791735 -1.86381 0
M  V30 13749 C 1436.81 0.682084 -1.82148 0
M  V30 13750 O 1436.07 1.51617 -1.23737 0
M  V30 13751 C 1436.36 -1.24127 -3.35153 0
M  V30 13752 C 1436.03 -2.72051 -3.59582 0
M  V30 13753 C 1434.69 -3.12455 -3.65958 0
M  V30 13754 C 1437.04 -3.67547 -3.69538 0
M  V30 13755 C 1434.37 -4.4718 -3.79799 0
M  V30 13756 C 1436.72 -5.02029 -3.84902 0
M  V30 13757 C 1435.39 -5.42059 -3.89523 0
M  V30 13758 H 1434.66 -0.289717 -0.682016 0
M  V30 13759 H 1437.31 -1.34091 -1.36718 0
M  V30 13760 H 1435.61 -0.611428 -3.87 0
M  V30 13761 H 1437.31 -1.00256 -3.88265 0
M  V30 13762 H 1433.9 -2.39771 -3.55257 0
M  V30 13763 H 1438.08 -3.3746 -3.63915 0
M  V30 13764 H 1433.34 -4.77668 -3.81632 0
M  V30 13765 H 1437.51 -5.75902 -3.91548 0
M  V30 13766 H 1435.14 -6.46455 -4 0
M  V30 13767 N 1436.71 1.32449 -0.85411 0
M  V30 13768 C 1437.68 2.27183 -0.303377 0
M  V30 13769 C 1438.68 1.51582 0.536622 0
M  V30 13770 O 1439.87 1.70684 0.348211 0
M  V30 13771 C 1437 3.36086 0.570852 0
M  V30 13772 H 1438.19 2.77408 -1.1395 0
M  V30 13773 H 1435.74 1.43111 -0.628402 0
M  V30 13774 H 1436.48 2.91128 1.42881 0
M  V30 13775 H 1436.26 3.92088 -0.030399 0
M  V30 13776 H 1437.75 4.06675 0.948972 0
M  V30 13777 N 1438.19 0.611994 1.45232 0
M  V30 13778 C 1439.42 0.113618 2.07089 0
M  V30 13779 C 1439.84 -1.1947 1.45288 0
M  V30 13780 O 1439.2 -1.72845 0.547207 0
M  V30 13781 C 1439.25 -0.00789978 3.60599 0
M  V30 13782 O 1438.35 -1.05697 3.98625 0
M  V30 13783 H 1437.69 0.076066 0.659629 0
M  V30 13784 H 1440.22 0.843253 1.86415 0
M  V30 13785 H 1440.23 -0.204692 4.07486 0
M  V30 13786 H 1438.91 0.947386 4.04966 0
M  V30 13787 H 1437.48 -0.836291 3.63401 0
M  V30 13788 N 1439.67 -1.53632 0.351409 0
M  V30 13789 C 1441.09 -1.596 -0.000214515 0
M  V30 13790 C 1441.29 -1.36709 -1.4803 0
M  V30 13791 O 1440.34 -1.16524 -2.24006 0
M  V30 13792 C 1441.65 -2.97419 0.443013 0
M  V30 13793 C 1443.2 -3.10485 0.396025 0
M  V30 13794 C 1443.68 -4.50693 0.814843 0
M  V30 13795 N 1445.17 -4.56766 0.76934 0
M  V30 13796 C 1445.9 -5.63418 1.06526 0
M  V30 13797 N 1445.4 -6.77887 1.42974 0
M  V30 13798 N 1447.19 -5.53331 0.988986 0
M  V30 13799 H 1439.34 -1.66765 1.31542 0
M  V30 13800 H 1441.61 -0.781418 0.53674 0
M  V30 13801 H 1441.31 -3.19262 1.47529 0
M  V30 13802 H 1441.19 -3.76781 -0.177725 0
M  V30 13803 H 1443.57 -2.8836 -0.627092 0
M  V30 13804 H 1443.65 -2.33163 1.05207 0
M  V30 13805 H 1443.3 -4.73554 1.83601 0
M  V30 13806 H 1443.23 -5.26424 0.136193 0
M  V30 13807 H 1445.72 -3.74569 0.500623 0
M  V30 13808 H 1446.03 -7.55194 1.64018 0
M  V30 13809 H 1444.38 -6.79314 1.46827 0
M  V30 13810 H 1447.57 -4.62783 0.703526 0
M  V30 13811 H 1447.74 -6.36355 1.22295 0
M  V30 13812 N 1441.15 -0.0802183 -1.57396 0
M  V30 13813 C 1442.42 0.628419 -1.8523 0
M  V30 13814 C 1442.8 1.87272 -0.974288 0
M  V30 13815 O 1442.15 2.2846 -0.0427687 0
M  V30 13816 C 1442.36 0.958033 -3.35593 0
M  V30 13817 C 1443.71 1.3279 -4.03301 0
M  V30 13818 O 1444.73 1.04951 -3.40388 0
M  V30 13819 O 1443.59 1.84865 -5.14283 0
M  V30 13820 H 1440.69 0.312945 -0.765503 0
M  V30 13821 H 1443.23 -0.111788 -1.69331 0
M  V30 13822 H 1442.01 0.074648 -3.91229 0
M  V30 13823 H 1441.63 1.75472 -3.56785 0
M  V30 13824 N 1442.63 1.56409 0.193394 0
M  V30 13825 C 1443.87 1.80724 0.913521 0
M  V30 13826 C 1444.2 0.653718 1.83185 0
M  V30 13827 O 1443.46 -0.360417 1.92353 0
M  V30 13828 C 1443.75 3.11039 1.76039 0
M  V30 13829 C 1443.42 4.39832 0.992892 0
M  V30 13830 C 1442.08 4.7482 0.780991 0
M  V30 13831 C 1444.43 5.19228 0.452985 0
M  V30 13832 C 1441.76 5.86697 0.0177286 0
M  V30 13833 C 1444.11 6.31902 -0.297075 0
M  V30 13834 C 1442.78 6.65472 -0.519977 0
M  V30 13835 H 1442.05 0.661315 0.334281 0
M  V30 13836 H 1444.7 1.90654 0.179786 0
M  V30 13837 H 1443 2.96353 2.56285 0
M  V30 13838 H 1444.7 3.27058 2.32022 0
M  V30 13839 H 1441.29 4.12376 1.16806 0
M  V30 13840 H 1445.47 4.9261 0.604092 0
M  V30 13841 H 1440.73 6.11178 -0.164925 0
M  V30 13842 H 1444.9 6.92639 -0.7228 0
M  V30 13843 H 1442.53 7.52004 -1.11331 0
M  V30 13844 N 1444.1 -0.461169 1.50702 0
M  V30 13845 C 1445.03 -1.56576 1.73223 0
M  V30 13846 C 1446.01 -1.59855 0.581401 0
M  V30 13847 O 1447.2 -1.75964 0.821602 0
M  V30 13848 C 1444.33 -2.94835 1.83548 0
M  V30 13849 C 1443.28 -3.06421 2.98815 0
M  V30 13850 C 1442.61 -4.46425 2.94293 0
M  V30 13851 C 1443.91 -2.82714 4.3917 0
M  V30 13852 H 1445.6 -1.37982 2.65709 0
M  V30 13853 H 1443.15 -0.662362 1.27862 0
M  V30 13854 H 1445.1 -3.72047 1.97887 0
M  V30 13855 H 1443.83 -3.14608 0.876906 0
M  V30 13856 H 1442.49 -2.31644 2.84142 0
M  V30 13857 H 1442.13 -4.63131 1.96262 0
M  V30 13858 H 1441.83 -4.55111 3.71682 0
M  V30 13859 H 1443.36 -5.25644 3.10695 0
M  V30 13860 H 1444.77 -3.4967 4.54317 0
M  V30 13861 H 1443.17 -3.02835 5.18084 0
M  V30 13862 H 1444.24 -1.78492 4.50853 0
M  V30 13863 N 1445.58 -1.40446 -0.715026 0
M  V30 13864 C 1446.81 -1.42263 -1.50917 0
M  V30 13865 C 1447.23 -0.0242402 -1.88084 0
M  V30 13866 O 1446.59 0.967817 -1.53307 0
M  V30 13867 C 1446.64 -2.31998 -2.7606 0
M  V30 13868 O 1445.74 -1.76361 -3.72787 0
M  V30 13869 H 1445.08 -0.483614 -0.454988 0
M  V30 13870 H 1447.61 -1.84682 -0.880549 0
M  V30 13871 H 1447.62 -2.47204 -3.24583 0
M  V30 13872 H 1446.3 -3.33614 -2.48343 0
M  V30 13873 H 1444.87 -1.70504 -3.31636 0
M  V30 13874 N 1447.06 0.947303 -1.25952 0
M  V30 13875 C 1448.31 1.68945 -1.10915 0
M  V30 13876 C 1448.63 1.91848 0.349216 0
M  V30 13877 O 1447.9 1.5108 1.24706 0
M  V30 13878 H 1446.48 0.626086 -0.407462 0
M  V30 13879 H 1449.14 1.13854 -1.58187 0
M  V30 13880 H 1448.24 2.6657 -1.62317 0
M  V30 13881 N 1448.54 1.07657 1.15099 0
M  V30 13882 C 1449.95 0.802696 1.37945 0
M  V30 13883 C 1450.15 -0.591622 1.92619 0
M  V30 13884 O 1449.21 -1.34979 2.13394 0
M  V30 13885 C 1450.52 1.87907 2.34759 0
M  V30 13886 C 1452.07 1.90418 2.48415 0
M  V30 13887 C 1452.55 2.97148 3.48521 0
M  V30 13888 N 1454.04 2.96271 3.56059 0
M  V30 13889 C 1454.77 3.75498 4.33346 0
M  V30 13890 N 1454.27 4.64583 5.1394 0
M  V30 13891 N 1456.06 3.63831 4.28466 0
M  V30 13892 H 1448.21 1.97578 0.779537 0
M  V30 13893 H 1450.48 0.856978 0.405331 0
M  V30 13894 H 1450.18 2.8811 2.01707 0
M  V30 13895 H 1450.06 1.74183 3.34575 0
M  V30 13896 H 1452.44 0.908655 2.80762 0
M  V30 13897 H 1452.52 2.0822 1.48586 0
M  V30 13898 H 1452.17 3.96903 3.16908 0
M  V30 13899 H 1452.1 2.76593 4.48112 0
M  V30 13900 H 1454.59 2.31697 2.98538 0
M  V30 13901 H 1454.9 5.2166 5.70167 0
M  V30 13902 H 1453.25 4.6863 5.13236 0
M  V30 13903 H 1456.44 2.93609 3.6457 0
M  V30 13904 H 1456.61 4.25818 4.8845 0
M  V30 13905 N 1450.02 -1.31994 0.861122 0
M  V30 13906 C 1451.43 -1.79271 0.521437 0
M  V30 13907 C 1451.78 -1.71046 -0.96113 0
M  V30 13908 O 1450.9 -1.2729 -1.75003 0
M  V30 13909 C 1451.5 -3.25507 0.939731 0
M  V30 13910 C 1450.06 -3.70713 0.651845 0
M  V30 13911 C 1449.2 -2.52967 1.13592 0
M  V30 13912 H 1452.16 -1.19201 1.0477 0
M  V30 13913 H 1452.18 -3.79619 0.258754 0
M  V30 13914 H 1451.69 -3.3146 2.0188 0
M  V30 13915 H 1449.79 -3.70268 -0.416232 0
M  V30 13916 H 1449.9 -4.63236 1.22267 0
M  V30 13917 H 1448.27 -2.48558 0.555971 0
M  V30 13918 H 1449.05 -2.61671 2.22223 0
M  V30 13919 N 1451.49 -0.619688 -1.44906 0
M  V30 13920 C 1452.74 -0.119633 -2.02146 0
M  V30 13921 C 1453.07 1.25432 -1.48651 0
M  V30 13922 O 1452.32 1.84372 -0.656155 0
M  V30 13923 C 1452.62 -0.0432891 -3.57374 0
M  V30 13924 C 1452.29 -1.35451 -4.30074 0
M  V30 13925 C 1450.95 -1.71365 -4.49653 0
M  V30 13926 C 1453.3 -2.22053 -4.71532 0
M  V30 13927 C 1450.63 -2.93611 -5.07946 0
M  V30 13928 C 1452.98 -3.43559 -5.31178 0
M  V30 13929 C 1451.65 -3.7971 -5.48977 0
M  V30 13930 H 1450.92 -0.0437769 -0.739706 0
M  V30 13931 H 1453.56 -0.803722 -1.73818 0
M  V30 13932 H 1451.87 0.72412 -3.8505 0
M  V30 13933 H 1453.57 0.359964 -3.99381 0
M  V30 13934 H 1450.16 -1.06499 -4.15158 0
M  V30 13935 H 1454.34 -1.95603 -4.56129 0
M  V30 13936 H 1449.6 -3.21712 -5.19915 0
M  V30 13937 H 1453.77 -4.10906 -5.62254 0
M  V30 13938 H 1451.4 -4.7452 -5.93915 0
M  V30 13939 N 1452.97 1.53444 -0.359552 0
M  V30 13940 C 1454.2 2.05286 0.232615 0
M  V30 13941 C 1454.61 1.23322 1.43486 0
M  V30 13942 O 1453.95 0.265369 1.81773 0
M  V30 13943 C 1454.02 3.52698 0.695995 0
M  V30 13944 C 1453.68 4.55344 -0.388751 0
M  V30 13945 C 1454.68 5.04978 -1.23667 0
M  V30 13946 C 1452.36 4.9931 -0.547267 0
M  V30 13947 C 1454.36 5.97174 -2.2285 0
M  V30 13948 C 1452.04 5.91313 -1.54247 0
M  V30 13949 C 1453.04 6.40135 -2.38153 0
M  V30 13950 O 1452.73 7.30325 -3.35976 0
M  V30 13951 H 1452.46 0.674445 0.0458187 0
M  V30 13952 H 1455.01 1.98853 -0.514472 0
M  V30 13953 H 1453.24 3.5665 1.49459 0
M  V30 13954 H 1454.93 3.8743 1.21049 0
M  V30 13955 H 1455.7 4.71763 -1.12537 0
M  V30 13956 H 1451.58 4.609 0.0960246 0
M  V30 13957 H 1455.12 6.35204 -2.88378 0
M  V30 13958 H 1451.02 6.23942 -1.65427 0
M  V30 13959 H 1451.79 7.48305 -3.31635 0
M  V30 13960 N 1454.45 0.0885642 1.57351 0
M  V30 13961 C 1455.4 -0.872723 2.13664 0
M  V30 13962 C 1456.37 -1.28418 1.05347 0
M  V30 13963 O 1457.55 -1.36709 1.33099 0
M  V30 13964 C 1454.69 -2.12886 2.71613 0
M  V30 13965 C 1453.81 -1.76852 3.94141 0
M  V30 13966 C 1452.94 -2.97203 4.40277 0
M  V30 13967 C 1451.98 -2.57265 5.55411 0
M  V30 13968 N 1451.12 -3.70429 5.96428 0
M  V30 13969 H 1455.96 -0.385644 2.95494 0
M  V30 13970 H 1453.49 -0.178688 1.46011 0
M  V30 13971 H 1455.45 -2.86441 3.03327 0
M  V30 13972 H 1454.08 -2.59105 1.92521 0
M  V30 13973 H 1453.13 -0.932921 3.68783 0
M  V30 13974 H 1454.45 -1.43481 4.77718 0
M  V30 13975 H 1453.6 -3.79019 4.7374 0
M  V30 13976 H 1452.34 -3.3378 3.55587 0
M  V30 13977 H 1451.34 -1.73875 5.21582 0
M  V30 13978 H 1452.57 -2.21839 6.41844 0
M  V30 13979 H 1450.51 -4.06737 5.14686 0
M  V30 13980 H 1450.43 -3.40881 6.74786 0
M  V30 13981 H 1451.7 -4.52774 6.3452 0
M  V30 13982 N 1455.93 -1.56509 -0.185096 0
M  V30 13983 C 1457.21 -1.72055 -0.930398 0
M  V30 13984 C 1457.59 -0.646145 -2.00968 0
M  V30 13985 O 1456.93 0.34129 -2.25937 0
M  V30 13986 C 1457.14 -3.14752 -1.50771 0
M  V30 13987 C 1458.49 -3.75292 -1.98597 0
M  V30 13988 O 1459.52 -3.17944 -1.60593 0
M  V30 13989 O 1458.37 -4.7596 -2.68561 0
M  V30 13990 H 1455.47 -0.702118 -0.436989 0
M  V30 13991 H 1458.01 -1.68806 -0.174007 0
M  V30 13992 H 1456.79 -3.84426 -0.730236 0
M  V30 13993 H 1456.41 -3.22272 -2.32866 0
M  V30 13994 N 1457.41 0.45317 -1.50944 0
M  V30 13995 C 1458.65 1.20568 -1.63068 0
M  V30 13996 C 1458.99 1.91229 -0.338375 0
M  V30 13997 O 1458.26 1.82916 0.661207 0
M  V30 13998 C 1458.54 2.23522 -2.8233 0
M  V30 13999 C 1458.4 1.57047 -4.21493 0
M  V30 14000 C 1459.72 3.24663 -2.97123 0
M  V30 14001 H 1456.83 0.436971 -0.593486 0
M  V30 14002 H 1459.48 0.497008 -1.83384 0
M  V30 14003 H 1457.63 2.83961 -2.65139 0
M  V30 14004 H 1459.3 1.00067 -4.50316 0
M  V30 14005 H 1457.54 0.873143 -4.24922 0
M  V30 14006 H 1458.21 2.31949 -5.00903 0
M  V30 14007 H 1460.69 2.74264 -3.12919 0
M  V30 14008 H 1459.56 3.9401 -3.82161 0
M  V30 14009 H 1459.83 3.89843 -2.08506 0
M  V30 14010 N 1458.88 1.40823 0.707568 0
M  V30 14011 C 1459.83 1.4191 1.84294 0
M  V30 14012 C 1460.83 0.298592 1.66748 0
M  V30 14013 O 1462.03 0.47003 1.73755 0
M  V30 14014 H 1458.41 0.44376 0.607109 0
M  V30 14015 H 1460.38 2.37623 1.80494 0
M  V30 14016 C 1459.13 1.30643 3.22223 0
M  V30 14017 H 1458.45 2.16145 3.36335 0
M  V30 14018 H 1459.89 1.35463 4.01778 0
M  V30 14019 C 1458.35 0.0174867 3.36895 0
M  V30 14020 O 1458.88 -0.942398 3.90489 0
M  V30 14021 N 1457.09 -0.0546572 2.90549 0
M  V30 14022 H 1456.63 0.727204 2.47122 0
M  V30 14023 H 1456.59 -0.916521 3.00744 0
M  V30 14024 N 1460.36 -0.94061 1.26453 0
M  V30 14025 C 1461.27 -2.07298 1.09839 0
M  V30 14026 C 1462.29 -1.73971 0.0317477 0
M  V30 14027 O 1463.46 -2.00017 0.235594 0
M  V30 14028 C 1460.53 -3.38847 0.733736 0
M  V30 14029 C 1459.59 -3.85954 1.87985 0
M  V30 14030 C 1458.82 -5.11224 1.5325 0
M  V30 14031 O 1459.05 -5.68743 0.434491 0
M  V30 14032 O 1457.98 -5.53386 2.36743 0
M  V30 14033 H 1461.81 -2.24222 2.04837 0
M  V30 14034 H 1459.39 -1.05763 1.0552 0
M  V30 14035 H 1461.27 -4.17885 0.543131 0
M  V30 14036 H 1459.95 -3.2316 -0.186843 0
M  V30 14037 H 1458.86 -3.07858 2.12542 0
M  V30 14038 H 1460.19 -4.06162 2.78017 0
M  V30 14039 N 1461.84 -1.08266 -1.14527 0
M  V30 14040 C 1463.08 -0.820945 -1.87189 0
M  V30 14041 C 1463.44 0.641556 -1.80964 0
M  V30 14042 O 1464.65 1.01871 -2.48749 0
M  V30 14043 C 1462.92 -1.32668 -3.31865 0
M  V30 14044 S 1464.48 -1.19705 -4.22157 0
M  V30 14045 H 1461.29 -0.297237 -0.645888 0
M  V30 14046 H 1463.9 -1.38364 -1.38114 0
M  V30 14047 H 1462.6 -2.38558 -3.33943 0
M  V30 14048 H 1462.13 -0.759588 -3.85997 0
M  V30 14049 H 1464.15 -0.140421 -4.96001 0
M  V30 14050 N 1463.32 1.31536 -0.86811 0
M  V30 14051 C 1464.27 2.28562 -0.320602 0
M  V30 14052 C 1465.24 1.55648 0.579902 0
M  V30 14053 O 1466.42 1.83804 0.51194 0
M  V30 14054 C 1463.56 3.41836 0.473499 0
M  V30 14055 C 1462.67 4.29604 -0.454311 0
M  V30 14056 C 1461.81 5.30021 0.353733 0
M  V30 14057 C 1460.85 6.09434 -0.570624 0
M  V30 14058 N 1459.99 7.01812 0.201058 0
M  V30 14059 H 1464.83 2.74782 -1.15322 0
M  V30 14060 H 1462.36 1.35179 -0.580088 0
M  V30 14061 H 1464.32 4.06248 0.949662 0
M  V30 14062 H 1462.95 2.96732 1.27083 0
M  V30 14063 H 1462 3.65653 -1.04892 0
M  V30 14064 H 1463.31 4.85048 -1.16316 0
M  V30 14065 H 1462.47 6.001 0.892484 0
M  V30 14066 H 1461.21 4.75228 1.09589 0
M  V30 14067 H 1460.21 5.38247 -1.12115 0
M  V30 14068 H 1461.44 6.66314 -1.3116 0
M  V30 14069 H 1459.38 6.49431 0.926058 0
M  V30 14070 H 1459.3 7.54668 -0.448494 0
M  V30 14071 H 1460.57 7.76157 0.7211 0
M  V30 14072 N 1464.8 0.627364 1.44575 0
M  V30 14073 C 1466.04 0.130545 2.02379 0
M  V30 14074 C 1466.38 -1.24301 1.49208 0
M  V30 14075 O 1465.65 -1.82425 0.674626 0
M  V30 14076 C 1465.93 0.11311 3.59922 0
M  V30 14077 C 1465.79 1.51874 4.23385 0
M  V30 14078 C 1467.11 -0.564341 4.36467 0
M  V30 14079 H 1464.23 0.0489125 0.735375 0
M  V30 14080 H 1466.87 0.803118 1.72192 0
M  V30 14081 H 1465.02 -0.459621 3.85772 0
M  V30 14082 H 1466.69 2.14007 4.08655 0
M  V30 14083 H 1464.93 2.07371 3.81024 0
M  V30 14084 H 1465.6 1.4586 5.3238 0
M  V30 14085 H 1468.08 -0.0773244 4.16028 0
M  V30 14086 H 1466.96 -0.545715 5.46181 0
M  V30 14087 H 1467.22 -1.63403 4.10794 0
M  V30 14088 N 1466.28 -1.53251 0.367684 0
M  V30 14089 C 1467.52 -2.01287 -0.221351 0
M  V30 14090 C 1467.85 -1.25489 -1.48603 0
M  V30 14091 O 1467.11 -0.337392 -1.9277 0
M  V30 14092 C 1467.4 -3.53031 -0.557149 0
M  V30 14093 C 1467.07 -4.46708 0.613444 0
M  V30 14094 C 1465.73 -4.72036 0.934633 0
M  V30 14095 C 1468.08 -5.02112 1.3976 0
M  V30 14096 C 1465.41 -5.50021 2.04191 0
M  V30 14097 C 1467.76 -5.81306 2.49531 0
M  V30 14098 C 1466.43 -6.04921 2.82182 0
M  V30 14099 H 1465.7 -0.73656 -0.080998 0
M  V30 14100 H 1468.35 -1.84842 0.500581 0
M  V30 14101 H 1466.65 -3.67434 -1.36012 0
M  V30 14102 H 1468.35 -3.87674 -1.02519 0
M  V30 14103 H 1464.94 -4.27143 0.353075 0
M  V30 14104 H 1469.12 -4.82488 1.1627 0
M  V30 14105 H 1464.38 -5.66536 2.29884 0
M  V30 14106 H 1468.55 -6.23245 3.10707 0
M  V30 14107 H 1466.18 -6.65134 3.68104 0
M  V30 14108 N 1467.75 -0.0969077 -1.57302 0
M  V30 14109 C 1469.16 0.431942 -1.81635 0
M  V30 14110 C 1469.52 1.68047 -1.01264 0
M  V30 14111 O 1468.64 2.15036 -0.24256 0
M  V30 14112 C 1469.24 0.790426 -3.29451 0
M  V30 14113 C 1467.79 1.26401 -3.54542 0
M  V30 14114 C 1466.94 0.26158 -2.76063 0
M  V30 14115 H 1469.89 -0.322328 -1.55392 0
M  V30 14116 H 1469.91 1.64981 -3.42873 0
M  V30 14117 H 1469.43 -0.118463 -3.87919 0
M  V30 14118 H 1467.53 2.19055 -3.01406 0
M  V30 14119 H 1467.64 1.22459 -4.63185 0
M  V30 14120 H 1466 0.7441 -2.43588 0
M  V30 14121 H 1466.79 -0.640018 -3.37281 0
M  V30 14122 N 1469.23 1.56605 0.176793 0
M  V30 14123 C 1470.48 1.81324 0.892535 0
M  V30 14124 C 1470.8 0.67301 1.83018 0
M  V30 14125 O 1470.07 -0.307498 1.93472 0
M  V30 14126 H 1468.65 0.668881 0.332576 0
M  V30 14127 H 1471.31 1.94086 0.17792 0
M  V30 14128 H 1470.41 2.75168 1.47272 0
M  V30 14129 N 1470.71 -0.445159 1.51182 0
M  V30 14130 C 1471.64 -1.5473 1.74874 0
M  V30 14131 C 1472.62 -1.5923 0.598323 0
M  V30 14132 O 1473.81 -1.75083 0.840219 0
M  V30 14133 C 1470.94 -2.92872 1.86664 0
M  V30 14134 C 1469.89 -3.03235 3.02048 0
M  V30 14135 C 1469.22 -4.43279 2.99012 0
M  V30 14136 C 1470.52 -2.7804 4.42144 0
M  V30 14137 H 1472.21 -1.35156 2.67158 0
M  V30 14138 H 1469.76 -0.648763 1.28558 0
M  V30 14139 H 1471.71 -3.69927 2.01822 0
M  V30 14140 H 1470.43 -3.1366 0.910225 0
M  V30 14141 H 1469.09 -2.28617 2.86583 0
M  V30 14142 H 1468.74 -4.61023 2.01163 0
M  V30 14143 H 1468.44 -4.51144 3.76488 0
M  V30 14144 H 1469.96 -5.22319 3.16252 0
M  V30 14145 H 1471.38 -3.44831 4.58 0
M  V30 14146 H 1469.77 -2.97323 5.21267 0
M  V30 14147 H 1470.84 -1.737 4.52721 0
M  V30 14148 N 1472.19 -1.41197 -0.700089 0
M  V30 14149 C 1473.43 -1.41775 -1.47239 0
M  V30 14150 C 1473.79 -0.0239874 -1.91985 0
M  V30 14151 O 1474.99 0.0954207 -2.68631 0
M  V30 14152 C 1473.26 -2.39268 -2.65491 0
M  V30 14153 S 1474.82 -2.58337 -3.54693 0
M  V30 14154 H 1471.64 -0.502298 -0.503207 0
M  V30 14155 H 1474.24 -1.77596 -0.817296 0
M  V30 14156 H 1472.95 -3.39342 -2.30815 0
M  V30 14157 H 1472.48 -2.04784 -3.35897 0
M  V30 14158 H 1474.49 -1.84739 -4.60528 0
M  V30 14159 N 1473.67 0.933891 -1.2695 0
M  V30 14160 C 1474.89 1.71512 -1.15721 0
M  V30 14161 C 1475.31 1.8661 0.286712 0
M  V30 14162 O 1474.67 1.3787 1.19574 0
M  V30 14163 C 1474.72 3.11804 -1.82922 0
M  V30 14164 O 1474.44 2.97421 -3.21672 0
M  V30 14165 C 1475.94 4.06108 -1.7774 0
M  V30 14166 H 1473.16 0.53678 -0.402626 0
M  V30 14167 H 1475.7 1.17025 -1.67706 0
M  V30 14168 H 1473.86 3.6317 -1.34856 0
M  V30 14169 H 1474.27 3.86069 -3.55037 0
M  V30 14170 H 1475.75 5.02082 -2.29385 0
M  V30 14171 H 1476.22 4.32828 -0.74543 0
M  V30 14172 H 1476.83 3.60665 -2.25391 0
M  V30 14173 N 1475.14 1.08871 1.13951 0
M  V30 14174 C 1476.09 0.692507 2.17229 0
M  V30 14175 C 1477.08 -0.290264 1.5826 0
M  V30 14176 O 1478.27 -0.101531 1.76709 0
M  V30 14177 C 1475.4 0.108487 3.43129 0
M  V30 14178 C 1474.48 1.11733 4.09117 0
M  V30 14179 N 1474.88 2.30244 4.50357 0
M  V30 14180 C 1473.17 0.954172 4.35674 0
M  V30 14181 C 1473.87 2.94373 5.01716 0
M  V30 14182 N 1472.85 2.2196 4.96221 0
M  V30 14183 H 1476.65 1.59489 2.46861 0
M  V30 14184 H 1474.17 0.964113 1.30685 0
M  V30 14185 H 1476.16 -0.193345 4.16451 0
M  V30 14186 H 1474.82 -0.78882 3.14973 0
M  V30 14187 H 1475.83 2.67871 4.43244 0
M  V30 14188 H 1472.51 0.111069 4.17352 0
M  V30 14189 H 1473.9 3.95089 5.43465 0
M  V30 14190 N 1476.62 -1.31073 0.875073 0
M  V30 14191 C 1477.87 -1.9613 0.487584 0
M  V30 14192 C 1478.19 -1.69482 -0.964407 0
M  V30 14193 O 1477.46 -1.013 -1.67676 0
M  V30 14194 H 1476.04 -0.725649 0.177319 0
M  V30 14195 H 1478.7 -1.59787 1.11598 0
M  V30 14196 H 1477.8 -3.05265 0.649574 0
M  V30 14197 N 1478.1 -0.635022 -1.4424 0
M  V30 14198 C 1479.33 -0.14826 -2.06368 0
M  V30 14199 C 1479.74 1.17875 -1.47482 0
M  V30 14200 O 1479.1 1.72384 -0.599168 0
M  V30 14201 C 1479.15 -0.031519 -3.61486 0
M  V30 14202 O 1478.87 -1.30605 -4.18179 0
M  V30 14203 C 1480.37 0.483479 -4.40656 0
M  V30 14204 H 1477.59 -0.081472 -0.666036 0
M  V30 14205 H 1480.14 -0.870526 -1.85046 0
M  V30 14206 H 1478.29 0.641208 -3.82057 0
M  V30 14207 H 1478.71 -1.15341 -5.11661 0
M  V30 14208 H 1480.18 0.514164 -5.496 0
M  V30 14209 H 1480.66 1.51129 -4.12379 0
M  V30 14210 H 1481.26 -0.156131 -4.25013 0
M  V30 14211 N 1479.58 1.53054 -0.375806 0
M  V30 14212 C 1480.82 2.03312 0.210617 0
M  V30 14213 C 1481.18 1.25671 1.45158 0
M  V30 14214 O 1482.38 1.65986 2.11428 0
M  V30 14215 C 1480.65 3.54089 0.485362 0
M  V30 14216 S 1482.21 4.262 1.044 0
M  V30 14217 H 1479.03 0.708419 0.0605214 0
M  V30 14218 H 1481.63 1.88429 -0.521037 0
M  V30 14219 H 1480.34 4.08192 -0.42513 0
M  V30 14220 H 1479.87 3.73153 1.24581 0
M  V30 14221 H 1481.88 4.38227 2.32747 0
M  V30 14222 N 1481.06 0.105248 1.57248 0
M  V30 14223 C 1482.47 -0.251385 1.57608 0
M  V30 14224 C 1482.67 -1.677 1.11709 0
M  V30 14225 O 1481.73 -2.39552 0.798182 0
M  V30 14226 C 1483.04 -0.0305755 3.00684 0
M  V30 14227 C 1484.59 -0.0975409 3.12848 0
M  V30 14228 C 1485.06 0.0954024 4.57901 0
M  V30 14229 N 1486.56 0.040908 4.63182 0
M  V30 14230 C 1487.29 0.165298 5.73162 0
M  V30 14231 N 1486.79 0.345091 6.9194 0
M  V30 14232 N 1488.58 0.105847 5.62 0
M  V30 14233 H 1480.73 1.03658 1.85388 0
M  V30 14234 H 1482.99 0.407074 0.856151 0
M  V30 14235 H 1482.7 0.954461 3.38501 0
M  V30 14236 H 1482.57 -0.768477 3.69289 0
M  V30 14237 H 1484.96 -1.07309 2.74898 0
M  V30 14238 H 1485.04 0.672017 2.46815 0
M  V30 14239 H 1484.69 1.06786 4.96547 0
M  V30 14240 H 1484.62 -0.693974 5.22007 0
M  V30 14241 H 1487.11 -0.0951009 3.7778 0
M  V30 14242 H 1487.42 0.431243 7.71596 0
M  V30 14243 H 1485.76 0.38089 6.93955 0
M  V30 14244 H 1488.96 -0.0335544 4.68088 0
M  V30 14245 H 1489.13 0.206235 6.47672 0
M  V30 14246 N 1482.53 -1.56697 -0.168486 0
M  V30 14247 C 1483.48 -1.9755 -1.22787 0
M  V30 14248 C 1484.48 -0.864668 -1.4567 0
M  V30 14249 O 1485.68 -1.04979 -1.46217 0
M  V30 14250 H 1482.06 -0.628561 -0.412813 0
M  V30 14251 H 1484.03 -2.85845 -0.85646 0
M  V30 14252 C 1482.78 -2.35394 -2.559 0
M  V30 14253 H 1482.1 -3.20412 -2.39115 0
M  V30 14254 H 1483.54 -2.67821 -3.28706 0
M  V30 14255 C 1482 -1.19842 -3.14864 0
M  V30 14256 O 1482.53 -0.487601 -3.9873 0
M  V30 14257 N 1480.74 -0.968249 -2.73995 0
M  V30 14258 H 1480.28 -1.54804 -2.05897 0
M  V30 14259 H 1480.24 -0.196951 -3.13783 0
M  V30 14260 N 1484.01 0.437135 -1.51416 0
M  V30 14261 C 1485.24 1.20898 -1.67903 0
M  V30 14262 C 1485.66 1.85009 -0.376458 0
M  V30 14263 O 1485.01 1.7072 0.645051 0
M  V30 14264 C 1485.06 2.29286 -2.79482 0
M  V30 14265 O 1484.78 1.67798 -4.04692 0
M  V30 14266 C 1486.29 3.19561 -3.07238 0
M  V30 14267 H 1483.51 0.364381 -0.563442 0
M  V30 14268 H 1486.05 0.517931 -1.97833 0
M  V30 14269 H 1484.2 2.94107 -2.5215 0
M  V30 14270 H 1484.62 2.39433 -4.6666 0
M  V30 14271 H 1486.09 3.91748 -3.88893 0
M  V30 14272 H 1486.57 3.80327 -2.19654 0
M  V30 14273 H 1487.18 2.60441 -3.3623 0
M  V30 14274 N 1485.49 1.41566 0.692592 0
M  V30 14275 C 1486.74 1.41292 1.4548 0
M  V30 14276 C 1487.07 0.0229093 1.94186 0
M  V30 14277 O 1486.34 -0.949849 1.6973 0
M  V30 14278 C 1486.63 2.42225 2.66457 0
M  V30 14279 C 1486.48 3.90345 2.23496 0
M  V30 14280 C 1487.8 2.40374 3.68658 0
M  V30 14281 H 1484.92 0.51453 0.527663 0
M  V30 14282 H 1487.56 1.72862 0.788598 0
M  V30 14283 H 1485.71 2.15435 3.23296 0
M  V30 14284 H 1487.38 4.2805 1.71962 0
M  V30 14285 H 1485.63 4.05068 1.55249 0
M  V30 14286 H 1486.3 4.56518 3.10314 0
M  V30 14287 H 1488.77 2.64156 3.21498 0
M  V30 14288 H 1487.65 3.13004 4.5091 0
M  V30 14289 H 1487.91 1.42338 4.1856 0
M  V30 14290 N 1486.97 -0.927146 1.27443 0
M  V30 14291 C 1488.22 -1.67159 1.13589 0
M  V30 14292 C 1488.54 -1.92379 -0.31865 0
M  V30 14293 O 1487.81 -1.53045 -1.22287 0
M  V30 14294 H 1486.39 -0.619524 0.417371 0
M  V30 14295 H 1489.05 -1.11323 1.59979 0
M  V30 14296 H 1488.15 -2.63954 1.66537 0
M  V30 14297 N 1488.45 -1.09474 -1.13372 0
M  V30 14298 C 1489.67 -0.853093 -1.89043 0
M  V30 14299 C 1490.1 0.590075 -1.78605 0
M  V30 14300 O 1489.45 1.41462 -1.13394 0
M  V30 14301 C 1489.5 -1.29359 -3.36599 0
M  V30 14302 O 1488.61 -0.452355 -4.09912 0
M  V30 14303 H 1487.95 -0.308922 -0.587761 0
M  V30 14304 H 1490.48 -1.459 -1.43437 0
M  V30 14305 H 1490.49 -1.27921 -3.87428 0
M  V30 14306 H 1489.16 -2.3446 -3.43513 0
M  V30 14307 H 1487.74 -0.531098 -3.69099 0
M  V30 14308 N 1489.92 1.30607 -0.882012 0
M  V30 14309 C 1491.17 1.96256 -0.498964 0
M  V30 14310 C 1491.5 1.69651 0.951259 0
M  V30 14311 O 1490.75 0.992303 1.68677 0
M  V30 14312 C 1491.05 3.50136 -0.716929 0
M  V30 14313 C 1490.72 3.96785 -2.14178 0
M  V30 14314 C 1489.38 4.09234 -2.53142 0
M  V30 14315 C 1491.73 4.21154 -3.07048 0
M  V30 14316 C 1489.06 4.43411 -3.84192 0
M  V30 14317 C 1491.41 4.56799 -4.37627 0
M  V30 14318 C 1490.08 4.67456 -4.76488 0
M  V30 14319 H 1489.35 0.718153 -0.182584 0
M  V30 14320 H 1491.99 1.55527 -1.1173 0
M  V30 14321 H 1490.3 3.91797 -0.0155388 0
M  V30 14322 H 1492 3.98998 -0.400196 0
M  V30 14323 H 1488.59 3.876 -1.82932 0
M  V30 14324 H 1492.77 4.1102 -2.78167 0
M  V30 14325 H 1488.03 4.49861 -4.14047 0
M  V30 14326 H 1492.2 4.74607 -5.09629 0
M  V30 14327 H 1489.83 4.93694 -5.78074 0
M  V30 14328 N 1491.4 0.642663 1.43901 0
M  V30 14329 C 1492.35 -0.0774542 2.27868 0
M  V30 14330 C 1493.34 -0.805028 1.39313 0
M  V30 14331 O 1494.53 -0.689234 1.63029 0
M  V30 14332 C 1491.66 -1.05046 3.26834 0
M  V30 14333 C 1490.74 -0.321911 4.22877 0
M  V30 14334 N 1491.13 0.655802 5.01531 0
M  V30 14335 C 1489.43 -0.5648 4.42409 0
M  V30 14336 C 1490.13 1.08729 5.71448 0
M  V30 14337 N 1489.11 0.423699 5.41946 0
M  V30 14338 H 1492.91 0.672951 2.86092 0
M  V30 14339 H 1490.43 0.469088 1.55478 0
M  V30 14340 H 1492.42 -1.58106 3.85756 0
M  V30 14341 H 1491.08 -1.80104 2.70171 0
M  V30 14342 H 1492.09 1.0341 5.07471 0
M  V30 14343 H 1488.77 -1.29736 3.96831 0
M  V30 14344 H 1490.16 1.89569 6.44603 0
M  V30 14345 N 1492.88 -1.52852 0.383918 0
M  V30 14346 C 1494.12 -2.03421 -0.199832 0
M  V30 14347 C 1494.49 -1.26439 -1.44489 0
M  V30 14348 O 1495.69 -1.67105 -2.10545 0
M  V30 14349 C 1493.96 -3.54341 -0.466577 0
M  V30 14350 S 1495.52 -4.26747 -1.02138 0
M  V30 14351 H 1492.33 -0.70873 -0.0567636 0
M  V30 14352 H 1494.94 -1.8815 0.531022 0
M  V30 14353 H 1493.64 -4.07961 0.446772 0
M  V30 14354 H 1493.17 -3.73808 -1.226 0
M  V30 14355 H 1495.19 -4.39456 -2.3042 0
M  V30 14356 N 1494.36 -0.113586 -1.5719 0
M  V30 14357 C 1495.32 0.824258 -2.13866 0
M  V30 14358 C 1496.32 1.19831 -1.07224 0
M  V30 14359 O 1497.51 1.12471 -1.33026 0
M  V30 14360 C 1494.64 2.11391 -2.67445 0
M  V30 14361 H 1495.84 0.331803 -2.98059 0
M  V30 14362 H 1493.39 0.135599 -1.55711 0
M  V30 14363 H 1494.13 2.65079 -1.86824 0
M  V30 14364 H 1493.91 1.85523 -3.45433 0
M  V30 14365 H 1495.4 2.78443 -3.11222 0
M  V30 14366 N 1495.84 1.56784 0.160173 0
M  V30 14367 C 1497.08 1.84422 0.881348 0
M  V30 14368 C 1497.44 0.696069 1.78938 0
M  V30 14369 O 1498.64 0.853174 2.54901 0
M  V30 14370 C 1496.91 3.17208 1.64662 0
M  V30 14371 S 1498.47 3.66363 2.41503 0
M  V30 14372 H 1495.29 0.646923 0.294978 0
M  V30 14373 H 1497.89 1.94982 0.142215 0
M  V30 14374 H 1496.6 3.98753 0.970782 0
M  V30 14375 H 1496.13 3.0962 2.42692 0
M  V30 14376 H 1498.14 3.34577 3.66432 0
M  V30 14377 N 1497.32 -0.429099 1.51646 0
M  V30 14378 C 1498.28 -1.50398 1.72954 0
M  V30 14379 C 1499.28 -1.49207 0.599491 0
M  V30 14380 O 1500.47 -1.51084 0.867143 0
M  V30 14381 C 1497.6 -2.89903 1.79358 0
M  V30 14382 H 1498.79 -1.32805 2.68892 0
M  V30 14383 H 1496.35 -0.658313 1.4176 0
M  V30 14384 H 1497.08 -3.12891 0.852639 0
M  V30 14385 H 1496.87 -2.92171 2.61492 0
M  V30 14386 H 1498.36 -3.67862 1.97654 0
M  V30 14387 N 1498.79 -1.41931 -0.685074 0
M  V30 14388 C 1500.04 -1.41571 -1.44229 0
M  V30 14389 C 1500.36 -0.0294445 -1.94978 0
M  V30 14390 O 1499.63 0.930414 -1.72395 0
M  V30 14391 H 1498.21 -0.521138 -0.535186 0
M  V30 14392 H 1500.87 -1.77263 -0.81017 0
M  V30 14393 H 1499.97 -2.10929 -2.30034 0
M  V30 14394 N 1500.27 0.920374 -1.27933 0
M  V30 14395 C 1501.52 1.66554 -1.14474 0
M  V30 14396 C 1501.84 1.92545 0.308444 0
M  V30 14397 O 1501.11 1.53691 1.21473 0
M  V30 14398 H 1499.69 0.617302 -0.420651 0
M  V30 14399 H 1502.35 1.10473 -1.60567 0
M  V30 14400 H 1501.45 2.63067 -1.67935 0
M  V30 14401 N 1501.75 1.10074 1.1279 0
M  V30 14402 C 1503 0.840873 1.84216 0
M  V30 14403 C 1503.32 -0.633551 1.83892 0
M  V30 14404 O 1502.58 -1.48283 1.27714 0
M  V30 14405 C 1502.88 1.32969 3.31744 0
M  V30 14406 C 1502.54 2.81489 3.52242 0
M  V30 14407 C 1501.21 3.22048 3.57545 0
M  V30 14408 C 1503.56 3.77216 3.59664 0
M  V30 14409 C 1500.89 4.57092 3.67809 0
M  V30 14410 C 1503.24 5.12057 3.71457 0
M  V30 14411 C 1501.9 5.52196 3.75014 0
M  V30 14412 H 1501.17 0.307697 0.674095 0
M  V30 14413 H 1503.82 1.37669 1.33115 0
M  V30 14414 H 1502.12 0.713819 3.85243 0
M  V30 14415 H 1503.82 1.10515 3.8547 0
M  V30 14416 H 1500.41 2.49106 3.48775 0
M  V30 14417 H 1504.6 3.4699 3.5484 0
M  V30 14418 H 1499.85 4.87618 3.68834 0
M  V30 14419 H 1504.03 5.86081 3.76142 0
M  V30 14420 H 1501.65 6.56833 3.8272 0
M  V30 14421 N 1503.23 -1.30138 0.888926 0
M  V30 14422 C 1504.19 -2.26299 0.363504 0
M  V30 14423 C 1505.19 -1.52951 -0.496244 0
M  V30 14424 O 1506.38 -1.71548 -0.302834 0
M  V30 14425 C 1503.51 -3.37482 -0.481544 0
M  V30 14426 H 1504.71 -2.7429 1.21265 0
M  V30 14427 H 1502.26 -1.41395 0.666124 0
M  V30 14428 H 1502.99 -2.94814 -1.35112 0
M  V30 14429 H 1502.78 -3.9187 0.134344 0
M  V30 14430 H 1504.27 -4.09048 -0.840816 0
M  V30 14431 N 1504.71 -0.650285 -1.43559 0
M  V30 14432 C 1505.64 0.0295939 -2.33481 0
M  V30 14433 C 1506.62 0.815017 -1.49303 0
M  V30 14434 O 1507.8 0.77708 -1.77975 0
M  V30 14435 C 1504.93 0.998683 -3.32631 0
M  V30 14436 C 1503.89 0.323577 -4.26775 0
M  V30 14437 C 1503.21 1.40391 -5.1594 0
M  V30 14438 C 1504.51 -0.782197 -5.1641 0
M  V30 14439 H 1506.21 -0.721349 -2.9058 0
M  V30 14440 H 1503.75 -0.348339 -1.39723 0
M  V30 14441 H 1505.7 1.4832 -3.94435 0
M  V30 14442 H 1504.43 1.78075 -2.73782 0
M  V30 14443 H 1503.09 -0.140467 -3.66331 0
M  V30 14444 H 1502.74 2.17734 -4.53432 0
M  V30 14445 H 1502.44 0.957462 -5.79747 0
M  V30 14446 H 1503.96 1.88985 -5.80618 0
M  V30 14447 H 1505.37 -0.379966 -5.72039 0
M  V30 14448 H 1503.77 -1.15293 -5.88921 0
M  V30 14449 H 1504.84 -1.6414 -4.56274 0
M  V30 14450 N 1506.18 1.52647 -0.392018 0
M  V30 14451 C 1507.46 1.94034 0.247004 0
M  V30 14452 C 1507.84 1.32767 1.64122 0
M  V30 14453 O 1507.19 0.496822 2.23033 0
M  V30 14454 C 1507.4 3.47949 0.270615 0
M  V30 14455 C 1508.75 4.21666 0.498256 0
M  V30 14456 O 1509.77 3.54469 0.350708 0
M  V30 14457 O 1508.63 5.40795 0.787586 0
M  V30 14458 H 1505.72 0.812487 0.154251 0
M  V30 14459 H 1508.27 1.63715 -0.446723 0
M  V30 14460 H 1507.04 3.84881 -0.705862 0
M  V30 14461 H 1506.66 3.8458 1.00915 0
M  V30 14462 N 1507.66 0.121921 1.57128 0
M  V30 14463 C 1508.63 -0.812905 2.143 0
M  V30 14464 C 1509.63 -1.19261 1.07858 0
M  V30 14465 O 1510.82 -1.11764 1.33621 0
M  V30 14466 C 1507.95 -2.09969 2.68562 0
M  V30 14467 H 1509.14 -0.315992 2.98231 0
M  V30 14468 H 1506.69 -0.12734 1.5578 0
M  V30 14469 H 1507.43 -2.64085 1.88228 0
M  V30 14470 H 1507.21 -1.83688 3.46412 0
M  V30 14471 H 1508.7 -2.76788 3.12695 0
M  V30 14472 N 1509.14 -1.56867 -0.151857 0
M  V30 14473 C 1510.07 -1.94494 -1.21263 0
M  V30 14474 C 1511.09 -0.84021 -1.39443 0
M  V30 14475 O 1512.27 -1.11863 -1.391 0
M  V30 14476 C 1509.37 -2.19952 -2.57826 0
M  V30 14477 C 1508.55 -3.51227 -2.60689 0
M  V30 14478 C 1507.61 -3.65282 -3.78756 0
M  V30 14479 O 1506.63 -4.3772 -3.63854 0
M  V30 14480 N 1507.83 -3.01582 -4.96012 0
M  V30 14481 H 1510.6 -2.86092 -0.892845 0
M  V30 14482 H 1508.16 -1.58258 -0.341463 0
M  V30 14483 H 1510.15 -2.266 -3.35312 0
M  V30 14484 H 1508.72 -1.34643 -2.82117 0
M  V30 14485 H 1507.94 -3.56062 -1.69155 0
M  V30 14486 H 1509.23 -4.37574 -2.59628 0
M  V30 14487 H 1508.63 -2.42637 -5.11022 0
M  V30 14488 H 1507.19 -3.13799 -5.71291 0
M  V30 14489 N 1510.62 0.421051 -1.51871 0
M  V30 14490 C 1511.53 1.5371 -1.7723 0
M  V30 14491 C 1512.54 1.61109 -0.657256 0
M  V30 14492 O 1513.72 1.78047 -0.941343 0
M  V30 14493 C 1510.79 2.89555 -1.9068 0
M  V30 14494 C 1509.85 2.9214 -3.14567 0
M  V30 14495 C 1509.08 4.21505 -3.27367 0
M  V30 14496 O 1509.3 5.14764 -2.45712 0
M  V30 14497 O 1508.24 4.30706 -4.20448 0
M  V30 14498 H 1512.06 1.35221 -2.71935 0
M  V30 14499 H 1509.65 0.605712 -1.3657 0
M  V30 14500 H 1511.53 3.70147 -2.01418 0
M  V30 14501 H 1510.2 3.08137 -0.991627 0
M  V30 14502 H 1509.11 2.10444 -3.09296 0
M  V30 14503 H 1510.44 2.78505 -4.05827 0
M  V30 14504 N 1512.1 1.42293 0.677538 0
M  V30 14505 C 1513.51 1.25158 0.990334 0
M  V30 14506 C 1513.71 0.153803 2.00912 0
M  V30 14507 O 1512.77 -0.475868 2.47975 0
M  V30 14508 C 1514.08 2.60745 1.49775 0
M  V30 14509 C 1515.63 2.68077 1.61566 0
M  V30 14510 C 1516.1 4.04024 2.15705 0
M  V30 14511 N 1517.6 4.05964 2.23042 0
M  V30 14512 C 1518.33 5.07968 2.66 0
M  V30 14513 N 1517.83 6.20356 3.08432 0
M  V30 14514 N 1519.62 4.95325 2.65725 0
M  V30 14515 H 1511.77 2.124 0.00295822 0
M  V30 14516 H 1514.03 0.945848 0.06384 0
M  V30 14517 H 1513.74 3.41919 0.823672 0
M  V30 14518 H 1513.61 2.84476 2.47695 0
M  V30 14519 H 1516 1.87251 2.28082 0
M  V30 14520 H 1516.08 2.48137 0.621434 0
M  V30 14521 H 1515.73 4.85306 1.498 0
M  V30 14522 H 1515.66 4.21314 3.15914 0
M  V30 14523 H 1518.15 3.24827 1.93122 0
M  V30 14524 H 1518.46 6.94043 3.39889 0
M  V30 14525 H 1516.8 6.23865 3.06296 0
M  V30 14526 H 1520 4.06599 2.31936 0
M  V30 14527 H 1520.17 5.74954 2.98884 0
M  V30 14528 N 1513.57 -0.913576 1.28419 0
M  V30 14529 C 1514.52 -2.03739 1.1222 0
M  V30 14530 C 1515.52 -1.69349 0.0414309 0
M  V30 14531 O 1516.72 -1.78883 0.200213 0
M  V30 14532 H 1513.1 -0.667554 0.34623 0
M  V30 14533 H 1515.07 -2.14544 2.07397 0
M  V30 14534 C 1513.82 -3.38348 0.801003 0
M  V30 14535 H 1513.14 -3.65304 1.6246 0
M  V30 14536 H 1514.58 -4.1771 0.727611 0
M  V30 14537 C 1513.04 -3.3324 -0.495261 0
M  V30 14538 O 1513.57 -3.71606 -1.52551 0
M  V30 14539 N 1511.78 -2.86335 -0.496054 0
M  V30 14540 H 1511.32 -2.55309 0.342773 0
M  V30 14541 H 1511.28 -2.833 -1.3634 0
M  V30 14542 N 1515.05 -1.1067 -1.12204 0
M  V30 14543 C 1516.29 -0.860466 -1.85406 0
M  V30 14544 C 1516.66 0.603027 -1.82284 0
M  V30 14545 O 1517.86 0.965713 -2.50853 0
M  V30 14546 C 1516.13 -1.39677 -3.28976 0
M  V30 14547 S 1517.69 -1.28633 -4.19522 0
M  V30 14548 H 1514.51 -0.31087 -0.639438 0
M  V30 14549 H 1517.11 -1.41263 -1.35148 0
M  V30 14550 H 1515.81 -2.45588 -3.28808 0
M  V30 14551 H 1515.34 -0.841293 -3.84299 0
M  V30 14552 H 1517.36 -0.245599 -4.95592 0
M  V30 14553 N 1516.53 1.29665 -0.895815 0
M  V30 14554 C 1517.76 1.99862 -0.535043 0
M  V30 14555 C 1518.17 1.67077 0.879245 0
M  V30 14556 O 1517.53 0.913717 1.57979 0
M  V30 14557 C 1517.58 3.54396 -0.713132 0
M  V30 14558 O 1517.3 3.86018 -2.07175 0
M  V30 14559 C 1518.8 4.41862 -0.356792 0
M  V30 14560 H 1516.02 0.638693 -0.205699 0
M  V30 14561 H 1518.57 1.65293 -1.20409 0
M  V30 14562 H 1516.72 3.87292 -0.0913116 0
M  V30 14563 H 1517.14 4.80701 -2.09827 0
M  V30 14564 H 1518.61 5.49428 -0.532252 0
M  V30 14565 H 1519.09 4.3349 0.705914 0
M  V30 14566 H 1519.69 4.1443 -0.95539 0
M  V30 14567 N 1518.01 0.657889 1.43212 0
M  V30 14568 C 1519.29 0.102895 1.95329 0
M  V30 14569 C 1519.67 -1.37821 1.59901 0
M  V30 14570 O 1519.01 -2.10602 0.886505 0
M  V30 14571 C 1519.22 0.354075 3.47199 0
M  V30 14572 C 1520.57 0.261511 4.23794 0
M  V30 14573 O 1521.6 0.286889 3.55043 0
M  V30 14574 O 1520.45 0.189209 5.46172 0
M  V30 14575 H 1517.55 -0.00692284 0.826971 0
M  V30 14576 H 1520.09 0.73145 1.53127 0
M  V30 14577 H 1518.87 1.38075 3.6613 0
M  V30 14578 H 1518.49 -0.307321 3.96411 0
M  V30 14579 N 1519.49 -1.52437 0.400108 0
M  V30 14580 C 1520.74 -2.00896 -0.179909 0
M  V30 14581 C 1521.05 -1.29046 -1.46991 0
M  V30 14582 O 1522.25 -1.68274 -2.13063 0
M  V30 14583 C 1520.71 -3.57981 -0.371169 0
M  V30 14584 C 1520.32 -4.38739 0.906213 0
M  V30 14585 C 1522.06 -4.14698 -0.906965 0
M  V30 14586 C 1519.97 -5.87447 0.682637 0
M  V30 14587 H 1518.9 -0.750649 -0.071008 0
M  V30 14588 H 1521.55 -1.75854 0.524169 0
M  V30 14589 H 1519.93 -3.79315 -1.13736 0
M  V30 14590 H 1521.11 -4.29167 1.67785 0
M  V30 14591 H 1519.42 -3.93296 1.36776 0
M  V30 14592 H 1522.02 -5.2347 -1.09012 0
M  V30 14593 H 1522.36 -3.71477 -1.87911 0
M  V30 14594 H 1522.89 -3.97297 -0.200068 0
M  V30 14595 H 1519.63 -6.35011 1.62608 0
M  V30 14596 H 1519.15 -5.99779 -0.0498716 0
M  V30 14597 H 1520.83 -6.46202 0.321331 0
M  V30 14598 N 1520.96 -0.130252 -1.57061 0
M  V30 14599 C 1522.24 0.569171 -1.87136 0
M  V30 14600 C 1522.62 1.84078 -1.03337 0
M  V30 14601 O 1521.97 2.28208 -0.11543 0
M  V30 14602 C 1522.18 0.850782 -3.38471 0
M  V30 14603 C 1523.53 1.19892 -4.07322 0
M  V30 14604 O 1524.55 0.940682 -3.43554 0
M  V30 14605 O 1523.41 1.6841 -5.19904 0
M  V30 14606 H 1520.5 0.288433 -0.775071 0
M  V30 14607 H 1523.05 -0.165603 -1.6889 0
M  V30 14608 H 1521.82 -0.0498562 -3.91268 0
M  V30 14609 H 1521.45 1.64032 -3.62187 0
M  V30 14610 N 1522.44 1.56945 0.143535 0
M  V30 14611 C 1523.35 2.01795 1.1965 0
M  V30 14612 C 1524.37 0.933965 1.4681 0
M  V30 14613 O 1525.55 1.2437 1.58411 0
M  V30 14614 C 1522.61 2.39249 2.5092 0
M  V30 14615 C 1521.67 3.61613 2.31376 0
M  V30 14616 C 1520.9 3.97271 3.56386 0
M  V30 14617 O 1521.13 3.33552 4.62709 0
M  V30 14618 O 1520.06 4.90501 3.48844 0
M  V30 14619 H 1523.89 2.91687 0.845718 0
M  V30 14620 H 1521.47 1.45182 0.352518 0
M  V30 14621 H 1523.35 2.64184 3.28306 0
M  V30 14622 H 1522.03 1.52511 2.85521 0
M  V30 14623 H 1520.94 3.4186 1.51929 0
M  V30 14624 H 1522.27 4.48979 2.01689 0
M  V30 14625 N 1523.92 -0.412991 1.52093 0
M  V30 14626 C 1525.16 -1.16951 1.67636 0
M  V30 14627 C 1525.53 -1.87875 0.39583 0
M  V30 14628 O 1526.73 -2.65382 0.42732 0
M  V30 14629 C 1525 -2.14052 2.8621 0
M  V30 14630 S 1526.56 -2.97863 3.22215 0
M  V30 14631 H 1523.37 -0.396249 0.590345 0
M  V30 14632 H 1525.98 -0.457386 1.90074 0
M  V30 14633 H 1524.68 -1.60628 3.7766 0
M  V30 14634 H 1524.21 -2.89809 2.66034 0
M  V30 14635 H 1526.23 -4.15961 2.70538 0
M  V30 14636 N 1525.4 -1.4265 -0.669982 0
M  V30 14637 C 1526.82 -1.25682 -0.983682 0
M  V30 14638 C 1527.02 -0.164456 -2.00828 0
M  V30 14639 O 1526.07 0.462711 -2.48224 0
M  V30 14640 C 1527.38 -2.61536 -1.4839 0
M  V30 14641 C 1528.93 -2.6893 -1.60143 0
M  V30 14642 C 1529.41 -4.05162 -2.1356 0
M  V30 14643 N 1530.9 -4.07141 -2.20886 0
M  V30 14644 C 1531.63 -5.09371 -2.63303 0
M  V30 14645 N 1531.13 -6.21983 -3.05137 0
M  V30 14646 N 1532.92 -4.96727 -2.63094 0
M  V30 14647 H 1525.07 -2.12398 0.0083059 0
M  V30 14648 H 1527.34 -0.946173 -0.058823 0
M  V30 14649 H 1527.04 -3.42351 -0.805527 0
M  V30 14650 H 1526.92 -2.85786 -2.46183 0
M  V30 14651 H 1529.3 -1.88457 -2.27085 0
M  V30 14652 H 1529.38 -2.48463 -0.608266 0
M  V30 14653 H 1529.03 -4.86094 -1.47224 0
M  V30 14654 H 1528.96 -4.22984 -3.13676 0
M  V30 14655 H 1531.45 -3.25846 -1.91396 0
M  V30 14656 H 1531.76 -6.95835 -3.36204 0
M  V30 14657 H 1530.11 -6.25481 -3.02983 0
M  V30 14658 H 1533.3 -4.07824 -2.29777 0
M  V30 14659 H 1533.47 -5.76531 -2.95831 0
M  V30 14660 N 1526.88 0.906753 -1.28902 0
M  V30 14661 C 1528.13 1.65119 -1.15839 0
M  V30 14662 C 1528.44 1.93426 0.290825 0
M  V30 14663 O 1529.65 2.66021 0.542678 0
M  V30 14664 C 1528.1 2.97492 -2.0255 0
M  V30 14665 C 1527.71 2.76807 -3.52253 0
M  V30 14666 C 1529.45 3.75393 -1.98192 0
M  V30 14667 C 1527.36 4.04863 -4.31091 0
M  V30 14668 H 1526.29 0.619409 -0.429939 0
M  V30 14669 H 1528.94 1.00567 -1.53488 0
M  V30 14670 H 1527.32 3.63217 -1.57763 0
M  V30 14671 H 1528.5 2.19719 -4.05044 0
M  V30 14672 H 1526.81 2.1231 -3.58209 0
M  V30 14673 H 1529.41 4.70325 -2.54358 0
M  V30 14674 H 1529.75 4.05074 -0.960267 0
M  V30 14675 H 1530.29 3.16498 -2.40985 0
M  V30 14676 H 1527.02 3.80353 -5.33865 0
M  V30 14677 H 1526.54 4.61537 -3.83072 0
M  V30 14678 H 1528.22 4.73066 -4.41381 0
M  V30 14679 N 1528.36 1.11264 1.11616 0
M  V30 14680 C 1529.58 0.88306 1.87661 0
M  V30 14681 C 1530.01 -0.561586 1.79521 0
M  V30 14682 O 1529.36 -1.3964 1.1563 0
M  V30 14683 C 1529.41 1.34698 3.34498 0
M  V30 14684 O 1528.52 0.517512 4.0914 0
M  V30 14685 H 1527.86 0.318233 0.582772 0
M  V30 14686 H 1530.39 1.48164 1.41098 0
M  V30 14687 H 1530.4 1.34068 3.85344 0
M  V30 14688 H 1529.07 2.39896 3.39739 0
M  V30 14689 H 1527.65 0.589751 3.68207 0
M  V30 14690 N 1529.83 -1.29188 0.902679 0
M  V30 14691 C 1531.24 -1.77521 0.578207 0
M  V30 14692 C 1531.6 -1.74017 -0.906227 0
M  V30 14693 O 1530.72 -1.32793 -1.70865 0
M  V30 14694 C 1531.32 -3.22352 1.04281 0
M  V30 14695 C 1529.87 -3.68451 0.769454 0
M  V30 14696 C 1529.02 -2.49225 1.21583 0
M  V30 14697 H 1531.97 -1.15807 1.0851 0
M  V30 14698 H 1531.99 -3.78604 0.379396 0
M  V30 14699 H 1531.51 -3.2487 2.12323 0
M  V30 14700 H 1529.61 -3.71405 -0.298223 0
M  V30 14701 H 1529.72 -4.59112 1.36943 0
M  V30 14702 H 1528.08 -2.46663 0.634766 0
M  V30 14703 H 1528.87 -2.54469 2.30436 0
M  V30 14704 N 1531.31 -0.665475 -1.42861 0
M  V30 14705 C 1532.59 -0.113252 -1.95272 0
M  V30 14706 C 1532.97 1.36972 -1.6063 0
M  V30 14707 O 1532.32 2.10129 -0.897662 0
M  V30 14708 C 1532.53 -0.372482 -3.47007 0
M  V30 14709 C 1533.87 -0.283982 -4.23649 0
M  V30 14710 O 1534.9 -0.305714 -3.54886 0
M  V30 14711 O 1533.76 -0.218171 -5.46064 0
M  V30 14712 H 1530.85 0.00253712 -0.826996 0
M  V30 14713 H 1533.4 -0.739561 -1.52737 0
M  V30 14714 H 1532.17 -1.40015 -3.65392 0
M  V30 14715 H 1531.79 0.286294 -3.96568 0
M  V30 14716 N 1532.79 1.52222 -0.408187 0
M  V30 14717 C 1533.72 2.29892 0.408868 0
M  V30 14718 C 1534.7 1.34063 1.04695 0
M  V30 14719 O 1535.89 1.6297 1.05615 0
M  V30 14720 C 1533.02 3.11964 1.52629 0
M  V30 14721 C 1531.97 4.15833 1.01326 0
M  V30 14722 C 1531.3 4.86244 2.2242 0
M  V30 14723 C 1532.6 5.22256 0.0679573 0
M  V30 14724 H 1534.29 2.98443 -0.23923 0
M  V30 14725 H 1531.84 1.43528 -0.116496 0
M  V30 14726 H 1533.79 3.65067 2.10486 0
M  V30 14727 H 1532.51 2.41181 2.20225 0
M  V30 14728 H 1531.17 3.63739 0.4571 0
M  V30 14729 H 1530.82 4.11991 2.88569 0
M  V30 14730 H 1530.52 5.56461 1.88746 0
M  V30 14731 H 1532.04 5.42159 2.80885 0
M  V30 14732 H 1533.46 5.70604 0.555295 0
M  V30 14733 H 1531.85 5.9983 -0.179934 0
M  V30 14734 H 1532.92 4.76892 -0.877599 0
M  V30 14735 N 1534.27 0.138579 1.5699 0
M  V30 14736 C 1535.51 -0.517479 1.97741 0
M  V30 14737 C 1535.87 -1.62587 1.02125 0
M  V30 14738 O 1537.07 -2.3422 1.31888 0
M  V30 14739 C 1535.34 -1.01841 3.42583 0
M  V30 14740 S 1536.9 -1.68025 4.05355 0
M  V30 14741 H 1533.72 -0.167594 0.690965 0
M  V30 14742 H 1536.32 0.2283 1.94162 0
M  V30 14743 H 1535.03 -0.200832 4.09908 0
M  V30 14744 H 1534.56 -1.79901 3.49856 0
M  V30 14745 H 1536.57 -2.96708 3.97717 0
M  V30 14746 N 1535.75 -1.57019 -0.13521 0
M  V30 14747 C 1536.99 -1.83626 -0.844147 0
M  V30 14748 C 1537.31 -0.721298 -1.81169 0
M  V30 14749 O 1536.58 0.256095 -1.94219 0
M  V30 14750 H 1535.16 -0.677464 -0.314725 0
M  V30 14751 H 1537.83 -1.9449 -0.126399 0
M  V30 14752 H 1536.92 -2.78976 -1.39925 0
M  V30 14753 N 1537.22 0.404919 -1.52309 0
M  V30 14754 C 1538.16 1.51276 -1.72186 0
M  V30 14755 C 1539.17 1.5125 -0.602276 0
M  V30 14756 O 1540.36 1.55439 -0.877549 0
M  V30 14757 C 1537.46 2.90162 -1.75099 0
M  V30 14758 C 1536.63 3.14333 -3.04161 0
M  V30 14759 C 1535.69 4.33113 -2.9883 0
M  V30 14760 O 1534.72 4.30189 -3.72728 0
M  V30 14761 N 1535.92 5.38451 -2.16911 0
M  V30 14762 H 1538.68 1.34618 -2.67765 0
M  V30 14763 H 1536.24 0.594264 -1.50599 0
M  V30 14764 H 1538.24 3.67697 -1.69058 0
M  V30 14765 H 1536.81 3.00257 -0.869756 0
M  V30 14766 H 1536.03 2.24803 -3.23817 0
M  V30 14767 H 1537.31 3.27327 -3.89531 0
M  V30 14768 H 1536.71 5.43676 -1.56309 0
M  V30 14769 H 1535.27 6.14715 -2.16724 0
M  V30 14770 N 1538.7 1.43003 0.662408 0
M  V30 14771 C 1539.95 1.43848 1.41958 0
M  V30 14772 C 1540.27 0.06046 1.94906 0
M  V30 14773 O 1539.54 -0.90287 1.73854 0
M  V30 14774 H 1538.12 0.529587 0.526827 0
M  V30 14775 H 1540.78 1.7853 0.781867 0
M  V30 14776 H 1539.88 2.14562 2.26649 0
M  V30 14777 N 1540.18 -0.899904 1.29381 0
M  V30 14778 C 1541.41 -1.68383 1.20227 0
M  V30 14779 C 1541.82 -1.87305 -0.237135 0
M  V30 14780 O 1541.18 -1.40992 -1.15877 0
M  V30 14781 C 1541.23 -3.06845 1.91124 0
M  V30 14782 O 1540.95 -2.88787 3.29444 0
M  V30 14783 C 1542.45 -4.01253 1.88444 0
M  V30 14784 H 1539.67 -0.525917 0.416717 0
M  V30 14785 H 1542.22 -1.12537 1.7075 0
M  V30 14786 H 1540.37 -3.59467 1.44438 0
M  V30 14787 H 1540.79 -3.7652 3.65148 0
M  V30 14788 H 1542.26 -4.95824 2.42616 0
M  V30 14789 H 1542.74 -4.30699 0.859925 0
M  V30 14790 H 1543.34 -3.54562 2.34874 0
M  V30 14791 N 1541.66 -1.11854 -1.11024 0
M  V30 14792 C 1542.9 -0.880082 -1.84483 0
M  V30 14793 C 1543.26 0.583659 -1.82914 0
M  V30 14794 O 1544.46 0.939053 -2.51864 0
M  V30 14795 C 1542.73 -1.43158 -3.27476 0
M  V30 14796 S 1544.29 -1.33075 -4.18135 0
M  V30 14797 H 1541.11 -0.317635 -0.636105 0
M  V30 14798 H 1543.71 -1.42688 -1.33642 0
M  V30 14799 H 1542.42 -2.49061 -3.26185 0
M  V30 14800 H 1541.95 -0.882005 -3.83385 0
M  V30 14801 H 1543.96 -0.298149 -4.95303 0
M  V30 14802 N 1543.14 1.28707 -0.909517 0
M  V30 14803 C 1544.38 1.95443 -0.541281 0
M  V30 14804 C 1544.72 1.71457 0.911934 0
M  V30 14805 O 1543.99 1.03312 1.64794 0
M  V30 14806 C 1544.27 3.50019 -0.846097 0
M  V30 14807 C 1544.13 3.83423 -2.35173 0
M  V30 14808 C 1545.45 4.3879 -0.339328 0
M  V30 14809 H 1542.56 0.709869 -0.198128 0
M  V30 14810 H 1545.21 1.52151 -1.13799 0
M  V30 14811 H 1543.36 3.87025 -0.338262 0
M  V30 14812 H 1545.03 3.5631 -2.92986 0
M  V30 14813 H 1543.27 3.30618 -2.80846 0
M  V30 14814 H 1543.94 4.91348 -2.51557 0
M  V30 14815 H 1546.42 4.08832 -0.774312 0
M  V30 14816 H 1545.29 5.45809 -0.581722 0
M  V30 14817 H 1545.56 4.35514 0.760244 0
M  V30 14818 N 1544.61 0.673042 1.42506 0
M  V30 14819 C 1545.56 -0.0180603 2.32593 0
M  V30 14820 C 1546.56 -0.7924 1.49724 0
M  V30 14821 O 1547.76 -0.700563 1.65807 0
M  V30 14822 H 1544.14 -0.0246346 0.751596 0
M  V30 14823 H 1546.11 0.759153 2.88582 0
M  V30 14824 C 1544.86 -0.95676 3.34277 0
M  V30 14825 H 1544.18 -0.370341 3.98081 0
M  V30 14826 H 1545.62 -1.40905 3.99902 0
M  V30 14827 C 1544.08 -2.0623 2.66403 0
M  V30 14828 O 1544.61 -3.14853 2.4946 0
M  V30 14829 N 1542.82 -1.83351 2.25457 0
M  V30 14830 H 1542.36 -0.950141 2.39437 0
M  V30 14831 H 1542.32 -2.57511 1.80375 0
M  V30 14832 N 1546.09 -1.52004 0.416254 0
M  V30 14833 C 1547.32 -2.06307 -0.156491 0
M  V30 14834 C 1547.74 -1.28567 -1.3826 0
M  V30 14835 O 1547.09 -0.339447 -1.79315 0
M  V30 14836 C 1547.14 -3.58028 -0.499824 0
M  V30 14837 O 1546.86 -4.32828 0.677602 0
M  V30 14838 C 1548.37 -4.28773 -1.12553 0
M  V30 14839 H 1545.59 -0.670778 -0.0172483 0
M  V30 14840 H 1548.13 -1.95826 0.589262 0
M  V30 14841 H 1546.28 -3.68493 -1.19547 0
M  V30 14842 H 1546.7 -5.23053 0.389302 0
M  V30 14843 H 1548.17 -5.36085 -1.31592 0
M  V30 14844 H 1548.65 -3.85706 -2.10066 0
M  V30 14845 H 1549.26 -4.22696 -0.469881 0
M  V30 14846 N 1547.57 -0.146903 -1.56914 0
M  V30 14847 C 1548.98 0.373938 -1.82917 0
M  V30 14848 C 1549.33 1.64741 -1.06559 0
M  V30 14849 O 1548.46 2.14156 -0.310849 0
M  V30 14850 C 1549.05 0.685213 -3.31799 0
M  V30 14851 C 1547.61 1.15058 -3.58383 0
M  V30 14852 C 1546.76 0.17362 -2.76756 0
M  V30 14853 H 1549.71 -0.371602 -1.54288 0
M  V30 14854 H 1549.73 1.53989 -3.47948 0
M  V30 14855 H 1549.24 -0.241816 -3.87346 0
M  V30 14856 H 1547.34 2.09355 -3.08223 0
M  V30 14857 H 1547.46 1.07662 -4.66847 0
M  V30 14858 H 1545.82 0.666227 -2.45832 0
M  V30 14859 H 1546.6 -0.746998 -3.35074 0
M  V30 14860 N 1549.05 1.57088 0.126881 0
M  V30 14861 C 1550.3 1.84071 0.834397 0
M  V30 14862 C 1550.62 0.730896 1.80784 0
M  V30 14863 O 1549.89 -0.245791 1.94352 0
M  V30 14864 H 1548.47 0.679123 0.311128 0
M  V30 14865 H 1551.13 1.94554 0.116083 0
M  V30 14866 H 1550.23 2.79714 1.38443 0
M  V30 14867 N 1550.53 -0.396836 1.52522 0
M  V30 14868 C 1551.75 -1.16857 1.71345 0
M  V30 14869 C 1552.18 -1.83178 0.427465 0
M  V30 14870 O 1551.53 -1.7051 -0.616123 0
M  V30 14871 C 1551.58 -2.19817 2.85855 0
M  V30 14872 O 1550.69 -3.26233 2.52281 0
M  V30 14873 H 1550.03 -0.340554 0.570017 0
M  V30 14874 H 1552.56 -0.463532 1.9928 0
M  V30 14875 H 1552.57 -2.63944 3.11123 0
M  V30 14876 H 1551.24 -1.70931 3.79151 0
M  V30 14877 H 1549.82 -2.87299 2.37726 0
M  V30 14878 N 1552.01 -1.43353 -0.654814 0
M  V30 14879 C 1553.25 -1.44885 -1.41473 0
M  V30 14880 C 1553.58 -0.0725577 -1.94365 0
M  V30 14881 O 1552.84 0.9222 -1.72609 0
M  V30 14882 C 1553.13 -2.437 -2.61429 0
M  V30 14883 C 1552.8 -3.89612 -2.26965 0
M  V30 14884 C 1551.46 -4.29353 -2.17278 0
M  V30 14885 C 1553.81 -4.81569 -1.99351 0
M  V30 14886 C 1551.14 -5.59005 -1.7813 0
M  V30 14887 C 1553.49 -6.11584 -1.61702 0
M  V30 14888 C 1552.16 -6.50303 -1.50539 0
M  V30 14889 H 1551.43 -0.530172 -0.517686 0
M  V30 14890 H 1554.08 -1.76422 -0.744824 0
M  V30 14891 H 1552.38 -2.05561 -3.33544 0
M  V30 14892 H 1554.08 -2.42141 -3.19638 0
M  V30 14893 H 1550.67 -3.58159 -2.35414 0
M  V30 14894 H 1554.85 -4.51639 -2.05757 0
M  V30 14895 H 1550.11 -5.87845 -1.68072 0
M  V30 14896 H 1554.28 -6.82312 -1.39365 0
M  V30 14897 H 1551.91 -7.50673 -1.19975 0
M  V30 14898 N 1553.48 0.89303 -1.29857 0
M  V30 14899 C 1554.39 2.03079 -1.17457 0
M  V30 14900 C 1555.41 1.73733 -0.0962941 0
M  V30 14901 O 1556.59 1.99005 -0.309667 0
M  V30 14902 C 1553.65 3.3589 -0.858991 0
M  V30 14903 C 1552.71 3.78711 -2.0218 0
M  V30 14904 C 1551.94 5.05184 -1.72118 0
M  V30 14905 O 1552.17 5.66738 -0.645276 0
M  V30 14906 O 1551.1 5.44218 -2.57119 0
M  V30 14907 H 1554.93 2.16465 -2.13017 0
M  V30 14908 H 1552.51 1.01774 -1.09373 0
M  V30 14909 H 1554.39 4.15582 -0.697852 0
M  V30 14910 H 1553.07 3.23631 0.0667756 0
M  V30 14911 H 1551.98 2.99758 -2.23822 0
M  V30 14912 H 1553.31 3.95563 -2.929 0
M  V30 14913 N 1554.96 1.12442 1.10429 0
M  V30 14914 C 1556.2 0.889854 1.84013 0
M  V30 14915 C 1556.57 -0.573951 1.83221 0
M  V30 14916 O 1557.77 -0.925683 2.52358 0
M  V30 14917 C 1556.04 1.44893 3.26712 0
M  V30 14918 S 1557.6 1.35291 4.17423 0
M  V30 14919 H 1554.41 0.321004 0.634411 0
M  V30 14920 H 1557.02 1.43395 1.32884 0
M  V30 14921 H 1555.72 2.50788 3.24859 0
M  V30 14922 H 1555.25 0.902325 3.82912 0
M  V30 14923 H 1557.27 0.324412 4.95138 0
M  V30 14924 N 1556.44 -1.28223 0.91633 0
M  V30 14925 C 1557.35 -2.30956 0.411882 0
M  V30 14926 C 1558.37 -1.66609 -0.501753 0
M  V30 14927 O 1559.54 -1.97641 -0.387317 0
M  V30 14928 C 1556.61 -3.45053 -0.337558 0
M  V30 14929 C 1555.67 -4.2495 0.609609 0
M  V30 14930 C 1554.9 -5.33598 -0.104159 0
M  V30 14931 O 1555.12 -5.54786 -1.32546 0
M  V30 14932 O 1554.06 -5.99272 0.561851 0
M  V30 14933 H 1557.88 -2.76118 1.26461 0
M  V30 14934 H 1555.47 -1.32964 0.681246 0
M  V30 14935 H 1557.35 -4.14477 -0.760722 0
M  V30 14936 H 1556.03 -3.01968 -1.16607 0
M  V30 14937 H 1554.93 -3.58104 1.08222 0
M  V30 14938 H 1556.27 -4.7172 1.40502 0
M  V30 14939 N 1557.92 -0.68059 -1.42147 0
M  V30 14940 C 1559.16 -0.209222 -2.03326 0
M  V30 14941 C 1559.52 1.16419 -1.52678 0
M  V30 14942 O 1560.72 1.73055 -2.05683 0
M  V30 14943 C 1558.99 -0.248331 -3.56536 0
M  V30 14944 S 1560.55 0.151186 -4.38539 0
M  V30 14945 H 1557.37 -0.0854956 -0.705841 0
M  V30 14946 H 1559.97 -0.895033 -1.73809 0
M  V30 14947 H 1558.68 -1.25016 -3.90895 0
M  V30 14948 H 1558.21 0.457124 -3.90735 0
M  V30 14949 H 1560.22 1.38301 -4.76537 0
M  V30 14950 N 1559.4 1.51781 -0.424309 0
M  V30 14951 C 1560.64 2.01969 0.146492 0
M  V30 14952 C 1560.97 1.30918 1.43843 0
M  V30 14953 O 1560.23 0.408705 1.91385 0
M  V30 14954 C 1560.52 3.54855 0.42574 0
M  V30 14955 C 1560.19 4.44123 -0.778814 0
M  V30 14956 C 1558.85 4.68242 -1.10918 0
M  V30 14957 C 1561.2 4.96579 -1.58299 0
M  V30 14958 C 1558.53 5.42063 -2.24464 0
M  V30 14959 C 1560.88 5.71645 -2.70934 0
M  V30 14960 C 1559.55 5.94031 -3.04439 0
M  V30 14961 H 1558.82 0.739059 0.0536052 0
M  V30 14962 H 1561.47 1.82856 -0.568838 0
M  V30 14963 H 1559.77 3.72229 1.22282 0
M  V30 14964 H 1561.47 3.91212 0.880598 0
M  V30 14965 H 1558.06 4.25539 -0.511363 0
M  V30 14966 H 1562.24 4.77841 -1.34098 0
M  V30 14967 H 1557.5 5.57614 -2.50753 0
M  V30 14968 H 1561.67 6.11284 -3.33624 0
M  V30 14969 H 1559.3 6.51014 -3.92537 0
M  V30 14970 N 1560.87 0.155222 1.56834 0
M  V30 14971 C 1562.28 -0.364232 1.83113 0
M  V30 14972 C 1562.64 -1.64173 1.07432 0
M  V30 14973 O 1561.76 -2.13988 0.322202 0
M  V30 14974 C 1562.36 -0.667608 3.32157 0
M  V30 14975 C 1560.91 -1.13156 3.58989 0
M  V30 14976 C 1560.06 -0.158941 2.76844 0
M  V30 14977 H 1563.01 0.379779 1.54089 0
M  V30 14978 H 1563.03 -1.52141 3.4876 0
M  V30 14979 H 1562.55 0.262355 3.87212 0
M  V30 14980 H 1560.65 -2.07717 3.09329 0
M  V30 14981 H 1560.76 -1.05184 4.67411 0
M  V30 14982 H 1559.12 -0.653181 2.46182 0
M  V30 14983 H 1559.91 0.764757 3.34674 0
M  V30 14984 N 1562.35 -1.57153 -0.118549 0
M  V30 14985 C 1563.6 -1.84511 -0.824623 0
M  V30 14986 C 1563.92 -0.740473 -1.80394 0
M  V30 14987 O 1563.19 0.235481 -1.9448 0
M  V30 14988 H 1561.77 -0.680764 -0.307522 0
M  V30 14989 H 1564.43 -1.94613 -0.105764 0
M  V30 14990 H 1563.53 -2.80444 -1.36958 0
M  V30 14991 N 1563.83 0.388742 -1.5273 0
M  V30 14992 C 1565.06 1.15328 -1.71415 0
M  V30 14993 C 1565.47 1.84193 -0.432366 0
M  V30 14994 O 1564.81 1.73522 0.602977 0
M  V30 14995 C 1564.87 2.24436 -2.80836 0
M  V30 14996 C 1564.54 1.75535 -4.21944 0
M  V30 14997 C 1565.53 1.23196 -5.05093 0
M  V30 14998 C 1563.22 1.8175 -4.68265 0
M  V30 14999 C 1565.21 0.777194 -6.32644 0
M  V30 15000 C 1562.9 1.35885 -5.95801 0
M  V30 15001 C 1563.9 0.839573 -6.7782 0
M  V30 15002 O 1563.59 0.387619 -8.02965 0
M  V30 15003 H 1563.32 0.351742 -0.577281 0
M  V30 15004 H 1565.87 0.460735 -2.00166 0
M  V30 15005 H 1564.1 2.97115 -2.47506 0
M  V30 15006 H 1565.79 2.86106 -2.87921 0
M  V30 15007 H 1566.56 1.17751 -4.70489 0
M  V30 15008 H 1562.44 2.21111 -4.04513 0
M  V30 15009 H 1565.98 0.371199 -6.96612 0
M  V30 15010 H 1561.88 1.41016 -6.29909 0
M  V30 15011 H 1562.64 0.509073 -8.16915 0
M  V30 15012 N 1565.31 1.43698 0.647203 0
M  V30 15013 C 1566.22 1.51781 1.78884 0
M  V30 15014 C 1567.23 0.404498 1.69233 0
M  V30 15015 O 1568.41 0.659509 1.90296 0
M  V30 15016 C 1565.47 1.44408 3.15194 0
M  V30 15017 C 1564.54 2.6646 3.36597 0
M  V30 15018 C 1563.77 2.59429 4.66403 0
M  V30 15019 O 1563.99 1.64537 5.46154 0
M  V30 15020 O 1562.93 3.50027 4.89658 0
M  V30 15021 H 1566.75 2.48198 1.75019 0
M  V30 15022 H 1564.34 1.25766 0.806436 0
M  V30 15023 H 1566.22 1.42761 3.96481 0
M  V30 15024 H 1564.89 0.511292 3.19637 0
M  V30 15025 H 1563.8 2.73679 2.5505 0
M  V30 15026 H 1565.13 3.58732 3.37005 0
M  V30 15027 N 1566.79 -0.886131 1.30328 0
M  V30 15028 C 1568.01 -1.67625 1.22134 0
M  V30 15029 C 1568.44 -1.86893 -0.212712 0
M  V30 15030 O 1567.79 -1.39905 -1.1531 0
M  V30 15031 C 1567.84 -3.03068 1.95402 0
M  V30 15032 O 1566.95 -3.92022 1.28032 0
M  V30 15033 H 1566.29 -0.512246 0.422493 0
M  V30 15034 H 1568.82 -1.10602 1.72129 0
M  V30 15035 H 1568.83 -3.53119 2.04379 0
M  V30 15036 H 1567.5 -2.88363 2.99699 0
M  V30 15037 H 1566.08 -3.50461 1.27402 0
M  V30 15038 N 1568.26 -1.13026 -1.09832 0
M  V30 15039 C 1569.51 -0.887662 -1.81563 0
M  V30 15040 C 1569.83 0.587935 -1.85926 0
M  V30 15041 O 1569.1 1.42732 -1.3418 0
M  V30 15042 H 1567.68 -0.32541 -0.672397 0
M  V30 15043 H 1570.35 -1.42597 -1.32861 0
M  V30 15044 H 1569.44 -1.2747 -2.84882 0
M  V30 15045 N 1569.74 1.27735 -0.923117 0
M  V30 15046 C 1570.99 1.9457 -0.561149 0
M  V30 15047 C 1571.32 1.72591 0.896805 0
M  V30 15048 O 1570.57 1.04546 1.65434 0
M  V30 15049 C 1570.87 3.47677 -0.827959 0
M  V30 15050 C 1570.54 3.8977 -2.26693 0
M  V30 15051 C 1569.2 4.00973 -2.66033 0
M  V30 15052 C 1571.55 4.11173 -3.20291 0
M  V30 15053 C 1568.88 4.30963 -3.98105 0
M  V30 15054 C 1571.23 4.42645 -4.51938 0
M  V30 15055 C 1569.9 4.52061 -4.91119 0
M  V30 15056 H 1569.17 0.711981 -0.205339 0
M  V30 15057 H 1571.81 1.51894 -1.16621 0
M  V30 15058 H 1570.12 3.91549 -0.140178 0
M  V30 15059 H 1571.81 3.97523 -0.526932 0
M  V30 15060 H 1568.4 3.81584 -1.95171 0
M  V30 15061 H 1572.59 4.01962 -2.91102 0
M  V30 15062 H 1567.84 4.36461 -4.28149 0
M  V30 15063 H 1572.02 4.58153 -5.2447 0
M  V30 15064 H 1569.65 4.75053 -5.93488 0
M  V30 15065 N 1571.22 0.688118 1.41784 0
M  V30 15066 C 1572.15 -0.0323076 2.28177 0
M  V30 15067 C 1573.13 -0.795419 1.41816 0
M  V30 15068 O 1574.32 -0.787785 1.71249 0
M  V30 15069 C 1571.44 -1.05308 3.21913 0
M  V30 15070 C 1570.49 -0.384003 4.24768 0
M  V30 15071 S 1571.32 0.86817 5.28416 0
M  V30 15072 C 1572.48 -0.151191 6.25717 0
M  V30 15073 H 1572.71 0.700456 2.88931 0
M  V30 15074 H 1570.24 0.478125 1.46811 0
M  V30 15075 H 1572.2 -1.63689 3.76452 0
M  V30 15076 H 1570.86 -1.75837 2.6027 0
M  V30 15077 H 1570.06 -1.15469 4.90594 0
M  V30 15078 H 1569.66 0.126545 3.73786 0
M  V30 15079 H 1571.95 -1.0068 6.69977 0
M  V30 15080 H 1572.89 0.472955 7.06519 0
M  V30 15081 H 1573.3 -0.502631 5.62258 0
M  V30 15082 N 1572.7 -1.51554 0.432352 0
M  V30 15083 C 1573.63 -2.30514 -0.372243 0
M  V30 15084 C 1574.61 -1.35712 -1.02549 0
M  V30 15085 O 1575.79 -1.6463 -1.03009 0
M  V30 15086 C 1572.92 -3.14353 -1.47646 0
M  V30 15087 C 1571.88 -4.17392 -0.946974 0
M  V30 15088 C 1571.2 -4.89721 -2.14656 0
M  V30 15089 C 1572.5 -5.22298 0.0151377 0
M  V30 15090 H 1574.2 -2.98024 0.28668 0
M  V30 15091 H 1571.74 -1.43325 0.139315 0
M  V30 15092 H 1573.7 -3.68369 -2.04651 0
M  V30 15093 H 1572.42 -2.44654 -2.1636 0
M  V30 15094 H 1571.08 -3.6442 -0.399174 0
M  V30 15095 H 1570.73 -4.1653 -2.81978 0
M  V30 15096 H 1570.43 -5.59393 -1.79869 0
M  V30 15097 H 1571.95 -5.46559 -2.72224 0
M  V30 15098 H 1573.37 -5.71416 -0.464447 0
M  V30 15099 H 1571.76 -5.99468 0.275339 0
M  V30 15100 H 1572.83 -4.75436 0.953357 0
M  V30 15101 N 1574.18 -0.163538 -1.56749 0
M  V30 15102 C 1575.11 0.808257 -2.13407 0
M  V30 15103 C 1576.09 1.23124 -1.06204 0
M  V30 15104 O 1577.27 1.3244 -1.34134 0
M  V30 15105 C 1574.4 2.08743 -2.66728 0
M  V30 15106 C 1573.44 1.80909 -3.86231 0
M  V30 15107 S 1574.28 0.985273 -5.26358 0
M  V30 15108 C 1575.43 2.27528 -5.8308 0
M  V30 15109 H 1575.67 0.326505 -2.95502 0
M  V30 15110 H 1573.2 0.0510128 -1.54316 0
M  V30 15111 H 1575.16 2.8222 -2.98097 0
M  V30 15112 H 1573.82 2.54032 -1.84733 0
M  V30 15113 H 1573.01 2.75802 -4.21841 0
M  V30 15114 H 1572.61 1.15532 -3.55708 0
M  V30 15115 H 1574.91 3.23053 -5.95519 0
M  V30 15116 H 1575.85 1.96399 -6.80318 0
M  V30 15117 H 1576.26 2.38933 -5.1144 0
M  V30 15118 N 1575.65 1.57214 0.110213 0
M  V30 15119 C 1576.6 2.00978 1.13474 0
M  V30 15120 C 1577.57 0.883436 1.40658 0
M  V30 15121 O 1578.76 1.14832 1.52376 0
M  V30 15122 C 1575.9 2.42654 2.45383 0
M  V30 15123 C 1575.01 3.68744 2.2506 0
M  V30 15124 C 1574.14 3.99363 3.50261 0
M  V30 15125 C 1573.18 5.18608 3.25133 0
M  V30 15126 N 1572.32 5.45055 4.42561 0
M  V30 15127 H 1577.16 2.88289 0.754543 0
M  V30 15128 H 1574.7 1.426 0.361064 0
M  V30 15129 H 1576.66 2.64857 3.22345 0
M  V30 15130 H 1575.29 1.58374 2.81278 0
M  V30 15131 H 1574.34 3.54106 1.38972 0
M  V30 15132 H 1575.65 4.55857 2.02475 0
M  V30 15133 H 1574.8 4.22261 4.35638 0
M  V30 15134 H 1573.54 3.10743 3.75886 0
M  V30 15135 H 1572.55 4.95546 2.38148 0
M  V30 15136 H 1573.77 6.08814 3.0087 0
M  V30 15137 H 1571.72 4.59392 4.6829 0
M  V30 15138 H 1571.64 6.26508 4.23111 0
M  V30 15139 H 1572.9 5.72478 5.29046 0
M  V30 15140 N 1577.13 -0.380637 1.52934 0
M  V30 15141 C 1578.08 -1.48584 1.78957 0
M  V30 15142 C 1579.07 -1.56103 0.657901 0
M  V30 15143 O 1580.28 -1.59169 0.84055 0
M  V30 15144 H 1576.66 -0.494687 0.566382 0
M  V30 15145 H 1578.63 -1.23833 2.71492 0
M  V30 15146 C 1577.38 -2.85615 1.98291 0
M  V30 15147 H 1576.7 -2.80583 2.84804 0
M  V30 15148 H 1578.14 -3.62164 2.20485 0
M  V30 15149 C 1576.6 -3.28267 0.757764 0
M  V30 15150 O 1577.13 -4.01654 -0.0608007 0
M  V30 15151 N 1575.33 -2.84641 0.585486 0
M  V30 15152 H 1574.88 -2.25087 1.25274 0
M  V30 15153 H 1574.84 -3.13536 -0.232871 0
M  V30 15154 N 1578.61 -1.44039 -0.639573 0
M  V30 15155 C 1579.85 -1.47892 -1.41093 0
M  V30 15156 C 1580.21 -0.105393 -1.91711 0
M  V30 15157 O 1581.42 -0.0186006 -2.68794 0
M  V30 15158 C 1579.69 -2.50313 -2.55104 0
M  V30 15159 S 1581.25 -2.73148 -3.43417 0
M  V30 15160 H 1578.06 -0.523189 -0.48145 0
M  V30 15161 H 1580.67 -1.80903 -0.741236 0
M  V30 15162 H 1579.37 -3.48826 -2.16214 0
M  V30 15163 H 1578.9 -2.18846 -3.2691 0
M  V30 15164 H 1580.92 -2.04105 -4.52278 0
M  V30 15165 N 1580.09 0.879207 -1.30796 0
M  V30 15166 C 1581.02 1.98828 -1.11994 0
M  V30 15167 C 1582 1.62579 -0.0259762 0
M  V30 15168 O 1583.18 1.87632 -0.180638 0
M  V30 15169 C 1580.31 3.3119 -0.709287 0
M  V30 15170 C 1579.36 3.86424 -1.80496 0
M  V30 15171 S 1580.19 4.1301 -3.40856 0
M  V30 15172 C 1581.35 5.48383 -3.01706 0
M  V30 15173 H 1581.58 2.14472 -2.05886 0
M  V30 15174 H 1579.11 1.02829 -1.15176 0
M  V30 15175 H 1581.07 4.07695 -0.479093 0
M  V30 15176 H 1579.73 3.13395 0.210364 0
M  V30 15177 H 1578.92 4.82085 -1.47004 0
M  V30 15178 H 1578.53 3.16679 -1.98973 0
M  V30 15179 H 1580.82 6.29678 -2.50025 0
M  V30 15180 H 1581.76 5.86818 -3.96296 0
M  V30 15181 H 1582.17 5.11218 -2.39409 0
M  V30 15182 N 1581.57 1.13606 1.09231 0
M  V30 15183 C 1582.84 0.81012 1.78035 0
M  V30 15184 C 1583.22 -0.697953 1.99228 0
M  V30 15185 O 1582.57 -1.63592 1.5953 0
M  V30 15186 C 1582.78 1.59932 3.10198 0
M  V30 15187 C 1584.13 1.79328 3.84872 0
M  V30 15188 O 1585.15 1.56547 3.19955 0
M  V30 15189 O 1584.01 2.17355 5.01417 0
M  V30 15190 H 1581.11 0.295995 0.772215 0
M  V30 15191 H 1583.65 1.24079 1.15769 0
M  V30 15192 H 1582.43 2.6241 2.9027 0
M  V30 15193 H 1582.05 1.16371 3.80189 0
M  V30 15194 N 1583.05 -1.27244 0.929878 0
M  V30 15195 C 1584.29 -1.94557 0.572306 0
M  V30 15196 C 1584.62 -1.72886 -0.884542 0
M  V30 15197 O 1583.9 -1.0592 -1.63129 0
M  V30 15198 C 1584.18 -3.48629 0.901675 0
M  V30 15199 C 1584.04 -3.79633 2.41244 0
M  V30 15200 C 1585.35 -4.38195 0.409093 0
M  V30 15201 H 1582.47 -0.706627 0.209397 0
M  V30 15202 H 1585.12 -1.50321 1.16205 0
M  V30 15203 H 1583.27 -3.86437 0.399791 0
M  V30 15204 H 1584.94 -3.51604 2.98618 0
M  V30 15205 H 1583.18 -3.26108 2.8607 0
M  V30 15206 H 1583.85 -4.87284 2.59342 0
M  V30 15207 H 1586.33 -4.07548 0.839256 0
M  V30 15208 H 1585.2 -5.44814 0.668482 0
M  V30 15209 H 1585.46 -4.36669 -0.690861 0
M  V30 15210 N 1584.52 -0.695628 -1.41417 0
M  V30 15211 C 1585.8 -0.154646 -1.94988 0
M  V30 15212 C 1586.18 1.33534 -1.63499 0
M  V30 15213 O 1585.53 2.08178 -0.942031 0
M  V30 15214 C 1585.74 -0.446004 -3.46138 0
M  V30 15215 C 1587.09 -0.37378 -4.22952 0
M  V30 15216 O 1588.11 -0.380921 -3.54157 0
M  V30 15217 O 1586.97 -0.33395 -5.45479 0
M  V30 15218 H 1584.06 -0.0150053 -0.826864 0
M  V30 15219 H 1586.61 -0.771792 -1.51134 0
M  V30 15220 H 1585.38 -1.47734 -3.6234 0
M  V30 15221 H 1585 0.202111 -3.97086 0
M  V30 15222 N 1586 1.51322 -0.440383 0
M  V30 15223 C 1586.91 2.31574 0.37561 0
M  V30 15224 C 1587.93 1.40617 1.02483 0
M  V30 15225 O 1589.1 1.73688 1.01953 0
M  V30 15226 C 1586.17 3.14441 1.4604 0
M  V30 15227 C 1585.23 4.21181 0.830991 0
M  V30 15228 C 1584.46 5.00087 1.86409 0
M  V30 15229 O 1584.69 4.79666 3.08669 0
M  V30 15230 O 1583.62 5.84101 1.45293 0
M  V30 15231 H 1587.45 3.0241 -0.27962 0
M  V30 15232 H 1585.03 1.48016 -0.202857 0
M  V30 15233 H 1586.91 3.6595 2.08946 0
M  V30 15234 H 1585.59 2.46366 2.09965 0
M  V30 15235 H 1584.49 3.73741 0.163798 0
M  V30 15236 H 1585.83 4.91638 0.235174 0
M  V30 15237 N 1587.48 0.171848 1.5666 0
M  V30 15238 C 1588.72 -0.475418 1.98794 0
M  V30 15239 C 1589.08 -1.60384 1.0555 0
M  V30 15240 O 1590.28 -2.3137 1.36827 0
M  V30 15241 C 1588.56 -0.945518 3.44666 0
M  V30 15242 S 1590.11 -1.59389 4.08828 0
M  V30 15243 H 1586.93 -0.1529 0.694365 0
M  V30 15244 H 1589.53 0.269434 1.93634 0
M  V30 15245 H 1588.24 -0.113839 4.10242 0
M  V30 15246 H 1587.77 -1.7244 3.53593 0
M  V30 15247 H 1589.78 -2.88205 4.03921 0
M  V30 15248 N 1588.96 -1.5727 -0.101874 0
M  V30 15249 C 1589.92 -2.00625 -1.10826 0
M  V30 15250 C 1590.92 -0.89878 -1.33336 0
M  V30 15251 O 1592.11 -1.16442 -1.29564 0
M  V30 15252 C 1589.24 -2.36113 -2.45893 0
M  V30 15253 H 1590.44 -2.90748 -0.735238 0
M  V30 15254 H 1587.99 -1.52406 -0.346713 0
M  V30 15255 H 1588.72 -1.48923 -2.88084 0
M  V30 15256 H 1588.51 -3.169 -2.30904 0
M  V30 15257 H 1590 -2.70336 -3.1829 0
M  V30 15258 N 1590.44 0.372521 -1.53134 0
M  V30 15259 C 1591.85 0.713727 -1.42752 0
M  V30 15260 C 1592.05 1.93532 -0.561051 0
M  V30 15261 O 1591.11 2.52467 -0.0408195 0
M  V30 15262 C 1592.42 0.933418 -2.85846 0
M  V30 15263 C 1593.97 1.03386 -2.95432 0
M  V30 15264 C 1594.44 1.28607 -4.39573 0
M  V30 15265 N 1595.93 1.35393 -4.42971 0
M  V30 15266 C 1596.67 1.56604 -5.516 0
M  V30 15267 N 1596.17 1.75178 -6.70287 0
M  V30 15268 N 1597.96 1.58917 -5.39168 0
M  V30 15269 H 1590.11 -0.431068 -2.0798 0
M  V30 15270 H 1592.37 -0.130757 -0.938939 0
M  V30 15271 H 1592.08 0.107707 -3.51535 0
M  V30 15272 H 1591.95 1.84348 -3.29083 0
M  V30 15273 H 1594.34 1.85012 -2.29901 0
M  V30 15274 H 1594.42 0.101346 -2.55599 0
M  V30 15275 H 1594.06 0.47485 -5.05675 0
M  V30 15276 H 1593.99 2.2317 -4.76973 0
M  V30 15277 H 1596.49 1.22681 -3.57432 0
M  V30 15278 H 1596.8 1.90916 -7.48846 0
M  V30 15279 H 1595.14 1.7237 -6.73286 0
M  V30 15280 H 1598.33 1.4397 -4.4541 0
M  V30 15281 H 1598.51 1.75108 -6.23892 0
M  V30 15282 N 1591.91 1.44376 0.631925 0
M  V30 15283 C 1593.19 1.37592 1.39024 0
M  V30 15284 C 1593.57 0.0342456 2.11072 0
M  V30 15285 O 1592.92 -0.983136 2.06268 0
M  V30 15286 C 1593.13 2.57355 2.35732 0
M  V30 15287 C 1594.48 3.01384 2.99087 0
M  V30 15288 O 1595.5 2.57554 2.46057 0
M  V30 15289 O 1594.36 3.77375 3.95285 0
M  V30 15290 H 1591.45 0.544828 0.622167 0
M  V30 15291 H 1594 1.56464 0.657048 0
M  V30 15292 H 1592.77 3.46615 1.81587 0
M  V30 15293 H 1592.39 2.40693 3.16469 0
M  V30 15294 N 1593.39 -0.872258 1.31261 0
M  V30 15295 C 1594.8 -1.44077 1.18738 0
M  V30 15296 C 1595.15 -1.95105 -0.207037 0
M  V30 15297 O 1594.28 -1.86083 -1.10464 0
M  V30 15298 C 1594.87 -2.61884 2.14947 0
M  V30 15299 C 1593.43 -3.14787 2.06364 0
M  V30 15300 C 1592.58 -1.87495 2.04306 0
M  V30 15301 H 1595.53 -0.681011 1.43345 0
M  V30 15302 H 1595.55 -3.38501 1.73773 0
M  V30 15303 H 1595.06 -2.24715 3.16425 0
M  V30 15304 H 1593.16 -3.56582 1.08073 0
M  V30 15305 H 1593.28 -3.77225 2.95361 0
M  V30 15306 H 1591.64 -2.06361 1.49288 0
M  V30 15307 H 1592.42 -1.52566 3.07536 0
M  V30 15308 N 1594.87 -1.14184 -1.08627 0
M  V30 15309 C 1595.8 -0.849455 -2.17501 0
M  V30 15310 C 1596.78 0.194617 -1.68983 0
M  V30 15311 O 1597.97 0.0517757 -1.94131 0
M  V30 15312 C 1595.1 -0.323685 -3.45788 0
M  V30 15313 C 1594.05 -1.30294 -4.07685 0
M  V30 15314 C 1593.38 -0.636575 -5.30897 0
M  V30 15315 C 1594.68 -2.66441 -4.49229 0
M  V30 15316 H 1596.37 -1.75987 -2.42217 0
M  V30 15317 H 1593.92 -0.847595 -1.16412 0
M  V30 15318 H 1595.87 -0.106754 -4.21265 0
M  V30 15319 H 1594.59 0.62215 -3.20619 0
M  V30 15320 H 1593.25 -1.50601 -3.34238 0
M  V30 15321 H 1592.9 0.314995 -5.02013 0
M  V30 15322 H 1592.6 -1.28998 -5.73266 0
M  V30 15323 H 1594.12 -0.429117 -6.0909 0
M  V30 15324 H 1595.54 -2.50055 -5.15893 0
M  V30 15325 H 1593.93 -3.28033 -5.02508 0
M  V30 15326 H 1595 -3.23486 -3.61226 0
M  V30 15327 N 1596.35 1.26749 -0.936613 0
M  V30 15328 C 1597.28 2.2892 -0.460213 0
M  V30 15329 C 1598.26 1.63065 0.484135 0
M  V30 15330 O 1599.44 1.90305 0.386973 0
M  V30 15331 C 1596.57 3.46172 0.279648 0
M  V30 15332 C 1595.53 4.24083 -0.57771 0
M  V30 15333 C 1594.85 5.33903 0.291843 0
M  V30 15334 C 1596.15 4.88562 -1.84673 0
M  V30 15335 H 1597.85 2.69019 -1.31412 0
M  V30 15336 H 1595.39 1.29325 -0.633333 0
M  V30 15337 H 1597.35 4.16755 0.623931 0
M  V30 15338 H 1596.07 3.05014 1.16765 0
M  V30 15339 H 1594.73 3.55258 -0.904824 0
M  V30 15340 H 1594.38 4.88986 1.17906 0
M  V30 15341 H 1594.08 5.8694 -0.278372 0
M  V30 15342 H 1595.6 6.07326 0.631498 0
M  V30 15343 H 1597.02 5.51384 -1.56997 0
M  V30 15344 H 1595.41 5.51697 -2.36115 0
M  V30 15345 H 1596.48 4.11761 -2.56088 0
M  V30 15346 N 1597.83 0.703118 1.41046 0
M  V30 15347 C 1599.07 0.241543 2.02968 0
M  V30 15348 C 1599.43 -1.13975 1.54511 0
M  V30 15349 O 1600.63 -1.69761 2.0841 0
M  V30 15350 C 1598.9 0.305021 3.56096 0
M  V30 15351 S 1600.46 -0.0813994 4.38724 0
M  V30 15352 H 1597.28 0.0967141 0.704391 0
M  V30 15353 H 1599.88 0.922571 1.72363 0
M  V30 15354 H 1598.59 1.31219 3.88857 0
M  V30 15355 H 1598.12 -0.394903 3.91413 0
M  V30 15356 H 1600.13 -1.30702 4.78677 0
M  V30 15357 N 1599.3 -1.51086 0.448402 0
M  V30 15358 C 1600.72 -1.59278 0.101286 0
M  V30 15359 C 1600.92 -1.45847 -1.39036 0
M  V30 15360 O 1599.98 -1.30534 -2.16142 0
M  V30 15361 C 1601.29 -2.93999 0.631264 0
M  V30 15362 C 1602.84 -3.07337 0.59268 0
M  V30 15363 C 1603.31 -4.44599 1.09982 0
M  V30 15364 N 1604.8 -4.50949 1.05827 0
M  V30 15365 C 1605.54 -5.55503 1.42142 0
M  V30 15366 N 1605.03 -6.67422 1.85796 0
M  V30 15367 N 1606.83 -5.45922 1.33888 0
M  V30 15368 H 1598.98 -1.58062 1.41881 0
M  V30 15369 H 1601.24 -0.745702 0.585349 0
M  V30 15370 H 1600.95 -3.09233 1.67534 0
M  V30 15371 H 1600.82 -3.77149 0.0622533 0
M  V30 15372 H 1603.21 -2.91764 -0.442437 0
M  V30 15373 H 1603.29 -2.26 1.19823 0
M  V30 15374 H 1602.93 -4.60919 2.13345 0
M  V30 15375 H 1602.86 -5.24492 0.470703 0
M  V30 15376 H 1605.35 -3.70627 0.737822 0
M  V30 15377 H 1605.67 -7.43234 2.11714 0
M  V30 15378 H 1604.01 -6.68601 1.89731 0
M  V30 15379 H 1607.2 -4.57372 0.996415 0
M  V30 15380 H 1607.38 -6.2729 1.62517 0
M  V30 15381 N 1600.78 -0.180154 -1.56567 0
M  V30 15382 C 1602.03 0.461606 -1.96758 0
M  V30 15383 C 1602.35 1.63179 -1.0676 0
M  V30 15384 O 1601.62 1.95429 -0.135762 0
M  V30 15385 H 1600.2 0.173526 -0.726566 0
M  V30 15386 H 1602.86 -0.2634 -1.93112 0
M  V30 15387 H 1601.96 0.815729 -3.01251 0
M  V30 15388 N 1602.26 1.57322 0.0935319 0
M  V30 15389 C 1603.51 1.858 0.795165 0
M  V30 15390 C 1603.83 0.769078 1.79193 0
M  V30 15391 O 1603.1 -0.204511 1.9483 0
M  V30 15392 H 1601.68 0.68557 0.296653 0
M  V30 15393 H 1604.34 1.94756 0.0747892 0
M  V30 15394 H 1603.44 2.82588 1.32479 0
M  V30 15395 N 1603.74 -0.364395 1.53329 0
M  V30 15396 C 1604.97 -1.1275 1.7348 0
M  V30 15397 C 1605.38 -1.83002 0.4643 0
M  V30 15398 O 1604.74 -1.73603 -0.562864 0
M  V30 15399 C 1604.79 -2.15691 2.90103 0
M  V30 15400 O 1604.51 -1.48298 4.12237 0
M  V30 15401 C 1606.01 -3.04539 3.22135 0
M  V30 15402 H 1603.23 -0.337084 0.580186 0
M  V30 15403 H 1605.78 -0.422952 2.00078 0
M  V30 15404 H 1603.93 -2.81742 2.65895 0
M  V30 15405 H 1604.34 -2.16896 4.77553 0
M  V30 15406 H 1605.82 -3.72747 4.07141 0
M  V30 15407 H 1606.3 -3.69414 2.3755 0
M  V30 15408 H 1606.9 -2.44103 3.48273 0
M  V30 15409 N 1605.22 -1.44709 -0.62426 0
M  V30 15410 C 1606.46 -1.4938 -1.39517 0
M  V30 15411 C 1606.82 -0.125721 -1.91588 0
M  V30 15412 O 1608.02 -0.0471087 -2.68759 0
M  V30 15413 C 1606.29 -2.53005 -2.52435 0
M  V30 15414 S 1607.85 -2.76776 -3.40501 0
M  V30 15415 H 1604.67 -0.528266 -0.475874 0
M  V30 15416 H 1607.27 -1.81679 -0.722007 0
M  V30 15417 H 1605.98 -3.51099 -2.12502 0
M  V30 15418 H 1605.51 -2.22301 -3.2457 0
M  V30 15419 H 1607.52 -2.08891 -4.50088 0
M  V30 15420 N 1606.69 0.865285 -1.31722 0
M  V30 15421 C 1607.92 1.65137 -1.24649 0
M  V30 15422 C 1608.34 1.87868 0.187391 0
M  V30 15423 O 1607.69 1.44015 1.12098 0
M  V30 15424 C 1607.75 3.0167 -1.99193 0
M  V30 15425 O 1607.47 2.79951 -3.36985 0
M  V30 15426 C 1608.97 3.96115 -1.99017 0
M  V30 15427 H 1606.19 0.514683 -0.430514 0
M  V30 15428 H 1608.73 1.07971 -1.73674 0
M  V30 15429 H 1606.89 3.55511 -1.53918 0
M  V30 15430 H 1607.3 3.66706 -3.75002 0
M  V30 15431 H 1608.77 4.89217 -2.55677 0
M  V30 15432 H 1609.25 4.28268 -0.973815 0
M  V30 15433 H 1609.86 3.4821 -2.44192 0
M  V30 15434 N 1608.17 1.14759 1.0802 0
M  V30 15435 C 1609.12 0.833824 2.17141 0
M  V30 15436 C 1610.11 -0.189939 1.68332 0
M  V30 15437 O 1611.32 -0.0456447 1.79942 0
M  V30 15438 H 1607.7 0.251944 0.70854 0
M  V30 15439 H 1609.67 1.76196 2.40827 0
M  V30 15440 C 1608.42 0.33203 3.46111 0
M  V30 15441 H 1607.74 1.11117 3.84048 0
M  V30 15442 H 1609.18 0.151078 4.23731 0
M  V30 15443 C 1607.64 -0.945153 3.2337 0
M  V30 15444 O 1608.17 -2.0181 3.47326 0
M  V30 15445 N 1606.37 -0.881963 2.76893 0
M  V30 15446 H 1605.92 -0.00865768 2.57599 0
M  V30 15447 H 1605.88 -1.73706 2.62056 0
M  V30 15448 N 1609.65 -1.26251 0.943322 0
M  V30 15449 C 1610.88 -1.97739 0.608852 0
M  V30 15450 C 1611.29 -1.70225 -0.81663 0
M  V30 15451 O 1610.65 -0.97172 -1.54479 0
M  V30 15452 C 1610.7 -3.51505 0.844172 0
M  V30 15453 O 1610.42 -3.78063 2.21359 0
M  V30 15454 C 1611.92 -4.40233 0.52054 0
M  V30 15455 H 1609.14 -0.630619 0.229262 0
M  V30 15456 H 1611.69 -1.6071 1.26461 0
M  V30 15457 H 1609.84 -3.86687 0.23499 0
M  V30 15458 H 1610.26 -4.72582 2.27523 0
M  V30 15459 H 1611.73 -5.47074 0.735802 0
M  V30 15460 H 1612.21 -4.35811 -0.544541 0
M  V30 15461 H 1612.81 -4.10599 1.10854 0
M  V30 15462 N 1611.13 -0.710588 -1.40671 0
M  V30 15463 C 1612.41 -0.175319 -1.94813 0
M  V30 15464 C 1612.79 1.31792 -1.64906 0
M  V30 15465 O 1612.13 2.07167 -0.964058 0
M  V30 15466 C 1612.34 -0.482691 -3.45646 0
M  V30 15467 C 1613.69 -0.418619 -4.22531 0
M  V30 15468 O 1614.72 -0.418463 -3.53733 0
M  V30 15469 O 1613.58 -0.391787 -5.45094 0
M  V30 15470 H 1610.67 -0.0237744 -0.826658 0
M  V30 15471 H 1613.22 -0.787778 -1.50307 0
M  V30 15472 H 1611.99 -1.51569 -3.60753 0
M  V30 15473 H 1611.61 0.159984 -3.97278 0
M  V30 15474 N 1612.61 1.50847 -0.456408 0
M  V30 15475 C 1613.86 2.01835 0.103414 0
M  V30 15476 C 1614.18 1.34142 1.4153 0
M  V30 15477 O 1613.45 0.482015 1.89877 0
M  V30 15478 H 1612.03 0.745863 0.0412074 0
M  V30 15479 H 1614.69 1.85322 -0.603477 0
M  V30 15480 H 1613.78 3.10968 0.265562 0
M  V30 15481 N 1614.09 0.188454 1.56469 0
M  V30 15482 C 1615.31 -0.460975 2.02212 0
M  V30 15483 C 1615.74 -1.54856 1.06777 0
M  V30 15484 O 1615.09 -1.81231 0.0501425 0
M  V30 15485 C 1615.14 -1.00047 3.46443 0
M  V30 15486 O 1614.25 -2.1137 3.54114 0
M  V30 15487 H 1613.59 -0.108497 0.655076 0
M  V30 15488 H 1616.12 0.297381 2.02427 0
M  V30 15489 H 1616.13 -1.31876 3.86099 0
M  V30 15490 H 1614.8 -0.204273 4.15398 0
M  V30 15491 H 1613.38 -1.80456 3.26328 0
M  V30 15492 N 1615.56 -1.5737 -0.0851874 0
M  V30 15493 C 1616.79 -1.90525 -0.798977 0
M  V30 15494 C 1617.2 -0.781347 -1.72313 0
M  V30 15495 O 1616.54 0.255036 -1.81921 0
M  V30 15496 C 1616.61 -3.19027 -1.65716 0
M  V30 15497 C 1616.27 -4.47974 -0.903795 0
M  V30 15498 C 1617.27 -5.19395 -0.229094 0
M  V30 15499 C 1614.95 -4.94621 -0.874937 0
M  V30 15500 C 1616.95 -6.35706 0.464385 0
M  V30 15501 C 1614.63 -6.10842 -0.177678 0
M  V30 15502 C 1615.63 -6.81234 0.490795 0
M  V30 15503 O 1615.32 -7.95239 1.17685 0
M  V30 15504 H 1615.05 -0.634533 -0.233119 0
M  V30 15505 H 1617.61 -2.05301 -0.0638265 0
M  V30 15506 H 1615.84 -3.00425 -2.43479 0
M  V30 15507 H 1617.52 -3.37937 -2.24841 0
M  V30 15508 H 1618.29 -4.84392 -0.242783 0
M  V30 15509 H 1614.17 -4.39712 -1.3847 0
M  V30 15510 H 1617.71 -6.90586 0.986719 0
M  V30 15511 H 1613.61 -6.45297 -0.16187 0
M  V30 15512 H 1614.38 -8.1128 1.08476 0
M  V30 15513 N 1617.04 0.356258 -1.53521 0
M  V30 15514 C 1617.99 1.43689 -1.80616 0
M  V30 15515 C 1618.96 1.52808 -0.651064 0
M  V30 15516 O 1620.14 1.68549 -0.894203 0
M  V30 15517 C 1617.28 2.80513 -2.01013 0
M  V30 15518 C 1616.4 2.80287 -3.2873 0
M  V30 15519 C 1615.53 4.08747 -3.39263 0
M  V30 15520 C 1614.57 4.02699 -4.60977 0
M  V30 15521 N 1613.71 5.22825 -4.68614 0
M  V30 15522 H 1618.55 1.19884 -2.72822 0
M  V30 15523 H 1616.08 0.580984 -1.35141 0
M  V30 15524 H 1618.04 3.60011 -2.10827 0
M  V30 15525 H 1616.67 3.02698 -1.12134 0
M  V30 15526 H 1615.72 1.92968 -3.27822 0
M  V30 15527 H 1617.04 2.71693 -4.18311 0
M  V30 15528 H 1616.19 4.96663 -3.4844 0
M  V30 15529 H 1614.93 4.20106 -2.47715 0
M  V30 15530 H 1613.93 3.13168 -4.51892 0
M  V30 15531 H 1615.16 3.92934 -5.53877 0
M  V30 15532 H 1613.11 5.34752 -3.79969 0
M  V30 15533 H 1613.02 5.16437 -5.52113 0
M  V30 15534 H 1614.29 6.12548 -4.82085 0
M  V30 15535 N 1618.52 1.45038 0.616577 0
M  V30 15536 C 1619.76 1.50118 1.38723 0
M  V30 15537 C 1620.12 0.135879 1.91519 0
M  V30 15538 O 1621.32 0.0613609 2.6873 0
M  V30 15539 C 1619.6 2.5434 2.51089 0
M  V30 15540 S 1621.15 2.78577 3.39028 0
M  V30 15541 H 1617.97 0.530782 0.473066 0
M  V30 15542 H 1620.57 1.82059 0.712362 0
M  V30 15543 H 1619.28 3.52222 2.10638 0
M  V30 15544 H 1618.81 2.24019 3.23387 0
M  V30 15545 H 1620.82 2.11275 4.48974 0
M  V30 15546 N 1620 -0.858287 1.32179 0
M  V30 15547 C 1620.93 -1.97304 1.16636 0
M  V30 15548 C 1621.94 -1.62478 0.102311 0
M  V30 15549 O 1623.13 -1.75016 0.350926 0
M  V30 15550 C 1620.23 -3.30215 0.762337 0
M  V30 15551 C 1619.4 -3.93305 1.9139 0
M  V30 15552 C 1618.46 -5.04545 1.49402 0
M  V30 15553 O 1617.49 -5.24735 2.20548 0
M  V30 15554 N 1618.69 -5.79202 0.387984 0
M  V30 15555 H 1621.46 -2.11179 2.12658 0
M  V30 15556 H 1619.02 -1.03294 1.24668 0
M  V30 15557 H 1621.01 -4.02032 0.463922 0
M  V30 15558 H 1619.58 -3.12418 -0.10662 0
M  V30 15559 H 1618.8 -3.1432 2.37901 0
M  V30 15560 H 1620.09 -4.32192 2.68492 0
M  V30 15561 H 1619.49 -5.65331 -0.204252 0
M  V30 15562 H 1618.04 -6.51629 0.149158 0
M  V30 15563 N 1621.48 -1.1533 -1.07409 0
M  V30 15564 C 1622.72 -0.938329 -1.8159 0
M  V30 15565 C 1623.08 0.525171 -1.84678 0
M  V30 15566 O 1624.28 0.858449 -2.54724 0
M  V30 15567 C 1622.55 -1.53504 -3.22756 0
M  V30 15568 S 1624.11 -1.4631 -4.13689 0
M  V30 15569 H 1620.93 -0.337711 -0.625677 0
M  V30 15570 H 1623.53 -1.46868 -1.29035 0
M  V30 15571 H 1622.23 -2.59313 -3.18096 0
M  V30 15572 H 1621.77 -1.00353 -3.80385 0
M  V30 15573 H 1623.78 -0.455576 -4.94104 0
M  V30 15574 N 1622.95 1.25748 -0.950004 0
M  V30 15575 C 1624.36 1.75253 -0.643694 0
M  V30 15576 C 1624.72 1.77261 0.841017 0
M  V30 15577 O 1623.84 1.39043 1.65819 0
M  V30 15578 C 1624.44 3.1826 -1.16173 0
M  V30 15579 C 1622.99 3.65342 -0.905672 0
M  V30 15580 C 1622.14 2.4454 -1.30749 0
M  V30 15581 H 1625.09 1.117 -1.12733 0
M  V30 15582 H 1625.11 3.76935 -0.519651 0
M  V30 15583 H 1624.63 3.16766 -2.24234 0
M  V30 15584 H 1622.73 3.72256 0.160174 0
M  V30 15585 H 1622.84 4.53713 -1.53888 0
M  V30 15586 H 1621.2 2.44138 -0.725876 0
M  V30 15587 H 1621.99 2.45741 -2.39721 0
M  V30 15588 N 1624.43 0.718038 1.40292 0
M  V30 15589 C 1625.84 0.330675 1.83748 0
M  V30 15590 C 1626.19 -1.13511 1.6003 0
M  V30 15591 O 1625.32 -1.87381 1.08247 0
M  V30 15592 C 1625.91 0.593398 3.33563 0
M  V30 15593 C 1624.47 0.259717 3.75503 0
M  V30 15594 C 1623.62 0.864537 2.63479 0
M  V30 15595 H 1626.57 0.917 1.29525 0
M  V30 15596 H 1626.59 -0.140544 3.8024 0
M  V30 15597 H 1626.1 1.66028 3.50794 0
M  V30 15598 H 1624.2 -0.802011 3.63866 0
M  V30 15599 H 1624.32 0.730427 4.73499 0
M  V30 15600 H 1622.68 0.292399 2.53016 0
M  V30 15601 H 1623.46 1.93574 2.83521 0
M  V30 15602 N 1625.91 -1.50602 0.464402 0
M  V30 15603 C 1627.16 -2.01887 -0.0927084 0
M  V30 15604 C 1627.48 -1.34891 -1.40817 0
M  V30 15605 O 1626.75 -0.492078 -1.89619 0
M  V30 15606 H 1625.33 -0.746071 -0.0372514 0
M  V30 15607 H 1627.99 -1.84999 0.613296 0
M  V30 15608 H 1627.09 -3.11105 -0.249067 0
M  V30 15609 N 1627.39 -0.19675 -1.56367 0
M  V30 15610 C 1628.34 0.736299 -2.15784 0
M  V30 15611 C 1629.32 1.17513 -1.09907 0
M  V30 15612 O 1630.51 1.13325 -1.35965 0
M  V30 15613 C 1627.64 1.95491 -2.82202 0
M  V30 15614 C 1626.73 1.5369 -3.95272 0
M  V30 15615 N 1627.12 0.829952 -4.98944 0
M  V30 15616 C 1625.42 1.82607 -4.06904 0
M  V30 15617 C 1626.12 0.620262 -5.78384 0
M  V30 15618 N 1625.1 1.16949 -5.30871 0
M  V30 15619 H 1628.9 0.187476 -2.93301 0
M  V30 15620 H 1626.41 0.0029757 -1.624 0
M  V30 15621 H 1628.41 2.63384 -3.23163 0
M  V30 15622 H 1627.07 2.50844 -2.06173 0
M  V30 15623 H 1628.08 0.485245 -5.15622 0
M  V30 15624 H 1624.76 2.39457 -3.42004 0
M  V30 15625 H 1626.15 0.0593437 -6.71874 0
M  V30 15626 N 1628.87 1.57413 0.0768405 0
M  V30 15627 C 1629.78 2.06688 1.10983 0
M  V30 15628 C 1630.79 0.995392 1.42716 0
M  V30 15629 O 1631.97 1.30977 1.52994 0
M  V30 15630 C 1629.03 2.49676 2.40546 0
M  V30 15631 C 1628.09 3.71101 2.1583 0
M  V30 15632 C 1627.33 4.1203 3.39216 0
M  V30 15633 O 1627.55 3.52877 4.48145 0
M  V30 15634 O 1626.48 5.04856 3.27726 0
M  V30 15635 H 1630.31 2.95012 0.721242 0
M  V30 15636 H 1627.9 1.46546 0.290624 0
M  V30 15637 H 1629.78 2.77871 3.16805 0
M  V30 15638 H 1628.45 1.64484 2.78795 0
M  V30 15639 H 1627.36 3.47996 1.37293 0
M  V30 15640 H 1628.69 4.5713 1.82465 0
M  V30 15641 N 1630.34 -0.348112 1.53707 0
M  V30 15642 C 1631.27 -1.43296 1.8436 0
M  V30 15643 C 1632.26 -1.55102 0.698376 0
M  V30 15644 O 1633.44 -1.69385 0.949864 0
M  V30 15645 C 1630.57 -2.80407 2.04912 0
M  V30 15646 C 1629.52 -2.83412 3.20721 0
M  V30 15647 C 1628.85 -4.23365 3.26597 0
M  V30 15648 C 1630.15 -2.49358 4.58931 0
M  V30 15649 H 1631.84 -1.17892 2.75212 0
M  V30 15650 H 1629.39 -0.565692 1.32423 0
M  V30 15651 H 1631.34 -3.56343 2.24939 0
M  V30 15652 H 1630.07 -3.07236 1.10786 0
M  V30 15653 H 1628.73 -2.09929 3.00542 0
M  V30 15654 H 1628.37 -4.47297 2.30076 0
M  V30 15655 H 1628.07 -4.26287 4.04417 0
M  V30 15656 H 1629.6 -5.01149 3.4883 0
M  V30 15657 H 1631.01 -3.15006 4.79003 0
M  V30 15658 H 1629.41 -2.6357 5.3912 0
M  V30 15659 H 1630.48 -1.44557 4.62851 0
M  V30 15660 N 1631.82 -1.45363 -0.608876 0
M  V30 15661 C 1633.05 -1.52836 -1.39459 0
M  V30 15662 C 1633.47 -0.160537 -1.88116 0
M  V30 15663 O 1632.82 0.837671 -1.6214 0
M  V30 15664 C 1632.87 -2.51168 -2.59994 0
M  V30 15665 O 1632.59 -3.82635 -2.13359 0
M  V30 15666 C 1634.1 -2.68326 -3.52868 0
M  V30 15667 H 1631.32 -0.51765 -0.426942 0
M  V30 15668 H 1633.86 -1.90538 -0.742674 0
M  V30 15669 H 1632.01 -2.16542 -3.2123 0
M  V30 15670 H 1632.43 -4.35927 -2.91665 0
M  V30 15671 H 1633.9 -3.41109 -4.33992 0
M  V30 15672 H 1634.38 -1.74317 -4.03126 0
M  V30 15673 H 1634.99 -3.03943 -2.97487 0
M  V30 15674 N 1633.3 0.851265 -1.32632 0
M  V30 15675 C 1634.26 1.94168 -1.21785 0
M  V30 15676 C 1635.26 1.60189 -0.140023 0
M  V30 15677 O 1636.45 1.69763 -0.390671 0
M  V30 15678 C 1633.59 3.29513 -0.873717 0
M  V30 15679 H 1634.78 2.05214 -2.18695 0
M  V30 15680 H 1632.33 1.04186 -1.16512 0
M  V30 15681 H 1633.07 3.24165 0.0934202 0
M  V30 15682 H 1632.85 3.55552 -1.65302 0
M  V30 15683 H 1634.34 4.09425 -0.822231 0
M  V30 15684 N 1634.78 1.15898 1.06796 0
M  V30 15685 C 1635.73 0.860895 2.14143 0
M  V30 15686 C 1636.7 -0.188539 1.65026 0
M  V30 15687 O 1637.88 -0.0548558 1.90721 0
M  V30 15688 C 1635.02 0.362533 3.4319 0
M  V30 15689 C 1634.13 1.4742 4.06068 0
M  V30 15690 C 1633.27 0.931377 5.22971 0
M  V30 15691 C 1632.31 2.0196 5.77822 0
M  V30 15692 N 1631.44 1.49274 6.86048 0
M  V30 15693 H 1636.28 1.78023 2.38981 0
M  V30 15694 H 1633.82 0.888173 1.1726 0
M  V30 15695 H 1635.78 0.0552592 4.17163 0
M  V30 15696 H 1634.41 -0.519869 3.18586 0
M  V30 15697 H 1633.46 1.89754 3.29693 0
M  V30 15698 H 1634.77 2.29559 4.42836 0
M  V30 15699 H 1633.93 0.576982 6.0395 0
M  V30 15700 H 1632.67 0.0792265 4.87636 0
M  V30 15701 H 1631.67 2.38275 4.95485 0
M  V30 15702 H 1632.9 2.87562 6.15211 0
M  V30 15703 H 1630.84 0.663037 6.52641 0
M  V30 15704 H 1630.76 2.25035 7.21731 0
M  V30 15705 H 1632.03 1.16676 7.70718 0
M  V30 15706 N 1636.26 -1.25243 0.956659 0
M  V30 15707 C 1637.5 -1.92632 0.611328 0
M  V30 15708 C 1637.83 -1.75272 -0.85467 0
M  V30 15709 O 1637.1 -1.11758 -1.60894 0
M  V30 15710 H 1635.68 -0.712904 0.223109 0
M  V30 15711 H 1638.34 -1.52366 1.21534 0
M  V30 15712 H 1637.43 -3.00516 0.842396 0
M  V30 15713 N 1637.73 -0.725468 -1.3991 0
M  V30 15714 C 1638.96 -0.279202 -2.05007 0
M  V30 15715 C 1639.38 1.08257 -1.5468 0
M  V30 15716 O 1638.73 1.68224 -0.707585 0
M  V30 15717 C 1638.79 -0.261347 -3.60554 0
M  V30 15718 O 1638.51 -1.56935 -4.09027 0
M  V30 15719 C 1640.01 0.202259 -4.42838 0
M  V30 15720 H 1637.23 -0.123664 -0.659506 0
M  V30 15721 H 1639.77 -0.986447 -1.79135 0
M  V30 15722 H 1637.93 0.396936 -3.85361 0
M  V30 15723 H 1638.34 -1.47647 -5.0329 0
M  V30 15724 H 1639.81 0.163598 -5.51758 0
M  V30 15725 H 1640.29 1.24597 -4.21156 0
M  V30 15726 H 1640.9 -0.426108 -4.2316 0
M  V30 15727 N 1639.21 1.50354 -0.472382 0
M  V30 15728 C 1640.18 2.27096 0.30981 0
M  V30 15729 C 1641.18 1.3193 0.919306 0
M  V30 15730 O 1642.37 1.55344 0.788284 0
M  V30 15731 C 1639.5 3.08924 1.44149 0
M  V30 15732 H 1640.69 2.97692 -0.363228 0
M  V30 15733 H 1638.24 1.5465 -0.226483 0
M  V30 15734 H 1638.98 2.42828 2.14954 0
M  V30 15735 H 1638.76 3.78862 1.01023 0
M  V30 15736 H 1640.25 3.66961 1.99323 0
M  V30 15737 N 1640.69 0.205039 1.56261 0
M  V30 15738 C 1641.93 -0.433144 1.99758 0
M  V30 15739 C 1642.3 -1.58109 1.08929 0
M  V30 15740 O 1643.5 -2.28415 1.41703 0
M  V30 15741 C 1641.77 -0.872197 3.46594 0
M  V30 15742 S 1643.33 -1.50682 4.12117 0
M  V30 15743 H 1640.14 -0.138137 0.697452 0
M  V30 15744 H 1642.75 0.310446 1.93019 0
M  V30 15745 H 1641.45 -0.0267951 4.10391 0
M  V30 15746 H 1640.98 -1.64901 3.57171 0
M  V30 15747 H 1643 -2.79573 4.09943 0
M  V30 15748 N 1642.17 -1.57451 -0.0684915 0
M  V30 15749 C 1643.08 -2.07274 -1.09885 0
M  V30 15750 C 1644.1 -1.00295 -1.42186 0
M  V30 15751 O 1645.27 -1.31786 -1.52297 0
M  V30 15752 C 1642.34 -2.50949 -2.39219 0
M  V30 15753 C 1641.4 -3.7224 -2.13859 0
M  V30 15754 C 1640.63 -4.13823 -3.37026 0
M  V30 15755 O 1640.85 -3.55248 -4.46268 0
M  V30 15756 O 1639.79 -5.06587 -3.25044 0
M  V30 15757 H 1643.61 -2.9539 -0.705587 0
M  V30 15758 H 1641.2 -1.46698 -0.282849 0
M  V30 15759 H 1643.08 -2.79547 -3.15327 0
M  V30 15760 H 1641.76 -1.6596 -2.77919 0
M  V30 15761 H 1640.66 -3.4872 -1.35445 0
M  V30 15762 H 1642 -4.58091 -1.80038 0
M  V30 15763 N 1643.65 0.339955 -1.5389 0
M  V30 15764 C 1644.92 1.09703 -1.6194 0
M  V30 15765 C 1645.3 2.06401 -0.442907 0
M  V30 15766 O 1644.65 2.21418 0.564477 0
M  V30 15767 C 1644.86 1.8135 -2.98183 0
M  V30 15768 C 1646.21 2.34965 -3.53662 0
M  V30 15769 O 1647.23 1.91442 -3.00381 0
M  V30 15770 O 1646.09 3.14601 -4.46865 0
M  V30 15771 H 1643.19 0.504703 -0.655136 0
M  V30 15772 H 1645.73 0.34116 -1.66235 0
M  V30 15773 H 1644.51 1.10924 -3.75249 0
M  V30 15774 H 1644.13 2.63787 -2.97494 0
M  V30 15775 N 1645.13 1.45684 0.601159 0
M  V30 15776 C 1646.37 1.49308 1.3561 0
M  V30 15777 C 1646.69 0.141561 1.95087 0
M  V30 15778 O 1647.89 0.0554805 2.71443 0
M  V30 15779 C 1646.35 2.63001 2.4568 0
M  V30 15780 C 1645.96 4.04493 1.92586 0
M  V30 15781 C 1647.7 2.75877 3.22633 0
M  V30 15782 C 1645.61 5.09557 3.00176 0
M  V30 15783 H 1644.54 0.555604 0.509726 0
M  V30 15784 H 1647.19 1.71843 0.643606 0
M  V30 15785 H 1645.57 2.33761 3.19643 0
M  V30 15786 H 1646.75 4.4344 1.25289 0
M  V30 15787 H 1645.06 3.96123 1.28358 0
M  V30 15788 H 1647.66 3.51541 4.02893 0
M  V30 15789 H 1648 1.82737 3.74049 0
M  V30 15790 H 1648.53 3.04674 2.5577 0
M  V30 15791 H 1645.27 6.04427 2.53669 0
M  V30 15792 H 1644.79 4.75173 3.6602 0
M  V30 15793 H 1646.47 5.34591 3.64447 0
M  V30 15794 N 1646.6 -0.84422 1.33082 0
M  V30 15795 C 1647.88 -1.58339 1.1484 0
M  V30 15796 C 1648.26 -2.09136 -0.287273 0
M  V30 15797 O 1647.61 -1.8891 -1.2855 0
M  V30 15798 C 1647.82 -2.72141 2.18496 0
M  V30 15799 C 1649.17 -3.41457 2.52373 0
M  V30 15800 O 1650.19 -2.82377 2.17122 0
M  V30 15801 O 1649.05 -4.48096 3.12845 0
M  V30 15802 H 1646.14 -0.697813 0.443831 0
M  V30 15803 H 1648.69 -0.88744 1.44646 0
M  V30 15804 H 1647.46 -2.32206 3.14954 0
M  V30 15805 H 1647.08 -3.49404 1.89744 0
M  V30 15806 N 1648.08 -1.16463 -1.0618 0
M  V30 15807 C 1648.99 -0.886601 -2.17202 0
M  V30 15808 C 1650.01 0.141568 -1.73423 0
M  V30 15809 O 1651.18 -0.0353417 -2.01369 0
M  V30 15810 C 1648.25 -0.392829 -3.44467 0
M  V30 15811 C 1647.31 -1.48636 -4.02748 0
M  V30 15812 C 1646.54 -1.01606 -5.23939 0
M  V30 15813 O 1646.77 0.133753 -5.70243 0
M  V30 15814 O 1645.7 -1.80487 -5.74202 0
M  V30 15815 H 1649.53 -1.81502 -2.43497 0
M  V30 15816 H 1647.11 -0.944691 -1.15741 0
M  V30 15817 H 1648.99 -0.124501 -4.21216 0
M  V30 15818 H 1647.67 0.507566 -3.19696 0
M  V30 15819 H 1646.57 -1.80845 -3.27484 0
M  V30 15820 H 1647.91 -2.3621 -4.31817 0
M  V30 15821 N 1649.56 1.24734 -0.963288 0
M  V30 15822 C 1650.8 1.94431 -0.630554 0
M  V30 15823 C 1651.16 1.7368 0.818489 0
M  V30 15824 O 1652.36 2.37374 1.26123 0
M  V30 15825 C 1650.64 3.43421 -0.989774 0
M  V30 15826 S 1652.19 4.31975 -0.770922 0
M  V30 15827 H 1649.01 0.672265 -0.231474 0
M  V30 15828 H 1651.61 1.512 -1.2393 0
M  V30 15829 H 1650.32 3.5603 -2.04135 0
M  V30 15830 H 1649.85 3.91641 -0.371622 0
M  V30 15831 H 1651.86 4.94936 0.35396 0
M  V30 15832 N 1651.04 0.732878 1.39523 0
M  V30 15833 C 1652.26 0.288717 2.05381 0
M  V30 15834 C 1652.69 -1.06727 1.5489 0
M  V30 15835 O 1652.05 -1.67585 0.691726 0
M  V30 15836 C 1652.09 0.297738 3.59369 0
M  V30 15837 O 1651.2 -0.715335 4.06149 0
M  V30 15838 H 1650.54 0.131696 0.650809 0
M  V30 15839 H 1653.07 0.998206 1.78597 0
M  V30 15840 H 1653.08 0.141391 4.07755 0
M  V30 15841 H 1651.75 1.28719 3.9548 0
M  V30 15842 H 1650.33 -0.525298 3.69182 0
M  V30 15843 N 1652.52 -1.50101 0.480349 0
M  V30 15844 C 1653.45 -2.31581 -0.298718 0
M  V30 15845 C 1654.43 -1.38905 -0.981798 0
M  V30 15846 O 1655.61 -1.67823 -0.977188 0
M  V30 15847 C 1652.74 -3.18891 -1.37571 0
M  V30 15848 C 1651.7 -4.20194 -0.813704 0
M  V30 15849 C 1651.02 -4.96302 -1.98968 0
M  V30 15850 C 1652.32 -5.21985 0.181295 0
M  V30 15851 H 1654.02 -2.96961 0.381349 0
M  V30 15852 H 1651.56 -1.42809 0.184842 0
M  V30 15853 H 1653.51 -3.74694 -1.92828 0
M  V30 15854 H 1652.24 -2.51414 -2.08467 0
M  V30 15855 H 1650.9 -3.65506 -0.283034 0
M  V30 15856 H 1650.55 -4.2529 -2.68584 0
M  V30 15857 H 1650.25 -5.64833 -1.61981 0
M  V30 15858 H 1651.77 -5.54943 -2.54698 0
M  V30 15859 H 1653.18 -5.72604 -0.28242 0
M  V30 15860 H 1651.58 -5.98289 0.465916 0
M  V30 15861 H 1652.65 -4.72162 1.10413 0
M  V30 15862 N 1653.99 -0.213323 -1.5615 0
M  V30 15863 C 1655.22 0.428746 -2.0292 0
M  V30 15864 C 1655.64 1.53137 -1.09227 0
M  V30 15865 O 1655 1.81128 -0.0789684 0
M  V30 15866 C 1655.05 0.945231 -3.47991 0
M  V30 15867 O 1654.15 2.05709 -3.57432 0
M  V30 15868 H 1653.49 0.0980619 -0.656719 0
M  V30 15869 H 1656.02 -0.329548 -2.01929 0
M  V30 15870 H 1656.03 1.25717 -3.88149 0
M  V30 15871 H 1654.71 0.138161 -4.1567 0
M  V30 15872 H 1653.29 1.75242 -3.29158 0
M  V30 15873 N 1655.47 1.57485 0.0601405 0
M  V30 15874 C 1656.75 1.78904 0.790732 0
M  V30 15875 C 1657.13 0.803802 1.95198 0
M  V30 15876 O 1656.48 -0.16067 2.27934 0
M  V30 15877 C 1656.69 3.25738 1.25282 0
M  V30 15878 C 1658.04 3.89887 1.68147 0
M  V30 15879 O 1659.06 3.297 1.3482 0
M  V30 15880 O 1657.92 4.95796 2.29889 0
M  V30 15881 H 1655.01 0.734623 0.379814 0
M  V30 15882 H 1657.56 1.69654 0.0393151 0
M  V30 15883 H 1656.33 3.89013 0.422442 0
M  V30 15884 H 1655.95 3.39757 2.06521 0
M  V30 15885 N 1656.95 -0.331789 1.54068 0
M  V30 15886 C 1658.2 -1.06858 1.71539 0
M  V30 15887 C 1658.52 -1.88808 0.487506 0
M  V30 15888 O 1657.79 -1.8945 -0.498539 0
M  V30 15889 H 1656.37 -0.3975 0.632457 0
M  V30 15890 H 1659.03 -0.370216 1.91352 0
M  V30 15891 H 1658.13 -1.73929 2.59143 0
M  V30 15892 N 1658.43 -1.46001 -0.593424 0
M  V30 15893 C 1659.36 -1.58605 -1.71367 0
M  V30 15894 C 1660.34 -0.436866 -1.64394 0
M  V30 15895 O 1661.52 -0.661782 -1.82576 0
M  V30 15896 C 1658.65 -1.56587 -3.09996 0
M  V30 15897 C 1657.61 -2.70366 -3.31792 0
M  V30 15898 C 1656.93 -2.53406 -4.70839 0
M  V30 15899 C 1658.23 -4.12274 -3.20667 0
M  V30 15900 H 1659.93 -2.52379 -1.61076 0
M  V30 15901 H 1657.47 -1.21462 -0.773499 0
M  V30 15902 H 1659.43 -1.64 -3.88178 0
M  V30 15903 H 1658.15 -0.593511 -3.21162 0
M  V30 15904 H 1656.81 -2.62405 -2.56006 0
M  V30 15905 H 1656.46 -1.54278 -4.78756 0
M  V30 15906 H 1656.16 -3.29715 -4.86376 0
M  V30 15907 H 1657.68 -2.62694 -5.51203 0
M  V30 15908 H 1659.1 -4.21404 -3.88705 0
M  V30 15909 H 1657.49 -4.89085 -3.47729 0
M  V30 15910 H 1658.56 -4.33184 -2.17898 0
M  V30 15911 N 1659.91 0.83715 -1.33527 0
M  V30 15912 C 1661.15 1.60619 -1.26416 0
M  V30 15913 C 1661.51 1.9127 0.16722 0
M  V30 15914 O 1662.71 2.66347 0.362323 0
M  V30 15915 C 1660.98 2.87988 -2.11655 0
M  V30 15916 S 1662.54 3.78645 -2.21751 0
M  V30 15917 H 1659.36 0.550704 -0.449718 0
M  V30 15918 H 1661.96 0.990005 -1.6858 0
M  V30 15919 H 1660.67 2.63444 -3.14683 0
M  V30 15920 H 1660.2 3.54612 -1.70334 0
M  V30 15921 H 1662.21 4.76629 -1.37984 0
M  V30 15922 N 1661.38 1.17024 1.05561 0
M  V30 15923 C 1662.8 0.962856 1.59956 0
M  V30 15924 C 1663.15 -0.491388 1.89947 0
M  V30 15925 O 1662.27 -1.366 1.67838 0
M  V30 15926 C 1662.87 1.74146 2.90617 0
M  V30 15927 C 1661.43 1.57885 3.41686 0
M  V30 15928 C 1660.57 1.74548 2.15472 0
M  V30 15929 H 1663.52 1.31787 0.88419 0
M  V30 15930 H 1663.54 1.22165 3.60355 0
M  V30 15931 H 1663.06 2.79984 2.68758 0
M  V30 15932 H 1661.16 0.545207 3.6859 0
M  V30 15933 H 1661.27 2.36745 4.16519 0
M  V30 15934 H 1659.63 1.17356 2.26052 0
M  V30 15935 H 1660.42 2.81789 1.96087 0
M  V30 15936 N 1662.86 -1.24221 0.969889 0
M  V30 15937 C 1663.81 -2.23043 0.472854 0
M  V30 15938 C 1664.8 -1.54585 -0.446344 0
M  V30 15939 O 1665.99 -1.74821 -0.27691 0
M  V30 15940 C 1663.12 -3.42504 -0.233578 0
M  V30 15941 C 1662.2 -4.18206 0.704577 0
M  V30 15942 N 1662.59 -4.71037 1.84276 0
M  V30 15943 C 1660.89 -4.43007 0.515795 0
M  V30 15944 C 1661.59 -5.28525 2.42974 0
M  V30 15945 N 1660.57 -5.15849 1.71467 0
M  V30 15946 H 1664.37 -2.6151 1.34126 0
M  V30 15947 H 1661.89 -1.39632 0.829251 0
M  V30 15948 H 1663.88 -4.12459 -0.606891 0
M  V30 15949 H 1662.54 -3.05557 -1.0984 0
M  V30 15950 H 1663.55 -4.67705 2.22424 0
M  V30 15951 H 1660.23 -4.16385 -0.304885 0
M  V30 15952 H 1661.62 -5.8009 3.39035 0
M  V30 15953 N 1664.34 -0.740267 -1.39132 0
M  V30 15954 C 1665.59 -0.289949 -2.00009 0
M  V30 15955 C 1665.91 1.12831 -1.59042 0
M  V30 15956 O 1665.18 1.76926 -0.841076 0
M  V30 15957 H 1663.76 -0.104213 -0.739695 0
M  V30 15958 H 1666.42 -0.951398 -1.70101 0
M  V30 15959 H 1665.52 -0.342509 -3.10215 0
M  V30 15960 N 1665.82 1.49844 -0.488302 0
M  V30 15961 C 1666.75 2.26762 0.333396 0
M  V30 15962 C 1667.76 1.32785 0.941918 0
M  V30 15963 O 1668.95 1.58165 0.827407 0
M  V30 15964 C 1666.05 3.04721 1.48318 0
M  V30 15965 C 1665.23 4.26181 0.984303 0
M  V30 15966 C 1664.28 4.8629 2.01018 0
M  V30 15967 O 1663.31 5.4672 1.58384 0
M  V30 15968 N 1664.51 4.74813 3.33965 0
M  V30 15969 H 1667.28 2.97921 -0.32609 0
M  V30 15970 H 1664.84 1.58704 -0.320092 0
M  V30 15971 H 1666.83 3.4181 2.16676 0
M  V30 15972 H 1665.4 2.36251 2.04705 0
M  V30 15973 H 1664.62 3.93998 0.126039 0
M  V30 15974 H 1665.91 5.04895 0.62919 0
M  V30 15975 H 1665.31 4.26793 3.71301 0
M  V30 15976 H 1663.86 5.16122 3.98072 0
M  V30 15977 N 1667.3 0.221601 1.56034 0
M  V30 15978 C 1668.54 -0.411933 2.00206 0
M  V30 15979 C 1668.9 -1.56945 1.10599 0
M  V30 15980 O 1670.1 -2.269 1.44118 0
M  V30 15981 C 1668.37 -0.835387 3.475 0
M  V30 15982 S 1669.93 -1.46302 4.13692 0
M  V30 15983 H 1666.75 -0.130732 0.698878 0
M  V30 15984 H 1669.35 0.330901 1.92679 0
M  V30 15985 H 1668.06 0.0167339 4.10397 0
M  V30 15986 H 1667.59 -1.61103 3.589 0
M  V30 15987 H 1669.6 -2.75209 4.12885 0
M  V30 15988 N 1668.77 -1.57515 -0.0517878 0
M  V30 15989 C 1670.02 -1.88493 -0.748206 0
M  V30 15990 C 1670.35 -0.816494 -1.76202 0
M  V30 15991 O 1669.63 0.171075 -1.93746 0
M  V30 15992 C 1669.91 -3.30131 -1.43825 0
M  V30 15993 C 1669.76 -4.47648 -0.4395 0
M  V30 15994 C 1671.08 -3.70315 -2.37813 0
M  V30 15995 H 1668.2 -0.68555 -0.270537 0
M  V30 15996 H 1670.84 -1.89997 -0.0111457 0
M  V30 15997 H 1668.99 -3.2898 -2.06651 0
M  V30 15998 H 1670.67 -4.60929 0.185088 0
M  V30 15999 H 1668.91 -4.33117 0.243381 0
M  V30 16000 H 1669.58 -5.43582 -0.96035 0
M  V30 16001 H 1672.06 -3.72687 -1.8505 0
M  V30 16002 H 1670.93 -4.70269 -2.83087 0
M  V30 16003 H 1671.19 -3.0133 -3.23501 0
M  V30 16004 N 1670.25 0.323614 -1.54242 0
M  V30 16005 C 1671.2 1.4184 -1.84348 0
M  V30 16006 C 1672.2 1.53553 -0.715384 0
M  V30 16007 O 1673.4 1.5594 -0.899045 0
M  V30 16008 H 1669.78 0.473326 -0.584352 0
M  V30 16009 H 1671.75 1.13672 -2.75901 0
M  V30 16010 C 1670.5 2.78059 -2.08755 0
M  V30 16011 H 1669.82 2.69819 -2.95021 0
M  V30 16012 H 1671.26 3.53731 -2.33774 0
M  V30 16013 C 1669.72 3.25229 -0.879076 0
M  V30 16014 O 1670.25 4.01603 -0.0883125 0
M  V30 16015 N 1668.45 2.82272 -0.690726 0
M  V30 16016 H 1668 2.20283 -1.33542 0
M  V30 16017 H 1667.96 3.14185 0.116344 0
M  V30 16018 N 1671.73 1.46313 0.585673 0
M  V30 16019 C 1672.98 1.51694 1.34598 0
M  V30 16020 C 1673.31 0.166889 1.93482 0
M  V30 16021 O 1672.59 -0.821331 1.76308 0
M  V30 16022 C 1672.87 2.61322 2.47755 0
M  V30 16023 C 1672.72 4.05848 1.93926 0
M  V30 16024 C 1674.04 2.67058 3.49812 0
M  V30 16025 H 1671.16 0.552253 0.488043 0
M  V30 16026 H 1673.8 1.78235 0.658201 0
M  V30 16027 H 1671.95 2.38822 3.06425 0
M  V30 16028 H 1673.62 4.39626 1.39736 0
M  V30 16029 H 1671.87 4.15468 1.24775 0
M  V30 16030 H 1672.54 4.78279 2.75596 0
M  V30 16031 H 1675.01 2.87276 3.01018 0
M  V30 16032 H 1673.89 3.45589 4.2645 0
M  V30 16033 H 1674.15 1.72993 4.06849 0
M  V30 16034 N 1673.21 -0.830057 1.33969 0
M  V30 16035 C 1674.46 -1.58084 1.25269 0
M  V30 16036 C 1674.77 -1.94792 -0.177557 0
M  V30 16037 O 1675.98 -2.68733 -0.386657 0
M  V30 16038 C 1674.43 -2.85177 2.1955 0
M  V30 16039 C 1674.04 -2.55798 3.67792 0
M  V30 16040 C 1675.79 -3.632 2.19741 0
M  V30 16041 C 1673.69 -3.79041 4.53963 0
M  V30 16042 H 1672.62 -0.593289 0.465321 0
M  V30 16043 H 1675.27 -0.914476 1.5909 0
M  V30 16044 H 1673.66 -3.53401 1.78672 0
M  V30 16045 H 1674.83 -1.9573 4.17165 0
M  V30 16046 H 1673.14 -1.91064 3.69978 0
M  V30 16047 H 1675.74 -4.54695 2.81347 0
M  V30 16048 H 1676.08 -3.98786 1.1948 0
M  V30 16049 H 1676.62 -3.0191 2.59028 0
M  V30 16050 H 1673.36 -3.4858 5.55133 0
M  V30 16051 H 1672.88 -4.38417 4.09329 0
M  V30 16052 H 1674.56 -4.46527 4.68212 0
M  V30 16053 N 1674.69 -1.17582 -1.04939 0
M  V30 16054 C 1675.94 -0.96387 -1.77634 0
M  V30 16055 C 1676.26 0.508548 -1.88252 0
M  V30 16056 O 1675.53 1.36913 -1.40113 0
M  V30 16057 H 1674.11 -0.353636 -0.65799 0
M  V30 16058 H 1676.77 -1.48104 -1.26693 0
M  V30 16059 H 1675.86 -1.39438 -2.79219 0
M  V30 16060 N 1676.17 1.23705 -0.976463 0
M  V30 16061 C 1677.13 2.23257 -0.518533 0
M  V30 16062 C 1678.13 1.56006 0.3897 0
M  V30 16063 O 1679.32 1.73226 0.18394 0
M  V30 16064 C 1676.45 3.39997 0.247916 0
M  V30 16065 H 1677.64 2.65284 -1.39872 0
M  V30 16066 H 1675.2 1.3647 -0.761946 0
M  V30 16067 H 1675.93 3.03421 1.14482 0
M  V30 16068 H 1675.72 3.90013 -0.403975 0
M  V30 16069 H 1677.21 4.13868 0.557034 0
M  V30 16070 N 1677.64 0.747635 1.38738 0
M  V30 16071 C 1678.89 0.301147 2.00248 0
M  V30 16072 C 1679.22 -1.11539 1.5934 0
M  V30 16073 O 1678.47 -1.77716 0.819487 0
M  V30 16074 C 1678.77 0.364869 3.55533 0
M  V30 16075 C 1678.44 1.73622 4.16133 0
M  V30 16076 C 1677.1 2.11153 4.32398 0
M  V30 16077 C 1679.45 2.63605 4.49624 0
M  V30 16078 C 1676.78 3.38151 4.79449 0
M  V30 16079 C 1679.13 3.89987 4.98089 0
M  V30 16080 C 1677.8 4.27595 5.12561 0
M  V30 16081 H 1677.07 0.110197 0.73276 0
M  V30 16082 H 1679.71 0.956952 1.65876 0
M  V30 16083 H 1678.02 -0.374505 3.90006 0
M  V30 16084 H 1679.72 0.00107503 4.01 0
M  V30 16085 H 1676.31 1.43445 4.03883 0
M  V30 16086 H 1680.49 2.35875 4.36665 0
M  V30 16087 H 1675.75 3.67215 4.88838 0
M  V30 16088 H 1679.92 4.59859 5.22975 0
M  V30 16089 H 1677.55 5.26065 5.4878 0
M  V30 16090 N 1679.12 -1.49583 0.496242 0
M  V30 16091 C 1680.05 -2.26936 -0.321366 0
M  V30 16092 C 1681.07 -1.33282 -0.934863 0
M  V30 16093 O 1682.26 -1.58602 -0.819008 0
M  V30 16094 C 1679.36 -3.05503 -1.467 0
M  V30 16095 C 1678.53 -4.26697 -0.961687 0
M  V30 16096 C 1677.59 -4.8735 -1.98436 0
M  V30 16097 O 1676.61 -5.47553 -1.55482 0
M  V30 16098 N 1677.82 -4.76577 -3.31443 0
M  V30 16099 H 1680.58 -2.97744 0.341884 0
M  V30 16100 H 1678.14 -1.58532 0.328504 0
M  V30 16101 H 1680.13 -3.42954 -2.1486 0
M  V30 16102 H 1678.7 -2.37334 -2.03449 0
M  V30 16103 H 1677.92 -3.9406 -0.105143 0
M  V30 16104 H 1679.21 -5.05221 -0.602405 0
M  V30 16105 H 1678.61 -4.28756 -3.69032 0
M  V30 16106 H 1677.17 -5.18226 -3.95329 0
M  V30 16107 N 1680.6 -0.229873 -1.55915 0
M  V30 16108 C 1681.84 0.40131 -2.00422 0
M  V30 16109 C 1682.2 1.56356 -1.1143 0
M  V30 16110 O 1683.4 2.26132 -1.45319 0
M  V30 16111 C 1681.68 0.816946 -3.47938 0
M  V30 16112 S 1683.23 1.44106 -4.14462 0
M  V30 16113 H 1680.05 0.127024 -0.699561 0
M  V30 16114 H 1682.65 -0.341114 -1.92501 0
M  V30 16115 H 1681.36 -0.038498 -4.10382 0
M  V30 16116 H 1680.89 1.59198 -3.59749 0
M  V30 16117 H 1682.9 2.73016 -4.14339 0
M  V30 16118 N 1682.08 1.5754 0.0434337 0
M  V30 16119 C 1683.3 1.93247 0.753012 0
M  V30 16120 C 1683.73 0.828712 1.68861 0
M  V30 16121 O 1683.09 -0.216618 1.80001 0
M  V30 16122 C 1683.13 3.27989 1.49852 0
M  V30 16123 O 1682.24 3.19223 2.61094 0
M  V30 16124 H 1681.58 0.632032 0.203547 0
M  V30 16125 H 1684.11 2.046 0.00319776 0
M  V30 16126 H 1684.12 3.62539 1.87161 0
M  V30 16127 H 1682.79 4.07891 0.812251 0
M  V30 16128 H 1681.37 2.9628 2.26434 0
M  V30 16129 N 1683.56 -0.31543 1.54411 0
M  V30 16130 C 1684.8 -1.06053 1.74734 0
M  V30 16131 C 1685.16 -1.84978 0.51451 0
M  V30 16132 O 1686.36 -2.62127 0.595228 0
M  V30 16133 C 1684.63 -1.95417 2.99244 0
M  V30 16134 S 1686.19 -2.76769 3.40506 0
M  V30 16135 H 1683.01 -0.357904 0.61435 0
M  V30 16136 H 1685.61 -0.33558 1.92598 0
M  V30 16137 H 1684.31 -1.36285 3.8711 0
M  V30 16138 H 1683.85 -2.72304 2.83926 0
M  V30 16139 H 1685.86 -3.97914 2.96444 0
M  V30 16140 N 1685.03 -1.46622 -0.577906 0
M  V30 16141 C 1685.98 -1.53964 -1.68164 0
M  V30 16142 C 1686.97 -0.400171 -1.55844 0
M  V30 16143 O 1688.16 -0.648872 -1.64677 0
M  V30 16144 C 1685.29 -1.53743 -3.0695 0
M  V30 16145 C 1684.38 -2.73001 -3.24548 0
M  V30 16146 N 1684.77 -3.97882 -3.12288 0
M  V30 16147 C 1683.06 -2.69326 -3.55499 0
M  V30 16148 C 1683.77 -4.77637 -3.3202 0
M  V30 16149 N 1682.74 -4.09594 -3.57398 0
M  V30 16150 H 1686.54 -2.48311 -1.57222 0
M  V30 16151 H 1684.06 -1.42328 -0.782077 0
M  V30 16152 H 1686.05 -1.57091 -3.86171 0
M  V30 16153 H 1684.71 -0.60476 -3.19018 0
M  V30 16154 H 1685.73 -4.29058 -2.90052 0
M  V30 16155 H 1682.4 -1.85104 -3.74223 0
M  V30 16156 H 1683.79 -5.86577 -3.27684 0
M  V30 16157 N 1686.51 0.822941 -1.34408 0
M  V30 16158 C 1687.48 1.91541 -1.25876 0
M  V30 16159 C 1688.48 1.59856 -0.17397 0
M  V30 16160 O 1689.67 1.68896 -0.426592 0
M  V30 16161 C 1686.8 3.27586 -0.943415 0
M  V30 16162 H 1687.99 2.00529 -2.22998 0
M  V30 16163 H 1685.54 1.01691 -1.18695 0
M  V30 16164 H 1686.28 3.24291 0.0246389 0
M  V30 16165 H 1686.06 3.51966 -1.72807 0
M  V30 16166 H 1687.55 4.07589 -0.908891 0
M  V30 16167 N 1687.99 1.18137 1.04314 0
M  V30 16168 C 1689.24 0.973277 1.77121 0
M  V30 16169 C 1689.56 -0.498558 1.88519 0
M  V30 16170 O 1688.83 -1.36168 1.40837 0
M  V30 16171 H 1687.41 0.35712 0.656105 0
M  V30 16172 H 1690.07 1.48774 1.25906 0
M  V30 16173 H 1689.17 1.40917 2.78476 0
M  V30 16174 N 1689.47 -1.23186 0.98301 0
M  V30 16175 C 1690.72 -1.91671 0.653342 0
M  V30 16176 C 1691.04 -1.76673 -0.813438 0
M  V30 16177 O 1690.3 -1.1232 -1.60258 0
M  V30 16178 C 1690.6 -3.43331 0.992898 0
M  V30 16179 C 1690.26 -3.78511 2.45032 0
M  V30 16180 C 1688.93 -3.87824 2.84861 0
M  V30 16181 C 1691.28 -3.95423 3.39544 0
M  V30 16182 C 1688.61 -4.11479 4.18213 0
M  V30 16183 C 1690.96 -4.20579 4.72543 0
M  V30 16184 C 1689.62 -4.28114 5.12128 0
M  V30 16185 H 1688.89 -0.701373 0.239075 0
M  V30 16186 H 1691.54 -1.46157 1.23736 0
M  V30 16187 H 1689.84 -3.90434 0.326832 0
M  V30 16188 H 1691.54 -3.94556 0.715995 0
M  V30 16189 H 1688.13 -3.71838 2.13154 0
M  V30 16190 H 1692.31 -3.87615 3.09949 0
M  V30 16191 H 1687.57 -4.15536 4.48486 0
M  V30 16192 H 1691.74 -4.32608 5.45732 0
M  V30 16193 H 1689.37 -4.46196 6.15478 0
M  V30 16194 N 1690.95 -0.754982 -1.38339 0
M  V30 16195 C 1691.88 -0.0883836 -2.2903 0
M  V30 16196 C 1692.89 0.682258 -1.47814 0
M  V30 16197 O 1694.08 0.523117 -1.70663 0
M  V30 16198 C 1691.18 0.898819 -3.26764 0
M  V30 16199 C 1690.35 0.185527 -4.37006 0
M  V30 16200 C 1689.41 1.08368 -5.1492 0
M  V30 16201 O 1688.44 0.553687 -5.66501 0
M  V30 16202 N 1689.64 2.41164 -5.28034 0
M  V30 16203 H 1692.41 -0.86725 -2.86878 0
M  V30 16204 H 1689.97 -0.605886 -1.50135 0
M  V30 16205 H 1691.96 1.50273 -3.75766 0
M  V30 16206 H 1690.53 1.57876 -2.69804 0
M  V30 16207 H 1689.75 -0.599106 -3.89621 0
M  V30 16208 H 1691.04 -0.307999 -5.07867 0
M  V30 16209 H 1690.43 2.86677 -4.87681 0
M  V30 16210 H 1688.99 2.96602 -5.80406 0
M  V30 16211 N 1692.42 1.49318 -0.504168 0
M  V30 16212 C 1693.65 2.07365 0.038102 0
M  V30 16213 C 1694.07 1.36164 1.29773 0
M  V30 16214 O 1693.43 0.419365 1.76383 0
M  V30 16215 C 1693.48 3.59576 0.271535 0
M  V30 16216 O 1692.58 3.8983 1.34561 0
M  V30 16217 H 1691.93 0.663425 -0.0276328 0
M  V30 16218 H 1694.46 1.92081 -0.704696 0
M  V30 16219 H 1694.47 4.04899 0.502083 0
M  V30 16220 H 1693.14 4.10809 -0.648754 0
M  V30 16221 H 1691.72 3.56314 1.09976 0
M  V30 16222 N 1693.9 0.238138 1.5579 0
M  V30 16223 C 1695.13 -0.393422 2.03125 0
M  V30 16224 C 1695.55 -1.52168 1.11761 0
M  V30 16225 O 1694.9 -1.82034 0.130341 0
M  V30 16226 C 1694.95 -0.909474 3.49873 0
M  V30 16227 O 1694.67 0.17381 4.37755 0
M  V30 16228 C 1696.18 -1.61261 4.12928 0
M  V30 16229 H 1693.4 -0.0945077 0.664311 0
M  V30 16230 H 1695.94 0.359442 2.01316 0
M  V30 16231 H 1694.09 -1.61255 3.52244 0
M  V30 16232 H 1694.51 -0.216641 5.24052 0
M  V30 16233 H 1695.98 -1.92551 5.17328 0
M  V30 16234 H 1696.46 -2.53155 3.589 0
M  V30 16235 H 1697.07 -0.954326 4.14455 0
M  V30 16236 N 1695.38 -1.57561 -0.0350783 0
M  V30 16237 C 1696.79 -1.77383 -0.582437 0
M  V30 16238 C 1697.14 -0.868453 -1.75933 0
M  V30 16239 O 1696.27 -0.061745 -2.16312 0
M  V30 16240 C 1696.86 -3.2168 -1.06337 0
M  V30 16241 C 1695.42 -3.42719 -1.55629 0
M  V30 16242 C 1694.57 -2.72906 -0.4917 0
M  V30 16243 H 1697.52 -1.57545 0.19115 0
M  V30 16244 H 1697.54 -3.27863 -1.93097 0
M  V30 16245 H 1697.05 -3.8755 -0.206603 0
M  V30 16246 H 1695.15 -2.82016 -2.43511 0
M  V30 16247 H 1695.27 -4.51312 -1.60794 0
M  V30 16248 H 1693.63 -2.36506 -0.945349 0
M  V30 16249 H 1694.41 -3.41454 0.355502 0
M  V30 16250 N 1696.86 0.307236 -1.54576 0
M  V30 16251 C 1698.14 1.06243 -1.64231 0
M  V30 16252 C 1698.52 2.05415 -0.486589 0
M  V30 16253 O 1697.86 2.22565 0.517384 0
M  V30 16254 C 1698.07 1.74985 -3.01962 0
M  V30 16255 C 1699.42 2.2741 -3.58566 0
M  V30 16256 O 1700.45 1.85027 -3.04374 0
M  V30 16257 O 1699.3 3.05051 -4.53438 0
M  V30 16258 H 1696.4 0.490693 -0.665695 0
M  V30 16259 H 1698.94 0.305822 -1.66922 0
M  V30 16260 H 1697.72 1.02939 -3.77517 0
M  V30 16261 H 1697.34 2.57417 -3.03022 0
M  V30 16262 N 1698.34 1.46926 0.570122 0
M  V30 16263 C 1699.75 1.32159 0.894766 0
M  V30 16264 C 1699.95 0.302411 1.99218 0
M  V30 16265 O 1699.01 -0.290615 2.50822 0
M  V30 16266 C 1700.32 2.71136 1.30021 0
M  V30 16267 C 1701.87 2.79323 1.41236 0
M  V30 16268 C 1702.34 4.18911 1.85142 0
M  V30 16269 N 1703.84 4.2139 1.92314 0
M  V30 16270 C 1704.57 5.263 2.27588 0
M  V30 16271 N 1704.07 6.41526 2.61565 0
M  V30 16272 N 1705.86 5.13671 2.28251 0
M  V30 16273 H 1698.01 2.11837 -0.154603 0
M  V30 16274 H 1700.27 0.947978 -0.00649658 0
M  V30 16275 H 1699.98 3.47087 0.567775 0
M  V30 16276 H 1699.85 3.02066 2.25911 0
M  V30 16277 H 1702.24 2.03653 2.13564 0
M  V30 16278 H 1702.32 2.52063 0.43566 0
M  V30 16279 H 1701.97 4.95081 1.13389 0
M  V30 16280 H 1701.9 4.43587 2.83792 0
M  V30 16281 H 1704.39 3.38257 1.68495 0
M  V30 16282 H 1704.7 7.17343 2.8747 0
M  V30 16283 H 1703.04 6.44867 2.59175 0
M  V30 16284 H 1706.24 4.22684 2.01137 0
M  V30 16285 H 1706.41 5.95541 2.55412 0
M  V30 16286 N 1699.82 -0.815801 1.34842 0
M  V30 16287 C 1700.75 -1.93493 1.22854 0
M  V30 16288 C 1701.76 -1.6207 0.15395 0
M  V30 16289 O 1702.95 -1.73811 0.406428 0
M  V30 16290 C 1700.05 -3.27622 0.867006 0
M  V30 16291 C 1699.22 -3.87017 2.03806 0
M  V30 16292 C 1698.28 -4.99536 1.65378 0
M  V30 16293 O 1697.31 -5.17453 2.37131 0
M  V30 16294 N 1698.51 -5.77674 0.572056 0
M  V30 16295 H 1701.27 -2.04307 2.19269 0
M  V30 16296 H 1698.84 -0.992752 1.27891 0
M  V30 16297 H 1700.83 -4.00353 0.59159 0
M  V30 16298 H 1699.4 -3.12599 -0.00717215 0
M  V30 16299 H 1698.62 -3.06592 2.4778 0
M  V30 16300 H 1699.91 -4.23431 2.82106 0
M  V30 16301 H 1699.3 -5.65695 -0.0242931 0
M  V30 16302 H 1697.86 -6.50825 0.356394 0
M  V30 16303 N 1701.29 -1.18689 -1.03686 0
M  V30 16304 C 1702.54 -0.982656 -1.76602 0
M  V30 16305 C 1702.86 0.488553 -1.88781 0
M  V30 16306 O 1702.13 1.35419 -1.41558 0
M  V30 16307 H 1700.71 -0.360595 -0.654202 0
M  V30 16308 H 1703.37 -1.49439 -1.25115 0
M  V30 16309 H 1702.47 -1.42392 -2.77725 0
M  V30 16310 N 1702.77 1.22662 -0.989529 0
M  V30 16311 C 1704.01 1.9305 -0.671653 0
M  V30 16312 C 1704.38 1.75377 0.781465 0
M  V30 16313 O 1705.58 2.39996 1.2106 0
M  V30 16314 C 1703.85 3.41245 -1.0624 0
M  V30 16315 S 1705.41 4.30242 -0.862376 0
M  V30 16316 H 1702.22 0.667204 -0.245682 0
M  V30 16317 H 1704.83 1.48537 -1.2711 0
M  V30 16318 H 1703.53 3.51619 -2.11641 0
M  V30 16319 H 1703.06 3.90764 -0.454611 0
M  V30 16320 H 1705.08 4.95575 0.248897 0
M  V30 16321 N 1704.25 0.762308 1.37937 0
M  V30 16322 C 1705.5 0.322846 2.00214 0
M  V30 16323 C 1705.83 -1.09513 1.60376 0
M  V30 16324 O 1705.1 -1.75165 0.845432 0
M  V30 16325 C 1705.39 0.455651 3.57206 0
M  V30 16326 C 1705.24 1.91537 4.06981 0
M  V30 16327 C 1706.56 -0.145758 4.39859 0
M  V30 16328 H 1703.68 0.118781 0.727365 0
M  V30 16329 H 1706.32 0.963585 1.63753 0
M  V30 16330 H 1704.47 -0.0898341 3.88396 0
M  V30 16331 H 1706.14 2.51983 3.86397 0
M  V30 16332 H 1704.38 2.42744 3.59524 0
M  V30 16333 H 1705.06 1.9594 5.16054 0
M  V30 16334 H 1707.53 0.31956 4.14871 0
M  V30 16335 H 1706.41 -0.0226441 5.48895 0
M  V30 16336 H 1706.67 -1.23504 4.24499 0
M  V30 16337 N 1705.73 -1.49049 0.51208 0
M  V30 16338 C 1707 -1.95383 -0.0920331 0
M  V30 16339 C 1707.38 -1.4539 -1.53053 0
M  V30 16340 O 1706.73 -0.672485 -2.1838 0
M  V30 16341 C 1706.94 -3.48999 0.00673901 0
M  V30 16342 C 1708.29 -4.24292 -0.161602 0
M  V30 16343 O 1709.31 -3.56135 -0.0679198 0
M  V30 16344 O 1708.17 -5.45343 -0.355351 0
M  V30 16345 H 1705.27 -0.822175 -0.0891992 0
M  V30 16346 H 1707.81 -1.59647 0.575406 0
M  V30 16347 H 1706.59 -3.78055 1.00948 0
M  V30 16348 H 1706.21 -3.91383 -0.700353 0
M  V30 16349 N 1707.21 -0.246397 -1.55662 0
M  V30 16350 C 1708.45 0.378973 -1.98108 0
M  V30 16351 C 1708.77 1.59106 -1.13775 0
M  V30 16352 O 1709.97 2.28754 -1.46232 0
M  V30 16353 C 1708.43 0.725634 -3.52509 0
M  V30 16354 C 1708.04 -0.465024 -4.4558 0
M  V30 16355 C 1709.78 1.31522 -4.03611 0
M  V30 16356 C 1707.69 -0.0945447 -5.91324 0
M  V30 16357 H 1706.62 0.14537 -0.739854 0
M  V30 16358 H 1709.27 -0.346533 -1.80198 0
M  V30 16359 H 1707.65 1.50925 -3.66111 0
M  V30 16360 H 1708.83 -1.24236 -4.43736 0
M  V30 16361 H 1707.14 -0.969507 -4.04956 0
M  V30 16362 H 1709.74 1.60573 -5.1002 0
M  V30 16363 H 1710.08 2.23952 -3.50929 0
M  V30 16364 H 1710.61 0.594515 -3.93332 0
M  V30 16365 H 1707.35 -0.985965 -6.48042 0
M  V30 16366 H 1706.87 0.646601 -5.96305 0
M  V30 16367 H 1708.55 0.323447 -6.46191 0
M  V30 16368 N 1708.68 1.57577 0.026722 0
M  V30 16369 C 1709.63 2.07803 1.04502 0
M  V30 16370 C 1710.63 0.992308 1.37294 0
M  V30 16371 O 1711.83 1.17717 1.36171 0
M  V30 16372 H 1708.21 0.663176 0.354545 0
M  V30 16373 H 1710.18 2.92395 0.595626 0
M  V30 16374 C 1708.93 2.57478 2.33667 0
M  V30 16375 H 1708.25 3.40639 2.09296 0
M  V30 16376 H 1709.69 2.96328 3.03258 0
M  V30 16377 C 1708.15 1.47704 3.02796 0
M  V30 16378 O 1708.68 0.844611 3.9272 0
M  V30 16379 N 1706.88 1.211 2.64165 0
M  V30 16380 H 1706.43 1.72713 1.91123 0
M  V30 16381 H 1706.39 0.47866 3.10735 0
M  V30 16382 N 1710.16 -0.299034 1.54737 0
M  V30 16383 C 1711.07 -1.39141 1.88884 0
M  V30 16384 C 1712.09 -1.55377 0.783203 0
M  V30 16385 O 1713.26 -1.70003 1.07985 0
M  V30 16386 C 1710.33 -2.73487 2.13087 0
M  V30 16387 C 1709.39 -2.66219 3.36788 0
M  V30 16388 C 1708.62 -3.94158 3.59827 0
M  V30 16389 O 1708.85 -4.9361 2.85841 0
M  V30 16390 O 1707.78 -3.95933 4.53344 0
M  V30 16391 H 1711.61 -1.13184 2.81821 0
M  V30 16392 H 1709.19 -0.495271 1.40952 0
M  V30 16393 H 1711.07 -3.5297 2.30195 0
M  V30 16394 H 1709.75 -2.99283 1.23335 0
M  V30 16395 H 1708.65 -1.85201 3.25041 0
M  V30 16396 H 1709.99 -2.45376 4.26675 0
M  V30 16397 N 1711.64 -1.47227 -0.562322 0
M  V30 16398 C 1712.88 -1.55163 -1.33056 0
M  V30 16399 C 1713.24 -0.206867 -1.90882 0
M  V30 16400 O 1714.44 -0.161056 -2.68317 0
M  V30 16401 C 1712.72 -2.63484 -2.41477 0
M  V30 16402 S 1714.27 -2.90968 -3.28455 0
M  V30 16403 H 1711.09 -0.547974 -0.45304 0
M  V30 16404 H 1713.69 -1.84578 -0.644301 0
M  V30 16405 H 1712.4 -3.59797 -1.9742 0
M  V30 16406 H 1711.93 -2.35867 -3.14849 0
M  V30 16407 H 1713.94 -2.27793 -4.40823 0
M  V30 16408 N 1713.12 0.808639 -1.35273 0
M  V30 16409 C 1714.53 1.10389 -1.15267 0
M  V30 16410 C 1714.73 2.01467 0.0362501 0
M  V30 16411 O 1713.79 2.42386 0.707477 0
M  V30 16412 C 1715.1 1.73685 -2.45467 0
M  V30 16413 C 1716.65 1.86115 -2.51655 0
M  V30 16414 C 1717.13 2.52826 -3.81894 0
M  V30 16415 N 1718.62 2.60313 -3.83134 0
M  V30 16416 C 1719.35 3.12694 -4.80635 0
M  V30 16417 N 1718.85 3.6553 -5.88523 0
M  V30 16418 N 1720.64 3.11228 -4.68074 0
M  V30 16419 H 1712.79 0.203141 -2.11426 0
M  V30 16420 H 1715.05 0.152706 -0.93562 0
M  V30 16421 H 1714.76 1.14228 -3.32633 0
M  V30 16422 H 1714.63 2.73406 -2.59864 0
M  V30 16423 H 1717.02 2.44715 -1.64919 0
M  V30 16424 H 1717.1 0.852547 -2.41175 0
M  V30 16425 H 1716.75 1.94875 -4.69027 0
M  V30 16426 H 1716.68 3.54219 -3.89662 0
M  V30 16427 H 1719.17 2.22878 -3.05178 0
M  V30 16428 H 1719.48 4.03793 -6.58917 0
M  V30 16429 H 1717.83 3.63734 -5.92218 0
M  V30 16430 H 1721.02 2.69228 -3.82928 0
M  V30 16431 H 1721.19 3.51745 -5.44224 0
M  V30 16432 N 1714.6 1.19237 1.03055 0
M  V30 16433 C 1715.84 0.995444 1.76688 0
M  V30 16434 C 1716.18 -0.472805 1.88357 0
M  V30 16435 O 1715.45 -1.3511 1.39913 0
M  V30 16436 C 1715.73 1.66308 3.19396 0
M  V30 16437 C 1715.59 3.20486 3.15609 0
M  V30 16438 C 1716.91 1.38468 4.17749 0
M  V30 16439 H 1714.02 0.36304 0.641382 0
M  V30 16440 H 1716.67 1.47052 1.20315 0
M  V30 16441 H 1714.82 1.25915 3.67529 0
M  V30 16442 H 1716.49 3.70081 2.75387 0
M  V30 16443 H 1714.73 3.52118 2.53369 0
M  V30 16444 H 1715.4 3.62345 4.16426 0
M  V30 16445 H 1717.88 1.73485 3.78209 0
M  V30 16446 H 1716.75 1.87735 5.15797 0
M  V30 16447 H 1717.02 0.309505 4.41015 0
M  V30 16448 N 1716.07 -1.22136 0.99602 0
M  V30 16449 C 1717.01 -2.23518 0.507162 0
M  V30 16450 C 1718.02 -1.57824 -0.399426 0
M  V30 16451 O 1719.21 -1.77364 -0.20106 0
M  V30 16452 C 1716.31 -3.37709 -0.283931 0
M  V30 16453 C 1715.48 -4.3299 0.619549 0
M  V30 16454 C 1714.54 -5.26062 -0.120376 0
M  V30 16455 O 1713.57 -5.67041 0.495269 0
M  V30 16456 N 1714.77 -5.63322 -1.40172 0
M  V30 16457 H 1717.53 -2.66092 1.37896 0
M  V30 16458 H 1715.09 -1.36468 0.871102 0
M  V30 16459 H 1717.09 -3.96961 -0.787661 0
M  V30 16460 H 1715.66 -2.94193 -1.05685 0
M  V30 16461 H 1714.88 -3.72011 1.3039 0
M  V30 16462 H 1716.16 -4.93591 1.23473 0
M  V30 16463 H 1715.56 -5.32006 -1.92318 0
M  V30 16464 H 1714.12 -6.24977 -1.85058 0
M  V30 16465 N 1717.55 -0.769612 -1.37531 0
M  V30 16466 C 1718.5 -0.142211 -2.32165 0
M  V30 16467 C 1719.49 0.687376 -1.54827 0
M  V30 16468 O 1720.7 0.584677 -1.7024 0
M  V30 16469 H 1717.08 -0.0271998 -0.751508 0
M  V30 16470 H 1719.05 -0.956148 -2.82667 0
M  V30 16471 C 1717.8 0.72421 -3.40074 0
M  V30 16472 H 1717.12 0.0952318 -3.99687 0
M  V30 16473 H 1718.56 1.13021 -4.08659 0
M  V30 16474 C 1717.02 1.87388 -2.79977 0
M  V30 16475 O 1717.55 2.96921 -2.70557 0
M  V30 16476 N 1715.75 1.67384 -2.37552 0
M  V30 16477 H 1715.3 0.782941 -2.45414 0
M  V30 16478 H 1715.26 2.44474 -1.97686 0
M  V30 16479 N 1719.03 1.48775 -0.519977 0
M  V30 16480 C 1720.28 2.02092 0.0177154 0
M  V30 16481 C 1720.6 1.40024 1.35714 0
M  V30 16482 O 1719.87 0.562115 1.87662 0
M  V30 16483 H 1718.45 0.746939 0.00953578 0
M  V30 16484 H 1721.11 1.82595 -0.681535 0
M  V30 16485 H 1720.21 3.11815 0.133431 0
M  V30 16486 N 1720.51 0.254649 1.55529 0
M  V30 16487 C 1721.76 -0.367205 1.98736 0
M  V30 16488 C 1722.08 -1.57899 1.14424 0
M  V30 16489 O 1721.35 -1.94559 0.228849 0
M  V30 16490 H 1719.93 -0.138663 0.734017 0
M  V30 16491 H 1722.59 0.355236 1.91635 0
M  V30 16492 H 1721.69 -0.671069 3.048 0
M  V30 16493 N 1721.99 -1.57589 -0.0183649 0
M  V30 16494 C 1723.23 -1.91608 -0.711726 0
M  V30 16495 C 1723.59 -0.854347 -1.71945 0
M  V30 16496 O 1724.79 -1.07921 -2.46184 0
M  V30 16497 C 1723.06 -3.30745 -1.35434 0
M  V30 16498 S 1724.62 -3.86618 -2.07537 0
M  V30 16499 H 1721.44 -0.670853 -0.235536 0
M  V30 16500 H 1724.04 -1.95471 0.0339114 0
M  V30 16501 H 1722.75 -4.05874 -0.607828 0
M  V30 16502 H 1722.28 -3.30212 -2.1383 0
M  V30 16503 H 1724.29 -3.66209 -3.34821 0
M  V30 16504 N 1723.46 0.290824 -1.54893 0
M  V30 16505 C 1724.74 1.04495 -1.65348 0
M  V30 16506 C 1725.12 2.04888 -0.508348 0
M  V30 16507 O 1724.47 2.23102 0.493749 0
M  V30 16508 C 1724.68 1.71772 -3.03801 0
M  V30 16509 C 1726.03 2.23595 -3.60958 0
M  V30 16510 O 1727.05 1.81788 -3.06319 0
M  V30 16511 O 1725.91 3.00225 -4.56648 0
M  V30 16512 H 1723 0.483605 -0.670862 0
M  V30 16513 H 1725.55 0.288101 -1.67237 0
M  V30 16514 H 1724.32 0.989296 -3.78588 0
M  V30 16515 H 1723.95 2.54188 -3.05735 0
M  V30 16516 N 1724.94 1.47523 0.554506 0
M  V30 16517 C 1726.19 1.54515 1.3135 0
M  V30 16518 C 1726.52 0.207892 1.93084 0
M  V30 16519 O 1725.8 -0.783749 1.7801 0
M  V30 16520 C 1726.08 2.66519 2.42156 0
M  V30 16521 C 1725.93 4.0987 1.85274 0
M  V30 16522 C 1727.25 2.74418 3.44068 0
M  V30 16523 H 1724.37 0.562481 0.476219 0
M  V30 16524 H 1727.01 1.79591 0.620246 0
M  V30 16525 H 1725.16 2.45268 3.0129 0
M  V30 16526 H 1726.83 4.42492 1.3038 0
M  V30 16527 H 1725.08 4.18021 1.15934 0
M  V30 16528 H 1725.75 4.84017 2.65389 0
M  V30 16529 H 1728.22 2.93596 2.94857 0
M  V30 16530 H 1727.1 3.54557 4.19023 0
M  V30 16531 H 1727.36 1.81584 4.03088 0
M  V30 16532 N 1726.42 -0.801453 1.357 0
M  V30 16533 C 1727.37 -1.90299 1.2558 0
M  V30 16534 C 1728.35 -1.602 0.149922 0
M  V30 16535 O 1729.55 -1.72837 0.381622 0
M  V30 16536 C 1726.68 -3.2732 1.0352 0
M  V30 16537 C 1725.76 -3.63468 2.18522 0
M  V30 16538 N 1726.15 -3.71014 3.43777 0
M  V30 16539 C 1724.45 -3.93455 2.10022 0
M  V30 16540 C 1725.15 -4.03052 4.19433 0
M  V30 16541 N 1724.13 -4.17405 3.48244 0
M  V30 16542 H 1727.93 -1.94341 2.20474 0
M  V30 16543 H 1725.44 -0.996323 1.28247 0
M  V30 16544 H 1727.44 -4.06081 0.943586 0
M  V30 16545 H 1726.1 -3.24561 0.095163 0
M  V30 16546 H 1727.11 -3.53961 3.78064 0
M  V30 16547 H 1723.79 -3.98691 1.23903 0
M  V30 16548 H 1725.18 -4.15914 5.27698 0
M  V30 16549 N 1727.9 -1.19782 -1.02421 0
M  V30 16550 C 1729.14 -1.0145 -1.77446 0
M  V30 16551 C 1729.5 0.44637 -1.86739 0
M  V30 16552 O 1730.7 0.749639 -2.58135 0
M  V30 16553 C 1728.97 -1.67055 -3.15955 0
M  V30 16554 S 1730.53 -1.63725 -4.07111 0
M  V30 16555 H 1727.35 -0.363945 -0.610791 0
M  V30 16556 H 1729.95 -1.52209 -1.2269 0
M  V30 16557 H 1728.66 -2.72571 -3.06811 0
M  V30 16558 H 1728.19 -1.16396 -3.75787 0
M  V30 16559 H 1730.2 -0.664732 -4.91727 0
M  V30 16560 N 1729.38 1.21606 -1.00248 0
M  V30 16561 C 1730.63 1.89922 -0.679152 0
M  V30 16562 C 1730.94 1.78793 0.793246 0
M  V30 16563 O 1732.15 2.42113 1.22856 0
M  V30 16564 C 1730.6 3.40548 -1.16427 0
M  V30 16565 C 1730.21 3.60293 -2.66257 0
M  V30 16566 C 1731.95 4.14506 -0.915714 0
M  V30 16567 C 1729.86 5.04669 -3.08323 0
M  V30 16568 H 1728.79 0.711232 -0.250329 0
M  V30 16569 H 1731.44 1.37663 -1.21331 0
M  V30 16570 H 1729.82 3.92046 -0.558177 0
M  V30 16571 H 1731 3.19245 -3.32294 0
M  V30 16572 H 1729.31 2.99683 -2.891 0
M  V30 16573 H 1731.91 5.20932 -1.20558 0
M  V30 16574 H 1732.25 4.16037 0.148068 0
M  V30 16575 H 1732.79 3.69064 -1.48448 0
M  V30 16576 H 1729.52 5.08284 -4.13917 0
M  V30 16577 H 1729.04 5.46583 -2.46996 0
M  V30 16578 H 1730.72 5.7316 -3.00162 0
M  V30 16579 N 1730.86 0.776895 1.37121 0
M  V30 16580 C 1731.8 0.154521 2.32086 0
M  V30 16581 C 1732.8 -0.679155 1.5519 0
M  V30 16582 O 1734 -0.575641 1.70547 0
M  V30 16583 H 1730.38 0.0311849 0.751353 0
M  V30 16584 H 1732.35 0.971125 2.82156 0
M  V30 16585 C 1731.1 -0.706165 3.40454 0
M  V30 16586 H 1730.42 -0.0740341 3.99731 0
M  V30 16587 H 1731.86 -1.10853 4.09253 0
M  V30 16588 C 1730.32 -1.85901 2.80967 0
M  V30 16589 O 1730.85 -2.95482 2.72128 0
M  V30 16590 N 1729.06 -1.66122 2.38436 0
M  V30 16591 H 1728.6 -0.769915 2.45825 0
M  V30 16592 H 1728.56 -2.43422 1.9898 0
M  V30 16593 N 1732.33 -1.48497 0.527859 0
M  V30 16594 C 1733.56 -2.069 -0.00302594 0
M  V30 16595 C 1733.98 -1.38469 -1.28342 0
M  V30 16596 O 1733.33 -0.471524 -1.76303 0
M  V30 16597 C 1733.38 -3.60749 -0.232871 0
M  V30 16598 O 1733.11 -4.26609 0.996797 0
M  V30 16599 C 1734.61 -4.35941 -0.804376 0
M  V30 16600 H 1731.83 -0.67021 0.0325559 0
M  V30 16601 H 1734.37 -1.90916 0.732897 0
M  V30 16602 H 1732.53 -3.76346 -0.918837 0
M  V30 16603 H 1732.94 -5.18725 0.776217 0
M  V30 16604 H 1734.41 -5.4437 -0.914635 0
M  V30 16605 H 1734.89 -4.00225 -1.80876 0
M  V30 16606 H 1735.5 -4.25017 -0.155041 0
M  V30 16607 N 1733.81 -0.262893 -1.55392 0
M  V30 16608 C 1734.72 0.640223 -2.25695 0
M  V30 16609 C 1735.74 1.18019 -1.27857 0
M  V30 16610 O 1736.91 1.21308 -1.60768 0
M  V30 16611 C 1733.98 1.81336 -2.95497 0
M  V30 16612 C 1733.04 1.31128 -4.08784 0
M  V30 16613 C 1732.27 2.4285 -4.75247 0
M  V30 16614 O 1732.5 3.61939 -4.40859 0
M  V30 16615 O 1731.43 2.11699 -5.63442 0
M  V30 16616 H 1735.26 0.0710781 -3.03617 0
M  V30 16617 H 1732.84 -0.030765 -1.49368 0
M  V30 16618 H 1734.72 2.49764 -3.39406 0
M  V30 16619 H 1733.4 2.36982 -2.20502 0
M  V30 16620 H 1732.3 0.593816 -3.69357 0
M  V30 16621 H 1733.64 0.800711 -4.85643 0
M  V30 16622 N 1735.29 1.57597 0.0100073 0
M  V30 16623 C 1736.54 1.89754 0.695559 0
M  V30 16624 C 1736.86 0.862983 1.74865 0
M  V30 16625 O 1736.13 -0.100949 1.9564 0
M  V30 16626 H 1734.71 0.700331 0.259895 0
M  V30 16627 H 1737.37 1.94879 -0.0285521 0
M  V30 16628 H 1736.47 2.89213 1.17313 0
M  V30 16629 N 1736.77 -0.282606 1.55045 0
M  V30 16630 C 1737.99 -1.03825 1.79542 0
M  V30 16631 C 1738.42 -1.79503 0.562165 0
M  V30 16632 O 1737.78 -1.7461 -0.487946 0
M  V30 16633 C 1737.82 -1.98007 3.01373 0
M  V30 16634 O 1736.93 -3.06621 2.75785 0
M  V30 16635 H 1736.27 -0.297333 0.593708 0
M  V30 16636 H 1738.8 -0.314434 2.02169 0
M  V30 16637 H 1738.81 -2.40138 3.29845 0
M  V30 16638 H 1737.48 -1.42335 3.90786 0
M  V30 16639 H 1736.06 -2.68874 2.58382 0
M  V30 16640 N 1738.25 -1.47815 -0.546675 0
M  V30 16641 C 1739.48 -1.58384 -1.32658 0
M  V30 16642 C 1739.88 -0.236934 -1.87711 0
M  V30 16643 O 1739.23 0.781521 -1.66247 0
M  V30 16644 C 1739.29 -2.55766 -2.52634 0
M  V30 16645 C 1738.95 -4.01222 -2.18791 0
M  V30 16646 C 1739.95 -4.89399 -1.75455 0
M  V30 16647 C 1737.63 -4.46637 -2.29827 0
M  V30 16648 C 1739.63 -6.21014 -1.43598 0
M  V30 16649 C 1737.32 -5.78277 -1.97582 0
M  V30 16650 C 1738.31 -6.65288 -1.54536 0
M  V30 16651 O 1738 -7.9448 -1.22706 0
M  V30 16652 H 1737.73 -0.537236 -0.410309 0
M  V30 16653 H 1740.29 -1.94235 -0.667988 0
M  V30 16654 H 1738.52 -2.15003 -3.2142 0
M  V30 16655 H 1740.21 -2.56349 -3.14706 0
M  V30 16656 H 1740.97 -4.55556 -1.66414 0
M  V30 16657 H 1736.85 -3.79111 -2.62289 0
M  V30 16658 H 1740.4 -6.88885 -1.09926 0
M  V30 16659 H 1736.29 -6.1166 -2.06259 0
M  V30 16660 H 1737.06 -8.07081 -1.36246 0
M  V30 16661 N 1739.72 0.794246 -1.36123 0
M  V30 16662 C 1741.14 1.0916 -1.16431 0
M  V30 16663 C 1741.34 2.01495 0.0148797 0
M  V30 16664 O 1740.4 2.43123 0.681729 0
M  V30 16665 C 1741.71 1.71071 -2.47295 0
M  V30 16666 C 1743.26 1.83435 -2.53615 0
M  V30 16667 C 1743.73 2.48761 -3.84554 0
M  V30 16668 N 1745.22 2.56235 -3.85873 0
M  V30 16669 C 1745.96 3.07579 -4.83924 0
M  V30 16670 N 1745.45 3.59267 -5.92367 0
M  V30 16671 N 1747.25 3.06246 -4.71349 0
M  V30 16672 H 1739.4 0.180705 -2.1163 0
M  V30 16673 H 1741.66 0.142774 -0.937187 0
M  V30 16674 H 1741.37 1.10693 -3.33826 0
M  V30 16675 H 1741.24 2.70634 -2.62749 0
M  V30 16676 H 1743.63 2.42953 -1.67505 0
M  V30 16677 H 1743.71 0.82692 -2.42065 0
M  V30 16678 H 1743.35 1.8989 -4.71067 0
M  V30 16679 H 1743.28 3.50066 -3.93397 0
M  V30 16680 H 1745.77 2.19629 -3.07525 0
M  V30 16681 H 1746.09 3.96781 -6.63163 0
M  V30 16682 H 1744.43 3.57432 -5.96043 0
M  V30 16683 H 1747.62 2.65151 -3.85762 0
M  V30 16684 H 1747.8 3.45953 -5.47924 0
M  V30 16685 N 1741.2 1.20323 1.01785 0
M  V30 16686 C 1742.44 1.0239 1.76906 0
M  V30 16687 C 1742.81 -0.436461 1.86973 0
M  V30 16688 O 1744.01 -0.735939 2.58529 0
M  V30 16689 C 1742.28 1.68729 3.15064 0
M  V30 16690 S 1743.84 1.65881 4.06237 0
M  V30 16691 H 1740.65 0.367179 0.608852 0
M  V30 16692 H 1743.26 1.52857 1.21881 0
M  V30 16693 H 1741.96 2.74194 3.05362 0
M  V30 16694 H 1741.49 1.18387 3.75164 0
M  V30 16695 H 1743.51 0.6908 4.91368 0
M  V30 16696 N 1742.68 -1.21073 1.00892 0
M  V30 16697 C 1743.9 -1.94774 0.712588 0
M  V30 16698 C 1744.33 -1.73812 -0.719085 0
M  V30 16699 O 1743.69 -1.02747 -1.49374 0
M  V30 16700 C 1743.74 -3.45156 1.04402 0
M  V30 16701 O 1742.84 -4.12122 0.151433 0
M  V30 16702 H 1742.18 -0.608775 0.26512 0
M  V30 16703 H 1744.71 -1.53721 1.35022 0
M  V30 16704 H 1744.72 -3.95744 0.992511 0
M  V30 16705 H 1743.4 -3.59736 2.08716 0
M  V30 16706 H 1741.97 -3.71994 0.259805 0
M  V30 16707 N 1744.16 -0.784156 -1.36707 0
M  V30 16708 C 1745.4 -0.359468 -2.01214 0
M  V30 16709 C 1745.76 1.04773 -1.60893 0
M  V30 16710 O 1746.96 1.57321 -2.17953 0
M  V30 16711 C 1745.23 -0.512117 -3.53712 0
M  V30 16712 S 1746.79 -0.174528 -4.38453 0
M  V30 16713 H 1743.61 -0.137618 -0.697555 0
M  V30 16714 H 1746.21 -1.02149 -1.66691 0
M  V30 16715 H 1744.92 -1.53667 -3.80545 0
M  V30 16716 H 1744.45 0.166027 -3.9305 0
M  V30 16717 H 1746.46 1.02572 -4.85483 0
M  V30 16718 N 1745.64 1.48215 -0.535727 0
M  V30 16719 C 1746.88 2.021 -0.00372016 0
M  V30 16720 C 1747.21 1.41456 1.34221 0
M  V30 16721 O 1746.48 0.581987 1.87055 0
M  V30 16722 H 1745.06 0.746998 0.00161295 0
M  V30 16723 H 1747.72 1.81862 -0.700863 0
M  V30 16724 H 1746.81 3.11939 0.100352 0
M  V30 16725 N 1747.11 0.27113 1.5525 0
M  V30 16726 C 1748.05 -0.651235 2.19753 0
M  V30 16727 C 1749.06 -1.12051 1.18104 0
M  V30 16728 O 1750.25 -1.0431 1.44851 0
M  V30 16729 C 1747.35 -1.89985 2.8064 0
M  V30 16730 C 1746.52 -1.57805 4.07942 0
M  V30 16731 C 1745.58 -2.67872 4.52914 0
M  V30 16732 O 1744.61 -2.34228 5.18774 0
M  V30 16733 N 1745.81 -3.97854 4.22721 0
M  V30 16734 H 1748.57 -0.0991913 2.99536 0
M  V30 16735 H 1746.13 0.0920667 1.61638 0
M  V30 16736 H 1748.13 -2.62907 3.07672 0
M  V30 16737 H 1746.7 -2.36105 2.04874 0
M  V30 16738 H 1745.92 -0.682852 3.88241 0
M  V30 16739 H 1747.2 -1.33801 4.90892 0
M  V30 16740 H 1746.6 -4.28011 3.69897 0
M  V30 16741 H 1745.16 -4.67165 4.54533 0
M  V30 16742 N 1748.59 -1.576 -0.00164943 0
M  V30 16743 C 1749.84 -1.9012 -0.685486 0
M  V30 16744 C 1750.16 -0.872245 -1.74404 0
M  V30 16745 O 1749.43 0.090572 -1.95691 0
M  V30 16746 H 1748.01 -0.701699 -0.256177 0
M  V30 16747 H 1750.67 -1.94861 0.0388866 0
M  V30 16748 H 1749.77 -2.89831 -1.15778 0
M  V30 16749 N 1750.07 0.274379 -1.55193 0
M  V30 16750 C 1751.3 1.02295 -1.79497 0
M  V30 16751 C 1751.71 1.80479 -0.567805 0
M  V30 16752 O 1751.05 1.77517 0.472601 0
M  V30 16753 C 1751.11 2.02986 -2.9671 0
M  V30 16754 C 1750.78 1.43753 -4.33802 0
M  V30 16755 C 1751.77 0.853898 -5.1284 0
M  V30 16756 C 1749.46 1.46514 -4.80457 0
M  V30 16757 C 1751.45 0.305773 -6.36666 0
M  V30 16758 C 1749.14 0.913158 -6.04239 0
M  V30 16759 C 1750.14 0.33447 -6.82181 0
M  V30 16760 O 1749.83 -0.209069 -8.03628 0
M  V30 16761 H 1749.56 0.307952 -0.601782 0
M  V30 16762 H 1752.11 0.310987 -2.03032 0
M  V30 16763 H 1750.34 2.77937 -2.68864 0
M  V30 16764 H 1752.03 2.6396 -3.0835 0
M  V30 16765 H 1752.8 0.825268 -4.77927 0
M  V30 16766 H 1748.68 1.90496 -4.198 0
M  V30 16767 H 1752.22 -0.146553 -6.97446 0
M  V30 16768 H 1748.12 0.939023 -6.38633 0
M  V30 16769 H 1748.89 -0.0982973 -8.18441 0
M  V30 16770 N 1751.55 1.48103 0.538828 0
M  V30 16771 C 1752.77 1.59568 1.32487 0
M  V30 16772 C 1753.2 0.252908 1.86392 0
M  V30 16773 O 1752.56 -0.774094 1.63944 0
M  V30 16774 C 1752.6 2.63863 2.45782 0
M  V30 16775 O 1751.71 2.20409 3.48559 0
M  V30 16776 H 1751.05 0.53538 0.392765 0
M  V30 16777 H 1753.58 1.94024 0.649299 0
M  V30 16778 H 1753.59 2.8486 2.92093 0
M  V30 16779 H 1752.26 3.61352 2.05906 0
M  V30 16780 H 1750.84 2.09588 3.08427 0
M  V30 16781 N 1753.03 -0.787016 1.36542 0
M  V30 16782 C 1753.96 -1.91399 1.33749 0
M  V30 16783 C 1754.94 -1.68817 0.208559 0
M  V30 16784 O 1756.12 -1.89896 0.406574 0
M  V30 16785 C 1753.25 -3.28457 1.12842 0
M  V30 16786 C 1752.21 -3.65568 2.22585 0
M  V30 16787 C 1751.53 -5.01002 1.86818 0
M  V30 16788 C 1752.83 -3.73902 3.64684 0
M  V30 16789 H 1754.53 -1.93993 2.2805 0
M  V30 16790 H 1752.07 -0.931937 1.09777 0
M  V30 16791 H 1754.03 -4.06919 1.09522 0
M  V30 16792 H 1752.75 -3.26256 0.149918 0
M  V30 16793 H 1751.41 -2.89405 2.25035 0
M  V30 16794 H 1751.06 -4.95325 0.875361 0
M  V30 16795 H 1750.76 -5.26802 2.60294 0
M  V30 16796 H 1752.28 -5.81881 1.85058 0
M  V30 16797 H 1753.69 -4.4255 3.64448 0
M  V30 16798 H 1752.09 -4.11188 4.37086 0
M  V30 16799 H 1753.16 -2.74946 3.99416 0
M  V30 16800 N 1754.5 -1.20861 -1.01145 0
M  V30 16801 C 1755.44 -0.905387 -2.09471 0
M  V30 16802 C 1756.42 0.144563 -1.61956 0
M  V30 16803 O 1757.6 0.0170118 -1.88492 0
M  V30 16804 C 1754.73 -0.358266 -3.368 0
M  V30 16805 C 1753.77 -1.39001 -4.03213 0
M  V30 16806 S 1754.61 -2.95692 -4.4646 0
M  V30 16807 C 1755.76 -2.42569 -5.76984 0
M  V30 16808 H 1755.99 -1.82274 -2.34869 0
M  V30 16809 H 1753.53 -1.03765 -1.14334 0
M  V30 16810 H 1755.49 -0.0491564 -4.10471 0
M  V30 16811 H 1754.15 0.537669 -3.09464 0
M  V30 16812 H 1753.34 -0.956674 -4.94837 0
M  V30 16813 H 1752.94 -1.64686 -3.35789 0
M  V30 16814 H 1755.23 -1.82652 -6.52414 0
M  V30 16815 H 1756.18 -3.3261 -6.25121 0
M  V30 16816 H 1756.58 -1.8451 -5.33494 0
M  V30 16817 N 1755.98 1.20536 -1.01532 0
M  V30 16818 C 1757.39 1.71594 -0.735687 0
M  V30 16819 C 1757.74 1.81469 0.745873 0
M  V30 16820 O 1756.87 1.47638 1.58215 0
M  V30 16821 C 1757.46 3.11654 -1.3288 0
M  V30 16822 C 1756.02 3.60027 -1.09806 0
M  V30 16823 C 1755.17 2.37266 -1.43528 0
M  V30 16824 H 1758.12 1.05568 -1.18495 0
M  V30 16825 H 1758.14 3.7365 -0.718725 0
M  V30 16826 H 1757.65 3.04434 -2.4071 0
M  V30 16827 H 1755.76 3.72581 -0.0373763 0
M  V30 16828 H 1755.87 4.44918 -1.77722 0
M  V30 16829 H 1754.23 2.39947 -0.854268 0
M  V30 16830 H 1755.02 2.32688 -2.5241 0
M  V30 16831 N 1757.46 0.791395 1.36289 0
M  V30 16832 C 1758.74 0.288602 1.93459 0
M  V30 16833 C 1759.12 -1.21953 1.7231 0
M  V30 16834 O 1758.47 -2.01194 1.0832 0
M  V30 16835 C 1758.68 0.683392 3.42244 0
M  V30 16836 C 1760.02 0.664255 4.19372 0
M  V30 16837 O 1761.05 0.623988 3.50692 0
M  V30 16838 O 1759.91 0.708926 5.41882 0
M  V30 16839 H 1757 0.0719305 0.823866 0
M  V30 16840 H 1759.55 0.874071 1.45458 0
M  V30 16841 H 1758.32 1.72344 3.51302 0
M  V30 16842 H 1757.94 0.0719128 3.97535 0
M  V30 16843 N 1758.94 -1.47929 0.54358 0
M  V30 16844 C 1760.19 -2.02095 0.0144379 0
M  V30 16845 C 1760.51 -1.42166 -1.33469 0
M  V30 16846 O 1759.78 -0.591899 -1.86744 0
M  V30 16847 H 1758.36 -0.746996 0.00234858 0
M  V30 16848 H 1761.02 -1.81488 0.710498 0
M  V30 16849 H 1760.12 -3.11987 -0.0838074 0
M  V30 16850 N 1760.42 -0.27936 -1.55104 0
M  V30 16851 C 1761.83 0.074665 -1.59425 0
M  V30 16852 C 1762.03 1.54246 -1.29655 0
M  V30 16853 O 1761.09 2.29197 -1.05947 0
M  V30 16854 C 1762.4 -0.30379 -2.99162 0
M  V30 16855 C 1763.95 -0.250758 -3.11994 0
M  V30 16856 C 1764.43 -0.603715 -4.54004 0
M  V30 16857 N 1765.92 -0.555428 -4.59858 0
M  V30 16858 C 1766.65 -0.801278 -5.67774 0
M  V30 16859 N 1766.15 -1.11197 -6.83818 0
M  V30 16860 N 1767.94 -0.72979 -5.57342 0
M  V30 16861 H 1760.09 -1.23619 -1.7272 0
M  V30 16862 H 1762.35 -0.499704 -0.805606 0
M  V30 16863 H 1762.06 -1.32475 -3.25796 0
M  V30 16864 H 1761.93 0.353294 -3.75542 0
M  V30 16865 H 1764.32 0.760925 -2.85121 0
M  V30 16866 H 1764.4 -0.94216 -2.37817 0
M  V30 16867 H 1764.05 -1.6131 -4.81603 0
M  V30 16868 H 1763.98 0.109523 -5.26486 0
M  V30 16869 H 1766.47 -0.325348 -3.76497 0
M  V30 16870 H 1766.78 -1.28611 -7.62023 0
M  V30 16871 H 1765.13 -1.14978 -6.85423 0
M  V30 16872 H 1768.32 -0.48688 -4.65561 0
M  V30 16873 H 1768.49 -0.92477 -6.41367 0
M  V30 16874 N 1761.9 1.57599 -0.0067085 0
M  V30 16875 C 1762.86 2.07783 0.967417 0
M  V30 16876 C 1763.86 0.988498 1.26828 0
M  V30 16877 O 1765.05 1.25091 1.21235 0
M  V30 16878 C 1762.18 2.52491 2.29044 0
M  V30 16879 H 1763.37 2.95122 0.533201 0
M  V30 16880 H 1760.93 1.54432 0.2409 0
M  V30 16881 H 1761.66 1.68415 2.77141 0
M  V30 16882 H 1761.45 3.32054 2.08525 0
M  V30 16883 H 1762.94 2.9162 2.98911 0
M  V30 16884 N 1763.37 -0.266145 1.55336 0
M  V30 16885 C 1764.61 -1.0044 1.7802 0
M  V30 16886 C 1764.98 -1.83247 0.573099 0
M  V30 16887 O 1766.18 -2.601 0.67832 0
M  V30 16888 C 1764.45 -1.85798 3.05309 0
M  V30 16889 S 1766.01 -2.65796 3.49139 0
M  V30 16890 H 1762.83 -0.338177 0.625426 0
M  V30 16891 H 1765.43 -0.274137 1.93568 0
M  V30 16892 H 1764.13 -1.23901 3.9125 0
M  V30 16893 H 1763.66 -2.63133 2.92446 0
M  V30 16894 H 1765.68 -3.88281 3.08953 0
M  V30 16895 N 1764.85 -1.48386 -0.530967 0
M  V30 16896 C 1765.81 -1.62355 -1.61782 0
M  V30 16897 C 1766.81 -0.496909 -1.5293 0
M  V30 16898 O 1768 -0.762672 -1.56617 0
M  V30 16899 C 1765.14 -1.59282 -3.014 0
M  V30 16900 H 1766.33 -2.59265 -1.50737 0
M  V30 16901 H 1763.88 -1.36969 -0.752948 0
M  V30 16902 H 1764.62 -0.638453 -3.17953 0
M  V30 16903 H 1764.4 -2.41073 -3.09235 0
M  V30 16904 H 1765.89 -1.72248 -3.80421 0
M  V30 16905 N 1766.33 0.779763 -1.36958 0
M  V30 16906 C 1767.61 1.52679 -1.22264 0
M  V30 16907 C 1767.99 2.10269 0.187164 0
M  V30 16908 O 1767.33 1.94828 1.19391 0
M  V30 16909 C 1767.54 2.61406 -2.31231 0
M  V30 16910 C 1768.89 3.29027 -2.68377 0
M  V30 16911 O 1769.92 2.71696 -2.30347 0
M  V30 16912 O 1768.78 4.3266 -3.33868 0
M  V30 16913 H 1765.87 0.675843 -0.476619 0
M  V30 16914 H 1768.42 0.817416 -1.48716 0
M  V30 16915 H 1767.19 2.16915 -3.25674 0
M  V30 16916 H 1766.81 3.39953 -2.06199 0
M  V30 16917 N 1767.81 1.21396 1.00503 0
M  V30 16918 C 1769.05 1.0327 1.74537 0
M  V30 16919 C 1769.39 -0.432746 1.89317 0
M  V30 16920 O 1768.66 -1.32111 1.42747 0
M  V30 16921 C 1768.94 1.73045 3.15797 0
M  V30 16922 C 1768.8 3.27108 3.0874 0
M  V30 16923 C 1770.12 1.47298 4.14718 0
M  V30 16924 H 1767.24 0.376563 0.633537 0
M  V30 16925 H 1769.88 1.49571 1.17169 0
M  V30 16926 H 1768.03 1.33682 3.64776 0
M  V30 16927 H 1769.7 3.75839 2.67475 0
M  V30 16928 H 1767.94 3.57413 2.45843 0
M  V30 16929 H 1768.61 3.71096 4.08646 0
M  V30 16930 H 1771.09 1.81468 3.74444 0
M  V30 16931 H 1769.97 1.98633 5.11699 0
M  V30 16932 H 1770.23 0.402981 4.4026 0
M  V30 16933 N 1769.29 -1.19996 1.0217 0
M  V30 16934 C 1770.56 -1.85214 0.628894 0
M  V30 16935 C 1770.94 -1.91292 -0.892784 0
M  V30 16936 O 1770.29 -1.42455 -1.78658 0
M  V30 16937 C 1770.5 -3.24576 1.28262 0
M  V30 16938 C 1771.85 -4.0081 1.4013 0
M  V30 16939 O 1772.87 -3.33948 1.23923 0
M  V30 16940 O 1771.73 -5.20561 1.66368 0
M  V30 16941 H 1768.83 -0.797842 0.217664 0
M  V30 16942 H 1771.37 -1.27544 1.1194 0
M  V30 16943 H 1770.14 -3.14947 2.32216 0
M  V30 16944 H 1769.77 -3.89884 0.77952 0
M  V30 16945 N 1770.76 -0.798611 -1.35867 0
M  V30 16946 C 1771.67 -0.204758 -2.33705 0
M  V30 16947 C 1772.69 0.648001 -1.61484 0
M  V30 16948 O 1773.87 0.561628 -1.93411 0
M  V30 16949 C 1770.93 0.643225 -3.40681 0
M  V30 16950 C 1769.99 -0.229099 -4.28688 0
M  V30 16951 C 1769.22 0.578508 -5.30555 0
M  V30 16952 O 1769.45 1.81382 -5.40793 0
M  V30 16953 O 1768.38 -0.0264291 -6.01894 0
M  V30 16954 H 1772.21 -1.01392 -2.86275 0
M  V30 16955 H 1769.79 -0.560242 -1.38498 0
M  V30 16956 H 1771.67 1.12648 -4.06065 0
M  V30 16957 H 1770.35 1.43012 -2.90395 0
M  V30 16958 H 1769.26 -0.759314 -3.66313 0
M  V30 16959 H 1770.59 -0.979736 -4.82351 0
M  V30 16960 N 1772.24 1.47639 -0.551417 0
M  V30 16961 C 1773.48 2.04382 -0.0274854 0
M  V30 16962 C 1773.85 1.41714 1.29542 0
M  V30 16963 O 1775.05 1.8947 1.90669 0
M  V30 16964 C 1773.32 3.57332 0.0698769 0
M  V30 16965 S 1774.88 4.35455 0.540771 0
M  V30 16966 H 1771.69 0.710648 -0.0223553 0
M  V30 16967 H 1774.3 1.81083 -0.73684 0
M  V30 16968 H 1773 4.00468 -0.897406 0
M  V30 16969 H 1772.53 3.85118 0.802962 0
M  V30 16970 H 1774.55 4.62342 1.80152 0
M  V30 16971 N 1773.72 0.287581 1.54954 0
M  V30 16972 C 1774.63 -0.604236 2.26685 0
M  V30 16973 C 1775.65 -1.1597 1.29719 0
M  V30 16974 O 1776.82 -1.18735 1.62678 0
M  V30 16975 C 1773.89 -1.76612 2.98344 0
M  V30 16976 C 1772.95 -1.24608 4.10818 0
M  V30 16977 C 1772.18 -2.35258 4.7905 0
M  V30 16978 O 1772.4 -3.54879 4.46561 0
M  V30 16979 O 1771.34 -2.02709 5.66739 0
M  V30 16980 H 1775.16 -0.0227663 3.03691 0
M  V30 16981 H 1772.75 0.0545243 1.493 0
M  V30 16982 H 1774.63 -2.44332 3.43336 0
M  V30 16983 H 1773.31 -2.33444 2.24244 0
M  V30 16984 H 1772.21 -0.53498 3.70255 0
M  V30 16985 H 1773.55 -0.723348 4.86856 0
M  V30 16986 N 1775.2 -1.57593 0.0150662 0
M  V30 16987 C 1776.11 -2.12807 -0.987437 0
M  V30 16988 C 1777.12 -1.07691 -1.3667 0
M  V30 16989 O 1778.3 -1.39674 -1.45097 0
M  V30 16990 C 1775.37 -2.63276 -2.2558 0
M  V30 16991 C 1774.43 -3.83053 -1.93827 0
M  V30 16992 C 1773.66 -4.31106 -3.14616 0
M  V30 16993 O 1773.88 -3.78405 -4.26809 0
M  V30 16994 O 1772.82 -5.23104 -2.97734 0
M  V30 16995 H 1776.64 -2.98715 -0.548015 0
M  V30 16996 H 1774.23 -1.47991 -0.20469 0
M  V30 16997 H 1776.11 -2.95869 -3.00066 0
M  V30 16998 H 1774.78 -1.80459 -2.68731 0
M  V30 16999 H 1773.69 -3.55409 -1.1677 0
M  V30 17000 H 1775.02 -4.6699 -1.55502 0
M  V30 17001 N 1776.68 0.257904 -1.55475 0
M  V30 17002 C 1777.62 1.33893 -1.90198 0
M  V30 17003 C 1778.62 1.50381 -0.779868 0
M  V30 17004 O 1779.82 1.51986 -0.964376 0
M  V30 17005 H 1776.2 0.448115 -0.603901 0
M  V30 17006 H 1778.17 1.01868 -2.80474 0
M  V30 17007 C 1776.92 2.68954 -2.20361 0
M  V30 17008 H 1776.24 2.57064 -3.062 0
M  V30 17009 H 1777.68 3.43498 -2.48567 0
M  V30 17010 C 1776.14 3.21208 -1.01623 0
M  V30 17011 O 1776.67 4.00867 -0.258567 0
M  V30 17012 N 1774.88 2.79088 -0.809825 0
M  V30 17013 H 1774.42 2.1442 -1.42764 0
M  V30 17014 H 1774.38 3.14395 -0.0170171 0
M  V30 17015 N 1778.15 1.48666 0.52309 0
M  V30 17016 C 1779.57 1.50492 1.10495 0
M  V30 17017 C 1779.92 0.278579 1.94212 0
M  V30 17018 O 1779.04 -0.613679 2.07516 0
M  V30 17019 C 1779.64 2.72692 2.01058 0
M  V30 17020 C 1778.2 2.77368 2.54448 0
M  V30 17021 C 1777.34 2.44104 1.31562 0
M  V30 17022 H 1780.29 1.55682 0.308017 0
M  V30 17023 H 1780.31 2.51601 2.85442 0
M  V30 17024 H 1779.83 3.61931 1.401 0
M  V30 17025 H 1777.93 1.92356 3.19108 0
M  V30 17026 H 1778.04 3.78976 2.93111 0
M  V30 17027 H 1776.4 1.95407 1.63366 0
M  V30 17028 H 1777.19 3.35591 0.723455 0
M  V30 17029 N 1779.63 -0.772489 1.37369 0
M  V30 17030 C 1781.05 -1.07294 1.18153 0
M  V30 17031 C 1781.25 -2.01493 0.0171782 0
M  V30 17032 O 1780.3 -2.44177 -0.642964 0
M  V30 17033 C 1781.62 -1.67116 2.49986 0
M  V30 17034 C 1783.17 -1.79377 2.56501 0
M  V30 17035 C 1783.64 -2.42612 3.88463 0
M  V30 17036 N 1785.13 -2.50063 3.89901 0
M  V30 17037 C 1785.87 -2.99841 4.88756 0
M  V30 17038 N 1785.36 -3.49798 5.98008 0
M  V30 17039 N 1787.16 -2.98709 4.76161 0
M  V30 17040 H 1779.31 -0.147014 2.11891 0
M  V30 17041 H 1781.57 -0.127846 0.93934 0
M  V30 17042 H 1781.28 -1.05369 3.35545 0
M  V30 17043 H 1781.15 -2.6642 2.67021 0
M  V30 17044 H 1783.54 -2.40257 1.71349 0
M  V30 17045 H 1783.62 -0.788304 2.4335 0
M  V30 17046 H 1783.26 -1.82372 4.74029 0
M  V30 17047 H 1783.19 -3.43763 3.98917 0
M  V30 17048 H 1785.68 -2.14709 3.1098 0
M  V30 17049 H 1786 -3.86181 6.69391 0
M  V30 17050 H 1784.34 -3.47905 6.01654 0
M  V30 17051 H 1787.53 -2.5898 3.89932 0
M  V30 17052 H 1787.7 -3.37193 5.53358 0
M  V30 17053 N 1781.11 -1.21927 -0.998575 0
M  V30 17054 C 1782.36 -1.04194 -1.73987 0
M  V30 17055 C 1782.69 0.4227 -1.89544 0
M  V30 17056 O 1781.96 1.31353 -1.43446 0
M  V30 17057 C 1782.25 -1.74717 -3.14874 0
M  V30 17058 C 1782.1 -3.28741 -3.07001 0
M  V30 17059 C 1783.42 -1.49495 -4.13931 0
M  V30 17060 H 1780.54 -0.379918 -0.631531 0
M  V30 17061 H 1783.18 -1.5019 -1.16374 0
M  V30 17062 H 1781.33 -1.35615 -3.64062 0
M  V30 17063 H 1783 -3.77252 -2.65478 0
M  V30 17064 H 1781.25 -3.58711 -2.43944 0
M  V30 17065 H 1781.92 -3.73258 -4.06672 0
M  V30 17066 H 1784.39 -1.83451 -3.73477 0
M  V30 17067 H 1783.27 -2.01344 -5.10639 0
M  V30 17068 H 1783.53 -0.426324 -4.4004 0
M  V30 17069 N 1782.59 1.19452 -1.02805 0
M  V30 17070 C 1783.83 1.90815 -0.732731 0
M  V30 17071 C 1784.19 1.77774 0.725275 0
M  V30 17072 O 1785.39 2.43726 1.13363 0
M  V30 17073 C 1783.66 3.37692 -1.17042 0
M  V30 17074 S 1785.22 4.27281 -0.998818 0
M  V30 17075 H 1782.04 0.65905 -0.266784 0
M  V30 17076 H 1784.64 1.44418 -1.31771 0
M  V30 17077 H 1783.35 3.44708 -2.2272 0
M  V30 17078 H 1782.88 3.8912 -0.5787 0
M  V30 17079 H 1784.89 4.96116 0.0911076 0
M  V30 17080 N 1784.07 0.805805 1.35442 0
M  V30 17081 C 1785.34 0.309105 1.93142 0
M  V30 17082 C 1785.72 -1.20119 1.73593 0
M  V30 17083 O 1785.07 -2.00034 1.10448 0
M  V30 17084 C 1785.28 0.719653 3.415 0
M  V30 17085 C 1786.63 0.708697 4.18644 0
M  V30 17086 O 1787.65 0.661148 3.5001 0
M  V30 17087 O 1786.51 0.76636 5.411 0
M  V30 17088 H 1783.61 0.0806647 0.823057 0
M  V30 17089 H 1786.15 0.88945 1.44523 0
M  V30 17090 H 1784.92 1.7606 3.49455 0
M  V30 17091 H 1784.55 0.114073 3.97436 0
M  V30 17092 N 1785.54 -1.47344 0.559239 0
M  V30 17093 C 1786.48 -2.28095 -0.224826 0
M  V30 17094 C 1787.49 -1.37127 -0.877492 0
M  V30 17095 O 1788.68 -1.61933 -0.751002 0
M  V30 17096 C 1785.78 -3.1145 -1.33611 0
M  V30 17097 C 1784.95 -4.30392 -0.779845 0
M  V30 17098 C 1784.01 -4.95327 -1.77587 0
M  V30 17099 O 1783.04 -5.53654 -1.32119 0
M  V30 17100 N 1784.24 -4.90206 -3.10931 0
M  V30 17101 H 1787 -2.96026 0.46786 0
M  V30 17102 H 1784.56 -1.56996 0.395448 0
M  V30 17103 H 1786.56 -3.51758 -2.00121 0
M  V30 17104 H 1785.13 -2.45749 -1.932 0
M  V30 17105 H 1784.35 -3.94151 0.0620861 0
M  V30 17106 H 1785.63 -5.07322 -0.387581 0
M  V30 17107 H 1785.03 -4.44022 -3.50515 0
M  V30 17108 H 1783.59 -5.34527 -3.72994 0
M  V30 17109 N 1787.02 -0.295795 -1.54799 0
M  V30 17110 C 1788.27 0.314384 -1.9964 0
M  V30 17111 C 1788.59 1.5481 -1.1857 0
M  V30 17112 O 1787.86 1.93884 -0.280353 0
M  V30 17113 H 1786.44 0.119153 -0.737436 0
M  V30 17114 H 1789.1 -0.40592 -1.90626 0
M  V30 17115 H 1788.2 0.59002 -3.06472 0
M  V30 17116 N 1788.5 1.57583 -0.0234236 0
M  V30 17117 C 1789.45 2.06367 0.969361 0
M  V30 17118 C 1790.44 0.963028 1.28898 0
M  V30 17119 O 1791.63 1.22663 1.27604 0
M  V30 17120 C 1788.76 2.58967 2.25368 0
M  V30 17121 C 1787.84 3.75952 1.96268 0
M  V30 17122 N 1788.23 4.86776 1.37415 0
M  V30 17123 C 1786.53 3.84329 2.2629 0
M  V30 17124 C 1787.23 5.68041 1.25318 0
M  V30 17125 N 1786.21 5.14771 1.74677 0
M  V30 17126 H 1790.01 2.89455 0.509205 0
M  V30 17127 H 1787.52 1.6138 0.181729 0
M  V30 17128 H 1789.52 2.92206 2.97358 0
M  V30 17129 H 1788.18 1.77307 2.72015 0
M  V30 17130 H 1789.19 5.07147 1.0499 0
M  V30 17131 H 1785.87 3.13566 2.7565 0
M  V30 17132 H 1787.26 6.67137 0.798588 0
M  V30 17133 N 1789.98 -0.249655 1.5561 0
M  V30 17134 C 1791.22 -0.985467 1.79075 0
M  V30 17135 C 1791.58 -1.82629 0.592503 0
M  V30 17136 O 1792.78 -2.59366 0.705869 0
M  V30 17137 C 1791.06 -1.82549 3.07263 0
M  V30 17138 S 1792.61 -2.62078 3.51939 0
M  V30 17139 H 1789.43 -0.331525 0.628977 0
M  V30 17140 H 1792.03 -0.253591 1.93848 0
M  V30 17141 H 1790.74 -1.19744 3.92542 0
M  V30 17142 H 1790.27 -2.60017 2.9522 0
M  V30 17143 H 1792.28 -3.84983 3.13054 0
M  V30 17144 N 1791.46 -1.48941 -0.515198 0
M  V30 17145 C 1792.69 -1.61396 -1.29457 0
M  V30 17146 C 1793.1 -0.279847 -1.86714 0
M  V30 17147 O 1792.46 0.732861 -1.67139 0
M  V30 17148 C 1792.51 -2.67194 -2.43494 0
M  V30 17149 O 1792.23 -3.95429 -1.88593 0
M  V30 17150 C 1793.73 -2.90224 -3.35089 0
M  V30 17151 H 1790.95 -0.543754 -0.393157 0
M  V30 17152 H 1793.49 -1.94875 -0.619996 0
M  V30 17153 H 1791.65 -2.36532 -3.06808 0
M  V30 17154 H 1792.06 -4.53593 -2.63351 0
M  V30 17155 H 1793.54 -3.68018 -4.1142 0
M  V30 17156 H 1794.01 -1.99601 -3.91224 0
M  V30 17157 H 1794.62 -3.22247 -2.77555 0
M  V30 17158 N 1792.94 0.765193 -1.37777 0
M  V30 17159 C 1793.88 1.90005 -1.34168 0
M  V30 17160 C 1794.88 1.6784 -0.229387 0
M  V30 17161 O 1796.08 1.7555 -0.39778 0
M  V30 17162 H 1792.46 0.624939 -0.418276 0
M  V30 17163 H 1794.43 1.90165 -2.29956 0
M  V30 17164 C 1793.18 3.27349 -1.17208 0
M  V30 17165 H 1792.5 3.44985 -2.02053 0
M  V30 17166 H 1793.94 4.07036 -1.18734 0
M  V30 17167 C 1792.4 3.3668 0.121835 0
M  V30 17168 O 1792.93 3.86258 1.10306 0
M  V30 17169 N 1791.14 2.90074 0.174753 0
M  V30 17170 H 1790.68 2.49918 -0.624397 0
M  V30 17171 H 1790.64 2.96697 1.0401 0
M  V30 17172 N 1794.41 1.22455 0.992094 0
M  V30 17173 C 1795.35 0.938597 2.08004 0
M  V30 17174 C 1796.32 -0.118779 1.62166 0
M  V30 17175 O 1797.51 0.0129778 1.88496 0
M  V30 17176 C 1794.64 0.411803 3.36187 0
M  V30 17177 C 1793.68 1.45398 4.00951 0
M  V30 17178 S 1794.51 3.02757 4.417 0
M  V30 17179 C 1795.67 2.51718 5.73052 0
M  V30 17180 H 1795.9 1.85987 2.3194 0
M  V30 17181 H 1793.44 1.0557 1.12669 0
M  V30 17182 H 1795.39 0.114452 4.1034 0
M  V30 17183 H 1794.06 -0.488368 3.1028 0
M  V30 17184 H 1793.25 1.03528 4.93252 0
M  V30 17185 H 1792.85 1.70008 3.33127 0
M  V30 17186 H 1795.14 1.93009 6.49426 0
M  V30 17187 H 1796.09 3.42513 6.1975 0
M  V30 17188 H 1796.49 1.92974 5.30491 0
M  V30 17189 N 1795.89 -1.18905 1.03437 0
M  V30 17190 C 1797.3 -1.70402 0.762893 0
M  V30 17191 C 1797.65 -1.82633 -0.716908 0
M  V30 17192 O 1796.78 -1.50136 -1.55847 0
M  V30 17193 C 1797.37 -3.09501 1.37822 0
M  V30 17194 C 1795.93 -3.58235 1.1552 0
M  V30 17195 C 1795.08 -2.34953 1.47284 0
M  V30 17196 H 1798.03 -1.03669 1.2016 0
M  V30 17197 H 1798.05 -3.7246 0.778079 0
M  V30 17198 H 1797.56 -3.00566 2.45523 0
M  V30 17199 H 1795.66 -3.72475 0.096646 0
M  V30 17200 H 1795.78 -4.42034 1.84778 0
M  V30 17201 H 1794.14 -2.38557 0.892333 0
M  V30 17202 H 1794.92 -2.28643 2.5608 0
M  V30 17203 N 1797.37 -0.812977 -1.35013 0
M  V30 17204 C 1798.62 -0.395562 -1.98191 0
M  V30 17205 C 1798.94 1.04242 -1.64799 0
M  V30 17206 O 1798.21 1.72219 -0.933678 0
M  V30 17207 H 1796.79 -0.143276 -0.733131 0
M  V30 17208 H 1799.45 -1.04023 -1.64819 0
M  V30 17209 H 1798.55 -0.506466 -3.07963 0
M  V30 17210 N 1798.85 1.47045 -0.567045 0
M  V30 17211 C 1800.1 2.02046 -0.0465877 0
M  V30 17212 C 1800.42 1.44271 1.3119 0
M  V30 17213 O 1799.69 0.621533 1.85779 0
M  V30 17214 H 1798.27 0.746864 -0.0142323 0
M  V30 17215 H 1800.93 1.80335 -0.739281 0
M  V30 17216 H 1800.02 3.12081 0.0341623 0
M  V30 17217 N 1800.33 0.304 1.5464 0
M  V30 17218 C 1801.28 -0.585901 2.20343 0
M  V30 17219 C 1802.26 -1.09663 1.17741 0
M  V30 17220 O 1803.45 -1.0369 1.43448 0
M  V30 17221 C 1800.58 -1.75586 2.94999 0
M  V30 17222 C 1799.67 -1.26096 4.04921 0
M  V30 17223 N 1800.06 -0.484268 5.03476 0
M  V30 17224 C 1798.36 -1.54143 4.18517 0
M  V30 17225 C 1799.06 -0.220353 5.81282 0
M  V30 17226 N 1798.03 -0.801002 5.37666 0
M  V30 17227 H 1801.83 0.0150187 2.93896 0
M  V30 17228 H 1799.35 0.108905 1.62034 0
M  V30 17229 H 1801.35 -2.40496 3.40539 0
M  V30 17230 H 1800.01 -2.36045 2.22964 0
M  V30 17231 H 1801.02 -0.128891 5.1774 0
M  V30 17232 H 1797.69 -2.15328 3.57687 0
M  V30 17233 H 1799.08 0.403637 6.70687 0
M  V30 17234 N 1801.8 -1.57568 0.0317802 0
M  V30 17235 C 1803.22 -1.56264 -0.324633 0
M  V30 17236 C 1803.42 -1.03765 -1.72728 0
M  V30 17237 O 1802.48 -0.685566 -2.43015 0
M  V30 17238 C 1803.79 -3.00214 -0.170806 0
M  V30 17239 C 1805.34 -3.12052 -0.243373 0
M  V30 17240 C 1805.81 -4.57847 -0.118304 0
M  V30 17241 N 1807.3 -4.62869 -0.175203 0
M  V30 17242 C 1808.04 -5.73309 -0.102252 0
M  V30 17243 N 1807.53 -6.92797 0.0219373 0
M  V30 17244 N 1809.33 -5.61882 -0.156432 0
M  V30 17245 H 1801.48 -1.90022 0.948968 0
M  V30 17246 H 1803.74 -0.874208 0.366693 0
M  V30 17247 H 1803.45 -3.42585 0.795517 0
M  V30 17248 H 1803.32 -3.65302 -0.939907 0
M  V30 17249 H 1805.71 -2.69593 -1.20016 0
M  V30 17250 H 1805.79 -2.49681 0.55615 0
M  V30 17251 H 1805.43 -5.00988 0.835072 0
M  V30 17252 H 1805.36 -5.18202 -0.936726 0
M  V30 17253 H 1807.85 -3.76925 -0.271225 0
M  V30 17254 H 1808.17 -7.72768 0.0708376 0
M  V30 17255 H 1806.51 -6.94977 0.0567564 0
M  V30 17256 H 1809.7 -4.67422 -0.251873 0
M  V30 17257 H 1809.88 -6.47929 -0.0961177 0
M  V30 17258 N 1803.28 0.241399 -1.5574 0
M  V30 17259 C 1804.52 0.975956 -1.79595 0
M  V30 17260 C 1804.89 1.82312 -0.60218 0
M  V30 17261 O 1806.09 2.58988 -0.719614 0
M  V30 17262 C 1804.36 1.80917 -3.08227 0
M  V30 17263 S 1805.92 2.60208 -3.53323 0
M  V30 17264 H 1802.74 0.328184 -0.630727 0
M  V30 17265 H 1805.34 0.243307 -1.9398 0
M  V30 17266 H 1804.04 1.1766 -3.93172 0
M  V30 17267 H 1803.57 2.58447 -2.96595 0
M  V30 17268 H 1805.59 3.83317 -3.15091 0
M  V30 17269 N 1804.76 1.49212 0.507292 0
M  V30 17270 C 1805.69 1.68326 1.61829 0
M  V30 17271 C 1806.67 0.531969 1.61568 0
M  V30 17272 O 1807.86 0.767104 1.78407 0
M  V30 17273 C 1804.99 1.74394 3.0034 0
M  V30 17274 C 1803.94 2.89251 3.15465 0
M  V30 17275 C 1803.27 2.80426 4.55264 0
M  V30 17276 C 1804.57 4.30269 2.96085 0
M  V30 17277 H 1806.26 2.6134 1.46087 0
M  V30 17278 H 1803.81 1.25765 0.701367 0
M  V30 17279 H 1805.76 1.86353 3.77956 0
M  V30 17280 H 1804.48 0.779748 3.17155 0
M  V30 17281 H 1803.14 2.76884 2.40272 0
M  V30 17282 H 1802.79 1.81928 4.68947 0
M  V30 17283 H 1802.49 3.57511 4.66326 0
M  V30 17284 H 1804.01 2.94384 5.34949 0
M  V30 17285 H 1805.43 4.4335 3.63475 0
M  V30 17286 H 1803.83 5.08527 3.18623 0
M  V30 17287 H 1804.9 4.45151 1.92272 0
M  V30 17288 N 1806.24 -0.757876 1.38181 0
M  V30 17289 C 1807.48 -1.52975 1.35565 0
M  V30 17290 C 1807.84 -1.9192 -0.0554193 0
M  V30 17291 O 1809.04 -2.68006 -0.206418 0
M  V30 17292 C 1807.31 -2.75158 2.28085 0
M  V30 17293 S 1808.87 -3.65072 2.4345 0
M  V30 17294 H 1805.69 -0.523547 0.481061 0
M  V30 17295 H 1808.29 -0.890034 1.74065 0
M  V30 17296 H 1807 -2.44649 3.29507 0
M  V30 17297 H 1806.53 -3.44078 1.90719 0
M  V30 17298 H 1808.54 -4.67773 1.65538 0
M  V30 17299 N 1807.72 -1.22979 -0.985586 0
M  V30 17300 C 1808.95 -1.08372 -1.75895 0
M  V30 17301 C 1809.35 0.368113 -1.85584 0
M  V30 17302 O 1808.7 1.26663 -1.3305 0
M  V30 17303 C 1808.76 -1.62873 -3.20488 0
M  V30 17304 C 1808.42 -3.11572 -3.34323 0
M  V30 17305 C 1809.42 -4.08923 -3.21058 0
M  V30 17306 C 1807.11 -3.51176 -3.59139 0
M  V30 17307 C 1809.1 -5.43862 -3.32404 0
M  V30 17308 C 1806.79 -4.86262 -3.70125 0
M  V30 17309 C 1807.78 -5.82414 -3.56767 0
M  V30 17310 O 1807.47 -7.15046 -3.67374 0
M  V30 17311 H 1807.2 -0.380128 -0.558998 0
M  V30 17312 H 1809.76 -1.63191 -1.24731 0
M  V30 17313 H 1807.99 -1.0247 -3.72876 0
M  V30 17314 H 1809.68 -1.43819 -3.79567 0
M  V30 17315 H 1810.44 -3.79669 -3.01789 0
M  V30 17316 H 1806.32 -2.76853 -3.6861 0
M  V30 17317 H 1809.87 -6.18894 -3.21895 0
M  V30 17318 H 1805.76 -5.15194 -3.88903 0
M  V30 17319 H 1806.53 -7.22725 -3.84202 0
M  V30 17320 N 1809.19 1.18355 -1.04066 0
M  V30 17321 C 1810.47 1.8419 -0.65828 0
M  V30 17322 C 1810.85 1.92688 0.862238 0
M  V30 17323 O 1810.2 1.4528 1.76369 0
M  V30 17324 C 1810.41 3.22495 -1.3341 0
M  V30 17325 C 1811.76 3.9853 -1.46489 0
M  V30 17326 O 1812.78 3.31934 -1.29221 0
M  V30 17327 O 1811.64 5.17848 -1.74629 0
M  V30 17328 H 1808.73 0.794278 -0.230329 0
M  V30 17329 H 1811.28 1.25747 -1.13955 0
M  V30 17330 H 1810.05 3.11213 -2.37197 0
M  V30 17331 H 1809.68 3.88594 -0.841449 0
M  V30 17332 N 1810.67 0.820125 1.3458 0
M  V30 17333 C 1811.92 0.406067 1.97979 0
M  V30 17334 C 1812.24 -1.03366 1.65349 0
M  V30 17335 O 1811.51 -1.71721 0.942798 0
M  V30 17336 H 1810.09 0.147162 0.732361 0
M  V30 17337 H 1812.75 1.04895 1.64265 0
M  V30 17338 H 1811.85 0.52279 3.0769 0
M  V30 17339 N 1812.15 -1.46743 0.574835 0
M  V30 17340 C 1813.4 -2.02419 0.0574154 0
M  V30 17341 C 1813.73 -1.44723 -1.29944 0
M  V30 17342 O 1812.98 -0.599149 -1.86303 0
M  V30 17343 C 1813.28 -3.57338 -0.0666259 0
M  V30 17344 C 1812.95 -4.34036 1.22161 0
M  V30 17345 C 1811.61 -4.5471 1.57457 0
M  V30 17346 C 1813.96 -4.78137 2.07448 0
M  V30 17347 C 1811.29 -5.16735 2.77852 0
M  V30 17348 C 1813.64 -5.41492 3.27062 0
M  V30 17349 C 1812.3 -5.60394 3.6265 0
M  V30 17350 H 1811.57 -0.740702 0.0210098 0
M  V30 17351 H 1814.22 -1.76207 0.749892 0
M  V30 17352 H 1812.53 -3.82642 -0.842183 0
M  V30 17353 H 1814.22 -3.98085 -0.482605 0
M  V30 17354 H 1810.81 -4.18236 0.936826 0
M  V30 17355 H 1815 -4.61928 1.81484 0
M  V30 17356 H 1810.25 -5.29562 3.05572 0
M  V30 17357 H 1814.43 -5.74623 3.93422 0
M  V30 17358 H 1812.05 -6.08226 4.56032 0
M  V30 17359 N 1813.63 -0.312197 -1.54477 0
M  V30 17360 C 1814.56 0.60117 -2.20139 0
M  V30 17361 C 1815.54 1.12441 -1.17456 0
M  V30 17362 O 1816.72 1.19052 -1.46146 0
M  V30 17363 C 1813.85 1.8237 -2.8541 0
M  V30 17364 C 1812.9 1.43272 -4.01716 0
M  V30 17365 S 1813.73 0.479095 -5.33353 0
M  V30 17366 C 1814.89 1.70917 -6.02112 0
M  V30 17367 H 1815.12 0.0433644 -2.97268 0
M  V30 17368 H 1812.65 -0.0963038 -1.54099 0
M  V30 17369 H 1814.61 2.52522 -3.2364 0
M  V30 17370 H 1813.27 2.35268 -2.08105 0
M  V30 17371 H 1812.46 2.34339 -4.46208 0
M  V30 17372 H 1812.07 0.811019 -3.65101 0
M  V30 17373 H 1814.36 2.64821 -6.23599 0
M  V30 17374 H 1815.3 1.30661 -6.95941 0
M  V30 17375 H 1815.71 1.89098 -5.31886 0
M  V30 17376 N 1815.11 1.57549 -0.040136 0
M  V30 17377 C 1816.07 2.09788 0.923126 0
M  V30 17378 C 1817.07 1.01518 1.24703 0
M  V30 17379 O 1818.26 1.27635 1.18554 0
M  V30 17380 C 1815.39 2.57293 2.23636 0
M  V30 17381 H 1816.58 2.96187 0.470482 0
M  V30 17382 H 1814.14 1.54909 0.208088 0
M  V30 17383 H 1814.87 1.74256 2.73506 0
M  V30 17384 H 1814.66 3.36402 2.01435 0
M  V30 17385 H 1816.15 2.97895 2.92658 0
M  V30 17386 N 1816.58 -0.233136 1.55866 0
M  V30 17387 C 1817.81 -0.976415 1.82411 0
M  V30 17388 C 1818.23 -1.78409 0.617724 0
M  V30 17389 O 1817.58 -1.77749 -0.413709 0
M  V30 17390 C 1817.64 -1.90328 3.07339 0
M  V30 17391 O 1817.36 -1.12828 4.23322 0
M  V30 17392 C 1818.86 -2.76142 3.46786 0
M  V30 17393 H 1816.08 -0.2867 0.606666 0
M  V30 17394 H 1818.62 -0.251863 2.02943 0
M  V30 17395 H 1816.78 -2.58193 2.88816 0
M  V30 17396 H 1817.19 -1.75643 4.94216 0
M  V30 17397 H 1818.66 -3.36901 4.37266 0
M  V30 17398 H 1819.14 -3.47953 2.68003 0
M  V30 17399 H 1819.75 -2.13708 3.67708 0
M  V30 17400 N 1818.06 -1.49479 -0.499372 0
M  V30 17401 C 1819.47 -1.52231 -1.08087 0
M  V30 17402 C 1819.83 -0.309442 -1.93744 0
M  V30 17403 O 1818.95 0.580587 -2.08466 0
M  V30 17404 C 1819.55 -2.75857 -1.96694 0
M  V30 17405 C 1818.1 -2.81381 -2.50003 0
M  V30 17406 C 1817.25 -2.46166 -1.27662 0
M  V30 17407 H 1820.2 -1.56153 -0.283211 0
M  V30 17408 H 1820.22 -2.56111 -2.81403 0
M  V30 17409 H 1819.74 -3.64114 -1.34324 0
M  V30 17410 H 1817.84 -1.97408 -3.16008 0
M  V30 17411 H 1817.95 -3.83591 -2.87045 0
M  V30 17412 H 1816.31 -1.97981 -1.60236 0
M  V30 17413 H 1817.1 -3.36699 -0.669974 0
M  V30 17414 N 1819.54 0.750537 -1.38581 0
M  V30 17415 C 1820.82 1.50051 -1.25475 0
M  V30 17416 C 1821.2 2.10618 0.142521 0
M  V30 17417 O 1820.55 1.97317 1.15231 0
M  V30 17418 C 1820.76 2.56443 -2.36724 0
M  V30 17419 C 1822.1 3.23261 -2.75296 0
M  V30 17420 O 1823.13 2.66749 -2.36058 0
M  V30 17421 O 1821.99 4.25481 -3.4297 0
M  V30 17422 H 1819.08 0.665581 -0.490847 0
M  V30 17423 H 1821.63 0.785688 -1.50416 0
M  V30 17424 H 1820.4 2.09958 -3.30202 0
M  V30 17425 H 1820.02 3.35503 -2.13363 0
M  V30 17426 N 1821.02 1.235 0.979051 0
M  V30 17427 C 1821.95 0.960606 2.06997 0
M  V30 17428 C 1822.93 -0.101573 1.62282 0
M  V30 17429 O 1824.11 0.0329696 1.88471 0
M  V30 17430 C 1821.24 0.447437 3.35732 0
M  V30 17431 C 1820.29 1.49643 3.99386 0
M  V30 17432 S 1821.12 3.07425 4.38464 0
M  V30 17433 C 1822.28 2.57782 5.7035 0
M  V30 17434 H 1822.51 1.88437 2.29954 0
M  V30 17435 H 1820.04 1.0676 1.11543 0
M  V30 17436 H 1822 0.157968 4.10196 0
M  V30 17437 H 1820.66 -0.455431 3.10781 0
M  V30 17438 H 1819.85 1.08754 4.92127 0
M  V30 17439 H 1819.46 1.73531 3.31305 0
M  V30 17440 H 1821.75 1.99886 6.47342 0
M  V30 17441 H 1822.69 3.49067 6.16083 0
M  V30 17442 H 1823.1 1.9859 5.28415 0
M  V30 17443 N 1822.5 -1.17802 1.04693 0
M  V30 17444 C 1823.91 -1.39944 0.76733 0
M  V30 17445 C 1824.11 -1.91051 -0.640451 0
M  V30 17446 O 1823.17 -2.09889 -1.40366 0
M  V30 17447 C 1824.48 -2.39465 1.81871 0
M  V30 17448 C 1826.03 -2.5318 1.84035 0
M  V30 17449 C 1826.51 -3.55971 2.88182 0
M  V30 17450 N 1828 -3.63484 2.87113 0
M  V30 17451 C 1828.73 -4.42762 3.64348 0
M  V30 17452 N 1828.23 -5.25597 4.51353 0
M  V30 17453 N 1830.02 -4.37586 3.52809 0
M  V30 17454 H 1822.17 -0.829567 1.9553 0
M  V30 17455 H 1824.43 -0.427009 0.846385 0
M  V30 17456 H 1824.14 -2.08974 2.82883 0
M  V30 17457 H 1824.01 -3.38899 1.65612 0
M  V30 17458 H 1826.4 -2.82984 0.836908 0
M  V30 17459 H 1826.48 -1.53837 2.04371 0
M  V30 17460 H 1826.13 -3.26906 3.88709 0
M  V30 17461 H 1826.06 -4.55006 2.65099 0
M  V30 17462 H 1828.55 -3.04338 2.24024 0
M  V30 17463 H 1828.86 -5.83258 5.06981 0
M  V30 17464 H 1827.21 -5.24996 4.55417 0
M  V30 17465 H 1830.4 -3.71924 2.84236 0
M  V30 17466 H 1830.57 -4.99128 4.13249 0
M  V30 17467 N 1823.98 -0.827251 -1.34143 0
M  V30 17468 C 1825.2 -0.430502 -2.02372 0
M  V30 17469 C 1825.62 0.964846 -1.62284 0
M  V30 17470 O 1824.98 1.62512 -0.830421 0
M  V30 17471 C 1825.03 -0.528077 -3.57622 0
M  V30 17472 O 1824.75 -1.86843 -3.96259 0
M  V30 17473 C 1826.25 -0.126784 -4.43119 0
M  V30 17474 H 1823.47 -0.172244 -0.648516 0
M  V30 17475 H 1826.01 -1.11661 -1.71325 0
M  V30 17476 H 1824.17 0.109991 -3.87244 0
M  V30 17477 H 1824.58 -1.84573 -4.90951 0
M  V30 17478 H 1826.06 -0.246133 -5.51451 0
M  V30 17479 H 1826.53 0.930138 -4.29238 0
M  V30 17480 H 1827.14 -0.738824 -4.18833 0
M  V30 17481 N 1825.45 1.46436 -0.582609 0
M  V30 17482 C 1826.69 2.04277 -0.0708316 0
M  V30 17483 C 1827.06 1.4443 1.26507 0
M  V30 17484 O 1828.26 1.93472 1.86607 0
M  V30 17485 C 1826.53 3.574 -0.00593413 0
M  V30 17486 S 1828.09 4.36504 0.448283 0
M  V30 17487 H 1824.91 0.710014 -0.0374242 0
M  V30 17488 H 1827.51 1.79479 -0.775084 0
M  V30 17489 H 1826.21 3.98475 -0.982149 0
M  V30 17490 H 1825.74 3.86735 0.721092 0
M  V30 17491 H 1827.76 4.66059 1.70304 0
M  V30 17492 N 1826.93 0.320385 1.54309 0
M  V30 17493 C 1828.18 -0.283562 2.00808 0
M  V30 17494 C 1828.51 -1.52036 1.20826 0
M  V30 17495 O 1827.79 -1.9233 0.289721 0
M  V30 17496 C 1828.07 -0.620875 3.54707 0
M  V30 17497 C 1827.92 0.626403 4.45417 0
M  V30 17498 C 1829.24 -1.43978 4.15883 0
M  V30 17499 H 1826.36 -0.10159 0.729965 0
M  V30 17500 H 1829 0.436332 1.84922 0
M  V30 17501 H 1827.15 -1.23419 3.68375 0
M  V30 17502 H 1828.82 1.2647 4.43625 0
M  V30 17503 H 1827.07 1.2559 4.15222 0
M  V30 17504 H 1827.74 0.345969 5.50915 0
M  V30 17505 H 1830.21 -0.921381 4.05771 0
M  V30 17506 H 1829.09 -1.64456 5.23685 0
M  V30 17507 H 1829.35 -2.43494 3.69003 0
M  V30 17508 N 1828.41 -1.57525 0.0484906 0
M  V30 17509 C 1829.69 -1.83927 -0.66561 0
M  V30 17510 C 1830.07 -0.93636 -1.89197 0
M  V30 17511 O 1829.41 0.00326905 -2.285 0
M  V30 17512 C 1829.62 -3.33595 -1.02545 0
M  V30 17513 C 1830.97 -4.00544 -1.40889 0
M  V30 17514 O 1832 -3.38204 -1.11787 0
M  V30 17515 O 1830.86 -5.10454 -1.95189 0
M  V30 17516 H 1827.95 -0.759042 -0.328305 0
M  V30 17517 H 1830.5 -1.69522 0.0776497 0
M  V30 17518 H 1829.27 -3.90999 -0.153456 0
M  V30 17519 H 1828.89 -3.53177 -1.82625 0
M  V30 17520 N 1829.89 0.224867 -1.55988 0
M  V30 17521 C 1831.13 0.951154 -1.79111 0
M  V30 17522 C 1831.47 1.84119 -0.617568 0
M  V30 17523 O 1830.74 1.90686 0.383312 0
M  V30 17524 C 1831.02 1.79292 -3.12292 0
M  V30 17525 C 1830.88 0.929603 -4.40089 0
M  V30 17526 C 1832.2 2.77132 -3.41886 0
M  V30 17527 H 1829.32 0.344359 -0.651603 0
M  V30 17528 H 1831.96 0.220228 -1.88719 0
M  V30 17529 H 1830.11 2.41609 -3.04232 0
M  V30 17530 H 1831.78 0.323432 -4.60165 0
M  V30 17531 H 1830.02 0.234877 -4.33164 0
M  V30 17532 H 1830.69 1.55289 -5.29707 0
M  V30 17533 H 1833.17 2.24951 -3.50052 0
M  V30 17534 H 1832.05 3.33135 -4.36248 0
M  V30 17535 H 1832.31 3.54705 -2.63887 0
M  V30 17536 N 1831.37 1.49742 0.491438 0
M  V30 17537 C 1832.64 1.50217 1.25277 0
M  V30 17538 C 1833.02 0.235271 2.09785 0
M  V30 17539 O 1832.37 -0.782057 2.147 0
M  V30 17540 C 1832.58 2.78652 2.10129 0
M  V30 17541 C 1833.93 3.28519 2.68999 0
M  V30 17542 O 1834.95 2.79834 2.20389 0
M  V30 17543 O 1833.81 4.13333 3.57516 0
M  V30 17544 H 1830.91 0.601649 0.567405 0
M  V30 17545 H 1833.45 1.62014 0.504924 0
M  V30 17546 H 1832.22 3.62345 1.47723 0
M  V30 17547 H 1831.85 2.69761 2.92087 0
M  V30 17548 N 1832.84 -0.743177 1.38977 0
M  V30 17549 C 1833.75 -1.88767 1.39299 0
M  V30 17550 C 1834.77 -1.71587 0.288782 0
M  V30 17551 O 1835.95 -1.94331 0.52892 0
M  V30 17552 C 1833.01 -3.24263 1.22697 0
M  V30 17553 C 1832.07 -3.53895 2.43017 0
M  V30 17554 C 1831.31 -4.82925 2.27198 0
M  V30 17555 O 1831.53 -5.56056 1.27114 0
M  V30 17556 O 1830.46 -5.12271 3.16009 0
M  V30 17557 H 1834.29 -1.9145 2.35755 0
M  V30 17558 H 1831.87 -0.889881 1.20006 0
M  V30 17559 H 1833.76 -4.05251 1.1554 0
M  V30 17560 H 1832.43 -3.22368 0.293317 0
M  V30 17561 H 1831.34 -2.73026 2.5575 0
M  V30 17562 H 1832.67 -3.6056 3.35048 0
M  V30 17563 N 1834.32 -1.24018 -0.972487 0
M  V30 17564 C 1835.56 -1.08885 -1.72984 0
M  V30 17565 C 1835.93 0.366766 -1.88464 0
M  V30 17566 O 1837.13 0.639481 -2.61083 0
M  V30 17567 C 1835.4 -1.80306 -3.08585 0
M  V30 17568 S 1836.96 -1.80844 -3.99801 0
M  V30 17569 H 1833.78 -0.389523 -0.594805 0
M  V30 17570 H 1836.38 -1.57275 -1.16124 0
M  V30 17571 H 1835.08 -2.85339 -2.94975 0
M  V30 17572 H 1834.61 -1.3223 -3.70512 0
M  V30 17573 H 1836.63 -0.872692 -4.88465 0
M  V30 17574 N 1835.8 1.17245 -1.05316 0
M  V30 17575 C 1837.08 1.83482 -0.677779 0
M  V30 17576 C 1837.46 1.93592 0.841753 0
M  V30 17577 O 1836.81 1.47142 1.74818 0
M  V30 17578 C 1837.02 3.21062 -1.36823 0
M  V30 17579 C 1838.36 3.96954 -1.50708 0
M  V30 17580 O 1839.39 3.30545 -1.32734 0
M  V30 17581 O 1838.25 5.15967 -1.80111 0
M  V30 17582 H 1835.34 0.79179 -0.238741 0
M  V30 17583 H 1837.89 1.24531 -1.15283 0
M  V30 17584 H 1836.66 3.08679 -2.40484 0
M  V30 17585 H 1836.28 3.8768 -0.882617 0
M  V30 17586 N 1837.28 0.834353 1.33702 0
M  V30 17587 C 1838.21 0.279313 2.31823 0
M  V30 17588 C 1839.19 -0.610495 1.58767 0
M  V30 17589 O 1840.37 -0.534989 1.86686 0
M  V30 17590 C 1837.5 -0.550201 3.42914 0
M  V30 17591 C 1836.46 0.243432 4.27307 0
M  V30 17592 C 1835.78 -0.709548 5.29971 0
M  V30 17593 C 1837.08 1.45799 5.01537 0
M  V30 17594 H 1838.78 1.09915 2.78494 0
M  V30 17595 H 1836.32 0.529987 1.33892 0
M  V30 17596 H 1838.28 -0.948764 4.10581 0
M  V30 17597 H 1837 -1.4032 2.9492 0
M  V30 17598 H 1835.66 0.6235 3.61259 0
M  V30 17599 H 1835.31 -1.55882 4.78236 0
M  V30 17600 H 1835.01 -0.182671 5.87316 0
M  V30 17601 H 1836.53 -1.10572 6.00505 0
M  V30 17602 H 1837.95 1.13283 5.61996 0
M  V30 17603 H 1836.34 1.92133 5.68511 0
M  V30 17604 H 1837.41 2.23016 4.30571 0
M  V30 17605 N 1838.76 -1.46125 0.590367 0
M  V30 17606 C 1839.7 -2.32108 -0.151168 0
M  V30 17607 C 1840.7 -1.44943 -0.876804 0
M  V30 17608 O 1841.9 -1.61526 -0.794323 0
M  V30 17609 H 1838.28 -0.748954 -0.0676159 0
M  V30 17610 H 1840.25 -2.92454 0.592723 0
M  V30 17611 C 1839 -3.28253 -1.14653 0
M  V30 17612 H 1838.32 -3.95309 -0.597597 0
M  V30 17613 H 1839.76 -3.91181 -1.63564 0
M  V30 17614 C 1838.22 -2.54162 -2.21141 0
M  V30 17615 O 1838.75 -2.31029 -3.28616 0
M  V30 17616 N 1836.96 -2.14592 -1.95956 0
M  V30 17617 H 1836.5 -2.33606 -1.08564 0
M  V30 17618 H 1836.46 -1.65339 -2.67414 0
M  V30 17619 N 1840.23 -0.328564 -1.54137 0
M  V30 17620 C 1841.65 0.158467 -1.86026 0
M  V30 17621 C 1842 1.51216 -1.25012 0
M  V30 17622 O 1841.12 2.09081 -0.558029 0
M  V30 17623 C 1841.72 0.294317 -3.37519 0
M  V30 17624 C 1840.28 0.72557 -3.69341 0
M  V30 17625 C 1839.42 -0.149724 -2.76895 0
M  V30 17626 H 1842.37 -0.548678 -1.48913 0
M  V30 17627 H 1842.39 1.12438 -3.63508 0
M  V30 17628 H 1841.91 -0.691071 -3.81898 0
M  V30 17629 H 1840.01 1.72052 -3.30498 0
M  V30 17630 H 1840.12 0.525853 -4.76205 0
M  V30 17631 H 1838.48 0.375531 -2.51916 0
M  V30 17632 H 1839.27 -1.13197 -3.24101 0
M  V30 17633 N 1841.71 1.57497 -0.0568439 0
M  V30 17634 C 1842.66 2.08377 0.925369 0
M  V30 17635 C 1843.65 0.990152 1.26826 0
M  V30 17636 O 1844.84 1.25342 1.24973 0
M  V30 17637 C 1841.97 2.6369 2.19824 0
M  V30 17638 C 1841.05 3.8003 1.88249 0
M  V30 17639 N 1841.44 4.89581 1.27059 0
M  V30 17640 C 1839.74 3.89043 2.18087 0
M  V30 17641 C 1840.44 5.70571 1.13241 0
M  V30 17642 N 1839.42 5.1836 1.63718 0
M  V30 17643 H 1843.22 2.9047 0.447693 0
M  V30 17644 H 1840.74 1.61729 0.147457 0
M  V30 17645 H 1842.73 2.98447 2.91093 0
M  V30 17646 H 1841.39 1.83037 2.68193 0
M  V30 17647 H 1842.4 5.09259 0.942087 0
M  V30 17648 H 1839.08 3.19342 2.68937 0
M  V30 17649 H 1840.47 6.68681 0.656898 0
M  V30 17650 N 1843.19 -0.216591 1.56105 0
M  V30 17651 C 1844.44 -0.938321 1.78545 0
M  V30 17652 C 1844.75 -1.85302 0.62629 0
M  V30 17653 O 1845.96 -2.61377 0.734451 0
M  V30 17654 C 1844.41 -1.71871 3.16209 0
M  V30 17655 C 1844.02 -0.849904 4.39864 0
M  V30 17656 C 1845.77 -2.43136 3.47973 0
M  V30 17657 C 1843.67 -1.62793 5.68553 0
M  V30 17658 H 1842.6 -0.354098 0.66568 0
M  V30 17659 H 1845.25 -0.192079 1.82492 0
M  V30 17660 H 1843.64 -2.50804 3.06453 0
M  V30 17661 H 1844.81 -0.100757 4.6069 0
M  V30 17662 H 1843.13 -0.249139 4.15654 0
M  V30 17663 H 1845.72 -3.01856 4.41347 0
M  V30 17664 H 1846.07 -3.16267 2.70704 0
M  V30 17665 H 1846.6 -1.71189 3.59081 0
M  V30 17666 H 1843.34 -0.939801 6.48728 0
M  V30 17667 H 1842.86 -2.35156 5.5178 0
M  V30 17668 H 1844.54 -2.18733 6.08905 0
M  V30 17669 N 1844.67 -1.5 -0.48349 0
M  V30 17670 C 1845.91 -1.61998 -1.24644 0
M  V30 17671 C 1846.27 -0.307758 -1.89517 0
M  V30 17672 O 1847.47 -0.303059 -2.67086 0
M  V30 17673 C 1845.74 -2.75914 -2.27171 0
M  V30 17674 S 1847.3 -3.0797 -3.1257 0
M  V30 17675 H 1844.12 -0.571218 -0.423357 0
M  V30 17676 H 1846.72 -1.87734 -0.545555 0
M  V30 17677 H 1845.43 -3.69755 -1.7807 0
M  V30 17678 H 1844.96 -2.52225 -3.01904 0
M  V30 17679 H 1846.97 -2.50839 -4.28129 0
M  V30 17680 N 1846.15 0.735796 -1.39369 0
M  V30 17681 C 1847.08 1.86303 -1.4076 0
M  V30 17682 C 1848.06 1.67926 -0.27107 0
M  V30 17683 O 1849.24 1.88257 -0.476773 0
M  V30 17684 C 1846.37 3.24043 -1.24955 0
M  V30 17685 C 1845.33 3.57055 -2.35999 0
M  V30 17686 C 1844.65 4.93723 -2.05284 0
M  V30 17687 C 1845.95 3.60109 -3.7831 0
M  V30 17688 H 1847.65 1.85396 -2.35093 0
M  V30 17689 H 1845.19 0.890552 -1.1316 0
M  V30 17690 H 1847.15 4.02574 -1.24549 0
M  V30 17691 H 1845.87 3.25475 -0.270902 0
M  V30 17692 H 1844.53 2.80853 -2.35621 0
M  V30 17693 H 1844.18 4.91734 -1.05859 0
M  V30 17694 H 1843.88 5.16779 -2.79667 0
M  V30 17695 H 1845.4 5.74612 -2.06527 0
M  V30 17696 H 1846.81 4.28718 -3.80622 0
M  V30 17697 H 1845.21 3.94683 -4.52046 0
M  V30 17698 H 1846.28 2.59932 -4.09345 0
M  V30 17699 N 1847.63 1.24532 0.965897 0
M  V30 17700 C 1848.58 1.00627 2.04593 0
M  V30 17701 C 1849.56 -0.0529299 1.60813 0
M  V30 17702 O 1850.75 0.16102 1.76266 0
M  V30 17703 C 1847.88 0.614939 3.37748 0
M  V30 17704 C 1846.97 1.71031 3.88084 0
M  V30 17705 N 1847.36 2.94339 4.11337 0
M  V30 17706 C 1845.66 1.58823 4.16763 0
M  V30 17707 C 1846.36 3.65361 4.52644 0
M  V30 17708 N 1845.33 2.92931 4.57922 0
M  V30 17709 H 1849.13 1.94256 2.20549 0
M  V30 17710 H 1846.65 1.14685 1.14983 0
M  V30 17711 H 1848.65 0.424907 4.14729 0
M  V30 17712 H 1847.31 -0.314149 3.23177 0
M  V30 17713 H 1848.32 3.305 3.98736 0
M  V30 17714 H 1844.99 0.727304 4.11116 0
M  V30 17715 H 1846.38 4.71145 4.79032 0
M  V30 17716 N 1849.1 -1.16685 1.05936 0
M  V30 17717 C 1850.35 -1.86758 0.772386 0
M  V30 17718 C 1850.67 -1.81885 -0.703051 0
M  V30 17719 O 1849.94 -1.24992 -1.50844 0
M  V30 17720 H 1848.52 -0.69143 0.282725 0
M  V30 17721 H 1851.18 -1.41518 1.3401 0
M  V30 17722 H 1850.28 -2.92296 1.09405 0
M  V30 17723 N 1850.58 -0.841432 -1.33258 0
M  V30 17724 C 1851.86 -0.360204 -1.92255 0
M  V30 17725 C 1852.24 1.15474 -1.76717 0
M  V30 17726 O 1851.59 1.97035 -1.15713 0
M  V30 17727 C 1851.8 -0.809942 -3.39472 0
M  V30 17728 C 1853.14 -0.819444 -4.16618 0
M  V30 17729 O 1854.17 -0.753715 -3.48134 0
M  V30 17730 O 1853.03 -0.909553 -5.38878 0
M  V30 17731 H 1850.12 -0.102458 -0.820629 0
M  V30 17732 H 1852.67 -0.927455 -1.42114 0
M  V30 17733 H 1851.44 -1.85263 -3.44664 0
M  V30 17734 H 1851.06 -0.219406 -3.96994 0
M  V30 17735 N 1852.06 1.4581 -0.598108 0
M  V30 17736 C 1853.3 2.04191 -0.0924939 0
M  V30 17737 C 1853.66 1.45764 1.24968 0
M  V30 17738 O 1854.86 1.9544 1.84545 0
M  V30 17739 C 1853.14 3.57373 -0.0438408 0
M  V30 17740 S 1854.69 4.36955 0.401961 0
M  V30 17741 H 1851.51 0.709578 -0.0449528 0
M  V30 17742 H 1854.11 1.78647 -0.794077 0
M  V30 17743 H 1852.82 3.9741 -1.02436 0
M  V30 17744 H 1852.35 3.87478 0.680033 0
M  V30 17745 H 1854.36 4.67839 1.65351 0
M  V30 17746 N 1853.54 0.336733 1.53961 0
M  V30 17747 C 1854.45 -0.531812 2.28493 0
M  V30 17748 C 1855.46 -1.11784 1.33343 0
M  V30 17749 O 1856.64 -1.13499 1.66373 0
M  V30 17750 C 1853.7 -1.67031 3.03812 0
M  V30 17751 C 1852.77 -1.11475 4.14574 0
M  V30 17752 C 1852 -2.19898 4.86292 0
M  V30 17753 O 1852.22 -3.40492 4.57625 0
M  V30 17754 O 1851.16 -1.84576 5.72901 0
M  V30 17755 H 1854.98 0.0738624 3.0361 0
M  V30 17756 H 1852.57 0.101996 1.49051 0
M  V30 17757 H 1854.45 -2.33286 3.50936 0
M  V30 17758 H 1853.12 -2.26192 2.31558 0
M  V30 17759 H 1852.03 -0.416915 3.7177 0
M  V30 17760 H 1853.36 -0.568092 4.88911 0
M  V30 17761 N 1855.02 -1.57465 0.0651956 0
M  V30 17762 C 1855.96 -2.13542 -0.922087 0
M  V30 17763 C 1856.96 -1.07067 -1.31275 0
M  V30 17764 O 1858.16 -1.25456 -1.29076 0
M  V30 17765 H 1854.54 -0.682718 -0.315277 0
M  V30 17766 H 1856.51 -2.9537 -0.424138 0
M  V30 17767 C 1855.26 -2.70663 -2.18258 0
M  V30 17768 H 1854.58 -3.52262 -1.8908 0
M  V30 17769 H 1856.02 -3.13505 -2.85466 0
M  V30 17770 C 1854.48 -1.65106 -2.93669 0
M  V30 17771 O 1855.01 -1.07214 -3.87128 0
M  V30 17772 N 1853.22 -1.36296 -2.56655 0
M  V30 17773 H 1852.76 -1.83562 -1.80728 0
M  V30 17774 H 1852.72 -0.659013 -3.07416 0
M  V30 17775 N 1856.49 0.20831 -1.56217 0
M  V30 17776 C 1857.72 0.947271 -1.83941 0
M  V30 17777 C 1858.14 1.77403 -0.646029 0
M  V30 17778 O 1857.49 1.78385 0.385378 0
M  V30 17779 C 1857.54 1.85415 -3.10328 0
M  V30 17780 O 1857.27 1.06079 -4.25063 0
M  V30 17781 C 1858.77 2.7059 -3.51135 0
M  V30 17782 H 1855.99 0.277012 -0.611151 0
M  V30 17783 H 1858.53 0.219545 -2.03318 0
M  V30 17784 H 1856.69 2.53566 -2.92888 0
M  V30 17785 H 1857.1 1.67758 -4.96948 0
M  V30 17786 H 1858.57 3.29902 -4.42571 0
M  V30 17787 H 1859.05 3.43645 -2.73505 0
M  V30 17788 H 1859.66 2.07831 -3.71061 0
M  V30 17789 N 1857.97 1.50255 0.475528 0
M  V30 17790 C 1858.92 1.68794 1.57408 0
M  V30 17791 C 1859.89 0.529252 1.57442 0
M  V30 17792 O 1861.07 0.759301 1.75041 0
M  V30 17793 C 1858.21 1.78401 2.9541 0
M  V30 17794 C 1857.33 3.05742 3.05198 0
M  V30 17795 C 1856.46 3.06172 4.34088 0
M  V30 17796 C 1855.5 4.27985 4.37602 0
M  V30 17797 N 1854.64 4.26179 5.57957 0
M  V30 17798 H 1859.48 2.62583 1.40905 0
M  V30 17799 H 1857.01 1.30169 0.685152 0
M  V30 17800 H 1858.97 1.81952 3.75432 0
M  V30 17801 H 1857.6 0.880556 3.10558 0
M  V30 17802 H 1856.65 3.11683 2.18077 0
M  V30 17803 H 1857.97 3.95722 3.03654 0
M  V30 17804 H 1857.12 3.08427 5.22454 0
M  V30 17805 H 1855.86 2.14014 4.38234 0
M  V30 17806 H 1854.86 4.25947 3.47634 0
M  V30 17807 H 1856.09 5.21364 4.35151 0
M  V30 17808 H 1854.04 3.36873 5.62897 0
M  V30 17809 H 1853.95 5.09923 5.58135 0
M  V30 17810 H 1855.22 4.32574 6.4846 0
M  V30 17811 N 1859.45 -0.728395 1.39758 0
M  V30 17812 C 1860.7 -1.48514 1.37069 0
M  V30 17813 C 1861.02 -1.94976 -0.0305263 0
M  V30 17814 O 1860.29 -1.69453 -0.982987 0
M  V30 17815 H 1858.87 -0.550958 0.504434 0
M  V30 17816 H 1861.53 -0.864297 1.74688 0
M  V30 17817 H 1860.63 -2.36411 2.03755 0
M  V30 17818 N 1860.93 -1.25042 -0.959279 0
M  V30 17819 C 1862.15 -1.12339 -1.74341 0
M  V30 17820 C 1862.58 0.319342 -1.85369 0
M  V30 17821 O 1861.94 1.23129 -1.33075 0
M  V30 17822 C 1861.98 -1.77734 -3.13756 0
M  V30 17823 O 1861.09 -1.05383 -3.98708 0
M  V30 17824 H 1860.43 -0.392479 -0.535589 0
M  V30 17825 H 1862.96 -1.65516 -1.20274 0
M  V30 17826 H 1862.97 -1.83832 -3.64239 0
M  V30 17827 H 1861.64 -2.82702 -3.05045 0
M  V30 17828 H 1860.22 -1.07132 -3.57179 0
M  V30 17829 N 1862.41 1.16121 -1.06553 0
M  V30 17830 C 1863.65 1.86715 -0.783827 0
M  V30 17831 C 1863.98 1.81857 0.689799 0
M  V30 17832 O 1863.24 1.23093 1.5214 0
M  V30 17833 C 1863.54 3.35676 -1.22705 0
M  V30 17834 C 1863.2 3.60732 -2.70524 0
M  V30 17835 C 1861.86 3.67279 -3.10901 0
M  V30 17836 C 1864.22 3.71093 -3.65977 0
M  V30 17837 C 1861.54 3.81691 -4.45566 0
M  V30 17838 C 1863.9 3.87027 -5.00393 0
M  V30 17839 C 1862.56 3.91817 -5.40403 0
M  V30 17840 H 1861.83 0.683238 -0.286823 0
M  V30 17841 H 1864.48 1.37285 -1.3351 0
M  V30 17842 H 1862.78 3.87255 -0.595017 0
M  V30 17843 H 1864.48 3.88686 -0.986096 0
M  V30 17844 H 1861.07 3.5627 -2.38263 0
M  V30 17845 H 1865.25 3.65343 -3.35914 0
M  V30 17846 H 1860.51 3.83654 -4.76046 0
M  V30 17847 H 1864.68 3.93986 -5.74237 0
M  V30 17848 H 1862.31 4.02737 -6.44753 0
M  V30 17849 N 1863.88 0.848487 1.3281 0
M  V30 17850 C 1865.13 0.449521 1.97755 0
M  V30 17851 C 1865.46 -0.990923 1.67016 0
M  V30 17852 O 1864.74 -1.69434 0.955119 0
M  V30 17853 C 1865.02 0.681898 3.53585 0
M  V30 17854 C 1864.87 2.17031 3.93976 0
M  V30 17855 C 1866.19 0.134271 4.39895 0
M  V30 17856 H 1863.31 0.164799 0.718339 0
M  V30 17857 H 1865.95 1.06578 1.57293 0
M  V30 17858 H 1864.1 0.157353 3.88181 0
M  V30 17859 H 1865.78 2.76046 3.69589 0
M  V30 17860 H 1864.02 2.65117 3.43359 0
M  V30 17861 H 1864.69 2.28362 5.02548 0
M  V30 17862 H 1867.17 0.582756 4.11999 0
M  V30 17863 H 1866.04 0.326479 5.47928 0
M  V30 17864 H 1866.3 -0.962576 4.31494 0
M  V30 17865 N 1865.36 -1.4549 0.605832 0
M  V30 17866 C 1866.6 -2.04139 0.103321 0
M  V30 17867 C 1866.97 -1.46425 -1.24193 0
M  V30 17868 O 1868.17 -1.96416 -1.83506 0
M  V30 17869 C 1866.44 -3.57345 0.0627925 0
M  V30 17870 S 1868 -4.37162 -0.378782 0
M  V30 17871 H 1864.82 -0.709329 0.0487152 0
M  V30 17872 H 1867.42 -1.78223 0.80354 0
M  V30 17873 H 1866.12 -3.96862 1.04542 0
M  V30 17874 H 1865.65 -3.87833 -0.659475 0
M  V30 17875 H 1867.67 -4.68709 -1.62868 0
M  V30 17876 N 1866.84 -0.344893 -1.5378 0
M  V30 17877 C 1867.79 0.527275 -2.21819 0
M  V30 17878 C 1868.77 1.06502 -1.20607 0
M  V30 17879 O 1869.97 0.998502 -1.46147 0
M  V30 17880 C 1867.1 1.67703 -2.99551 0
M  V30 17881 C 1866.18 1.15316 -4.08121 0
M  V30 17882 N 1866.57 0.35061 -5.04583 0
M  V30 17883 C 1864.87 1.42992 -4.22456 0
M  V30 17884 C 1865.57 0.0661583 -5.81662 0
M  V30 17885 N 1864.55 0.658168 -5.39601 0
M  V30 17886 H 1868.35 -0.0929348 -2.93753 0
M  V30 17887 H 1865.86 -0.151827 -1.61689 0
M  V30 17888 H 1867.86 2.31383 -3.46796 0
M  V30 17889 H 1866.52 2.30051 -2.29144 0
M  V30 17890 H 1867.53 -0.0084236 -5.17899 0
M  V30 17891 H 1864.21 2.05769 -3.6327 0
M  V30 17892 H 1865.6 -0.581316 -6.69381 0
M  V30 17893 N 1868.32 1.57428 -0.0735454 0
M  V30 17894 C 1869.56 1.95432 0.598802 0
M  V30 17895 C 1869.92 0.953142 1.66671 0
M  V30 17896 O 1871.12 1.2209 2.39473 0
M  V30 17897 C 1869.39 3.38079 1.1592 0
M  V30 17898 S 1870.95 3.98061 1.84643 0
M  V30 17899 H 1867.77 0.683444 0.196022 0
M  V30 17900 H 1870.37 1.9494 -0.147819 0
M  V30 17901 H 1869.08 4.08727 0.370158 0
M  V30 17902 H 1868.61 3.42118 1.94214 0
M  V30 17903 H 1870.62 3.85108 3.129 0
M  V30 17904 N 1869.8 -0.200022 1.56326 0
M  V30 17905 C 1870.73 -1.27187 1.90673 0
M  V30 17906 C 1871.74 -1.41961 0.796933 0
M  V30 17907 O 1872.93 -1.42474 1.07533 0
M  V30 17908 C 1870.03 -2.64468 2.11919 0
M  V30 17909 C 1869.2 -2.71366 3.43044 0
M  V30 17910 C 1868.26 -3.89809 3.53462 0
M  V30 17911 O 1867.29 -3.77142 4.26325 0
M  V30 17912 N 1868.49 -5.05052 2.86187 0
M  V30 17913 H 1871.26 -0.980397 2.83211 0
M  V30 17914 H 1868.82 -0.389967 1.57133 0
M  V30 17915 H 1870.81 -3.42122 2.16182 0
M  V30 17916 H 1869.38 -2.86124 1.25904 0
M  V30 17917 H 1868.6 -1.80024 3.50692 0
M  V30 17918 H 1869.89 -2.72961 4.29383 0
M  V30 17919 H 1869.28 -5.18242 2.26808 0
M  V30 17920 H 1867.84 -5.8067 2.96083 0
M  V30 17921 N 1871.27 -1.50505 -0.467553 0
M  V30 17922 C 1872.2 -1.72558 -1.57309 0
M  V30 17923 C 1873.19 -0.574619 -1.601 0
M  V30 17924 O 1874.37 -0.814135 -1.76311 0
M  V30 17925 C 1871.5 -1.82296 -2.9561 0
M  V30 17926 C 1870.45 -2.97513 -3.07685 0
M  V30 17927 C 1869.78 -2.92398 -4.47669 0
M  V30 17928 C 1871.08 -4.37968 -2.84573 0
M  V30 17929 H 1872.77 -2.65122 -1.39107 0
M  V30 17930 H 1870.32 -1.2758 -0.667776 0
M  V30 17931 H 1872.27 -1.96308 -3.72882 0
M  V30 17932 H 1871 -0.863562 -3.14976 0
M  V30 17933 H 1869.66 -2.83157 -2.32847 0
M  V30 17934 H 1869.3 -1.94297 -4.63959 0
M  V30 17935 H 1869 -3.69749 -4.56683 0
M  V30 17936 H 1870.53 -3.08464 -5.26956 0
M  V30 17937 H 1871.94 -4.52831 -3.51593 0
M  V30 17938 H 1870.34 -5.16796 -3.05028 0
M  V30 17939 H 1871.41 -4.50093 -1.80402 0
M  V30 17940 N 1872.75 0.720973 -1.40142 0
M  V30 17941 C 1874 1.47785 -1.37855 0
M  V30 17942 C 1874.32 1.9499 0.0201858 0
M  V30 17943 O 1873.59 1.69972 0.973986 0
M  V30 17944 H 1872.17 0.548275 -0.507349 0
M  V30 17945 H 1874.83 0.85502 -1.75144 0
M  V30 17946 H 1873.93 2.35327 -2.05006 0
M  V30 17947 N 1874.23 1.25549 0.952634 0
M  V30 17948 C 1875.46 1.12998 1.7296 0
M  V30 17949 C 1875.87 -0.318779 1.86495 0
M  V30 17950 O 1875.21 -1.23091 1.36361 0
M  V30 17951 C 1875.27 1.71313 3.16057 0
M  V30 17952 C 1874.94 3.20326 3.25945 0
M  V30 17953 C 1875.93 4.17291 3.10103 0
M  V30 17954 C 1873.62 3.60574 3.49702 0
M  V30 17955 C 1875.61 5.52484 3.17868 0
M  V30 17956 C 1873.3 4.95904 3.57103 0
M  V30 17957 C 1874.3 5.91668 3.412 0
M  V30 17958 O 1873.99 7.24535 3.48287 0
M  V30 17959 H 1873.72 0.394815 0.548723 0
M  V30 17960 H 1876.27 1.66441 1.20361 0
M  V30 17961 H 1874.5 1.1232 3.70029 0
M  V30 17962 H 1876.19 1.53832 3.7562 0
M  V30 17963 H 1876.96 3.87537 2.91617 0
M  V30 17964 H 1872.84 2.86529 3.6114 0
M  V30 17965 H 1876.38 6.27211 3.05373 0
M  V30 17966 H 1872.28 5.25324 3.75106 0
M  V30 17967 H 1873.05 7.32657 3.64905 0
M  V30 17968 N 1875.71 -1.15554 1.07168 0
M  V30 17969 C 1876.64 -2.19201 0.634504 0
M  V30 17970 C 1877.62 -1.58848 -0.347283 0
M  V30 17971 O 1878.8 -1.86779 -0.25415 0
M  V30 17972 C 1875.93 -3.38631 -0.0685456 0
M  V30 17973 C 1874.98 -4.17503 0.87139 0
M  V30 17974 S 1875.81 -4.8013 2.37139 0
M  V30 17975 C 1876.97 -6.02929 1.68009 0
M  V30 17976 H 1877.2 -2.55946 1.51259 0
M  V30 17977 H 1874.73 -1.26486 0.88547 0
M  V30 17978 H 1876.69 -4.07824 -0.467933 0
M  V30 17979 H 1875.35 -3.00234 -0.922944 0
M  V30 17980 H 1874.54 -5.02943 0.326166 0
M  V30 17981 H 1874.15 -3.53849 1.21107 0
M  V30 17982 H 1876.44 -6.70217 0.990739 0
M  V30 17983 H 1877.38 -6.62017 2.51274 0
M  V30 17984 H 1877.79 -5.52477 1.15887 0
M  V30 17985 N 1877.19 -0.855519 -1.32358 0
M  V30 17986 C 1878.43 -0.460002 -1.97514 0
M  V30 17987 C 1878.77 0.982052 -1.67539 0
M  V30 17988 O 1878.04 1.68925 -0.964091 0
M  V30 17989 C 1878.32 -0.70064 -3.53218 0
M  V30 17990 C 1878.18 -2.19118 -3.9282 0
M  V30 17991 C 1879.5 -0.157597 -4.39818 0
M  V30 17992 H 1876.62 -0.168606 -0.717455 0
M  V30 17993 H 1879.26 -1.0741 -1.56726 0
M  V30 17994 H 1877.41 -0.177937 -3.88092 0
M  V30 17995 H 1879.08 -2.78002 -3.6812 0
M  V30 17996 H 1877.32 -2.66934 -3.41948 0
M  V30 17997 H 1877.99 -2.31024 -5.0133 0
M  V30 17998 H 1880.47 -0.604597 -4.11684 0
M  V30 17999 H 1879.35 -0.355532 -5.47747 0
M  V30 18000 H 1879.61 0.939679 -4.31998 0
M  V30 18001 N 1878.67 1.45167 -0.61354 0
M  V30 18002 C 1880.08 1.57166 -0.277678 0
M  V30 18003 C 1880.28 1.60395 1.21965 0
M  V30 18004 O 1879.34 1.53747 2.00295 0
M  V30 18005 C 1880.65 2.85162 -0.9541 0
M  V30 18006 C 1882.2 2.98847 -0.930579 0
M  V30 18007 C 1882.67 4.29621 -1.58712 0
M  V30 18008 N 1884.16 4.36394 -1.55289 0
M  V30 18009 C 1884.9 5.36264 -2.02999 0
M  V30 18010 N 1884.4 6.42638 -2.58821 0
M  V30 18011 N 1886.19 5.27659 -1.93732 0
M  V30 18012 H 1878.34 1.41314 -1.58569 0
M  V30 18013 H 1880.6 0.676027 -0.664598 0
M  V30 18014 H 1880.31 2.88698 -2.00864 0
M  V30 18015 H 1880.18 3.7412 -0.481025 0
M  V30 18016 H 1882.57 2.94874 0.115433 0
M  V30 18017 H 1882.65 2.11283 -1.44198 0
M  V30 18018 H 1882.29 4.34352 -2.6325 0
M  V30 18019 H 1882.22 5.16011 -1.0507 0
M  V30 18020 H 1884.72 3.60131 -1.14516 0
M  V30 18021 H 1885.03 7.151 -2.93004 0
M  V30 18022 H 1883.37 6.43372 -2.62863 0
M  V30 18023 H 1886.56 4.43465 -1.49856 0
M  V30 18024 H 1886.74 6.05341 -2.31227 0
M  V30 18025 N 1880.14 0.353044 1.53595 0
M  V30 18026 C 1881.09 -0.499326 2.25334 0
M  V30 18027 C 1882.06 -1.08781 1.25522 0
M  V30 18028 O 1883.25 -1.12265 1.54276 0
M  V30 18029 C 1880.39 -1.63955 3.03666 0
M  V30 18030 C 1879.5 -1.07745 4.18348 0
M  V30 18031 C 1878.63 -2.18575 4.84147 0
M  V30 18032 C 1877.67 -1.59765 5.90882 0
M  V30 18033 N 1876.81 -2.64376 6.50423 0
M  V30 18034 H 1881.65 0.118959 2.97762 0
M  V30 18035 H 1879.19 0.0704777 1.46931 0
M  V30 18036 H 1881.14 -2.31097 3.47347 0
M  V30 18037 H 1879.77 -2.22868 2.33516 0
M  V30 18038 H 1878.83 -0.296678 3.79241 0
M  V30 18039 H 1880.14 -0.607375 4.95088 0
M  V30 18040 H 1879.29 -2.93563 5.30948 0
M  V30 18041 H 1878.03 -2.68929 4.06852 0
M  V30 18042 H 1877.04 -0.832863 5.43455 0
M  V30 18043 H 1878.26 -1.10251 6.70091 0
M  V30 18044 H 1876.21 -3.13968 5.75986 0
M  V30 18045 H 1876.12 -2.22019 7.22664 0
M  V30 18046 H 1877.39 -3.39105 7.01875 0
M  V30 18047 N 1881.62 -1.57387 0.0818932 0
M  V30 18048 C 1882.87 -1.93486 -0.583744 0
M  V30 18049 C 1883.19 -0.963466 -1.69536 0
M  V30 18050 O 1882.46 -0.0132866 -1.95895 0
M  V30 18051 H 1881.04 -0.714292 -0.218622 0
M  V30 18052 H 1883.7 -1.94381 0.142124 0
M  V30 18053 H 1882.8 -2.9556 -1.00252 0
M  V30 18054 N 1883.1 0.191729 -1.56429 0
M  V30 18055 C 1884.06 1.22128 -1.93952 0
M  V30 18056 C 1885.06 1.38262 -0.820984 0
M  V30 18057 O 1886.25 1.36017 -1.08835 0
M  V30 18058 C 1883.38 2.59005 -2.21651 0
M  V30 18059 H 1884.58 0.900458 -2.86063 0
M  V30 18060 H 1882.13 0.433382 -1.50172 0
M  V30 18061 H 1882.87 2.96136 -1.32189 0
M  V30 18062 H 1882.65 2.48665 -3.03164 0
M  V30 18063 H 1884.14 3.33242 -2.51674 0
M  V30 18064 N 1884.58 1.50751 0.459565 0
M  V30 18065 C 1885.81 1.66089 1.23377 0
M  V30 18066 C 1886.22 0.348952 1.85547 0
M  V30 18067 O 1885.58 -0.670323 1.69744 0
M  V30 18068 C 1885.63 2.76047 2.3341 0
M  V30 18069 O 1885.35 4.02156 1.73787 0
M  V30 18070 C 1886.85 3.02461 3.24087 0
M  V30 18071 H 1884.07 0.557971 0.372705 0
M  V30 18072 H 1886.61 1.97042 0.547242 0
M  V30 18073 H 1884.77 2.47756 2.97818 0
M  V30 18074 H 1885.18 4.63055 2.46335 0
M  V30 18075 H 1886.66 3.83034 3.97478 0
M  V30 18076 H 1887.13 2.13984 3.83546 0
M  V30 18077 H 1887.74 3.32326 2.65404 0
M  V30 18078 N 1886.06 -0.713531 1.40522 0
M  V30 18079 C 1887.3 -1.47052 1.38637 0
M  V30 18080 C 1887.62 -1.94998 -0.00984474 0
M  V30 18081 O 1886.89 -1.70486 -0.964959 0
M  V30 18082 H 1885.47 -0.545577 0.51025 0
M  V30 18083 H 1888.14 -0.84572 1.75595 0
M  V30 18084 H 1887.23 -2.34237 2.06251 0
M  V30 18085 N 1887.53 -1.26053 -0.945962 0
M  V30 18086 C 1888.77 -1.1253 -1.70635 0
M  V30 18087 C 1889.14 0.326708 -1.892 0
M  V30 18088 O 1890.34 0.583957 -2.6238 0
M  V30 18089 C 1888.61 -1.86811 -3.04691 0
M  V30 18090 S 1890.17 -1.89284 -3.95875 0
M  V30 18091 H 1886.99 -0.402052 -0.586409 0
M  V30 18092 H 1889.59 -1.59703 -1.12762 0
M  V30 18093 H 1888.29 -2.91531 -2.88856 0
M  V30 18094 H 1887.82 -1.40059 -3.67623 0
M  V30 18095 H 1889.84 -0.976107 -4.86504 0
M  V30 18096 N 1889.01 1.14984 -1.07779 0
M  V30 18097 C 1890.24 1.90288 -0.824935 0
M  V30 18098 C 1890.66 1.77709 0.616524 0
M  V30 18099 O 1890.02 1.11281 1.4313 0
M  V30 18100 C 1890.07 3.38482 -1.24348 0
M  V30 18101 O 1889.17 4.10538 -0.391454 0
M  V30 18102 H 1888.51 0.592283 -0.300162 0
M  V30 18103 H 1891.04 1.45588 -1.43755 0
M  V30 18104 H 1891.05 3.89284 -1.22155 0
M  V30 18105 H 1889.73 3.46956 -2.29335 0
M  V30 18106 H 1888.3 3.69846 -0.476247 0
M  V30 18107 N 1890.49 0.862526 1.31902 0
M  V30 18108 C 1891.77 0.390745 1.91657 0
M  V30 18109 C 1892.15 -1.12648 1.78532 0
M  V30 18110 O 1891.49 -1.95169 1.18833 0
M  V30 18111 C 1891.7 0.863847 3.3814 0
M  V30 18112 C 1893.05 0.885621 4.15261 0
M  V30 18113 O 1894.08 0.809005 3.46891 0
M  V30 18114 O 1892.94 0.995169 5.37363 0
M  V30 18115 H 1890.03 0.115501 0.818895 0
M  V30 18116 H 1892.58 0.949947 1.4062 0
M  V30 18117 H 1891.35 1.90723 3.41673 0
M  V30 18118 H 1890.97 0.282536 3.96595 0
M  V30 18119 N 1891.97 -1.4484 0.62123 0
M  V30 18120 C 1893.21 -2.02433 0.121965 0
M  V30 18121 C 1893.55 -1.48679 -1.24932 0
M  V30 18122 O 1892.82 -0.666887 -1.8271 0
M  V30 18123 C 1893.11 -3.59967 0.0978513 0
M  V30 18124 C 1892.96 -4.24025 1.50077 0
M  V30 18125 C 1894.28 -4.36224 -0.582838 0
M  V30 18126 H 1891.4 -0.735576 0.0457947 0
M  V30 18127 H 1894.04 -1.72531 0.795812 0
M  V30 18128 H 1892.19 -3.85573 -0.47597 0
M  V30 18129 H 1893.86 -4.09558 2.12272 0
M  V30 18130 H 1892.1 -3.819 2.05754 0
M  V30 18131 H 1892.77 -5.32994 1.43602 0
M  V30 18132 H 1895.25 -4.15992 -0.0949595 0
M  V30 18133 H 1894.13 -5.45944 -0.568863 0
M  V30 18134 H 1894.39 -4.10098 -1.65142 0
M  V30 18135 N 1893.45 -0.361184 -1.53405 0
M  V30 18136 C 1894.72 0.286047 -1.93497 0
M  V30 18137 C 1895.1 1.66764 -1.29434 0
M  V30 18138 O 1894.45 2.23989 -0.451785 0
M  V30 18139 C 1894.66 0.340663 -3.47333 0
M  V30 18140 C 1896.01 0.58311 -4.20577 0
M  V30 18141 O 1897.03 0.422054 -3.53691 0
M  V30 18142 O 1895.89 0.896383 -5.39099 0
M  V30 18143 H 1892.99 0.17059 -0.809215 0
M  V30 18144 H 1895.53 -0.413648 -1.64581 0
M  V30 18145 H 1894.3 -0.628175 -3.86225 0
M  V30 18146 H 1893.93 1.08643 -3.82469 0
M  V30 18147 N 1894.92 1.57341 -0.0902386 0
M  V30 18148 C 1895.83 2.17276 0.88478 0
M  V30 18149 C 1896.85 1.14089 1.31376 0
M  V30 18150 O 1898.03 1.46438 1.38268 0
M  V30 18151 C 1895.09 2.73739 2.12762 0
M  V30 18152 C 1894.15 3.91865 1.7533 0
M  V30 18153 C 1893.39 4.45626 2.93689 0
M  V30 18154 O 1893.61 3.98337 4.08269 0
M  V30 18155 O 1892.54 5.36714 2.72437 0
M  V30 18156 H 1896.37 3.00989 0.40487 0
M  V30 18157 H 1893.95 1.48799 0.133848 0
M  V30 18158 H 1895.84 3.09849 2.85608 0
M  V30 18159 H 1894.51 1.93075 2.59815 0
M  V30 18160 H 1893.42 3.60576 0.996799 0
M  V30 18161 H 1894.75 4.73878 1.33045 0
M  V30 18162 N 1896.4 -0.183431 1.56529 0
M  V30 18163 C 1897.64 -0.908628 1.83094 0
M  V30 18164 C 1898.01 -1.79952 0.669429 0
M  V30 18165 O 1899.21 -2.56139 0.81524 0
M  V30 18166 C 1897.48 -1.69353 3.14729 0
M  V30 18167 S 1899.04 -2.46915 3.62737 0
M  V30 18168 H 1895.86 -0.304549 0.642472 0
M  V30 18169 H 1898.46 -0.171145 1.94749 0
M  V30 18170 H 1897.16 -1.02987 3.97268 0
M  V30 18171 H 1896.69 -2.47261 3.05983 0
M  V30 18172 H 1898.71 -3.71359 3.29101 0
M  V30 18173 N 1897.88 -1.50992 -0.451564 0
M  V30 18174 C 1898.79 -1.74097 -1.5725 0
M  V30 18175 C 1899.81 -0.624663 -1.62401 0
M  V30 18176 O 1900.98 -0.90528 -1.79907 0
M  V30 18177 C 1898.05 -1.84808 -2.93338 0
M  V30 18178 C 1897.11 -3.08618 -2.98418 0
M  V30 18179 C 1896.34 -3.18808 -4.28015 0
M  V30 18180 O 1896.56 -2.35291 -5.1961 0
M  V30 18181 O 1895.5 -4.11685 -4.39089 0
M  V30 18182 H 1899.32 -2.69156 -1.40673 0
M  V30 18183 H 1896.91 -1.35322 -0.633105 0
M  V30 18184 H 1898.79 -1.9392 -3.7413 0
M  V30 18185 H 1897.47 -0.929344 -3.10072 0
M  V30 18186 H 1896.37 -3.04993 -2.16633 0
M  V30 18187 H 1897.71 -4.00133 -2.86625 0
M  V30 18188 N 1899.36 0.706069 -1.40899 0
M  V30 18189 C 1900.6 1.46821 -1.39898 0
M  V30 18190 C 1900.94 1.942 -0.00437855 0
M  V30 18191 O 1900.21 1.68815 0.966002 0
M  V30 18192 C 1900.5 2.68756 -2.39671 0
M  V30 18193 C 1900.35 2.27211 -3.88195 0
M  V30 18194 C 1901.67 3.70935 -2.36845 0
M  V30 18195 H 1898.79 0.532549 -0.509471 0
M  V30 18196 H 1901.43 0.805057 -1.72101 0
M  V30 18197 H 1899.58 3.25337 -2.1234 0
M  V30 18198 H 1901.25 1.76038 -4.2639 0
M  V30 18199 H 1899.49 1.59108 -4.03568 0
M  V30 18200 H 1900.16 3.14656 -4.53537 0
M  V30 18201 H 1902.64 3.24004 -2.61076 0
M  V30 18202 H 1901.52 4.53876 -3.08687 0
M  V30 18203 H 1901.78 4.19899 -1.38337 0
M  V30 18204 N 1900.84 1.26553 0.939264 0
M  V30 18205 C 1902.08 1.11989 1.68235 0
M  V30 18206 C 1902.41 -0.336993 1.92066 0
M  V30 18207 O 1901.68 -1.23742 1.51871 0
M  V30 18208 H 1900.26 0.41144 0.623479 0
M  V30 18209 H 1902.92 1.58909 1.12845 0
M  V30 18210 H 1902.01 1.64011 2.65531 0
M  V30 18211 N 1902.31 -1.14411 1.08387 0
M  V30 18212 C 1903.56 -1.85078 0.811826 0
M  V30 18213 C 1903.88 -1.83335 -0.664312 0
M  V30 18214 O 1903.15 -1.28164 -1.48158 0
M  V30 18215 H 1901.73 -0.685278 0.297328 0
M  V30 18216 H 1904.4 -1.38644 1.36981 0
M  V30 18217 H 1903.49 -2.89909 1.15581 0
M  V30 18218 N 1903.79 -0.869509 -1.31443 0
M  V30 18219 C 1904.74 -0.296524 -2.26064 0
M  V30 18220 C 1905.73 0.566171 -1.5061 0
M  V30 18221 O 1906.92 0.413124 -1.72111 0
M  V30 18222 C 1904.05 0.501397 -3.39619 0
M  V30 18223 C 1903.13 -0.374516 -4.22443 0
M  V30 18224 N 1903.52 -1.46777 -4.84035 0
M  V30 18225 C 1901.82 -0.16687 -4.45688 0
M  V30 18226 C 1902.52 -2.00787 -5.45948 0
M  V30 18227 N 1901.5 -1.30494 -5.27705 0
M  V30 18228 H 1905.3 -1.1321 -2.71221 0
M  V30 18229 H 1902.82 -0.71722 -1.45704 0
M  V30 18230 H 1904.81 0.928409 -4.06431 0
M  V30 18231 H 1903.47 1.33459 -2.96005 0
M  V30 18232 H 1904.48 -1.85069 -4.83704 0
M  V30 18233 H 1901.16 0.630411 -4.12713 0
M  V30 18234 H 1902.55 -2.9251 -6.04887 0
M  V30 18235 N 1905.27 1.44508 -0.628902 0
M  V30 18236 C 1906.22 2.32427 0.0895754 0
M  V30 18237 C 1907.21 1.47217 0.838067 0
M  V30 18238 O 1908.42 1.63575 0.751218 0
M  V30 18239 H 1904.79 0.750483 0.0477349 0
M  V30 18240 H 1906.76 2.9078 -0.670054 0
M  V30 18241 C 1905.51 3.31177 1.0591 0
M  V30 18242 H 1904.84 3.96754 0.492578 0
M  V30 18243 H 1906.28 3.9538 1.53135 0
M  V30 18244 C 1904.74 2.59936 2.14325 0
M  V30 18245 O 1905.27 2.3966 3.22375 0
M  V30 18246 N 1903.47 2.19712 1.90197 0
M  V30 18247 H 1903.02 2.36402 1.02332 0
M  V30 18248 H 1902.98 1.72371 2.62936 0
M  V30 18249 N 1906.75 0.369315 1.53212 0
M  V30 18250 C 1907.99 -0.219233 2.03221 0
M  V30 18251 C 1908.35 -1.45689 1.25055 0
M  V30 18252 O 1909.55 -2.1213 1.65089 0
M  V30 18253 C 1907.83 -0.500368 3.5388 0
M  V30 18254 S 1909.38 -1.06205 4.25753 0
M  V30 18255 H 1906.2 -0.0635239 0.708157 0
M  V30 18256 H 1908.8 0.513044 1.88648 0
M  V30 18257 H 1907.51 0.407823 4.08369 0
M  V30 18258 H 1907.04 -1.26162 3.72622 0
M  V30 18259 H 1909.05 -2.34602 4.37237 0
M  V30 18260 N 1908.23 -1.57291 0.0985816 0
M  V30 18261 C 1909.5 -1.85951 -0.606759 0
M  V30 18262 C 1909.88 -0.996077 -1.86122 0
M  V30 18263 O 1909.23 -0.0694281 -2.28394 0
M  V30 18264 C 1909.44 -3.36688 -0.918803 0
M  V30 18265 C 1910.79 -4.04824 -1.28074 0
M  V30 18266 O 1911.81 -3.41589 -1.00971 0
M  V30 18267 O 1910.67 -5.16406 -1.7885 0
M  V30 18268 H 1907.77 -0.769103 -0.30399 0
M  V30 18269 H 1910.31 -1.69189 0.131543 0
M  V30 18270 H 1909.09 -3.91289 -0.0289848 0
M  V30 18271 H 1908.71 -3.58808 -1.71296 0
M  V30 18272 N 1909.71 0.175127 -1.56624 0
M  V30 18273 C 1910.93 0.912099 -1.86267 0
M  V30 18274 C 1911.36 1.75204 -0.684485 0
M  V30 18275 O 1910.71 1.77557 0.366501 0
M  V30 18276 C 1910.76 1.76776 -3.14297 0
M  V30 18277 O 1909.87 2.86894 -2.96253 0
M  V30 18278 H 1909.21 0.255728 -0.61278 0
M  V30 18279 H 1911.74 0.174416 -2.03855 0
M  V30 18280 H 1911.75 2.16845 -3.45604 0
M  V30 18281 H 1910.42 1.15077 -3.99663 0
M  V30 18282 H 1909 2.50435 -2.76291 0
M  V30 18283 N 1911.18 1.5123 0.44355 0
M  V30 18284 C 1912.13 1.68479 1.53619 0
M  V30 18285 C 1913.12 0.538858 1.51608 0
M  V30 18286 O 1914.31 0.794502 1.58167 0
M  V30 18287 C 1911.44 1.80754 2.91861 0
M  V30 18288 C 1910.52 3.01112 2.98651 0
M  V30 18289 N 1910.92 4.24382 2.75197 0
M  V30 18290 C 1909.21 3.00239 3.29807 0
M  V30 18291 C 1909.91 5.0559 2.87668 0
M  V30 18292 N 1908.89 4.40109 3.1907 0
M  V30 18293 H 1912.69 2.61458 1.34227 0
M  V30 18294 H 1910.21 1.48791 0.650758 0
M  V30 18295 H 1912.2 1.91221 3.70459 0
M  V30 18296 H 1910.86 0.889528 3.12278 0
M  V30 18297 H 1911.87 4.53429 2.50244 0
M  V30 18298 H 1908.55 2.18044 3.56038 0
M  V30 18299 H 1909.94 6.13698 2.73541 0
M  V30 18300 N 1912.66 -0.698586 1.41271 0
M  V30 18301 C 1913.62 -1.7943 1.4261 0
M  V30 18302 C 1914.62 -1.57641 0.317187 0
M  V30 18303 O 1915.81 -1.64369 0.576922 0
M  V30 18304 C 1912.95 -3.17762 1.23452 0
M  V30 18305 H 1914.14 -1.79637 2.40147 0
M  V30 18306 H 1911.69 -0.905916 1.27369 0
M  V30 18307 H 1912.43 -3.23195 0.267431 0
M  V30 18308 H 1912.21 -3.34978 2.03794 0
M  V30 18309 H 1913.7 -3.97751 1.27217 0
M  V30 18310 N 1914.14 -1.27049 -0.93254 0
M  V30 18311 C 1915.36 -1.16011 -1.71919 0
M  V30 18312 C 1915.79 0.279951 -1.86005 0
M  V30 18313 O 1915.15 1.20279 -1.35657 0
M  V30 18314 C 1915.2 -1.84349 -3.09916 0
M  V30 18315 O 1914.3 -1.13816 -3.96383 0
M  V30 18316 H 1913.64 -0.403752 -0.527144 0
M  V30 18317 H 1916.17 -1.6803 -1.16736 0
M  V30 18318 H 1916.18 -1.91516 -3.60258 0
M  V30 18319 H 1914.86 -2.89109 -2.9898 0
M  V30 18320 H 1913.43 -1.14684 -3.54827 0
M  V30 18321 N 1915.62 1.13835 -1.08993 0
M  V30 18322 C 1916.86 1.86663 -0.832848 0
M  V30 18323 C 1917.22 1.81369 0.630021 0
M  V30 18324 O 1918.42 2.49392 1.00285 0
M  V30 18325 C 1916.69 3.31013 -1.34778 0
M  V30 18326 S 1918.25 4.21386 -1.22391 0
M  V30 18327 H 1915.07 0.643982 -0.301344 0
M  V30 18328 H 1917.67 1.3723 -1.39241 0
M  V30 18329 H 1916.38 3.32418 -2.4068 0
M  V30 18330 H 1915.91 3.85506 -0.78415 0
M  V30 18331 H 1917.92 4.95902 -0.172001 0
M  V30 18332 N 1917.1 0.876467 1.3098 0
M  V30 18333 C 1918.03 0.352925 2.30817 0
M  V30 18334 C 1919.01 -0.559675 1.60629 0
M  V30 18335 O 1920.19 -0.475326 1.88293 0
M  V30 18336 C 1917.32 -0.440827 3.44491 0
M  V30 18337 C 1916.28 0.379253 4.26316 0
M  V30 18338 C 1915.6 -0.540582 5.3196 0
M  V30 18339 C 1916.9 1.61682 4.96645 0
M  V30 18340 H 1918.6 1.18719 2.74857 0
M  V30 18341 H 1916.14 0.572316 1.32138 0
M  V30 18342 H 1918.09 -0.817661 4.13391 0
M  V30 18343 H 1916.82 -1.30866 2.99235 0
M  V30 18344 H 1915.48 0.738117 3.59092 0
M  V30 18345 H 1915.13 -1.40588 4.82953 0
M  V30 18346 H 1914.83 0.00427133 5.876 0
M  V30 18347 H 1916.35 -0.914118 6.03719 0
M  V30 18348 H 1917.76 1.31105 5.58108 0
M  V30 18349 H 1916.16 2.10123 5.62111 0
M  V30 18350 H 1917.23 2.36602 4.23258 0
M  V30 18351 N 1918.57 -1.44173 0.636557 0
M  V30 18352 C 1919.52 -2.32472 -0.077248 0
M  V30 18353 C 1920.52 -1.47659 -0.830248 0
M  V30 18354 O 1921.72 -1.63971 -0.742533 0
M  V30 18355 H 1918.1 -0.750726 -0.0437543 0
M  V30 18356 H 1920.07 -2.9042 0.685465 0
M  V30 18357 C 1918.82 -3.31734 -1.04152 0
M  V30 18358 H 1918.14 -3.9701 -0.471531 0
M  V30 18359 H 1919.58 -3.96187 -1.51036 0
M  V30 18360 C 1918.04 -2.61069 -2.12943 0
M  V30 18361 O 1918.57 -2.41366 -3.211 0
M  V30 18362 N 1916.77 -2.20717 -1.8903 0
M  V30 18363 H 1916.32 -2.36941 -1.01077 0
M  V30 18364 H 1916.28 -1.73763 -2.62018 0
M  V30 18365 N 1920.05 -0.377435 -1.53014 0
M  V30 18366 C 1921.3 0.209712 -2.00607 0
M  V30 18367 C 1921.61 1.48891 -1.2685 0
M  V30 18368 O 1922.82 2.15538 -1.65093 0
M  V30 18369 C 1921.28 0.424271 -3.5739 0
M  V30 18370 C 1920.88 -0.840982 -4.40036 0
M  V30 18371 C 1922.63 0.968428 -4.13306 0
M  V30 18372 C 1920.53 -0.595355 -5.88396 0
M  V30 18373 H 1919.46 0.0821436 -0.749512 0
M  V30 18374 H 1922.12 -0.498005 -1.76613 0
M  V30 18375 H 1920.5 1.19354 -3.77585 0
M  V30 18376 H 1921.67 -1.61396 -4.31611 0
M  V30 18377 H 1919.99 -1.30922 -3.95283 0
M  V30 18378 H 1922.58 1.16771 -5.21794 0
M  V30 18379 H 1922.93 1.93405 -3.68647 0
M  V30 18380 H 1923.46 0.259025 -3.96956 0
M  V30 18381 H 1920.2 -1.53164 -6.37355 0
M  V30 18382 H 1919.72 0.138904 -5.99639 0
M  V30 18383 H 1921.4 -0.225366 -6.46607 0
M  V30 18384 N 1921.53 1.57237 -0.106922 0
M  V30 18385 C 1922.94 1.81906 0.420368 0
M  V30 18386 C 1923.29 1.02332 1.67399 0
M  V30 18387 O 1922.42 0.256247 2.14877 0
M  V30 18388 C 1923.01 3.29947 0.769432 0
M  V30 18389 C 1921.57 3.55339 1.24141 0
M  V30 18390 C 1920.72 2.76224 0.243997 0
M  V30 18391 H 1923.67 1.55184 -0.332216 0
M  V30 18392 H 1923.69 3.43916 1.62794 0
M  V30 18393 H 1923.2 3.87836 -0.14316 0
M  V30 18394 H 1921.3 3.02795 2.17131 0
M  V30 18395 H 1921.42 4.63956 1.19508 0
M  V30 18396 H 1919.78 2.44057 0.728574 0
M  V30 18397 H 1920.56 3.36867 -0.661482 0
M  V30 18398 N 1923.01 -0.166818 1.56715 0
M  V30 18399 C 1924.26 -0.880972 1.81888 0
M  V30 18400 C 1924.58 -1.82586 0.68465 0
M  V30 18401 O 1923.85 -1.93663 -0.295173 0
M  V30 18402 H 1922.43 -0.32831 0.670985 0
M  V30 18403 H 1925.09 -0.165558 1.94196 0
M  V30 18404 H 1924.19 -1.45517 2.761 0
M  V30 18405 N 1924.49 -1.51463 -0.435524 0
M  V30 18406 C 1925.71 -1.68316 -1.21179 0
M  V30 18407 C 1926.14 -0.380709 -1.84207 0
M  V30 18408 O 1925.49 0.659318 -1.68887 0
M  V30 18409 C 1925.54 -2.80168 -2.27021 0
M  V30 18410 O 1924.65 -2.43897 -3.32548 0
M  V30 18411 H 1923.99 -0.561165 -0.35495 0
M  V30 18412 H 1926.52 -1.98036 -0.514097 0
M  V30 18413 H 1926.53 -3.04305 -2.71776 0
M  V30 18414 H 1925.2 -3.74678 -1.80524 0
M  V30 18415 H 1923.78 -2.30337 -2.93256 0
M  V30 18416 N 1925.96 0.691085 -1.4164 0
M  V30 18417 C 1927.21 1.45114 -1.41238 0
M  V30 18418 C 1927.54 1.94486 -0.0230695 0
M  V30 18419 O 1926.79 1.70206 0.96583 0
M  V30 18420 C 1927.09 2.67547 -2.36967 0
M  V30 18421 C 1926.76 2.36807 -3.8371 0
M  V30 18422 C 1925.42 2.28134 -4.23684 0
M  V30 18423 C 1927.77 2.11542 -4.7634 0
M  V30 18424 C 1925.1 1.92299 -5.54291 0
M  V30 18425 C 1927.45 1.77214 -6.07271 0
M  V30 18426 C 1926.12 1.6704 -6.46262 0
M  V30 18427 H 1925.39 0.531011 -0.516825 0
M  V30 18428 H 1928.03 0.789481 -1.74469 0
M  V30 18429 H 1926.34 3.38668 -1.97006 0
M  V30 18430 H 1928.04 3.25697 -2.33928 0
M  V30 18431 H 1924.63 2.44453 -3.52052 0
M  V30 18432 H 1928.81 2.17184 -4.46256 0
M  V30 18433 H 1924.07 1.82978 -5.83377 0
M  V30 18434 H 1928.24 1.56685 -6.78545 0
M  V30 18435 H 1925.87 1.3904 -7.47377 0
M  V30 18436 N 1927.44 1.27542 0.925789 0
M  V30 18437 C 1928.67 1.16921 1.71301 0
M  V30 18438 C 1929.09 -0.270082 1.86151 0
M  V30 18439 O 1928.45 -1.19558 1.36293 0
M  V30 18440 C 1928.5 1.8599 3.08934 0
M  V30 18441 O 1927.6 1.15917 3.95774 0
M  V30 18442 H 1926.94 0.406542 0.524995 0
M  V30 18443 H 1929.47 1.68646 1.15843 0
M  V30 18444 H 1929.48 1.93424 3.59237 0
M  V30 18445 H 1928.16 2.9069 2.97443 0
M  V30 18446 H 1926.74 1.16564 3.54213 0
M  V30 18447 N 1928.92 -1.13255 1.09595 0
M  V30 18448 C 1930.16 -1.86219 0.842735 0
M  V30 18449 C 1930.52 -1.81701 -0.620393 0
M  V30 18450 O 1931.73 -2.4992 -0.989606 0
M  V30 18451 C 1930 -3.30294 1.36532 0
M  V30 18452 S 1931.56 -4.20731 1.24624 0
M  V30 18453 H 1928.37 -0.642375 0.304755 0
M  V30 18454 H 1930.98 -1.3649 1.39967 0
M  V30 18455 H 1929.68 -3.31137 2.42439 0
M  V30 18456 H 1929.21 -3.85084 0.804584 0
M  V30 18457 H 1931.23 -4.95804 0.198297 0
M  V30 18458 N 1930.4 -0.883401 -1.30514 0
M  V30 18459 C 1931.81 -0.577183 -1.48798 0
M  V30 18460 C 1932.01 0.885462 -1.81002 0
M  V30 18461 O 1931.07 1.66679 -1.89669 0
M  V30 18462 C 1932.38 -1.48898 -2.61247 0
M  V30 18463 C 1933.93 -1.49244 -2.75128 0
M  V30 18464 C 1934.41 -2.39012 -3.90688 0
M  V30 18465 N 1935.9 -2.36967 -3.97996 0
M  V30 18466 C 1936.63 -3.03138 -4.86718 0
M  V30 18467 N 1936.13 -3.78529 -5.80248 0
M  V30 18468 N 1937.92 -2.92378 -4.80074 0
M  V30 18469 H 1930.07 -1.82963 -1.07882 0
M  V30 18470 H 1932.34 -0.783078 -0.534315 0
M  V30 18471 H 1932.04 -2.53035 -2.44266 0
M  V30 18472 H 1931.92 -1.19739 -3.5769 0
M  V30 18473 H 1934.3 -0.458579 -2.91515 0
M  V30 18474 H 1934.38 -1.82432 -1.7931 0
M  V30 18475 H 1934.03 -3.42482 -3.75058 0
M  V30 18476 H 1933.96 -2.03141 -4.85841 0
M  V30 18477 H 1936.45 -1.82179 -3.31088 0
M  V30 18478 H 1936.76 -4.26115 -6.44706 0
M  V30 18479 H 1935.11 -3.82636 -5.80185 0
M  V30 18480 H 1938.3 -2.33008 -4.05986 0
M  V30 18481 H 1938.47 -3.44225 -5.49011 0
M  V30 18482 N 1931.88 1.43833 -0.644194 0
M  V30 18483 C 1933.12 2.03793 -0.157409 0
M  V30 18484 C 1933.48 1.49666 1.20267 0
M  V30 18485 O 1934.68 2.01212 1.78233 0
M  V30 18486 C 1932.95 3.57053 -0.157514 0
M  V30 18487 S 1934.51 4.38013 0.262743 0
M  V30 18488 H 1931.33 0.707788 -0.0675047 0
M  V30 18489 H 1933.93 1.7603 -0.85051 0
M  V30 18490 H 1932.64 3.9395 -1.15027 0
M  V30 18491 H 1932.17 3.89445 0.556416 0
M  V30 18492 H 1934.18 4.72863 1.50384 0
M  V30 18493 N 1933.35 0.385544 1.52811 0
M  V30 18494 C 1934.28 -0.442951 2.2926 0
M  V30 18495 C 1935.27 -1.06674 1.32494 0
M  V30 18496 O 1936.45 -1.08022 1.61384 0
M  V30 18497 C 1933.58 -1.57243 3.09664 0
M  V30 18498 C 1932.53 -1.07488 4.14283 0
M  V30 18499 C 1931.86 -2.29614 4.82889 0
M  V30 18500 C 1933.16 -0.145479 5.22097 0
M  V30 18501 H 1934.85 0.1949 2.98765 0
M  V30 18502 H 1932.4 0.0951762 1.43685 0
M  V30 18503 H 1934.35 -2.15882 3.61902 0
M  V30 18504 H 1933.08 -2.23781 2.37885 0
M  V30 18505 H 1931.74 -0.511047 3.6302 0
M  V30 18506 H 1931.38 -2.94653 4.07662 0
M  V30 18507 H 1931.08 -1.96985 5.53598 0
M  V30 18508 H 1932.61 -2.88902 5.37929 0
M  V30 18509 H 1934.02 -0.639941 5.69717 0
M  V30 18510 H 1932.42 0.0908687 6.00031 0
M  V30 18511 H 1933.49 0.806707 4.78142 0
M  V30 18512 N 1934.83 -1.57178 0.115259 0
M  V30 18513 C 1936.24 -1.82126 -0.410715 0
M  V30 18514 C 1936.59 -1.03219 -1.66854 0
M  V30 18515 O 1935.72 -0.267639 -2.14739 0
M  V30 18516 C 1936.31 -3.30351 -0.751923 0
M  V30 18517 C 1934.87 -3.55993 -1.22255 0
M  V30 18518 C 1934.02 -2.7635 -0.229344 0
M  V30 18519 H 1936.97 -1.55005 0.340441 0
M  V30 18520 H 1936.99 -3.44775 -1.60968 0
M  V30 18521 H 1936.5 -3.87754 0.163726 0
M  V30 18522 H 1934.61 -3.03942 -2.15522 0
M  V30 18523 H 1934.72 -4.64583 -1.17046 0
M  V30 18524 H 1933.08 -2.4444 -0.715621 0
M  V30 18525 H 1933.87 -3.36511 0.679337 0
M  V30 18526 N 1936.31 0.158505 -1.56801 0
M  V30 18527 C 1937.56 0.871313 -1.82353 0
M  V30 18528 C 1937.88 1.8222 -0.694324 0
M  V30 18529 O 1937.15 1.93817 0.284899 0
M  V30 18530 H 1935.73 0.324747 -0.672717 0
M  V30 18531 H 1938.39 0.155257 -1.94281 0
M  V30 18532 H 1937.49 1.44051 -2.76868 0
M  V30 18533 N 1937.79 1.51692 0.427485 0
M  V30 18534 C 1939.04 1.66051 1.17468 0
M  V30 18535 C 1939.39 0.376785 1.88675 0
M  V30 18536 O 1938.68 -0.627916 1.81019 0
M  V30 18537 C 1938.88 2.80871 2.21011 0
M  V30 18538 C 1938.71 4.20286 1.59969 0
M  V30 18539 C 1937.48 4.86081 1.38033 0
M  V30 18540 C 1939.67 5.03035 1.07054 0
M  V30 18541 N 1937.66 6.09581 0.726917 0
M  V30 18542 C 1939.03 6.17618 0.54297 0
M  V30 18543 C 1941.08 4.88494 0.96324 0
M  V30 18544 C 1939.79 7.19254 -0.0813641 0
M  V30 18545 C 1941.81 5.90347 0.352786 0
M  V30 18546 C 1941.17 7.04209 -0.164194 0
M  V30 18547 H 1937.27 0.661434 0.417167 0
M  V30 18548 H 1939.86 1.88948 0.469779 0
M  V30 18549 H 1938.03 2.59622 2.88879 0
M  V30 18550 H 1939.76 2.8436 2.8796 0
M  V30 18551 H 1936.51 4.44121 1.6448 0
M  V30 18552 H 1936.94 6.75712 0.417364 0
M  V30 18553 H 1941.58 4.00709 1.34879 0
M  V30 18554 H 1939.3 8.06679 -0.479018 0
M  V30 18555 H 1942.88 5.81166 0.271533 0
M  V30 18556 H 1941.76 7.81672 -0.629128 0
M  V30 18557 N 1939.27 -0.683564 1.42004 0
M  V30 18558 C 1940.51 -1.44577 1.42216 0
M  V30 18559 C 1940.85 -1.94168 0.0352735 0
M  V30 18560 O 1940.12 -1.70331 -0.939023 0
M  V30 18561 C 1940.4 -2.64909 2.43916 0
M  V30 18562 C 1940.26 -2.21006 3.9176 0
M  V30 18563 C 1941.58 -3.6712 2.42716 0
M  V30 18564 H 1938.7 -0.524376 0.517879 0
M  V30 18565 H 1941.34 -0.777575 1.7336 0
M  V30 18566 H 1939.49 -3.21918 2.17489 0
M  V30 18567 H 1941.16 -1.69233 4.29136 0
M  V30 18568 H 1939.4 -1.52667 4.06048 0
M  V30 18569 H 1940.07 -3.07401 4.58485 0
M  V30 18570 H 1942.55 -3.1981 2.66197 0
M  V30 18571 H 1941.43 -4.48907 3.15869 0
M  V30 18572 H 1941.69 -4.17645 1.45 0
M  V30 18573 N 1940.75 -1.28031 -0.919012 0
M  V30 18574 C 1941.99 -1.14651 -1.66432 0
M  V30 18575 C 1942.31 0.306395 -1.92578 0
M  V30 18576 O 1941.58 1.2131 -1.5382 0
M  V30 18577 H 1940.16 -0.421307 -0.616854 0
M  V30 18578 H 1942.83 -1.60684 -1.10302 0
M  V30 18579 H 1941.92 -1.68214 -2.62888 0
M  V30 18580 N 1942.22 1.12672 -1.10194 0
M  V30 18581 C 1943.5 1.80442 -0.75499 0
M  V30 18582 C 1943.88 1.96988 0.758887 0
M  V30 18583 O 1943.23 1.54424 1.6842 0
M  V30 18584 C 1943.44 3.14969 -1.50317 0
M  V30 18585 C 1944.79 3.90205 -1.67409 0
M  V30 18586 O 1945.81 3.24618 -1.46634 0
M  V30 18587 O 1944.67 5.07864 -2.01833 0
M  V30 18588 H 1941.76 0.780952 -0.272109 0
M  V30 18589 H 1944.31 1.1953 -1.20461 0
M  V30 18590 H 1943.08 2.98202 -2.5336 0
M  V30 18591 H 1942.7 3.83587 -1.04625 0
M  V30 18592 N 1943.7 0.89031 1.30043 0
M  V30 18593 C 1944.95 0.51044 1.95548 0
M  V30 18594 C 1945.27 -0.944562 1.70596 0
M  V30 18595 O 1944.54 -1.66482 1.0325 0
M  V30 18596 H 1943.12 0.185776 0.723531 0
M  V30 18597 H 1945.78 1.13455 1.58474 0
M  V30 18598 H 1944.88 0.685155 3.04487 0
M  V30 18599 N 1945.18 -1.43489 0.651812 0
M  V30 18600 C 1946.43 -2.0183 0.164632 0
M  V30 18601 C 1946.75 -1.51408 -1.2209 0
M  V30 18602 O 1946.01 -0.697062 -1.82865 0
M  V30 18603 C 1946.31 -3.57189 0.122885 0
M  V30 18604 C 1945.97 -4.2695 1.44997 0
M  V30 18605 C 1944.64 -4.45724 1.81339 0
M  V30 18606 C 1946.99 -4.66468 2.32501 0
M  V30 18607 C 1944.32 -5.0128 3.04853 0
M  V30 18608 C 1946.67 -5.23393 3.55306 0
M  V30 18609 C 1945.33 -5.40383 3.91845 0
M  V30 18610 H 1944.6 -0.738547 0.0602433 0
M  V30 18611 H 1947.25 -1.71984 0.842241 0
M  V30 18612 H 1945.55 -3.86568 -0.638169 0
M  V30 18613 H 1947.25 -4.00084 -0.270911 0
M  V30 18614 H 1943.84 -4.12682 1.15721 0
M  V30 18615 H 1948.03 -4.51658 2.05715 0
M  V30 18616 H 1943.28 -5.1262 3.33213 0
M  V30 18617 H 1947.46 -5.52961 4.23329 0
M  V30 18618 H 1945.08 -5.83197 4.87632 0
M  V30 18619 N 1946.66 -0.393643 -1.52605 0
M  V30 18620 C 1947.57 0.446642 -2.30309 0
M  V30 18621 C 1948.58 1.06758 -1.374 0
M  V30 18622 O 1949.76 1.07246 -1.70471 0
M  V30 18623 C 1946.82 1.5564 -3.09802 0
M  V30 18624 C 1945.89 0.960113 -4.18426 0
M  V30 18625 C 1945.12 2.01698 -4.94119 0
M  V30 18626 O 1945.34 3.23273 -4.69947 0
M  V30 18627 O 1944.28 1.63186 -5.79357 0
M  V30 18628 H 1948.1 -0.186494 -3.03127 0
M  V30 18629 H 1945.69 -0.157245 -1.4857 0
M  V30 18630 H 1947.57 2.201 -3.59352 0
M  V30 18631 H 1946.24 2.17442 -2.39793 0
M  V30 18632 H 1945.15 0.278648 -3.73061 0
M  V30 18633 H 1946.48 0.386245 -4.90682 0
M  V30 18634 N 1948.14 1.57115 -0.123593 0
M  V30 18635 C 1949.38 1.97238 0.536324 0
M  V30 18636 C 1949.74 1.00568 1.63554 0
M  V30 18637 O 1950.94 1.29647 2.35468 0
M  V30 18638 C 1949.21 3.41596 1.05106 0
M  V30 18639 S 1950.77 4.03734 1.71886 0
M  V30 18640 H 1947.59 0.689335 0.17418 0
M  V30 18641 H 1950.19 1.94371 -0.209763 0
M  V30 18642 H 1948.89 4.09698 0.239937 0
M  V30 18643 H 1948.43 3.48123 1.83231 0
M  V30 18644 H 1950.44 3.94867 3.0049 0
M  V30 18645 N 1949.61 -0.150187 1.56883 0
M  V30 18646 C 1950.56 -1.19064 1.94442 0
M  V30 18647 C 1951.55 -1.38715 0.815284 0
M  V30 18648 O 1952.74 -1.40331 1.07871 0
M  V30 18649 C 1949.87 -2.52506 2.32585 0
M  V30 18650 C 1948.95 -2.3646 3.52062 0
M  V30 18651 N 1949.35 -1.90165 4.68691 0
M  V30 18652 C 1947.64 -2.67222 3.57083 0
M  V30 18653 C 1948.34 -1.87087 5.50793 0
M  V30 18654 N 1947.32 -2.30281 4.92414 0
M  V30 18655 H 1951.12 -0.824746 2.82091 0
M  V30 18656 H 1948.64 -0.358273 1.58399 0
M  V30 18657 H 1950.63 -3.27717 2.57696 0
M  V30 18658 H 1949.29 -2.8988 1.46286 0
M  V30 18659 H 1950.3 -1.60179 4.92507 0
M  V30 18660 H 1946.98 -3.08492 2.81316 0
M  V30 18661 H 1948.37 -1.52813 6.54292 0
M  V30 18662 N 1951.09 -1.51916 -0.419434 0
M  V30 18663 C 1952.37 -1.56023 -1.17967 0
M  V30 18664 C 1952.75 -0.335094 -2.08423 0
M  V30 18665 O 1952.1 0.678731 -2.18187 0
M  V30 18666 C 1952.31 -2.8836 -1.96595 0
M  V30 18667 C 1953.66 -3.40979 -2.53019 0
M  V30 18668 O 1954.68 -2.90031 -2.06786 0
M  V30 18669 O 1953.54 -4.2992 -3.37388 0
M  V30 18670 H 1950.63 -0.628035 -0.538053 0
M  V30 18671 H 1953.18 -1.64239 -0.42705 0
M  V30 18672 H 1951.95 -3.6898 -1.30267 0
M  V30 18673 H 1951.57 -2.83389 -2.78884 0
M  V30 18674 N 1952.57 0.676023 -1.42365 0
M  V30 18675 C 1953.5 1.80165 -1.48536 0
M  V30 18676 C 1954.48 1.66625 -0.342049 0
M  V30 18677 O 1955.67 1.86065 -0.55619 0
M  V30 18678 C 1952.8 3.18451 -1.38586 0
M  V30 18679 C 1951.75 3.46724 -2.50931 0
M  V30 18680 C 1951.08 4.84572 -2.2604 0
M  V30 18681 C 1952.38 3.4374 -3.93243 0
M  V30 18682 H 1954.07 1.75258 -2.42745 0
M  V30 18683 H 1951.62 0.841756 -1.16835 0
M  V30 18684 H 1953.57 3.96929 -1.41511 0
M  V30 18685 H 1952.29 3.24033 -0.408703 0
M  V30 18686 H 1950.95 2.70607 -2.47321 0
M  V30 18687 H 1950.6 4.86802 -1.2662 0
M  V30 18688 H 1950.3 5.04452 -3.01334 0
M  V30 18689 H 1951.82 5.65336 -2.30712 0
M  V30 18690 H 1953.24 4.12189 -3.98463 0
M  V30 18691 H 1951.64 3.75155 -4.68379 0
M  V30 18692 H 1952.71 2.42337 -4.20001 0
M  V30 18693 N 1954.05 1.28517 0.912209 0
M  V30 18694 C 1955.33 1.0646 1.6409 0
M  V30 18695 C 1955.71 -0.395521 2.07362 0
M  V30 18696 O 1955.05 -1.3819 1.81978 0
M  V30 18697 C 1955.26 2.04064 2.83123 0
M  V30 18698 C 1956.61 2.34295 3.54106 0
M  V30 18699 O 1957.64 2.0216 2.93274 0
M  V30 18700 O 1956.49 2.89146 4.63742 0
M  V30 18701 H 1953.59 0.406984 0.719926 0
M  V30 18702 H 1956.13 1.39841 0.961378 0
M  V30 18703 H 1954.91 3.02467 2.48253 0
M  V30 18704 H 1954.53 1.71338 3.58788 0
M  V30 18705 N 1955.53 -1.12086 1.1079 0
M  V30 18706 C 1956.44 -2.21514 0.772578 0
M  V30 18707 C 1957.45 -1.72454 -0.231462 0
M  V30 18708 O 1958.63 -2.01281 -0.0693074 0
M  V30 18709 C 1955.69 -3.46043 0.213364 0
M  V30 18710 C 1954.75 -4.09925 1.27515 0
M  V30 18711 C 1953.99 -5.28509 0.742524 0
M  V30 18712 O 1954.21 -5.68779 -0.429786 0
M  V30 18713 O 1953.14 -5.82802 1.50417 0
M  V30 18714 H 1956.97 -2.52596 1.68608 0
M  V30 18715 H 1954.56 -1.20492 0.883294 0
M  V30 18716 H 1956.44 -4.21294 -0.0944683 0
M  V30 18717 H 1955.11 -3.16628 -0.672947 0
M  V30 18718 H 1954.02 -3.36436 1.63589 0
M  V30 18719 H 1955.35 -4.43504 2.13461 0
M  V30 18720 N 1957 -0.897194 -1.29569 0
M  V30 18721 C 1958.24 -0.528705 -1.97444 0
M  V30 18722 C 1958.61 0.907603 -1.69194 0
M  V30 18723 O 1959.81 1.38284 -2.30502 0
M  V30 18724 C 1958.08 -0.810047 -3.48099 0
M  V30 18725 S 1959.64 -0.545491 -4.35396 0
M  V30 18726 H 1956.46 -0.196241 -0.683382 0
M  V30 18727 H 1959.06 -1.15909 -1.57434 0
M  V30 18728 H 1957.76 -1.85366 -3.66153 0
M  V30 18729 H 1957.29 -0.167682 -3.93042 0
M  V30 18730 H 1959.31 0.610577 -4.92429 0
M  V30 18731 N 1958.48 1.43142 -0.659413 0
M  V30 18732 C 1959.73 2.02038 -0.175593 0
M  V30 18733 C 1960.06 1.5194 1.20946 0
M  V30 18734 O 1959.34 0.715095 1.80877 0
M  V30 18735 C 1959.62 3.59581 -0.193256 0
M  V30 18736 C 1959.47 4.19896 -1.61267 0
M  V30 18737 C 1960.79 4.37616 0.466976 0
M  V30 18738 H 1957.91 0.734103 -0.0652811 0
M  V30 18739 H 1960.55 1.7036 -0.841276 0
M  V30 18740 H 1958.7 3.867 0.373574 0
M  V30 18741 H 1960.37 4.03786 -2.23056 0
M  V30 18742 H 1958.62 3.7631 -2.15807 0
M  V30 18743 H 1959.29 5.28999 -1.57683 0
M  V30 18744 H 1961.76 4.16097 -0.0153667 0
M  V30 18745 H 1960.64 5.47261 0.423915 0
M  V30 18746 H 1960.9 4.14332 1.54211 0
M  V30 18747 N 1959.96 0.40173 1.52394 0
M  V30 18748 C 1961.19 -0.178662 2.06629 0
M  V30 18749 C 1961.61 -1.3871 1.27048 0
M  V30 18750 O 1960.97 -1.78821 0.298765 0
M  V30 18751 C 1961.02 -0.514797 3.56906 0
M  V30 18752 O 1960.12 -1.60691 3.79805 0
M  V30 18753 H 1959.46 -0.0174284 0.663771 0
M  V30 18754 H 1961.99 0.572792 1.96419 0
M  V30 18755 H 1962 -0.775554 4.00561 0
M  V30 18756 H 1960.68 0.368624 4.14263 0
M  V30 18757 H 1959.25 -1.3389 3.48034 0
M  V30 18758 N 1961.44 -1.57047 0.131923 0
M  V30 18759 C 1962.37 -2.13088 -0.844174 0
M  V30 18760 C 1963.38 -1.07666 -1.22114 0
M  V30 18761 O 1964.57 -1.34995 -1.16784 0
M  V30 18762 C 1961.67 -2.62623 -2.14201 0
M  V30 18763 C 1960.85 -3.92283 -1.93475 0
M  V30 18764 C 1959.9 -4.27284 -3.07107 0
M  V30 18765 O 1958.93 -4.95876 -2.79456 0
M  V30 18766 N 1960.13 -3.85646 -4.33887 0
M  V30 18767 H 1962.9 -2.97465 -0.365306 0
M  V30 18768 H 1960.46 -1.61816 -0.0521136 0
M  V30 18769 H 1962.45 -2.8306 -2.89239 0
M  V30 18770 H 1961.02 -1.83054 -2.53397 0
M  V30 18771 H 1960.24 -3.80625 -1.02558 0
M  V30 18772 H 1961.53 -4.7704 -1.76947 0
M  V30 18773 H 1960.93 -3.30348 -4.59224 0
M  V30 18774 H 1959.48 -4.11165 -5.05754 0
M  V30 18775 N 1962.92 0.141865 -1.5696 0
M  V30 18776 C 1963.83 1.19435 -2.01922 0
M  V30 18777 C 1964.84 1.4671 -0.935527 0
M  V30 18778 O 1966.02 1.58279 -1.24538 0
M  V30 18779 C 1963.08 2.50665 -2.39516 0
M  V30 18780 C 1962.14 2.30991 -3.61859 0
M  V30 18781 C 1961.38 3.55963 -3.9765 0
M  V30 18782 O 1961.6 4.62354 -3.34044 0
M  V30 18783 O 1960.53 3.48322 -4.90872 0
M  V30 18784 H 1964.36 0.842613 -2.91777 0
M  V30 18785 H 1961.95 0.350973 -1.45219 0
M  V30 18786 H 1963.83 3.28024 -2.64534 0
M  V30 18787 H 1962.5 2.85358 -1.52815 0
M  V30 18788 H 1961.41 1.51565 -3.42022 0
M  V30 18789 H 1962.74 2.01211 -4.49194 0
M  V30 18790 N 1964.39 1.52136 0.411372 0
M  V30 18791 C 1965.34 1.717 1.50011 0
M  V30 18792 C 1966.33 0.570895 1.50431 0
M  V30 18793 O 1967.52 0.827873 1.56446 0
M  V30 18794 C 1964.65 1.86904 2.87961 0
M  V30 18795 C 1963.74 3.07379 2.92197 0
M  V30 18796 N 1964.13 4.30124 2.66133 0
M  V30 18797 C 1962.42 3.07167 3.23365 0
M  V30 18798 C 1963.13 5.11579 2.76879 0
M  V30 18799 N 1962.1 4.46777 3.09663 0
M  V30 18800 H 1965.9 2.64246 1.28651 0
M  V30 18801 H 1963.42 1.50138 0.61905 0
M  V30 18802 H 1965.41 1.99036 3.6632 0
M  V30 18803 H 1964.07 0.955566 3.10321 0
M  V30 18804 H 1965.09 4.58635 2.4057 0
M  V30 18805 H 1961.76 2.25548 3.51333 0
M  V30 18806 H 1963.15 6.19362 2.60463 0
M  V30 18807 N 1965.87 -0.668464 1.42721 0
M  V30 18808 C 1967.29 -0.982344 1.25786 0
M  V30 18809 C 1967.49 -2.0081 0.166593 0
M  V30 18810 O 1966.55 -2.48273 -0.460069 0
M  V30 18811 C 1967.86 -1.48112 2.61693 0
M  V30 18812 C 1969.41 -1.59856 2.691 0
M  V30 18813 C 1969.88 -2.13128 4.05389 0
M  V30 18814 N 1971.37 -2.20452 4.07376 0
M  V30 18815 C 1972.11 -2.62761 5.09651 0
M  V30 18816 N 1971.6 -3.04475 6.22308 0
M  V30 18817 N 1973.4 -2.62565 4.97007 0
M  V30 18818 H 1965.55 0.0105662 2.12397 0
M  V30 18819 H 1967.81 -0.0578161 0.946235 0
M  V30 18820 H 1967.52 -0.801884 3.42436 0
M  V30 18821 H 1967.39 -2.45879 2.86048 0
M  V30 18822 H 1969.78 -2.26885 1.88699 0
M  V30 18823 H 1969.86 -0.605621 2.48527 0
M  V30 18824 H 1969.5 -1.46707 4.8625 0
M  V30 18825 H 1969.43 -3.13225 4.23317 0
M  V30 18826 H 1971.92 -1.91049 3.2605 0
M  V30 18827 H 1972.24 -3.35463 6.96193 0
M  V30 18828 H 1970.58 -3.02317 6.25803 0
M  V30 18829 H 1973.77 -2.29343 4.08068 0
M  V30 18830 H 1973.95 -2.95217 5.76846 0
M  V30 18831 N 1967.35 -1.28999 -0.905381 0
M  V30 18832 C 1968.59 -1.17901 -1.66969 0
M  V30 18833 C 1968.96 0.26635 -1.90144 0
M  V30 18834 O 1970.16 0.500188 -2.64105 0
M  V30 18835 C 1968.43 -1.9641 -2.98593 0
M  V30 18836 S 1969.99 -2.01783 -3.89653 0
M  V30 18837 H 1966.8 -0.420505 -0.573321 0
M  V30 18838 H 1969.41 -1.6321 -1.07624 0
M  V30 18839 H 1968.11 -3.00573 -2.79435 0
M  V30 18840 H 1967.64 -1.51684 -3.62981 0
M  V30 18841 H 1969.66 -1.13039 -4.83153 0
M  V30 18842 N 1968.83 1.11497 -1.11383 0
M  V30 18843 C 1970.05 1.87567 -0.885056 0
M  V30 18844 C 1970.48 1.79581 0.559675 0
M  V30 18845 O 1969.84 1.15779 1.39517 0
M  V30 18846 C 1969.89 3.34354 -1.35053 0
M  V30 18847 O 1968.99 4.09085 -0.521865 0
M  V30 18848 H 1968.33 0.582433 -0.318853 0
M  V30 18849 H 1970.86 1.4094 -1.48314 0
M  V30 18850 H 1970.87 3.85201 -1.34478 0
M  V30 18851 H 1969.55 3.39484 -2.40257 0
M  V30 18852 H 1968.12 3.68144 -0.593669 0
M  V30 18853 N 1970.31 0.904053 1.29092 0
M  V30 18854 C 1971.72 0.580096 1.77459 0
M  V30 18855 C 1972.07 -0.904375 1.74113 0
M  V30 18856 O 1971.19 -1.70724 1.32975 0
M  V30 18857 C 1971.79 1.04624 3.22241 0
M  V30 18858 C 1970.35 0.773375 3.68369 0
M  V30 18859 C 1969.5 1.21848 2.49095 0
M  V30 18860 H 1972.45 1.08633 1.15692 0
M  V30 18861 H 1972.47 0.383425 3.78563 0
M  V30 18862 H 1971.98 2.12669 3.24644 0
M  V30 18863 H 1970.08 -0.294271 3.71436 0
M  V30 18864 H 1970.19 1.37431 4.58966 0
M  V30 18865 H 1968.56 0.63739 2.46596 0
M  V30 18866 H 1969.34 2.30706 2.54223 0
M  V30 18867 N 1971.79 -1.4279 0.666995 0
M  V30 18868 C 1973.2 -1.56027 0.335817 0
M  V30 18869 C 1973.4 -1.64812 -1.15928 0
M  V30 18870 O 1972.46 -1.61074 -1.94451 0
M  V30 18871 C 1973.77 -2.81425 1.05928 0
M  V30 18872 C 1975.32 -2.95187 1.04085 0
M  V30 18873 C 1975.79 -4.23435 1.74548 0
M  V30 18874 N 1977.28 -4.3033 1.71379 0
M  V30 18875 C 1978.02 -5.2836 2.22762 0
M  V30 18876 N 1977.52 -6.32589 2.82494 0
M  V30 18877 N 1979.31 -5.20106 2.13182 0
M  V30 18878 H 1971.46 -1.35332 1.63704 0
M  V30 18879 H 1973.72 -0.650895 0.689231 0
M  V30 18880 H 1973.43 -2.81044 2.1144 0
M  V30 18881 H 1973.3 -3.72077 0.619546 0
M  V30 18882 H 1975.69 -2.95099 -0.00591289 0
M  V30 18883 H 1975.77 -2.05786 1.5194 0
M  V30 18884 H 1975.41 -4.24283 2.79189 0
M  V30 18885 H 1975.34 -5.11756 1.24149 0
M  V30 18886 H 1977.84 -3.55633 1.27803 0
M  V30 18887 H 1978.15 -7.03733 3.19343 0
M  V30 18888 H 1976.49 -6.33173 2.86561 0
M  V30 18889 H 1979.68 -4.37597 1.66211 0
M  V30 18890 H 1979.86 -5.96343 2.53534 0
M  V30 18891 N 1973.26 -0.409806 -1.52179 0
M  V30 18892 C 1974.51 0.16543 -2.01422 0
M  V30 18893 C 1974.83 1.45588 -1.29727 0
M  V30 18894 O 1974.1 1.9127 -0.423399 0
M  V30 18895 H 1972.68 0.0641237 -0.744243 0
M  V30 18896 H 1975.34 -0.546204 -1.8709 0
M  V30 18897 H 1974.44 0.361061 -3.10004 0
M  V30 18898 N 1974.74 1.56975 -0.14025 0
M  V30 18899 C 1976.02 1.87494 0.557244 0
M  V30 18900 C 1976.4 1.04507 1.83416 0
M  V30 18901 O 1975.75 0.129958 2.2813 0
M  V30 18902 C 1975.96 3.39006 0.829213 0
M  V30 18903 C 1977.3 4.08077 1.17296 0
M  V30 18904 O 1978.33 3.44146 0.918788 0
M  V30 18905 O 1977.19 5.20966 1.65096 0
M  V30 18906 H 1974.28 0.776892 0.283492 0
M  V30 18907 H 1976.83 1.68781 -0.176354 0
M  V30 18908 H 1975.6 3.91229 -0.0747688 0
M  V30 18909 H 1975.22 3.63224 1.61723 0
M  V30 18910 N 1976.22 -0.133539 1.57033 0
M  V30 18911 C 1977.46 -0.849918 1.85892 0
M  V30 18912 C 1977.82 -1.77731 0.72634 0
M  V30 18913 O 1979.02 -2.53416 0.896316 0
M  V30 18914 C 1977.3 -1.59254 3.19958 0
M  V30 18915 S 1978.85 -2.3525 3.70409 0
M  V30 18916 H 1975.67 -0.283955 0.651836 0
M  V30 18917 H 1978.27 -0.1091 1.95195 0
M  V30 18918 H 1976.98 -0.902961 4.00343 0
M  V30 18919 H 1976.51 -2.37402 3.13694 0
M  V30 18920 H 1978.52 -3.60701 3.40748 0
M  V30 18921 N 1977.7 -1.52352 -0.403298 0
M  V30 18922 C 1978.63 -1.79074 -1.49849 0
M  V30 18923 C 1979.61 -0.642006 -1.57519 0
M  V30 18924 O 1980.79 -0.888182 -1.72699 0
M  V30 18925 C 1977.92 -1.9467 -2.87612 0
M  V30 18926 C 1976.88 -3.10295 -2.9479 0
M  V30 18927 C 1976.2 -3.11122 -4.34864 0
M  V30 18928 C 1977.5 -4.49643 -2.65741 0
M  V30 18929 H 1979.2 -2.70783 -1.27737 0
M  V30 18930 H 1976.74 -1.30298 -0.613064 0
M  V30 18931 H 1978.7 -2.11947 -3.64221 0
M  V30 18932 H 1977.42 -0.996377 -3.1103 0
M  V30 18933 H 1976.08 -2.92778 -2.20627 0
M  V30 18934 H 1975.73 -2.13801 -4.553 0
M  V30 18935 H 1975.43 -3.88786 -4.4059 0
M  V30 18936 H 1976.95 -3.30536 -5.13399 0
M  V30 18937 H 1978.37 -4.67335 -3.3207 0
M  V30 18938 H 1976.76 -5.29268 -2.82835 0
M  V30 18939 H 1977.83 -4.57339 -1.61149 0
M  V30 18940 N 1979.18 0.660885 -1.43074 0
M  V30 18941 C 1980.12 1.79529 -1.47892 0
M  V30 18942 C 1981.12 1.65676 -0.353254 0
M  V30 18943 O 1982.32 1.72115 -0.526903 0
M  V30 18944 H 1978.7 0.592191 -0.46348 0
M  V30 18945 H 1980.67 1.72584 -2.43428 0
M  V30 18946 C 1979.42 3.17753 -1.41167 0
M  V30 18947 H 1978.74 3.29047 -2.27087 0
M  V30 18948 H 1980.18 3.97107 -1.486 0
M  V30 18949 C 1978.64 3.36656 -0.128241 0
M  V30 18950 O 1979.17 3.93376 0.813504 0
M  V30 18951 N 1977.38 2.90571 -0.0408985 0
M  V30 18952 H 1976.92 2.44598 -0.808059 0
M  V30 18953 H 1976.88 3.03595 0.817147 0
M  V30 18954 N 1980.65 1.29477 0.898527 0
M  V30 18955 C 1981.9 1.1769 1.65157 0
M  V30 18956 C 1982.23 -0.270742 1.92303 0
M  V30 18957 O 1981.51 -1.19538 1.5343 0
M  V30 18958 C 1981.79 1.99186 2.99995 0
M  V30 18959 C 1981.64 3.52097 2.79906 0
M  V30 18960 C 1982.96 1.81916 4.00743 0
M  V30 18961 H 1980.08 0.428901 0.599344 0
M  V30 18962 H 1982.72 1.58963 1.04071 0
M  V30 18963 H 1980.87 1.64116 3.52134 0
M  V30 18964 H 1982.55 3.97155 2.3466 0
M  V30 18965 H 1980.79 3.76962 2.14667 0
M  V30 18966 H 1981.46 4.04394 3.75725 0
M  V30 18967 H 1983.94 2.12549 3.57718 0
M  V30 18968 H 1982.81 2.41285 4.93024 0
M  V30 18969 H 1983.07 0.774654 4.3526 0
M  V30 18970 N 1982.13 -1.10905 1.11972 0
M  V30 18971 C 1983.54 -1.64274 0.887191 0
M  V30 18972 C 1983.89 -1.87448 -0.57946 0
M  V30 18973 O 1983.02 -1.61283 -1.4428 0
M  V30 18974 C 1983.61 -2.98425 1.604 0
M  V30 18975 C 1982.17 -3.48679 1.41774 0
M  V30 18976 C 1981.32 -2.2338 1.64307 0
M  V30 18977 H 1984.27 -0.944703 1.27519 0
M  V30 18978 H 1984.29 -3.65662 1.05222 0
M  V30 18979 H 1983.8 -2.81526 2.67142 0
M  V30 18980 H 1981.91 -3.70732 0.372672 0
M  V30 18981 H 1982.02 -4.2711 2.17058 0
M  V30 18982 H 1980.38 -2.31281 1.06683 0
M  V30 18983 H 1981.17 -2.09018 2.72335 0
M  V30 18984 N 1983.61 -0.910886 -1.2861 0
M  V30 18985 C 1984.86 -0.541485 -1.94711 0
M  V30 18986 C 1985.18 0.917302 -1.72077 0
M  V30 18987 O 1984.45 1.64818 -1.05885 0
M  V30 18988 H 1983.03 -0.197263 -0.720483 0
M  V30 18989 H 1985.69 -1.15962 -1.56649 0
M  V30 18990 H 1984.79 -0.73351 -3.03358 0
M  V30 18991 N 1985.09 1.42434 -0.674558 0
M  V30 18992 C 1986.31 2.06399 -0.203545 0
M  V30 18993 C 1986.74 1.50345 1.1304 0
M  V30 18994 O 1986.1 0.621837 1.70302 0
M  V30 18995 C 1986.14 3.60293 -0.148884 0
M  V30 18996 O 1985.25 4.02843 0.882667 0
M  V30 18997 H 1984.59 0.655698 -0.104672 0
M  V30 18998 H 1987.12 1.82572 -0.923502 0
M  V30 18999 H 1987.13 4.07991 0.0273375 0
M  V30 19000 H 1985.8 4.00464 -1.12256 0
M  V30 19001 H 1984.38 3.66694 0.677506 0
M  V30 19002 N 1986.57 0.417871 1.51959 0
M  V30 19003 C 1987.8 -0.154072 2.06025 0
M  V30 19004 C 1988.2 -1.38674 1.2871 0
M  V30 19005 O 1987.55 -1.80628 0.334573 0
M  V30 19006 C 1987.61 -0.560835 3.55098 0
M  V30 19007 C 1987.27 0.562308 4.53527 0
M  V30 19008 C 1988.27 1.42856 4.99888 0
M  V30 19009 C 1985.96 0.737493 4.96856 0
M  V30 19010 C 1987.95 2.45486 5.88231 0
M  V30 19011 C 1985.64 1.7671 5.84993 0
M  V30 19012 C 1986.63 2.62418 6.30576 0
M  V30 19013 O 1986.32 3.63614 7.16966 0
M  V30 19014 H 1986.05 -0.0200365 0.675703 0
M  V30 19015 H 1988.61 0.590014 1.96743 0
M  V30 19016 H 1986.84 -1.35734 3.62096 0
M  V30 19017 H 1988.53 -1.0617 3.91769 0
M  V30 19018 H 1989.29 1.30466 4.67123 0
M  V30 19019 H 1985.17 0.0800067 4.60931 0
M  V30 19020 H 1988.72 3.12418 6.23731 0
M  V30 19021 H 1984.61 1.89127 6.17172 0
M  V30 19022 H 1985.38 3.59962 7.35099 0
M  V30 19023 N 1988.04 -1.56898 0.148573 0
M  V30 19024 C 1989.46 -1.58241 -0.207826 0
M  V30 19025 C 1989.66 -1.16291 -1.64556 0
M  V30 19026 O 1988.72 -0.863939 -2.3726 0
M  V30 19027 C 1990.03 -3.00654 0.0523559 0
M  V30 19028 C 1991.58 -3.12998 -0.0112297 0
M  V30 19029 C 1992.05 -4.57463 0.221641 0
M  V30 19030 N 1993.54 -4.62893 0.168624 0
M  V30 19031 C 1994.28 -5.72488 0.323296 0
M  V30 19032 N 1993.77 -6.90725 0.535776 0
M  V30 19033 N 1995.57 -5.61495 0.26079 0
M  V30 19034 H 1987.72 -1.82459 1.08731 0
M  V30 19035 H 1989.98 -0.8446 0.430529 0
M  V30 19036 H 1989.69 -3.3574 1.04745 0
M  V30 19037 H 1989.56 -3.71268 -0.666346 0
M  V30 19038 H 1991.95 -2.77752 -0.996873 0
M  V30 19039 H 1992.03 -2.44868 0.739826 0
M  V30 19040 H 1991.67 -4.93413 1.20439 0
M  V30 19041 H 1991.6 -5.23722 -0.549756 0
M  V30 19042 H 1994.09 -3.77899 0.00911581 0
M  V30 19043 H 1994.41 -7.70113 0.643862 0
M  V30 19044 H 1992.75 -6.92641 0.572117 0
M  V30 19045 H 1995.94 -4.68002 0.095543 0
M  V30 19046 H 1996.12 -6.46857 0.384765 0
M  V30 19047 N 1989.52 0.125209 -1.57102 0
M  V30 19048 C 1990.76 0.840048 -1.8634 0
M  V30 19049 C 1991.13 1.77343 -0.735756 0
M  V30 19050 O 1992.33 2.52937 -0.909743 0
M  V30 19051 C 1990.6 1.57555 -3.20798 0
M  V30 19052 S 1992.16 2.33282 -3.71652 0
M  V30 19053 H 1988.98 0.280495 -0.653333 0
M  V30 19054 H 1991.58 0.0987469 -1.9525 0
M  V30 19055 H 1990.28 0.881717 -4.00817 0
M  V30 19056 H 1989.81 2.35735 -3.14949 0
M  V30 19057 H 1991.83 3.58888 -3.42657 0
M  V30 19058 N 1991 1.52564 0.395213 0
M  V30 19059 C 1992.23 1.71173 1.16222 0
M  V30 19060 C 1992.64 0.427335 1.839 0
M  V30 19061 O 1992 -0.597726 1.72434 0
M  V30 19062 C 1992.05 2.85698 2.21492 0
M  V30 19063 O 1991.77 4.09165 1.56574 0
M  V30 19064 C 1993.27 3.15934 3.10967 0
M  V30 19065 H 1990.49 0.573277 0.348705 0
M  V30 19066 H 1993.04 1.99186 0.463177 0
M  V30 19067 H 1991.19 2.60165 2.87042 0
M  V30 19068 H 1991.61 4.73086 2.26473 0
M  V30 19069 H 1993.08 3.99548 3.80874 0
M  V30 19070 H 1993.56 2.30059 3.74125 0
M  V30 19071 H 1994.16 3.43284 2.5107 0
M  V30 19072 N 1992.48 -0.653289 1.43422 0
M  V30 19073 C 1993.72 -1.42498 1.46539 0
M  V30 19074 C 1994.08 -1.91802 0.087095 0
M  V30 19075 O 1995.28 -2.68799 -0.00704917 0
M  V30 19076 C 1993.55 -2.57481 2.47868 0
M  V30 19077 S 1995.11 -3.46008 2.69859 0
M  V30 19078 H 1991.93 -0.486421 0.518571 0
M  V30 19079 H 1994.53 -0.758465 1.80188 0
M  V30 19080 H 1993.24 -2.19533 3.46747 0
M  V30 19081 H 1992.77 -3.28983 2.15717 0
M  V30 19082 H 1994.78 -4.54205 1.9978 0
M  V30 19083 N 1993.96 -1.29952 -0.891648 0
M  V30 19084 C 1995.37 -1.08138 -1.17381 0
M  V30 19085 C 1995.57 0.162165 -2.00846 0
M  V30 19086 O 1994.63 0.857667 -2.37488 0
M  V30 19087 C 1995.94 -2.34125 -1.88695 0
M  V30 19088 C 1997.49 -2.39524 -2.01487 0
M  V30 19089 C 1997.96 -3.65336 -2.76213 0
M  V30 19090 N 1999.46 -3.66105 -2.83762 0
M  V30 19091 C 2000.19 -4.6014 -3.42139 0
M  V30 19092 N 1999.69 -5.64513 -4.01617 0
M  V30 19093 N 2001.48 -4.47695 -3.3989 0
M  V30 19094 H 1993.63 -2.09742 -0.334958 0
M  V30 19095 H 1995.89 -0.924239 -0.210916 0
M  V30 19096 H 1995.6 -3.24839 -1.34805 0
M  V30 19097 H 1995.47 -2.42258 -2.89121 0
M  V30 19098 H 1997.86 -1.49293 -2.5455 0
M  V30 19099 H 1997.94 -2.35371 -1.0017 0
M  V30 19100 H 1997.59 -4.55922 -2.23824 0
M  V30 19101 H 1997.52 -3.66749 -3.77893 0
M  V30 19102 H 2000.01 -2.90643 -2.41526 0
M  V30 19103 H 2000.32 -6.32376 -4.44207 0
M  V30 19104 H 1998.66 -5.68313 -4.00056 0
M  V30 19105 H 2001.86 -3.65343 -2.92647 0
M  V30 19106 H 2002.03 -5.21162 -3.85089 0
M  V30 19107 N 1995.44 1.1031 -1.12559 0
M  V30 19108 C 1996.37 2.16497 -0.752435 0
M  V30 19109 C 1997.38 1.61285 0.221548 0
M  V30 19110 O 1998.57 1.785 0.00269501 0
M  V30 19111 C 1995.67 3.38772 -0.0931525 0
M  V30 19112 C 1994.84 4.23422 -1.09693 0
M  V30 19113 C 1993.9 5.24141 -0.465028 0
M  V30 19114 O 1992.93 5.58024 -1.1224 0
M  V30 19115 N 1994.13 5.75411 0.76697 0
M  V30 19116 H 1996.89 2.49118 -1.66614 0
M  V30 19117 H 1994.46 1.25941 -1.01737 0
M  V30 19118 H 1996.45 4.03256 0.341604 0
M  V30 19119 H 1995.02 3.04116 0.723336 0
M  V30 19120 H 1994.24 3.55215 -1.70927 0
M  V30 19121 H 1995.53 4.7681 -1.77565 0
M  V30 19122 H 1994.92 5.50084 1.32 0
M  V30 19123 H 1993.48 6.41673 1.14453 0
M  V30 19124 N 1996.91 0.917694 1.28125 0
M  V30 19125 C 1998.16 0.551804 1.94421 0
M  V30 19126 C 1998.48 -0.908163 1.72561 0
M  V30 19127 O 1997.75 -1.64255 1.06758 0
M  V30 19128 H 1996.33 0.201081 0.719427 0
M  V30 19129 H 1998.99 1.16791 1.56032 0
M  V30 19130 H 1998.09 0.749587 3.02965 0
M  V30 19131 N 1998.39 -1.42074 0.682102 0
M  V30 19132 C 1999.64 -2.01435 0.207406 0
M  V30 19133 C 1999.97 -1.53963 -1.18851 0
M  V30 19134 O 1999.22 -0.735693 -1.81345 0
M  V30 19135 C 1999.52 -3.56848 0.198622 0
M  V30 19136 C 1999.19 -4.23779 1.54021 0
M  V30 19137 C 1997.85 -4.41777 1.90752 0
M  V30 19138 C 2000.2 -4.61432 2.42343 0
M  V30 19139 C 1997.53 -4.94701 3.15417 0
M  V30 19140 C 1999.88 -5.15739 3.66328 0
M  V30 19141 C 1998.54 -5.3195 4.03219 0
M  V30 19142 H 1997.81 -0.737103 0.0758954 0
M  V30 19143 H 2000.46 -1.70159 0.878532 0
M  V30 19144 H 1998.77 -3.87834 -0.556029 0
M  V30 19145 H 2000.46 -4.00568 -0.185986 0
M  V30 19146 H 1997.05 -4.10135 1.24448 0
M  V30 19147 H 2001.24 -4.47193 2.15249 0
M  V30 19148 H 1996.49 -5.05436 3.44012 0
M  V30 19149 H 2000.67 -5.43857 4.34963 0
M  V30 19150 H 1998.29 -5.72723 4.99893 0
M  V30 19151 N 1999.87 -0.425924 -1.51735 0
M  V30 19152 C 2000.83 0.379497 -2.26036 0
M  V30 19153 C 2001.83 0.95944 -1.2904 0
M  V30 19154 O 2003.02 0.83568 -1.52846 0
M  V30 19155 C 2000.15 1.5358 -3.04345 0
M  V30 19156 H 2001.35 -0.271515 -2.98668 0
M  V30 19157 H 1998.9 -0.17882 -1.55274 0
M  V30 19158 H 1999.64 2.2232 -2.36103 0
M  V30 19159 H 1999.42 1.12626 -3.75577 0
M  V30 19160 H 2000.91 2.10513 -3.60658 0
M  V30 19161 N 2001.35 1.56817 -0.156891 0
M  V30 19162 C 2002.6 1.96051 0.490764 0
M  V30 19163 C 2002.92 1.04326 1.64746 0
M  V30 19164 O 2002.19 0.106736 1.95609 0
M  V30 19165 H 2000.77 0.72391 0.184293 0
M  V30 19166 H 2003.43 1.93482 -0.234704 0
M  V30 19167 H 2002.52 3.00007 0.86036 0
M  V30 19168 N 2002.83 -0.116876 1.57166 0
M  V30 19169 C 2004.1 -0.854715 1.75937 0
M  V30 19170 C 2004.48 -1.97969 0.732908 0
M  V30 19171 O 2003.83 -2.27207 -0.242738 0
M  V30 19172 C 2004.04 -1.36944 3.2101 0
M  V30 19173 C 2005.39 -1.82093 3.83572 0
M  V30 19174 O 2006.41 -1.46618 3.24625 0
M  V30 19175 O 2005.27 -2.47614 4.87186 0
M  V30 19176 H 2002.37 -0.40605 0.720453 0
M  V30 19177 H 2004.91 -0.100451 1.69402 0
M  V30 19178 H 2003.68 -0.56241 3.87237 0
M  V30 19179 H 2003.31 -2.18635 3.32091 0
M  V30 19180 N 2004.3 -1.52772 -0.387116 0
M  V30 19181 C 2005.55 -1.67576 -1.12973 0
M  V30 19182 C 2005.87 -0.419122 -1.90443 0
M  V30 19183 O 2005.14 0.566514 -1.8753 0
M  V30 19184 H 2003.72 -0.617716 -0.420043 0
M  V30 19185 H 2006.38 -1.89892 -0.43896 0
M  V30 19186 H 2005.48 -2.52704 -1.83158 0
M  V30 19187 N 2005.78 0.645673 -1.43767 0
M  V30 19188 C 2007.03 1.40547 -1.45783 0
M  V30 19189 C 2007.36 1.94314 -0.0849322 0
M  V30 19190 O 2006.61 1.73193 0.911191 0
M  V30 19191 C 2006.91 2.59872 -2.45359 0
M  V30 19192 C 2006.58 2.2448 -3.91049 0
M  V30 19193 C 2005.24 2.1454 -4.30728 0
M  V30 19194 C 2007.59 1.9628 -4.82829 0
M  V30 19195 C 2004.92 1.74567 -5.60128 0
M  V30 19196 C 2007.27 1.57804 -6.12602 0
M  V30 19197 C 2005.93 1.46395 -6.51249 0
M  V30 19198 H 2005.2 0.5143 -0.533458 0
M  V30 19199 H 2007.85 0.733575 -1.76892 0
M  V30 19200 H 2006.16 3.32229 -2.07681 0
M  V30 19201 H 2007.85 3.1809 -2.44171 0
M  V30 19202 H 2004.44 2.33129 -3.59651 0
M  V30 19203 H 2008.63 2.02877 -4.5294 0
M  V30 19204 H 2003.88 1.64326 -5.88903 0
M  V30 19205 H 2008.06 1.35018 -6.83186 0
M  V30 19206 H 2005.68 1.15193 -7.51422 0
M  V30 19207 N 2007.26 1.30423 0.884744 0
M  V30 19208 C 2008.51 1.19259 1.63657 0
M  V30 19209 C 2008.83 -0.252645 1.92852 0
M  V30 19210 O 2008.09 -1.19718 1.5481 0
M  V30 19211 C 2008.39 1.96681 2.98415 0
M  V30 19212 C 2008.05 3.46298 2.8877 0
M  V30 19213 C 2006.72 3.87098 2.85847 0
M  V30 19214 C 2009.07 4.41573 2.7688 0
M  V30 19215 C 2006.4 5.21464 2.68873 0
M  V30 19216 C 2008.75 5.76047 2.61444 0
M  V30 19217 C 2007.41 6.16085 2.56896 0
M  V30 19218 H 2006.68 0.436399 0.598863 0
M  V30 19219 H 2009.33 1.61527 1.02865 0
M  V30 19220 H 2007.63 1.47049 3.63158 0
M  V30 19221 H 2009.33 1.85436 3.55548 0
M  V30 19222 H 2005.92 3.13877 2.91855 0
M  V30 19223 H 2010.11 4.10994 2.78205 0
M  V30 19224 H 2005.36 5.51577 2.63766 0
M  V30 19225 H 2009.54 6.49509 2.51218 0
M  V30 19226 H 2007.16 7.20147 2.43501 0
M  V30 19227 N 2008.74 -1.09711 1.13142 0
M  V30 19228 C 2009.98 -1.83443 0.901552 0
M  V30 19229 C 2010.34 -1.83582 -0.562273 0
M  V30 19230 O 2011.54 -2.52942 -0.909595 0
M  V30 19231 C 2009.81 -3.25783 1.4697 0
M  V30 19232 S 2011.37 -4.16553 1.37946 0
M  V30 19233 H 2008.19 -0.632354 0.325037 0
M  V30 19234 H 2010.79 -1.31968 1.44238 0
M  V30 19235 H 2009.5 -3.23256 2.52851 0
M  V30 19236 H 2009.03 -3.8233 0.926688 0
M  V30 19237 H 2011.04 -4.94922 0.355933 0
M  V30 19238 N 2010.22 -0.924476 -1.27637 0
M  V30 19239 C 2011.13 -0.426579 -2.30689 0
M  V30 19240 C 2012.14 0.491134 -1.66925 0
M  V30 19241 O 2013.32 0.374724 -1.97883 0
M  V30 19242 C 2010.38 0.31558 -3.45261 0
M  V30 19243 C 2009.44 -0.636655 -4.24553 0
M  V30 19244 C 2008.68 0.0701807 -5.33654 0
M  V30 19245 O 2008.9 1.29011 -5.55619 0
M  V30 19246 O 2007.83 -0.599998 -5.98902 0
M  V30 19247 H 2011.66 -1.28216 -2.75308 0
M  V30 19248 H 2009.25 -0.689699 -1.32527 0
M  V30 19249 H 2011.13 0.734315 -4.14953 0
M  V30 19250 H 2009.8 1.14682 -3.02704 0
M  V30 19251 H 2008.71 -1.105 -3.57408 0
M  V30 19252 H 2010.04 -1.43502 -4.70816 0
M  V30 19253 N 2011.69 1.41711 -0.689627 0
M  V30 19254 C 2012.97 1.95052 -0.146379 0
M  V30 19255 C 2013.35 1.62932 1.34225 0
M  V30 19256 O 2012.7 0.933198 2.08575 0
M  V30 19257 C 2012.91 3.46324 -0.431327 0
M  V30 19258 C 2014.26 4.23106 -0.355847 0
M  V30 19259 O 2015.28 3.54316 -0.365905 0
M  V30 19260 O 2014.14 5.45615 -0.310824 0
M  V30 19261 H 2011.23 0.82692 -0.0115 0
M  V30 19262 H 2013.78 1.5146 -0.765378 0
M  V30 19263 H 2012.55 3.62963 -1.46197 0
M  V30 19264 H 2012.18 3.96997 0.218942 0
M  V30 19265 N 2013.17 0.433965 1.51507 0
M  V30 19266 C 2014.59 0.0860823 1.59368 0
M  V30 19267 C 2014.79 -1.40421 1.44513 0
M  V30 19268 O 2013.84 -2.17377 1.28465 0
M  V30 19269 C 2015.16 0.603181 2.94588 0
M  V30 19270 C 2016.71 0.563326 3.07889 0
M  V30 19271 C 2017.18 1.05734 4.45628 0
M  V30 19272 N 2018.67 1.01519 4.51938 0
M  V30 19273 C 2019.41 1.36835 5.56834 0
M  V30 19274 N 2018.9 1.79419 6.69164 0
M  V30 19275 N 2020.7 1.28673 5.47174 0
M  V30 19276 H 2012.85 1.40366 1.59408 0
M  V30 19277 H 2015.11 0.578206 0.751253 0
M  V30 19278 H 2014.82 1.64576 3.10818 0
M  V30 19279 H 2014.69 0.0262621 3.77191 0
M  V30 19280 H 2017.08 -0.470257 2.91329 0
M  V30 19281 H 2017.16 1.17661 2.27134 0
M  V30 19282 H 2016.8 2.08938 4.62934 0
M  V30 19283 H 2016.73 0.420634 5.24917 0
M  V30 19284 H 2019.22 0.702422 3.71314 0
M  V30 19285 H 2019.54 2.04612 7.45221 0
M  V30 19286 H 2017.88 1.83343 6.70381 0
M  V30 19287 H 2021.07 0.952726 4.58302 0
M  V30 19288 H 2021.24 1.56524 6.28812 0
M  V30 19289 N 2014.65 -1.56732 0.165206 0
M  V30 19290 C 2015.93 -1.88357 -0.527344 0
M  V30 19291 C 2016.31 -1.07412 -1.8173 0
M  V30 19292 O 2015.66 -0.166236 -2.27895 0
M  V30 19293 C 2015.87 -3.40282 -0.775175 0
M  V30 19294 C 2017.21 -4.09891 -1.10789 0
M  V30 19295 O 2018.24 -3.45565 -0.863921 0
M  V30 19296 O 2017.1 -5.23527 -1.56787 0
M  V30 19297 H 2014.19 -0.781304 -0.271096 0
M  V30 19298 H 2016.74 -1.68479 0.203183 0
M  V30 19299 H 2015.51 -3.9106 0.137 0
M  V30 19300 H 2015.13 -3.65751 -1.55924 0
M  V30 19301 N 2016.13 0.10854 -1.57226 0
M  V30 19302 C 2017.04 1.15125 -2.0441 0
M  V30 19303 C 2018.05 1.44693 -0.966436 0
M  V30 19304 O 2019.23 1.55601 -1.27868 0
M  V30 19305 C 2016.3 2.45528 -2.44779 0
M  V30 19306 C 2015.36 2.23263 -3.66677 0
M  V30 19307 C 2014.59 3.47448 -4.05112 0
M  V30 19308 O 2014.81 4.55164 -3.43776 0
M  V30 19309 O 2013.75 3.37831 -4.9815 0
M  V30 19310 H 2017.57 0.780533 -2.93498 0
M  V30 19311 H 2015.16 0.320091 -1.45931 0
M  V30 19312 H 2017.04 3.22339 -2.71432 0
M  V30 19313 H 2015.71 2.82052 -1.58834 0
M  V30 19314 H 2014.62 1.44276 -3.4516 0
M  V30 19315 H 2015.95 1.91638 -4.53361 0
M  V30 19316 N 2017.61 1.52975 0.379009 0
M  V30 19317 C 2018.85 1.702 1.13188 0
M  V30 19318 C 2019.21 0.437582 1.86947 0
M  V30 19319 O 2020.41 0.486329 2.64364 0
M  V30 19320 C 2018.68 2.90907 2.07624 0
M  V30 19321 S 2020.24 3.28771 2.90612 0
M  V30 19322 H 2017.06 0.599025 0.383001 0
M  V30 19323 H 2019.66 1.91046 0.414933 0
M  V30 19324 H 2018.37 3.81144 1.52176 0
M  V30 19325 H 2017.9 2.72424 2.83812 0
M  V30 19326 H 2019.91 2.79736 4.09832 0
M  V30 19327 N 2019.08 -0.63804 1.44107 0
M  V30 19328 C 2020.05 -1.7322 1.50092 0
M  V30 19329 C 2021.05 -1.56153 0.383763 0
M  V30 19330 O 2022.24 -1.61774 0.646118 0
M  V30 19331 C 2019.37 -3.1224 1.36818 0
M  V30 19332 H 2020.56 -1.6929 2.4755 0
M  V30 19333 H 2018.12 -0.851079 1.31097 0
M  V30 19334 H 2018.85 -3.2177 0.404269 0
M  V30 19335 H 2018.64 -3.26033 2.17818 0
M  V30 19336 H 2020.13 -3.91997 1.43972 0
M  V30 19337 N 2020.56 -1.3089 -0.877815 0
M  V30 19338 C 2021.47 -1.19819 -2.01694 0
M  V30 19339 C 2022.49 -0.116563 -1.73609 0
M  V30 19340 O 2023.66 -0.332871 -1.9863 0
M  V30 19341 C 2020.73 -0.898133 -3.34865 0
M  V30 19342 C 2019.79 -2.06586 -3.76325 0
M  V30 19343 C 2019.02 -1.78002 -5.03141 0
M  V30 19344 O 2019.25 -0.711373 -5.65947 0
M  V30 19345 O 2018.18 -2.63452 -5.41181 0
M  V30 19346 H 2022.01 -2.15529 -2.13965 0
M  V30 19347 H 2019.59 -1.10553 -1.00491 0
M  V30 19348 H 2021.47 -0.746305 -4.14739 0
M  V30 19349 H 2020.15 0.0290018 -3.23687 0
M  V30 19350 H 2019.06 -2.27305 -2.97125 0
M  V30 19351 H 2020.39 -2.97497 -3.92118 0
M  V30 19352 N 2022.04 1.0911 -1.13723 0
M  V30 19353 C 2022.99 2.17927 -0.813066 0
M  V30 19354 C 2023.98 1.68143 0.205993 0
M  V30 19355 O 2025.19 1.7989 0.0628131 0
M  V30 19356 H 2021.56 0.710911 -0.245171 0
M  V30 19357 H 2023.53 2.42497 -1.7389 0
M  V30 19358 C 2022.28 3.46412 -0.298989 0
M  V30 19359 H 2021.61 3.85091 -1.07447 0
M  V30 19360 H 2023.05 4.23856 -0.110638 0
M  V30 19361 C 2021.51 3.22454 0.975967 0
M  V30 19362 O 2022.04 3.45385 2.05115 0
M  V30 19363 N 2020.24 2.76039 0.908345 0
M  V30 19364 H 2019.79 2.57579 0.0332379 0
M  V30 19365 H 2019.75 2.60387 1.76199 0
M  V30 19366 N 2023.52 0.931232 1.27145 0
M  V30 19367 C 2024.76 0.574376 1.94496 0
M  V30 19368 C 2025.1 -0.882702 1.7298 0
M  V30 19369 O 2024.37 -1.63016 1.06094 0
M  V30 19370 C 2024.66 0.905384 3.48532 0
M  V30 19371 C 2024.51 2.41647 3.79377 0
M  V30 19372 C 2025.83 0.413756 4.38151 0
M  V30 19373 H 2022.95 0.210149 0.706404 0
M  V30 19374 H 2025.59 1.16365 1.50197 0
M  V30 19375 H 2023.74 0.403903 3.86395 0
M  V30 19376 H 2025.41 2.98992 3.51286 0
M  V30 19377 H 2023.65 2.86417 3.25803 0
M  V30 19378 H 2024.32 2.5986 4.87008 0
M  V30 19379 H 2026.8 0.843592 4.07459 0
M  V30 19380 H 2025.68 0.67428 5.44743 0
M  V30 19381 H 2025.94 -0.686214 4.36742 0
M  V30 19382 N 2025 -1.41343 0.697132 0
M  V30 19383 C 2026.27 -1.94971 0.156721 0
M  V30 19384 C 2026.65 -1.63641 -1.33359 0
M  V30 19385 O 2026 -0.944246 -2.08077 0
M  V30 19386 C 2026.21 -3.46091 0.449687 0
M  V30 19387 C 2027.56 -4.22912 0.378281 0
M  V30 19388 O 2028.58 -3.54117 0.38469 0
M  V30 19389 O 2027.44 -5.45443 0.339755 0
M  V30 19390 H 2024.54 -0.826847 0.0158852 0
M  V30 19391 H 2027.08 -1.51052 0.7734 0
M  V30 19392 H 2025.86 -3.62183 1.48119 0
M  V30 19393 H 2025.48 -3.97107 -0.197886 0
M  V30 19394 N 2026.48 -0.441993 -1.51275 0
M  V30 19395 C 2027.41 0.357557 -2.30746 0
M  V30 19396 C 2028.39 1.01683 -1.36362 0
M  V30 19397 O 2029.57 1.01958 -1.65282 0
M  V30 19398 C 2026.7 1.45642 -3.15287 0
M  V30 19399 C 2025.66 0.920377 -4.17987 0
M  V30 19400 C 2024.98 2.11534 -4.91078 0
M  V30 19401 C 2026.28 -0.0483941 -5.22278 0
M  V30 19402 H 2027.98 -0.30565 -2.97836 0
M  V30 19403 H 2025.52 -0.148438 -1.43233 0
M  V30 19404 H 2027.47 2.02301 -3.69665 0
M  V30 19405 H 2026.2 2.14798 -2.46027 0
M  V30 19406 H 2024.86 0.375962 -3.64667 0
M  V30 19407 H 2024.51 2.7932 -4.18317 0
M  V30 19408 H 2024.21 1.76303 -5.60527 0
M  V30 19409 H 2025.73 2.68738 -5.48281 0
M  V30 19410 H 2027.14 0.428053 -5.717 0
M  V30 19411 H 2025.54 -0.313504 -5.99281 0
M  V30 19412 H 2026.61 -0.983611 -4.74819 0
M  V30 19413 N 2027.95 1.56642 -0.173515 0
M  V30 19414 C 2029.19 1.98845 0.473303 0
M  V30 19415 C 2029.56 1.05721 1.60272 0
M  V30 19416 O 2030.76 1.37073 2.31224 0
M  V30 19417 C 2029.03 3.44767 0.94185 0
M  V30 19418 S 2030.59 4.08998 1.58954 0
M  V30 19419 H 2027.41 0.694527 0.152161 0
M  V30 19420 H 2030.01 1.93606 -0.271494 0
M  V30 19421 H 2028.71 4.10254 0.109473 0
M  V30 19422 H 2028.24 3.53776 1.72063 0
M  V30 19423 H 2030.26 4.04227 2.87775 0
M  V30 19424 N 2029.43 -0.1002 1.57281 0
M  V30 19425 C 2030.71 -0.836006 1.76834 0
M  V30 19426 C 2031.09 -1.9718 0.753864 0
M  V30 19427 O 2030.44 -2.27452 -0.218626 0
M  V30 19428 C 2030.65 -1.33532 3.22444 0
M  V30 19429 C 2031.99 -1.78015 3.85481 0
M  V30 19430 O 2033.02 -1.43167 3.26162 0
M  V30 19431 O 2031.88 -2.42432 4.89784 0
M  V30 19432 H 2028.97 -0.398386 0.724719 0
M  V30 19433 H 2031.52 -0.0824784 1.69499 0
M  V30 19434 H 2030.29 -0.521307 3.87812 0
M  V30 19435 H 2029.91 -2.151 3.34391 0
M  V30 19436 N 2030.91 -1.53174 -0.370891 0
M  V30 19437 C 2031.86 -1.79899 -1.47442 0
M  V30 19438 C 2032.85 -0.667827 -1.55681 0
M  V30 19439 O 2034.06 -0.850668 -1.58631 0
M  V30 19440 H 2030.43 -0.56952 -0.491071 0
M  V30 19441 H 2032.4 -2.72275 -1.22102 0
M  V30 19442 C 2031.15 -2.00106 -2.84347 0
M  V30 19443 H 2030.48 -2.86585 -2.78764 0
M  V30 19444 H 2031.92 -2.22786 -3.60752 0
M  V30 19445 C 2030.37 -0.778651 -3.27778 0
M  V30 19446 O 2030.9 0.0352246 -4.01685 0
M  V30 19447 N 2029.11 -0.603599 -2.84262 0
M  V30 19448 H 2028.66 -1.26705 -2.24285 0
M  V30 19449 H 2028.62 0.212903 -3.13678 0
M  V30 19450 N 2032.39 0.630389 -1.44443 0
M  V30 19451 C 2033.64 1.38719 -1.46975 0
M  V30 19452 C 2033.96 1.94723 -0.103861 0
M  V30 19453 O 2033.23 1.75822 0.863919 0
M  V30 19454 H 2031.81 0.5149 -0.54119 0
M  V30 19455 H 2034.47 0.741905 -1.80227 0
M  V30 19456 H 2033.56 2.21813 -2.19557 0
M  V30 19457 N 2033.87 1.31354 0.870861 0
M  V30 19458 C 2034.8 1.14748 1.98408 0
M  V30 19459 C 2035.81 0.0868023 1.62568 0
M  V30 19460 O 2037 0.334209 1.75343 0
M  V30 19461 C 2034.1 0.730792 3.30927 0
M  V30 19462 C 2033.27 1.87628 3.95113 0
M  V30 19463 C 2032.33 1.44581 5.05948 0
M  V30 19464 O 2031.36 2.15531 5.26816 0
M  V30 19465 N 2032.56 0.332698 5.79546 0
M  V30 19466 H 2035.32 2.10633 2.13199 0
M  V30 19467 H 2032.89 1.23676 1.04479 0
M  V30 19468 H 2034.88 0.425538 4.02457 0
M  V30 19469 H 2033.45 -0.136426 3.12302 0
M  V30 19470 H 2032.67 2.3489 3.16576 0
M  V30 19471 H 2033.96 2.64356 4.34734 0
M  V30 19472 H 2033.35 -0.258188 5.65111 0
M  V30 19473 H 2031.91 0.0869715 6.51742 0
M  V30 19474 N 2035.34 -1.08505 1.143 0
M  V30 19475 C 2036.58 -1.82477 0.920958 0
M  V30 19476 C 2036.95 -1.84168 -0.54277 0
M  V30 19477 O 2038.15 -2.53893 -0.882716 0
M  V30 19478 C 2036.42 -3.24206 1.50418 0
M  V30 19479 S 2037.98 -4.15066 1.42356 0
M  V30 19480 H 2034.8 -0.628871 0.331726 0
M  V30 19481 H 2037.4 -1.30431 1.4563 0
M  V30 19482 H 2036.1 -3.20556 2.56266 0
M  V30 19483 H 2035.63 -3.81325 0.967187 0
M  V30 19484 H 2037.65 -4.94516 0.408406 0
M  V30 19485 N 2036.82 -0.937962 -1.26649 0
M  V30 19486 C 2037.75 -0.462649 -2.28871 0
M  V30 19487 C 2038.73 0.4824 -1.63116 0
M  V30 19488 O 2039.92 0.384947 -1.90347 0
M  V30 19489 C 2037.05 0.275964 -3.46202 0
M  V30 19490 C 2036 -0.582222 -4.24021 0
M  V30 19491 C 2035.33 0.286161 -5.33934 0
M  V30 19492 C 2036.63 -1.85193 -4.88365 0
M  V30 19493 H 2038.32 -1.31698 -2.68879 0
M  V30 19494 H 2035.87 -0.634709 -1.29257 0
M  V30 19495 H 2037.82 0.619496 -4.16822 0
M  V30 19496 H 2036.54 1.1644 -3.05138 0
M  V30 19497 H 2035.2 -0.908604 -3.55162 0
M  V30 19498 H 2034.85 1.17386 -4.89111 0
M  V30 19499 H 2034.55 -0.284618 -5.8691 0
M  V30 19500 H 2036.08 0.625035 -6.07393 0
M  V30 19501 H 2037.49 -1.57584 -5.51217 0
M  V30 19502 H 2035.89 -2.36702 -5.51445 0
M  V30 19503 H 2036.96 -2.56526 -4.11488 0
M  V30 19504 N 2038.3 1.40971 -0.704618 0
M  V30 19505 C 2039.25 2.32576 -0.0337552 0
M  V30 19506 C 2040.24 1.51452 0.758852 0
M  V30 19507 O 2041.45 1.67327 0.663455 0
M  V30 19508 H 2037.82 0.751959 0.00788634 0
M  V30 19509 H 2039.79 2.86819 -0.823248 0
M  V30 19510 C 2038.54 3.36326 0.882061 0
M  V30 19511 H 2037.87 3.98807 0.281575 0
M  V30 19512 H 2039.31 4.02942 1.31962 0
M  V30 19513 C 2037.76 2.70931 2.00245 0
M  V30 19514 O 2038.29 2.56412 3.09218 0
M  V30 19515 N 2036.5 2.29485 1.78284 0
M  V30 19516 H 2036.05 2.41494 0.89657 0
M  V30 19517 H 2036.01 1.86067 2.5343 0
M  V30 19518 N 2039.78 0.45001 1.51039 0
M  V30 19519 C 2040.74 -0.343489 2.26612 0
M  V30 19520 C 2041.74 -0.938789 1.3055 0
M  V30 19521 O 2042.93 -0.811258 1.54157 0
M  V30 19522 C 2040.06 -1.48719 3.0675 0
M  V30 19523 H 2041.26 0.318996 2.98199 0
M  V30 19524 H 2038.81 0.2035 1.5497 0
M  V30 19525 H 2039.54 -2.18535 2.3961 0
M  V30 19526 H 2039.33 -1.06636 3.77321 0
M  V30 19527 H 2040.82 -2.04748 3.63961 0
M  V30 19528 N 2041.26 -1.56548 0.18182 0
M  V30 19529 C 2042.67 -1.83704 -0.3331 0
M  V30 19530 C 2043.02 -1.10203 -1.62326 0
M  V30 19531 O 2042.14 -0.358476 -2.1341 0
M  V30 19532 C 2042.74 -3.33243 -0.611134 0
M  V30 19533 C 2041.3 -3.60857 -1.07046 0
M  V30 19534 C 2040.44 -2.77074 -0.111929 0
M  V30 19535 H 2043.4 -1.53422 0.405878 0
M  V30 19536 H 2043.42 -3.51292 -1.462 0
M  V30 19537 H 2042.93 -3.86711 0.328039 0
M  V30 19538 H 2041.03 -3.1281 -2.02437 0
M  V30 19539 H 2041.14 -4.69129 -0.972357 0
M  V30 19540 H 2039.51 -2.47255 -0.611302 0
M  V30 19541 H 2040.29 -3.33327 0.821452 0
M  V30 19542 N 2042.73 0.0918577 -1.57332 0
M  V30 19543 C 2043.98 0.793187 -1.85884 0
M  V30 19544 C 2044.3 1.79111 -0.770985 0
M  V30 19545 O 2043.57 1.94851 0.202438 0
M  V30 19546 H 2042.15 0.295923 -0.685885 0
M  V30 19547 H 2044.82 0.0727166 -1.94764 0
M  V30 19548 H 2043.91 1.32178 -2.82728 0
M  V30 19549 N 2044.21 1.53368 0.362763 0
M  V30 19550 C 2045.46 1.69352 1.10292 0
M  V30 19551 C 2045.78 0.449366 1.89752 0
M  V30 19552 O 2045.05 -0.536608 1.88407 0
M  V30 19553 H 2043.63 0.62432 0.410162 0
M  V30 19554 H 2046.29 1.90567 0.408694 0
M  V30 19555 H 2045.39 2.55586 1.79115 0
M  V30 19556 N 2045.69 -0.62272 1.44776 0
M  V30 19557 C 2046.92 -1.40706 1.51279 0
M  V30 19558 C 2047.33 -1.88688 0.139108 0
M  V30 19559 O 2046.67 -1.61963 -0.866823 0
M  V30 19560 C 2046.73 -2.65579 2.42298 0
M  V30 19561 C 2046.4 -2.39338 3.89315 0
M  V30 19562 C 2047.39 -2.0064 4.79624 0
M  V30 19563 C 2045.08 -2.52717 4.34096 0
M  V30 19564 C 2047.07 -1.75662 6.12716 0
M  V30 19565 C 2044.76 -2.27354 5.67233 0
M  V30 19566 C 2045.76 -1.88886 6.56362 0
M  V30 19567 O 2045.45 -1.6381 7.87033 0
M  V30 19568 H 2045.18 -0.437662 0.515197 0
M  V30 19569 H 2047.73 -0.767982 1.90503 0
M  V30 19570 H 2045.96 -3.32154 1.98017 0
M  V30 19571 H 2047.65 -3.27598 2.39655 0
M  V30 19572 H 2048.42 -1.89853 4.46297 0
M  V30 19573 H 2044.3 -2.81628 3.64975 0
M  V30 19574 H 2047.84 -1.45562 6.82244 0
M  V30 19575 H 2043.74 -2.37753 6.0012 0
M  V30 19576 H 2044.51 -1.77986 7.98914 0
M  V30 19577 N 2047.17 -1.31814 -0.863883 0
M  V30 19578 C 2048.58 -1.10603 -1.15061 0
M  V30 19579 C 2048.78 0.119526 -2.01145 0
M  V30 19580 O 2047.84 0.807099 -2.39253 0
M  V30 19581 C 2049.15 -2.38075 -1.83686 0
M  V30 19582 C 2050.7 -2.43744 -1.96361 0
M  V30 19583 C 2051.18 -3.71113 -2.68401 0
M  V30 19584 N 2052.67 -3.72042 -2.75933 0
M  V30 19585 C 2053.4 -4.67294 -3.32301 0
M  V30 19586 N 2052.9 -5.72905 -3.89553 0
M  V30 19587 N 2054.69 -4.54804 -3.30317 0
M  V30 19588 H 2046.84 -2.10406 -0.290393 0
M  V30 19589 H 2049.11 -0.928505 -0.191264 0
M  V30 19590 H 2048.81 -3.27625 -1.27885 0
M  V30 19591 H 2048.69 -2.48336 -2.83917 0
M  V30 19592 H 2051.07 -1.54659 -2.51326 0
M  V30 19593 H 2051.15 -2.37443 -0.951544 0
M  V30 19594 H 2050.8 -4.60567 -2.14103 0
M  V30 19595 H 2050.73 -3.74682 -3.70028 0
M  V30 19596 H 2053.22 -2.95701 -2.35307 0
M  V30 19597 H 2053.53 -6.41656 -4.30694 0
M  V30 19598 H 2051.88 -5.76671 -3.87911 0
M  V30 19599 H 2055.07 -3.71468 -2.84832 0
M  V30 19600 H 2055.24 -5.29213 -3.73948 0
M  V30 19601 N 2048.65 1.07897 -1.14873 0
M  V30 19602 C 2049.89 1.81986 -0.930623 0
M  V30 19603 C 2050.25 1.84454 0.532995 0
M  V30 19604 O 2051.45 2.54357 0.869239 0
M  V30 19605 C 2049.72 3.23403 -1.52135 0
M  V30 19606 S 2051.28 4.14306 -1.44555 0
M  V30 19607 H 2048.1 0.627103 -0.335056 0
M  V30 19608 H 2050.7 1.29657 -1.4632 0
M  V30 19609 H 2049.41 3.19192 -2.57962 0
M  V30 19610 H 2048.94 3.80807 -0.987396 0
M  V30 19611 H 2050.95 4.94293 -0.434626 0
M  V30 19612 N 2050.12 0.944665 1.2615 0
M  V30 19613 C 2051.03 0.463226 2.29981 0
M  V30 19614 C 2052.05 -0.464516 1.67685 0
M  V30 19615 O 2053.23 -0.343195 1.98454 0
M  V30 19616 C 2050.29 -0.260612 3.45719 0
M  V30 19617 C 2049.35 0.704117 4.23486 0
M  V30 19618 C 2048.59 0.0147279 5.33698 0
M  V30 19619 O 2048.81 -1.20155 5.57601 0
M  V30 19620 O 2047.74 0.695202 5.97872 0
M  V30 19621 H 2051.57 1.3258 2.73233 0
M  V30 19622 H 2049.15 0.710696 1.31413 0
M  V30 19623 H 2051.04 -0.668207 4.16068 0
M  V30 19624 H 2049.71 -1.09852 3.0449 0
M  V30 19625 H 2048.62 1.16172 3.55605 0
M  V30 19626 H 2049.95 1.50974 4.68474 0
M  V30 19627 N 2051.6 -1.40596 0.712085 0
M  V30 19628 C 2052.84 -2.0281 0.254462 0
M  V30 19629 C 2053.21 -1.55234 -1.12989 0
M  V30 19630 O 2054.41 -2.09487 -1.6843 0
M  V30 19631 C 2052.68 -3.55895 0.327689 0
M  V30 19632 S 2054.24 -4.38767 -0.0534624 0
M  V30 19633 H 2051.06 -0.703761 0.101197 0
M  V30 19634 H 2053.66 -1.71772 0.933528 0
M  V30 19635 H 2052.36 -3.88014 1.33692 0
M  V30 19636 H 2051.89 -3.91656 -0.369973 0
M  V30 19637 H 2053.91 -4.79499 -1.27652 0
M  V30 19638 N 2053.08 -0.458013 -1.50798 0
M  V30 19639 C 2053.99 0.348558 -2.31996 0
M  V30 19640 C 2055.01 1.00835 -1.41804 0
M  V30 19641 O 2056.18 0.999192 -1.74866 0
M  V30 19642 C 2053.25 1.4236 -3.16124 0
M  V30 19643 C 2052.31 0.781781 -4.22122 0
M  V30 19644 C 2051.54 1.8056 -5.02229 0
M  V30 19645 O 2051.76 3.0305 -4.83236 0
M  V30 19646 O 2050.7 1.38466 -5.85757 0
M  V30 19647 H 2054.52 -0.314893 -3.02063 0
M  V30 19648 H 2052.11 -0.220117 -1.4777 0
M  V30 19649 H 2053.99 2.04661 -3.68364 0
M  V30 19650 H 2052.67 2.07076 -2.488 0
M  V30 19651 H 2051.57 0.120169 -3.73907 0
M  V30 19652 H 2052.91 0.177782 -4.91879 0
M  V30 19653 N 2054.56 1.56449 -0.190119 0
M  V30 19654 C 2055.49 2.14748 0.771918 0
M  V30 19655 C 2056.47 1.08278 1.21304 0
M  V30 19656 O 2057.65 1.36362 1.30144 0
M  V30 19657 C 2054.78 2.70233 2.04186 0
M  V30 19658 C 2053.83 3.89246 1.74327 0
M  V30 19659 S 2054.66 5.27954 0.895791 0
M  V30 19660 C 2055.82 5.86857 2.17599 0
M  V30 19661 H 2056.05 2.96013 0.276302 0
M  V30 19662 H 2053.58 1.5438 0.0248132 0
M  V30 19663 H 2055.54 3.02845 2.7712 0
M  V30 19664 H 2054.2 1.89018 2.5086 0
M  V30 19665 H 2053.39 4.26461 2.68602 0
M  V30 19666 H 2053 3.57618 1.09478 0
M  V30 19667 H 2055.29 6.00917 3.12898 0
M  V30 19668 H 2056.23 6.83554 1.84823 0
M  V30 19669 H 2056.64 5.15422 2.30218 0
M  V30 19670 N 2056.04 -0.0835127 1.57379 0
M  V30 19671 C 2057.29 -0.783318 1.86302 0
M  V30 19672 C 2057.61 -1.787 0.780472 0
M  V30 19673 O 2056.88 -1.94956 -0.192101 0
M  V30 19674 H 2055.46 -0.292281 0.687445 0
M  V30 19675 H 2058.12 -0.0623868 1.948 0
M  V30 19676 H 2057.21 -1.30677 2.83425 0
M  V30 19677 N 2057.52 -1.53558 -0.354624 0
M  V30 19678 C 2058.76 -1.70271 -1.09609 0
M  V30 19679 C 2059.09 -0.460135 -1.88979 0
M  V30 19680 O 2058.35 0.558038 -1.87575 0
M  V30 19681 C 2058.64 -2.91096 -2.07359 0
M  V30 19682 C 2058.31 -4.27157 -1.44386 0
M  V30 19683 C 2056.97 -4.64155 -1.2694 0
M  V30 19684 C 2059.32 -5.11726 -0.989239 0
M  V30 19685 C 2056.65 -5.83347 -0.626331 0
M  V30 19686 C 2059 -6.31574 -0.360126 0
M  V30 19687 C 2057.67 -6.67275 -0.173255 0
M  V30 19688 H 2056.94 -0.623064 -0.401089 0
M  V30 19689 H 2059.59 -1.8776 -0.37662 0
M  V30 19690 H 2057.89 -2.68164 -2.85649 0
M  V30 19691 H 2059.59 -3.0122 -2.64702 0
M  V30 19692 H 2056.18 -3.98032 -1.5896 0
M  V30 19693 H 2060.36 -4.83684 -1.11191 0
M  V30 19694 H 2055.62 -6.0959 -0.470062 0
M  V30 19695 H 2059.79 -6.964 0.00028709 0
M  V30 19696 H 2057.42 -7.59496 0.327098 0
M  V30 19697 N 2058.99 0.615033 -1.45104 0
M  V30 19698 C 2060.27 1.37409 -1.39206 0
M  V30 19699 C 2060.65 2.11018 -0.0588763 0
M  V30 19700 O 2060 2.07402 0.958997 0
M  V30 19701 C 2060.21 2.32712 -2.60089 0
M  V30 19702 C 2061.56 2.95549 -3.04854 0
M  V30 19703 O 2062.58 2.43035 -2.60408 0
M  V30 19704 O 2061.44 3.90854 -3.81963 0
M  V30 19705 H 2058.53 0.615766 -0.552052 0
M  V30 19706 H 2061.08 0.638743 -1.5722 0
M  V30 19707 H 2059.85 1.77529 -3.48711 0
M  V30 19708 H 2059.47 3.13639 -2.4437 0
M  V30 19709 N 2060.47 1.3227 0.85688 0
M  V30 19710 C 2061.88 1.20411 1.42682 0
M  V30 19711 C 2062.23 -0.184254 1.95333 0
M  V30 19712 O 2061.36 -1.08285 1.87359 0
M  V30 19713 C 2061.95 2.17989 2.59358 0
M  V30 19714 C 2060.51 2.10024 3.12357 0
M  V30 19715 C 2059.66 2.0648 1.85098 0
M  V30 19716 H 2062.61 1.4413 0.664236 0
M  V30 19717 H 2062.63 1.77712 3.3645 0
M  V30 19718 H 2062.14 3.19026 2.21007 0
M  V30 19719 H 2060.24 1.12227 3.55297 0
M  V30 19720 H 2060.36 2.99744 3.73752 0
M  V30 19721 H 2058.72 1.51687 2.04605 0
M  V30 19722 H 2059.5 3.09296 1.48967 0
M  V30 19723 N 2061.95 -1.07287 1.15444 0
M  V30 19724 C 2063.18 -1.83614 0.953597 0
M  V30 19725 C 2063.59 -1.82111 -0.498116 0
M  V30 19726 O 2062.95 -1.233 -1.34548 0
M  V30 19727 C 2063 -3.30668 1.46086 0
M  V30 19728 O 2062.72 -3.32236 2.85571 0
M  V30 19729 C 2064.22 -4.23761 1.3016 0
M  V30 19730 H 2061.44 -0.57928 0.338638 0
M  V30 19731 H 2063.99 -1.35426 1.53232 0
M  V30 19732 H 2062.14 -3.76203 0.924647 0
M  V30 19733 H 2062.56 -4.24117 3.08585 0
M  V30 19734 H 2064.03 -5.25009 1.70497 0
M  V30 19735 H 2064.51 -4.38511 0.245852 0
M  V30 19736 H 2065.11 -3.84062 1.82692 0
M  V30 19737 N 2063.43 -0.951342 -1.25647 0
M  V30 19738 C 2064.34 -0.475416 -2.29732 0
M  V30 19739 C 2065.35 0.455617 -1.67929 0
M  V30 19740 O 2066.53 0.332666 -1.98634 0
M  V30 19741 C 2063.59 0.242274 -3.45852 0
M  V30 19742 C 2062.66 -0.726566 -4.23107 0
M  V30 19743 C 2061.89 -0.043031 -5.33683 0
M  V30 19744 O 2062.11 1.17196 -5.5823 0
M  V30 19745 O 2061.05 -0.726899 -5.97495 0
M  V30 19746 H 2064.87 -1.34027 -2.72526 0
M  V30 19747 H 2062.46 -0.717655 -1.31035 0
M  V30 19748 H 2064.34 0.646132 -4.16417 0
M  V30 19749 H 2063.01 1.08236 -3.05068 0
M  V30 19750 H 2061.92 -1.18057 -3.54984 0
M  V30 19751 H 2063.25 -1.53457 -4.67666 0
M  V30 19752 N 2064.91 1.40216 -0.719531 0
M  V30 19753 C 2066.18 1.94697 -0.18772 0
M  V30 19754 C 2066.56 1.65742 1.30739 0
M  V30 19755 O 2065.91 0.97723 2.06549 0
M  V30 19756 C 2066.12 3.45332 -0.50469 0
M  V30 19757 C 2067.47 4.22256 -0.445515 0
M  V30 19758 O 2068.49 3.5346 -0.440978 0
M  V30 19759 O 2067.35 5.44833 -0.426487 0
M  V30 19760 H 2064.45 0.82649 -0.0290376 0
M  V30 19761 H 2066.99 1.49802 -0.797333 0
M  V30 19762 H 2065.76 3.5978 -1.53863 0
M  V30 19763 H 2065.39 3.97372 0.134684 0
M  V30 19764 N 2066.38 0.466004 1.50553 0
M  V30 19765 C 2067.33 -0.349338 2.25308 0
M  V30 19766 C 2068.32 -0.965816 1.28689 0
M  V30 19767 O 2069.51 -0.879208 1.53619 0
M  V30 19768 C 2066.64 -1.43369 3.1193 0
M  V30 19769 C 2065.72 -0.825194 4.15994 0
M  V30 19770 N 2066.12 0.0514669 5.05774 0
M  V30 19771 C 2064.41 -1.08969 4.32483 0
M  V30 19772 C 2065.11 0.39627 5.80349 0
M  V30 19773 N 2064.09 -0.227292 5.43125 0
M  V30 19774 H 2067.89 0.326072 2.92086 0
M  V30 19775 H 2065.41 0.279833 1.59971 0
M  V30 19776 H 2067.4 -2.03093 3.64086 0
M  V30 19777 H 2066.06 -2.11114 2.467 0
M  V30 19778 H 2067.07 0.419946 5.16195 0
M  V30 19779 H 2063.75 -1.76251 3.78473 0
M  V30 19780 H 2065.14 1.1114 6.62644 0
M  V30 19781 N 2067.86 -1.56346 0.198413 0
M  V30 19782 C 2069.28 -1.58822 -0.157378 0
M  V30 19783 C 2069.48 -1.21468 -1.60773 0
M  V30 19784 O 2068.53 -0.938985 -2.34391 0
M  V30 19785 C 2069.85 -3.00336 0.14798 0
M  V30 19786 C 2071.39 -3.12875 0.0883539 0
M  V30 19787 C 2071.87 -4.56527 0.367068 0
M  V30 19788 N 2073.36 -4.62122 0.315805 0
M  V30 19789 C 2074.1 -5.7117 0.505265 0
M  V30 19790 N 2073.59 -6.88671 0.755254 0
M  V30 19791 N 2075.38 -5.60381 0.439293 0
M  V30 19792 H 2067.54 -1.78908 1.1448 0
M  V30 19793 H 2069.8 -0.830475 0.457182 0
M  V30 19794 H 2069.5 -3.32238 1.15373 0
M  V30 19795 H 2069.38 -3.732 -0.547892 0
M  V30 19796 H 2071.77 -2.80783 -0.908004 0
M  V30 19797 H 2071.85 -2.4239 0.817354 0
M  V30 19798 H 2071.49 -4.89332 1.36076 0
M  V30 19799 H 2071.42 -5.25206 -0.382859 0
M  V30 19800 H 2073.91 -3.77679 0.129337 0
M  V30 19801 H 2074.22 -7.67675 0.888542 0
M  V30 19802 H 2072.57 -6.9047 0.792186 0
M  V30 19803 H 2075.76 -4.67462 0.244386 0
M  V30 19804 H 2075.93 -6.45305 0.590363 0
M  V30 19805 N 2069.34 0.0751653 -1.57421 0
M  V30 19806 C 2070.3 1.07404 -2.02477 0
M  V30 19807 C 2071.3 1.31792 -0.921282 0
M  V30 19808 O 2072.49 1.27569 -1.18625 0
M  V30 19809 C 2069.63 2.4185 -2.40253 0
M  V30 19810 H 2070.82 0.685783 -2.91954 0
M  V30 19811 H 2068.37 0.320795 -1.52973 0
M  V30 19812 H 2069.11 2.85515 -1.53791 0
M  V30 19813 H 2068.89 2.25492 -3.20774 0
M  V30 19814 H 2070.38 3.13655 -2.75699 0
M  V30 19815 N 2070.82 1.53744 0.346476 0
M  V30 19816 C 2072.06 1.72562 1.09552 0
M  V30 19817 C 2072.42 0.477138 1.85977 0
M  V30 19818 O 2073.62 0.542295 2.63273 0
M  V30 19819 C 2071.89 2.95246 2.01406 0
M  V30 19820 S 2073.45 3.34861 2.83573 0
M  V30 19821 H 2070.27 0.607015 0.370208 0
M  V30 19822 H 2072.87 1.91883 0.374316 0
M  V30 19823 H 2071.58 3.84286 1.44057 0
M  V30 19824 H 2071.11 2.78382 2.77969 0
M  V30 19825 H 2073.12 2.88367 4.03806 0
M  V30 19826 N 2072.3 -0.607329 1.45428 0
M  V30 19827 C 2073.23 -1.73188 1.50129 0
M  V30 19828 C 2074.24 -1.58009 0.392034 0
M  V30 19829 O 2075.43 -1.65886 0.659103 0
M  V30 19830 C 2072.53 -3.1119 1.34217 0
M  V30 19831 C 2071.7 -3.52606 2.58821 0
M  V30 19832 C 2070.76 -4.69572 2.37463 0
M  V30 19833 O 2069.79 -4.76676 3.11076 0
M  V30 19834 N 2070.99 -5.62854 1.42041 0
M  V30 19835 H 2073.76 -1.69619 2.47082 0
M  V30 19836 H 2071.32 -0.792618 1.41171 0
M  V30 19837 H 2073.31 -3.87195 1.17739 0
M  V30 19838 H 2071.88 -3.09265 0.455386 0
M  V30 19839 H 2071.1 -2.6656 2.90412 0
M  V30 19840 H 2072.39 -3.77035 3.41646 0
M  V30 19841 H 2071.78 -5.59829 0.812899 0
M  V30 19842 H 2070.34 -6.3839 1.31534 0
M  V30 19843 N 2073.77 -1.32722 -0.849853 0
M  V30 19844 C 2075.05 -1.14168 -1.58824 0
M  V30 19845 C 2075.43 0.296136 -2.09013 0
M  V30 19846 O 2074.78 1.2935 -1.88364 0
M  V30 19847 C 2074.99 -2.1734 -2.73065 0
M  V30 19848 C 2076.34 -2.50923 -3.42524 0
M  V30 19849 O 2077.36 -2.15923 -2.83295 0
M  V30 19850 O 2076.22 -3.10942 -4.49419 0
M  V30 19851 H 2073.31 -0.440869 -0.699688 0
M  V30 19852 H 2075.86 -1.44269 -0.893563 0
M  V30 19853 H 2074.63 -3.13967 -2.33539 0
M  V30 19854 H 2074.26 -1.88261 -3.50205 0
M  V30 19855 N 2075.25 1.06673 -1.16011 0
M  V30 19856 C 2076.5 1.79666 -0.940641 0
M  V30 19857 C 2076.83 1.86814 0.530502 0
M  V30 19858 O 2076.11 1.35692 1.39348 0
M  V30 19859 C 2076.39 3.24359 -1.56407 0
M  V30 19860 C 2076.24 3.25315 -3.10629 0
M  V30 19861 C 2077.56 4.2181 -1.25556 0
M  V30 19862 H 2074.68 0.652242 -0.343145 0
M  V30 19863 H 2077.32 1.2478 -1.43282 0
M  V30 19864 H 2075.47 3.71227 -1.14553 0
M  V30 19865 H 2077.14 2.86637 -3.61438 0
M  V30 19866 H 2075.39 2.64077 -3.4416 0
M  V30 19867 H 2076.06 4.27371 -3.49368 0
M  V30 19868 H 2078.53 3.83365 -1.61772 0
M  V30 19869 H 2077.41 5.21326 -1.71785 0
M  V30 19870 H 2077.67 4.41758 -0.173744 0
M  V30 19871 N 2076.73 0.957992 1.25141 0
M  V30 19872 C 2078.01 0.531835 1.88231 0
M  V30 19873 C 2078.39 -0.990946 1.86396 0
M  V30 19874 O 2077.74 -1.85817 1.32983 0
M  V30 19875 C 2077.95 1.11229 3.30801 0
M  V30 19876 C 2079.29 1.19121 4.07548 0
M  V30 19877 O 2080.32 1.06409 3.39935 0
M  V30 19878 O 2079.18 1.39103 5.285 0
M  V30 19879 H 2076.27 0.175926 0.808071 0
M  V30 19880 H 2078.82 1.05164 1.33187 0
M  V30 19881 H 2077.59 2.15542 3.26584 0
M  V30 19882 H 2077.21 0.575942 3.93406 0
M  V30 19883 N 2078.21 -1.39832 0.726957 0
M  V30 19884 C 2079.12 -2.34453 0.0830837 0
M  V30 19885 C 2080.13 -1.579 -0.731009 0
M  V30 19886 O 2081.31 -1.90232 -0.661338 0
M  V30 19887 C 2078.38 -3.3688 -0.819324 0
M  V30 19888 C 2077.44 -4.293 0.00610659 0
M  V30 19889 C 2076.67 -5.26834 -0.853324 0
M  V30 19890 O 2076.89 -5.30641 -2.09228 0
M  V30 19891 O 2075.83 -6.01219 -0.286261 0
M  V30 19892 H 2079.65 -2.91155 0.863845 0
M  V30 19893 H 2077.24 -1.41221 0.487543 0
M  V30 19894 H 2079.12 -3.99665 -1.33589 0
M  V30 19895 H 2077.79 -2.82574 -1.57904 0
M  V30 19896 H 2076.7 -3.69763 0.568007 0
M  V30 19897 H 2078.03 -4.86789 0.727856 0
M  V30 19898 N 2079.69 -0.473982 -1.50304 0
M  V30 19899 C 2080.93 0.0787179 -2.04248 0
M  V30 19900 C 2081.29 1.36728 -1.34794 0
M  V30 19901 O 2082.49 2.00254 -1.7931 0
M  V30 19902 C 2080.76 0.255399 -3.56486 0
M  V30 19903 S 2082.32 0.766239 -4.32058 0
M  V30 19904 H 2079.14 0.0145896 -0.71085 0
M  V30 19905 H 2081.74 -0.641781 -1.84666 0
M  V30 19906 H 2080.45 -0.68817 -4.04589 0
M  V30 19907 H 2079.98 1.00193 -3.80427 0
M  V30 19908 H 2081.99 2.03925 -4.52359 0
M  V30 19909 N 2081.16 1.56239 -0.206702 0
M  V30 19910 C 2082.13 2.18382 0.695843 0
M  V30 19911 C 2083.13 1.14149 1.13255 0
M  V30 19912 O 2084.32 1.39468 1.04376 0
M  V30 19913 C 2081.45 2.79522 1.95141 0
M  V30 19914 H 2082.64 2.99503 0.154275 0
M  V30 19915 H 2080.2 1.56241 0.0429222 0
M  V30 19916 H 2080.93 2.02231 2.53521 0
M  V30 19917 H 2080.72 3.55837 1.64689 0
M  V30 19918 H 2082.21 3.27203 2.59476 0
M  V30 19919 N 2082.64 -0.0668159 1.57458 0
M  V30 19920 C 2083.57 -1.10569 2.00766 0
M  V30 19921 C 2084.59 -1.34696 0.914378 0
M  V30 19922 O 2085.78 -1.32848 1.19221 0
M  V30 19923 C 2082.88 -2.45556 2.33571 0
M  V30 19924 C 2082.05 -2.41316 3.64808 0
M  V30 19925 C 2081.11 -3.58451 3.85227 0
M  V30 19926 O 2080.13 -3.39654 4.56754 0
M  V30 19927 N 2081.34 -4.7898 3.27961 0
M  V30 19928 H 2084.1 -0.736847 2.90501 0
M  V30 19929 H 2081.66 -0.255392 1.59873 0
M  V30 19930 H 2083.65 -3.2257 2.44399 0
M  V30 19931 H 2082.22 -2.74424 1.497 0
M  V30 19932 H 2081.44 -1.49655 3.64688 0
M  V30 19933 H 2082.73 -2.35589 4.50972 0
M  V30 19934 H 2082.13 -4.97155 2.69913 0
M  V30 19935 H 2080.69 -5.53488 3.4423 0
M  V30 19936 N 2084.12 -1.53926 -0.338317 0
M  V30 19937 C 2085.37 -1.71085 -1.07584 0
M  V30 19938 C 2085.69 -0.479497 -1.89013 0
M  V30 19939 O 2084.96 0.506566 -1.89237 0
M  V30 19940 H 2083.54 -0.630767 -0.400178 0
M  V30 19941 H 2086.2 -1.91193 -0.378324 0
M  V30 19942 H 2085.3 -2.58404 -1.75026 0
M  V30 19943 N 2085.6 0.599608 -1.45748 0
M  V30 19944 C 2086.55 1.73095 -1.55374 0
M  V30 19945 C 2087.54 1.64028 -0.423205 0
M  V30 19946 O 2088.75 1.69726 -0.599429 0
M  V30 19947 H 2085.12 0.572 -0.48818 0
M  V30 19948 H 2087.09 1.62104 -2.50529 0
M  V30 19949 C 2085.84 3.1148 -1.54517 0
M  V30 19950 H 2085.17 3.19119 -2.40838 0
M  V30 19951 H 2086.61 3.90447 -1.65309 0
M  V30 19952 C 2085.06 3.35809 -0.270913 0
M  V30 19953 O 2085.59 3.96473 0.645927 0
M  V30 19954 N 2083.8 2.90136 -0.164103 0
M  V30 19955 H 2083.35 2.40951 -0.911075 0
M  V30 19956 H 2083.31 3.06788 0.687647 0
M  V30 19957 N 2087.08 1.33171 0.842803 0
M  V30 19958 C 2088.01 1.2572 1.96766 0
M  V30 19959 C 2088.99 0.138574 1.69535 0
M  V30 19960 O 2090.17 0.327704 1.91415 0
M  V30 19961 C 2087.3 0.991637 3.32842 0
M  V30 19962 C 2086.26 2.07278 3.74459 0
M  V30 19963 C 2085.58 1.65942 5.08299 0
M  V30 19964 C 2086.88 3.48911 3.88662 0
M  V30 19965 H 2088.58 2.19834 2.03257 0
M  V30 19966 H 2086.12 1.05829 0.976533 0
M  V30 19967 H 2088.08 0.926021 4.111 0
M  V30 19968 H 2086.8 0.0148823 3.26597 0
M  V30 19969 H 2085.46 2.12875 2.98462 0
M  V30 19970 H 2085.11 0.669795 4.98521 0
M  V30 19971 H 2084.81 2.38288 5.37115 0
M  V30 19972 H 2086.33 1.60839 5.89036 0
M  V30 19973 H 2087.75 3.45837 4.57241 0
M  V30 19974 H 2086.14 4.1971 4.2891 0
M  V30 19975 H 2087.21 3.87705 2.91226 0
M  V30 19976 N 2088.56 -1.06056 1.16576 0
M  V30 19977 C 2089.8 -1.80482 0.959457 0
M  V30 19978 C 2090.16 -1.85278 -0.503583 0
M  V30 19979 O 2091.36 -2.55708 -0.828663 0
M  V30 19980 C 2089.63 -3.20942 1.57261 0
M  V30 19981 S 2091.19 -4.11954 1.51128 0
M  V30 19982 H 2088.01 -0.621693 0.34499 0
M  V30 19983 H 2090.61 -1.27312 1.48364 0
M  V30 19984 H 2089.31 -3.15048 2.63007 0
M  V30 19985 H 2088.85 -3.79188 1.04785 0
M  V30 19986 H 2090.86 -4.93539 0.513209 0
M  V30 19987 N 2090.03 -0.964615 -1.24631 0
M  V30 19988 C 2091 -0.497206 -2.23742 0
M  V30 19989 C 2092 0.404569 -1.55627 0
M  V30 19990 O 2093.19 0.200461 -1.73043 0
M  V30 19991 C 2090.32 0.280348 -3.39745 0
M  V30 19992 H 2091.51 -1.37334 -2.66607 0
M  V30 19993 H 2089.06 -0.748889 -1.37191 0
M  V30 19994 H 2089.8 1.17372 -3.02315 0
M  V30 19995 H 2089.58 -0.366741 -3.90381 0
M  V30 19996 H 2091.07 0.596501 -4.13318 0
M  V30 19997 N 2091.51 1.39445 -0.734362 0
M  V30 19998 C 2092.76 2.00526 -0.282025 0
M  V30 19999 C 2093.09 1.58268 1.13055 0
M  V30 20000 O 2092.34 0.802491 1.7849 0
M  V30 20001 C 2092.64 3.55865 -0.330927 0
M  V30 20002 C 2092.31 4.1777 -1.69643 0
M  V30 20003 C 2090.97 4.34393 -2.07017 0
M  V30 20004 C 2093.32 4.52119 -2.59302 0
M  V30 20005 C 2090.65 4.82653 -3.3356 0
M  V30 20006 C 2093 5.01788 -3.85217 0
M  V30 20007 C 2091.66 5.16618 -4.22684 0
M  V30 20008 H 2090.93 0.733778 -0.1032 0
M  V30 20009 H 2093.58 1.66781 -0.94108 0
M  V30 20010 H 2091.89 3.89631 0.411703 0
M  V30 20011 H 2093.58 4.00983 0.0371893 0
M  V30 20012 H 2090.17 4.05233 -1.39584 0
M  V30 20013 H 2094.36 4.38896 -2.31698 0
M  V30 20014 H 2089.61 4.9232 -3.62534 0
M  V30 20015 H 2093.79 5.27339 -4.54848 0
M  V30 20016 H 2091.41 5.53775 -5.20805 0
M  V30 20017 N 2092.99 0.481946 1.5005 0
M  V30 20018 C 2094.24 -0.069141 2.01982 0
M  V30 20019 C 2094.56 -1.39233 1.36525 0
M  V30 20020 O 2093.83 -1.89032 0.514174 0
M  V30 20021 H 2092.41 -0.0285419 0.746455 0
M  V30 20022 H 2095.07 0.634845 1.84271 0
M  V30 20023 H 2094.17 -0.212743 3.11374 0
M  V30 20024 N 2094.47 -1.56127 0.214985 0
M  V30 20025 C 2095.69 -2.02966 -0.426587 0
M  V30 20026 C 2096.12 -1.0939 -1.53021 0
M  V30 20027 O 2095.48 -0.0808958 -1.81119 0
M  V30 20028 C 2095.52 -3.48091 -0.941527 0
M  V30 20029 O 2094.63 -3.5765 -2.05329 0
M  V30 20030 H 2093.97 -0.656823 -0.097363 0
M  V30 20031 H 2096.5 -2.01893 0.331697 0
M  V30 20032 H 2096.51 -3.88282 -1.25304 0
M  V30 20033 H 2095.18 -4.15685 -0.133737 0
M  V30 20034 H 2093.76 -3.29344 -1.74891 0
M  V30 20035 N 2095.95 0.0584645 -1.57492 0
M  V30 20036 C 2097.19 0.760259 -1.89735 0
M  V30 20037 C 2097.55 1.74063 -0.810311 0
M  V30 20038 O 2098.75 2.48851 -1.0162 0
M  V30 20039 C 2097.02 1.43807 -3.27191 0
M  V30 20040 S 2098.58 2.17309 -3.81211 0
M  V30 20041 H 2095.4 0.252532 -0.664642 0
M  V30 20042 H 2098 0.0158457 -1.95494 0
M  V30 20043 H 2096.7 0.710924 -4.04196 0
M  V30 20044 H 2096.24 2.22165 -3.24664 0
M  V30 20045 H 2098.25 3.44032 -3.5757 0
M  V30 20046 N 2097.42 1.54103 0.330149 0
M  V30 20047 C 2098.33 1.86042 1.42918 0
M  V30 20048 C 2099.35 0.75174 1.56923 0
M  V30 20049 O 2100.53 1.04538 1.72145 0
M  V30 20050 C 2097.59 2.07533 2.77724 0
M  V30 20051 C 2096.65 3.31356 2.7295 0
M  V30 20052 C 2095.88 3.51812 4.01328 0
M  V30 20053 O 2096.11 2.75838 4.99269 0
M  V30 20054 O 2095.04 4.45275 4.04986 0
M  V30 20055 H 2098.87 2.79483 1.18839 0
M  V30 20056 H 2096.45 1.39925 0.523569 0
M  V30 20057 H 2098.33 2.23037 3.57537 0
M  V30 20058 H 2097.01 1.1728 3.01707 0
M  V30 20059 H 2095.92 3.21243 1.91712 0
M  V30 20060 H 2097.25 4.21645 2.53922 0
M  V30 20061 N 2098.9 -0.59187 1.46064 0
M  V30 20062 C 2099.85 -1.72268 1.5629 0
M  V30 20063 C 2100.84 -1.63802 0.431898 0
M  V30 20064 O 2102.05 -1.69406 0.608421 0
M  V30 20065 H 2098.43 -0.569403 0.491207 0
M  V30 20066 H 2100.4 -1.60773 2.51385 0
M  V30 20067 C 2099.15 -3.10656 1.56166 0
M  V30 20068 H 2098.47 -3.17837 2.42527 0
M  V30 20069 H 2099.91 -3.89565 1.67377 0
M  V30 20070 C 2098.37 -3.35661 0.288718 0
M  V30 20071 O 2098.9 -3.9681 -0.624892 0
M  V30 20072 N 2097.1 -2.90045 0.179487 0
M  V30 20073 H 2096.65 -2.40464 0.92384 0
M  V30 20074 H 2096.61 -3.07148 -0.671367 0
M  V30 20075 N 2100.38 -1.33616 -0.835729 0
M  V30 20076 C 2101.31 -1.26762 -1.96096 0
M  V30 20077 C 2102.29 -0.147563 -1.69459 0
M  V30 20078 O 2103.48 -0.33785 -1.91239 0
M  V30 20079 C 2100.61 -1.00927 -3.32312 0
M  V30 20080 C 2099.56 -2.09261 -3.73355 0
M  V30 20081 C 2098.89 -1.68635 -5.07411 0
M  V30 20082 C 2100.19 -3.50968 -3.86806 0
M  V30 20083 H 2101.88 -2.20908 -2.02089 0
M  V30 20084 H 2099.43 -1.06346 -0.970907 0
M  V30 20085 H 2101.38 -0.947809 -4.10603 0
M  V30 20086 H 2100.1 -0.0322023 -3.26584 0
M  V30 20087 H 2098.76 -2.14455 -2.97329 0
M  V30 20088 H 2098.41 -0.696223 -4.98158 0
M  V30 20089 H 2098.11 -2.41134 -5.35844 0
M  V30 20090 H 2099.63 -1.63961 -5.88175 0
M  V30 20091 H 2101.05 -3.48257 -4.55401 0
M  V30 20092 H 2099.45 -4.21978 -4.26678 0
M  V30 20093 H 2100.52 -3.89244 -2.89166 0
M  V30 20094 N 2101.86 1.05436 -1.17136 0
M  V30 20095 C 2103.27 1.59854 -0.964558 0
M  V30 20096 C 2103.62 1.89999 0.489367 0
M  V30 20097 O 2102.75 1.67983 1.36421 0
M  V30 20098 C 2103.34 2.90432 -1.74455 0
M  V30 20099 C 2101.9 3.41518 -1.58249 0
M  V30 20100 C 2101.05 2.15286 -1.74777 0
M  V30 20101 H 2104 0.882787 -1.31881 0
M  V30 20102 H 2104.02 3.60225 -1.22548 0
M  V30 20103 H 2103.53 2.6846 -2.80269 0
M  V30 20104 H 2101.63 3.68531 -0.549129 0
M  V30 20105 H 2101.74 4.16267 -2.37188 0
M  V30 20106 H 2100.11 2.25927 -1.17596 0
M  V30 20107 H 2100.89 1.95787 -2.81997 0
M  V30 20108 N 2103.34 0.971211 1.24118 0
M  V30 20109 C 2104.58 0.633768 1.91906 0
M  V30 20110 C 2104.91 -0.834157 1.76258 0
M  V30 20111 O 2104.18 -1.59579 1.13628 0
M  V30 20112 H 2102.76 0.231413 0.710251 0
M  V30 20113 H 2105.42 1.23304 1.50938 0
M  V30 20114 H 2104.51 0.877411 2.99513 0
M  V30 20115 N 2104.81 -1.39054 0.741747 0
M  V30 20116 C 2105.75 -2.28134 0.0548289 0
M  V30 20117 C 2106.73 -1.4475 -0.740697 0
M  V30 20118 O 2107.91 -1.74132 -0.721832 0
M  V30 20119 C 2105.04 -3.25699 -0.92941 0
M  V30 20120 C 2104.08 -4.25924 -0.221557 0
M  V30 20121 S 2104.92 -5.24716 1.06927 0
M  V30 20122 C 2106.07 -6.25838 0.0878046 0
M  V30 20123 H 2106.3 -2.86046 0.810253 0
M  V30 20124 H 2103.84 -1.44878 0.533825 0
M  V30 20125 H 2105.8 -3.82427 -1.49197 0
M  V30 20126 H 2104.46 -2.66793 -1.65772 0
M  V30 20127 H 2103.65 -4.94645 -0.966549 0
M  V30 20128 H 2103.25 -3.7303 0.269156 0
M  V30 20129 H 2105.54 -6.73333 -0.750286 0
M  V30 20130 H 2106.49 -7.04198 0.742344 0
M  V30 20131 H 2106.89 -5.63767 -0.287607 0
M  V30 20132 N 2106.29 -0.489897 -1.49792 0
M  V30 20133 C 2107.54 0.0585441 -2.02415 0
M  V30 20134 C 2107.87 1.38015 -1.37048 0
M  V30 20135 O 2107.12 1.89427 -0.491526 0
M  V30 20136 C 2107.42 0.271059 -3.56371 0
M  V30 20137 C 2107.09 -0.971168 -4.40317 0
M  V30 20138 C 2105.75 -1.31171 -4.62977 0
M  V30 20139 C 2108.1 -1.79739 -4.89227 0
M  V30 20140 C 2105.43 -2.47819 -5.31792 0
M  V30 20141 C 2107.78 -2.95531 -5.59325 0
M  V30 20142 C 2106.45 -3.29978 -5.80234 0
M  V30 20143 H 2105.72 0.0214228 -0.74069 0
M  V30 20144 H 2108.36 -0.6478 -1.8021 0
M  V30 20145 H 2106.67 1.05983 -3.77193 0
M  V30 20146 H 2108.36 0.70968 -3.9467 0
M  V30 20147 H 2104.95 -0.695889 -4.22913 0
M  V30 20148 H 2109.14 -1.54746 -4.71559 0
M  V30 20149 H 2104.39 -2.74759 -5.46185 0
M  V30 20150 H 2108.57 -3.59885 -5.96201 0
M  V30 20151 H 2106.2 -4.2047 -6.33332 0
M  V30 20152 N 2107.77 1.56011 -0.223262 0
M  V30 20153 C 2109.19 1.59052 0.132091 0
M  V30 20154 C 2109.39 1.2401 1.5882 0
M  V30 20155 O 2108.44 0.976155 2.32868 0
M  V30 20156 C 2109.76 3.00062 -0.195742 0
M  V30 20157 C 2111.3 3.12695 -0.138118 0
M  V30 20158 C 2111.78 4.55885 -0.439651 0
M  V30 20159 N 2113.27 4.61561 -0.389284 0
M  V30 20160 C 2114 5.70293 -0.596069 0
M  V30 20161 N 2113.5 6.87382 -0.86472 0
M  V30 20162 N 2115.29 5.59611 -0.528389 0
M  V30 20163 H 2107.44 1.77064 -1.17312 0
M  V30 20164 H 2109.71 0.823097 -0.470336 0
M  V30 20165 H 2109.41 3.3036 -1.20644 0
M  V30 20166 H 2109.29 3.74024 0.48845 0
M  V30 20167 H 2111.67 2.82192 0.863219 0
M  V30 20168 H 2111.76 2.41059 -0.855813 0
M  V30 20169 H 2111.4 4.87105 -1.43843 0
M  V30 20170 H 2111.33 5.25749 0.299255 0
M  V30 20171 H 2113.82 3.77425 -0.189406 0
M  V30 20172 H 2114.13 7.66164 -1.01056 0
M  V30 20173 H 2112.48 6.89123 -0.901933 0
M  V30 20174 H 2115.67 4.67014 -0.318724 0
M  V30 20175 H 2115.84 6.44284 -0.69295 0
M  V30 20176 N 2109.25 -0.0501116 1.5752 0
M  V30 20177 C 2110.49 -0.750186 1.90136 0
M  V30 20178 C 2110.85 -1.73631 0.819531 0
M  V30 20179 O 2112.05 -2.48308 1.02939 0
M  V30 20180 C 2110.32 -1.4207 3.27949 0
M  V30 20181 S 2111.88 -2.15284 3.82359 0
M  V30 20182 H 2108.7 -0.249004 0.665972 0
M  V30 20183 H 2111.3 -0.00547796 1.95499 0
M  V30 20184 H 2110.01 -0.689478 4.04567 0
M  V30 20185 H 2109.54 -2.2044 3.25837 0
M  V30 20186 H 2111.55 -3.42131 3.59389 0
M  V30 20187 N 2110.73 -1.54276 -0.321972 0
M  V30 20188 C 2111.98 -1.7177 -1.05726 0
M  V30 20189 C 2112.29 -0.499164 -1.89124 0
M  V30 20190 O 2113.49 -0.555477 -2.65757 0
M  V30 20191 C 2111.95 -3.03824 -1.92923 0
M  V30 20192 C 2111.56 -4.33087 -1.14629 0
M  V30 20193 C 2113.3 -3.30681 -2.66178 0
M  V30 20194 C 2111.21 -5.56202 -2.00981 0
M  V30 20195 H 2110.14 -0.64013 -0.398433 0
M  V30 20196 H 2112.79 -1.80769 -0.315414 0
M  V30 20197 H 2111.17 -2.88736 -2.71012 0
M  V30 20198 H 2112.35 -4.58946 -0.412993 0
M  V30 20199 H 2110.66 -4.13007 -0.530488 0
M  V30 20200 H 2113.26 -4.19857 -3.31096 0
M  V30 20201 H 2113.6 -2.48629 -3.339 0
M  V30 20202 H 2114.13 -3.46643 -1.95149 0
M  V30 20203 H 2110.87 -6.4086 -1.37764 0
M  V30 20204 H 2110.39 -5.3456 -2.7204 0
M  V30 20205 H 2112.07 -5.92667 -2.59528 0
M  V30 20206 N 2112.2 0.584116 -1.46376 0
M  V30 20207 C 2113.44 1.35344 -1.53171 0
M  V30 20208 C 2113.81 1.91168 -0.178507 0
M  V30 20209 O 2115.01 2.68527 -0.121206 0
M  V30 20210 C 2113.28 2.45362 -2.5987 0
M  V30 20211 S 2114.84 3.32739 -2.8606 0
M  V30 20212 H 2111.66 0.461125 -0.541188 0
M  V30 20213 H 2114.26 0.671631 -1.83601 0
M  V30 20214 H 2112.96 2.02739 -3.56826 0
M  V30 20215 H 2112.49 3.18316 -2.31167 0
M  V30 20216 H 2114.51 4.44156 -2.21223 0
M  V30 20217 N 2113.68 1.34058 0.828631 0
M  V30 20218 C 2114.63 1.25159 1.96056 0
M  V30 20219 C 2115.63 0.150843 1.68727 0
M  V30 20220 O 2116.83 0.315456 1.77214 0
M  V30 20221 H 2113.21 0.388669 0.643771 0
M  V30 20222 H 2115.18 2.20835 2.00685 0
M  V30 20223 C 2113.93 1.0181 3.32461 0
M  V30 20224 H 2113.25 1.8574 3.54035 0
M  V30 20225 H 2114.69 0.996172 4.12132 0
M  V30 20226 C 2113.15 -0.278758 3.35745 0
M  V30 20227 O 2113.68 -1.28204 3.80692 0
M  V30 20228 N 2111.88 -0.309877 2.88943 0
M  V30 20229 H 2111.43 0.507134 2.52559 0
M  V30 20230 H 2111.39 -1.17737 2.91523 0
M  V30 20231 N 2115.16 -1.04814 1.17694 0
M  V30 20232 C 2116.41 -1.77532 0.96576 0
M  V30 20233 C 2116.73 -1.88306 -0.506545 0
M  V30 20234 O 2116 -1.40259 -1.36763 0
M  V30 20235 H 2114.58 -0.657613 0.354336 0
M  V30 20236 H 2117.24 -1.26536 1.48239 0
M  V30 20237 H 2116.34 -2.79071 1.39735 0
M  V30 20238 N 2116.64 -0.977779 -1.23601 0
M  V30 20239 C 2117.89 -0.643936 -1.91567 0
M  V30 20240 C 2118.21 0.824798 -1.76698 0
M  V30 20241 O 2117.48 1.58974 -1.14473 0
M  V30 20242 H 2116.06 -0.235177 -0.709014 0
M  V30 20243 H 2118.72 -1.24103 -1.50282 0
M  V30 20244 H 2117.82 -0.893282 -2.99043 0
M  V30 20245 N 2118.12 1.38658 -0.749111 0
M  V30 20246 C 2119.35 2.04208 -0.313503 0
M  V30 20247 C 2119.76 1.56615 1.06153 0
M  V30 20248 O 2119.1 0.732462 1.68466 0
M  V30 20249 C 2119.16 3.58611 -0.252636 0
M  V30 20250 C 2118.82 4.29241 -1.56847 0
M  V30 20251 C 2119.82 4.5492 -2.51683 0
M  V30 20252 C 2117.51 4.67517 -1.83667 0
M  V30 20253 C 2119.5 5.17901 -3.71561 0
M  V30 20254 C 2117.19 5.30223 -3.0382 0
M  V30 20255 C 2118.19 5.5535 -3.97587 0
M  V30 20256 O 2117.87 6.16752 -5.15628 0
M  V30 20257 H 2117.61 0.662881 -0.132533 0
M  V30 20258 H 2120.16 1.7842 -1.01762 0
M  V30 20259 H 2118.39 3.83353 0.507689 0
M  V30 20260 H 2120.08 4.05612 0.152857 0
M  V30 20261 H 2120.84 4.25783 -2.32237 0
M  V30 20262 H 2116.72 4.47308 -1.1152 0
M  V30 20263 H 2120.27 5.37429 -4.44765 0
M  V30 20264 H 2116.16 5.58783 -3.2316 0
M  V30 20265 H 2116.93 6.35241 -5.1615 0
M  V30 20266 N 2119.6 0.497834 1.49531 0
M  V30 20267 C 2120.51 -0.286926 2.32839 0
M  V30 20268 C 2121.52 -0.970397 1.44427 0
M  V30 20269 O 2122.7 -0.952478 1.77454 0
M  V30 20270 C 2119.76 -1.33928 3.19788 0
M  V30 20271 C 2118.82 -0.669588 4.24046 0
M  V30 20272 C 2118.06 -1.67181 5.0684 0
M  V30 20273 O 2118.28 -2.90132 4.91101 0
M  V30 20274 O 2117.21 -1.22887 5.89222 0
M  V30 20275 H 2121.04 0.394869 3.01122 0
M  V30 20276 H 2118.62 0.259218 1.47134 0
M  V30 20277 H 2120.51 -1.94822 3.73661 0
M  V30 20278 H 2119.18 -2.00407 2.54202 0
M  V30 20279 H 2118.09 -0.0209922 3.74094 0
M  V30 20280 H 2119.42 -0.0473067 4.92177 0
M  V30 20281 N 2121.07 -1.5589 0.231532 0
M  V30 20282 C 2122 -2.23713 -0.66894 0
M  V30 20283 C 2122.98 -1.21219 -1.19332 0
M  V30 20284 O 2124.17 -1.49831 -1.23549 0
M  V30 20285 C 2121.3 -2.92476 -1.87284 0
M  V30 20286 C 2120.25 -4.01527 -1.48189 0
M  V30 20287 C 2119.58 -4.57637 -2.76537 0
M  V30 20288 C 2120.88 -5.18057 -0.664415 0
M  V30 20289 H 2122.57 -2.99221 -0.103437 0
M  V30 20290 H 2120.12 -1.43919 -0.0483103 0
M  V30 20291 H 2122.07 -3.38617 -2.50831 0
M  V30 20292 H 2120.8 -2.14431 -2.46347 0
M  V30 20293 H 2119.46 -3.56131 -0.869833 0
M  V30 20294 H 2119.1 -3.7631 -3.33766 0
M  V30 20295 H 2118.8 -5.31242 -2.51108 0
M  V30 20296 H 2120.33 -5.06503 -3.41009 0
M  V30 20297 H 2121.74 -5.60519 -1.20382 0
M  V30 20298 H 2120.14 -5.97956 -0.506811 0
M  V30 20299 H 2121.21 -4.83798 0.326792 0
M  V30 20300 N 2122.55 0.0417572 -1.57545 0
M  V30 20301 C 2123.83 0.769799 -1.79815 0
M  V30 20302 C 2124.21 1.94247 -0.826527 0
M  V30 20303 O 2123.56 2.28106 0.134058 0
M  V30 20304 C 2123.77 1.21472 -3.27178 0
M  V30 20305 C 2125.11 1.63585 -3.91823 0
M  V30 20306 O 2126.14 1.30963 -3.31251 0
M  V30 20307 O 2125 2.24087 -4.98445 0
M  V30 20308 H 2122.09 0.371214 -0.739005 0
M  V30 20309 H 2124.64 0.019513 -1.69689 0
M  V30 20310 H 2123.41 0.377014 -3.8948 0
M  V30 20311 H 2123.03 2.02541 -3.42144 0
M  V30 20312 N 2124.03 1.54445 0.313786 0
M  V30 20313 C 2125.45 1.45373 0.658707 0
M  V30 20314 C 2125.65 0.634528 1.91248 0
M  V30 20315 O 2124.7 0.137176 2.52127 0
M  V30 20316 C 2126.01 2.89201 0.823608 0
M  V30 20317 C 2127.56 2.99164 0.92032 0
M  V30 20318 C 2128.04 4.44162 1.11732 0
M  V30 20319 N 2129.53 4.47817 1.18382 0
M  V30 20320 C 2130.26 5.57177 1.35431 0
M  V30 20321 N 2129.76 6.76486 1.4946 0
M  V30 20322 N 2131.55 5.44842 1.38217 0
M  V30 20323 H 2123.7 2.06182 -0.510155 0
M  V30 20324 H 2125.97 0.933263 -0.166508 0
M  V30 20325 H 2125.67 3.5169 -0.0265797 0
M  V30 20326 H 2125.55 3.35881 1.7165 0
M  V30 20327 H 2127.93 2.36797 1.761 0
M  V30 20328 H 2128.01 2.558 0.00368975 0
M  V30 20329 H 2127.66 5.0712 0.281448 0
M  V30 20330 H 2127.59 4.85145 2.04797 0
M  V30 20331 H 2130.08 3.61855 1.08945 0
M  V30 20332 H 2130.39 7.55589 1.62188 0
M  V30 20333 H 2128.74 6.79376 1.46539 0
M  V30 20334 H 2131.93 4.50582 1.2686 0
M  V30 20335 H 2132.1 6.30122 1.51161 0
M  V30 20336 N 2125.51 -0.576345 1.46683 0
M  V30 20337 C 2126.76 -1.33168 1.52022 0
M  V30 20338 C 2127.08 -1.94204 0.17606 0
M  V30 20339 O 2126.35 -1.78907 -0.798069 0
M  V30 20340 H 2124.93 -0.494459 0.559928 0
M  V30 20341 H 2127.59 -0.674503 1.82856 0
M  V30 20342 H 2126.68 -2.13511 2.27638 0
M  V30 20343 N 2126.99 -1.34495 -0.82151 0
M  V30 20344 C 2128.23 -1.26681 -1.57469 0
M  V30 20345 C 2128.55 0.162701 -1.9432 0
M  V30 20346 O 2127.82 1.09566 -1.62395 0
M  V30 20347 H 2126.4 -0.465903 -0.583903 0
M  V30 20348 H 2129.07 -1.68424 -0.980791 0
M  V30 20349 H 2128.16 -1.87251 -2.49686 0
M  V30 20350 N 2128.46 1.04188 -1.18248 0
M  V30 20351 C 2129.71 1.77017 -0.975161 0
M  V30 20352 C 2130.03 1.88572 0.496551 0
M  V30 20353 O 2129.3 1.40982 1.36018 0
M  V30 20354 H 2127.88 0.655725 -0.357818 0
M  V30 20355 H 2130.55 1.25748 -1.48908 0
M  V30 20356 H 2129.64 2.78326 -1.41213 0
M  V30 20357 N 2129.94 0.98432 1.23081 0
M  V30 20358 C 2130.89 0.520259 2.26707 0
M  V30 20359 C 2131.88 -0.424715 1.63989 0
M  V30 20360 O 2133.09 -0.298177 1.77513 0
M  V30 20361 H 2129.47 0.149826 0.736923 0
M  V30 20362 H 2131.44 1.40587 2.63207 0
M  V30 20363 C 2130.19 -0.157874 3.47341 0
M  V30 20364 H 2129.51 0.560186 3.95856 0
M  V30 20365 H 2130.95 -0.446157 4.21646 0
M  V30 20366 C 2129.41 -1.3904 3.0687 0
M  V30 20367 O 2129.94 -2.48637 3.15503 0
M  V30 20368 N 2128.14 -1.26249 2.61743 0
M  V30 20369 H 2127.69 -0.370736 2.54918 0
M  V30 20370 H 2127.65 -2.08824 2.35032 0
M  V30 20371 N 2131.42 -1.38259 0.756453 0
M  V30 20372 C 2132.66 -2.01898 0.318855 0
M  V30 20373 C 2133.02 -1.5875 -1.07993 0
M  V30 20374 O 2134.23 -2.14739 -1.6168 0
M  V30 20375 C 2132.5 -3.54672 0.440749 0
M  V30 20376 S 2134.06 -4.38715 0.0861551 0
M  V30 20377 H 2130.87 -0.700186 0.123536 0
M  V30 20378 H 2133.48 -1.68715 0.987703 0
M  V30 20379 H 2132.18 -3.83564 1.45969 0
M  V30 20380 H 2131.71 -3.92635 -0.245183 0
M  V30 20381 H 2133.73 -4.83318 -1.12332 0
M  V30 20382 N 2132.9 -0.505757 -1.49264 0
M  V30 20383 C 2134.13 0.0337401 -2.06872 0
M  V30 20384 C 2134.54 1.30384 -1.36548 0
M  V30 20385 O 2133.9 1.76984 -0.4453 0
M  V30 20386 C 2133.95 0.286399 -3.60364 0
M  V30 20387 O 2133.67 -0.933356 -4.28042 0
M  V30 20388 C 2135.17 0.869003 -4.34699 0
M  V30 20389 H 2132.39 -0.022603 -0.670619 0
M  V30 20390 H 2134.94 -0.704475 -1.91983 0
M  V30 20391 H 2133.09 0.974605 -3.7494 0
M  V30 20392 H 2133.5 -0.699127 -5.1982 0
M  V30 20393 H 2134.98 0.995347 -5.42952 0
M  V30 20394 H 2135.46 1.86798 -3.97496 0
M  V30 20395 H 2136.06 0.218118 -4.2474 0
M  V30 20396 N 2134.38 1.55765 -0.239796 0
M  V30 20397 C 2135.65 1.90659 0.436876 0
M  V30 20398 C 2136.03 1.1596 1.76398 0
M  V30 20399 O 2135.38 0.274778 2.26842 0
M  V30 20400 C 2135.59 3.43593 0.611939 0
M  V30 20401 C 2136.94 4.1471 0.911065 0
M  V30 20402 O 2137.96 3.49293 0.698064 0
M  V30 20403 O 2136.82 5.30411 1.3163 0
M  V30 20404 H 2133.92 0.793348 0.233511 0
M  V30 20405 H 2136.46 1.67318 -0.283335 0
M  V30 20406 H 2135.23 3.89961 -0.323424 0
M  V30 20407 H 2134.86 3.72773 1.38296 0
M  V30 20408 N 2135.85 -0.0334016 1.57565 0
M  V30 20409 C 2137.1 -0.724102 1.88254 0
M  V30 20410 C 2137.42 -1.76752 0.837737 0
M  V30 20411 O 2138.62 -2.51051 1.03372 0
M  V30 20412 C 2137.08 -1.33894 3.34067 0
M  V30 20413 C 2136.69 -0.332091 4.46767 0
M  V30 20414 C 2138.43 -2.00977 3.7391 0
M  V30 20415 C 2136.34 -0.955024 5.83638 0
M  V30 20416 H 2135.27 -0.274201 0.702375 0
M  V30 20417 H 2137.92 0.0216608 1.83487 0
M  V30 20418 H 2136.3 -2.13426 3.33565 0
M  V30 20419 H 2137.47 0.436205 4.58731 0
M  V30 20420 H 2135.79 0.236407 4.15728 0
M  V30 20421 H 2138.39 -2.48428 4.73485 0
M  V30 20422 H 2138.73 -2.82605 3.05679 0
M  V30 20423 H 2139.26 -1.28225 3.76568 0
M  V30 20424 H 2136 -0.178244 6.55258 0
M  V30 20425 H 2135.52 -1.69326 5.75403 0
M  V30 20426 H 2137.2 -1.46364 6.30227 0
M  V30 20427 N 2137.33 -1.54609 -0.305591 0
M  V30 20428 C 2138.28 -1.85991 -1.39679 0
M  V30 20429 C 2139.27 -0.733256 -1.52708 0
M  V30 20430 O 2140.48 -0.917183 -1.5488 0
M  V30 20431 H 2136.86 -0.589836 -0.466474 0
M  V30 20432 H 2138.83 -2.77209 -1.10444 0
M  V30 20433 C 2137.58 -2.11986 -2.75604 0
M  V30 20434 H 2136.9 -2.9815 -2.66358 0
M  V30 20435 H 2138.34 -2.37886 -3.50979 0
M  V30 20436 C 2136.8 -0.916972 -3.24181 0
M  V30 20437 O 2137.33 -0.135175 -4.01472 0
M  V30 20438 N 2135.53 -0.723621 -2.81446 0
M  V30 20439 H 2135.08 -1.36103 -2.18709 0
M  V30 20440 H 2135.04 0.0796694 -3.14299 0
M  V30 20441 N 2138.81 0.568558 -1.46987 0
M  V30 20442 C 2139.72 1.70416 -1.61232 0
M  V30 20443 C 2140.74 1.66798 -0.495411 0
M  V30 20444 O 2141.91 1.86451 -0.761438 0
M  V30 20445 C 2138.98 3.06924 -1.6124 0
M  V30 20446 C 2138.04 3.21697 -2.8427 0
M  V30 20447 C 2137.27 4.51694 -2.84268 0
M  V30 20448 O 2137.49 5.36458 -1.93827 0
M  V30 20449 O 2136.43 4.70015 -3.75991 0
M  V30 20450 H 2140.25 1.61343 -2.57298 0
M  V30 20451 H 2137.84 0.737255 -1.29942 0
M  V30 20452 H 2139.72 3.88182 -1.6399 0
M  V30 20453 H 2138.4 3.16404 -0.683373 0
M  V30 20454 H 2137.3 2.39879 -2.87069 0
M  V30 20455 H 2138.64 3.17115 -3.76429 0
M  V30 20456 N 2140.29 1.34929 0.814366 0
M  V30 20457 C 2141.53 1.29124 1.5845 0
M  V30 20458 C 2141.89 -0.134731 1.91527 0
M  V30 20459 O 2143.09 -0.317063 2.66923 0
M  V30 20460 C 2141.36 2.16513 2.84354 0
M  V30 20461 S 2142.92 2.28146 3.74827 0
M  V30 20462 H 2139.74 0.459 0.542991 0
M  V30 20463 H 2142.34 1.70236 0.961249 0
M  V30 20464 H 2141.05 3.19109 2.58065 0
M  V30 20465 H 2140.58 1.76329 3.5167 0
M  V30 20466 H 2142.59 1.46054 4.74218 0
M  V30 20467 N 2141.77 -1.0356 1.18799 0
M  V30 20468 C 2142.73 -2.09853 0.921649 0
M  V30 20469 C 2143.73 -1.60519 -0.095096 0
M  V30 20470 O 2144.92 -1.73645 0.138909 0
M  V30 20471 C 2142.05 -3.38733 0.383809 0
M  V30 20472 H 2143.24 -2.34914 1.86428 0
M  V30 20473 H 2140.8 -1.20064 1.00071 0
M  V30 20474 H 2141.53 -3.19337 -0.565188 0
M  V30 20475 H 2141.32 -3.75859 1.11681 0
M  V30 20476 H 2142.81 -4.17039 0.216329 0
M  V30 20477 N 2143.25 -0.990834 -1.22557 0
M  V30 20478 C 2144.52 -0.581554 -1.86755 0
M  V30 20479 C 2144.9 0.941178 -1.88958 0
M  V30 20480 O 2144.25 1.82226 -1.37862 0
M  V30 20481 C 2144.46 -1.19961 -3.27735 0
M  V30 20482 C 2145.81 -1.29885 -4.04246 0
M  V30 20483 O 2146.83 -1.15385 -3.36994 0
M  V30 20484 O 2145.69 -1.53066 -5.24626 0
M  V30 20485 H 2142.79 -0.197289 -0.803123 0
M  V30 20486 H 2145.33 -1.08658 -1.30351 0
M  V30 20487 H 2144.1 -2.24125 -3.20755 0
M  V30 20488 H 2143.73 -0.680045 -3.91741 0
M  V30 20489 N 2144.72 1.37856 -0.763775 0
M  V30 20490 C 2146.13 1.82562 -0.390909 0
M  V30 20491 C 2146.49 1.63676 1.08188 0
M  V30 20492 O 2145.61 1.14349 1.8372 0
M  V30 20493 C 2146.21 3.31432 -0.702745 0
M  V30 20494 C 2144.76 3.74446 -0.383033 0
M  V30 20495 C 2143.91 2.60494 -0.950696 0
M  V30 20496 H 2146.86 1.2644 -0.95909 0
M  V30 20497 H 2146.88 3.80497 0.0154528 0
M  V30 20498 H 2146.4 3.45145 -1.77472 0
M  V30 20499 H 2144.5 3.66306 0.681946 0
M  V30 20500 H 2144.61 4.70842 -0.885708 0
M  V30 20501 H 2142.97 2.51918 -0.375427 0
M  V30 20502 H 2143.76 2.77003 -2.02791 0
M  V30 20503 N 2146.2 0.513665 1.48994 0
M  V30 20504 C 2147.45 -0.0263732 2.02783 0
M  V30 20505 C 2147.78 -1.35469 1.39147 0
M  V30 20506 O 2147.06 -1.87097 0.531511 0
M  V30 20507 C 2147.34 -0.165605 3.59719 0
M  V30 20508 C 2147.19 1.18673 4.33863 0
M  V30 20509 C 2148.51 -0.900228 4.30794 0
M  V30 20510 H 2145.63 -0.00811043 0.736955 0
M  V30 20511 H 2148.27 0.667534 1.77888 0
M  V30 20512 H 2146.42 -0.756613 3.81061 0
M  V30 20513 H 2148.09 1.81759 4.23983 0
M  V30 20514 H 2146.34 1.77281 3.95922 0
M  V30 20515 H 2147.01 1.04247 5.42067 0
M  V30 20516 H 2149.48 -0.398863 4.14184 0
M  V30 20517 H 2148.36 -0.966514 5.40324 0
M  V30 20518 H 2148.62 -1.94685 3.96926 0
M  V30 20519 N 2147.68 -1.55636 0.248053 0
M  V30 20520 C 2148.63 -2.22824 -0.667239 0
M  V30 20521 C 2149.62 -1.2162 -1.17919 0
M  V30 20522 O 2150.83 -1.39629 -1.13595 0
M  V30 20523 H 2147.2 -0.714778 -0.23366 0
M  V30 20524 H 2149.17 -2.983 -0.0774218 0
M  V30 20525 C 2147.92 -2.9423 -1.85267 0
M  V30 20526 H 2147.25 -3.71878 -1.46789 0
M  V30 20527 H 2148.69 -3.44604 -2.47031 0
M  V30 20528 C 2147.14 -1.98169 -2.72453 0
M  V30 20529 O 2147.67 -1.5155 -3.72016 0
M  V30 20530 N 2145.88 -1.65246 -2.39044 0
M  V30 20531 H 2145.43 -2.03352 -1.58132 0
M  V30 20532 H 2145.39 -1.01239 -2.97654 0
M  V30 20533 N 2149.16 0.0250451 -1.5758 0
M  V30 20534 C 2150.4 0.719842 -1.91305 0
M  V30 20535 C 2150.76 1.72305 -0.84705 0
M  V30 20536 O 2151.96 2.46639 -1.06876 0
M  V30 20537 C 2150.23 1.36835 -3.30168 0
M  V30 20538 S 2151.79 2.09174 -3.85735 0
M  V30 20539 H 2148.61 0.238377 -0.669849 0
M  V30 20540 H 2151.21 -0.025625 -1.95483 0
M  V30 20541 H 2149.92 0.625028 -4.05613 0
M  V30 20542 H 2149.45 2.15228 -3.29303 0
M  V30 20543 H 2151.46 3.3637 -3.64787 0
M  V30 20544 N 2150.64 1.54769 0.297388 0
M  V30 20545 C 2151.88 1.7343 1.0298 0
M  V30 20546 C 2152.2 0.529189 1.88305 0
M  V30 20547 O 2153.4 0.597687 2.64839 0
M  V30 20548 C 2151.86 3.06854 1.88065 0
M  V30 20549 C 2151.47 4.34856 1.07724 0
M  V30 20550 C 2153.21 3.34873 2.60883 0
M  V30 20551 C 2151.12 5.59329 1.92107 0
M  V30 20552 H 2150.05 0.646388 0.388199 0
M  V30 20553 H 2152.7 1.81248 0.286615 0
M  V30 20554 H 2151.08 2.93011 2.66385 0
M  V30 20555 H 2152.26 4.59544 0.339927 0
M  V30 20556 H 2150.57 4.13799 0.464715 0
M  V30 20557 H 2153.17 4.25071 3.24374 0
M  V30 20558 H 2153.51 2.5391 3.29902 0
M  V30 20559 H 2154.04 3.49704 1.8961 0
M  V30 20560 H 2150.78 6.4297 1.27551 0
M  V30 20561 H 2150.3 5.3882 2.63501 0
M  V30 20562 H 2151.98 5.96721 2.50067 0
M  V30 20563 N 2152.11 -0.560755 1.47286 0
M  V30 20564 C 2153.06 -1.68914 1.59908 0
M  V30 20565 C 2154.06 -1.62849 0.466545 0
M  V30 20566 O 2155.26 -1.68077 0.644218 0
M  V30 20567 H 2151.64 -0.558856 0.503174 0
M  V30 20568 H 2153.61 -1.55405 2.54739 0
M  V30 20569 C 2152.36 -3.07274 1.62721 0
M  V30 20570 H 2151.68 -3.12622 2.49214 0
M  V30 20571 H 2153.12 -3.85927 1.75603 0
M  V30 20572 C 2151.58 -3.34973 0.359852 0
M  V30 20573 O 2152.11 -3.98046 -0.540583 0
M  V30 20574 N 2150.31 -2.89599 0.24097 0
M  V30 20575 H 2149.86 -2.3845 0.974638 0
M  V30 20576 H 2149.82 -3.08503 -0.606066 0
M  V30 20577 N 2153.59 -1.35359 -0.807199 0
M  V30 20578 C 2154.84 -1.28344 -1.56116 0
M  V30 20579 C 2155.16 0.142081 -1.94482 0
M  V30 20580 O 2154.43 1.07837 -1.63548 0
M  V30 20581 H 2153.01 -0.47207 -0.578929 0
M  V30 20582 H 2155.67 -1.69454 -0.962872 0
M  V30 20583 H 2154.77 -1.89889 -2.47686 0
M  V30 20584 N 2155.07 1.02928 -1.19346 0
M  V30 20585 C 2156.32 1.76582 -0.997324 0
M  V30 20586 C 2156.65 1.88407 0.470801 0
M  V30 20587 O 2155.92 1.40057 1.34961 0
M  V30 20588 C 2156.21 3.19219 -1.66647 0
M  V30 20589 C 2156.06 3.15268 -3.20822 0
M  V30 20590 C 2157.38 4.17602 -1.38912 0
M  V30 20591 H 2154.5 0.640995 -0.363722 0
M  V30 20592 H 2157.14 1.20159 -1.4718 0
M  V30 20593 H 2155.29 3.67395 -1.26306 0
M  V30 20594 H 2156.96 2.74993 -3.70374 0
M  V30 20595 H 2155.2 2.52994 -3.52387 0
M  V30 20596 H 2155.88 4.1604 -3.62788 0
M  V30 20597 H 2158.35 3.78025 -1.73887 0
M  V30 20598 H 2157.23 5.15597 -1.88283 0
M  V30 20599 H 2157.49 4.40982 -0.314198 0
M  V30 20600 N 2156.55 0.997319 1.2203 0
M  V30 20601 C 2157.79 0.683932 1.92618 0
M  V30 20602 C 2158.15 -0.770282 1.75871 0
M  V30 20603 O 2159.35 -1.19529 2.40762 0
M  V30 20604 C 2157.62 1.0841 3.40561 0
M  V30 20605 S 2159.18 0.889754 4.29685 0
M  V30 20606 H 2156 0.249925 0.665626 0
M  V30 20607 H 2158.6 1.28053 1.47725 0
M  V30 20608 H 2157.31 2.13876 3.50265 0
M  V30 20609 H 2156.84 0.479484 3.90467 0
M  V30 20610 H 2158.85 -0.217337 4.95724 0
M  V30 20611 N 2158.03 -1.37449 0.771075 0
M  V30 20612 C 2159.28 -1.98953 0.331779 0
M  V30 20613 C 2159.59 -1.61903 -1.09758 0
M  V30 20614 O 2160.79 -2.16505 -1.63823 0
M  V30 20615 C 2159.25 -3.55792 0.542247 0
M  V30 20616 C 2158.86 -4.01781 1.98183 0
M  V30 20617 C 2160.6 -4.24173 0.16654 0
M  V30 20618 C 2158.51 -5.51327 2.13993 0
M  V30 20619 H 2157.44 -0.74434 0.120306 0
M  V30 20620 H 2160.09 -1.56988 0.950108 0
M  V30 20621 H 2158.47 -3.95733 -0.145529 0
M  V30 20622 H 2159.65 -3.73086 2.7045 0
M  V30 20623 H 2157.96 -3.46179 2.31406 0
M  V30 20624 H 2160.56 -5.34052 0.263191 0
M  V30 20625 H 2160.9 -4.06825 -0.883113 0
M  V30 20626 H 2161.43 -3.89532 0.806838 0
M  V30 20627 H 2158.17 -5.736 3.17275 0
M  V30 20628 H 2157.69 -5.81707 1.46208 0
M  V30 20629 H 2159.37 -6.17286 1.93822 0
M  V30 20630 N 2159.5 -0.52156 -1.4872 0
M  V30 20631 C 2160.45 0.259278 -2.3115 0
M  V30 20632 C 2161.45 0.943463 -1.40695 0
M  V30 20633 O 2162.65 0.868807 -1.57644 0
M  V30 20634 H 2159.03 0.10248 -0.744984 0
M  V30 20635 H 2161 -0.455653 -2.94901 0
M  V30 20636 C 2159.75 1.29841 -3.22547 0
M  V30 20637 H 2159.07 0.781352 -3.9209 0
M  V30 20638 H 2160.51 1.81634 -3.83125 0
M  V30 20639 C 2158.97 2.32757 -2.43569 0
M  V30 20640 O 2159.5 3.39036 -2.15448 0
M  V30 20641 N 2157.71 2.05753 -2.05217 0
M  V30 20642 H 2157.25 1.19343 -2.28287 0
M  V30 20643 H 2157.21 2.74836 -1.52685 0
M  V30 20644 N 2160.98 1.55502 -0.256304 0
M  V30 20645 C 2162.21 2.0357 0.36969 0
M  V30 20646 C 2162.63 1.13529 1.50853 0
M  V30 20647 O 2161.98 0.151576 1.81869 0
M  V30 20648 C 2162.03 3.5091 0.868581 0
M  V30 20649 O 2161.75 4.37522 -0.224886 0
M  V30 20650 C 2163.26 4.14782 1.56431 0
M  V30 20651 H 2160.48 0.665369 0.0867485 0
M  V30 20652 H 2163.02 2.00883 -0.382912 0
M  V30 20653 H 2161.17 3.54102 1.57133 0
M  V30 20654 H 2161.59 5.2427 0.155467 0
M  V30 20655 H 2163.06 5.1954 1.865 0
M  V30 20656 H 2163.54 3.6183 2.48949 0
M  V30 20657 H 2164.15 4.1554 0.905893 0
M  V30 20658 N 2162.46 -0.0166879 1.57591 0
M  V30 20659 C 2163.87 -0.561696 1.7805 0
M  V30 20660 C 2164.22 -1.74907 0.888926 0
M  V30 20661 O 2163.35 -2.16225 0.0869853 0
M  V30 20662 C 2163.94 -1.02576 3.22899 0
M  V30 20663 C 2162.5 -1.51619 3.44512 0
M  V30 20664 C 2161.65 -0.459817 2.73461 0
M  V30 20665 H 2164.6 0.209523 1.57311 0
M  V30 20666 H 2164.62 -1.89257 3.30094 0
M  V30 20667 H 2164.13 -0.16136 3.87764 0
M  V30 20668 H 2162.23 -2.40203 2.84839 0
M  V30 20669 H 2162.35 -1.55516 4.53157 0
M  V30 20670 H 2160.71 -0.917683 2.37594 0
M  V30 20671 H 2161.49 0.395327 3.41016 0
M  V30 20672 N 2163.94 -1.54924 -0.289176 0
M  V30 20673 C 2165.19 -1.74421 -1.02087 0
M  V30 20674 C 2165.51 -0.539388 -1.87392 0
M  V30 20675 O 2164.78 0.446105 -1.90753 0
M  V30 20676 H 2163.36 -0.643179 -0.379908 0
M  V30 20677 H 2166.02 -1.923 -0.317306 0
M  V30 20678 H 2165.12 -2.63841 -1.66716 0
M  V30 20679 N 2165.42 0.552936 -1.47582 0
M  V30 20680 C 2166.64 1.34003 -1.58297 0
M  V30 20681 C 2167.07 1.86625 -0.23511 0
M  V30 20682 O 2166.42 1.63197 0.789702 0
M  V30 20683 C 2166.47 2.48288 -2.61506 0
M  V30 20684 O 2165.58 3.50647 -2.17073 0
M  V30 20685 H 2164.92 0.397855 -0.531608 0
M  V30 20686 H 2167.45 0.667783 -1.93395 0
M  V30 20687 H 2167.46 2.94798 -2.8206 0
M  V30 20688 H 2166.13 2.09345 -3.59371 0
M  V30 20689 H 2164.71 3.10413 -2.06636 0
M  V30 20690 N 2166.89 1.35785 0.800009 0
M  V30 20691 C 2168.12 1.32363 1.5863 0
M  V30 20692 C 2168.53 -0.099518 1.88938 0
M  V30 20693 O 2167.88 -1.06381 1.49763 0
M  V30 20694 C 2167.94 2.0694 2.93966 0
M  V30 20695 C 2167.6 3.56091 2.86441 0
M  V30 20696 C 2168.6 4.50553 2.59419 0
M  V30 20697 C 2166.28 3.98831 3.05351 0
M  V30 20698 C 2168.28 5.8573 2.51394 0
M  V30 20699 C 2165.96 5.34102 2.96948 0
M  V30 20700 C 2166.96 6.27364 2.70006 0
M  V30 20701 O 2166.65 7.60153 2.61578 0
M  V30 20702 H 2166.38 0.456006 0.499033 0
M  V30 20703 H 2168.94 1.7932 1.00168 0
M  V30 20704 H 2167.17 1.5463 3.54438 0
M  V30 20705 H 2168.86 1.96511 3.55159 0
M  V30 20706 H 2169.62 4.18848 2.44522 0
M  V30 20707 H 2165.5 3.2662 3.25331 0
M  V30 20708 H 2169.04 6.58494 2.30285 0
M  V30 20709 H 2164.94 5.65418 3.11405 0
M  V30 20710 H 2165.71 7.70154 2.77137 0
M  V30 20711 N 2168.37 -1.02294 1.19891 0
M  V30 20712 C 2169.3 -2.12589 0.965816 0
M  V30 20713 C 2170.28 -1.69788 -0.102962 0
M  V30 20714 O 2171.47 -1.94127 0.0532676 0
M  V30 20715 C 2168.6 -3.43532 0.510181 0
M  V30 20716 C 2167.55 -4.00044 1.52147 0
M  V30 20717 C 2166.88 -5.26679 0.922703 0
M  V30 20718 C 2168.18 -4.34165 2.90341 0
M  V30 20719 H 2169.87 -2.32347 1.88826 0
M  V30 20720 H 2167.42 -1.11659 0.9093 0
M  V30 20721 H 2169.37 -4.20071 0.334377 0
M  V30 20722 H 2168.1 -3.23514 -0.447879 0
M  V30 20723 H 2166.75 -3.25606 1.68453 0
M  V30 20724 H 2166.4 -5.02982 -0.0430931 0
M  V30 20725 H 2166.1 -5.65452 1.59806 0
M  V30 20726 H 2167.63 -6.05879 0.757827 0
M  V30 20727 H 2169.04 -5.01617 2.77584 0
M  V30 20728 H 2167.44 -4.84036 3.54724 0
M  V30 20729 H 2168.51 -3.43207 3.42545 0
M  V30 20730 N 2169.85 -1.00378 -1.21499 0
M  V30 20731 C 2171.09 -0.694137 -1.92253 0
M  V30 20732 C 2171.45 0.760945 -1.76277 0
M  V30 20733 O 2172.66 1.18251 -2.41392 0
M  V30 20734 C 2170.93 -1.10215 -3.39982 0
M  V30 20735 S 2172.49 -0.912529 -4.29207 0
M  V30 20736 H 2169.3 -0.253452 -0.664292 0
M  V30 20737 H 2171.91 -1.28835 -1.47044 0
M  V30 20738 H 2170.61 -2.1573 -3.49126 0
M  V30 20739 H 2170.14 -0.500184 -3.90207 0
M  V30 20740 H 2172.16 0.191044 -4.95832 0
M  V30 20741 N 2171.33 1.37038 -0.778354 0
M  V30 20742 C 2172.55 2.0432 -0.356086 0
M  V30 20743 C 2172.98 1.58315 1.01577 0
M  V30 20744 O 2172.34 0.74645 1.65221 0
M  V30 20745 C 2172.38 3.58196 -0.41573 0
M  V30 20746 O 2171.49 4.08281 0.581416 0
M  V30 20747 H 2170.83 0.646127 -0.153022 0
M  V30 20748 H 2173.36 1.75219 -1.05639 0
M  V30 20749 H 2173.37 4.0707 -0.275375 0
M  V30 20750 H 2172.04 3.91034 -1.41652 0
M  V30 20751 H 2170.62 3.70709 0.403635 0
M  V30 20752 N 2172.81 0.529439 1.48441 0
M  V30 20753 C 2174.05 -0.00285821 2.044 0
M  V30 20754 C 2174.41 -1.31631 1.39776 0
M  V30 20755 O 2175.61 -1.93461 1.86618 0
M  V30 20756 C 2173.88 -0.122915 3.57189 0
M  V30 20757 S 2175.44 -0.605355 4.34604 0
M  V30 20758 H 2172.26 0.0118032 0.710902 0
M  V30 20759 H 2174.86 0.709877 1.82157 0
M  V30 20760 H 2173.57 0.837857 4.01756 0
M  V30 20761 H 2173.1 -0.860045 3.83884 0
M  V30 20762 H 2175.11 -1.86995 4.59616 0
M  V30 20763 N 2174.29 -1.55364 0.264547 0
M  V30 20764 C 2175.7 -1.85212 -0.235254 0
M  V30 20765 C 2176.05 -1.18652 -1.56256 0
M  V30 20766 O 2175.17 -0.471096 -2.1121 0
M  V30 20767 C 2175.77 -3.36014 -0.43363 0
M  V30 20768 C 2174.33 -3.66024 -0.877673 0
M  V30 20769 C 2173.47 -2.77278 0.0350996 0
M  V30 20770 H 2176.42 -1.51055 0.486633 0
M  V30 20771 H 2176.45 -3.58548 -1.27373 0
M  V30 20772 H 2175.96 -3.84429 0.532565 0
M  V30 20773 H 2174.06 -3.23101 -1.85571 0
M  V30 20774 H 2174.17 -4.73624 -0.722315 0
M  V30 20775 H 2172.54 -2.50148 -0.479378 0
M  V30 20776 H 2173.32 -3.28504 0.996986 0
M  V30 20777 N 2175.76 0.00833021 -1.57598 0
M  V30 20778 C 2176.7 1.03042 -2.04732 0
M  V30 20779 C 2177.71 1.31209 -0.96374 0
M  V30 20780 O 2178.9 1.28332 -1.24069 0
M  V30 20781 C 2176 2.36718 -2.42523 0
M  V30 20782 C 2175.17 2.2761 -3.73513 0
M  V30 20783 C 2174.23 3.43906 -3.98265 0
M  V30 20784 O 2173.26 3.22467 -4.69045 0
M  V30 20785 N 2174.46 4.66478 -3.45512 0
M  V30 20786 H 2177.22 0.628522 -2.93035 0
M  V30 20787 H 2174.78 0.19588 -1.60711 0
M  V30 20788 H 2176.78 3.13277 -2.56203 0
M  V30 20789 H 2175.35 2.68679 -1.59782 0
M  V30 20790 H 2174.57 1.36016 -3.69991 0
M  V30 20791 H 2175.85 2.18689 -4.59405 0
M  V30 20792 H 2175.25 4.86795 -2.88179 0
M  V30 20793 H 2173.81 5.40331 -3.64535 0
M  V30 20794 N 2177.24 1.55075 0.280956 0
M  V30 20795 C 2178.52 1.6601 1.0344 0
M  V30 20796 C 2178.9 0.521384 2.0456 0
M  V30 20797 O 2178.25 -0.479533 2.23412 0
M  V30 20798 C 2178.46 3.04889 1.69834 0
M  V30 20799 C 2179.8 3.62374 2.21292 0
M  V30 20800 O 2180.83 3.07471 1.79834 0
M  V30 20801 O 2179.69 4.5855 2.97311 0
M  V30 20802 H 2176.78 0.673927 0.479324 0
M  V30 20803 H 2179.33 1.67417 0.277446 0
M  V30 20804 H 2178.1 3.7921 0.96517 0
M  V30 20805 H 2177.72 3.07347 2.52237 0
M  V30 20806 N 2178.72 -0.545102 1.47873 0
M  V30 20807 C 2179.97 -1.30171 1.55119 0
M  V30 20808 C 2180.29 -1.93268 0.21859 0
M  V30 20809 O 2179.55 -1.79059 -0.789717 0
M  V30 20810 C 2179.85 -2.42353 2.62678 0
M  V30 20811 C 2179.51 -1.97008 4.05584 0
M  V30 20812 C 2178.18 -1.84358 4.44484 0
M  V30 20813 C 2180.53 -1.62553 4.95203 0
M  V30 20814 C 2177.86 -1.35566 5.70823 0
M  V30 20815 C 2180.21 -1.15228 6.22017 0
M  V30 20816 C 2178.87 -1.01184 6.59786 0
M  V30 20817 H 2178.14 -0.476329 0.567619 0
M  V30 20818 H 2180.79 -0.609975 1.81526 0
M  V30 20819 H 2179.09 -3.17133 2.30074 0
M  V30 20820 H 2180.79 -3.00514 2.65504 0
M  V30 20821 H 2177.38 -2.078 3.74856 0
M  V30 20822 H 2181.57 -1.71193 4.6584 0
M  V30 20823 H 2176.82 -1.23367 5.98824 0
M  V30 20824 H 2181 -0.87634 6.90864 0
M  V30 20825 H 2178.62 -0.631553 7.57572 0
M  V30 20826 N 2180.2 -1.36208 -0.792797 0
M  V30 20827 C 2181.11 -1.32403 -1.93666 0
M  V30 20828 C 2182.12 -0.226736 -1.72516 0
M  V30 20829 O 2183.3 -0.458518 -1.96111 0
M  V30 20830 C 2180.36 -1.10928 -3.28475 0
M  V30 20831 C 2179.43 -2.301 -3.62426 0
M  V30 20832 C 2178.66 -2.0964 -4.90802 0
M  V30 20833 O 2178.88 -1.06985 -5.60277 0
M  V30 20834 O 2177.82 -2.97336 -5.23331 0
M  V30 20835 H 2181.64 -2.287 -1.99825 0
M  V30 20836 H 2179.23 -1.1672 -0.932566 0
M  V30 20837 H 2181.11 -1.00855 -4.09153 0
M  V30 20838 H 2179.78 -0.17691 -3.23216 0
M  V30 20839 H 2178.69 -2.45741 -2.82068 0
M  V30 20840 H 2180.02 -3.21832 -3.72405 0
M  V30 20841 N 2181.68 1.01656 -1.20431 0
M  V30 20842 C 2182.61 2.12074 -0.977076 0
M  V30 20843 C 2183.59 1.6984 0.0939563 0
M  V30 20844 O 2184.77 1.94096 -0.0635618 0
M  V30 20845 C 2181.9 3.43257 -0.528392 0
M  V30 20846 C 2180.86 3.99231 -1.54267 0
M  V30 20847 C 2180.18 5.26182 -0.950621 0
M  V30 20848 C 2181.48 4.32619 -2.92639 0
M  V30 20849 H 2183.18 2.31342 -1.90056 0
M  V30 20850 H 2180.72 1.11175 -0.915209 0
M  V30 20851 H 2182.67 4.19888 -0.35665 0
M  V30 20852 H 2181.4 3.23747 0.430716 0
M  V30 20853 H 2180.06 3.24708 -1.70177 0
M  V30 20854 H 2179.71 5.02997 0.0164182 0
M  V30 20855 H 2179.41 5.64597 -1.62802 0
M  V30 20856 H 2180.93 6.05469 -0.789947 0
M  V30 20857 H 2182.34 5.00138 -2.8024 0
M  V30 20858 H 2180.74 4.82148 -3.57286 0
M  V30 20859 H 2181.81 3.41386 -3.4436 0
M  V30 20860 N 2183.15 1.01021 1.20965 0
M  V30 20861 C 2184.1 0.568229 2.25552 0
M  V30 20862 C 2185.1 -0.389834 1.64853 0
M  V30 20863 O 2186.3 -0.260456 1.78106 0
M  V30 20864 H 2182.68 0.165424 0.73358 0
M  V30 20865 H 2184.65 1.46139 2.60165 0
M  V30 20866 C 2183.4 -0.0841621 3.47598 0
M  V30 20867 H 2182.72 0.644027 3.94579 0
M  V30 20868 H 2184.16 -0.356619 4.22498 0
M  V30 20869 C 2182.62 -1.325 3.09751 0
M  V30 20870 O 2183.15 -2.41889 3.20706 0
M  V30 20871 N 2181.35 -1.20669 2.64362 0
M  V30 20872 H 2180.9 -0.316581 2.55647 0
M  V30 20873 H 2180.86 -2.03792 2.39408 0
M  V30 20874 N 2184.63 -1.36623 0.78561 0
M  V30 20875 C 2186.04 -1.81917 0.419903 0
M  V30 20876 C 2186.39 -1.65376 -1.0557 0
M  V30 20877 O 2185.52 -1.17258 -1.81878 0
M  V30 20878 C 2186.11 -3.30272 0.755384 0
M  V30 20879 C 2184.67 -3.73789 0.442556 0
M  V30 20880 C 2183.82 -2.58948 0.992018 0
M  V30 20881 H 2186.77 -1.24899 0.979084 0
M  V30 20882 H 2186.79 -3.80473 0.0450829 0
M  V30 20883 H 2186.3 -3.42278 1.8294 0
M  V30 20884 H 2184.4 -3.67345 -0.623584 0
M  V30 20885 H 2184.52 -4.69373 0.960503 0
M  V30 20886 H 2182.88 -2.51289 0.415458 0
M  V30 20887 H 2183.66 -2.73742 2.07172 0
M  V30 20888 N 2186.11 -0.537304 -1.48158 0
M  V30 20889 C 2187.33 -0.00809879 -2.07398 0
M  V30 20890 C 2187.76 1.26708 -1.39021 0
M  V30 20891 O 2187.12 1.75405 -0.458551 0
M  V30 20892 C 2187.17 0.191371 -3.60092 0
M  V30 20893 O 2186.27 1.25844 -3.9273 0
M  V30 20894 H 2185.61 -0.042404 -0.662645 0
M  V30 20895 H 2188.14 -0.747308 -1.90464 0
M  V30 20896 H 2188.15 0.411766 -4.05917 0
M  V30 20897 H 2186.83 -0.740103 -4.09262 0
M  V30 20898 H 2185.4 1.02012 -3.58675 0
M  V30 20899 N 2187.59 1.55221 -0.272782 0
M  V30 20900 C 2188.84 1.99151 0.343986 0
M  V30 20901 C 2189.16 1.16259 1.56553 0
M  V30 20902 O 2188.43 0.25154 1.94278 0
M  V30 20903 H 2187.01 0.735586 0.130087 0
M  V30 20904 H 2189.67 1.91208 -0.377577 0
M  V30 20905 H 2188.77 3.05562 0.635452 0
M  V30 20906 N 2189.07 2.77022e-05 1.576 0
M  V30 20907 C 2190.31 -0.685829 1.90851 0
M  V30 20908 C 2190.65 -1.73422 0.873984 0
M  V30 20909 O 2189.92 -1.94204 -0.107282 0
M  V30 20910 C 2190.2 -1.32893 3.34681 0
M  V30 20911 C 2190.06 -0.292085 4.48851 0
M  V30 20912 C 2191.38 -2.25509 3.77933 0
M  V30 20913 H 2188.49 -0.247851 0.694074 0
M  V30 20914 H 2191.14 0.0513272 1.89931 0
M  V30 20915 H 2189.29 -1.95723 3.35596 0
M  V30 20916 H 2190.96 0.336531 4.60071 0
M  V30 20917 H 2189.2 0.385648 4.32082 0
M  V30 20918 H 2189.87 -0.781112 5.46445 0
M  V30 20919 H 2192.35 -1.72696 3.7857 0
M  V30 20920 H 2191.22 -2.67473 4.79322 0
M  V30 20921 H 2191.49 -3.13419 3.11803 0
M  V30 20922 N 2190.54 -1.55222 -0.272728 0
M  V30 20923 C 2191.79 -1.75494 -1.00231 0
M  V30 20924 C 2192.11 -0.559233 -1.86809 0
M  V30 20925 O 2191.38 0.425848 -1.91215 0
M  V30 20926 H 2189.96 -0.647172 -0.373065 0
M  V30 20927 H 2192.63 -1.92625 -0.296893 0
M  V30 20928 H 2191.72 -2.65594 -1.63909 0
M  V30 20929 N 2192.02 0.537252 -1.4816 0
M  V30 20930 C 2193.26 1.30403 -1.57399 0
M  V30 20931 C 2193.63 1.90504 -0.239236 0
M  V30 20932 O 2194.83 2.68005 -0.206575 0
M  V30 20933 C 2193.1 2.3697 -2.67545 0
M  V30 20934 S 2194.66 3.23469 -2.96501 0
M  V30 20935 H 2191.48 0.443674 -0.555584 0
M  V30 20936 H 2194.08 0.61288 -1.85645 0
M  V30 20937 H 2192.78 1.91285 -3.63096 0
M  V30 20938 H 2192.31 3.10801 -2.41177 0
M  V30 20939 H 2194.33 4.36893 -2.35242 0
M  V30 20940 N 2193.5 1.36626 0.785562 0
M  V30 20941 C 2194.75 1.31264 1.54588 0
M  V30 20942 C 2195.08 -0.106789 1.93906 0
M  V30 20943 O 2194.35 -1.06105 1.63009 0
M  V30 20944 C 2194.64 2.23894 2.82034 0
M  V30 20945 C 2194.49 3.74553 2.49059 0
M  V30 20946 C 2195.81 2.15224 3.83884 0
M  V30 20947 H 2192.93 0.478152 0.560838 0
M  V30 20948 H 2195.57 1.67211 0.902248 0
M  V30 20949 H 2193.72 1.93369 3.36958 0
M  V30 20950 H 2195.39 4.15614 2.00157 0
M  V30 20951 H 2193.64 3.93799 1.81947 0
M  V30 20952 H 2194.31 4.34782 3.40101 0
M  V30 20953 H 2196.78 2.42101 3.38417 0
M  V30 20954 H 2195.66 2.82201 4.70801 0
M  V30 20955 H 2195.92 1.14075 4.27129 0
M  V30 20956 N 2194.98 -1.01016 1.20969 0
M  V30 20957 C 2196.26 -1.71932 0.93267 0
M  V30 20958 C 2196.64 -2.03622 -0.556884 0
M  V30 20959 O 2195.98 -1.70583 -1.52032 0
M  V30 20960 C 2196.19 -2.98251 1.81238 0
M  V30 20961 C 2197.54 -3.71385 2.05811 0
M  V30 20962 O 2198.57 -3.08221 1.78544 0
M  V30 20963 O 2197.42 -4.84985 2.51896 0
M  V30 20964 H 2194.52 -0.749619 0.349286 0
M  V30 20965 H 2197.06 -1.06806 1.31873 0
M  V30 20966 H 2195.84 -2.71203 2.82072 0
M  V30 20967 H 2195.46 -3.71117 1.4268 0
M  V30 20968 N 2196.46 -1.01661 -1.20428 0
M  V30 20969 C 2197.68 -0.725166 -1.93776 0
M  V30 20970 C 2198.1 0.714135 -1.74773 0
M  V30 20971 O 2197.46 1.48438 -1.06171 0
M  V30 20972 C 2197.51 -1.05136 -3.45874 0
M  V30 20973 O 2197.23 -2.43412 -3.64255 0
M  V30 20974 C 2198.73 -0.780967 -4.36367 0
M  V30 20975 H 2195.95 -0.266294 -0.615896 0
M  V30 20976 H 2198.49 -1.35779 -1.52919 0
M  V30 20977 H 2196.65 -0.464133 -3.8461 0
M  V30 20978 H 2197.06 -2.55177 -4.58241 0
M  V30 20979 H 2198.54 -1.05928 -5.41741 0
M  V30 20980 H 2199.01 0.28486 -4.38275 0
M  V30 20981 H 2199.62 -1.35034 -4.03294 0
M  V30 20982 N 2197.93 1.36205 -0.792844 0
M  V30 20983 C 2199.35 1.5237 -0.47493 0
M  V30 20984 C 2199.55 1.7458 1.00619 0
M  V30 20985 O 2198.61 1.77927 1.79159 0
M  V30 20986 C 2199.92 2.70745 -1.30835 0
M  V30 20987 C 2201.47 2.84617 -1.30239 0
M  V30 20988 C 2201.94 4.06 -2.11963 0
M  V30 20989 N 2203.43 4.13152 -2.09427 0
M  V30 20990 C 2204.17 5.06158 -2.69428 0
M  V30 20991 N 2203.66 6.04586 -3.38301 0
M  V30 20992 N 2205.46 4.988 -2.59143 0
M  V30 20993 H 2197.61 1.20043 -1.75224 0
M  V30 20994 H 2199.87 0.586198 -0.745034 0
M  V30 20995 H 2199.58 2.60866 -2.35885 0
M  V30 20996 H 2199.45 3.64988 -0.952024 0
M  V30 20997 H 2201.84 2.93954 -0.259799 0
M  V30 20998 H 2201.92 1.91271 -1.6985 0
M  V30 20999 H 2201.56 3.97423 -3.16255 0
M  V30 21000 H 2201.49 4.985 -1.6972 0
M  V30 21001 H 2203.98 3.42682 -1.59303 0
M  V30 21002 H 2204.3 6.72123 -3.81405 0
M  V30 21003 H 2202.64 6.04801 -3.42404 0
M  V30 21004 H 2205.83 4.20855 -2.04935 0
M  V30 21005 H 2206.01 5.71094 -3.06195 0
M  V30 21006 N 2199.41 0.545154 1.47871 0
M  V30 21007 C 2200.38 -0.198677 2.28337 0
M  V30 21008 C 2201.38 -0.853864 1.36256 0
M  V30 21009 O 2202.57 -0.711578 1.59004 0
M  V30 21010 C 2199.7 -1.2891 3.15587 0
M  V30 21011 H 2200.89 0.507993 2.95566 0
M  V30 21012 H 2198.44 0.301643 1.53362 0
M  V30 21013 H 2199.18 -2.02855 2.53023 0
M  V30 21014 H 2198.96 -0.824241 3.83339 0
M  V30 21015 H 2200.45 -1.81187 3.76246 0
M  V30 21016 N 2200.89 -1.55074 0.28101 0
M  V30 21017 C 2202.14 -1.99331 -0.33342 0
M  V30 21018 C 2202.46 -1.17087 -1.55934 0
M  V30 21019 O 2201.73 -0.261839 -1.94142 0
M  V30 21020 H 2200.31 -0.736265 -0.126184 0
M  V30 21021 H 2202.97 -1.91005 0.387712 0
M  V30 21022 H 2202.07 -3.05895 -0.619238 0
M  V30 21023 N 2202.37 -0.00838561 -1.57598 0
M  V30 21024 C 2203.32 0.998471 -2.10079 0
M  V30 21025 C 2204.31 1.35049 -1.02264 0
M  V30 21026 O 2205.52 1.33515 -1.20721 0
M  V30 21027 H 2201.89 0.339685 -0.670909 0
M  V30 21028 H 2203.86 0.530346 -2.93649 0
M  V30 21029 C 2202.61 2.27874 -2.62619 0
M  V30 21030 H 2201.94 2.01656 -3.45217 0
M  V30 21031 H 2203.38 2.96582 -3.0301 0
M  V30 21032 C 2201.83 2.9943 -1.54412 0
M  V30 21033 O 2202.36 3.90741 -0.931881 0
M  V30 21034 N 2200.57 2.61402 -1.26955 0
M  V30 21035 H 2200.12 1.87229 -1.76927 0
M  V30 21036 H 2200.08 3.09592 -0.547759 0
M  V30 21037 N 2203.85 1.55365 0.264492 0
M  V30 21038 C 2205.09 1.78127 1.00251 0
M  V30 21039 C 2205.45 0.575049 1.83186 0
M  V30 21040 O 2206.65 0.681088 2.60028 0
M  V30 21041 C 2204.92 3.05507 1.85473 0
M  V30 21042 S 2206.48 3.49422 2.65424 0
M  V30 21043 H 2203.3 0.625785 0.337511 0
M  V30 21044 H 2205.9 1.93598 0.272077 0
M  V30 21045 H 2204.61 3.91382 1.23484 0
M  V30 21046 H 2204.14 2.92725 2.62822 0
M  V30 21047 H 2206.15 3.09366 3.87952 0
M  V30 21048 N 2205.33 -0.529387 1.48443 0
M  V30 21049 C 2206.57 -1.28518 1.56491 0
M  V30 21050 C 2206.9 -1.93025 0.239076 0
M  V30 21051 O 2206.16 -1.79886 -0.770681 0
M  V30 21052 C 2206.45 -2.39553 2.65234 0
M  V30 21053 C 2206.12 -1.92695 4.07651 0
M  V30 21054 C 2204.78 -1.79633 4.46414 0
M  V30 21055 C 2207.13 -1.57291 4.96899 0
M  V30 21056 C 2204.46 -1.29504 5.72229 0
M  V30 21057 C 2206.81 -1.08625 6.23204 0
M  V30 21058 C 2205.48 -0.941803 6.60822 0
M  V30 21059 H 2204.75 -0.470282 0.572639 0
M  V30 21060 H 2207.4 -0.590688 1.82162 0
M  V30 21061 H 2205.7 -3.14675 2.33425 0
M  V30 21062 H 2207.4 -2.97681 2.68676 0
M  V30 21063 H 2203.99 -2.03812 3.77039 0
M  V30 21064 H 2208.17 -1.66242 4.67629 0
M  V30 21065 H 2203.43 -1.17009 6.00099 0
M  V30 21066 H 2207.6 -0.803015 6.91755 0
M  V30 21067 H 2205.23 -0.551167 7.58199 0
M  V30 21068 N 2206.8 -1.37041 -0.778305 0
M  V30 21069 C 2207.73 -1.34965 -1.90543 0
M  V30 21070 C 2208.71 -0.219304 -1.6868 0
M  V30 21071 O 2209.9 -0.418657 -1.89634 0
M  V30 21072 C 2207.03 -1.14931 -3.27732 0
M  V30 21073 C 2205.98 -2.24908 -3.64143 0
M  V30 21074 C 2205.31 -1.90004 -4.99802 0
M  V30 21075 C 2206.61 -3.67058 -3.71572 0
M  V30 21076 H 2208.3 -2.29281 -1.92537 0
M  V30 21077 H 2205.85 -1.10368 -0.924928 0
M  V30 21078 H 2207.8 -1.12111 -4.06213 0
M  V30 21079 H 2206.53 -0.170689 -3.26154 0
M  V30 21080 H 2205.19 -2.26873 -2.87966 0
M  V30 21081 H 2204.83 -0.906883 -4.94757 0
M  V30 21082 H 2204.53 -2.63644 -5.25134 0
M  V30 21083 H 2206.06 -1.88759 -5.80691 0
M  V30 21084 H 2207.47 -3.67259 -4.4022 0
M  V30 21085 H 2205.87 -4.39695 -4.08397 0
M  V30 21086 H 2206.94 -4.01158 -2.72397 0
M  V30 21087 N 2208.28 1.00373 -1.21503 0
M  V30 21088 C 2209.19 2.12619 -0.991484 0
M  V30 21089 C 2210.21 1.73907 0.056814 0
M  V30 21090 O 2211.38 2.00957 -0.133516 0
M  V30 21091 C 2208.45 3.42141 -0.560372 0
M  V30 21092 C 2207.51 3.95019 -1.68103 0
M  V30 21093 C 2206.74 5.1836 -1.27039 0
M  V30 21094 O 2206.97 5.70217 -0.144538 0
M  V30 21095 O 2205.9 5.64715 -2.08279 0
M  V30 21096 H 2209.73 2.34354 -1.93162 0
M  V30 21097 H 2207.31 1.10995 -1.00002 0
M  V30 21098 H 2209.19 4.20107 -0.329798 0
M  V30 21099 H 2207.87 3.21791 0.351033 0
M  V30 21100 H 2206.77 3.18274 -1.96602 0
M  V30 21101 H 2208.11 4.19782 -2.56991 0
M  V30 21102 N 2209.76 1.02298 1.19887 0
M  V30 21103 C 2210.99 0.735433 1.93388 0
M  V30 21104 C 2211.4 -0.704856 1.75149 0
M  V30 21105 O 2210.76 -1.47873 1.06957 0
M  V30 21106 C 2210.81 1.06968 3.45312 0
M  V30 21107 O 2210.53 2.45341 3.62959 0
M  V30 21108 C 2212.03 0.804098 4.35946 0
M  V30 21109 H 2209.25 0.269557 0.614475 0
M  V30 21110 H 2211.8 1.36588 1.52197 0
M  V30 21111 H 2209.95 0.484523 3.84358 0
M  V30 21112 H 2210.37 2.57603 4.56882 0
M  V30 21113 H 2211.84 1.08799 5.41172 0
M  V30 21114 H 2212.32 -0.261613 4.3842 0
M  V30 21115 H 2212.92 1.37171 4.02572 0
M  V30 21116 N 2211.24 -1.35782 0.800057 0
M  V30 21117 C 2212.19 -2.27299 0.178694 0
M  V30 21118 C 2213.17 -1.47465 -0.643641 0
M  V30 21119 O 2214.36 -1.69733 -0.50197 0
M  V30 21120 C 2211.49 -3.36556 -0.677135 0
M  V30 21121 C 2210.58 -4.23818 0.154572 0
M  V30 21122 N 2210.97 -4.91006 1.21436 0
M  V30 21123 C 2209.27 -4.45953 -0.0648678 0
M  V30 21124 C 2209.97 -5.55641 1.72157 0
M  V30 21125 N 2208.94 -5.33771 1.02907 0
M  V30 21126 H 2212.75 -2.76735 0.989686 0
M  V30 21127 H 2210.26 -1.49233 0.640566 0
M  V30 21128 H 2212.26 -4.0106 -1.13828 0
M  V30 21129 H 2210.92 -2.88672 -1.48655 0
M  V30 21130 H 2211.93 -4.92665 1.59693 0
M  V30 21131 H 2208.61 -4.08881 -0.843944 0
M  V30 21132 H 2210 -6.19264 2.60694 0
M  V30 21133 N 2212.72 -0.552988 -1.4758 0
M  V30 21134 C 2213.99 0.0381172 -1.95563 0
M  V30 21135 C 2214.37 1.48985 -1.49555 0
M  V30 21136 O 2213.72 2.16443 -0.732452 0
M  V30 21137 C 2213.93 -0.10298 -3.48848 0
M  V30 21138 C 2215.28 0.0445335 -4.24577 0
M  V30 21139 O 2216.3 -0.0303175 -3.56187 0
M  V30 21140 O 2215.16 0.204827 -5.46116 0
M  V30 21141 H 2212.26 0.0664922 -0.824323 0
M  V30 21142 H 2214.8 -0.619213 -1.57999 0
M  V30 21143 H 2213.57 -1.11335 -3.75127 0
M  V30 21144 H 2213.2 0.592155 -3.93166 0
M  V30 21145 N 2214.19 1.54923 -0.28923 0
M  V30 21146 C 2215.61 1.5947 0.0645122 0
M  V30 21147 C 2215.81 1.30635 1.53417 0
M  V30 21148 O 2214.87 1.07404 2.28518 0
M  V30 21149 C 2216.18 2.98962 -0.322833 0
M  V30 21150 C 2217.73 3.11828 -0.270619 0
M  V30 21151 C 2218.2 4.5361 -0.632611 0
M  V30 21152 N 2219.69 4.59495 -0.584698 0
M  V30 21153 C 2220.43 5.67252 -0.837414 0
M  V30 21154 N 2219.92 6.83096 -1.15548 0
M  V30 21155 N 2221.72 5.56866 -0.765264 0
M  V30 21156 H 2213.87 1.71929 -1.24717 0
M  V30 21157 H 2216.13 0.802407 -0.504823 0
M  V30 21158 H 2215.84 3.24946 -1.34547 0
M  V30 21159 H 2215.71 3.75759 0.329374 0
M  V30 21160 H 2218.1 2.856 0.742755 0
M  V30 21161 H 2218.18 2.37212 -0.957284 0
M  V30 21162 H 2217.82 4.80566 -1.64374 0
M  V30 21163 H 2217.75 5.26545 0.0759974 0
M  V30 21164 H 2220.24 3.76282 -0.349314 0
M  V30 21165 H 2220.56 7.61189 -1.33461 0
M  V30 21166 H 2218.9 6.84677 -1.1934 0
M  V30 21167 H 2222.09 4.65242 -0.516514 0
M  V30 21168 H 2222.27 6.40765 -0.96559 0
M  V30 21169 N 2215.67 0.0167433 1.57591 0
M  V30 21170 C 2216.92 -0.663251 1.90907 0
M  V30 21171 C 2217.24 -1.73375 0.892539 0
M  V30 21172 O 2216.51 -1.95783 -0.0677279 0
M  V30 21173 H 2215.09 -0.247971 0.704641 0
M  V30 21174 H 2217.75 0.0616251 1.94803 0
M  V30 21175 H 2216.85 -1.12387 2.91162 0
M  V30 21176 N 2217.15 -1.55503 -0.256249 0
M  V30 21177 C 2218.43 -1.67635 -1.00786 0
M  V30 21178 C 2218.81 -0.553862 -2.03705 0
M  V30 21179 O 2218.16 0.443929 -2.24146 0
M  V30 21180 C 2218.37 -3.07552 -1.64962 0
M  V30 21181 C 2219.71 -3.65849 -2.15499 0
M  V30 21182 O 2220.74 -3.10293 -1.7492 0
M  V30 21183 O 2219.6 -4.63222 -2.89978 0
M  V30 21184 H 2216.69 -0.681468 -0.468541 0
M  V30 21185 H 2219.24 -1.67837 -0.250776 0
M  V30 21186 H 2218.01 -3.80697 -0.904718 0
M  V30 21187 H 2217.63 -3.11321 -2.47315 0
M  V30 21188 N 2218.63 0.521507 -1.48721 0
M  V30 21189 C 2219.85 1.30615 -1.61104 0
M  V30 21190 C 2220.28 1.86084 -0.274643 0
M  V30 21191 O 2219.64 1.64836 0.754908 0
M  V30 21192 C 2219.68 2.42685 -2.66714 0
M  V30 21193 O 2218.79 3.45963 -2.24462 0
M  V30 21194 H 2218.13 0.38649 -0.539927 0
M  V30 21195 H 2220.66 0.626611 -1.94768 0
M  V30 21196 H 2220.67 2.88749 -2.8825 0
M  V30 21197 H 2219.34 2.01675 -3.63731 0
M  V30 21198 H 2217.92 3.0596 -2.13174 0
M  V30 21199 N 2220.11 1.37452 0.771027 0
M  V30 21200 C 2221.35 1.32438 1.52659 0
M  V30 21201 C 2221.68 -0.0904681 1.9479 0
M  V30 21202 O 2220.95 -1.03463 1.6635 0
M  V30 21203 H 2219.53 0.487254 0.566209 0
M  V30 21204 H 2222.19 1.71948 0.917606 0
M  V30 21205 H 2221.28 1.96389 2.42565 0
M  V30 21206 N 2221.58 -0.997276 1.22033 0
M  V30 21207 C 2222.83 -1.73037 1.0364 0
M  V30 21208 C 2223.15 -1.90828 -0.429442 0
M  V30 21209 O 2224.35 -2.61419 -0.732949 0
M  V30 21210 C 2222.81 -3.11314 1.80588 0
M  V30 21211 C 2222.42 -3.01469 3.31392 0
M  V30 21212 C 2224.16 -3.88698 1.70628 0
M  V30 21213 C 2222.07 -4.34873 4.00798 0
M  V30 21214 H 2221 -0.648779 0.38419 0
M  V30 21215 H 2223.65 -1.11366 1.45842 0
M  V30 21216 H 2222.03 -3.73641 1.31182 0
M  V30 21217 H 2223.2 -2.48333 3.88159 0
M  V30 21218 H 2221.52 -2.37569 3.4198 0
M  V30 21219 H 2224.12 -4.87431 2.19808 0
M  V30 21220 H 2224.46 -4.1094 0.665895 0
M  V30 21221 H 2224.99 -3.3304 2.17553 0
M  V30 21222 H 2221.73 -4.17832 5.05071 0
M  V30 21223 H 2221.25 -4.87939 3.4882 0
M  V30 21224 H 2222.93 -5.0364 4.06147 0
M  V30 21225 N 2223.06 -1.02932 -1.19343 0
M  V30 21226 C 2224.29 -0.745545 -1.93537 0
M  V30 21227 C 2224.71 0.68948 -1.75008 0
M  V30 21228 O 2224.07 1.47609 -1.05268 0
M  V30 21229 C 2224.12 -1.10245 -3.43334 0
M  V30 21230 O 2223.22 -0.221361 -4.11805 0
M  V30 21231 H 2222.56 -0.275415 -0.604188 0
M  V30 21232 H 2225.09 -1.37612 -1.51407 0
M  V30 21233 H 2225.1 -1.05954 -3.94002 0
M  V30 21234 H 2223.78 -2.14792 -3.56142 0
M  V30 21235 H 2222.36 -0.322907 -3.71499 0
M  V30 21236 N 2224.54 1.35356 -0.807246 0
M  V30 21237 C 2225.78 2.00575 -0.393569 0
M  V30 21238 C 2226.14 1.62648 1.02027 0
M  V30 21239 O 2227.35 2.20592 1.53599 0
M  V30 21240 C 2225.62 3.52792 -0.572079 0
M  V30 21241 S 2227.18 4.38093 -0.248922 0
M  V30 21242 H 2223.99 0.695118 -0.149438 0
M  V30 21243 H 2226.6 1.64933 -1.04964 0
M  V30 21244 H 2225.3 3.77882 -1.60104 0
M  V30 21245 H 2224.83 3.93275 0.0992899 0
M  V30 21246 H 2226.85 4.87154 0.943167 0
M  V30 21247 N 2226.02 0.560807 1.47284 0
M  V30 21248 C 2227.24 0.0410931 2.07359 0
M  V30 21249 C 2227.67 -1.2448 1.41019 0
M  V30 21250 O 2227.03 -1.74654 0.486398 0
M  V30 21251 C 2227.07 -0.134059 3.60351 0
M  V30 21252 O 2226.18 -1.1958 3.94683 0
M  V30 21253 H 2225.52 0.0529407 0.661886 0
M  V30 21254 H 2228.05 0.777515 1.89251 0
M  V30 21255 H 2228.06 -0.347136 4.06521 0
M  V30 21256 H 2226.73 0.805119 4.08033 0
M  V30 21257 H 2225.31 -0.962924 3.60253 0
M  V30 21258 N 2227.5 -1.54768 0.297442 0
M  V30 21259 C 2228.46 -2.22067 -0.567336 0
M  V30 21260 C 2229.46 -1.20558 -1.06407 0
M  V30 21261 O 2230.65 -1.45316 -0.960666 0
M  V30 21262 C 2227.78 -2.90424 -1.78512 0
M  V30 21263 H 2228.97 -2.99893 0.0206061 0
M  V30 21264 H 2226.53 -1.56226 0.0482438 0
M  V30 21265 H 2227.26 -2.16668 -2.41299 0
M  V30 21266 H 2227.05 -3.64834 -1.43663 0
M  V30 21267 H 2228.54 -3.41775 -2.39958 0
M  V30 21268 N 2228.97 -0.0251005 -1.5758 0
M  V30 21269 C 2229.88 0.973867 -2.13431 0
M  V30 21270 C 2230.9 1.35982 -1.08559 0
M  V30 21271 O 2232.08 1.44205 -1.40595 0
M  V30 21272 C 2229.14 2.23899 -2.64707 0
M  V30 21273 C 2228.2 1.91384 -3.84279 0
M  V30 21274 C 2227.44 3.11865 -4.331 0
M  V30 21275 O 2227.66 4.24391 -3.81115 0
M  V30 21276 O 2226.59 2.94397 -5.24989 0
M  V30 21277 H 2230.42 0.528984 -2.99058 0
M  V30 21278 H 2228 0.195262 -1.48118 0
M  V30 21279 H 2229.89 2.98176 -2.97774 0
M  V30 21280 H 2228.56 2.67576 -1.82166 0
M  V30 21281 H 2227.47 1.14505 -3.56145 0
M  V30 21282 H 2228.8 1.52526 -4.67971 0
M  V30 21283 N 2230.45 1.55637 0.247999 0
M  V30 21284 C 2231.7 1.76619 0.974103 0
M  V30 21285 C 2232.01 0.588829 1.86527 0
M  V30 21286 O 2233.22 0.681641 2.62804 0
M  V30 21287 C 2231.68 3.12682 1.78207 0
M  V30 21288 C 2231.28 4.38063 0.938353 0
M  V30 21289 C 2233.03 3.43004 2.50098 0
M  V30 21290 C 2230.94 5.65158 1.74215 0
M  V30 21291 H 2229.87 0.658411 0.367438 0
M  V30 21292 H 2232.52 1.82068 0.228808 0
M  V30 21293 H 2230.9 3.01337 2.56928 0
M  V30 21294 H 2232.07 4.60393 0.193554 0
M  V30 21295 H 2230.39 4.15068 0.332832 0
M  V30 21296 H 2232.98 4.35176 3.10687 0
M  V30 21297 H 2233.33 2.64277 3.21657 0
M  V30 21298 H 2233.86 3.55559 1.78388 0
M  V30 21299 H 2230.6 6.46703 1.07031 0
M  V30 21300 H 2230.12 5.46931 2.46226 0
M  V30 21301 H 2231.8 6.04374 2.30956 0
M  V30 21302 N 2231.93 -0.513613 1.48996 0
M  V30 21303 C 2233.18 -1.26601 1.57533 0
M  V30 21304 C 2233.5 -1.93282 0.25827 0
M  V30 21305 O 2232.77 -1.82131 -0.72147 0
M  V30 21306 H 2231.35 -0.470266 0.580396 0
M  V30 21307 H 2234.01 -0.596341 1.85553 0
M  V30 21308 H 2233.11 -2.03664 2.36489 0
M  V30 21309 N 2233.41 -1.37859 -0.763727 0
M  V30 21310 C 2234.66 -1.33707 -1.52481 0
M  V30 21311 C 2234.99 0.075927 -1.94052 0
M  V30 21312 O 2234.26 1.03498 -1.64677 0
M  V30 21313 C 2234.55 -2.28353 -2.78437 0
M  V30 21314 C 2234.4 -3.78468 -2.43069 0
M  V30 21315 C 2235.72 -2.21304 -3.80411 0
M  V30 21316 H 2232.84 -0.487014 -0.55316 0
M  V30 21317 H 2235.48 -1.68625 -0.875532 0
M  V30 21318 H 2233.63 -1.98705 -3.33839 0
M  V30 21319 H 2235.3 -4.18746 -1.93519 0
M  V30 21320 H 2233.54 -3.96644 -1.75659 0
M  V30 21321 H 2234.22 -4.40138 -3.33141 0
M  V30 21322 H 2236.69 -2.47455 -3.34523 0
M  V30 21323 H 2235.57 -2.89656 -4.66252 0
M  V30 21324 H 2235.83 -1.20856 -4.2526 0
M  V30 21325 N 2234.89 0.990791 -1.22561 0
M  V30 21326 C 2236.14 1.72722 -1.04936 0
M  V30 21327 C 2236.46 1.90508 0.416125 0
M  V30 21328 O 2235.73 1.46624 1.29916 0
M  V30 21329 H 2234.31 0.639959 -0.385308 0
M  V30 21330 H 2236.97 1.19319 -1.54107 0
M  V30 21331 H 2236.06 2.72086 -1.52891 0
M  V30 21332 N 2236.37 1.03564 1.18795 0
M  V30 21333 C 2237.61 0.737146 1.88929 0
M  V30 21334 C 2237.94 -0.732924 1.79838 0
M  V30 21335 O 2237.22 -1.53438 1.19528 0
M  V30 21336 C 2237.5 1.19751 3.39605 0
M  V30 21337 C 2237.36 2.7293 3.57532 0
M  V30 21338 C 2238.67 0.783602 4.33068 0
M  V30 21339 H 2235.79 0.269261 0.686052 0
M  V30 21340 H 2238.44 1.28676 1.39795 0
M  V30 21341 H 2236.59 0.729922 3.81581 0
M  V30 21342 H 2238.26 3.27688 3.24682 0
M  V30 21343 H 2236.5 3.12998 3.00357 0
M  V30 21344 H 2237.17 3.00199 4.63233 0
M  V30 21345 H 2239.65 1.18588 3.98843 0
M  V30 21346 H 2238.52 1.13353 5.37068 0
M  V30 21347 H 2238.78 -0.313604 4.40986 0
M  V30 21348 N 2237.84 -1.34926 0.814413 0
M  V30 21349 C 2239.07 -2.02773 0.411172 0
M  V30 21350 C 2239.49 -1.61356 -0.980288 0
M  V30 21351 O 2238.84 -0.814876 -1.63297 0
M  V30 21352 C 2238.89 -3.5811 0.493928 0
M  V30 21353 O 2238.62 -3.98024 1.83054 0
M  V30 21354 C 2240.12 -4.43219 0.0844953 0
M  V30 21355 H 2237.34 -0.65013 0.166048 0
M  V30 21356 H 2239.88 -1.72382 1.10021 0
M  V30 21357 H 2238.04 -3.87121 -0.146938 0
M  V30 21358 H 2238.45 -4.9269 1.7988 0
M  V30 21359 H 2239.92 -5.51661 0.193501 0
M  V30 21360 H 2240.4 -4.28331 -0.971054 0
M  V30 21361 H 2241.01 -4.19519 0.698824 0
M  V30 21362 N 2239.32 -0.56861 -1.46985 0
M  V30 21363 C 2240.74 -0.229217 -1.57945 0
M  V30 21364 C 2240.94 1.2684 -1.56569 0
M  V30 21365 O 2239.99 2.04928 -1.47515 0
M  V30 21366 C 2241.31 -0.865959 -2.87961 0
M  V30 21367 C 2242.85 -0.838241 -3.01567 0
M  V30 21368 C 2243.33 -1.45426 -4.34298 0
M  V30 21369 N 2244.82 -1.41796 -4.40963 0
M  V30 21370 C 2245.56 -1.86413 -5.42253 0
M  V30 21371 N 2245.05 -2.38937 -6.50293 0
M  V30 21372 N 2246.84 -1.77414 -5.33367 0
M  V30 21373 H 2239 -1.54148 -1.46123 0
M  V30 21374 H 2241.26 -0.643496 -0.696144 0
M  V30 21375 H 2240.96 -1.91891 -2.94738 0
M  V30 21376 H 2240.84 -0.365753 -3.75423 0
M  V30 21377 H 2243.23 0.206054 -2.9438 0
M  V30 21378 H 2243.31 -1.37632 -2.15618 0
M  V30 21379 H 2242.95 -2.49768 -4.42242 0
M  V30 21380 H 2242.88 -0.891527 -5.18998 0
M  V30 21381 H 2245.37 -1.03388 -3.63482 0
M  V30 21382 H 2245.68 -2.70876 -7.23772 0
M  V30 21383 H 2244.03 -2.42955 -6.51151 0
M  V30 21384 H 2247.22 -1.36148 -4.47863 0
M  V30 21385 H 2247.39 -2.12503 -6.12166 0
M  V30 21386 N 2240.8 1.54608 -0.305646 0
M  V30 21387 C 2241.76 2.22365 0.555551 0
M  V30 21388 C 2242.76 1.21121 1.05766 0
M  V30 21389 O 2243.95 1.45824 0.952946 0
M  V30 21390 C 2241.08 2.91367 1.76969 0
M  V30 21391 H 2242.28 2.99878 -0.0365099 0
M  V30 21392 H 2239.83 1.56198 -0.0565281 0
M  V30 21393 H 2240.57 2.17945 2.40147 0
M  V30 21394 H 2240.35 3.6559 1.41726 0
M  V30 21395 H 2241.84 3.43043 2.38142 0
M  V30 21396 N 2242.28 0.033457 1.57564 0
M  V30 21397 C 2243.5 -0.657861 1.9669 0
M  V30 21398 C 2243.93 -1.64618 0.910086 0
M  V30 21399 O 2243.29 -1.80844 -0.128566 0
M  V30 21400 C 2243.33 -1.33677 3.34907 0
M  V30 21401 O 2242.44 -2.45213 3.31578 0
M  V30 21402 H 2241.78 -0.172478 0.641208 0
M  V30 21403 H 2244.31 0.096598 2.04372 0
M  V30 21404 H 2244.32 -1.69256 3.71236 0
M  V30 21405 H 2242.99 -0.612339 4.11368 0
M  V30 21406 H 2241.57 -2.11714 3.06972 0
M  V30 21407 N 2243.76 -1.55766 -0.239741 0
M  V30 21408 C 2245 -1.79699 -0.974044 0
M  V30 21409 C 2245.36 -0.60412 -1.82248 0
M  V30 21410 O 2246.56 -0.72237 -2.58912 0
M  V30 21411 C 2244.83 -3.08419 -1.80589 0
M  V30 21412 S 2246.39 -3.536 -2.59831 0
M  V30 21413 H 2243.21 -0.631075 -0.327513 0
M  V30 21414 H 2245.81 -1.94006 -0.241242 0
M  V30 21415 H 2244.51 -3.93297 -1.17242 0
M  V30 21416 H 2244.05 -2.9687 -2.58132 0
M  V30 21417 H 2246.06 -3.15499 -3.82982 0
M  V30 21418 N 2245.23 0.505704 -1.49266 0
M  V30 21419 C 2246.47 1.27035 -1.6013 0
M  V30 21420 C 2246.84 1.89953 -0.27959 0
M  V30 21421 O 2248.04 2.67507 -0.263376 0
M  V30 21422 C 2246.31 2.31241 -2.72511 0
M  V30 21423 S 2247.87 3.17107 -3.03296 0
M  V30 21424 H 2244.69 0.43179 -0.56487 0
M  V30 21425 H 2247.29 0.573364 -1.86903 0
M  V30 21426 H 2245.99 1.8354 -3.67071 0
M  V30 21427 H 2245.52 3.05615 -2.47716 0
M  V30 21428 H 2247.54 4.31805 -2.44456 0
M  V30 21429 N 2246.71 1.38262 0.756405 0
M  V30 21430 C 2247.95 1.35728 1.52831 0
M  V30 21431 C 2248.32 -0.0533769 1.91926 0
M  V30 21432 O 2249.52 -0.203566 2.68028 0
M  V30 21433 C 2247.79 2.28378 2.74915 0
M  V30 21434 S 2249.35 2.43838 3.64813 0
M  V30 21435 H 2246.17 0.481618 0.523035 0
M  V30 21436 H 2248.77 1.7416 0.888181 0
M  V30 21437 H 2247.47 3.29767 2.44298 0
M  V30 21438 H 2247 1.91085 3.43875 0
M  V30 21439 H 2249.02 1.66036 4.67597 0
M  V30 21440 N 2248.19 -0.984277 1.23084 0
M  V30 21441 C 2249.42 -1.76569 1.08803 0
M  V30 21442 C 2249.84 -1.84688 -0.356625 0
M  V30 21443 O 2249.2 -1.30567 -1.25785 0
M  V30 21444 C 2249.25 -3.17273 1.71376 0
M  V30 21445 O 2248.35 -4.0075 0.973283 0
M  V30 21446 H 2247.69 -0.543388 0.381609 0
M  V30 21447 H 2250.22 -1.23584 1.63059 0
M  V30 21448 H 2250.23 -3.67869 1.76456 0
M  V30 21449 H 2248.91 -3.10679 2.76498 0
M  V30 21450 H 2247.48 -3.59265 0.999141 0
M  V30 21451 N 2249.67 -1.04192 -1.18244 0
M  V30 21452 C 2250.6 -0.654953 -2.24126 0
M  V30 21453 C 2251.58 0.342422 -1.66618 0
M  V30 21454 O 2252.76 0.222243 -1.92924 0
M  V30 21455 C 2249.89 -0.0184367 -3.47295 0
M  V30 21456 C 2248.85 -0.939488 -4.17562 0
M  V30 21457 C 2248.17 -0.16738 -5.34438 0
M  V30 21458 C 2249.47 -2.25916 -4.70913 0
M  V30 21459 H 2251.17 -1.54012 -2.5675 0
M  V30 21460 H 2248.71 -0.741971 -1.23413 0
M  V30 21461 H 2250.67 0.264009 -4.20572 0
M  V30 21462 H 2249.39 0.901609 -3.13909 0
M  V30 21463 H 2248.05 -1.20634 -3.46184 0
M  V30 21464 H 2247.7 0.755112 -4.973 0
M  V30 21465 H 2247.4 -0.781003 -5.82387 0
M  V30 21466 H 2248.92 0.108018 -6.10504 0
M  V30 21467 H 2250.34 -2.03733 -5.35879 0
M  V30 21468 H 2248.73 -2.82586 -5.29401 0
M  V30 21469 H 2249.8 -2.90477 -3.88267 0
M  V30 21470 N 2251.15 1.34492 -0.821557 0
M  V30 21471 C 2252.39 1.97935 -0.408173 0
M  V30 21472 C 2252.72 1.65459 1.0319 0
M  V30 21473 O 2251.99 0.944625 1.71621 0
M  V30 21474 H 2250.57 0.732204 -0.147941 0
M  V30 21475 H 2253.23 1.64153 -1.0507 0
M  V30 21476 H 2252.32 3.07634 -0.526065 0
M  V30 21477 N 2252.62 0.576397 1.46681 0
M  V30 21478 C 2254.04 0.23759 1.57822 0
M  V30 21479 C 2254.24 -1.26008 1.5724 0
M  V30 21480 O 2253.3 -2.04143 1.48599 0
M  V30 21481 C 2254.61 0.881218 2.87498 0
M  V30 21482 C 2256.16 0.854222 3.01118 0
M  V30 21483 C 2256.63 1.47727 4.33521 0
M  V30 21484 N 2258.12 1.44133 4.40204 0
M  V30 21485 C 2258.86 1.89286 5.41256 0
M  V30 21486 N 2258.35 2.42383 6.49017 0
M  V30 21487 N 2260.15 1.8024 5.32419 0
M  V30 21488 H 2252.3 1.54921 1.45304 0
M  V30 21489 H 2254.56 0.647179 0.692722 0
M  V30 21490 H 2254.27 1.93452 2.93716 0
M  V30 21491 H 2254.14 0.385658 3.75223 0
M  V30 21492 H 2256.53 -0.190439 2.94485 0
M  V30 21493 H 2256.61 1.38774 2.14885 0
M  V30 21494 H 2256.25 2.5211 4.40911 0
M  V30 21495 H 2256.18 0.919038 5.18518 0
M  V30 21496 H 2258.67 1.05314 3.62929 0
M  V30 21497 H 2258.99 2.7471 7.22325 0
M  V30 21498 H 2257.33 2.46405 6.49854 0
M  V30 21499 H 2260.52 1.38521 4.47135 0
M  V30 21500 H 2260.7 2.15746 6.1103 0
M  V30 21501 N 2254.1 -1.54444 0.313841 0
M  V30 21502 C 2255.07 -2.22657 -0.543751 0
M  V30 21503 C 2256.07 -1.2168 -1.05122 0
M  V30 21504 O 2257.26 -1.46327 -0.945199 0
M  V30 21505 C 2254.39 -2.92301 -1.75422 0
M  V30 21506 H 2255.58 -2.99854 0.0524126 0
M  V30 21507 H 2253.13 -1.56166 0.0648109 0
M  V30 21508 H 2253.87 -2.19216 -2.38987 0
M  V30 21509 H 2253.65 -3.66337 -1.39785 0
M  V30 21510 H 2255.14 -3.44301 -2.36319 0
M  V30 21511 N 2255.58 -0.0418125 -1.57545 0
M  V30 21512 C 2256.83 0.629134 -1.93426 0
M  V30 21513 C 2257.18 1.69001 -0.919594 0
M  V30 21514 O 2256.47 1.91498 0.0625841 0
M  V30 21515 C 2256.67 1.27729 -3.33796 0
M  V30 21516 C 2256.5 0.280727 -4.48823 0
M  V30 21517 C 2255.27 -0.123957 -5.05148 0
M  V30 21518 C 2257.47 -0.470102 -5.12147 0
M  V30 21519 N 2255.45 -1.11436 -6.03701 0
M  V30 21520 C 2256.82 -1.31387 -6.05919 0
M  V30 21521 C 2258.87 -0.52943 -4.95077 0
M  V30 21522 C 2257.58 -2.21164 -6.84455 0
M  V30 21523 C 2259.6 -1.41458 -5.74233 0
M  V30 21524 C 2258.96 -2.2461 -6.6763 0
M  V30 21525 H 2255.06 0.202145 -0.755421 0
M  V30 21526 H 2257.65 -0.111957 -1.94378 0
M  V30 21527 H 2255.82 1.98846 -3.33639 0
M  V30 21528 H 2257.55 1.90629 -3.56991 0
M  V30 21529 H 2254.31 0.253095 -4.72923 0
M  V30 21530 H 2254.73 -1.60618 -6.57671 0
M  V30 21531 H 2259.37 0.0992055 -4.22684 0
M  V30 21532 H 2257.09 -2.85077 -7.56146 0
M  V30 21533 H 2260.68 -1.46494 -5.63055 0
M  V30 21534 H 2259.56 -2.91993 -7.27812 0
M  V30 21535 N 2257.06 1.55891 0.231477 0
M  V30 21536 C 2258.31 1.7809 0.955429 0
M  V30 21537 C 2258.63 0.608565 1.85261 0
M  V30 21538 O 2257.9 -0.375001 1.92277 0
M  V30 21539 H 2256.48 0.656836 0.355775 0
M  V30 21540 H 2259.14 1.93345 0.245717 0
M  V30 21541 H 2258.24 2.69847 1.56809 0
M  V30 21542 N 2258.54 -0.497781 1.49532 0
M  V30 21543 C 2259.48 -1.6198 1.66929 0
M  V30 21544 C 2260.48 -1.60723 0.535195 0
M  V30 21545 O 2261.68 -1.65193 0.714925 0
M  V30 21546 H 2258.06 -0.537012 0.526424 0
M  V30 21547 H 2260.03 -1.4446 2.61101 0
M  V30 21548 C 2258.78 -3.00096 1.75607 0
M  V30 21549 H 2258.1 -3.0177 2.6225 0
M  V30 21550 H 2259.54 -3.78132 1.91813 0
M  V30 21551 C 2258 -3.33145 0.501601 0
M  V30 21552 O 2258.53 -3.99981 -0.371271 0
M  V30 21553 N 2256.74 -2.88317 0.363582 0
M  V30 21554 H 2256.28 -2.34102 1.0749 0
M  V30 21555 H 2256.24 -3.10796 -0.474673 0
M  V30 21556 N 2260.01 -1.38661 -0.749062 0
M  V30 21557 C 2261.43 -1.31369 -1.32662 0
M  V30 21558 C 2261.78 0.0284495 -1.96179 0
M  V30 21559 O 2260.9 0.930536 -1.95371 0
M  V30 21560 C 2261.5 -2.37909 -2.41215 0
M  V30 21561 C 2260.06 -2.34181 -2.9468 0
M  V30 21562 C 2259.2 -2.20536 -1.68104 0
M  V30 21563 H 2262.15 -1.48953 -0.547602 0
M  V30 21564 H 2262.17 -2.03886 -3.21264 0
M  V30 21565 H 2261.69 -3.3558 -1.94956 0
M  V30 21566 H 2259.79 -1.40106 -3.45255 0
M  V30 21567 H 2259.9 -3.28496 -3.48751 0
M  V30 21568 H 2258.26 -1.67466 -1.91904 0
M  V30 21569 H 2259.05 -3.20155 -1.23918 0
M  V30 21570 N 2261.49 0.977736 -1.23605 0
M  V30 21571 C 2262.73 1.73444 -1.08151 0
M  V30 21572 C 2263.1 1.88307 0.374752 0
M  V30 21573 O 2264.3 2.60809 0.650543 0
M  V30 21574 C 2262.57 3.09346 -1.78996 0
M  V30 21575 S 2264.13 4.00564 -1.79148 0
M  V30 21576 H 2260.95 0.596451 -0.386998 0
M  V30 21577 H 2263.55 1.16789 -1.56782 0
M  V30 21578 H 2262.25 2.96182 -2.84086 0
M  V30 21579 H 2261.78 3.71069 -1.30658 0
M  V30 21580 H 2263.8 4.88831 -0.851978 0
M  V30 21581 N 2262.97 1.04818 1.1769 0
M  V30 21582 C 2263.88 0.65647 2.25228 0
M  V30 21583 C 2264.9 -0.320731 1.71018 0
M  V30 21584 O 2266.07 -0.173769 2.00649 0
M  V30 21585 C 2263.14 0.0333239 3.46684 0
M  V30 21586 C 2262.2 1.06049 4.15995 0
M  V30 21587 C 2261.43 0.466987 5.31653 0
M  V30 21588 O 2261.66 -0.724658 5.65778 0
M  V30 21589 O 2260.59 1.1994 5.89829 0
M  V30 21590 H 2264.42 1.5526 2.61014 0
M  V30 21591 H 2262 0.819512 1.24917 0
M  V30 21592 H 2263.88 -0.313183 4.20235 0
M  V30 21593 H 2262.56 -0.836511 3.12705 0
M  V30 21594 H 2261.46 1.45892 3.4448 0
M  V30 21595 H 2262.8 1.90135 4.53993 0
M  V30 21596 N 2264.45 -1.34055 0.828678 0
M  V30 21597 C 2265.38 -2.3194 0.269483 0
M  V30 21598 C 2266.36 -1.58507 -0.617219 0
M  V30 21599 O 2267.55 -1.86457 -0.542898 0
M  V30 21600 C 2264.68 -3.42678 -0.564733 0
M  V30 21601 C 2263.63 -4.27407 0.225316 0
M  V30 21602 C 2262.96 -5.29666 -0.732007 0
M  V30 21603 C 2264.26 -5.02151 1.43672 0
M  V30 21604 H 2265.95 -2.78958 1.08733 0
M  V30 21605 H 2263.5 -1.34116 0.524307 0
M  V30 21606 H 2265.45 -4.10175 -0.966161 0
M  V30 21607 H 2264.17 -2.94323 -1.41569 0
M  V30 21608 H 2262.83 -3.6152 0.608181 0
M  V30 21609 H 2262.48 -4.77571 -1.57908 0
M  V30 21610 H 2262.18 -5.87233 -0.207566 0
M  V30 21611 H 2263.7 -6.00031 -1.13117 0
M  V30 21612 H 2265.12 -5.62471 1.109 0
M  V30 21613 H 2263.51 -5.6932 1.89721 0
M  V30 21614 H 2264.58 -4.31513 2.21189 0
M  V30 21615 N 2265.93 -0.584167 -1.46374 0
M  V30 21616 C 2267.17 -0.0730054 -2.0427 0
M  V30 21617 C 2267.53 1.26353 -1.44565 0
M  V30 21618 O 2268.73 1.86401 -1.9367 0
M  V30 21619 C 2267 -0.00973746 -3.57399 0
M  V30 21620 S 2268.56 0.443637 -4.36552 0
M  V30 21621 H 2265.38 -0.0381798 -0.709974 0
M  V30 21622 H 2267.98 -0.776994 -1.79396 0
M  V30 21623 H 2266.69 -0.986389 -3.9837 0
M  V30 21624 H 2266.22 0.716976 -3.86811 0
M  V30 21625 H 2268.23 1.69808 -4.6624 0
M  V30 21626 N 2267.41 1.54275 -0.322027 0
M  V30 21627 C 2268.82 1.85957 0.166351 0
M  V30 21628 C 2269.17 1.2437 1.51745 0
M  V30 21629 O 2268.29 0.549161 2.09316 0
M  V30 21630 C 2268.89 3.37391 0.308622 0
M  V30 21631 C 2267.45 3.6903 0.741221 0
M  V30 21632 C 2266.59 2.76956 -0.137985 0
M  V30 21633 H 2269.54 1.49145 -0.542361 0
M  V30 21634 H 2269.57 3.63028 1.13978 0
M  V30 21635 H 2269.08 3.82187 -0.674876 0
M  V30 21636 H 2267.18 3.29765 1.73452 0
M  V30 21637 H 2267.29 4.75978 0.546035 0
M  V30 21638 H 2265.66 2.51755 0.386207 0
M  V30 21639 H 2266.44 3.24578 -1.11822 0
M  V30 21640 N 2268.88 0.0501669 1.5752 0
M  V30 21641 C 2269.82 -0.959926 2.07028 0
M  V30 21642 C 2270.79 -1.30456 0.970562 0
M  V30 21643 O 2271.98 -1.41761 1.24242 0
M  V30 21644 C 2269.11 -2.2742 2.50994 0
M  V30 21645 C 2268.15 -2.08268 3.72192 0
M  V30 21646 S 2268.98 -1.36198 5.1789 0
M  V30 21647 C 2270.14 -2.68951 5.65169 0
M  V30 21648 H 2270.37 -0.53858 2.92381 0
M  V30 21649 H 2267.91 -0.162072 1.53547 0
M  V30 21650 H 2269.86 -3.02966 2.76987 0
M  V30 21651 H 2268.53 -2.66683 1.65949 0
M  V30 21652 H 2267.72 -3.0548 4.00871 0
M  V30 21653 H 2267.32 -1.40862 3.46459 0
M  V30 21654 H 2269.61 -3.65123 5.70694 0
M  V30 21655 H 2270.56 -2.44909 6.64399 0
M  V30 21656 H 2270.96 -2.75164 4.92895 0
M  V30 21657 N 2270.36 -1.56011 -0.223207 0
M  V30 21658 C 2271.32 -1.91452 -1.26011 0
M  V30 21659 C 2272.32 -0.792961 -1.39888 0
M  V30 21660 O 2273.51 -1.06073 -1.38182 0
M  V30 21661 C 2270.65 -2.16388 -2.63418 0
M  V30 21662 H 2271.84 -2.8419 -0.95791 0
M  V30 21663 H 2269.39 -1.49268 -0.46355 0
M  V30 21664 H 2270.13 -1.26196 -2.98739 0
M  V30 21665 H 2269.91 -2.98092 -2.54723 0
M  V30 21666 H 2271.4 -2.44909 -3.38245 0
M  V30 21667 N 2271.84 0.489844 -1.49794 0
M  V30 21668 C 2272.79 1.61093 -1.67785 0
M  V30 21669 C 2273.78 1.60437 -0.543711 0
M  V30 21670 O 2274.99 1.64812 -0.723676 0
M  V30 21671 H 2271.36 0.534212 -0.529265 0
M  V30 21672 H 2273.33 1.43074 -2.61863 0
M  V30 21673 C 2272.08 2.9916 -1.77196 0
M  V30 21674 H 2271.41 3.00375 -2.63846 0
M  V30 21675 H 2272.85 3.77109 -1.93816 0
M  V30 21676 C 2271.3 3.32874 -0.519262 0
M  V30 21677 O 2271.83 4.00172 0.350054 0
M  V30 21678 N 2270.04 2.8812 -0.378867 0
M  V30 21679 H 2269.59 2.33529 -1.0873 0
M  V30 21680 H 2269.55 3.11043 0.458185 0
M  V30 21681 N 2273.32 1.39056 0.741698 0
M  V30 21682 C 2274.55 1.39174 1.53095 0
M  V30 21683 C 2274.96 -0.0154767 1.88794 0
M  V30 21684 O 2274.32 -0.985132 1.53627 0
M  V30 21685 C 2274.37 2.25845 2.8227 0
M  V30 21686 O 2274.09 3.61086 2.4809 0
M  V30 21687 C 2275.59 2.34273 3.76339 0
M  V30 21688 H 2272.81 0.475608 0.473327 0
M  V30 21689 H 2275.35 1.82787 0.917013 0
M  V30 21690 H 2273.51 1.85662 3.40012 0
M  V30 21691 H 2273.92 4.06848 3.31021 0
M  V30 21692 H 2275.4 2.99178 4.63893 0
M  V30 21693 H 2275.87 1.35989 4.17617 0
M  V30 21694 H 2276.48 2.74896 3.24518 0
M  V30 21695 N 2274.8 -0.971167 1.24121 0
M  V30 21696 C 2276.02 -1.74872 1.10578 0
M  V30 21697 C 2276.44 -1.85677 -0.341984 0
M  V30 21698 O 2275.8 -1.3426 -1.23615 0
M  V30 21699 C 2275.85 -3.17097 1.73585 0
M  V30 21700 O 2275.57 -3.06839 3.127 0
M  V30 21701 C 2277.07 -4.11205 1.65605 0
M  V30 21702 H 2274.29 -0.548496 0.386513 0
M  V30 21703 H 2276.83 -1.21952 1.64158 0
M  V30 21704 H 2274.99 -3.67014 1.24015 0
M  V30 21705 H 2275.4 -3.96439 3.43419 0
M  V30 21706 H 2276.88 -5.08671 2.14379 0
M  V30 21707 H 2277.35 -4.3485 0.616608 0
M  V30 21708 H 2277.96 -3.67197 2.14584 0
M  V30 21709 N 2276.27 -1.05441 -1.17133 0
M  V30 21710 C 2277.18 -0.668405 -2.24877 0
M  V30 21711 C 2278.2 0.311657 -1.71186 0
M  V30 21712 O 2279.38 0.163126 -2.00738 0
M  V30 21713 C 2276.44 -0.0517089 -3.46661 0
M  V30 21714 C 2275.5 -1.08254 -4.15427 0
M  V30 21715 C 2274.74 -0.495175 -5.31398 0
M  V30 21716 O 2274.96 0.694643 -5.66154 0
M  V30 21717 O 2273.89 -1.23066 -5.89184 0
M  V30 21718 H 2277.72 -1.56642 -2.60187 0
M  V30 21719 H 2275.3 -0.826125 -1.24481 0
M  V30 21720 H 2277.19 0.290892 -4.20395 0
M  V30 21721 H 2275.86 0.819916 -3.13144 0
M  V30 21722 H 2274.77 -1.47717 -3.43701 0
M  V30 21723 H 2276.1 -1.9254 -4.52978 0
M  V30 21724 N 2277.75 1.33613 -0.835776 0
M  V30 21725 C 2278.98 2.018 -0.442736 0
M  V30 21726 C 2279.39 1.63049 0.959779 0
M  V30 21727 O 2278.73 0.838117 1.63466 0
M  V30 21728 C 2278.8 3.56279 -0.480188 0
M  V30 21729 C 2278.46 4.18397 -1.83828 0
M  V30 21730 C 2279.46 4.37993 -2.80104 0
M  V30 21731 C 2277.14 4.5489 -2.13027 0
M  V30 21732 C 2279.14 4.93223 -4.03745 0
M  V30 21733 C 2276.82 5.09828 -3.36925 0
M  V30 21734 C 2277.82 5.28941 -4.32101 0
M  V30 21735 O 2277.51 5.82711 -5.53807 0
M  V30 21736 H 2277.24 0.65311 -0.174421 0
M  V30 21737 H 2279.79 1.71587 -1.12903 0
M  V30 21738 H 2278.02 3.85806 0.262863 0
M  V30 21739 H 2279.71 4.05763 -0.105406 0
M  V30 21740 H 2280.48 4.10151 -2.58845 0
M  V30 21741 H 2276.36 4.3931 -1.39741 0
M  V30 21742 H 2279.9 5.08056 -4.78043 0
M  V30 21743 H 2275.8 5.371 -3.58042 0
M  V30 21744 H 2276.57 6.0113 -5.55504 0
M  V30 21745 N 2279.23 0.591922 1.46062 0
M  V30 21746 C 2280.65 0.254316 1.57561 0
M  V30 21747 C 2280.85 -1.24333 1.58567 0
M  V30 21748 O 2279.9 -2.02556 1.50756 0
M  V30 21749 C 2281.22 0.911662 2.86547 0
M  V30 21750 C 2282.76 0.886112 3.00195 0
M  V30 21751 C 2283.24 1.52317 4.3193 0
M  V30 21752 N 2284.73 1.48794 4.38651 0
M  V30 21753 C 2285.46 1.95016 5.39218 0
M  V30 21754 N 2284.96 2.49253 6.46409 0
M  V30 21755 N 2286.75 1.85877 5.30477 0
M  V30 21756 H 2278.9 1.56454 1.43652 0
M  V30 21757 H 2281.17 0.65449 0.685819 0
M  V30 21758 H 2280.87 1.96556 2.91648 0
M  V30 21759 H 2280.75 0.425434 3.74793 0
M  V30 21760 H 2283.13 -0.159195 2.9467 0
M  V30 21761 H 2283.22 1.41045 2.13401 0
M  V30 21762 H 2282.86 2.56773 4.38213 0
M  V30 21763 H 2282.79 0.973982 5.17514 0
M  V30 21764 H 2285.28 1.09157 3.61792 0
M  V30 21765 H 2285.59 2.82356 7.19371 0
M  V30 21766 H 2283.94 2.53283 6.47204 0
M  V30 21767 H 2287.13 1.43256 4.4564 0
M  V30 21768 H 2287.3 2.22215 6.08707 0
M  V30 21769 N 2280.71 -1.54102 0.330204 0
M  V30 21770 C 2281.94 -2.05102 -0.272143 0
M  V30 21771 C 2282.35 -1.20597 -1.45264 0
M  V30 21772 O 2281.71 -0.238175 -1.80939 0
M  V30 21773 C 2281.76 -3.54655 -0.700168 0
M  V30 21774 O 2281.48 -4.35951 0.433378 0
M  V30 21775 C 2282.98 -4.21773 -1.36463 0
M  V30 21776 H 2280.2 -0.66875 -0.0549041 0
M  V30 21777 H 2282.75 -1.98827 0.47832 0
M  V30 21778 H 2280.9 -3.61195 -1.40059 0
M  V30 21779 H 2281.31 -5.24414 0.0948461 0
M  V30 21780 H 2282.79 -5.27846 -1.615 0
M  V30 21781 H 2283.27 -3.73296 -2.31402 0
M  V30 21782 H 2283.87 -4.19389 -0.706601 0
M  V30 21783 N 2282.19 -0.0585199 -1.57491 0
M  V30 21784 C 2283.12 0.91114 -2.1499 0
M  V30 21785 C 2284.1 1.3195 -1.07346 0
M  V30 21786 O 2285.28 1.39292 -1.3532 0
M  V30 21787 C 2282.41 2.18342 -2.70082 0
M  V30 21788 C 2281.37 1.91489 -3.82774 0
M  V30 21789 C 2280.69 3.25234 -4.24414 0
M  V30 21790 C 2281.99 1.23066 -5.07594 0
M  V30 21791 H 2283.69 0.432194 -2.96264 0
M  V30 21792 H 2281.23 0.206444 -1.42512 0
M  V30 21793 H 2283.19 2.86582 -3.08948 0
M  V30 21794 H 2281.91 2.68455 -1.86009 0
M  V30 21795 H 2280.57 1.25658 -3.44392 0
M  V30 21796 H 2280.22 3.73162 -3.37282 0
M  V30 21797 H 2279.92 3.08062 -5.00371 0
M  V30 21798 H 2281.44 3.94693 -4.65886 0
M  V30 21799 H 2282.85 1.81353 -5.4386 0
M  V30 21800 H 2281.25 1.16197 -5.88743 0
M  V30 21801 H 2282.32 0.207762 -4.84455 0
M  V30 21802 N 2283.66 1.56128 0.21493 0
M  V30 21803 C 2284.9 1.81226 0.945333 0
M  V30 21804 C 2285.27 0.633037 1.81264 0
M  V30 21805 O 2286.47 0.763469 2.5773 0
M  V30 21806 C 2284.74 3.11253 1.7566 0
M  V30 21807 S 2286.3 3.57689 2.54173 0
M  V30 21808 H 2283.12 0.636206 0.317432 0
M  V30 21809 H 2285.72 1.94365 0.210347 0
M  V30 21810 H 2284.42 3.95112 1.1097 0
M  V30 21811 H 2283.95 3.00939 2.53376 0
M  V30 21812 H 2285.97 3.21552 3.77914 0
M  V30 21813 N 2285.14 -0.481893 1.50052 0
M  V30 21814 C 2286.55 -1.06303 1.53482 0
M  V30 21815 C 2286.9 -1.9337 0.332031 0
M  V30 21816 O 2286.03 -2.0913 -0.556219 0
M  V30 21817 C 2286.62 -1.93461 2.78133 0
M  V30 21818 C 2285.18 -2.46702 2.8428 0
M  V30 21819 C 2284.33 -1.2478 2.47639 0
M  V30 21820 H 2287.28 -0.264968 1.56472 0
M  V30 21821 H 2287.3 -2.78395 2.59377 0
M  V30 21822 H 2286.81 -1.30065 3.65656 0
M  V30 21823 H 2284.92 -3.13682 2.01082 0
M  V30 21824 H 2285.03 -2.82548 3.86915 0
M  V30 21825 H 2283.39 -1.57915 1.99837 0
M  V30 21826 H 2284.18 -0.630634 3.37458 0
M  V30 21827 N 2286.62 -1.39448 -0.734313 0
M  V30 21828 C 2287.87 -1.36439 -1.49094 0
M  V30 21829 C 2288.19 0.0387912 -1.94961 0
M  V30 21830 O 2287.46 0.990161 -1.69034 0
M  V30 21831 H 2286.04 -0.502094 -0.553092 0
M  V30 21832 H 2288.7 -1.7432 -0.871694 0
M  V30 21833 H 2287.8 -2.02751 -2.37273 0
M  V30 21834 N 2288.1 0.964571 -1.24635 0
M  V30 21835 C 2289.35 1.70457 -1.08576 0
M  V30 21836 C 2289.67 1.91348 0.375621 0
M  V30 21837 O 2288.94 1.49347 1.26776 0
M  V30 21838 H 2287.52 0.631642 -0.398795 0
M  V30 21839 H 2290.18 1.16023 -1.56603 0
M  V30 21840 H 2289.28 2.68782 -1.58628 0
M  V30 21841 N 2289.58 1.0606 1.16572 0
M  V30 21842 C 2290.49 0.680321 2.24519 0
M  V30 21843 C 2291.5 -0.302574 1.71349 0
M  V30 21844 O 2292.68 -0.152478 2.00822 0
M  V30 21845 C 2289.74 0.0700925 3.46629 0
M  V30 21846 C 2288.8 1.10455 4.14847 0
M  V30 21847 C 2288.04 0.523349 5.31128 0
M  V30 21848 O 2288.26 -0.664609 5.66515 0
M  V30 21849 O 2287.19 1.26189 5.88523 0
M  V30 21850 H 2291.02 1.58019 2.59352 0
M  V30 21851 H 2288.61 0.832715 1.24041 0
M  V30 21852 H 2290.49 -0.268593 4.20543 0
M  V30 21853 H 2289.16 -0.803298 3.13574 0
M  V30 21854 H 2288.07 1.49538 3.42913 0
M  V30 21855 H 2289.4 1.94939 4.51951 0
M  V30 21856 N 2291.06 -1.33168 0.84285 0
M  V30 21857 C 2292.3 -1.97261 0.439612 0
M  V30 21858 C 2292.62 -1.6708 -1.00545 0
M  V30 21859 O 2291.89 -0.971809 -1.70096 0
M  V30 21860 H 2290.47 -0.729758 0.159571 0
M  V30 21861 H 2293.14 -1.62461 1.07668 0
M  V30 21862 H 2292.23 -3.06759 0.57494 0
M  V30 21863 N 2292.53 -0.599659 -1.45746 0
M  V30 21864 C 2293.78 -0.091764 -2.02292 0
M  V30 21865 C 2294.11 1.27469 -1.46908 0
M  V30 21866 O 2293.36 1.85259 -0.630684 0
M  V30 21867 C 2293.66 0.00596476 -3.574 0
M  V30 21868 C 2293.33 -1.29511 -4.319 0
M  V30 21869 C 2291.99 -1.65152 -4.51971 0
M  V30 21870 C 2294.34 -2.15533 -4.74547 0
M  V30 21871 C 2291.67 -2.86583 -5.11944 0
M  V30 21872 C 2294.02 -3.36206 -5.35862 0
M  V30 21873 C 2292.69 -3.72109 -5.54158 0
M  V30 21874 H 2291.96 -0.0335788 -0.740239 0
M  V30 21875 H 2294.6 -0.779691 -1.74909 0
M  V30 21876 H 2292.91 0.777115 -3.84016 0
M  V30 21877 H 2294.61 0.414968 -3.98847 0
M  V30 21878 H 2291.2 -1.00768 -4.16586 0
M  V30 21879 H 2295.38 -1.89298 -4.58781 0
M  V30 21880 H 2290.64 -3.14516 -5.24299 0
M  V30 21881 H 2294.81 -4.03119 -5.67863 0
M  V30 21882 H 2292.44 -4.6629 -6.00398 0
M  V30 21883 N 2294.01 1.53925 -0.338371 0
M  V30 21884 C 2294.94 2.22377 0.555078 0
M  V30 21885 C 2295.96 1.22864 1.0681 0
M  V30 21886 O 2297.15 1.49249 0.979137 0
M  V30 21887 C 2294.25 2.88635 1.77604 0
M  V30 21888 C 2293.42 4.14417 1.3992 0
M  V30 21889 C 2292.48 4.64132 2.47928 0
M  V30 21890 O 2291.5 5.28466 2.11452 0
M  V30 21891 N 2292.71 4.39618 3.79099 0
M  V30 21892 H 2295.47 2.99684 -0.0311305 0
M  V30 21893 H 2293.03 1.61085 -0.162254 0
M  V30 21894 H 2295.02 3.18811 2.49282 0
M  V30 21895 H 2293.59 2.14945 2.26975 0
M  V30 21896 H 2292.81 3.90842 0.513412 0
M  V30 21897 H 2294.1 4.96245 1.12332 0
M  V30 21898 H 2293.5 3.88155 4.11524 0
M  V30 21899 H 2292.06 4.74414 4.46962 0
M  V30 21900 N 2295.49 0.0668712 1.57458 0
M  V30 21901 C 2296.9 -0.466526 1.80777 0
M  V30 21902 C 2297.25 -1.69949 0.98039 0
M  V30 21903 O 2296.38 -2.1546 0.201479 0
M  V30 21904 C 2296.97 -0.853153 3.27882 0
M  V30 21905 C 2295.53 -1.33144 3.52065 0
M  V30 21906 C 2294.68 -0.314215 2.75514 0
M  V30 21907 H 2297.63 0.292615 1.55979 0
M  V30 21908 H 2297.65 -1.71494 3.39662 0
M  V30 21909 H 2297.16 0.0444121 3.88075 0
M  V30 21910 H 2295.26 -2.24767 2.97171 0
M  V30 21911 H 2295.38 -1.31276 4.60764 0
M  V30 21912 H 2293.74 -0.79045 2.42124 0
M  V30 21913 H 2294.52 0.575537 3.38441 0
M  V30 21914 N 2296.97 -1.56239 -0.206647 0
M  V30 21915 C 2297.92 -1.94497 -1.27568 0
M  V30 21916 C 2298.91 -0.828888 -1.47736 0
M  V30 21917 O 2300.12 -1.01382 -1.48733 0
M  V30 21918 H 2296.49 -0.618308 -0.428018 0
M  V30 21919 H 2298.46 -2.83671 -0.925911 0
M  V30 21920 C 2297.21 -2.29084 -2.61564 0
M  V30 21921 H 2296.53 -3.14486 -2.46858 0
M  V30 21922 H 2297.97 -2.59726 -3.3514 0
M  V30 21923 C 2296.43 -1.12128 -3.17693 0
M  V30 21924 O 2296.96 -0.390223 -3.998 0
M  V30 21925 N 2295.17 -0.901146 -2.76275 0
M  V30 21926 H 2294.72 -1.49737 -2.09611 0
M  V30 21927 H 2294.67 -0.120374 -3.14169 0
M  V30 21928 N 2298.45 0.473929 -1.50305 0
M  V30 21929 C 2299.86 0.807442 -1.37668 0
M  V30 21930 C 2300.06 1.96846 -0.430589 0
M  V30 21931 O 2299.12 2.52176 0.12783 0
M  V30 21932 C 2300.43 1.12218 -2.78976 0
M  V30 21933 C 2301.98 1.2288 -2.87871 0
M  V30 21934 C 2302.45 1.57668 -4.30006 0
M  V30 21935 N 2303.94 1.64665 -4.32943 0
M  V30 21936 C 2304.68 1.93082 -5.39914 0
M  V30 21937 N 2304.18 2.19538 -6.57096 0
M  V30 21938 N 2305.97 1.9456 -5.27355 0
M  V30 21939 H 2298.12 -0.291249 -2.10394 0
M  V30 21940 H 2300.38 -0.0677776 -0.945574 0
M  V30 21941 H 2300.09 0.342167 -3.50032 0
M  V30 21942 H 2299.96 2.05907 -3.16041 0
M  V30 21943 H 2302.35 1.99949 -2.17036 0
M  V30 21944 H 2302.43 0.271769 -2.54352 0
M  V30 21945 H 2302.07 0.811401 -5.01377 0
M  V30 21946 H 2302 2.54517 -4.61009 0
M  V30 21947 H 2304.5 1.46271 -3.48444 0
M  V30 21948 H 2304.81 2.40487 -7.34429 0
M  V30 21949 H 2303.15 2.16937 -6.60275 0
M  V30 21950 H 2306.34 1.73386 -4.34804 0
M  V30 21951 H 2306.52 2.16371 -6.10809 0
M  V30 21952 N 2299.92 1.39835 0.726907 0
M  V30 21953 C 2301.17 1.36808 1.48211 0
M  V30 21954 C 2301.49 -0.0304947 1.95576 0
M  V30 21955 O 2302.69 -0.18337 2.7088 0
M  V30 21956 C 2301.15 2.40384 2.6785 0
M  V30 21957 C 2300.76 3.85996 2.27401 0
M  V30 21958 C 2302.5 2.46445 3.45637 0
M  V30 21959 C 2300.41 4.81195 3.43811 0
M  V30 21960 H 2299.34 0.508641 0.556597 0
M  V30 21961 H 2301.99 1.65519 0.792187 0
M  V30 21962 H 2300.37 2.04755 3.38957 0
M  V30 21963 H 2301.54 4.30709 1.63788 0
M  V30 21964 H 2299.86 3.83304 1.62686 0
M  V30 21965 H 2302.46 3.1476 4.32238 0
M  V30 21966 H 2302.8 1.49146 3.88666 0
M  V30 21967 H 2303.33 2.81009 2.81565 0
M  V30 21968 H 2300.07 5.79786 3.05824 0
M  V30 21969 H 2299.59 4.41155 4.06377 0
M  V30 21970 H 2301.27 5.00481 4.10034 0
M  V30 21971 N 2301.4 -0.957948 1.25144 0
M  V30 21972 C 2302.63 -1.73689 1.12427 0
M  V30 21973 C 2303.04 -1.86029 -0.322272 0
M  V30 21974 O 2302.4 -1.35563 -1.22184 0
M  V30 21975 C 2302.45 -3.15238 1.76938 0
M  V30 21976 O 2302.17 -3.03505 3.15937 0
M  V30 21977 C 2303.67 -4.09426 1.69957 0
M  V30 21978 H 2300.89 -0.544366 0.392309 0
M  V30 21979 H 2303.44 -1.20204 1.65442 0
M  V30 21980 H 2301.59 -3.65678 1.27901 0
M  V30 21981 H 2302.01 -3.92774 3.47605 0
M  V30 21982 H 2303.48 -5.06368 2.19762 0
M  V30 21983 H 2303.96 -4.34172 0.662695 0
M  V30 21984 H 2304.56 -3.649 2.18467 0
M  V30 21985 N 2302.88 -1.06677 -1.16008 0
M  V30 21986 C 2304.13 -0.786978 -1.86908 0
M  V30 21987 C 2304.46 0.684986 -1.81718 0
M  V30 21988 O 2303.73 1.50215 -1.23554 0
M  V30 21989 C 2304.02 -1.28713 -3.36311 0
M  V30 21990 C 2303.87 -2.82314 -3.5017 0
M  V30 21991 C 2305.19 -0.898147 -4.30838 0
M  V30 21992 H 2302.31 -0.287355 -0.678672 0
M  V30 21993 H 2304.95 -1.32337 -1.36334 0
M  V30 21994 H 2303.1 -0.830835 -3.79512 0
M  V30 21995 H 2304.77 -3.36181 -3.1588 0
M  V30 21996 H 2303.01 -3.20852 -2.91953 0
M  V30 21997 H 2303.69 -3.12376 -4.5511 0
M  V30 21998 H 2306.16 -1.29121 -3.95559 0
M  V30 21999 H 2305.04 -1.27552 -5.33874 0
M  V30 22000 H 2305.3 0.196574 -4.41663 0
M  V30 22001 N 2304.36 1.32719 -0.8499 0
M  V30 22002 C 2305.61 1.9668 -0.447209 0
M  V30 22003 C 2305.92 1.68027 1.00132 0
M  V30 22004 O 2307.13 2.25688 1.50922 0
M  V30 22005 C 2305.58 3.52025 -0.748762 0
M  V30 22006 C 2305.19 3.89542 -2.21271 0
M  V30 22007 C 2306.93 4.22481 -0.413562 0
M  V30 22008 C 2304.84 5.37912 -2.45773 0
M  V30 22009 H 2303.77 0.73606 -0.163499 0
M  V30 22010 H 2306.42 1.51181 -1.04002 0
M  V30 22011 H 2304.8 3.95908 -0.0854423 0
M  V30 22012 H 2305.98 3.56684 -2.91742 0
M  V30 22013 H 2304.29 3.32099 -2.51196 0
M  V30 22014 H 2306.89 5.31609 -0.574111 0
M  V30 22015 H 2307.23 4.11282 0.64442 0
M  V30 22016 H 2307.77 3.84165 -1.03257 0
M  V30 22017 H 2304.5 5.54126 -3.50177 0
M  V30 22018 H 2304.02 5.72193 -1.79874 0
M  V30 22019 H 2305.7 6.04936 -2.29482 0
M  V30 22020 N 2305.84 0.60738 1.45426 0
M  V30 22021 C 2306.77 -0.0988942 2.3329 0
M  V30 22022 C 2307.75 -0.858981 1.46818 0
M  V30 22023 O 2308.93 -0.829573 1.7559 0
M  V30 22024 C 2306.06 -1.09699 3.2952 0
M  V30 22025 C 2305.02 -0.450131 4.25626 0
M  V30 22026 C 2304.34 -1.55646 5.11545 0
M  V30 22027 C 2305.64 0.628546 5.18504 0
M  V30 22028 H 2307.34 0.634767 2.92594 0
M  V30 22029 H 2304.88 0.306706 1.40696 0
M  V30 22030 H 2306.84 -1.59964 3.89858 0
M  V30 22031 H 2305.56 -1.86124 2.68375 0
M  V30 22032 H 2304.22 0.0316531 3.66586 0
M  V30 22033 H 2303.87 -2.31099 4.46769 0
M  V30 22034 H 2303.57 -1.12915 5.76649 0
M  V30 22035 H 2305.09 -2.06138 5.74752 0
M  V30 22036 H 2306.5 0.209978 5.72915 0
M  V30 22037 H 2304.9 0.977593 5.92084 0
M  V30 22038 H 2305.97 1.50522 4.60946 0
M  V30 22039 N 2307.31 -1.53743 0.34653 0
M  V30 22040 C 2308.22 -2.28827 -0.517252 0
M  V30 22041 C 2309.24 -1.34052 -1.10933 0
M  V30 22042 O 2310.42 -1.67092 -1.12437 0
M  V30 22043 C 2307.48 -3.04869 -1.65093 0
M  V30 22044 C 2306.54 -4.15276 -1.08833 0
M  V30 22045 C 2305.78 -4.87683 -2.16798 0
M  V30 22046 O 2306 -4.59784 -3.37572 0
M  V30 22047 O 2304.93 -5.74065 -1.80924 0
M  V30 22048 H 2308.76 -3.03557 0.0931929 0
M  V30 22049 H 2306.34 -1.48983 0.111484 0
M  V30 22050 H 2308.23 -3.52414 -2.31046 0
M  V30 22051 H 2306.9 -2.32993 -2.24713 0
M  V30 22052 H 2305.81 -3.72028 -0.393234 0
M  V30 22053 H 2307.14 -4.89262 -0.53695 0
M  V30 22054 N 2308.79 -0.0752207 -1.5742 0
M  V30 22055 C 2310.07 0.634296 -1.8503 0
M  V30 22056 C 2310.45 1.8758 -0.968338 0
M  V30 22057 O 2309.8 2.28472 -0.035515 0
M  V30 22058 C 2310.01 0.968683 -3.35287 0
M  V30 22059 C 2311.36 1.3407 -4.02878 0
M  V30 22060 O 2312.38 1.06031 -3.40053 0
M  V30 22061 O 2311.24 1.86497 -5.13694 0
M  V30 22062 H 2308.33 0.315374 -0.764505 0
M  V30 22063 H 2310.88 -0.106412 -1.69366 0
M  V30 22064 H 2309.65 0.0870688 -3.91203 0
M  V30 22065 H 2309.27 1.76604 -3.56226 0
M  V30 22066 N 2310.27 1.56347 0.198358 0
M  V30 22067 C 2311.52 1.79628 0.91742 0
M  V30 22068 C 2311.83 0.647873 1.84559 0
M  V30 22069 O 2313.04 0.764905 2.60502 0
M  V30 22070 C 2311.49 3.18193 1.68169 0
M  V30 22071 C 2311.1 4.40826 0.798512 0
M  V30 22072 C 2312.85 3.50787 2.39059 0
M  V30 22073 C 2310.75 5.70414 1.56147 0
M  V30 22074 H 2309.68 0.669768 0.346305 0
M  V30 22075 H 2312.33 1.82704 0.170768 0
M  V30 22076 H 2310.72 3.09359 2.47211 0
M  V30 22077 H 2311.89 4.60776 0.0469855 0
M  V30 22078 H 2310.21 4.15916 0.200613 0
M  V30 22079 H 2312.8 4.4484 2.96685 0
M  V30 22080 H 2313.15 2.74377 3.13087 0
M  V30 22081 H 2313.68 3.61055 1.66986 0
M  V30 22082 H 2310.42 6.49781 0.864028 0
M  V30 22083 H 2309.94 5.54487 2.28701 0
M  V30 22084 H 2311.62 6.11416 2.11611 0
M  V30 22085 N 2311.75 -0.465951 1.50554 0
M  V30 22086 C 2313.03 -1.22709 1.52322 0
M  V30 22087 C 2313.41 -2.09355 0.270844 0
M  V30 22088 O 2312.75 -2.15997 -0.745503 0
M  V30 22089 C 2312.96 -2.05369 2.82178 0
M  V30 22090 C 2314.31 -2.63384 3.33037 0
M  V30 22091 O 2315.34 -2.15607 2.83535 0
M  V30 22092 O 2314.19 -3.50449 4.19342 0
M  V30 22093 H 2311.29 -0.557111 0.611193 0
M  V30 22094 H 2313.83 -0.477353 1.62848 0
M  V30 22095 H 2312.61 -1.41551 3.648 0
M  V30 22096 H 2312.23 -2.87466 2.7468 0
M  V30 22097 N 2313.23 -1.40218 -0.719481 0
M  V30 22098 C 2314.14 -1.42483 -1.86375 0
M  V30 22099 C 2315.15 -0.317864 -1.71072 0
M  V30 22100 O 2316.33 -0.561828 -1.93405 0
M  V30 22101 C 2313.39 -1.28183 -3.22133 0
M  V30 22102 C 2312.45 -2.48988 -3.49719 0
M  V30 22103 C 2311.69 -2.35362 -4.79 0
M  V30 22104 O 2311.91 -1.36534 -5.53818 0
M  V30 22105 O 2310.84 -3.24659 -5.06834 0
M  V30 22106 H 2314.67 -2.38971 -1.87421 0
M  V30 22107 H 2312.26 -1.21499 -0.869384 0
M  V30 22108 H 2314.14 -1.22402 -4.03232 0
M  V30 22109 H 2312.81 -0.347991 -3.21824 0
M  V30 22110 H 2311.72 -2.60347 -2.68645 0
M  V30 22111 H 2313.05 -3.4112 -3.54822 0
M  V30 22112 N 2314.7 0.951297 -1.25651 0
M  V30 22113 C 2315.94 1.71111 -1.11805 0
M  V30 22114 C 2316.31 1.8906 0.334725 0
M  V30 22115 O 2317.51 2.6213 0.595075 0
M  V30 22116 C 2315.78 3.0548 -1.85517 0
M  V30 22117 S 2317.34 3.96674 -1.87604 0
M  V30 22118 H 2314.16 0.588108 -0.399562 0
M  V30 22119 H 2316.76 1.13438 -1.59224 0
M  V30 22120 H 2315.46 2.90089 -2.90304 0
M  V30 22121 H 2314.99 3.68214 -1.38499 0
M  V30 22122 H 2317.01 4.86914 -0.955475 0
M  V30 22123 N 2316.18 1.07291 1.1544 0
M  V30 22124 C 2317.11 0.650624 2.19772 0
M  V30 22125 C 2318.13 -0.296544 1.60076 0
M  V30 22126 O 2319.32 -0.0859592 1.78293 0
M  V30 22127 C 2316.42 -0.0649803 3.38838 0
M  V30 22128 C 2315.59 0.898216 4.28078 0
M  V30 22129 C 2314.65 0.220019 5.2574 0
M  V30 22130 O 2313.67 0.860871 5.62652 0
M  V30 22131 N 2314.88 -1.03455 5.71207 0
M  V30 22132 H 2317.64 1.54812 2.56619 0
M  V30 22133 H 2315.2 0.957517 1.3055 0
M  V30 22134 H 2317.19 -0.529344 4.01223 0
M  V30 22135 H 2315.76 -0.864414 3.00411 0
M  V30 22136 H 2314.98 1.54171 3.62801 0
M  V30 22137 H 2316.27 1.55129 4.84574 0
M  V30 22138 H 2315.67 -1.57517 5.43328 0
M  V30 22139 H 2314.23 -1.44261 6.35635 0
M  V30 22140 N 2317.66 -1.32267 0.856927 0
M  V30 22141 C 2318.57 -2.32594 0.306172 0
M  V30 22142 C 2319.59 -1.64148 -0.57718 0
M  V30 22143 O 2320.76 -1.9567 -0.477009 0
M  V30 22144 C 2317.83 -3.43155 -0.4945 0
M  V30 22145 C 2316.89 -4.27287 0.415261 0
M  V30 22146 C 2316.12 -5.32569 -0.347293 0
M  V30 22147 O 2316.34 -5.48167 -1.57698 0
M  V30 22148 O 2315.28 -6.0121 0.288087 0
M  V30 22149 H 2319.1 -2.81596 1.13742 0
M  V30 22150 H 2316.69 -1.35931 0.619926 0
M  V30 22151 H 2318.57 -4.10578 -0.948871 0
M  V30 22152 H 2317.25 -2.96338 -1.30251 0
M  V30 22153 H 2316.15 -3.62665 0.917856 0
M  V30 22154 H 2317.49 -4.77635 1.18852 0
M  V30 22155 N 2319.14 -0.615084 -1.45102 0
M  V30 22156 C 2320.07 0.0865209 -2.3334 0
M  V30 22157 C 2321.05 0.851183 -1.47271 0
M  V30 22158 O 2322.23 0.82025 -1.76027 0
M  V30 22159 C 2319.36 1.0795 -3.30097 0
M  V30 22160 C 2318.32 0.427553 -4.25859 0
M  V30 22161 C 2317.64 1.52931 -5.12363 0
M  V30 22162 C 2318.94 -0.656035 -5.18164 0
M  V30 22163 H 2320.64 -0.650275 -2.92253 0
M  V30 22164 H 2318.18 -0.314163 -1.40531 0
M  V30 22165 H 2320.14 1.57894 -3.90701 0
M  V30 22166 H 2318.86 1.84699 -2.69359 0
M  V30 22167 H 2317.52 -0.0510936 -3.66564 0
M  V30 22168 H 2317.17 2.28726 -4.47988 0
M  V30 22169 H 2316.87 1.09855 -5.7724 0
M  V30 22170 H 2318.39 2.03087 -5.75837 0
M  V30 22171 H 2319.81 -0.240358 -5.72796 0
M  V30 22172 H 2318.2 -1.00898 -5.91557 0
M  V30 22173 H 2319.27 -1.52965 -4.60141 0
M  V30 22174 N 2320.62 1.53557 -0.354678 0
M  V30 22175 C 2322.03 1.86268 0.126869 0
M  V30 22176 C 2322.38 1.27561 1.49073 0
M  V30 22177 O 2321.5 0.593437 2.08104 0
M  V30 22178 C 2322.1 3.3797 0.236987 0
M  V30 22179 C 2320.66 3.70519 0.662777 0
M  V30 22180 C 2319.81 2.76601 -0.196701 0
M  V30 22181 H 2322.76 1.47961 -0.573875 0
M  V30 22182 H 2322.78 3.65364 1.06252 0
M  V30 22183 H 2322.29 3.8067 -0.755792 0
M  V30 22184 H 2320.39 3.3337 1.66418 0
M  V30 22185 H 2320.5 4.77029 0.44495 0
M  V30 22186 H 2318.87 2.52517 0.332719 0
M  V30 22187 H 2319.65 3.22133 -1.18682 0
M  V30 22188 N 2322.1 0.083568 1.57378 0
M  V30 22189 C 2323.34 -0.581684 1.93548 0
M  V30 22190 C 2323.66 -1.69433 0.96527 0
M  V30 22191 O 2322.93 -1.95894 0.0153713 0
M  V30 22192 H 2321.51 -0.217861 0.714525 0
M  V30 22193 H 2324.18 0.144192 1.94366 0
M  V30 22194 H 2323.27 -0.999371 2.95667 0
M  V30 22195 N 2323.57 -1.5645 -0.190064 0
M  V30 22196 C 2324.5 -1.97971 -1.23813 0
M  V30 22197 C 2325.48 -0.85242 -1.472 0
M  V30 22198 O 2326.67 -1.11712 -1.58852 0
M  V30 22199 C 2323.8 -2.32354 -2.58126 0
M  V30 22200 C 2322.75 -3.47868 -2.49342 0
M  V30 22201 C 2322.08 -3.67941 -3.87974 0
M  V30 22202 C 2323.38 -4.81901 -2.01416 0
M  V30 22203 H 2325.07 -2.85771 -0.89306 0
M  V30 22204 H 2322.62 -1.37488 -0.428153 0
M  V30 22205 H 2324.57 -2.59997 -3.31632 0
M  V30 22206 H 2323.3 -1.41443 -2.94383 0
M  V30 22207 H 2321.96 -3.20324 -1.78291 0
M  V30 22208 H 2321.6 -2.74352 -4.21592 0
M  V30 22209 H 2321.3 -4.45654 -3.8297 0
M  V30 22210 H 2322.83 -3.97965 -4.63094 0
M  V30 22211 H 2324.24 -5.08542 -2.64684 0
M  V30 22212 H 2322.64 -5.6312 -2.07403 0
M  V30 22213 H 2323.71 -4.75148 -0.967593 0
M  V30 22214 N 2325.05 0.45796 -1.50799 0
M  V30 22215 C 2326.29 1.21876 -1.6409 0
M  V30 22216 C 2326.66 1.88968 -0.339881 0
M  V30 22217 O 2327.86 2.66533 -0.348348 0
M  V30 22218 C 2326.13 2.22455 -2.7973 0
M  V30 22219 S 2327.69 3.07298 -3.13231 0
M  V30 22220 H 2324.5 0.4136 -0.578322 0
M  V30 22221 H 2327.11 0.513612 -1.88633 0
M  V30 22222 H 2325.81 1.71769 -3.72725 0
M  V30 22223 H 2325.34 2.97579 -2.57313 0
M  V30 22224 H 2327.36 4.23809 -2.5807 0
M  V30 22225 N 2326.53 1.40598 0.712035 0
M  V30 22226 C 2327.46 1.37064 1.83701 0
M  V30 22227 C 2328.47 0.275454 1.60453 0
M  V30 22228 O 2329.66 0.53605 1.70261 0
M  V30 22229 C 2326.76 1.11105 3.2017 0
M  V30 22230 C 2325.94 2.32347 3.70586 0
M  V30 22231 C 2325 2.02494 4.85678 0
M  V30 22232 O 2324.02 2.75391 4.98145 0
M  V30 22233 N 2325.22 1.00507 5.71733 0
M  V30 22234 H 2327.99 2.34019 1.8723 0
M  V30 22235 H 2325.55 1.34998 0.893715 0
M  V30 22236 H 2327.54 0.891134 3.94767 0
M  V30 22237 H 2326.11 0.228044 3.11767 0
M  V30 22238 H 2325.33 2.70145 2.8708 0
M  V30 22239 H 2326.62 3.13165 4.01006 0
M  V30 22240 H 2326.02 0.401397 5.64274 0
M  V30 22241 H 2324.57 0.845056 6.46299 0
M  V30 22242 N 2328.01 -0.94462 1.26153 0
M  V30 22243 C 2329.26 -1.68708 1.11274 0
M  V30 22244 C 2329.58 -1.91921 -0.345132 0
M  V30 22245 O 2328.85 -1.51345 -1.24384 0
M  V30 22246 H 2327.43 -0.625217 0.408794 0
M  V30 22247 H 2330.09 -1.13517 1.58429 0
M  V30 22248 H 2329.18 -2.66224 1.62884 0
M  V30 22249 N 2329.49 -1.07901 -1.1487 0
M  V30 22250 C 2330.73 -0.803973 -1.8542 0
M  V30 22251 C 2331.05 0.672078 -1.83052 0
M  V30 22252 O 2330.32 1.487 -1.27534 0
M  V30 22253 H 2328.9 -0.29442 -0.686532 0
M  V30 22254 H 2331.57 -1.36393 -1.39223 0
M  V30 22255 H 2330.66 -1.14351 -2.90397 0
M  V30 22256 N 2330.96 1.31811 -0.863929 0
M  V30 22257 C 2332.24 1.91616 -0.392784 0
M  V30 22258 C 2332.62 1.78652 1.12458 0
M  V30 22259 O 2331.97 1.1904 1.95043 0
M  V30 22260 C 2332.18 3.38048 -0.867445 0
M  V30 22261 C 2333.53 4.15167 -0.890039 0
M  V30 22262 O 2334.55 3.46805 -0.812696 0
M  V30 22263 O 2333.41 5.37256 -1.00089 0
M  V30 22264 H 2330.5 0.818771 -0.116372 0
M  V30 22265 H 2333.05 1.40519 -0.951443 0
M  V30 22266 H 2331.82 3.4147 -1.91087 0
M  V30 22267 H 2331.44 3.96565 -0.286757 0
M  V30 22268 N 2332.44 0.62277 1.44773 0
M  V30 22269 C 2333.68 0.127138 2.04004 0
M  V30 22270 C 2334.05 -1.22475 1.47864 0
M  V30 22271 O 2335.25 -1.81201 1.98544 0
M  V30 22272 C 2333.52 0.104492 3.57247 0
M  V30 22273 S 2335.08 -0.327738 4.37574 0
M  V30 22274 H 2331.89 0.0569901 0.708712 0
M  V30 22275 H 2334.5 0.824284 1.77273 0
M  V30 22276 H 2333.2 1.09166 3.95615 0
M  V30 22277 H 2332.73 -0.614168 3.88576 0
M  V30 22278 H 2334.75 -1.57387 4.70578 0
M  V30 22279 N 2333.92 -1.53367 0.362817 0
M  V30 22280 C 2335.17 -2.01513 -0.228078 0
M  V30 22281 C 2335.5 -1.24972 -1.48646 0
M  V30 22282 O 2334.77 -0.342649 -1.91458 0
M  V30 22283 C 2335.06 -3.56284 -0.522821 0
M  V30 22284 C 2334.91 -4.4352 0.748997 0
M  V30 22285 C 2336.23 -4.19695 -1.32454 0
M  V30 22286 H 2333.35 -0.732489 -0.0814214 0
M  V30 22287 H 2335.99 -1.83648 0.487162 0
M  V30 22288 H 2334.14 -3.71638 -1.13214 0
M  V30 22289 H 2335.81 -4.39968 1.38656 0
M  V30 22290 H 2334.05 -4.11601 1.36993 0
M  V30 22291 H 2334.73 -5.49751 0.497763 0
M  V30 22292 H 2337.2 -4.08157 -0.809131 0
M  V30 22293 H 2336.08 -5.28021 -1.49951 0
M  V30 22294 H 2336.34 -3.75577 -2.33226 0
M  V30 22295 N 2335.4 -0.091913 -1.57332 0
M  V30 22296 C 2336.35 0.885709 -2.15077 0
M  V30 22297 C 2337.34 1.29439 -1.09279 0
M  V30 22298 O 2338.55 1.26929 -1.27629 0
M  V30 22299 H 2334.92 0.303644 -0.687971 0
M  V30 22300 H 2336.89 0.373943 -2.96048 0
M  V30 22301 C 2335.64 2.13633 -2.74329 0
M  V30 22302 H 2334.96 1.83074 -3.55421 0
M  V30 22303 H 2336.4 2.80104 -3.18305 0
M  V30 22304 C 2334.86 2.90824 -1.70067 0
M  V30 22305 O 2335.39 3.85252 -1.13769 0
M  V30 22306 N 2333.6 2.54305 -1.40633 0
M  V30 22307 H 2333.15 1.77587 -1.86603 0
M  V30 22308 H 2333.1 3.06253 -0.711096 0
M  V30 22309 N 2336.88 1.56548 0.181765 0
M  V30 22310 C 2338.1 1.85523 0.915914 0
M  V30 22311 C 2338.52 0.676047 1.76281 0
M  V30 22312 O 2337.88 -0.355045 1.79013 0
M  V30 22313 C 2337.93 3.13431 1.80121 0
M  V30 22314 O 2337.65 4.26803 0.988487 0
M  V30 22315 C 2339.15 3.55678 2.64591 0
M  V30 22316 H 2336.37 0.615765 0.266599 0
M  V30 22317 H 2338.91 2.03661 0.185004 0
M  V30 22318 H 2337.07 2.97149 2.48558 0
M  V30 22319 H 2337.48 4.99724 1.59299 0
M  V30 22320 H 2338.96 4.48107 3.22342 0
M  V30 22321 H 2339.43 2.79298 3.38953 0
M  V30 22322 H 2340.04 3.74535 2.01503 0
M  V30 22323 N 2338.35 -0.449957 1.5104 0
M  V30 22324 C 2339.6 -1.20042 1.63083 0
M  V30 22325 C 2339.93 -1.91486 0.341058 0
M  V30 22326 O 2339.18 -1.83718 -0.674244 0
M  V30 22327 C 2339.48 -2.25157 2.77559 0
M  V30 22328 C 2339.15 -1.70815 4.17292 0
M  V30 22329 C 2337.81 -1.55717 4.55308 0
M  V30 22330 C 2340.16 -1.30731 5.04538 0
M  V30 22331 C 2337.49 -0.989897 5.78289 0
M  V30 22332 C 2339.84 -0.754372 6.28086 0
M  V30 22333 C 2338.51 -0.590192 6.64886 0
M  V30 22334 H 2337.78 -0.439266 0.596763 0
M  V30 22335 H 2340.42 -0.493297 1.85037 0
M  V30 22336 H 2338.73 -3.01859 2.49777 0
M  V30 22337 H 2340.43 -2.83021 2.84078 0
M  V30 22338 H 2337.02 -1.8354 3.87313 0
M  V30 22339 H 2341.2 -1.41221 4.75784 0
M  V30 22340 H 2336.46 -0.850344 6.05458 0
M  V30 22341 H 2340.63 -0.435202 6.95039 0
M  V30 22342 H 2338.26 -0.148487 7.60055 0
M  V30 22343 N 2339.83 -1.40974 -0.704569 0
M  V30 22344 C 2341.08 -1.3957 -1.46166 0
M  V30 22345 C 2341.4 -0.00257172 -1.95 0
M  V30 22346 O 2340.67 0.954084 -1.71097 0
M  V30 22347 H 2339.25 -0.513713 -0.542317 0
M  V30 22348 H 2341.91 -1.7613 -0.834522 0
M  V30 22349 H 2341.01 -2.07739 -2.32919 0
M  V30 22350 N 2341.31 0.937917 -1.26653 0
M  V30 22351 C 2342.54 1.72409 -1.15282 0
M  V30 22352 C 2342.96 1.85885 0.287833 0
M  V30 22353 O 2342.32 1.35145 1.20853 0
M  V30 22354 C 2342.37 3.10694 -1.83034 0
M  V30 22355 O 2341.47 3.96862 -1.12135 0
M  V30 22356 H 2340.81 0.528851 -0.401513 0
M  V30 22357 H 2343.34 1.17447 -1.67533 0
M  V30 22358 H 2343.35 3.61066 -1.89987 0
M  V30 22359 H 2342.03 3.00203 -2.87839 0
M  V30 22360 H 2340.6 3.5531 -1.13179 0
M  V30 22361 N 2342.79 1.08509 1.14296 0
M  V30 22362 C 2344.04 0.815406 1.85357 0
M  V30 22363 C 2344.36 -0.658833 1.83002 0
M  V30 22364 O 2343.62 -1.50029 1.25658 0
M  V30 22365 C 2343.92 1.28385 3.33545 0
M  V30 22366 C 2343.58 2.76608 3.56088 0
M  V30 22367 C 2342.25 3.1709 3.61949 0
M  V30 22368 C 2344.6 3.72223 3.64828 0
M  V30 22369 C 2341.93 4.5198 3.74074 0
M  V30 22370 C 2344.28 5.0689 3.78478 0
M  V30 22371 C 2342.94 5.46976 3.82589 0
M  V30 22372 H 2342.21 0.298378 0.678271 0
M  V30 22373 H 2344.86 1.35821 1.35 0
M  V30 22374 H 2343.16 0.660661 3.8619 0
M  V30 22375 H 2344.86 1.05193 3.86957 0
M  V30 22376 H 2341.45 2.44276 3.52175 0
M  V30 22377 H 2345.63 3.42067 3.59589 0
M  V30 22378 H 2340.89 4.82489 3.75519 0
M  V30 22379 H 2345.06 5.80841 3.84183 0
M  V30 22380 H 2342.69 6.51496 3.91736 0
M  V30 22381 N 2344.27 -1.31351 0.870907 0
M  V30 22382 C 2345.2 -2.27426 0.28459 0
M  V30 22383 C 2346.21 -1.53124 -0.5529 0
M  V30 22384 O 2347.4 -1.74522 -0.37474 0
M  V30 22385 C 2344.5 -3.33271 -0.615106 0
M  V30 22386 C 2343.67 -4.36986 0.190156 0
M  V30 22387 C 2342.73 -5.2232 -0.637825 0
M  V30 22388 O 2341.76 -5.69162 -0.0655259 0
M  V30 22389 N 2342.96 -5.46781 -1.94963 0
M  V30 22390 H 2345.73 -2.78378 1.11022 0
M  V30 22391 H 2343.29 -1.44382 0.732483 0
M  V30 22392 H 2345.28 -3.87275 -1.17474 0
M  V30 22393 H 2343.85 -2.82356 -1.34141 0
M  V30 22394 H 2343.07 -3.83043 0.931232 0
M  V30 22395 H 2344.36 -5.03351 0.742667 0
M  V30 22396 H 2343.75 -5.10482 -2.43772 0
M  V30 22397 H 2342.31 -6.03716 -2.45703 0
M  V30 22398 N 2345.74 -0.630439 -1.44441 0
M  V30 22399 C 2346.98 -0.137955 -2.03934 0
M  V30 22400 C 2347.35 1.2169 -1.48511 0
M  V30 22401 O 2348.55 1.80145 -1.99502 0
M  V30 22402 C 2346.82 -0.123436 -3.57187 0
M  V30 22403 S 2348.38 0.304527 -4.37742 0
M  V30 22404 H 2345.2 -0.0607477 -0.7084 0
M  V30 22405 H 2347.8 -0.833674 -1.76834 0
M  V30 22406 H 2346.5 -1.11263 -3.9503 0
M  V30 22407 H 2346.03 0.593552 -3.88897 0
M  V30 22408 H 2348.05 1.54889 -4.71406 0
M  V30 22409 N 2347.22 1.53172 -0.370945 0
M  V30 22410 C 2348.13 2.29621 0.480783 0
M  V30 22411 C 2349.15 1.358 1.08786 0
M  V30 22412 O 2350.32 1.6886 1.09765 0
M  V30 22413 C 2347.39 3.07457 1.60222 0
M  V30 22414 C 2346.45 4.16955 1.02212 0
M  V30 22415 C 2345.68 4.9107 2.09012 0
M  V30 22416 O 2345.91 4.65097 3.30214 0
M  V30 22417 O 2344.84 5.7687 1.71768 0
M  V30 22418 H 2348.67 3.0337 -0.141474 0
M  V30 22419 H 2346.25 1.48787 -0.135172 0
M  V30 22420 H 2348.13 3.56045 2.2541 0
M  V30 22421 H 2346.81 2.36539 2.20978 0
M  V30 22422 H 2345.72 3.72606 0.333998 0
M  V30 22423 H 2347.05 4.90055 0.459044 0
M  V30 22424 N 2348.7 0.100255 1.57281 0
M  V30 22425 C 2349.94 -0.565545 1.9642 0
M  V30 22426 C 2350.3 -1.65029 0.981294 0
M  V30 22427 O 2351.51 -2.37366 1.26137 0
M  V30 22428 C 2349.78 -1.10165 3.39998 0
M  V30 22429 S 2351.34 -1.7786 4.01137 0
M  V30 22430 H 2348.15 -0.184394 0.686673 0
M  V30 22431 H 2350.76 0.180885 1.94661 0
M  V30 22432 H 2349.46 -0.300731 4.09297 0
M  V30 22433 H 2348.99 -1.88379 3.45365 0
M  V30 22434 H 2351.01 -3.06319 3.90363 0
M  V30 22435 N 2350.18 -1.56643 -0.17346 0
M  V30 22436 C 2351.59 -1.71575 -0.736125 0
M  V30 22437 C 2351.94 -0.710421 -1.82886 0
M  V30 22438 O 2351.07 0.128662 -2.16017 0
M  V30 22439 C 2351.66 -3.11086 -1.34205 0
M  V30 22440 C 2350.22 -3.2771 -1.85156 0
M  V30 22441 C 2349.37 -2.67526 -0.729718 0
M  V30 22442 H 2352.32 -1.58615 0.0519065 0
M  V30 22443 H 2352.34 -3.09617 -2.21173 0
M  V30 22444 H 2351.85 -3.84233 -0.546512 0
M  V30 22445 H 2349.95 -2.59516 -2.67361 0
M  V30 22446 H 2350.07 -4.35428 -1.99848 0
M  V30 22447 H 2348.43 -2.2728 -1.14961 0
M  V30 22448 H 2349.21 -3.43258 0.0539409 0
M  V30 22449 N 2351.66 0.44194 -1.51277 0
M  V30 22450 C 2353.07 1.02196 -1.56246 0
M  V30 22451 C 2353.42 1.92422 -0.383183 0
M  V30 22452 O 2352.54 2.10531 0.500576 0
M  V30 22453 C 2353.14 1.86019 -2.83165 0
M  V30 22454 C 2351.7 2.39079 -2.9072 0
M  V30 22455 C 2350.85 1.18171 -2.5086 0
M  V30 22456 H 2353.8 0.223389 -1.5712 0
M  V30 22457 H 2353.82 2.7142 -2.66667 0
M  V30 22458 H 2353.33 1.20325 -3.68976 0
M  V30 22459 H 2351.43 3.08241 -2.09328 0
M  V30 22460 H 2351.54 2.72191 -3.9427 0
M  V30 22461 H 2349.91 1.52561 -2.03954 0
M  V30 22462 H 2350.69 0.540942 -3.39011 0
M  V30 22463 N 2353.14 1.41345 0.697083 0
M  V30 22464 C 2354.38 1.40344 1.45424 0
M  V30 22465 C 2354.7 0.012913 1.94996 0
M  V30 22466 O 2353.97 -0.944996 1.716 0
M  V30 22467 H 2352.55 0.516582 0.539585 0
M  V30 22468 H 2355.22 1.7657 0.82517 0
M  V30 22469 H 2354.31 2.08971 2.31814 0
M  V30 22470 N 2354.61 -0.931187 1.27148 0
M  V30 22471 C 2355.84 -1.71017 1.15917 0
M  V30 22472 C 2356.25 -1.87009 -0.287079 0
M  V30 22473 O 2355.59 -1.38431 -1.20759 0
M  V30 22474 C 2355.66 -3.13104 1.76653 0
M  V30 22475 C 2355.32 -3.20461 3.25812 0
M  V30 22476 C 2356.32 -3.02976 4.22495 0
M  V30 22477 C 2354 -3.43531 3.66458 0
M  V30 22478 C 2356 -3.08445 5.578 0
M  V30 22479 C 2353.68 -3.48634 5.01894 0
M  V30 22480 C 2354.68 -3.31108 5.97374 0
M  V30 22481 O 2354.37 -3.35939 7.30342 0
M  V30 22482 H 2354.1 -0.541943 0.404072 0
M  V30 22483 H 2356.66 -1.17518 1.68459 0
M  V30 22484 H 2354.89 -3.68069 1.18584 0
M  V30 22485 H 2356.57 -3.72955 1.60185 0
M  V30 22486 H 2357.34 -2.84997 3.9243 0
M  V30 22487 H 2353.22 -3.56225 2.92617 0
M  V30 22488 H 2356.76 -2.94683 6.32304 0
M  V30 22489 H 2352.66 -3.66136 5.31615 0
M  V30 22490 H 2353.43 -3.52417 7.38745 0
M  V30 22491 N 2356.09 -1.09114 -1.13719 0
M  V30 22492 C 2357.04 -0.697129 -2.17081 0
M  V30 22493 C 2358.03 0.286895 -1.58322 0
M  V30 22494 O 2359.22 0.0977697 -1.7673 0
M  V30 22495 C 2356.35 -0.115789 -3.43105 0
M  V30 22496 C 2355.43 -1.12604 -4.08878 0
M  V30 22497 N 2355.82 -2.31202 -4.49866 0
M  V30 22498 C 2354.12 -0.963442 -4.3547 0
M  V30 22499 C 2354.82 -2.9544 -5.01089 0
M  V30 22500 N 2353.8 -2.23015 -4.95747 0
M  V30 22501 H 2357.6 -1.60014 -2.46521 0
M  V30 22502 H 2355.11 -0.966892 -1.3048 0
M  V30 22503 H 2357.11 0.184482 -4.16492 0
M  V30 22504 H 2355.77 0.782115 -3.1514 0
M  V30 22505 H 2356.78 -2.68814 -4.42673 0
M  V30 22506 H 2353.46 -0.119951 -4.17328 0
M  V30 22507 H 2354.85 -3.96245 -5.42623 0
M  V30 22508 N 2357.57 1.30887 -0.877861 0
M  V30 22509 C 2358.5 2.3078 -0.355381 0
M  V30 22510 C 2359.48 1.60688 0.557965 0
M  V30 22511 O 2360.67 1.88344 0.473322 0
M  V30 22512 C 2357.8 3.44538 0.437161 0
M  V30 22513 C 2356.75 4.26276 -0.38379 0
M  V30 22514 C 2356.08 5.32018 0.534921 0
M  V30 22515 C 2357.38 4.96473 -1.6221 0
M  V30 22516 H 2359.07 2.7473 -1.19012 0
M  V30 22517 H 2356.62 1.32077 -0.573722 0
M  V30 22518 H 2358.57 4.13478 0.813261 0
M  V30 22519 H 2357.29 2.99374 1.30548 0
M  V30 22520 H 2355.95 3.59014 -0.741938 0
M  V30 22521 H 2355.6 4.83103 1.40074 0
M  V30 22522 H 2355.3 5.87599 -0.0105244 0
M  V30 22523 H 2356.82 6.03816 0.907693 0
M  V30 22524 H 2358.24 5.57968 -1.31699 0
M  V30 22525 H 2356.63 5.61887 -2.10721 0
M  V30 22526 H 2357.7 4.23006 -2.37052 0
M  V30 22527 N 2359.05 0.638091 1.44105 0
M  V30 22528 C 2360.27 0.150952 2.0685 0
M  V30 22529 C 2360.7 -1.1683 1.47419 0
M  V30 22530 O 2360.06 -1.7183 0.578295 0
M  V30 22531 C 2360.1 0.0571434 3.60555 0
M  V30 22532 O 2359.21 -0.984902 4.00467 0
M  V30 22533 H 2358.55 0.0879514 0.658149 0
M  V30 22534 H 2361.08 0.87674 1.84863 0
M  V30 22535 H 2361.09 -0.13116 4.07789 0
M  V30 22536 H 2359.76 1.02028 4.03191 0
M  V30 22537 H 2358.34 -0.770608 3.64851 0
M  V30 22538 N 2360.53 -1.52973 0.379063 0
M  V30 22539 C 2361.44 -2.29872 -0.468599 0
M  V30 22540 C 2362.45 -1.36375 -1.08065 0
M  V30 22541 O 2363.63 -1.6944 -1.08868 0
M  V30 22542 C 2360.69 -3.08303 -1.58589 0
M  V30 22543 C 2359.75 -4.17491 -0.999997 0
M  V30 22544 C 2358.99 -4.92172 -2.06404 0
M  V30 22545 O 2359.21 -4.66841 -3.27743 0
M  V30 22546 O 2358.14 -5.77773 -1.68707 0
M  V30 22547 H 2361.97 -3.03291 0.157561 0
M  V30 22548 H 2359.55 -1.48713 0.143061 0
M  V30 22549 H 2361.44 -3.57235 -2.23519 0
M  V30 22550 H 2360.11 -2.37707 -2.1972 0
M  V30 22551 H 2359.02 -3.72778 -0.314233 0
M  V30 22552 H 2360.35 -4.90291 -0.433049 0
M  V30 22553 N 2362 -0.108595 -1.57225 0
M  V30 22554 C 2362.95 0.856359 -2.11307 0
M  V30 22555 C 2363.94 1.23502 -1.03131 0
M  V30 22556 O 2365.13 1.20785 -1.29383 0
M  V30 22557 C 2362.26 2.11036 -2.70774 0
M  V30 22558 C 2361.34 1.75653 -3.86014 0
M  V30 22559 N 2361.74 1.10894 -4.93494 0
M  V30 22560 C 2360.03 2.05178 -3.96003 0
M  V30 22561 C 2360.73 0.944207 -5.73986 0
M  V30 22562 N 2359.71 1.46587 -5.23463 0
M  V30 22563 H 2363.51 0.351951 -2.91785 0
M  V30 22564 H 2361.03 0.094204 -1.62127 0
M  V30 22565 H 2363.02 2.81123 -3.07856 0
M  V30 22566 H 2361.68 2.6203 -1.91756 0
M  V30 22567 H 2362.69 0.774145 -5.12081 0
M  V30 22568 H 2359.37 2.58292 -3.28012 0
M  V30 22569 H 2360.76 0.436695 -6.70479 0
M  V30 22570 N 2363.48 1.56732 0.16515 0
M  V30 22571 C 2364.71 1.86484 0.896185 0
M  V30 22572 C 2365.12 0.694706 1.75554 0
M  V30 22573 O 2364.48 -0.336038 1.7938 0
M  V30 22574 C 2364.53 3.15323 1.76786 0
M  V30 22575 O 2364.25 4.27827 0.943163 0
M  V30 22576 C 2365.75 3.58464 2.60804 0
M  V30 22577 H 2362.97 0.618558 0.260053 0
M  V30 22578 H 2365.52 2.03846 0.163392 0
M  V30 22579 H 2363.67 2.99769 2.45392 0
M  V30 22580 H 2364.09 5.01386 1.5399 0
M  V30 22581 H 2365.56 4.515 3.17571 0
M  V30 22582 H 2366.04 2.82877 3.35972 0
M  V30 22583 H 2366.64 3.76651 1.97519 0
M  V30 22584 N 2364.96 -0.433911 1.51509 0
M  V30 22585 C 2366.38 -0.770658 1.39761 0
M  V30 22586 C 2366.58 -1.95635 0.482628 0
M  V30 22587 O 2365.63 -2.52426 -0.0609248 0
M  V30 22588 C 2366.95 -1.04782 2.81853 0
M  V30 22589 C 2368.49 -1.15204 2.91027 0
M  V30 22590 C 2368.97 -1.46212 4.34035 0
M  V30 22591 N 2370.46 -1.53129 4.37157 0
M  V30 22592 C 2371.19 -1.78699 5.44843 0
M  V30 22593 N 2370.69 -2.02039 6.62685 0
M  V30 22594 N 2372.48 -1.8051 5.32328 0
M  V30 22595 H 2364.63 0.346929 2.09548 0
M  V30 22596 H 2366.9 0.092824 0.943445 0
M  V30 22597 H 2366.6 -0.249242 3.50816 0
M  V30 22598 H 2366.48 -1.97456 3.21389 0
M  V30 22599 H 2368.86 -1.94124 2.22261 0
M  V30 22600 H 2368.95 -0.204236 2.54983 0
M  V30 22601 H 2368.59 -0.678185 5.03352 0
M  V30 22602 H 2368.52 -2.42204 4.67595 0
M  V30 22603 H 2371.01 -1.36981 3.522 0
M  V30 22604 H 2371.32 -2.2093 7.40547 0
M  V30 22605 H 2369.67 -1.99354 6.65795 0
M  V30 22606 H 2372.86 -1.61797 4.39249 0
M  V30 22607 H 2373.03 -2.001 6.16331 0
M  V30 22608 N 2366.44 -1.41713 -0.689577 0
M  V30 22609 C 2367.69 -1.40689 -1.44532 0
M  V30 22610 C 2368 -0.0213696 -1.95588 0
M  V30 22611 O 2369.21 0.111486 -2.71271 0
M  V30 22612 C 2367.66 -2.47401 -2.61382 0
M  V30 22613 C 2367.27 -3.91889 -2.17087 0
M  V30 22614 C 2369.01 -2.55523 -3.38982 0
M  V30 22615 C 2366.92 -4.90141 -3.30932 0
M  V30 22616 H 2365.85 -0.523219 -0.542916 0
M  V30 22617 H 2368.5 -1.67561 -0.748024 0
M  V30 22618 H 2366.88 -2.13669 -3.33409 0
M  V30 22619 H 2368.06 -4.349 -1.52311 0
M  V30 22620 H 2366.37 -3.87483 -1.52466 0
M  V30 22621 H 2368.97 -3.2611 -4.23741 0
M  V30 22622 H 2369.31 -1.59398 -3.84575 0
M  V30 22623 H 2369.85 -2.88375 -2.74016 0
M  V30 22624 H 2366.59 -5.87691 -2.90345 0
M  V30 22625 H 2366.11 -4.51774 -3.94538 0
M  V30 22626 H 2367.78 -5.11176 -3.96621 0
M  V30 22627 N 2367.92 0.924431 -1.2764 0
M  V30 22628 C 2369.16 1.68701 -1.1541 0
M  V30 22629 C 2369.52 1.89727 0.294547 0
M  V30 22630 O 2370.72 2.63334 0.539339 0
M  V30 22631 C 2368.99 3.01476 -1.91955 0
M  V30 22632 S 2370.55 3.92605 -1.95976 0
M  V30 22633 H 2367.37 0.5795 -0.411947 0
M  V30 22634 H 2369.97 1.10035 -1.61594 0
M  V30 22635 H 2368.68 2.83866 -2.96392 0
M  V30 22636 H 2368.21 3.65193 -1.46279 0
M  V30 22637 H 2370.22 4.84778 -1.05854 0
M  V30 22638 N 2369.39 1.09715 1.13139 0
M  V30 22639 C 2370.3 0.751406 2.22241 0
M  V30 22640 C 2371.32 -0.247907 1.72225 0
M  V30 22641 O 2372.5 -0.0885109 2.01205 0
M  V30 22642 C 2369.56 0.180334 3.46231 0
M  V30 22643 C 2368.62 1.23597 4.11123 0
M  V30 22644 C 2367.86 0.692059 5.29194 0
M  V30 22645 O 2368.08 -0.48404 5.68343 0
M  V30 22646 O 2367.01 1.44849 5.84211 0
M  V30 22647 H 2370.84 1.6619 2.54194 0
M  V30 22648 H 2368.42 0.871757 1.21329 0
M  V30 22649 H 2370.31 -0.134665 4.21185 0
M  V30 22650 H 2368.98 -0.70313 3.15971 0
M  V30 22651 H 2367.89 1.60371 3.37982 0
M  V30 22652 H 2369.22 2.09219 4.4552 0
M  V30 22653 N 2370.87 -1.30419 0.88479 0
M  V30 22654 C 2372.15 -1.90967 0.423219 0
M  V30 22655 C 2372.53 -1.80418 -1.09601 0
M  V30 22656 O 2371.88 -1.22128 -1.93124 0
M  V30 22657 C 2372.09 -3.36625 0.921115 0
M  V30 22658 C 2373.44 -4.13698 0.955976 0
M  V30 22659 O 2374.46 -3.45468 0.867767 0
M  V30 22660 O 2373.32 -5.35596 1.08623 0
M  V30 22661 H 2370.41 -0.816816 0.129383 0
M  V30 22662 H 2372.96 -1.38988 0.973678 0
M  V30 22663 H 2371.73 -3.38386 1.96495 0
M  V30 22664 H 2371.35 -3.96058 0.34981 0
M  V30 22665 N 2372.35 -0.645724 -1.43764 0
M  V30 22666 C 2373.6 -0.153448 -2.01115 0
M  V30 22667 C 2373.91 1.23728 -1.51495 0
M  V30 22668 O 2375.12 1.82437 -2.0107 0
M  V30 22669 C 2373.57 -0.223536 -3.59205 0
M  V30 22670 C 2373.18 -1.61649 -4.1782 0
M  V30 22671 C 2374.93 0.211523 -4.23973 0
M  V30 22672 C 2372.83 -1.64091 -5.6818 0
M  V30 22673 H 2371.76 -0.0536024 -0.752092 0
M  V30 22674 H 2374.41 -0.806662 -1.64819 0
M  V30 22675 H 2372.8 0.497049 -3.92868 0
M  V30 22676 H 2373.97 -2.36183 -3.9567 0
M  V30 22677 H 2372.29 -1.99688 -3.65395 0
M  V30 22678 H 2374.88 0.213018 -5.34276 0
M  V30 22679 H 2375.23 1.24158 -3.97354 0
M  V30 22680 H 2375.76 -0.457058 -3.95166 0
M  V30 22681 H 2372.5 -2.64981 -5.99554 0
M  V30 22682 H 2372.02 -0.938715 -5.92409 0
M  V30 22683 H 2373.7 -1.38131 -6.32083 0
M  V30 22684 N 2373.83 1.5277 -0.38717 0
M  V30 22685 C 2375.11 1.93955 0.253163 0
M  V30 22686 C 2375.49 1.32246 1.64543 0
M  V30 22687 O 2374.83 0.489738 2.2319 0
M  V30 22688 C 2375.04 3.47862 0.281661 0
M  V30 22689 C 2376.39 4.21506 0.511641 0
M  V30 22690 O 2377.42 3.54356 0.361961 0
M  V30 22691 O 2376.27 5.40542 0.804752 0
M  V30 22692 H 2373.37 0.811993 0.15683 0
M  V30 22693 H 2375.91 1.63856 -0.441523 0
M  V30 22694 H 2374.69 3.85103 -0.693639 0
M  V30 22695 H 2374.31 3.84258 1.02136 0
M  V30 22696 N 2375.31 0.116931 1.57166 0
M  V30 22697 C 2376.22 -0.847774 2.18746 0
M  V30 22698 C 2377.23 -1.29421 1.16302 0
M  V30 22699 O 2378.41 -1.35762 1.48763 0
M  V30 22700 C 2375.47 -2.08085 2.77311 0
M  V30 22701 C 2374.53 -1.68654 3.94784 0
M  V30 22702 C 2373.77 -2.86083 4.50546 0
M  V30 22703 O 2373.99 -4.01449 4.05209 0
M  V30 22704 O 2372.92 -2.63288 5.41261 0
M  V30 22705 H 2376.75 -0.353725 3.01633 0
M  V30 22706 H 2374.34 -0.108573 1.49005 0
M  V30 22707 H 2376.22 -2.80307 3.14652 0
M  V30 22708 H 2374.89 -2.56501 1.97457 0
M  V30 22709 H 2373.8 -0.935454 3.62215 0
M  V30 22710 H 2375.13 -1.24982 4.76068 0
M  V30 22711 N 2376.78 -1.56818 -0.156836 0
M  V30 22712 C 2378.02 -1.8461 -0.87742 0
M  V30 22713 C 2378.39 -0.699876 -1.7879 0
M  V30 22714 O 2379.59 -0.858597 -2.54719 0
M  V30 22715 C 2377.86 -3.17558 -1.63987 0
M  V30 22716 S 2379.42 -3.66876 -2.40723 0
M  V30 22717 H 2376.24 -0.647549 -0.293601 0
M  V30 22718 H 2378.84 -1.95012 -0.138065 0
M  V30 22719 H 2377.54 -3.98959 -0.962293 0
M  V30 22720 H 2377.07 -3.10135 -2.42032 0
M  V30 22721 H 2379.09 -3.35356 -3.65719 0
M  V30 22722 N 2378.26 0.425871 -1.51737 0
M  V30 22723 C 2379.49 1.20105 -1.69084 0
M  V30 22724 C 2379.91 1.83961 -0.39243 0
M  V30 22725 O 2379.27 1.69303 0.648551 0
M  V30 22726 C 2379.32 2.25232 -2.81608 0
M  V30 22727 O 2378.42 3.30988 -2.4601 0
M  V30 22728 H 2377.76 0.35137 -0.563414 0
M  V30 22729 H 2380.29 0.501477 -1.98359 0
M  V30 22730 H 2380.3 2.69833 -3.0603 0
M  V30 22731 H 2378.98 1.78135 -3.7582 0
M  V30 22732 H 2377.56 2.91783 -2.322 0
M  V30 22733 N 2379.74 1.42077 0.682052 0
M  V30 22734 C 2380.97 1.45542 1.47055 0
M  V30 22735 C 2381.38 0.064611 1.88689 0
M  V30 22736 O 2380.74 -0.919087 1.57668 0
M  V30 22737 C 2380.79 2.37613 2.72437 0
M  V30 22738 O 2380.51 3.71283 2.32552 0
M  V30 22739 C 2382.01 2.50024 3.66064 0
M  V30 22740 H 2379.23 0.495255 0.452728 0
M  V30 22741 H 2381.78 1.86512 0.838662 0
M  V30 22742 H 2379.93 1.99916 3.31832 0
M  V30 22743 H 2380.35 4.20521 3.13468 0
M  V30 22744 H 2381.82 3.18584 4.50786 0
M  V30 22745 H 2382.3 1.53579 4.11473 0
M  V30 22746 H 2382.9 2.88413 3.12567 0
M  V30 22747 N 2381.22 -0.917649 1.28129 0
M  V30 22748 C 2382.17 -2.00602 1.08364 0
M  V30 22749 C 2383.15 -1.60898 0.00850347 0
M  V30 22750 O 2384.35 -1.75523 0.228197 0
M  V30 22751 C 2381.47 -3.35154 0.743435 0
M  V30 22752 C 2380.56 -3.81272 1.85722 0
M  V30 22753 N 2380.95 -3.998 3.09829 0
M  V30 22754 C 2379.25 -4.10395 1.74619 0
M  V30 22755 C 2379.95 -4.38365 3.82375 0
M  V30 22756 N 2378.93 -4.46405 3.102 0
M  V30 22757 H 2382.73 -2.12972 2.02535 0
M  V30 22758 H 2380.24 -1.10521 1.18991 0
M  V30 22759 H 2382.24 -4.12804 0.582932 0
M  V30 22760 H 2380.9 -3.2414 -0.190538 0
M  V30 22761 H 2381.91 -3.85827 3.45482 0
M  V30 22762 H 2378.59 -4.0804 0.883729 0
M  V30 22763 H 2379.98 -4.60696 4.8909 0
M  V30 22764 N 2382.7 -1.10314 -1.12555 0
M  V30 22765 C 2383.92 -0.867118 -1.88403 0
M  V30 22766 C 2384.35 0.576786 -1.79039 0
M  V30 22767 O 2383.71 1.40616 -1.14442 0
M  V30 22768 C 2383.75 -1.31857 -3.35628 0
M  V30 22769 O 2382.86 -0.482806 -4.09564 0
M  V30 22770 H 2382.2 -0.313281 -0.585449 0
M  V30 22771 H 2384.73 -1.46962 -1.42349 0
M  V30 22772 H 2384.74 -1.30796 -3.86466 0
M  V30 22773 H 2383.41 -2.37007 -3.41761 0
M  V30 22774 H 2381.99 -0.558513 -3.68694 0
M  V30 22775 N 2384.18 1.29948 -0.891694 0
M  V30 22776 C 2385.42 1.95493 -0.512521 0
M  V30 22777 C 2385.74 1.70697 0.942746 0
M  V30 22778 O 2385.01 1.03427 1.66372 0
M  V30 22779 H 2383.59 0.723332 -0.186546 0
M  V30 22780 H 2386.26 1.58353 -1.13624 0
M  V30 22781 H 2385.35 3.04413 -0.688395 0
M  V30 22782 N 2385.65 0.653339 1.4342 0
M  V30 22783 C 2386.9 0.164111 2.01031 0
M  V30 22784 C 2387.22 -1.22923 1.52149 0
M  V30 22785 O 2388.42 -1.81368 2.02035 0
M  V30 22786 C 2386.88 0.242583 3.59082 0
M  V30 22787 C 2386.49 1.63862 4.16957 0
M  V30 22788 C 2388.23 -0.189035 4.24079 0
M  V30 22789 C 2386.14 1.67102 5.67302 0
M  V30 22790 H 2385.07 0.0575901 0.751797 0
M  V30 22791 H 2387.72 0.815391 1.64389 0
M  V30 22792 H 2386.1 -0.476207 3.93126 0
M  V30 22793 H 2387.27 2.38278 3.94412 0
M  V30 22794 H 2385.59 2.01623 3.64331 0
M  V30 22795 H 2388.19 -0.184681 5.34381 0
M  V30 22796 H 2388.53 -1.22049 3.98007 0
M  V30 22797 H 2389.06 0.478008 3.94918 0
M  V30 22798 H 2385.8 2.68157 5.98141 0
M  V30 22799 H 2385.32 0.970118 5.91903 0
M  V30 22800 H 2387 1.41481 6.31341 0
M  V30 22801 N 2387.13 -1.52563 0.395266 0
M  V30 22802 C 2388.37 -2.03564 -0.184709 0
M  V30 22803 C 2388.74 -1.2751 -1.43545 0
M  V30 22804 O 2389.94 -1.68665 -2.09297 0
M  V30 22805 C 2388.21 -3.54678 -0.440231 0
M  V30 22806 S 2389.77 -4.27495 -0.989637 0
M  V30 22807 H 2386.58 -0.709133 -0.0514951 0
M  V30 22808 H 2389.19 -1.8775 0.54499 0
M  V30 22809 H 2387.89 -4.07618 0.477077 0
M  V30 22810 H 2387.42 -3.74709 -1.19819 0
M  V30 22811 H 2389.44 -4.41156 -2.27147 0
M  V30 22812 N 2388.61 -0.125265 -1.57101 0
M  V30 22813 C 2389.86 0.530164 -1.95022 0
M  V30 22814 C 2390.18 1.66814 -1.00985 0
M  V30 22815 O 2389.45 1.95784 -0.0673037 0
M  V30 22816 H 2388.03 0.19884 -0.72005 0
M  V30 22817 H 2390.69 -0.195674 -1.93915 0
M  V30 22818 H 2389.79 0.920629 -2.98213 0
M  V30 22819 N 2390.09 1.56899 0.148518 0
M  V30 22820 C 2391.5 1.72725 0.708736 0
M  V30 22821 C 2391.85 0.739427 1.81733 0
M  V30 22822 O 2390.97 -0.0942789 2.16195 0
M  V30 22823 C 2391.57 3.13182 1.29239 0
M  V30 22824 C 2390.13 3.30615 1.79919 0
M  V30 22825 C 2389.28 2.68654 0.687064 0
M  V30 22826 H 2392.23 1.58512 -0.0771342 0
M  V30 22827 H 2392.25 3.13097 2.16219 0
M  V30 22828 H 2391.76 3.85054 0.485315 0
M  V30 22829 H 2389.86 2.63737 2.63199 0
M  V30 22830 H 2389.97 4.38552 1.92895 0
M  V30 22831 H 2388.34 2.2908 1.11331 0
M  V30 22832 H 2389.12 3.43128 -0.108543 0
M  V30 22833 N 2391.57 -0.417818 1.51961 0
M  V30 22834 C 2392.81 -1.16326 1.65265 0
M  V30 22835 C 2393.13 -1.91248 0.380667 0
M  V30 22836 O 2392.4 -1.8635 -0.604181 0
M  V30 22837 H 2390.98 -0.432403 0.609128 0
M  V30 22838 H 2393.65 -0.477129 1.8897 0
M  V30 22839 H 2392.74 -1.88212 2.48963 0
M  V30 22840 N 2393.04 -1.42436 -0.674508 0
M  V30 22841 C 2394.27 -1.4632 -1.46281 0
M  V30 22842 C 2394.69 -0.0746168 -1.88652 0
M  V30 22843 O 2394.04 0.910712 -1.58153 0
M  V30 22844 C 2394.09 -2.39055 -2.71173 0
M  V30 22845 O 2393.82 -3.72511 -2.3058 0
M  V30 22846 C 2395.32 -2.51962 -3.64733 0
M  V30 22847 H 2392.54 -0.497649 -0.450096 0
M  V30 22848 H 2395.08 -1.86954 -0.828759 0
M  V30 22849 H 2393.24 -2.01673 -3.30767 0
M  V30 22850 H 2393.65 -4.22178 -3.11233 0
M  V30 22851 H 2395.12 -3.2097 -4.4909 0
M  V30 22852 H 2395.6 -1.55759 -4.10653 0
M  V30 22853 H 2396.21 -2.90066 -3.11033 0
M  V30 22854 N 2394.52 0.910841 -1.28614 0
M  V30 22855 C 2395.76 1.67467 -1.17193 0
M  V30 22856 C 2396.13 1.90029 0.274408 0
M  V30 22857 O 2397.33 2.63891 0.511379 0
M  V30 22858 C 2395.6 2.99423 -1.95142 0
M  V30 22859 S 2397.16 3.90505 -2.00129 0
M  V30 22860 H 2393.97 0.575098 -0.41807 0
M  V30 22861 H 2396.58 1.08315 -1.62752 0
M  V30 22862 H 2395.28 2.80706 -2.99386 0
M  V30 22863 H 2394.81 3.63621 -1.50144 0
M  V30 22864 H 2396.83 4.83628 -1.1099 0
M  V30 22865 N 2396 1.10909 1.11969 0
M  V30 22866 C 2397.23 0.875586 1.87128 0
M  V30 22867 C 2397.64 -0.577811 1.80161 0
M  V30 22868 O 2396.98 -1.4104 1.17701 0
M  V30 22869 C 2397.04 1.25176 3.37003 0
M  V30 22870 C 2396.71 2.71319 3.67743 0
M  V30 22871 C 2397.7 3.69548 3.65691 0
M  V30 22872 C 2395.39 3.07828 3.96923 0
M  V30 22873 C 2397.38 5.02307 3.92386 0
M  V30 22874 C 2395.07 4.40773 4.23276 0
M  V30 22875 C 2396.07 5.37821 4.20995 0
M  V30 22876 O 2395.76 6.68372 4.46692 0
M  V30 22877 H 2395.49 0.313747 0.598781 0
M  V30 22878 H 2398.04 1.47866 1.42566 0
M  V30 22879 H 2396.27 0.591809 3.82145 0
M  V30 22880 H 2397.96 0.994946 3.93517 0
M  V30 22881 H 2398.73 3.42688 3.43205 0
M  V30 22882 H 2394.61 2.32909 3.97837 0
M  V30 22883 H 2398.15 5.78048 3.90521 0
M  V30 22884 H 2394.05 4.67369 4.45237 0
M  V30 22885 H 2394.82 6.74077 4.64287 0
M  V30 22886 N 2397.48 -1.29474 0.898573 0
M  V30 22887 C 2398.43 -2.29714 0.365294 0
M  V30 22888 C 2399.42 -1.60731 -0.534964 0
M  V30 22889 O 2400.63 -1.75082 -0.41789 0
M  V30 22890 H 2397 -0.745389 0.0994984 0
M  V30 22891 H 2398.97 -2.72136 1.22411 0
M  V30 22892 C 2397.72 -3.45471 -0.393099 0
M  V30 22893 H 2397.04 -3.98744 0.290402 0
M  V30 22894 H 2398.48 -4.17649 -0.731116 0
M  V30 22895 C 2396.94 -2.96733 -1.59534 0
M  V30 22896 O 2397.47 -2.97913 -2.69464 0
M  V30 22897 N 2395.68 -2.52577 -1.43712 0
M  V30 22898 H 2395.23 -2.51817 -0.542784 0
M  V30 22899 H 2395.18 -2.20327 -2.24284 0
M  V30 22900 N 2398.96 -0.660936 -1.43071 0
M  V30 22901 C 2400.18 -0.185458 -2.06067 0
M  V30 22902 C 2400.6 1.15195 -1.49584 0
M  V30 22903 O 2399.96 1.71275 -0.630164 0
M  V30 22904 C 2400.01 -0.0967158 -3.61371 0
M  V30 22905 O 2399.73 -1.38126 -4.15756 0
M  V30 22906 C 2401.23 0.403918 -4.41456 0
M  V30 22907 H 2398.45 -0.0934721 -0.664458 0
M  V30 22908 H 2400.99 -0.903762 -1.83446 0
M  V30 22909 H 2399.15 0.572191 -3.83151 0
M  V30 22910 H 2399.56 -1.24551 -5.09497 0
M  V30 22911 H 2401.04 0.414948 -5.50438 0
M  V30 22912 H 2401.51 1.43666 -4.15038 0
M  V30 22913 H 2402.12 -0.232766 -4.24663 0
M  V30 22914 N 2400.43 1.52351 -0.403352 0
M  V30 22915 C 2401.36 2.29761 0.416165 0
M  V30 22916 C 2402.35 1.3373 1.0512 0
M  V30 22917 O 2403.53 1.62634 1.06131 0
M  V30 22918 C 2400.66 3.11478 1.53619 0
M  V30 22919 C 2399.61 4.15509 1.02645 0
M  V30 22920 C 2398.94 4.85535 2.23963 0
M  V30 22921 C 2400.24 5.22232 0.0845382 0
M  V30 22922 H 2401.93 2.98517 -0.229754 0
M  V30 22923 H 2399.48 1.43564 -0.111938 0
M  V30 22924 H 2401.43 3.64397 2.11644 0
M  V30 22925 H 2400.16 2.40481 2.2099 0
M  V30 22926 H 2398.82 3.63592 0.468646 0
M  V30 22927 H 2398.46 4.11073 2.89876 0
M  V30 22928 H 2398.16 5.55859 1.90511 0
M  V30 22929 H 2399.69 5.41264 2.82605 0
M  V30 22930 H 2401.1 5.70425 0.573409 0
M  V30 22931 H 2399.5 5.99884 -0.160889 0
M  V30 22932 H 2400.57 4.77168 -0.862454 0
M  V30 22933 N 2401.91 0.133594 1.57033 0
M  V30 22934 C 2403.16 -0.519814 1.95301 0
M  V30 22935 C 2403.48 -1.66276 1.01869 0
M  V30 22936 O 2402.75 -1.95746 0.0776857 0
M  V30 22937 H 2401.33 -0.195019 0.721094 0
M  V30 22938 H 2403.99 0.205955 1.93809 0
M  V30 22939 H 2403.09 -0.904801 2.98697 0
M  V30 22940 N 2403.39 -1.56975 -0.140195 0
M  V30 22941 C 2404.34 -1.99733 -1.19204 0
M  V30 22942 C 2405.33 -0.890802 -1.44087 0
M  V30 22943 O 2406.54 -1.07599 -1.443 0
M  V30 22944 H 2402.91 -0.635905 -0.401409 0
M  V30 22945 H 2404.88 -2.87343 -0.804763 0
M  V30 22946 C 2403.63 -2.39972 -2.51612 0
M  V30 22947 H 2402.96 -3.24673 -2.33297 0
M  V30 22948 H 2404.4 -2.73706 -3.23822 0
M  V30 22949 C 2402.86 -1.25502 -3.12651 0
M  V30 22950 O 2403.39 -0.559441 -3.97785 0
M  V30 22951 N 2401.59 -1.01751 -2.72204 0
M  V30 22952 H 2401.14 -1.58492 -2.03071 0
M  V30 22953 H 2401.1 -0.253516 -3.13376 0
M  V30 22954 N 2404.87 0.409753 -1.5218 0
M  V30 22955 C 2406.1 1.17679 -1.69809 0
M  V30 22956 C 2406.51 1.84772 -0.406941 0
M  V30 22957 O 2405.85 1.72675 0.626833 0
M  V30 22958 C 2405.91 2.28285 -2.77716 0
M  V30 22959 C 2405.58 1.81333 -4.19485 0
M  V30 22960 C 2406.57 1.30145 -5.03347 0
M  V30 22961 C 2404.26 1.88186 -4.65716 0
M  V30 22962 C 2406.25 0.864305 -6.31513 0
M  V30 22963 C 2403.94 1.44083 -5.93871 0
M  V30 22964 C 2404.94 0.932904 -6.76599 0
M  V30 22965 O 2404.62 0.498239 -8.02355 0
M  V30 22966 H 2404.36 0.359664 -0.572379 0
M  V30 22967 H 2406.91 0.488276 -1.99512 0
M  V30 22968 H 2405.14 3.00498 -2.43388 0
M  V30 22969 H 2406.83 2.90046 -2.83951 0
M  V30 22970 H 2407.6 1.24224 -4.68821 0
M  V30 22971 H 2403.47 2.26664 -4.01428 0
M  V30 22972 H 2407.02 0.467164 -6.96034 0
M  V30 22973 H 2402.92 1.49683 -6.27905 0
M  V30 22974 H 2403.68 0.621604 -8.16136 0
M  V30 22975 N 2406.35 1.42792 0.666944 0
M  V30 22976 C 2407.57 1.47094 1.45503 0
M  V30 22977 C 2407.99 0.0846204 1.8861 0
M  V30 22978 O 2407.35 -0.902312 1.58633 0
M  V30 22979 C 2407.4 2.4049 2.69902 0
M  V30 22980 O 2407.12 3.73729 2.28601 0
M  V30 22981 C 2408.62 2.53892 3.63392 0
M  V30 22982 H 2405.84 0.500029 0.44745 0
M  V30 22983 H 2408.38 1.87391 0.818833 0
M  V30 22984 H 2406.54 2.03425 3.29693 0
M  V30 22985 H 2406.95 4.23822 3.0899 0
M  V30 22986 H 2408.43 3.23347 4.47382 0
M  V30 22987 H 2408.9 1.57935 4.09821 0
M  V30 22988 H 2409.51 2.91712 3.0949 0
M  V30 22989 N 2407.82 -0.904008 1.29095 0
M  V30 22990 C 2409.06 -1.66843 1.18079 0
M  V30 22991 C 2409.43 -1.90172 -0.264326 0
M  V30 22992 O 2410.63 -2.64158 -0.497377 0
M  V30 22993 C 2408.9 -2.98384 1.96727 0
M  V30 22994 S 2410.46 -3.89438 2.02197 0
M  V30 22995 H 2407.28 -0.572873 0.421114 0
M  V30 22996 H 2409.88 -1.0745 1.63324 0
M  V30 22997 H 2408.58 -2.79115 3.00871 0
M  V30 22998 H 2408.11 -3.6282 1.5207 0
M  V30 22999 H 2410.13 -4.83032 1.13553 0
M  V30 23000 N 2409.3 -1.11501 -1.11379 0
M  V30 23001 C 2410.55 -0.865544 -1.83402 0
M  V30 23002 C 2410.88 0.607296 -1.8446 0
M  V30 23003 O 2410.16 1.4484 -1.29814 0
M  V30 23004 C 2410.44 -1.42861 -3.30549 0
M  V30 23005 C 2410.29 -2.96912 -3.37881 0
M  V30 23006 C 2411.61 -1.08007 -4.26641 0
M  V30 23007 H 2408.73 -0.315882 -0.665874 0
M  V30 23008 H 2411.37 -1.38 -1.30598 0
M  V30 23009 H 2409.52 -0.991051 -3.75647 0
M  V30 23010 H 2411.19 -3.49276 -3.01337 0
M  V30 23011 H 2409.44 -3.32946 -2.78082 0
M  V30 23012 H 2410.11 -3.31397 -4.41452 0
M  V30 23013 H 2412.58 -1.45782 -3.89727 0
M  V30 23014 H 2411.46 -1.50081 -5.27984 0
M  V30 23015 H 2411.72 0.00907266 -4.42099 0
M  V30 23016 N 2410.78 1.28995 -0.905426 0
M  V30 23017 C 2412.02 1.97103 -0.541266 0
M  V30 23018 C 2412.39 1.69768 0.896811 0
M  V30 23019 O 2413.59 2.31378 1.36813 0
M  V30 23020 C 2411.86 3.47576 -0.832195 0
M  V30 23021 S 2413.42 4.3504 -0.573203 0
M  V30 23022 H 2410.23 0.682118 -0.200588 0
M  V30 23023 H 2412.84 1.56692 -1.16909 0
M  V30 23024 H 2411.54 3.64965 -1.87693 0
M  V30 23025 H 2411.07 3.92928 -0.192705 0
M  V30 23026 H 2413.09 4.92808 0.57921 0
M  V30 23027 N 2412.26 0.668514 1.42719 0
M  V30 23028 C 2413.67 0.266184 1.84793 0
M  V30 23029 C 2414.02 -1.1904 1.55961 0
M  V30 23030 O 2413.15 -1.91053 1.01625 0
M  V30 23031 C 2413.74 0.47633 3.35435 0
M  V30 23032 C 2412.3 0.128179 3.76182 0
M  V30 23033 C 2411.45 0.771824 2.66342 0
M  V30 23034 H 2414.4 0.871121 1.32654 0
M  V30 23035 H 2414.42 -0.273494 3.79516 0
M  V30 23036 H 2413.93 1.53653 3.56388 0
M  V30 23037 H 2412.03 -0.928827 3.60837 0
M  V30 23038 H 2412.15 0.564315 4.75765 0
M  V30 23039 H 2410.51 0.203696 2.53884 0
M  V30 23040 H 2411.29 1.83536 2.9012 0
M  V30 23041 N 2413.74 -1.52135 0.411426 0
M  V30 23042 C 2414.7 -2.25664 -0.401049 0
M  V30 23043 C 2415.7 -1.28119 -0.97171 0
M  V30 23044 O 2416.89 -1.52042 -0.850227 0
M  V30 23045 C 2414.02 -3.02866 -1.56477 0
M  V30 23046 H 2415.22 -2.98914 0.243003 0
M  V30 23047 H 2412.77 -1.55437 0.163995 0
M  V30 23048 H 2413.5 -2.33971 -2.24562 0
M  V30 23049 H 2413.29 -3.74485 -1.16204 0
M  V30 23050 H 2414.78 -3.58633 -2.13945 0
M  V30 23051 N 2415.22 -0.14192 -1.5696 0
M  V30 23052 C 2416.13 0.812866 -2.20067 0
M  V30 23053 C 2417.14 1.27554 -1.18346 0
M  V30 23054 O 2418.32 1.33379 -1.50904 0
M  V30 23055 C 2415.38 2.03647 -2.80586 0
M  V30 23056 C 2414.44 1.62352 -3.97417 0
M  V30 23057 C 2413.68 2.78879 -4.55041 0
M  V30 23058 O 2413.9 3.94952 -4.11545 0
M  V30 23059 O 2412.83 2.54644 -5.45381 0
M  V30 23060 H 2416.66 0.305693 -3.02158 0
M  V30 23061 H 2414.24 0.0848537 -1.49159 0
M  V30 23062 H 2416.13 2.75266 -3.19071 0
M  V30 23063 H 2414.8 2.53327 -2.01512 0
M  V30 23064 H 2413.71 0.877711 -3.63658 0
M  V30 23065 H 2415.04 1.17393 -4.77996 0
M  V30 23066 N 2416.69 1.57047 0.131868 0
M  V30 23067 C 2417.92 1.88069 0.855186 0
M  V30 23068 C 2418.33 0.729848 1.74556 0
M  V30 23069 O 2417.67 -0.308931 1.81084 0
M  V30 23070 C 2417.74 3.13967 1.75114 0
M  V30 23071 C 2417.4 4.45093 1.03639 0
M  V30 23072 C 2418.4 5.18486 0.383185 0
M  V30 23073 C 2416.08 4.91806 1.02139 0
M  V30 23074 C 2418.08 6.36805 -0.275459 0
M  V30 23075 C 2415.76 6.10045 0.35894 0
M  V30 23076 C 2416.76 6.82391 -0.288341 0
M  V30 23077 O 2416.45 7.98382 -0.940251 0
M  V30 23078 H 2416.18 0.627332 0.251853 0
M  V30 23079 H 2418.74 2.05021 0.124746 0
M  V30 23080 H 2416.97 2.93064 2.5229 0
M  V30 23081 H 2418.65 3.31113 2.34774 0
M  V30 23082 H 2419.42 4.83458 0.386477 0
M  V30 23083 H 2415.3 4.35408 1.51463 0
M  V30 23084 H 2418.84 6.93211 -0.78127 0
M  V30 23085 H 2414.74 6.44532 0.353367 0
M  V30 23086 H 2415.51 8.14143 -0.843433 0
M  V30 23087 N 2418.17 -0.401677 1.52395 0
M  V30 23088 C 2419.1 -1.49658 1.79234 0
M  V30 23089 C 2420.08 -1.57451 0.643682 0
M  V30 23090 O 2421.27 -1.72604 0.89002 0
M  V30 23091 C 2418.4 -2.87405 1.94976 0
M  V30 23092 C 2417.35 -2.94459 3.10609 0
M  V30 23093 C 2416.68 -4.34533 3.11585 0
M  V30 23094 C 2417.98 -2.65262 4.49926 0
M  V30 23095 H 2419.67 -1.27449 2.70919 0
M  V30 23096 H 2417.22 -0.611677 1.30363 0
M  V30 23097 H 2419.17 -3.63995 2.12334 0
M  V30 23098 H 2417.89 -3.10924 0.999687 0
M  V30 23099 H 2416.55 -2.20316 2.93013 0
M  V30 23100 H 2416.2 -4.55072 2.14285 0
M  V30 23101 H 2415.9 -4.40176 3.89255 0
M  V30 23102 H 2417.43 -5.13047 3.31082 0
M  V30 23103 H 2418.84 -3.31573 4.67689 0
M  V30 23104 H 2417.24 -2.82271 5.29569 0
M  V30 23105 H 2418.31 -1.60663 4.5751 0
M  V30 23106 N 2419.65 -1.43144 -0.659362 0
M  V30 23107 C 2420.58 -1.43787 -1.78488 0
M  V30 23108 C 2421.59 -0.334815 -1.5932 0
M  V30 23109 O 2422.78 -0.598872 -1.68154 0
M  V30 23110 C 2419.88 -1.22911 -3.15826 0
M  V30 23111 C 2419.06 -2.45941 -3.61707 0
M  V30 23112 C 2418.12 -2.2038 -4.77828 0
M  V30 23113 O 2417.14 -2.9369 -4.87581 0
M  V30 23114 N 2418.34 -1.21657 -5.67609 0
M  V30 23115 H 2421.11 -2.40807 -1.78416 0
M  V30 23116 H 2418.67 -1.38222 -0.842996 0
M  V30 23117 H 2420.66 -1.03704 -3.91188 0
M  V30 23118 H 2419.23 -0.343597 -3.10706 0
M  V30 23119 H 2418.45 -2.80614 -2.76856 0
M  V30 23120 H 2419.74 -3.27832 -3.89106 0
M  V30 23121 H 2419.14 -0.610548 -5.62396 0
M  V30 23122 H 2417.69 -1.08434 -6.42717 0
M  V30 23123 N 2421.13 0.897149 -1.29572 0
M  V30 23124 C 2422.37 1.65032 -1.17866 0
M  V30 23125 C 2422.71 1.92332 0.268695 0
M  V30 23126 O 2421.98 1.53557 1.19375 0
M  V30 23127 C 2422.26 2.99783 -1.99505 0
M  V30 23128 C 2422.12 2.79532 -3.52395 0
M  V30 23129 C 2423.44 4.00549 -1.82342 0
M  V30 23130 H 2420.56 0.598887 -0.429538 0
M  V30 23131 H 2423.2 1.03902 -1.59073 0
M  V30 23132 H 2421.35 3.51959 -1.64491 0
M  V30 23133 H 2423.02 2.34237 -3.97405 0
M  V30 23134 H 2421.26 2.14266 -3.7719 0
M  V30 23135 H 2421.93 3.75295 -4.04794 0
M  V30 23136 H 2424.41 3.57491 -2.1293 0
M  V30 23137 H 2423.29 4.92767 -2.4181 0
M  V30 23138 H 2423.55 4.35178 -0.779285 0
M  V30 23139 N 2422.61 1.1209 1.10786 0
M  V30 23140 C 2423.55 0.780625 2.1911 0
M  V30 23141 C 2424.55 -0.230931 1.67819 0
M  V30 23142 O 2425.75 -0.0895111 1.79777 0
M  V30 23143 H 2422.13 0.234591 0.714473 0
M  V30 23144 H 2424.1 1.70271 2.45052 0
M  V30 23145 C 2422.85 0.24753 3.46818 0
M  V30 23146 H 2422.17 1.01718 3.86644 0
M  V30 23147 H 2423.61 0.0477036 4.23973 0
M  V30 23148 C 2422.07 -1.02373 3.2097 0
M  V30 23149 O 2422.6 -2.1022 3.42302 0
M  V30 23150 N 2420.81 -0.949223 2.7466 0
M  V30 23151 H 2420.35 -0.071472 2.57501 0
M  V30 23152 H 2420.31 -1.80045 2.57743 0
M  V30 23153 N 2424.08 -1.28513 0.912254 0
M  V30 23154 C 2425.33 -1.94653 0.543557 0
M  V30 23155 C 2425.65 -1.72175 -0.91547 0
M  V30 23156 O 2424.92 -1.06061 -1.64706 0
M  V30 23157 H 2423.5 -0.720273 0.19803 0
M  V30 23158 H 2426.16 -1.56525 1.16129 0
M  V30 23159 H 2425.26 -3.0328 0.736738 0
M  V30 23160 N 2425.56 -0.676073 -1.42362 0
M  V30 23161 C 2426.81 -0.198473 -2.01123 0
M  V30 23162 C 2427.13 1.19963 -1.53733 0
M  V30 23163 O 2426.4 1.80576 -0.759549 0
M  V30 23164 H 2424.98 -0.0703852 -0.743677 0
M  V30 23165 H 2427.64 -0.872867 -1.74261 0
M  V30 23166 H 2426.74 -0.200741 -3.11454 0
M  V30 23167 N 2427.04 1.51915 -0.419488 0
M  V30 23168 C 2427.99 2.2886 0.415461 0
M  V30 23169 C 2428.98 1.33972 1.03672 0
M  V30 23170 O 2430.19 1.51389 0.973731 0
M  V30 23171 H 2426.56 0.736318 0.152773 0
M  V30 23172 H 2428.53 2.97312 -0.254584 0
M  V30 23173 C 2427.28 3.12998 1.51419 0
M  V30 23174 H 2426.61 3.85888 1.04549 0
M  V30 23175 H 2428.05 3.69924 2.07202 0
M  V30 23176 C 2426.51 2.27221 2.48741 0
M  V30 23177 O 2427.04 1.91956 3.52868 0
M  V30 23178 N 2425.24 1.90789 2.19198 0
M  V30 23179 H 2424.79 2.19667 1.34552 0
M  V30 23180 H 2424.75 1.33692 2.84559 0
M  V30 23181 N 2428.52 0.150242 1.56882 0
M  V30 23182 C 2429.47 -0.805274 2.18216 0
M  V30 23183 C 2430.46 -1.25294 1.14008 0
M  V30 23184 O 2431.67 -1.22104 1.32252 0
M  V30 23185 H 2428.04 -0.277901 0.698767 0
M  V30 23186 H 2430.01 -0.26381 2.97232 0
M  V30 23187 C 2428.76 -2.03304 2.82069 0
M  V30 23188 H 2428.08 -1.69756 3.61971 0
M  V30 23189 H 2429.52 -2.68097 3.28481 0
M  V30 23190 C 2427.98 -2.84312 1.80744 0
M  V30 23191 O 2428.51 -3.80764 1.27989 0
M  V30 23192 N 2426.72 -2.4891 1.49974 0
M  V30 23193 H 2426.27 -1.70539 1.93065 0
M  V30 23194 H 2426.22 -3.03403 0.82427 0
M  V30 23195 N 2430 -1.57115 -0.123538 0
M  V30 23196 C 2431.24 -1.86429 -0.838065 0
M  V30 23197 C 2431.6 -0.737643 -1.77265 0
M  V30 23198 O 2432.8 -0.912434 -2.5284 0
M  V30 23199 C 2431.07 -3.20965 -1.57214 0
M  V30 23200 S 2432.63 -3.719 -2.32886 0
M  V30 23201 H 2429.45 -0.653631 -0.279799 0
M  V30 23202 H 2432.05 -1.95261 -0.0966691 0
M  V30 23203 H 2430.76 -4.0091 -0.877451 0
M  V30 23204 H 2430.29 -3.15199 -2.35399 0
M  V30 23205 H 2432.3 -3.43038 -3.58524 0
M  V30 23206 N 2431.47 0.393589 -1.52606 0
M  V30 23207 C 2432.41 1.50199 -1.71801 0
M  V30 23208 C 2433.39 1.5244 -0.565769 0
M  V30 23209 O 2434.57 1.70914 -0.795017 0
M  V30 23210 C 2431.7 2.88682 -1.77145 0
M  V30 23211 C 2430.74 3.04287 -2.98851 0
M  V30 23212 S 2431.58 2.75968 -4.58914 0
M  V30 23213 C 2432.73 4.16652 -4.67067 0
M  V30 23214 H 2432.96 1.33691 -2.65545 0
M  V30 23215 H 2430.5 0.58617 -1.42841 0
M  V30 23216 H 2432.46 3.68486 -1.8091 0
M  V30 23217 H 2431.12 3.0252 -0.845022 0
M  V30 23218 H 2430.31 4.05641 -2.99118 0
M  V30 23219 H 2429.91 2.32369 -2.93054 0
M  V30 23220 H 2432.2 5.10515 -4.454 0
M  V30 23221 H 2433.15 4.21402 -5.69057 0
M  V30 23222 H 2433.55 4.02347 -3.95951 0
M  V30 23223 N 2432.95 1.43492 0.651762 0
M  V30 23224 C 2434.23 1.35664 1.40907 0
M  V30 23225 C 2434.61 0.00515444 2.11099 0
M  V30 23226 O 2433.96 -1.01147 2.04894 0
M  V30 23227 C 2434.17 2.54082 2.39256 0
M  V30 23228 C 2435.52 2.97233 3.03212 0
M  V30 23229 O 2436.54 2.54139 2.49583 0
M  V30 23230 O 2435.4 3.71892 4.00448 0
M  V30 23231 H 2432.49 0.536202 0.629616 0
M  V30 23232 H 2435.04 1.55544 0.678548 0
M  V30 23233 H 2433.81 3.4408 1.86346 0
M  V30 23234 H 2433.43 2.36309 3.19756 0
M  V30 23235 N 2434.43 -0.890264 1.30046 0
M  V30 23236 C 2435.36 -1.9977 1.10305 0
M  V30 23237 C 2436.34 -1.62595 0.0121917 0
M  V30 23238 O 2437.53 -1.87779 0.164723 0
M  V30 23239 C 2434.65 -3.31779 0.681183 0
M  V30 23240 C 2433.7 -3.8794 1.77213 0
M  V30 23241 S 2434.53 -4.15885 3.37342 0
M  V30 23242 C 2435.69 -5.50922 2.97046 0
M  V30 23243 H 2435.92 -2.1621 2.0406 0
M  V30 23244 H 2433.45 -1.03802 1.143 0
M  V30 23245 H 2435.41 -4.08086 0.444511 0
M  V30 23246 H 2434.07 -3.13205 -0.236926 0
M  V30 23247 H 2433.27 -4.83314 1.42911 0
M  V30 23248 H 2432.87 -3.18355 1.96281 0
M  V30 23249 H 2435.16 -6.31775 2.44677 0
M  V30 23250 H 2436.1 -5.90157 3.91306 0
M  V30 23251 H 2436.51 -5.13229 2.35066 0
M  V30 23252 N 2435.91 -1.12676 -1.1019 0
M  V30 23253 C 2437.32 -0.86334 -1.34233 0
M  V30 23254 C 2437.52 0.505243 -1.95063 0
M  V30 23255 O 2436.58 1.25341 -2.19194 0
M  V30 23256 C 2437.89 -1.98176 -2.26156 0
M  V30 23257 C 2439.44 -2.01294 -2.39687 0
M  V30 23258 C 2439.92 -3.12376 -3.3494 0
M  V30 23259 N 2441.41 -3.11835 -3.4251 0
M  V30 23260 C 2442.14 -3.94426 -4.16192 0
M  V30 23261 N 2441.64 -4.87012 -4.92738 0
M  V30 23262 N 2443.43 -3.82554 -4.11836 0
M  V30 23263 H 2435.58 -2.00854 -0.690762 0
M  V30 23264 H 2437.85 -0.874181 -0.366759 0
M  V30 23265 H 2437.55 -2.96808 -1.88675 0
M  V30 23266 H 2437.43 -1.88912 -3.26484 0
M  V30 23267 H 2439.81 -1.0328 -2.76437 0
M  V30 23268 H 2439.89 -2.14632 -1.39165 0
M  V30 23269 H 2439.54 -4.10624 -2.98915 0
M  V30 23270 H 2439.47 -2.96277 -4.35348 0
M  V30 23271 H 2441.96 -2.44764 -2.87922 0
M  V30 23272 H 2442.27 -5.46537 -5.46367 0
M  V30 23273 H 2440.62 -4.91024 -4.91854 0
M  V30 23274 H 2443.81 -3.09556 -3.51131 0
M  V30 23275 H 2443.98 -4.47151 -4.68999 0
M  V30 23276 N 2437.39 1.28028 -0.919057 0
M  V30 23277 C 2438.33 2.27128 -0.410045 0
M  V30 23278 C 2439.3 1.57804 0.518377 0
M  V30 23279 O 2440.49 1.85671 0.439419 0
M  V30 23280 C 2437.63 3.43431 0.338994 0
M  V30 23281 C 2436.74 4.27491 -0.622543 0
M  V30 23282 C 2435.88 5.31001 0.145474 0
M  V30 23283 C 2434.92 6.06726 -0.809333 0
M  V30 23284 N 2434.05 7.0206 -0.0744962 0
M  V30 23285 H 2438.89 2.70045 -1.26015 0
M  V30 23286 H 2436.43 1.32799 -0.632687 0
M  V30 23287 H 2438.39 4.09661 0.789514 0
M  V30 23288 H 2437.02 3.0149 1.15341 0
M  V30 23289 H 2436.07 3.61255 -1.19159 0
M  V30 23290 H 2437.38 4.8011 -1.35261 0
M  V30 23291 H 2436.54 6.0314 0.656311 0
M  V30 23292 H 2435.27 4.79162 0.908559 0
M  V30 23293 H 2434.28 5.33433 -1.3315 0
M  V30 23294 H 2435.5 6.60654 -1.57206 0
M  V30 23295 H 2433.45 6.52564 0.670501 0
M  V30 23296 H 2433.37 7.52327 -0.744289 0
M  V30 23297 H 2434.64 7.78389 0.415972 0
M  V30 23298 N 2438.86 0.683613 1.42002 0
M  V30 23299 C 2440.09 0.216683 2.06265 0
M  V30 23300 C 2440.51 -1.12081 1.51061 0
M  V30 23301 O 2439.87 -1.69903 0.632668 0
M  V30 23302 C 2439.92 0.171822 3.6019 0
M  V30 23303 O 2439.02 -0.856998 4.03397 0
M  V30 23304 H 2438.37 0.108845 0.655018 0
M  V30 23305 H 2440.9 0.935109 1.8198 0
M  V30 23306 H 2440.91 -0.00135858 4.08 0
M  V30 23307 H 2439.58 1.14803 3.99741 0
M  V30 23308 H 2438.16 -0.654143 3.67118 0
M  V30 23309 N 2440.34 -1.5169 0.427538 0
M  V30 23310 C 2441.59 -2.02299 -0.142404 0
M  V30 23311 C 2441.92 -1.31164 -1.43211 0
M  V30 23312 O 2441.2 -0.423545 -1.89832 0
M  V30 23313 C 2441.48 -3.58181 -0.371238 0
M  V30 23314 C 2441.33 -4.39944 0.936436 0
M  V30 23315 C 2442.65 -4.24935 -1.14534 0
M  V30 23316 H 2439.77 -0.735283 -0.0502808 0
M  V30 23317 H 2442.41 -1.81417 0.564616 0
M  V30 23318 H 2440.56 -3.76106 -0.973493 0
M  V30 23319 H 2442.24 -4.33692 1.57192 0
M  V30 23320 H 2440.48 -4.0542 1.54327 0
M  V30 23321 H 2441.15 -5.47145 0.730484 0
M  V30 23322 H 2443.63 -4.11222 -0.63529 0
M  V30 23323 H 2442.5 -5.33905 -1.27421 0
M  V30 23324 H 2442.76 -3.85131 -2.17086 0
M  V30 23325 N 2441.82 -0.15856 -1.568 0
M  V30 23326 C 2443.06 0.492255 -1.98384 0
M  V30 23327 C 2443.43 1.61273 -1.04187 0
M  V30 23328 O 2444.63 2.32521 -1.3486 0
M  V30 23329 C 2442.9 0.974706 -3.43852 0
M  V30 23330 S 2444.46 1.6285 -4.07462 0
M  V30 23331 H 2441.27 0.158781 -0.693044 0
M  V30 23332 H 2443.88 -0.253008 -1.93856 0
M  V30 23333 H 2442.58 0.148616 -4.10131 0
M  V30 23334 H 2442.11 1.75431 -3.52118 0
M  V30 23335 H 2444.13 2.9162 -4.01463 0
M  V30 23336 N 2443.3 1.57178 0.115204 0
M  V30 23337 C 2444.55 1.85052 0.822319 0
M  V30 23338 C 2444.87 0.744199 1.797 0
M  V30 23339 O 2444.13 -0.264106 1.9391 0
M  V30 23340 C 2444.43 3.19426 1.60319 0
M  V30 23341 C 2444.09 4.44234 0.772458 0
M  V30 23342 C 2442.76 4.78122 0.543384 0
M  V30 23343 C 2445.11 5.2084 0.193654 0
M  V30 23344 C 2442.44 5.86057 -0.274686 0
M  V30 23345 C 2444.79 6.29636 -0.611628 0
M  V30 23346 C 2443.45 6.62053 -0.850983 0
M  V30 23347 H 2442.72 0.677153 0.300908 0
M  V30 23348 H 2445.37 1.91313 0.0845466 0
M  V30 23349 H 2443.67 3.08757 2.41197 0
M  V30 23350 H 2445.37 3.38215 2.15434 0
M  V30 23351 H 2441.96 4.17685 0.961096 0
M  V30 23352 H 2446.15 4.95008 0.357839 0
M  V30 23353 H 2441.4 6.09596 -0.469313 0
M  V30 23354 H 2445.58 6.88176 -1.06709 0
M  V30 23355 H 2443.2 7.45521 -1.4867 0
M  V30 23356 N 2444.78 -0.38549 1.52813 0
M  V30 23357 C 2446.19 -0.725804 1.42142 0
M  V30 23358 C 2446.39 -1.94 0.544624 0
M  V30 23359 O 2445.45 -2.52493 0.0194136 0
M  V30 23360 C 2446.76 -0.957618 2.85044 0
M  V30 23361 C 2448.31 -1.05887 2.94545 0
M  V30 23362 C 2448.79 -1.32329 4.38467 0
M  V30 23363 N 2450.28 -1.39143 4.41807 0
M  V30 23364 C 2451.01 -1.61275 5.50253 0
M  V30 23365 N 2450.51 -1.80854 6.68778 0
M  V30 23366 N 2452.3 -1.63483 5.37801 0
M  V30 23367 H 2444.45 0.413419 2.08338 0
M  V30 23368 H 2446.71 0.122792 0.940014 0
M  V30 23369 H 2446.42 -0.137507 3.51431 0
M  V30 23370 H 2446.29 -1.87131 3.27509 0
M  V30 23371 H 2448.68 -1.86955 2.28324 0
M  V30 23372 H 2448.76 -0.123012 2.55504 0
M  V30 23373 H 2448.41 -0.517704 5.05255 0
M  V30 23374 H 2448.34 -2.27205 4.75063 0
M  V30 23375 H 2450.83 -1.25707 3.56379 0
M  V30 23376 H 2451.14 -1.97258 7.47201 0
M  V30 23377 H 2449.49 -1.78072 6.718 0
M  V30 23378 H 2452.68 -1.47741 4.44174 0
M  V30 23379 H 2452.85 -1.80391 6.22385 0
M  V30 23380 N 2446.26 -1.43835 -0.644143 0
M  V30 23381 C 2447.21 -1.46138 -1.75007 0
M  V30 23382 C 2448.19 -0.328713 -1.57506 0
M  V30 23383 O 2449.38 -0.573129 -1.67464 0
M  V30 23384 C 2446.51 -1.39591 -3.13639 0
M  V30 23385 C 2445.6 -2.57922 -3.36656 0
M  V30 23386 N 2445.99 -3.83233 -3.30101 0
M  V30 23387 C 2444.29 -2.5284 -3.67407 0
M  V30 23388 C 2444.99 -4.62006 -3.53448 0
M  V30 23389 N 2443.96 -3.92876 -3.75698 0
M  V30 23390 H 2447.76 -2.40886 -1.68378 0
M  V30 23391 H 2445.28 -1.38615 -0.846145 0
M  V30 23392 H 2447.28 -1.39324 -3.92931 0
M  V30 23393 H 2445.94 -0.458706 -3.21444 0
M  V30 23394 H 2446.95 -4.1539 -3.09309 0
M  V30 23395 H 2443.62 -1.67852 -3.82272 0
M  V30 23396 H 2445.01 -5.7103 -3.54083 0
M  V30 23397 N 2447.73 0.883355 -1.30517 0
M  V30 23398 C 2448.96 1.66597 -1.22184 0
M  V30 23399 C 2449.37 1.87946 0.217474 0
M  V30 23400 O 2448.71 1.42817 1.15538 0
M  V30 23401 C 2448.78 3.06332 -1.88152 0
M  V30 23402 C 2448.44 3.08148 -3.37482 0
M  V30 23403 C 2449.44 2.87086 -4.33448 0
M  V30 23404 C 2447.12 3.29694 -3.78955 0
M  V30 23405 C 2449.12 2.8753 -5.68863 0
M  V30 23406 C 2446.8 3.29767 -5.14487 0
M  V30 23407 C 2447.8 3.08709 -6.09252 0
M  V30 23408 O 2447.49 3.08601 -7.42307 0
M  V30 23409 H 2447.22 0.526572 -0.423907 0
M  V30 23410 H 2449.78 1.11185 -1.72705 0
M  V30 23411 H 2448.01 3.63414 -1.32163 0
M  V30 23412 H 2449.69 3.66753 -1.73917 0
M  V30 23413 H 2450.46 2.70236 -4.02738 0
M  V30 23414 H 2446.34 3.45119 -3.05637 0
M  V30 23415 H 2449.88 2.71012 -6.42805 0
M  V30 23416 H 2445.78 3.46153 -5.44838 0
M  V30 23417 H 2446.55 3.24756 -7.51316 0
M  V30 23418 N 2449.21 1.13259 1.09591 0
M  V30 23419 C 2450.16 0.803821 2.18269 0
M  V30 23420 C 2451.15 -0.213119 1.68054 0
M  V30 23421 O 2452.36 -0.0704383 1.79862 0
M  V30 23422 H 2448.73 0.242156 0.711944 0
M  V30 23423 H 2450.71 1.7286 2.43232 0
M  V30 23424 C 2449.45 0.284301 3.46536 0
M  V30 23425 H 2448.78 1.05813 3.85543 0
M  V30 23426 H 2450.22 0.092669 4.23899 0
M  V30 23427 C 2448.68 -0.989627 3.22037 0
M  V30 23428 O 2449.21 -2.06577 3.44512 0
M  V30 23429 N 2447.41 -0.920038 2.75651 0
M  V30 23430 H 2446.96 -0.0441566 2.57562 0
M  V30 23431 H 2446.92 -1.77301 2.59638 0
M  V30 23432 N 2450.69 -1.27539 0.925834 0
M  V30 23433 C 2451.94 -1.94066 0.564172 0
M  V30 23434 C 2452.26 -1.73136 -0.897157 0
M  V30 23435 O 2451.53 -1.07802 -1.63571 0
M  V30 23436 H 2450.11 -0.718132 0.205658 0
M  V30 23437 H 2452.77 -1.55285 1.17782 0
M  V30 23438 H 2451.87 -3.02481 0.768863 0
M  V30 23439 N 2452.17 -0.691135 -1.41637 0
M  V30 23440 C 2453.4 -0.229127 -2.05627 0
M  V30 23441 C 2453.81 1.11996 -1.51994 0
M  V30 23442 O 2453.17 1.699 -0.666352 0
M  V30 23443 C 2453.22 -0.173346 -3.61084 0
M  V30 23444 O 2452.94 -1.46914 -4.12732 0
M  V30 23445 C 2454.44 0.310188 -4.42213 0
M  V30 23446 H 2451.66 -0.107545 -0.662325 0
M  V30 23447 H 2454.2 -0.94247 -1.81488 0
M  V30 23448 H 2452.36 0.490791 -3.84279 0
M  V30 23449 H 2452.77 -1.3533 -5.0674 0
M  V30 23450 H 2454.25 0.298099 -5.51194 0
M  V30 23451 H 2454.72 1.3483 -4.17992 0
M  V30 23452 H 2455.33 -0.322791 -4.24073 0
M  V30 23453 N 2453.65 1.51461 -0.435577 0
M  V30 23454 C 2454.89 2.03982 0.130672 0
M  V30 23455 C 2455.25 1.31271 1.40114 0
M  V30 23456 O 2456.45 1.74155 2.04752 0
M  V30 23457 C 2454.72 3.55721 0.34604 0
M  V30 23458 S 2456.28 4.29968 0.875947 0
M  V30 23459 H 2453.1 0.710249 0.0326756 0
M  V30 23460 H 2455.7 1.86239 -0.594577 0
M  V30 23461 H 2454.4 4.06209 -0.584982 0
M  V30 23462 H 2453.94 3.77754 1.09842 0
M  V30 23463 H 2455.95 4.47023 2.15371 0
M  V30 23464 N 2455.12 0.166873 1.56714 0
M  V30 23465 C 2456.06 -0.796499 2.14915 0
M  V30 23466 C 2457.07 -1.19686 1.10359 0
M  V30 23467 O 2458.26 -1.13748 1.37563 0
M  V30 23468 C 2455.36 -2.08298 2.6733 0
M  V30 23469 C 2454.53 -1.84689 3.96496 0
M  V30 23470 C 2453.59 -2.97513 4.34019 0
M  V30 23471 O 2452.62 -2.68341 5.01978 0
M  V30 23472 N 2453.82 -4.25189 3.95215 0
M  V30 23473 H 2456.58 -0.298953 2.98205 0
M  V30 23474 H 2454.14 -0.0160555 1.61892 0
M  V30 23475 H 2456.14 -2.82862 2.89433 0
M  V30 23476 H 2454.71 -2.49256 1.88653 0
M  V30 23477 H 2453.93 -0.940535 3.82815 0
M  V30 23478 H 2455.21 -1.66277 4.80863 0
M  V30 23479 H 2454.61 -4.51752 3.40495 0
M  V30 23480 H 2453.17 -4.96469 4.22329 0
M  V30 23481 N 2456.6 -1.57237 -0.106866 0
M  V30 23482 C 2457.55 -2.02217 -1.1494 0
M  V30 23483 C 2458.54 -0.921165 -1.42165 0
M  V30 23484 O 2459.75 -1.10636 -1.41985 0
M  V30 23485 H 2456.13 -0.644276 -0.38783 0
M  V30 23486 H 2458.1 -2.88986 -0.743632 0
M  V30 23487 C 2456.85 -2.45255 -2.46466 0
M  V30 23488 H 2456.17 -3.29549 -2.26358 0
M  V30 23489 H 2457.61 -2.80514 -3.17944 0
M  V30 23490 C 2456.07 -1.32105 -3.09919 0
M  V30 23491 O 2456.6 -0.643691 -3.96509 0
M  V30 23492 N 2454.8 -1.07502 -2.69985 0
M  V30 23493 H 2454.35 -1.62764 -1.99664 0
M  V30 23494 H 2454.31 -0.319931 -3.12768 0
M  V30 23495 N 2458.08 0.377381 -1.53015 0
M  V30 23496 C 2458.99 1.48571 -1.81559 0
M  V30 23497 C 2460.01 1.59161 -0.70313 0
M  V30 23498 O 2461.18 1.75278 -0.991951 0
M  V30 23499 C 2458.25 2.83975 -1.98895 0
M  V30 23500 C 2457.31 2.83011 -3.22806 0
M  V30 23501 C 2456.54 4.11956 -3.39305 0
M  V30 23502 O 2456.76 5.07515 -2.60354 0
M  V30 23503 O 2455.7 4.18487 -4.32611 0
M  V30 23504 H 2459.52 1.27377 -2.75697 0
M  V30 23505 H 2457.11 0.566349 -1.38249 0
M  V30 23506 H 2458.99 3.64226 -2.11937 0
M  V30 23507 H 2457.67 3.05171 -1.07947 0
M  V30 23508 H 2456.57 2.015 -3.15196 0
M  V30 23509 H 2457.91 2.66768 -4.13637 0
M  V30 23510 N 2459.56 1.44175 0.636506 0
M  V30 23511 C 2460.49 1.53447 1.76 0
M  V30 23512 C 2461.47 0.38787 1.65619 0
M  V30 23513 O 2462.65 0.607289 1.8446 0
M  V30 23514 C 2459.78 1.47315 3.14508 0
M  V30 23515 C 2458.74 2.60397 3.39673 0
M  V30 23516 C 2458.06 2.39317 4.78154 0
M  V30 23517 C 2459.36 4.02573 3.32765 0
M  V30 23518 H 2461.06 2.47486 1.68497 0
M  V30 23519 H 2458.6 1.19112 0.809216 0
M  V30 23520 H 2460.56 1.52404 3.92875 0
M  V30 23521 H 2459.28 0.497906 3.22782 0
M  V30 23522 H 2457.94 2.54689 2.63684 0
M  V30 23523 H 2457.59 1.39997 4.83125 0
M  V30 23524 H 2457.29 3.1513 4.9595 0
M  V30 23525 H 2458.81 2.46215 5.58758 0
M  V30 23526 H 2460.23 4.09679 4.01044 0
M  V30 23527 H 2458.62 4.78547 3.62096 0
M  V30 23528 H 2459.69 4.26524 2.30662 0
M  V30 23529 N 2461.04 -0.876421 1.30983 0
M  V30 23530 C 2462 -1.96457 1.18057 0
M  V30 23531 C 2463 -1.60427 0.109428 0
M  V30 23532 O 2464.19 -1.70477 0.358203 0
M  V30 23533 C 2461.32 -3.31121 0.810675 0
M  V30 23534 H 2462.51 -2.0935 2.14739 0
M  V30 23535 H 2460.07 -1.0639 1.14502 0
M  V30 23536 H 2460.8 -3.23928 -0.155265 0
M  V30 23537 H 2460.59 -3.58642 1.58487 0
M  V30 23538 H 2462.08 -4.1092 0.743948 0
M  V30 23539 N 2462.51 -1.13839 -1.08989 0
M  V30 23540 C 2463.76 -0.902914 -1.81256 0
M  V30 23541 C 2464.09 0.57077 -1.85937 0
M  V30 23542 O 2463.34 1.43862 -1.32673 0
M  V30 23543 C 2463.64 -1.44153 -3.27039 0
M  V30 23544 C 2463.31 -2.93282 -3.42485 0
M  V30 23545 C 2461.97 -3.33998 -3.46408 0
M  V30 23546 C 2464.32 -3.89206 -3.46653 0
M  V30 23547 C 2461.65 -4.69313 -3.52083 0
M  V30 23548 C 2464 -5.2437 -3.53863 0
M  V30 23549 C 2462.67 -5.64606 -3.56056 0
M  V30 23550 H 2461.94 -0.3304 -0.663262 0
M  V30 23551 H 2464.58 -1.42107 -1.28366 0
M  V30 23552 H 2462.89 -0.844165 -3.82598 0
M  V30 23553 H 2464.59 -1.23535 -3.81497 0
M  V30 23554 H 2461.18 -2.608 -3.40119 0
M  V30 23555 H 2465.36 -3.58834 -3.42859 0
M  V30 23556 H 2460.62 -4.99856 -3.52071 0
M  V30 23557 H 2464.79 -5.9851 -3.56033 0
M  V30 23558 H 2462.42 -6.69444 -3.60206 0
M  V30 23559 N 2463.99 1.27046 -0.932584 0
M  V30 23560 C 2464.94 2.28664 -0.42607 0
M  V30 23561 C 2465.93 1.62093 0.492161 0
M  V30 23562 O 2467.14 1.76128 0.371324 0
M  V30 23563 H 2463.52 0.742488 -0.119226 0
M  V30 23564 H 2465.49 2.68795 -1.29583 0
M  V30 23565 C 2464.24 3.46392 0.301365 0
M  V30 23566 H 2463.56 3.97834 -0.39602 0
M  V30 23567 H 2465 4.19441 0.620127 0
M  V30 23568 C 2463.46 3.00859 1.5161 0
M  V30 23569 O 2463.99 3.04952 2.61471 0
M  V30 23570 N 2462.19 2.56299 1.36965 0
M  V30 23571 H 2461.74 2.53167 0.475828 0
M  V30 23572 H 2461.7 2.26196 2.18364 0
M  V30 23573 N 2465.47 0.698636 1.41269 0
M  V30 23574 C 2466.72 0.231243 2.01477 0
M  V30 23575 C 2467.05 -1.1671 1.55217 0
M  V30 23576 O 2466.32 -1.78837 0.764703 0
M  V30 23577 C 2466.61 0.292344 3.58911 0
M  V30 23578 C 2466.46 1.72785 4.15289 0
M  V30 23579 C 2467.78 -0.346117 4.38737 0
M  V30 23580 H 2464.9 0.0855006 0.732024 0
M  V30 23581 H 2467.54 0.887936 1.67975 0
M  V30 23582 H 2465.69 -0.266792 3.87583 0
M  V30 23583 H 2467.36 2.34107 3.97482 0
M  V30 23584 H 2465.61 2.26103 3.70216 0
M  V30 23585 H 2466.28 1.72211 5.24449 0
M  V30 23586 H 2468.75 0.130108 4.15897 0
M  V30 23587 H 2467.63 -0.272836 5.48222 0
M  V30 23588 H 2467.89 -1.42727 4.18427 0
M  V30 23589 N 2466.95 -1.51228 0.443603 0
M  V30 23590 C 2468.18 -2.06556 -0.119253 0
M  V30 23591 C 2468.59 -1.3104 -1.35919 0
M  V30 23592 O 2467.95 -0.371736 -1.78674 0
M  V30 23593 C 2468 -3.58871 -0.435165 0
M  V30 23594 O 2467.72 -4.31535 0.755562 0
M  V30 23595 C 2469.22 -4.30734 -1.04801 0
M  V30 23596 H 2466.44 -0.67098 -0.0051466 0
M  V30 23597 H 2468.99 -1.94732 0.624487 0
M  V30 23598 H 2467.14 -3.7059 -1.12881 0
M  V30 23599 H 2467.55 -5.22266 0.483582 0
M  V30 23600 H 2469.03 -5.38372 -1.21901 0
M  V30 23601 H 2469.51 -3.89432 -2.03074 0
M  V30 23602 H 2470.11 -4.23475 -0.393562 0
M  V30 23603 N 2468.43 -0.175182 -1.56623 0
M  V30 23604 C 2469.84 0.180938 -1.58571 0
M  V30 23605 C 2470.04 1.62558 -1.19068 0
M  V30 23606 O 2469.1 2.3576 -0.904086 0
M  V30 23607 C 2470.41 -0.103379 -3.00522 0
M  V30 23608 C 2471.96 -0.0418976 -3.12972 0
M  V30 23609 C 2472.43 -0.299255 -4.57021 0
M  V30 23610 N 2473.93 -0.247167 -4.6254 0
M  V30 23611 C 2474.66 -0.420419 -5.71857 0
M  V30 23612 N 2474.16 -0.652937 -6.89716 0
M  V30 23613 N 2475.95 -0.356055 -5.60971 0
M  V30 23614 H 2468.1 -1.11812 -1.80588 0
M  V30 23615 H 2470.36 -0.444803 -0.83717 0
M  V30 23616 H 2470.07 -1.10428 -3.33914 0
M  V30 23617 H 2469.94 0.603234 -3.72345 0
M  V30 23618 H 2472.33 0.949587 -2.79404 0
M  V30 23619 H 2472.41 -0.781281 -2.43577 0
M  V30 23620 H 2472.06 -1.28797 -4.91298 0
M  V30 23621 H 2471.99 0.460784 -5.2458 0
M  V30 23622 H 2474.48 -0.0732559 -3.77829 0
M  V30 23623 H 2474.79 -0.774482 -7.68909 0
M  V30 23624 H 2473.13 -0.689598 -6.9157 0
M  V30 23625 H 2476.33 -0.174964 -4.67773 0
M  V30 23626 H 2476.5 -0.494501 -6.4611 0
M  V30 23627 N 2469.91 1.57292 0.0985263 0
M  V30 23628 C 2470.85 2.01816 1.11977 0
M  V30 23629 C 2471.82 0.893865 1.39997 0
M  V30 23630 O 2473.01 1.15961 1.51518 0
M  V30 23631 C 2470.15 2.44471 2.43573 0
M  V30 23632 C 2469.26 3.70406 2.22313 0
M  V30 23633 C 2468.4 4.01955 3.47283 0
M  V30 23634 C 2467.43 5.2101 3.2127 0
M  V30 23635 N 2466.57 5.48328 4.38498 0
M  V30 23636 H 2471.41 2.88842 0.733098 0
M  V30 23637 H 2468.95 1.42864 0.350457 0
M  V30 23638 H 2470.91 2.67245 3.20368 0
M  V30 23639 H 2469.54 1.6046 2.80094 0
M  V30 23640 H 2468.59 3.55129 1.36337 0
M  V30 23641 H 2469.9 4.57349 1.99081 0
M  V30 23642 H 2469.05 4.25487 4.32488 0
M  V30 23643 H 2467.79 3.13528 3.73566 0
M  V30 23644 H 2466.8 4.97302 2.34459 0
M  V30 23645 H 2468.02 6.11033 2.96337 0
M  V30 23646 H 2465.97 4.62859 4.64863 0
M  V30 23647 H 2465.89 6.29635 4.18444 0
M  V30 23648 H 2467.15 5.76394 5.24777 0
M  V30 23649 N 2471.38 -0.369261 1.53213 0
M  V30 23650 C 2472.32 -1.47447 1.74169 0
M  V30 23651 C 2473.29 -1.5152 0.58995 0
M  V30 23652 O 2474.48 -1.69628 0.822108 0
M  V30 23653 C 2471.61 -2.85827 1.81716 0
M  V30 23654 C 2470.65 -2.99494 3.03654 0
M  V30 23655 S 2471.48 -2.68632 4.63246 0
M  V30 23656 C 2472.64 -4.09169 4.73637 0
M  V30 23657 H 2472.87 -1.29449 2.67638 0
M  V30 23658 H 2470.41 -0.563371 1.43755 0
M  V30 23659 H 2472.36 -3.65561 1.86749 0
M  V30 23660 H 2471.03 -3.01137 0.893043 0
M  V30 23661 H 2470.22 -4.00831 3.05533 0
M  V30 23662 H 2469.82 -2.27678 2.96714 0
M  V30 23663 H 2472.11 -5.03364 4.53465 0
M  V30 23664 H 2473.06 -4.12296 5.75689 0
M  V30 23665 H 2473.46 -3.95997 4.02301 0
M  V30 23666 N 2472.86 -1.4451 -0.628851 0
M  V30 23667 C 2474.1 -1.48936 -1.3999 0
M  V30 23668 C 2474.47 -0.119637 -1.91627 0
M  V30 23669 O 2475.67 -0.0385755 -2.68772 0
M  V30 23670 C 2473.94 -2.52202 -2.53237 0
M  V30 23671 S 2475.5 -2.75693 -3.41378 0
M  V30 23672 H 2472.31 -0.526752 -0.477549 0
M  V30 23673 H 2474.92 -1.81449 -0.727772 0
M  V30 23674 H 2473.62 -3.50423 -2.13616 0
M  V30 23675 H 2473.15 -2.2127 -3.25274 0
M  V30 23676 H 2475.17 -2.07461 -4.50749 0
M  V30 23677 N 2474.34 0.869463 -1.31446 0
M  V30 23678 C 2475.58 1.63654 -1.22461 0
M  V30 23679 C 2475.94 1.90806 0.213813 0
M  V30 23680 O 2477.14 2.65384 0.427165 0
M  V30 23681 C 2475.42 2.93063 -2.04569 0
M  V30 23682 S 2476.97 3.8394 -2.12451 0
M  V30 23683 H 2473.79 0.561507 -0.436155 0
M  V30 23684 H 2476.39 1.03082 -1.66116 0
M  V30 23685 H 2475.1 2.7104 -3.08165 0
M  V30 23686 H 2474.63 3.5866 -1.61636 0
M  V30 23687 H 2476.64 4.79852 -1.2632 0
M  V30 23688 N 2475.82 1.14415 1.08383 0
M  V30 23689 C 2477.06 0.9229 1.82379 0
M  V30 23690 C 2477.42 -0.54081 1.84226 0
M  V30 23691 O 2478.62 -0.880014 2.53987 0
M  V30 23692 C 2476.89 1.50763 3.24045 0
M  V30 23693 S 2478.45 1.42798 4.14915 0
M  V30 23694 H 2475.27 0.332395 0.628518 0
M  V30 23695 H 2477.87 1.45769 1.30276 0
M  V30 23696 H 2476.58 2.56607 3.20283 0
M  V30 23697 H 2476.11 0.971245 3.81222 0
M  V30 23698 H 2478.12 0.413669 4.94473 0
M  V30 23699 N 2477.3 -1.26549 0.939309 0
M  V30 23700 C 2478.52 -1.9847 0.602043 0
M  V30 23701 C 2478.95 -1.69498 -0.815594 0
M  V30 23702 O 2478.3 -0.941933 -1.54911 0
M  V30 23703 C 2478.35 -3.50476 0.848468 0
M  V30 23704 O 2477.46 -4.12322 -0.0803284 0
M  V30 23705 H 2476.8 -0.622708 0.230501 0
M  V30 23706 H 2479.33 -1.61064 1.26173 0
M  V30 23707 H 2479.34 -4.00695 0.768623 0
M  V30 23708 H 2478.01 -3.70894 1.88178 0
M  V30 23709 H 2476.59 -3.72866 0.0504164 0
M  V30 23710 N 2478.77 -0.706118 -1.40896 0
M  V30 23711 C 2480 -0.250559 -2.05075 0
M  V30 23712 C 2480.41 1.10919 -1.53277 0
M  V30 23713 O 2479.75 1.70638 -0.680311 0
M  V30 23714 C 2479.82 -0.142242 -3.59218 0
M  V30 23715 C 2479.48 -1.43573 -4.33861 0
M  V30 23716 C 2480.48 -2.37575 -4.62444 0
M  V30 23717 C 2478.16 -1.69203 -4.72943 0
M  V30 23718 C 2480.16 -3.55459 -5.29082 0
M  V30 23719 C 2477.84 -2.87371 -5.39315 0
M  V30 23720 C 2478.84 -3.80322 -5.67313 0
M  V30 23721 O 2478.53 -4.96419 -6.32316 0
M  V30 23722 H 2478.26 -0.112086 -0.666643 0
M  V30 23723 H 2480.82 -0.962271 -1.81465 0
M  V30 23724 H 2479.05 0.625332 -3.8161 0
M  V30 23725 H 2480.73 0.277513 -4.0495 0
M  V30 23726 H 2481.5 -2.19034 -4.32723 0
M  V30 23727 H 2477.38 -0.977121 -4.50526 0
M  V30 23728 H 2480.92 -4.28028 -5.50852 0
M  V30 23729 H 2476.82 -3.05824 -5.68456 0
M  V30 23730 H 2477.59 -4.96372 -6.50813 0
M  V30 23731 N 2480.25 1.50991 -0.451617 0
M  V30 23732 C 2481.2 2.29689 0.366823 0
M  V30 23733 C 2482.19 1.36141 1.00807 0
M  V30 23734 O 2483.4 1.5342 0.9414 0
M  V30 23735 H 2479.77 0.739393 0.13712 0
M  V30 23736 H 2481.75 2.96705 -0.317591 0
M  V30 23737 C 2480.49 3.16139 1.44746 0
M  V30 23738 H 2479.82 3.88019 0.963405 0
M  V30 23739 H 2481.26 3.74235 1.99308 0
M  V30 23740 C 2479.72 2.32446 2.43865 0
M  V30 23741 O 2480.25 1.99398 3.48717 0
M  V30 23742 N 2478.45 1.95396 2.15102 0
M  V30 23743 H 2478 2.22471 1.29862 0
M  V30 23744 H 2477.96 1.39698 2.81659 0
M  V30 23745 N 2481.73 0.183486 1.56528 0
M  V30 23746 C 2482.98 -0.458477 1.9642 0
M  V30 23747 C 2483.29 -1.6356 1.07273 0
M  V30 23748 O 2484.5 -2.3446 1.36897 0
M  V30 23749 C 2482.95 -0.86706 3.49299 0
M  V30 23750 C 2482.56 0.285136 4.47092 0
M  V30 23751 C 2484.31 -1.47676 3.97985 0
M  V30 23752 C 2482.21 -0.143758 5.91225 0
M  V30 23753 H 2481.14 -0.175058 0.733397 0
M  V30 23754 H 2483.79 0.273656 1.81448 0
M  V30 23755 H 2482.18 -1.65552 3.59734 0
M  V30 23756 H 2483.35 1.06258 4.48381 0
M  V30 23757 H 2481.66 0.805575 4.08533 0
M  V30 23758 H 2484.26 -1.8099 5.03137 0
M  V30 23759 H 2484.6 -2.37908 3.41622 0
M  V30 23760 H 2485.14 -0.752494 3.90618 0
M  V30 23761 H 2481.88 0.724089 6.51488 0
M  V30 23762 H 2481.4 -0.886309 5.93215 0
M  V30 23763 H 2483.08 -0.583515 6.44363 0
M  V30 23764 N 2483.21 -1.57342 -0.0901833 0
M  V30 23765 C 2484.46 -1.85969 -0.791209 0
M  V30 23766 C 2484.78 -0.77289 -1.79029 0
M  V30 23767 O 2484.05 0.200364 -1.94873 0
M  V30 23768 H 2482.63 -0.6862 -0.295193 0
M  V30 23769 H 2485.29 -1.94772 -0.070644 0
M  V30 23770 H 2484.38 -2.82869 -1.31877 0
M  V30 23771 N 2484.69 0.36113 -1.53407 0
M  V30 23772 C 2485.62 1.46282 -1.76449 0
M  V30 23773 C 2486.63 1.49463 -0.645348 0
M  V30 23774 O 2487.82 1.52862 -0.921708 0
M  V30 23775 C 2484.92 2.85028 -1.83337 0
M  V30 23776 C 2484.09 3.05492 -3.13039 0
M  V30 23777 C 2483.15 4.24377 -3.11112 0
M  V30 23778 O 2482.18 4.19338 -3.84896 0
M  V30 23779 N 2483.38 5.32018 -2.32243 0
M  V30 23780 H 2486.15 1.26894 -2.71511 0
M  V30 23781 H 2483.71 0.550888 -1.52239 0
M  V30 23782 H 2485.7 3.62705 -1.7952 0
M  V30 23783 H 2484.27 2.97642 -0.955395 0
M  V30 23784 H 2483.49 2.15436 -3.30122 0
M  V30 23785 H 2484.78 3.16037 -3.98746 0
M  V30 23786 H 2484.17 5.38976 -1.71816 0
M  V30 23787 H 2482.73 6.08255 -2.34241 0
M  V30 23788 N 2486.16 1.44842 0.621179 0
M  V30 23789 C 2487.13 1.52103 1.71457 0
M  V30 23790 C 2488.13 0.40196 1.55695 0
M  V30 23791 O 2489.32 0.664953 1.61009 0
M  V30 23792 C 2486.45 1.40453 3.10622 0
M  V30 23793 H 2487.64 2.49509 1.66389 0
M  V30 23794 H 2485.2 1.32081 0.835721 0
M  V30 23795 H 2485.93 0.441793 3.21277 0
M  V30 23796 H 2485.72 2.21608 3.23469 0
M  V30 23797 H 2487.21 1.48537 3.9029 0
M  V30 23798 N 2487.64 -0.862479 1.31905 0
M  V30 23799 C 2488.89 -1.61836 1.2321 0
M  V30 23800 C 2489.24 -1.91294 -0.206028 0
M  V30 23801 O 2488.54 -1.53877 -1.1416 0
M  V30 23802 C 2488.73 -2.95033 2.01718 0
M  V30 23803 C 2488.56 -2.78582 3.53019 0
M  V30 23804 C 2487.33 -2.77375 4.22364 0
M  V30 23805 C 2489.53 -2.52901 4.47823 0
M  V30 23806 N 2487.51 -2.52052 5.5977 0
M  V30 23807 C 2488.88 -2.36912 5.72951 0
M  V30 23808 C 2490.94 -2.38306 4.37167 0
M  V30 23809 C 2489.64 -2.07811 6.88627 0
M  V30 23810 C 2491.66 -2.10594 5.52634 0
M  V30 23811 C 2491.03 -1.95399 6.76756 0
M  V30 23812 H 2487.13 -0.596233 0.505994 0
M  V30 23813 H 2489.71 -1.01449 1.66181 0
M  V30 23814 H 2487.88 -3.53412 1.61104 0
M  V30 23815 H 2489.61 -3.5995 1.84981 0
M  V30 23816 H 2486.37 -2.9003 3.74406 0
M  V30 23817 H 2486.79 -2.42341 6.32139 0
M  V30 23818 H 2491.43 -2.48778 3.41862 0
M  V30 23819 H 2489.15 -1.96077 7.83951 0
M  V30 23820 H 2492.74 -2.00091 5.4631 0
M  V30 23821 H 2491.62 -1.74261 7.64593 0
M  V30 23822 N 2489.12 -1.14988 -1.07775 0
M  V30 23823 C 2490.07 -0.838444 -2.16963 0
M  V30 23824 C 2491.06 0.186356 -1.68372 0
M  V30 23825 O 2492.27 0.0418149 -1.79951 0
M  V30 23826 H 2488.64 -0.253451 -0.708002 0
M  V30 23827 H 2490.61 -1.76708 -2.40451 0
M  V30 23828 C 2489.36 -0.339396 -3.4604 0
M  V30 23829 H 2488.69 -1.11934 -3.83811 0
M  V30 23830 H 2490.13 -0.160096 -4.23698 0
M  V30 23831 C 2488.59 0.938268 -3.23571 0
M  V30 23832 O 2489.12 2.0107 -3.47755 0
M  V30 23833 N 2487.32 0.876068 -2.7708 0
M  V30 23834 H 2486.87 0.00317509 -2.576 0
M  V30 23835 H 2486.83 1.73148 -2.62426 0
M  V30 23836 N 2490.6 1.26049 -0.946007 0
M  V30 23837 C 2492.01 1.45805 -0.649071 0
M  V30 23838 C 2492.21 1.85106 0.796126 0
M  V30 23839 O 2491.27 1.97573 1.57229 0
M  V30 23840 C 2492.58 2.53674 -1.61462 0
M  V30 23841 C 2494.13 2.67521 -1.62485 0
M  V30 23842 C 2494.61 3.78566 -2.57783 0
M  V30 23843 N 2496.1 3.85965 -2.56097 0
M  V30 23844 C 2496.83 4.71354 -3.26517 0
M  V30 23845 N 2496.33 5.61095 -4.06379 0
M  V30 23846 N 2498.12 4.65243 -3.15445 0
M  V30 23847 H 2490.27 0.988295 -1.88007 0
M  V30 23848 H 2492.54 0.495485 -0.808207 0
M  V30 23849 H 2492.24 2.31634 -2.64648 0
M  V30 23850 H 2492.12 3.51425 -1.37042 0
M  V30 23851 H 2494.5 2.88931 -0.600217 0
M  V30 23852 H 2494.58 1.70198 -1.90961 0
M  V30 23853 H 2494.23 3.57907 -3.60368 0
M  V30 23854 H 2494.16 4.75355 -2.26595 0
M  V30 23855 H 2496.65 3.21808 -1.98111 0
M  V30 23856 H 2496.96 6.23156 -4.57053 0
M  V30 23857 H 2495.31 5.60831 -4.10479 0
M  V30 23858 H 2498.5 3.94138 -2.52532 0
M  V30 23859 H 2498.67 5.31568 -3.70593 0
M  V30 23860 N 2492.08 0.71358 1.4052 0
M  V30 23861 C 2493.49 0.324839 1.83852 0
M  V30 23862 C 2493.84 -1.14018 1.59669 0
M  V30 23863 O 2492.96 -1.87723 1.07652 0
M  V30 23864 C 2493.56 0.582804 3.3375 0
M  V30 23865 C 2492.12 0.247793 3.75583 0
M  V30 23866 C 2491.26 0.856168 2.63752 0
M  V30 23867 H 2494.22 0.912883 1.29816 0
M  V30 23868 H 2494.24 -0.152615 3.80194 0
M  V30 23869 H 2493.75 1.64914 3.51319 0
M  V30 23870 H 2491.85 -0.81356 3.6361 0
M  V30 23871 H 2491.96 0.71539 4.73729 0
M  V30 23872 H 2490.33 0.284364 2.53108 0
M  V30 23873 H 2491.11 1.92673 2.84134 0
M  V30 23874 N 2493.55 -1.50749 0.459618 0
M  V30 23875 C 2494.79 -2.04164 -0.0982042 0
M  V30 23876 C 2495.16 -1.33483 -1.38008 0
M  V30 23877 O 2496.36 -1.77391 -2.01955 0
M  V30 23878 C 2494.63 -3.56226 -0.289404 0
M  V30 23879 S 2496.19 -4.31307 -0.807432 0
M  V30 23880 H 2493.01 -0.710679 -0.021372 0
M  V30 23881 H 2495.61 -1.8527 0.624131 0
M  V30 23882 H 2494.31 -4.05227 0.649532 0
M  V30 23883 H 2493.84 -3.79454 -1.03818 0
M  V30 23884 H 2495.86 -4.50393 -2.08232 0
M  V30 23885 N 2495.03 -0.191784 -1.56429 0
M  V30 23886 C 2495.94 0.742442 -2.22542 0
M  V30 23887 C 2496.96 1.23725 -1.22345 0
M  V30 23888 O 2498.13 1.2851 -1.55071 0
M  V30 23889 C 2495.2 1.94617 -2.86923 0
M  V30 23890 C 2494.26 1.49626 -4.02381 0
M  V30 23891 C 2493.49 2.64261 -4.63683 0
M  V30 23892 O 2493.72 3.81659 -4.23902 0
M  V30 23893 O 2492.65 2.37164 -5.53206 0
M  V30 23894 H 2496.48 0.209409 -3.02977 0
M  V30 23895 H 2494.06 0.037357 -1.49353 0
M  V30 23896 H 2495.94 2.64976 -3.27667 0
M  V30 23897 H 2494.62 2.46787 -2.0947 0
M  V30 23898 H 2493.53 0.761571 -3.66266 0
M  V30 23899 H 2494.86 1.02126 -4.81488 0
M  V30 23900 N 2496.51 1.57387 0.0818378 0
M  V30 23901 C 2497.47 2.0202 1.08262 0
M  V30 23902 C 2498.47 0.915687 1.32181 0
M  V30 23903 O 2499.66 1.18083 1.28071 0
M  V30 23904 C 2496.8 2.39225 2.42866 0
M  V30 23905 H 2497.99 2.9166 0.698153 0
M  V30 23906 H 2495.54 1.52835 0.327276 0
M  V30 23907 H 2496.28 1.5258 2.86164 0
M  V30 23908 H 2496.06 3.19815 2.2685 0
M  V30 23909 H 2497.55 2.74367 3.14821 0
M  V30 23910 N 2497.99 -0.35299 1.53596 0
M  V30 23911 C 2499.23 -1.10283 1.72096 0
M  V30 23912 C 2499.59 -1.86177 0.46925 0
M  V30 23913 O 2500.79 -2.635 0.53113 0
M  V30 23914 C 2499.06 -2.02656 2.9439 0
M  V30 23915 S 2500.62 -2.8499 3.33656 0
M  V30 23916 H 2497.44 -0.372778 0.60544 0
M  V30 23917 H 2500.04 -0.382447 1.91723 0
M  V30 23918 H 2498.75 -1.45685 3.83672 0
M  V30 23919 H 2498.28 -2.79147 2.77201 0
M  V30 23920 H 2500.29 -4.05025 2.86652 0
M  V30 23921 N 2499.47 -1.45169 -0.613489 0
M  V30 23922 C 2500.88 -1.43415 -1.19537 0
M  V30 23923 C 2501.23 -0.158666 -1.95557 0
M  V30 23924 O 2500.35 0.740083 -2.03351 0
M  V30 23925 C 2500.95 -2.59817 -2.17441 0
M  V30 23926 C 2499.51 -2.61202 -2.71017 0
M  V30 23927 C 2498.66 -2.35555 -1.46319 0
M  V30 23928 H 2501.61 -1.53494 -0.403136 0
M  V30 23929 H 2501.63 -2.33579 -3.00368 0
M  V30 23930 H 2501.14 -3.52634 -1.62083 0
M  V30 23931 H 2499.24 -1.72375 -3.30329 0
M  V30 23932 H 2499.35 -3.60241 -3.15853 0
M  V30 23933 H 2497.72 -1.84995 -1.75069 0
M  V30 23934 H 2498.5 -3.30509 -0.928382 0
M  V30 23935 N 2500.95 0.855472 -1.32361 0
M  V30 23936 C 2502.17 1.64206 -1.25873 0
M  V30 23937 C 2502.59 1.88002 0.173424 0
M  V30 23938 O 2501.95 1.44844 1.11025 0
M  V30 23939 C 2502 3.00181 -2.01429 0
M  V30 23940 O 2501.72 2.77439 -3.39056 0
M  V30 23941 C 2503.22 3.94625 -2.01955 0
M  V30 23942 H 2500.44 0.51147 -0.434327 0
M  V30 23943 H 2502.98 1.06677 -1.74471 0
M  V30 23944 H 2501.14 3.54357 -1.56555 0
M  V30 23945 H 2501.55 3.63909 -3.77717 0
M  V30 23946 H 2503.03 4.87304 -2.59305 0
M  V30 23947 H 2503.5 4.27532 -1.00561 0
M  V30 23948 H 2504.11 3.46386 -2.46773 0
M  V30 23949 N 2502.42 1.15558 1.07164 0
M  V30 23950 C 2503.83 0.940721 1.61268 0
M  V30 23951 C 2504.19 -0.517518 1.89252 0
M  V30 23952 O 2503.31 -1.389 1.65939 0
M  V30 23953 C 2503.91 1.70125 2.9299 0
M  V30 23954 C 2502.46 1.53162 3.43829 0
M  V30 23955 C 2501.61 1.71562 2.17857 0
M  V30 23956 H 2504.56 1.30556 0.902267 0
M  V30 23957 H 2504.58 1.17187 3.62005 0
M  V30 23958 H 2504.1 2.76253 2.72591 0
M  V30 23959 H 2502.2 0.494359 3.69306 0
M  V30 23960 H 2502.31 2.30983 4.19743 0
M  V30 23961 H 2500.67 1.14229 2.27648 0
M  V30 23962 H 2501.46 2.7906 1.99951 0
M  V30 23963 N 2503.9 -1.25546 0.952678 0
M  V30 23964 C 2505.15 -1.92504 0.602087 0
M  V30 23965 C 2505.46 -1.75452 -0.864633 0
M  V30 23966 O 2506.67 -2.36967 -1.3251 0
M  V30 23967 C 2505.13 -3.44962 1.02613 0
M  V30 23968 C 2504.73 -3.70727 2.51526 0
M  V30 23969 C 2506.48 -4.17858 0.747979 0
M  V30 23970 C 2504.38 -5.16681 2.87741 0
M  V30 23971 H 2503.31 -0.72074 0.221473 0
M  V30 23972 H 2505.97 -1.42439 1.15687 0
M  V30 23973 H 2504.35 -3.93977 0.399781 0
M  V30 23974 H 2505.52 -3.32372 3.19163 0
M  V30 23975 H 2503.84 -3.11087 2.76792 0
M  V30 23976 H 2506.43 -5.25366 0.994739 0
M  V30 23977 H 2506.78 -4.15102 -0.315556 0
M  V30 23978 H 2507.31 -3.74745 1.33459 0
M  V30 23979 H 2504.05 -5.24547 3.93104 0
M  V30 23980 H 2503.57 -5.5609 2.24775 0
M  V30 23981 H 2505.25 -5.84787 2.76827 0
M  V30 23982 N 2505.38 -0.721022 -1.40139 0
M  V30 23983 C 2506.6 -0.271295 -2.05618 0
M  V30 23984 C 2507.03 1.08036 -1.5398 0
M  V30 23985 O 2506.39 1.68166 -0.677493 0
M  V30 23986 C 2506.44 -0.26726 -3.59608 0
M  V30 23987 O 2505.54 0.749743 -4.05528 0
M  V30 23988 H 2504.88 -0.126174 -0.651902 0
M  V30 23989 H 2507.41 -0.983029 -1.79437 0
M  V30 23990 H 2507.42 -0.106816 -4.0786 0
M  V30 23991 H 2506.1 -1.25361 -3.96557 0
M  V30 23992 H 2504.67 0.556579 -3.68723 0
M  V30 23993 N 2506.86 1.50503 -0.467606 0
M  V30 23994 C 2508.27 1.86696 -0.0116494 0
M  V30 23995 C 2508.62 1.38267 1.392 0
M  V30 23996 O 2507.74 0.746168 2.03129 0
M  V30 23997 C 2508.34 3.38797 -0.014364 0
M  V30 23998 C 2506.9 3.74414 0.386109 0
M  V30 23999 C 2506.05 2.7438 -0.401335 0
M  V30 24000 H 2509 1.43296 -0.682047 0
M  V30 24001 H 2509.02 3.72239 0.788576 0
M  V30 24002 H 2508.53 3.74015 -1.03608 0
M  V30 24003 H 2506.63 3.44796 1.41231 0
M  V30 24004 H 2506.74 4.79016 0.0898754 0
M  V30 24005 H 2505.11 2.5429 0.144491 0
M  V30 24006 H 2505.89 3.12442 -1.4225 0
M  V30 24007 N 2508.34 0.200077 1.56325 0
M  V30 24008 C 2509.61 -0.485256 1.89485 0
M  V30 24009 C 2509.99 -1.79292 1.11434 0
M  V30 24010 O 2509.34 -2.27468 0.216959 0
M  V30 24011 C 2509.55 -0.699183 3.41925 0
M  V30 24012 C 2510.9 -1.01631 4.12258 0
M  V30 24013 O 2511.92 -0.786731 3.47403 0
M  V30 24014 O 2510.78 -1.45086 5.26889 0
M  V30 24015 H 2507.88 -0.253625 0.787149 0
M  V30 24016 H 2510.42 0.240662 1.67985 0
M  V30 24017 H 2509.19 0.224077 3.90658 0
M  V30 24018 H 2508.82 -1.47738 3.69133 0
M  V30 24019 N 2509.81 -1.57429 -0.0734901 0
M  V30 24020 C 2511.04 -1.91114 -0.784796 0
M  V30 24021 C 2511.45 -0.794131 -1.71727 0
M  V30 24022 O 2510.79 0.24151 -1.82106 0
M  V30 24023 C 2510.86 -3.2025 -1.63341 0
M  V30 24024 C 2510.52 -4.48633 -0.870478 0
M  V30 24025 C 2511.52 -5.19551 -0.190489 0
M  V30 24026 C 2509.2 -4.95258 -0.838155 0
M  V30 24027 C 2511.2 -6.35343 0.511615 0
M  V30 24028 C 2508.88 -6.10957 -0.132279 0
M  V30 24029 C 2509.88 -6.80851 0.541408 0
M  V30 24030 O 2509.57 -7.94343 1.23592 0
M  V30 24031 H 2509.3 -0.636248 -0.228397 0
M  V30 24032 H 2511.86 -2.05343 -0.0485678 0
M  V30 24033 H 2510.09 -3.02226 -2.41239 0
M  V30 24034 H 2511.77 -3.39599 -2.22323 0
M  V30 24035 H 2512.54 -4.84559 -0.206778 0
M  V30 24036 H 2508.42 -4.40729 -1.35198 0
M  V30 24037 H 2511.96 -6.89834 1.03801 0
M  V30 24038 H 2507.86 -6.45399 -0.11391 0
M  V30 24039 H 2508.63 -8.10452 1.14502 0
M  V30 24040 N 2511.29 0.344839 -1.53781 0
M  V30 24041 C 2512.22 1.44403 -1.7799 0
M  V30 24042 C 2513.24 1.4877 -0.661165 0
M  V30 24043 O 2514.43 1.51876 -0.937869 0
M  V30 24044 C 2511.53 2.83067 -1.8635 0
M  V30 24045 C 2510.7 3.02155 -3.16261 0
M  V30 24046 C 2509.76 4.21053 -3.15595 0
M  V30 24047 O 2508.78 4.15232 -3.89322 0
M  V30 24048 N 2509.99 5.29525 -2.37873 0
M  V30 24049 H 2512.75 1.24007 -2.72841 0
M  V30 24050 H 2510.31 0.53471 -1.52815 0
M  V30 24051 H 2512.3 3.6078 -1.83357 0
M  V30 24052 H 2510.87 2.96612 -0.98691 0
M  V30 24053 H 2510.09 2.11923 -3.32389 0
M  V30 24054 H 2511.38 3.1179 -4.02075 0
M  V30 24055 H 2510.78 5.37124 -1.77523 0
M  V30 24056 H 2509.34 6.05737 -2.40679 0
M  V30 24057 N 2512.77 1.45492 0.605781 0
M  V30 24058 C 2514.02 1.48876 1.36084 0
M  V30 24059 C 2514.33 0.135367 1.95131 0
M  V30 24060 O 2515.54 0.0468621 2.7146 0
M  V30 24061 C 2513.99 2.6222 2.46513 0
M  V30 24062 C 2513.6 4.03879 1.9387 0
M  V30 24063 C 2515.35 2.74851 3.23507 0
M  V30 24064 C 2513.25 5.08601 3.01792 0
M  V30 24065 H 2512.18 0.553983 0.511487 0
M  V30 24066 H 2514.83 1.71638 0.649059 0
M  V30 24067 H 2513.22 2.32745 3.20384 0
M  V30 24068 H 2514.39 4.4304 1.26696 0
M  V30 24069 H 2512.7 3.95713 1.29615 0
M  V30 24070 H 2515.3 3.5026 4.04007 0
M  V30 24071 H 2515.64 1.81549 3.74627 0
M  V30 24072 H 2516.18 3.0386 2.56737 0
M  V30 24073 H 2512.92 6.03619 2.55587 0
M  V30 24074 H 2512.44 4.74008 3.67527 0
M  V30 24075 H 2514.12 5.33431 3.66143 0
M  V30 24076 N 2514.25 -0.848441 1.32813 0
M  V30 24077 C 2515.18 -1.97297 1.24885 0
M  V30 24078 C 2516.16 -1.69592 0.131386 0
M  V30 24079 O 2517.34 -1.91552 0.319586 0
M  V30 24080 C 2514.47 -3.33259 0.977518 0
M  V30 24081 C 2513.43 -3.75335 2.05689 0
M  V30 24082 C 2512.75 -5.08997 1.63786 0
M  V30 24083 C 2514.05 -3.90137 3.47261 0
M  V30 24084 H 2515.75 -2.04187 2.1897 0
M  V30 24085 H 2513.29 -0.98101 1.05414 0
M  V30 24086 H 2515.25 -4.11488 0.908585 0
M  V30 24087 H 2513.97 -3.266 0.00103742 0
M  V30 24088 H 2512.63 -2.99362 2.11608 0
M  V30 24089 H 2512.28 -4.988 0.648656 0
M  V30 24090 H 2511.98 -5.3812 2.36009 0
M  V30 24091 H 2513.5 -5.89712 1.58341 0
M  V30 24092 H 2514.92 -4.58703 3.43896 0
M  V30 24093 H 2513.31 -4.30685 4.17888 0
M  V30 24094 H 2514.38 -2.92867 3.86467 0
M  V30 24095 N 2515.73 -1.16125 -1.06549 0
M  V30 24096 C 2516.97 -0.951798 -1.80887 0
M  V30 24097 C 2517.33 0.511432 -1.85063 0
M  V30 24098 O 2518.53 0.839495 -2.55354 0
M  V30 24099 C 2516.8 -1.55899 -3.21606 0
M  V30 24100 S 2518.36 -1.49381 -4.1259 0
M  V30 24101 H 2515.18 -0.342352 -0.62315 0
M  V30 24102 H 2517.78 -1.47823 -1.2794 0
M  V30 24103 H 2516.49 -2.6167 -3.1616 0
M  V30 24104 H 2516.02 -1.03177 -3.79629 0
M  V30 24105 H 2518.03 -0.492282 -4.93752 0
M  V30 24106 N 2517.2 1.25039 -0.959323 0
M  V30 24107 C 2518.45 1.92502 -0.615427 0
M  V30 24108 C 2518.77 1.75454 0.850938 0
M  V30 24109 O 2518.04 1.12101 1.60656 0
M  V30 24110 H 2516.62 0.712427 -0.224626 0
M  V30 24111 H 2519.29 1.52107 -1.21858 0
M  V30 24112 H 2518.38 3.00336 -0.84879 0
M  V30 24113 N 2518.68 0.728444 1.39755 0
M  V30 24114 C 2519.63 0.0732258 2.32485 0
M  V30 24115 C 2520.62 -0.733036 1.52718 0
M  V30 24116 O 2521.83 -0.634958 1.68429 0
M  V30 24117 H 2518.21 0.00487791 0.751984 0
M  V30 24118 H 2520.18 0.871811 2.8538 0
M  V30 24119 C 2518.93 -0.824848 3.37774 0
M  V30 24120 H 2518.25 -0.213844 3.99228 0
M  V30 24121 H 2519.69 -1.25103 4.05124 0
M  V30 24122 C 2518.15 -1.95617 2.74291 0
M  V30 24123 O 2518.68 -3.04822 2.61623 0
M  V30 24124 N 2516.88 -1.74363 2.32478 0
M  V30 24125 H 2516.43 -0.855451 2.42981 0
M  V30 24126 H 2516.39 -2.50235 1.90341 0
M  V30 24127 N 2520.16 -1.50253 0.475581 0
M  V30 24128 C 2521.09 -2.26471 -0.35261 0
M  V30 24129 C 2522.11 -1.31981 -0.953142 0
M  V30 24130 O 2523.29 -1.57458 -0.840787 0
M  V30 24131 C 2520.39 -3.03453 -1.50896 0
M  V30 24132 C 2519.57 -4.25331 -1.0204 0
M  V30 24133 C 2518.63 -4.84569 -2.05133 0
M  V30 24134 O 2517.65 -5.45358 -1.63013 0
M  V30 24135 N 2518.85 -4.71964 -3.37979 0
M  V30 24136 H 2521.62 -2.98186 0.30082 0
M  V30 24137 H 2519.18 -1.5897 0.306626 0
M  V30 24138 H 2521.17 -3.3996 -2.19566 0
M  V30 24139 H 2519.74 -2.34507 -2.067 0
M  V30 24140 H 2518.96 -3.93877 -0.159438 0
M  V30 24141 H 2520.25 -5.04343 -0.671972 0
M  V30 24142 H 2519.65 -4.2363 -3.74906 0
M  V30 24143 H 2518.21 -5.12728 -4.02434 0
M  V30 24144 N 2521.64 -0.208365 -1.56217 0
M  V30 24145 C 2522.6 0.693518 -2.18456 0
M  V30 24146 C 2523.6 1.13133 -1.1427 0
M  V30 24147 O 2524.79 1.04227 -1.39579 0
M  V30 24148 C 2521.92 1.94843 -2.7973 0
M  V30 24149 H 2523.12 0.151088 -2.99519 0
M  V30 24150 H 2520.67 0.0412595 -1.56246 0
M  V30 24151 H 2521.4 2.53306 -2.02501 0
M  V30 24152 H 2521.19 1.6431 -3.56012 0
M  V30 24153 H 2522.68 2.59128 -3.27479 0
M  V30 24154 N 2523.12 1.57465 0.0651402 0
M  V30 24155 C 2524.53 1.76239 0.616182 0
M  V30 24156 C 2524.88 0.83472 1.77558 0
M  V30 24157 O 2524 0.0204537 2.1639 0
M  V30 24158 C 2524.6 3.19592 1.12456 0
M  V30 24159 C 2523.16 3.39687 1.62141 0
M  V30 24160 C 2522.3 2.71918 0.543691 0
M  V30 24161 H 2525.26 1.57881 -0.16105 0
M  V30 24162 H 2525.28 3.24118 1.99318 0
M  V30 24163 H 2524.79 3.87085 0.280524 0
M  V30 24164 H 2522.89 2.77318 2.48849 0
M  V30 24165 H 2523 4.48161 1.69377 0
M  V30 24166 H 2521.37 2.34659 0.99031 0
M  V30 24167 H 2522.15 3.42071 -0.290276 0
M  V30 24168 N 2524.59 -0.336679 1.53962 0
M  V30 24169 C 2525.84 -1.07402 1.71199 0
M  V30 24170 C 2526.16 -1.88962 0.481509 0
M  V30 24171 O 2525.43 -1.89291 -0.504552 0
M  V30 24172 H 2524.01 -0.399506 0.631192 0
M  V30 24173 H 2526.68 -0.37629 1.91233 0
M  V30 24174 H 2525.77 -1.74751 2.5859 0
M  V30 24175 N 2526.07 -1.45812 -0.598057 0
M  V30 24176 C 2527.32 -1.50325 -1.35678 0
M  V30 24177 C 2527.65 -0.148773 -1.9393 0
M  V30 24178 O 2526.9 0.853756 -1.76095 0
M  V30 24179 C 2527.2 -2.53771 -2.51665 0
M  V30 24180 C 2526.87 -3.98218 -2.11501 0
M  V30 24181 C 2525.53 -4.37548 -2.00262 0
M  V30 24182 C 2527.88 -4.89021 -1.803 0
M  V30 24183 C 2525.21 -5.65564 -1.56057 0
M  V30 24184 C 2527.56 -6.17459 -1.37578 0
M  V30 24185 C 2526.23 -6.5571 -1.24904 0
M  V30 24186 H 2525.5 -0.550078 -0.496483 0
M  V30 24187 H 2528.14 -1.79209 -0.67502 0
M  V30 24188 H 2526.45 -2.18491 -3.25221 0
M  V30 24189 H 2528.14 -2.54497 -3.0989 0
M  V30 24190 H 2524.73 -3.67121 -2.21179 0
M  V30 24191 H 2528.92 -4.59365 -1.87876 0
M  V30 24192 H 2524.17 -5.93988 -1.44875 0
M  V30 24193 H 2528.35 -6.87256 -1.12483 0
M  V30 24194 H 2525.98 -7.54803 -0.904254 0
M  V30 24195 N 2527.55 0.841385 -1.33261 0
M  V30 24196 C 2528.48 1.96632 -1.2593 0
M  V30 24197 C 2529.46 1.6952 -0.140378 0
M  V30 24198 O 2530.65 1.9138 -0.32974 0
M  V30 24199 C 2527.78 3.32736 -0.995178 0
M  V30 24200 C 2526.73 3.74239 -2.07676 0
M  V30 24201 C 2526.06 5.08122 -1.66483 0
M  V30 24202 C 2527.36 3.8829 -3.49325 0
M  V30 24203 H 2529.05 2.03023 -2.2005 0
M  V30 24204 H 2526.6 0.975406 -1.05933 0
M  V30 24205 H 2528.55 4.11001 -0.930395 0
M  V30 24206 H 2527.27 3.26595 -0.0183578 0
M  V30 24207 H 2525.93 2.98236 -2.13193 0
M  V30 24208 H 2525.58 4.98449 -0.6751 0
M  V30 24209 H 2525.28 5.36861 -2.3886 0
M  V30 24210 H 2526.8 5.88864 -1.61466 0
M  V30 24211 H 2528.22 4.56873 -3.46324 0
M  V30 24212 H 2526.62 4.28463 -4.20166 0
M  V30 24213 H 2527.69 2.90814 -3.88015 0
M  V30 24214 N 2529.03 1.16688 1.05932 0
M  V30 24215 C 2530.26 0.974961 1.82489 0
M  V30 24216 C 2530.67 -0.476829 1.82679 0
M  V30 24217 O 2530.03 -1.331 1.24862 0
M  V30 24218 C 2530.08 1.49935 3.2894 0
M  V30 24219 O 2529.8 2.89428 3.28881 0
M  V30 24220 C 2531.3 1.35096 4.22213 0
M  V30 24221 H 2528.52 0.345375 0.575289 0
M  V30 24222 H 2531.07 1.54802 1.33628 0
M  V30 24223 H 2529.22 0.968489 3.75099 0
M  V30 24224 H 2529.64 3.13514 4.20487 0
M  V30 24225 H 2531.11 1.76613 5.22984 0
M  V30 24226 H 2531.59 0.297012 4.38195 0
M  V30 24227 H 2532.19 1.87162 3.81904 0
M  V30 24228 N 2530.51 -1.24529 0.96594 0
M  V30 24229 C 2531.78 -1.87888 0.54381 0
M  V30 24230 C 2532.16 -1.87023 -0.979057 0
M  V30 24231 O 2531.51 -1.34163 -1.84966 0
M  V30 24232 C 2531.72 -3.30086 1.13333 0
M  V30 24233 C 2533.07 -4.06781 1.21714 0
M  V30 24234 O 2534.09 -3.3925 1.08572 0
M  V30 24235 O 2532.95 -5.27604 1.42465 0
M  V30 24236 H 2530.05 -0.806935 0.181068 0
M  V30 24237 H 2532.59 -1.32514 1.0601 0
M  V30 24238 H 2531.37 -3.25205 2.17617 0
M  V30 24239 H 2530.99 -3.93032 0.60098 0
M  V30 24240 N 2531.99 -0.735845 -1.39367 0
M  V30 24241 C 2533.23 -0.281039 -1.99732 0
M  V30 24242 C 2533.55 1.13843 -1.59057 0
M  V30 24243 O 2534.75 1.6928 -2.12265 0
M  V30 24244 C 2533.21 -0.451525 -3.57056 0
M  V30 24245 C 2532.82 -1.87893 -4.06694 0
M  V30 24246 C 2534.56 -0.0585362 -4.2446 0
M  V30 24247 C 2532.47 -1.99893 -5.56594 0
M  V30 24248 H 2531.4 -0.101324 -0.747161 0
M  V30 24249 H 2534.05 -0.909847 -1.59355 0
M  V30 24250 H 2532.43 0.246193 -3.95234 0
M  V30 24251 H 2533.61 -2.60868 -3.79848 0
M  V30 24252 H 2531.92 -2.22521 -3.51956 0
M  V30 24253 H 2534.52 -0.127193 -5.34549 0
M  V30 24254 H 2534.86 0.986362 -4.04446 0
M  V30 24255 H 2535.39 -0.707443 -3.91459 0
M  V30 24256 H 2532.13 -3.02574 -5.81489 0
M  V30 24257 H 2531.65 -1.31356 -5.8524 0
M  V30 24258 H 2533.33 -1.7805 -6.22019 0
M  V30 24259 N 2533.46 1.49999 -0.483543 0
M  V30 24260 C 2534.41 2.257 0.32302 0
M  V30 24261 C 2535.4 1.29807 0.950732 0
M  V30 24262 O 2536.59 1.54635 0.86122 0
M  V30 24263 C 2533.72 3.13582 1.39719 0
M  V30 24264 C 2532.8 4.16929 0.776589 0
M  V30 24265 N 2533.2 5.05679 -0.110489 0
M  V30 24266 C 2531.49 4.33725 1.03915 0
M  V30 24267 C 2532.19 5.79847 -0.463972 0
M  V30 24268 N 2531.17 5.43353 0.163891 0
M  V30 24269 H 2534.97 2.91685 -0.360138 0
M  V30 24270 H 2532.49 1.59633 -0.298484 0
M  V30 24271 H 2534.48 3.66432 1.9883 0
M  V30 24272 H 2533.14 2.49147 2.08221 0
M  V30 24273 H 2534.15 5.15669 -0.48016 0
M  V30 24274 H 2530.83 3.80504 1.71822 0
M  V30 24275 H 2532.22 6.61302 -1.18866 0
M  V30 24276 N 2534.94 0.216646 1.56104 0
M  V30 24277 C 2536.17 -0.421378 2.02564 0
M  V30 24278 C 2536.58 -1.53693 1.09653 0
M  V30 24279 O 2535.94 -1.82196 0.105242 0
M  V30 24280 C 2535.99 -0.957604 3.48586 0
M  V30 24281 O 2535.71 0.113466 4.37953 0
M  V30 24282 C 2537.21 -1.66936 4.10667 0
M  V30 24283 H 2534.43 -0.103654 0.662946 0
M  V30 24284 H 2536.98 0.331664 2.01793 0
M  V30 24285 H 2535.13 -1.66094 3.49988 0
M  V30 24286 H 2535.55 -0.28884 5.23704 0
M  V30 24287 H 2537.02 -1.99662 5.14625 0
M  V30 24288 H 2537.5 -2.58077 3.55377 0
M  V30 24289 H 2538.1 -1.01135 4.131 0
M  V30 24290 N 2536.42 -1.57498 -0.0567885 0
M  V30 24291 C 2537.67 -1.87605 -0.751584 0
M  V30 24292 C 2537.99 -0.810691 -1.77349 0
M  V30 24293 O 2537.26 0.158984 -1.95254 0
M  V30 24294 H 2535.84 -0.692307 -0.280571 0
M  V30 24295 H 2538.5 -1.94878 -0.0293141 0
M  V30 24296 H 2537.6 -2.85603 -1.25847 0
M  V30 24297 N 2537.9 0.328509 -1.54138 0
M  V30 24298 C 2538.84 1.40408 -1.83178 0
M  V30 24299 C 2539.81 1.51609 -0.678521 0
M  V30 24300 O 2541 1.66908 -0.924459 0
M  V30 24301 C 2538.14 2.76842 -2.0604 0
M  V30 24302 C 2537.25 2.74312 -3.33732 0
M  V30 24303 C 2536.39 4.02561 -3.46581 0
M  V30 24304 C 2535.43 3.94319 -4.68166 0
M  V30 24305 N 2534.56 5.14287 -4.77968 0
M  V30 24306 H 2539.4 1.14944 -2.7494 0
M  V30 24307 H 2536.94 0.556514 -1.36167 0
M  V30 24308 H 2538.9 3.5615 -2.17286 0
M  V30 24309 H 2537.53 3.00626 -1.17575 0
M  V30 24310 H 2536.58 1.87024 -3.31249 0
M  V30 24311 H 2537.89 2.64103 -4.23144 0
M  V30 24312 H 2537.05 4.90298 -3.57342 0
M  V30 24313 H 2535.79 4.15569 -2.55252 0
M  V30 24314 H 2534.79 3.04966 -4.57467 0
M  V30 24315 H 2536.02 3.8288 -5.60874 0
M  V30 24316 H 2533.96 5.27811 -3.89553 0
M  V30 24317 H 2533.88 5.06394 -5.61338 0
M  V30 24318 H 2535.15 6.03753 -4.93055 0
M  V30 24319 N 2539.38 1.46127 0.590316 0
M  V30 24320 C 2540.79 1.45299 1.1724 0
M  V30 24321 C 2541.14 0.189758 1.9528 0
M  V30 24322 O 2540.26 -0.707638 2.04503 0
M  V30 24323 C 2540.86 2.63244 2.1328 0
M  V30 24324 C 2539.42 2.65481 2.66828 0
M  V30 24325 C 2538.56 2.37853 1.42553 0
M  V30 24326 H 2541.51 1.54116 0.378665 0
M  V30 24327 H 2541.54 2.38328 2.96614 0
M  V30 24328 H 2541.05 3.55168 1.56453 0
M  V30 24329 H 2539.15 1.77609 3.27545 0
M  V30 24330 H 2539.26 3.65221 3.10082 0
M  V30 24331 H 2537.63 1.87756 1.72104 0
M  V30 24332 H 2538.41 3.31944 0.875683 0
M  V30 24333 N 2540.85 -0.834306 1.33705 0
M  V30 24334 C 2541.78 -1.95961 1.26971 0
M  V30 24335 C 2542.76 -1.69443 0.149366 0
M  V30 24336 O 2543.95 -1.91203 0.339885 0
M  V30 24337 C 2541.08 -3.32204 1.01281 0
M  V30 24338 C 2540.03 -3.73132 2.09658 0
M  V30 24339 C 2539.36 -5.07232 1.69175 0
M  V30 24340 C 2540.66 -3.86432 3.51379 0
M  V30 24341 H 2542.35 -2.01854 2.21123 0
M  V30 24342 H 2539.9 -0.969775 1.06449 0
M  V30 24343 H 2541.85 -4.10502 0.952178 0
M  V30 24344 H 2540.58 -3.26581 0.0356777 0
M  V30 24345 H 2539.24 -2.97101 2.14771 0
M  V30 24346 H 2538.88 -4.98084 0.701524 0
M  V30 24347 H 2538.58 -5.35587 2.41704 0
M  V30 24348 H 2540.11 -5.88 1.64586 0
M  V30 24349 H 2541.52 -4.5503 3.48742 0
M  V30 24350 H 2539.92 -4.26229 4.22432 0
M  V30 24351 H 2540.99 -2.88752 3.89552 0
M  V30 24352 N 2542.33 -1.17248 -1.05312 0
M  V30 24353 C 2543.61 -0.870081 -1.75183 0
M  V30 24354 C 2543.99 0.62993 -2.01482 0
M  V30 24355 O 2543.34 1.58083 -1.64991 0
M  V30 24356 C 2543.55 -1.70368 -3.04591 0
M  V30 24357 C 2544.89 -1.92288 -3.78564 0
M  V30 24358 O 2545.92 -1.67316 -3.14458 0
M  V30 24359 O 2544.78 -2.34249 -4.93751 0
M  V30 24360 H 2541.87 -0.322034 -0.761724 0
M  V30 24361 H 2544.42 -1.27937 -1.11491 0
M  V30 24362 H 2543.19 -2.72111 -2.81196 0
M  V30 24363 H 2542.81 -1.29208 -3.7602 0
M  V30 24364 N 2543.81 1.24015 -0.972531 0
M  V30 24365 C 2545.06 1.91522 -0.632636 0
M  V30 24366 C 2545.37 1.76806 0.83661 0
M  V30 24367 O 2546.58 2.39045 1.28723 0
M  V30 24368 C 2545.03 3.43286 -1.08088 0
M  V30 24369 C 2544.64 3.66679 -2.57392 0
M  V30 24370 C 2546.39 4.16615 -0.814362 0
M  V30 24371 C 2544.29 5.12038 -2.95924 0
M  V30 24372 H 2543.22 0.717125 -0.232911 0
M  V30 24373 H 2545.87 1.4058 -1.17938 0
M  V30 24374 H 2544.26 3.93291 -0.462409 0
M  V30 24375 H 2545.43 3.27253 -3.24411 0
M  V30 24376 H 2543.75 3.06644 -2.81706 0
M  V30 24377 H 2546.34 5.23717 -1.07819 0
M  V30 24378 H 2546.69 4.15552 0.249477 0
M  V30 24379 H 2547.22 3.72574 -1.39404 0
M  V30 24380 H 2543.96 5.18227 -4.01399 0
M  V30 24381 H 2543.48 5.52444 -2.33593 0
M  V30 24382 H 2545.16 5.80309 -2.86096 0
M  V30 24383 N 2545.29 0.743226 1.38974 0
M  V30 24384 C 2546.57 0.220739 1.9435 0
M  V30 24385 C 2546.95 -1.27907 1.67937 0
M  V30 24386 O 2546.29 -2.04861 1.01215 0
M  V30 24387 C 2546.5 0.563231 3.44425 0
M  V30 24388 C 2547.85 0.517121 4.21439 0
M  V30 24389 O 2548.88 0.500908 3.5266 0
M  V30 24390 O 2547.73 0.518901 5.44031 0
M  V30 24391 H 2544.83 0.0430616 0.825878 0
M  V30 24392 H 2547.37 0.822644 1.48427 0
M  V30 24393 H 2546.15 1.59947 3.57117 0
M  V30 24394 H 2545.77 -0.0672184 3.97543 0
M  V30 24395 N 2546.77 -1.4974 0.491491 0
M  V30 24396 C 2547.68 -2.32715 -0.296794 0
M  V30 24397 C 2548.69 -1.44015 -0.97651 0
M  V30 24398 O 2549.87 -1.77048 -0.959992 0
M  V30 24399 C 2546.93 -3.19217 -1.35283 0
M  V30 24400 C 2545.99 -4.23758 -0.687557 0
M  V30 24401 C 2545.23 -5.06126 -1.69328 0
M  V30 24402 O 2545.45 -4.89866 -2.92211 0
M  V30 24403 O 2544.38 -5.88696 -1.25384 0
M  V30 24404 H 2548.21 -3.01287 0.382101 0
M  V30 24405 H 2545.8 -1.47243 0.252979 0
M  V30 24406 H 2547.68 -3.72831 -1.96404 0
M  V30 24407 H 2546.35 -2.53351 -2.01482 0
M  V30 24408 H 2545.26 -3.74082 -0.0368502 0
M  V30 24409 H 2546.59 -4.92153 -0.0681701 0
M  V30 24410 N 2548.24 -0.224922 -1.55987 0
M  V30 24411 C 2549.48 0.407671 -2.00293 0
M  V30 24412 C 2549.85 1.56709 -1.10933 0
M  V30 24413 O 2551.05 2.26592 -1.44601 0
M  V30 24414 C 2549.32 0.827989 -3.47677 0
M  V30 24415 S 2550.88 1.45421 -4.14003 0
M  V30 24416 H 2547.7 0.129244 -0.699154 0
M  V30 24417 H 2550.3 -0.335001 -1.92608 0
M  V30 24418 H 2549 -0.0254685 -4.10392 0
M  V30 24419 H 2548.53 1.60339 -3.59242 0
M  V30 24420 H 2550.55 2.7433 -4.1347 0
M  V30 24421 N 2549.72 1.57526 0.0484352 0
M  V30 24422 C 2550.97 1.88001 0.741624 0
M  V30 24423 C 2551.29 0.820085 1.76917 0
M  V30 24424 O 2550.56 -0.148627 1.95335 0
M  V30 24425 H 2549.14 0.693785 0.276896 0
M  V30 24426 H 2551.8 1.94891 0.0189788 0
M  V30 24427 H 2550.9 2.86266 1.24331 0
M  V30 24428 N 2551.2 -0.32033 1.5431 0
M  V30 24429 C 2552.11 -1.4173 1.86948 0
M  V30 24430 C 2553.13 -1.56441 0.761717 0
M  V30 24431 O 2554.3 -1.71475 1.05632 0
M  V30 24432 C 2551.37 -2.76397 2.09297 0
M  V30 24433 C 2550.43 -2.70835 3.33087 0
M  V30 24434 C 2549.66 -3.99079 3.5436 0
M  V30 24435 O 2549.88 -4.97503 2.79011 0
M  V30 24436 O 2548.82 -4.02142 4.47845 0
M  V30 24437 H 2552.64 -1.17057 2.80234 0
M  V30 24438 H 2550.23 -0.514649 1.40256 0
M  V30 24439 H 2552.11 -3.56109 2.25309 0
M  V30 24440 H 2550.79 -3.00954 1.19199 0
M  V30 24441 H 2549.69 -1.89663 3.22458 0
M  V30 24442 H 2551.03 -2.51232 4.23253 0
M  V30 24443 N 2552.68 -1.46438 -0.582558 0
M  V30 24444 C 2553.93 -1.51022 -1.33698 0
M  V30 24445 C 2554.24 -0.166393 -1.94891 0
M  V30 24446 O 2555.45 -0.0900431 -2.71351 0
M  V30 24447 C 2553.9 -2.66108 -2.42311 0
M  V30 24448 C 2553.51 -4.06913 -1.8742 0
M  V30 24449 C 2555.25 -2.79963 -3.19094 0
M  V30 24450 C 2553.16 -5.13338 -2.93663 0
M  V30 24451 H 2552.09 -0.56205 -0.502609 0
M  V30 24452 H 2554.74 -1.72649 -0.62167 0
M  V30 24453 H 2553.12 -2.37812 -3.16641 0
M  V30 24454 H 2554.3 -4.45 -1.19631 0
M  V30 24455 H 2552.61 -3.97725 -1.23303 0
M  V30 24456 H 2555.21 -3.56643 -3.98384 0
M  V30 24457 H 2555.55 -1.87486 -3.71692 0
M  V30 24458 H 2556.09 -3.07906 -2.5187 0
M  V30 24459 H 2552.83 -6.07609 -2.45951 0
M  V30 24460 H 2552.35 -4.79795 -3.5994 0
M  V30 24461 H 2554.02 -5.39188 -3.5761 0
M  V30 24462 N 2554.16 0.827204 -1.34146 0
M  V30 24463 C 2555.57 1.39964 -1.23559 0
M  V30 24464 C 2555.92 1.95695 0.140697 0
M  V30 24465 O 2555.04 1.89725 1.04084 0
M  V30 24466 C 2555.64 2.54437 -2.23712 0
M  V30 24467 C 2554.2 3.07601 -2.1693 0
M  V30 24468 C 2553.34 1.80452 -2.10552 0
M  V30 24469 H 2556.3 0.631965 -1.45574 0
M  V30 24470 H 2556.32 3.32408 -1.85163 0
M  V30 24471 H 2555.83 2.13845 -3.2387 0
M  V30 24472 H 2553.93 3.52709 -1.20113 0
M  V30 24473 H 2554.04 3.66982 -3.07995 0
M  V30 24474 H 2552.41 2.01175 -1.56207 0
M  V30 24475 H 2553.19 1.4204 -3.12537 0
M  V30 24476 N 2555.63 1.17805 1.04688 0
M  V30 24477 C 2556.6 0.901582 2.10723 0
M  V30 24478 C 2557.6 -0.110409 1.60421 0
M  V30 24479 O 2558.79 0.122334 1.7377 0
M  V30 24480 C 2555.92 0.351469 3.39083 0
M  V30 24481 H 2557.11 1.84178 2.36682 0
M  V30 24482 H 2554.67 0.989211 1.21014 0
M  V30 24483 H 2555.4 -0.595634 3.18783 0
M  V30 24484 H 2555.19 1.08089 3.76907 0
M  V30 24485 H 2556.68 0.176524 4.17227 0
M  V30 24486 N 2557.11 -1.23497 0.979094 0
M  V30 24487 C 2558.36 -1.91184 0.642784 0
M  V30 24488 C 2558.67 -1.77247 -0.827222 0
M  V30 24489 O 2559.88 -2.39724 -1.27454 0
M  V30 24490 C 2558.34 -3.42707 1.09907 0
M  V30 24491 C 2557.94 -3.65309 2.59333 0
M  V30 24492 C 2559.69 -4.16178 0.836444 0
M  V30 24493 C 2557.6 -5.10461 2.98636 0
M  V30 24494 H 2556.53 -0.71588 0.236711 0
M  V30 24495 H 2559.18 -1.39953 1.18682 0
M  V30 24496 H 2557.56 -3.9304 0.483259 0
M  V30 24497 H 2558.73 -3.25528 3.26142 0
M  V30 24498 H 2557.05 -3.05146 2.83328 0
M  V30 24499 H 2559.64 -5.23137 1.10595 0
M  V30 24500 H 2559.99 -4.15678 -0.227436 0
M  V30 24501 H 2560.52 -3.7183 1.41377 0
M  V30 24502 H 2557.26 -5.16091 4.04142 0
M  V30 24503 H 2556.78 -5.51197 2.3652 0
M  V30 24504 H 2558.46 -5.78783 2.89169 0
M  V30 24505 N 2558.59 -0.750586 -1.38578 0
M  V30 24506 C 2559.83 -0.310294 -2.02031 0
M  V30 24507 C 2560.2 1.08665 -1.5829 0
M  V30 24508 O 2561.4 1.62589 -2.14052 0
M  V30 24509 C 2559.67 -0.42571 -3.54856 0
M  V30 24510 S 2561.23 -0.0675569 -4.38748 0
M  V30 24511 H 2558.04 -0.120566 -0.700703 0
M  V30 24512 H 2560.65 -0.980542 -1.69132 0
M  V30 24513 H 2559.35 -1.44341 -3.84179 0
M  V30 24514 H 2558.88 0.261825 -3.92528 0
M  V30 24515 H 2560.9 1.1438 -4.82837 0
M  V30 24516 N 2560.07 1.49477 -0.499425 0
M  V30 24517 C 2561.03 2.27618 0.268798 0
M  V30 24518 C 2562.03 1.33566 0.89536 0
M  V30 24519 O 2563.22 1.5674 0.760136 0
M  V30 24520 C 2560.35 3.11474 1.38553 0
M  V30 24521 H 2561.55 2.96989 -0.416865 0
M  V30 24522 H 2559.1 1.54217 -0.254341 0
M  V30 24523 H 2559.84 2.46665 2.10539 0
M  V30 24524 H 2559.62 3.80623 0.94173 0
M  V30 24525 H 2561.11 3.70496 1.92671 0
M  V30 24526 N 2561.55 0.233191 1.55865 0
M  V30 24527 C 2562.5 -0.688471 2.22177 0
M  V30 24528 C 2563.49 -1.19074 1.20489 0
M  V30 24529 O 2564.7 -1.14922 1.38538 0
M  V30 24530 H 2561.07 -0.24047 0.712515 0
M  V30 24531 H 2563.04 -0.105883 2.98212 0
M  V30 24532 C 2561.79 -1.88066 2.92449 0
M  V30 24533 H 2561.11 -1.5033 3.7046 0
M  V30 24534 H 2562.55 -2.50308 3.42231 0
M  V30 24535 C 2561.01 -2.74332 1.9556 0
M  V30 24536 O 2561.54 -3.73445 1.47993 0
M  V30 24537 N 2559.75 -2.4061 1.62957 0
M  V30 24538 H 2559.3 -1.60065 2.01834 0
M  V30 24539 H 2559.25 -2.98607 0.983939 0
M  V30 24540 N 2563.03 -1.57549 -0.0400806 0
M  V30 24541 C 2564.27 -1.88392 -0.731644 0
M  V30 24542 C 2564.59 -0.829456 -1.7648 0
M  V30 24543 O 2563.86 0.138265 -1.95411 0
M  V30 24544 H 2562.44 -0.695244 -0.273213 0
M  V30 24545 H 2565.11 -1.94898 -0.00864299 0
M  V30 24546 H 2564.2 -2.86921 -1.22811 0
M  V30 24547 N 2564.5 0.312142 -1.54478 0
M  V30 24548 C 2565.75 1.0463 -1.7244 0
M  V30 24549 C 2566.07 1.88802 -0.511196 0
M  V30 24550 O 2567.27 2.65398 -0.572388 0
M  V30 24551 C 2565.73 1.90984 -3.05046 0
M  V30 24552 C 2565.34 1.11869 -4.33808 0
M  V30 24553 C 2567.08 2.64067 -3.32369 0
M  V30 24554 C 2564.99 1.97435 -5.5747 0
M  V30 24555 H 2563.92 0.394349 -0.642654 0
M  V30 24556 H 2566.57 0.303898 -1.80966 0
M  V30 24557 H 2564.95 2.69168 -2.90455 0
M  V30 24558 H 2566.12 0.383762 -4.59199 0
M  V30 24559 H 2564.44 0.504179 -4.13336 0
M  V30 24560 H 2567.04 3.28415 -4.21957 0
M  V30 24561 H 2567.38 3.3231 -2.5075 0
M  V30 24562 H 2567.91 1.92938 -3.47879 0
M  V30 24563 H 2564.65 1.33681 -6.41724 0
M  V30 24564 H 2564.17 2.68631 -5.36281 0
M  V30 24565 H 2565.85 2.55749 -5.94307 0
M  V30 24566 N 2565.98 1.46745 0.574784 0
M  V30 24567 C 2567.22 1.54029 1.34366 0
M  V30 24568 C 2567.59 0.190676 1.91051 0
M  V30 24569 O 2568.79 0.138302 2.68444 0
M  V30 24570 C 2567.06 2.61427 2.43702 0
M  V30 24571 S 2568.62 2.88173 3.3091 0
M  V30 24572 H 2565.43 0.544113 0.45767 0
M  V30 24573 H 2568.04 1.84025 0.659927 0
M  V30 24574 H 2566.74 3.5811 2.00463 0
M  V30 24575 H 2566.27 2.3319 3.16838 0
M  V30 24576 H 2568.29 2.24047 4.42739 0
M  V30 24577 N 2567.46 -0.820078 1.34583 0
M  V30 24578 C 2568.71 -1.57149 1.2644 0
M  V30 24579 C 2569.02 -1.94919 -0.163076 0
M  V30 24580 O 2570.23 -2.69013 -0.366675 0
M  V30 24581 C 2568.68 -2.83537 2.21663 0
M  V30 24582 C 2568.29 -2.53058 3.69683 0
M  V30 24583 C 2570.04 -3.61557 2.22434 0
M  V30 24584 C 2567.94 -3.75656 4.56767 0
M  V30 24585 H 2566.87 -0.589815 0.469718 0
M  V30 24586 H 2569.52 -0.902628 1.59765 0
M  V30 24587 H 2567.91 -3.52064 1.81293 0
M  V30 24588 H 2569.08 -1.92624 4.18608 0
M  V30 24589 H 2567.39 -1.88309 3.71387 0
M  V30 24590 H 2569.99 -4.52592 2.84718 0
M  V30 24591 H 2570.33 -3.97887 1.22441 0
M  V30 24592 H 2570.87 -2.99977 2.61264 0
M  V30 24593 H 2567.61 -3.44445 5.57708 0
M  V30 24594 H 2567.13 -4.35363 4.12576 0
M  V30 24595 H 2568.81 -4.43036 4.71517 0
M  V30 24596 N 2568.94 -1.18359 -1.04062 0
M  V30 24597 C 2569.89 -0.907045 -2.14186 0
M  V30 24598 C 2570.88 0.132695 -1.68879 0
M  V30 24599 O 2572.09 -0.0154565 -1.79993 0
M  V30 24600 H 2568.46 -0.275848 -0.69958 0
M  V30 24601 H 2570.43 -1.84268 -2.34708 0
M  V30 24602 C 2569.18 -0.449314 -3.44785 0
M  V30 24603 H 2568.5 -1.24088 -3.80056 0
M  V30 24604 H 2569.94 -0.294811 -4.22974 0
M  V30 24605 C 2568.4 0.834852 -3.26392 0
M  V30 24606 O 2568.93 1.89905 -3.53976 0
M  V30 24607 N 2567.14 0.787473 -2.79727 0
M  V30 24608 H 2566.69 -0.0787799 -2.5748 0
M  V30 24609 H 2566.64 1.64711 -2.67801 0
M  V30 24610 N 2570.42 1.22976 -0.98563 0
M  V30 24611 C 2571.35 2.2394 -0.488194 0
M  V30 24612 C 2572.36 1.5748 0.412792 0
M  V30 24613 O 2573.55 1.77187 0.21609 0
M  V30 24614 C 2570.65 3.37456 0.312552 0
M  V30 24615 C 2569.82 4.335 -0.582818 0
M  V30 24616 C 2568.88 5.25941 0.164972 0
M  V30 24617 O 2567.91 5.67441 -0.447177 0
M  V30 24618 N 2569.11 5.62114 1.44943 0
M  V30 24619 H 2571.87 2.67251 -1.35635 0
M  V30 24620 H 2569.44 1.37201 -0.859501 0
M  V30 24621 H 2571.43 3.96279 0.821287 0
M  V30 24622 H 2570 2.93286 1.08175 0
M  V30 24623 H 2569.22 3.73103 -1.27232 0
M  V30 24624 H 2570.51 4.9462 -1.19284 0
M  V30 24625 H 2569.9 5.30356 1.96821 0
M  V30 24626 H 2568.46 6.23386 1.9035 0
M  V30 24627 N 2571.89 0.757924 1.38178 0
M  V30 24628 C 2573.14 0.312779 1.9926 0
M  V30 24629 C 2573.46 -1.11298 1.60848 0
M  V30 24630 O 2574.66 -1.65882 2.14932 0
M  V30 24631 C 2573.12 0.508272 3.56293 0
M  V30 24632 C 2572.73 1.9434 4.03653 0
M  V30 24633 C 2574.47 0.126057 4.24313 0
M  V30 24634 C 2572.38 2.08722 5.53343 0
M  V30 24635 H 2571.31 0.113198 0.745454 0
M  V30 24636 H 2573.96 0.935084 1.57887 0
M  V30 24637 H 2572.34 -0.183284 3.95576 0
M  V30 24638 H 2573.51 2.66878 3.7565 0
M  V30 24639 H 2571.83 2.28093 3.48372 0
M  V30 24640 H 2574.43 0.212219 5.34279 0
M  V30 24641 H 2574.77 -0.921893 4.05964 0
M  V30 24642 H 2575.3 0.769631 3.90284 0
M  V30 24643 H 2572.04 3.11787 5.76601 0
M  V30 24644 H 2571.56 1.4065 5.83076 0
M  V30 24645 H 2573.24 1.87923 6.19107 0
M  V30 24646 N 2573.37 -1.4921 0.507345 0
M  V30 24647 C 2574.62 -2.0207 -0.0348484 0
M  V30 24648 C 2574.94 -1.38869 -1.36896 0
M  V30 24649 O 2574.21 -0.546184 -1.88132 0
M  V30 24650 H 2572.79 -0.746831 -0.0158681 0
M  V30 24651 H 2575.45 -1.83167 0.66603 0
M  V30 24652 H 2574.55 -3.1169 -0.159862 0
M  V30 24653 N 2574.85 -0.241454 -1.55739 0
M  V30 24654 C 2576.08 0.392076 -2.0366 0
M  V30 24655 C 2576.5 1.51142 -1.11971 0
M  V30 24656 O 2575.86 1.80956 -0.111626 0
M  V30 24657 C 2575.91 0.882309 -3.49639 0
M  V30 24658 O 2575.01 1.99229 -3.61084 0
M  V30 24659 H 2574.35 0.0862006 -0.658381 0
M  V30 24660 H 2576.88 -0.365917 -2.01301 0
M  V30 24661 H 2576.89 1.18695 -3.90353 0
M  V30 24662 H 2575.57 0.063163 -4.15852 0
M  V30 24663 H 2574.14 1.69276 -3.32265 0
M  V30 24664 N 2576.33 1.57568 0.0317248 0
M  V30 24665 C 2577.58 1.89151 0.723071 0
M  V30 24666 C 2577.9 0.838408 1.75502 0
M  V30 24667 O 2577.16 -0.160948 1.95037 0
M  V30 24668 C 2577.46 3.27475 1.43161 0
M  V30 24669 C 2577.12 4.47704 0.535893 0
M  V30 24670 C 2575.79 4.8033 0.289178 0
M  V30 24671 C 2578.14 5.21134 -0.0827041 0
M  V30 24672 C 2575.47 5.83777 -0.584956 0
M  V30 24673 C 2577.82 6.25509 -0.944524 0
M  V30 24674 C 2576.48 6.56612 -1.20073 0
M  V30 24675 H 2575.75 0.692151 0.26459 0
M  V30 24676 H 2578.4 1.91492 -0.0169833 0
M  V30 24677 H 2576.7 3.21109 2.24492 0
M  V30 24678 H 2578.4 3.49159 1.97203 0
M  V30 24679 H 2574.99 4.22193 0.738339 0
M  V30 24680 H 2579.17 4.96209 0.094943 0
M  V30 24681 H 2574.43 6.06251 -0.791787 0
M  V30 24682 H 2578.6 6.81552 -1.43038 0
M  V30 24683 H 2576.23 7.36592 -1.8798 0
M  V30 24684 N 2577.81 -0.303946 1.54641 0
M  V30 24685 C 2579.22 -0.649437 1.45789 0
M  V30 24686 C 2579.42 -1.90841 0.646693 0
M  V30 24687 O 2578.48 -2.52035 0.153227 0
M  V30 24688 C 2579.79 -0.805176 2.8972 0
M  V30 24689 C 2581.34 -0.901252 2.99744 0
M  V30 24690 C 2581.81 -1.08901 4.44865 0
M  V30 24691 N 2583.31 -1.15529 4.48561 0
M  V30 24692 C 2584.04 -1.31881 5.58028 0
M  V30 24693 N 2583.54 -1.45149 6.77424 0
M  V30 24694 N 2585.33 -1.34745 5.45711 0
M  V30 24695 H 2577.48 0.523273 2.05853 0
M  V30 24696 H 2579.74 0.172447 0.932183 0
M  V30 24697 H 2579.45 0.0489726 3.51666 0
M  V30 24698 H 2579.32 -1.69507 3.36967 0
M  V30 24699 H 2581.71 -1.74589 2.37913 0
M  V30 24700 H 2581.79 0.0125981 2.55797 0
M  V30 24701 H 2581.44 -0.249152 5.07289 0
M  V30 24702 H 2581.37 -2.01704 4.86439 0
M  V30 24703 H 2583.86 -1.06639 3.62542 0
M  V30 24704 H 2584.17 -1.57373 7.56607 0
M  V30 24705 H 2582.51 -1.42211 6.80295 0
M  V30 24706 H 2585.71 -1.23988 4.51381 0
M  V30 24707 H 2585.88 -1.47146 6.31072 0
M  V30 24708 N 2579.28 -1.47047 -0.566994 0
M  V30 24709 C 2580.52 -1.5474 -1.33547 0
M  V30 24710 C 2580.89 -0.200805 -1.90947 0
M  V30 24711 O 2582.09 -0.152536 -2.68367 0
M  V30 24712 C 2580.36 -2.62716 -2.42312 0
M  V30 24713 S 2581.92 -2.89924 -3.29377 0
M  V30 24714 H 2578.74 -0.546533 -0.454778 0
M  V30 24715 H 2581.34 -1.84372 -0.650158 0
M  V30 24716 H 2580.04 -3.59168 -1.98561 0
M  V30 24717 H 2579.57 -2.34867 -3.15597 0
M  V30 24718 H 2581.59 -2.26392 -4.41544 0
M  V30 24719 N 2580.76 0.812929 -1.35016 0
M  V30 24720 C 2581.67 1.9561 -1.29514 0
M  V30 24721 C 2582.69 1.72834 -0.201101 0
M  V30 24722 O 2583.86 1.9677 -0.429355 0
M  V30 24723 C 2580.93 3.30086 -1.06039 0
M  V30 24724 C 2579.99 3.65802 -2.24695 0
M  V30 24725 C 2579.22 4.9386 -2.02331 0
M  V30 24726 O 2579.45 5.61803 -0.986563 0
M  V30 24727 O 2578.38 5.27687 -2.89534 0
M  V30 24728 H 2582.21 2.03198 -2.25709 0
M  V30 24729 H 2579.79 0.94979 -1.15323 0
M  V30 24730 H 2581.67 4.10605 -0.947702 0
M  V30 24731 H 2580.35 3.23443 -0.128909 0
M  V30 24732 H 2579.26 2.85685 -2.41526 0
M  V30 24733 H 2580.59 3.77141 -3.16268 0
M  V30 24734 N 2582.24 1.18909 1.03433 0
M  V30 24735 C 2583.48 0.999422 1.783 0
M  V30 24736 C 2583.84 -0.462186 1.86354 0
M  V30 24737 O 2585.05 -0.771497 2.5749 0
M  V30 24738 C 2583.32 1.64371 3.17359 0
M  V30 24739 S 2584.88 1.60267 4.08485 0
M  V30 24740 H 2581.69 0.358753 0.613854 0
M  V30 24741 H 2584.3 1.51163 1.23976 0
M  V30 24742 H 2583 2.6996 3.09111 0
M  V30 24743 H 2582.53 1.13206 3.7676 0
M  V30 24744 H 2584.55 0.623019 4.92273 0
M  V30 24745 N 2583.72 -1.22452 0.992137 0
M  V30 24746 C 2585.13 -1.72967 0.702807 0
M  V30 24747 C 2585.48 -1.80013 -0.780368 0
M  V30 24748 O 2584.61 -1.44591 -1.61004 0
M  V30 24749 C 2585.2 -3.14133 1.26909 0
M  V30 24750 C 2583.76 -3.62057 1.02915 0
M  V30 24751 C 2582.91 -2.39962 1.38974 0
M  V30 24752 H 2585.86 -1.0781 1.16459 0
M  V30 24753 H 2585.88 -3.74954 0.647289 0
M  V30 24754 H 2585.39 -3.08973 2.34856 0
M  V30 24755 H 2583.49 -3.72585 -0.0337324 0
M  V30 24756 H 2583.6 -4.48228 1.69199 0
M  V30 24757 H 2581.97 -2.41533 0.808322 0
M  V30 24758 H 2582.75 -2.37463 2.47924 0
M  V30 24759 N 2585.2 -0.765242 -1.37774 0
M  V30 24760 C 2586.16 -0.153456 -2.28686 0
M  V30 24761 C 2587.16 0.635055 -1.47728 0
M  V30 24762 O 2588.35 0.459602 -1.68028 0
M  V30 24763 C 2585.48 0.790436 -3.3161 0
M  V30 24764 H 2586.67 -0.954773 -2.84296 0
M  V30 24765 H 2584.23 -0.533016 -1.46931 0
M  V30 24766 H 2584.96 1.617 -2.81111 0
M  V30 24767 H 2584.75 0.227279 -3.91441 0
M  V30 24768 H 2586.24 1.21412 -3.99561 0
M  V30 24769 N 2586.67 1.48939 -0.515251 0
M  V30 24770 C 2587.92 2.02086 0.0241316 0
M  V30 24771 C 2588.24 1.39593 1.36157 0
M  V30 24772 O 2587.51 0.556154 1.8784 0
M  V30 24773 H 2586.09 0.746905 0.0119072 0
M  V30 24774 H 2588.76 1.82811 -0.675734 0
M  V30 24775 H 2587.85 3.11771 0.143331 0
M  V30 24776 N 2588.15 0.249709 1.55609 0
M  V30 24777 C 2589.4 -0.374252 1.99012 0
M  V30 24778 C 2589.73 -1.57742 1.13788 0
M  V30 24779 O 2588.98 -1.94782 0.18936 0
M  V30 24780 C 2589.28 -0.824826 3.47752 0
M  V30 24781 C 2588.95 0.270898 4.50085 0
M  V30 24782 C 2587.61 0.57183 4.7779 0
M  V30 24783 C 2589.96 1.0105 5.1131 0
M  V30 24784 C 2587.29 1.61639 5.63994 0
M  V30 24785 C 2589.64 2.0446 5.98647 0
M  V30 24786 C 2588.31 2.35215 6.24684 0
M  V30 24787 H 2587.58 -0.136948 0.728235 0
M  V30 24788 H 2590.22 0.35812 1.88122 0
M  V30 24789 H 2588.53 -1.63645 3.55988 0
M  V30 24790 H 2590.23 -1.31793 3.78724 0
M  V30 24791 H 2586.82 0.0262114 4.28592 0
M  V30 24792 H 2591 0.791263 4.89952 0
M  V30 24793 H 2586.26 1.85998 5.82421 0
M  V30 24794 H 2590.43 2.62259 6.4513 0
M  V30 24795 H 2588.06 3.16294 6.91276 0
M  V30 24796 N 2589.63 -1.57583 -0.0233682 0
M  V30 24797 C 2590.58 -2.08025 -1.04059 0
M  V30 24798 C 2591.57 -0.995228 -1.37082 0
M  V30 24799 O 2592.78 -1.18007 -1.35921 0
M  V30 24800 H 2589.15 -0.663929 -0.353133 0
M  V30 24801 H 2591.13 -2.92521 -0.589402 0
M  V30 24802 C 2589.87 -2.57975 -2.33119 0
M  V30 24803 H 2589.2 -3.41084 -2.08571 0
M  V30 24804 H 2590.64 -2.96973 -3.02627 0
M  V30 24805 C 2589.1 -1.48348 -3.02481 0
M  V30 24806 O 2589.63 -0.852967 -3.9254 0
M  V30 24807 N 2587.83 -1.21662 -2.63906 0
M  V30 24808 H 2587.38 -1.73119 -1.90755 0
M  V30 24809 H 2587.34 -0.485272 -3.10632 0
M  V30 24810 N 2591.11 0.29574 -1.548 0
M  V30 24811 C 2592.34 1.04759 -1.78071 0
M  V30 24812 C 2592.75 1.81244 -0.542879 0
M  V30 24813 O 2592.09 1.76849 0.49702 0
M  V30 24814 C 2592.15 2.07056 -2.93885 0
M  V30 24815 C 2591.82 1.49717 -4.3178 0
M  V30 24816 C 2592.81 0.924491 -5.11614 0
M  V30 24817 C 2590.5 1.53122 -4.78392 0
M  V30 24818 C 2592.49 0.393483 -6.36184 0
M  V30 24819 C 2590.18 0.996341 -6.02923 0
M  V30 24820 C 2591.18 0.428449 -6.81655 0
M  V30 24821 O 2590.87 -0.0983006 -8.0384 0
M  V30 24822 H 2590.6 0.316216 -0.597481 0
M  V30 24823 H 2593.15 0.338938 -2.02584 0
M  V30 24824 H 2591.38 2.81616 -2.65008 0
M  V30 24825 H 2593.07 2.68184 -3.04683 0
M  V30 24826 H 2593.84 0.891052 -4.76744 0
M  V30 24827 H 2589.72 1.96263 -4.17135 0
M  V30 24828 H 2593.26 -0.050424 -6.97582 0
M  V30 24829 H 2589.16 1.02694 -6.37279 0
M  V30 24830 H 2589.92 0.0145016 -8.18499 0
M  V30 24831 N 2592.59 1.47346 0.559187 0
M  V30 24832 C 2593.54 1.60088 1.68744 0
M  V30 24833 C 2594.53 0.468278 1.62799 0
M  V30 24834 O 2595.74 0.646006 1.68008 0
M  V30 24835 H 2592.11 0.503769 0.55832 0
M  V30 24836 H 2594.08 2.54904 1.55133 0
M  V30 24837 C 2592.83 1.63048 3.07101 0
M  V30 24838 H 2592.15 2.49547 3.12356 0
M  V30 24839 H 2593.59 1.76013 3.8574 0
M  V30 24840 C 2592.05 0.363416 3.34934 0
M  V30 24841 O 2592.58 -0.536346 3.98103 0
M  V30 24842 N 2590.79 0.244051 2.89573 0
M  V30 24843 H 2590.34 0.977175 2.38346 0
M  V30 24844 H 2590.29 -0.602782 3.08567 0
M  V30 24845 N 2594.07 -0.805758 1.35445 0
M  V30 24846 C 2595.29 -1.59938 1.3204 0
M  V30 24847 C 2595.72 -1.87837 -0.0993885 0
M  V30 24848 O 2595.07 -1.46617 -1.06645 0
M  V30 24849 C 2595.12 -2.90707 2.13359 0
M  V30 24850 O 2594.23 -3.83569 1.51487 0
M  V30 24851 H 2593.57 -0.485779 0.452675 0
M  V30 24852 H 2596.1 -0.999987 1.78498 0
M  V30 24853 H 2596.11 -3.40124 2.25344 0
M  V30 24854 H 2594.78 -2.69726 3.16577 0
M  V30 24855 H 2593.36 -3.42122 1.48346 0
M  V30 24856 N 2595.54 -1.19456 -1.02801 0
M  V30 24857 C 2596.79 -0.992027 -1.75618 0
M  V30 24858 C 2597.11 0.477867 -1.89673 0
M  V30 24859 O 2598.31 0.799241 -2.59469 0
M  V30 24860 C 2596.77 -1.72606 -3.15809 0
M  V30 24861 C 2596.38 -3.23612 -3.09805 0
M  V30 24862 C 2598.12 -1.6068 -3.92915 0
M  V30 24863 C 2596.03 -3.89601 -4.44932 0
M  V30 24864 H 2594.96 -0.367555 -0.658346 0
M  V30 24865 H 2597.61 -1.42961 -1.15041 0
M  V30 24866 H 2595.99 -1.2163 -3.76858 0
M  V30 24867 H 2597.16 -3.81713 -2.58131 0
M  V30 24868 H 2595.48 -3.35823 -2.46195 0
M  V30 24869 H 2598.08 -2.07332 -4.92867 0
M  V30 24870 H 2598.42 -0.561098 -4.12501 0
M  V30 24871 H 2598.95 -2.09007 -3.38469 0
M  V30 24872 H 2595.69 -4.94274 -4.3055 0
M  V30 24873 H 2595.21 -3.36289 -4.96658 0
M  V30 24874 H 2596.89 -3.93199 -5.13813 0
M  V30 24875 N 2597.02 1.21924 -0.998617 0
M  V30 24876 C 2597.95 2.26342 -0.573728 0
M  V30 24877 C 2598.93 1.65275 0.402267 0
M  V30 24878 O 2600.12 1.91998 0.291649 0
M  V30 24879 C 2597.25 3.47136 0.106778 0
M  V30 24880 C 2596.2 4.20677 -0.788342 0
M  V30 24881 C 2595.53 5.34694 0.0253987 0
M  V30 24882 C 2596.83 4.78752 -2.08792 0
M  V30 24883 H 2598.52 2.62136 -1.44655 0
M  V30 24884 H 2596.07 1.26008 -0.696998 0
M  V30 24885 H 2598.02 4.19347 0.415457 0
M  V30 24886 H 2596.74 3.10454 1.01419 0
M  V30 24887 H 2595.4 3.50308 -1.08075 0
M  V30 24888 H 2595.05 4.94254 0.933902 0
M  V30 24889 H 2594.75 5.84824 -0.57054 0
M  V30 24890 H 2596.28 6.09718 0.32804 0
M  V30 24891 H 2597.69 5.42875 -1.84282 0
M  V30 24892 H 2596.09 5.39244 -2.63317 0
M  V30 24893 H 2597.16 3.98486 -2.76291 0
M  V30 24894 N 2598.5 0.772537 1.37367 0
M  V30 24895 C 2599.43 0.173345 2.32856 0
M  V30 24896 C 2600.41 -0.682234 1.55819 0
M  V30 24897 O 2601.6 -0.619534 1.84053 0
M  V30 24898 C 2598.73 -0.705947 3.4005 0
M  V30 24899 C 2597.68 0.0483896 4.27973 0
M  V30 24900 C 2597.01 -0.950399 5.26186 0
M  V30 24901 C 2598.31 1.22785 5.07662 0
M  V30 24902 H 2600 0.971052 2.83215 0
M  V30 24903 H 2597.55 0.468401 1.36169 0
M  V30 24904 H 2599.5 -1.13494 4.05829 0
M  V30 24905 H 2598.22 -1.53618 2.88217 0
M  V30 24906 H 2596.88 0.458171 3.63726 0
M  V30 24907 H 2596.53 -1.7752 4.70633 0
M  V30 24908 H 2596.23 -0.450211 5.85873 0
M  V30 24909 H 2597.75 -1.37832 5.9484 0
M  V30 24910 H 2599.17 0.875466 5.66576 0
M  V30 24911 H 2597.56 1.66018 5.76679 0
M  V30 24912 H 2598.63 2.03157 4.4029 0
M  V30 24913 N 2599.98 -1.48664 0.523142 0
M  V30 24914 C 2600.94 -2.28017 -0.232552 0
M  V30 24915 C 2601.94 -1.34974 -0.873997 0
M  V30 24916 O 2603.13 -1.5793 -0.735104 0
M  V30 24917 C 2600.26 -3.13638 -1.3358 0
M  V30 24918 H 2601.46 -2.96288 0.46406 0
M  V30 24919 H 2599.01 -1.53793 0.278843 0
M  V30 24920 H 2599.74 -2.49983 -2.06588 0
M  V30 24921 H 2599.53 -3.82073 -0.881057 0
M  V30 24922 H 2601.02 -3.73515 -1.86753 0
M  V30 24923 N 2601.46 -0.257958 -1.55475 0
M  V30 24924 C 2602.7 0.365094 -2.01113 0
M  V30 24925 C 2603.06 1.54321 -1.14232 0
M  V30 24926 O 2604.26 2.23474 -1.49375 0
M  V30 24927 C 2602.53 0.754055 -3.49355 0
M  V30 24928 S 2604.09 1.36607 -4.16994 0
M  V30 24929 H 2600.91 0.114385 -0.701739 0
M  V30 24930 H 2603.51 -0.375781 -1.91854 0
M  V30 24931 H 2602.21 -0.112513 -4.10246 0
M  V30 24932 H 2601.75 1.52683 -3.62562 0
M  V30 24933 H 2603.76 2.65498 -4.19196 0
M  V30 24934 N 2602.93 1.57593 0.0150108 0
M  V30 24935 C 2603.84 2.10884 1.02787 0
M  V30 24936 C 2604.86 1.05063 1.387 0
M  V30 24937 O 2606.04 1.36879 1.47736 0
M  V30 24938 C 2603.1 2.58923 2.30564 0
M  V30 24939 C 2602.16 3.79284 2.01102 0
M  V30 24940 C 2601.4 4.25023 3.22786 0
M  V30 24941 O 2601.62 3.70191 4.33953 0
M  V30 24942 O 2600.55 5.17327 3.07662 0
M  V30 24943 H 2604.38 2.97615 0.604921 0
M  V30 24944 H 2601.96 1.47574 0.232894 0
M  V30 24945 H 2603.85 2.90089 3.05657 0
M  V30 24946 H 2602.52 1.75297 2.72126 0
M  V30 24947 H 2601.43 3.53116 1.23531 0
M  V30 24948 H 2602.76 4.63938 1.64386 0
M  V30 24949 N 2604.41 -0.287527 1.54955 0
M  V30 24950 C 2605.69 -1.04143 1.6557 0
M  V30 24951 C 2606.07 -2.04779 0.512708 0
M  V30 24952 O 2605.42 -2.23206 -0.488999 0
M  V30 24953 C 2605.63 -1.71125 3.04166 0
M  V30 24954 C 2606.98 -2.22826 3.61433 0
M  V30 24955 O 2608 -1.81136 3.06705 0
M  V30 24956 O 2606.86 -2.99252 4.57286 0
M  V30 24957 H 2603.95 -0.482176 0.671889 0
M  V30 24958 H 2606.5 -0.284541 1.67298 0
M  V30 24959 H 2605.27 -0.981236 3.78797 0
M  V30 24960 H 2604.89 -2.53537 3.06275 0
M  V30 24961 N 2605.89 -1.47641 -0.551365 0
M  V30 24962 C 2607.14 -1.54794 -1.31021 0
M  V30 24963 C 2607.47 -0.212001 -1.93039 0
M  V30 24964 O 2606.74 0.779959 -1.78177 0
M  V30 24965 C 2607.03 -2.67034 -2.41589 0
M  V30 24966 C 2606.88 -4.10264 -1.84401 0
M  V30 24967 C 2608.2 -2.75149 -3.43483 0
M  V30 24968 H 2605.32 -0.563493 -0.475021 0
M  V30 24969 H 2607.96 -1.79723 -0.616423 0
M  V30 24970 H 2606.11 -2.45909 -3.00767 0
M  V30 24971 H 2607.78 -4.42768 -1.29438 0
M  V30 24972 H 2606.03 -4.18267 -1.15044 0
M  V30 24973 H 2606.7 -4.84581 -2.64358 0
M  V30 24974 H 2609.17 -2.94223 -2.94231 0
M  V30 24975 H 2608.05 -3.55448 -4.18268 0
M  V30 24976 H 2608.31 -1.82442 -4.027 0
M  V30 24977 N 2607.37 0.798563 -1.3587 0
M  V30 24978 C 2608.65 1.5435 -1.20148 0
M  V30 24979 C 2609.03 2.09991 0.216124 0
M  V30 24980 O 2608.37 1.93165 1.22064 0
M  V30 24981 C 2608.58 2.64568 -2.27607 0
M  V30 24982 C 2609.93 3.32694 -2.63817 0
M  V30 24983 O 2610.96 2.74845 -2.26581 0
M  V30 24984 O 2609.81 4.3722 -3.27874 0
M  V30 24985 H 2606.91 0.682347 -0.46726 0
M  V30 24986 H 2609.45 0.837833 -1.47575 0
M  V30 24987 H 2608.23 2.21382 -3.22654 0
M  V30 24988 H 2607.85 3.42762 -2.01494 0
M  V30 24989 N 2608.85 1.19999 1.02166 0
M  V30 24990 C 2609.76 0.959811 2.14067 0
M  V30 24991 C 2610.77 -0.0826244 1.73804 0
M  V30 24992 O 2611.95 0.103669 2.01133 0
M  V30 24993 C 2609.01 0.509519 3.42936 0
M  V30 24994 C 2608.07 1.6222 3.97471 0
M  V30 24995 C 2607.31 1.1933 5.20188 0
M  V30 24996 O 2607.53 0.0598729 5.70369 0
M  V30 24997 O 2606.46 1.99873 5.67745 0
M  V30 24998 H 2610.29 1.89662 2.37196 0
M  V30 24999 H 2607.88 0.983431 1.12468 0
M  V30 25000 H 2609.76 0.267396 4.20551 0
M  V30 25001 H 2608.43 -0.398764 3.21234 0
M  V30 25002 H 2607.34 1.91856 3.21158 0
M  V30 25003 H 2608.67 2.50731 4.2355 0
M  V30 25004 N 2610.32 -1.21392 1.00507 0
M  V30 25005 C 2611.56 -1.92179 0.696183 0
M  V30 25006 C 2611.93 -1.76358 -0.759068 0
M  V30 25007 O 2613.13 -2.41518 -1.17994 0
M  V30 25008 C 2611.4 -3.39864 1.10577 0
M  V30 25009 S 2612.96 -4.29109 0.917096 0
M  V30 25010 H 2609.78 -0.664022 0.254158 0
M  V30 25011 H 2612.38 -1.46907 1.28991 0
M  V30 25012 H 2611.08 -3.48896 2.16102 0
M  V30 25013 H 2610.61 -3.90154 0.504336 0
M  V30 25014 H 2612.63 -4.95852 -0.185768 0
M  V30 25015 N 2611.8 -0.779811 -1.36955 0
M  V30 25016 C 2613.05 -0.347114 -1.99097 0
M  V30 25017 C 2613.37 1.08229 -1.62208 0
M  V30 25018 O 2612.64 1.74444 -0.891404 0
M  V30 25019 H 2611.22 -0.125355 -0.736407 0
M  V30 25020 H 2613.88 -0.999726 -1.67307 0
M  V30 25021 H 2612.98 -0.431216 -3.09107 0
M  V30 25022 N 2613.28 1.48384 -0.531019 0
M  V30 25023 C 2614.51 2.074 0.000693079 0
M  V30 25024 C 2614.93 1.38482 1.27296 0
M  V30 25025 O 2614.29 0.451111 1.75598 0
M  V30 25026 C 2614.34 3.60007 0.206634 0
M  V30 25027 O 2613.44 3.92193 1.27507 0
M  V30 25028 H 2612.78 0.662818 -0.0395946 0
M  V30 25029 H 2615.31 1.90779 -0.739228 0
M  V30 25030 H 2615.32 4.05739 0.428969 0
M  V30 25031 H 2614 4.09572 -0.722747 0
M  V30 25032 H 2612.57 3.5824 1.03531 0
M  V30 25033 N 2614.76 0.2662 1.55336 0
M  V30 25034 C 2616.17 -0.0881785 1.59356 0
M  V30 25035 C 2616.37 -1.5534 1.28343 0
M  V30 25036 O 2615.43 -2.30087 1.04 0
M  V30 25037 C 2616.74 0.278416 2.99408 0
M  V30 25038 C 2618.29 0.224298 3.12195 0
M  V30 25039 C 2618.77 0.565203 4.54499 0
M  V30 25040 N 2620.26 0.516421 4.60312 0
M  V30 25041 C 2620.99 0.753113 5.68433 0
M  V30 25042 N 2620.49 1.05395 6.84736 0
M  V30 25043 N 2622.28 0.682512 5.57941 0
M  V30 25044 H 2614.43 1.22151 1.73761 0
M  V30 25045 H 2616.7 0.492856 0.809813 0
M  V30 25046 H 2616.4 1.29708 3.26908 0
M  V30 25047 H 2616.28 -0.38512 3.75229 0
M  V30 25048 H 2618.66 -0.78507 2.84466 0
M  V30 25049 H 2618.74 0.921964 2.38607 0
M  V30 25050 H 2618.39 1.57222 4.82953 0
M  V30 25051 H 2618.32 -0.154155 5.26374 0
M  V30 25052 H 2620.81 0.293416 3.76759 0
M  V30 25053 H 2621.12 1.22146 7.63086 0
M  V30 25054 H 2619.47 1.09163 6.86373 0
M  V30 25055 H 2622.66 0.447391 4.65957 0
M  V30 25056 H 2622.83 0.870361 6.42128 0
M  V30 25057 N 2616.24 -1.57599 -0.0066531 0
M  V30 25058 C 2617.15 -2.11426 -1.01667 0
M  V30 25059 C 2618.16 -1.05797 -1.38141 0
M  V30 25060 O 2619.34 -1.37661 -1.47008 0
M  V30 25061 C 2616.4 -2.60143 -2.29187 0
M  V30 25062 C 2615.46 -3.80346 -1.99087 0
M  V30 25063 C 2614.7 -4.26729 -3.20528 0
M  V30 25064 O 2614.92 -3.72487 -4.31984 0
M  V30 25065 O 2613.85 -5.18952 -3.04915 0
M  V30 25066 H 2617.68 -2.97931 -0.589129 0
M  V30 25067 H 2615.27 -1.47695 -0.225065 0
M  V30 25068 H 2617.15 -2.91706 -3.04115 0
M  V30 25069 H 2615.82 -1.76738 -2.71192 0
M  V30 25070 H 2614.73 -3.53766 -1.21657 0
M  V30 25071 H 2616.06 -4.64803 -1.61923 0
M  V30 25072 N 2617.72 0.279305 -1.55105 0
M  V30 25073 C 2618.94 1.03442 -1.79762 0
M  V30 25074 C 2619.37 1.79383 -0.565984 0
M  V30 25075 O 2618.72 1.74714 0.484229 0
M  V30 25076 C 2618.77 1.97366 -3.01793 0
M  V30 25077 O 2617.88 3.06033 -2.76437 0
M  V30 25078 H 2617.22 0.296069 -0.594339 0
M  V30 25079 H 2619.75 0.31013 -2.02236 0
M  V30 25080 H 2619.76 2.39436 -3.30355 0
M  V30 25081 H 2618.43 1.41503 -3.91088 0
M  V30 25082 H 2617.01 2.68323 -2.58954 0
M  V30 25083 N 2619.19 1.47931 0.543528 0
M  V30 25084 C 2620.6 1.48955 1.12558 0
M  V30 25085 C 2620.96 0.251788 1.94578 0
M  V30 25086 O 2620.08 -0.642219 2.06651 0
M  V30 25087 C 2620.68 2.69896 2.04797 0
M  V30 25088 C 2619.23 2.73835 2.58246 0
M  V30 25089 C 2618.38 2.42268 1.34914 0
M  V30 25090 H 2621.33 1.55243 0.329443 0
M  V30 25091 H 2621.35 2.47644 2.88882 0
M  V30 25092 H 2620.87 3.59965 1.45074 0
M  V30 25093 H 2618.97 1.8794 3.21729 0
M  V30 25094 H 2619.08 3.74901 2.98306 0
M  V30 25095 H 2617.44 1.93137 1.66043 0
M  V30 25096 H 2618.23 3.34562 0.769634 0
M  V30 25097 N 2620.67 -0.791347 1.36292 0
M  V30 25098 C 2621.91 -1.56236 1.31794 0
M  V30 25099 C 2622.28 -1.91728 -0.102204 0
M  V30 25100 O 2623.48 -2.67423 -0.271712 0
M  V30 25101 C 2621.75 -2.80638 2.21308 0
M  V30 25102 S 2623.31 -3.709 2.34475 0
M  V30 25103 H 2620.12 -0.535122 0.468151 0
M  V30 25104 H 2622.73 -0.932216 1.71843 0
M  V30 25105 H 2621.43 -2.52612 3.23443 0
M  V30 25106 H 2620.96 -3.48626 1.82272 0
M  V30 25107 H 2622.98 -4.71671 1.54082 0
M  V30 25108 N 2622.15 -1.2054 -1.01528 0
M  V30 25109 C 2623.08 -0.913192 -2.10222 0
M  V30 25110 C 2624.09 0.0995712 -1.62495 0
M  V30 25111 O 2625.28 -0.131614 -1.78014 0
M  V30 25112 C 2622.38 -0.347776 -3.37111 0
M  V30 25113 C 2621.56 -1.4124 -4.13969 0
M  V30 25114 C 2620.62 -0.858067 -5.19157 0
M  V30 25115 O 2619.64 -1.53907 -5.47997 0
M  V30 25116 N 2620.84 0.331864 -5.79551 0
M  V30 25117 H 2623.61 -1.84885 -2.35876 0
M  V30 25118 H 2621.17 -1.10925 -1.17929 0
M  V30 25119 H 2623.16 0.0372314 -4.04683 0
M  V30 25120 H 2621.73 0.492473 -3.08696 0
M  V30 25121 H 2620.95 -1.97169 -3.41348 0
M  V30 25122 H 2622.24 -2.12936 -4.62099 0
M  V30 25123 H 2621.64 0.902379 -5.58456 0
M  V30 25124 H 2620.19 0.658496 -6.48465 0
M  V30 25125 N 2623.63 1.20858 -1.01149 0
M  V30 25126 C 2624.56 2.22854 -0.535585 0
M  V30 25127 C 2625.57 1.5832 0.379296 0
M  V30 25128 O 2626.76 1.77606 0.178458 0
M  V30 25129 C 2623.86 3.38043 0.240902 0
M  V30 25130 C 2623.03 4.32166 -0.674638 0
M  V30 25131 C 2622.09 5.26173 0.0533745 0
M  V30 25132 O 2621.12 5.66365 -0.567439 0
M  V30 25133 N 2622.32 5.65062 1.32987 0
M  V30 25134 H 2625.09 2.64314 -1.41273 0
M  V30 25135 H 2622.65 1.35347 -0.88841 0
M  V30 25136 H 2624.64 3.97932 0.737046 0
M  V30 25137 H 2623.21 2.95515 1.0193 0
M  V30 25138 H 2622.43 3.7032 -1.35117 0
M  V30 25139 H 2623.72 4.91978 -1.29748 0
M  V30 25140 H 2623.12 5.34412 1.85527 0
M  V30 25141 H 2621.67 6.27283 1.77084 0
M  V30 25142 N 2625.11 0.787064 1.3654 0
M  V30 25143 C 2626.05 0.171765 2.31965 0
M  V30 25144 C 2627.05 -0.667604 1.5569 0
M  V30 25145 O 2628.25 -0.562951 1.7097 0
M  V30 25146 H 2624.63 0.0367677 0.751101 0
M  V30 25147 H 2626.6 0.992066 2.81426 0
M  V30 25148 C 2625.35 -0.680845 3.40969 0
M  V30 25149 H 2624.67 -0.0443259 3.99775 0
M  V30 25150 H 2626.11 -1.07808 4.10065 0
M  V30 25151 C 2624.57 -1.83808 2.82341 0
M  V30 25152 O 2625.1 -2.93451 2.74316 0
M  V30 25153 N 2623.31 -1.64346 2.39664 0
M  V30 25154 H 2622.85 -0.751625 2.46391 0
M  V30 25155 H 2622.81 -2.41937 2.00783 0
M  V30 25156 N 2626.58 -1.48101 0.53888 0
M  V30 25157 C 2627.55 -2.28251 -0.208355 0
M  V30 25158 C 2628.55 -1.35893 -0.859632 0
M  V30 25159 O 2629.74 -1.58701 -0.718312 0
M  V30 25160 C 2626.87 -3.15038 -1.30246 0
M  V30 25161 H 2628.06 -2.95779 0.495459 0
M  V30 25162 H 2625.61 -1.53488 0.295139 0
M  V30 25163 H 2626.35 -2.52161 -2.03925 0
M  V30 25164 H 2626.13 -3.82986 -0.840484 0
M  V30 25165 H 2627.62 -3.75474 -1.8278 0
M  V30 25166 N 2628.06 -0.274434 -1.55192 0
M  V30 25167 C 2629.34 0.394298 -1.91585 0
M  V30 25168 C 2629.72 1.73772 -1.19861 0
M  V30 25169 O 2629.07 2.26173 -0.325239 0
M  V30 25170 C 2629.28 0.53525 -3.44871 0
M  V30 25171 C 2630.62 0.818461 -4.16637 0
M  V30 25172 O 2631.65 0.620084 -3.50761 0
M  V30 25173 O 2630.51 1.19782 -5.33211 0
M  V30 25174 H 2627.6 0.21578 -0.798353 0
M  V30 25175 H 2630.15 -0.320536 -1.66645 0
M  V30 25176 H 2628.92 -0.410209 -3.89144 0
M  V30 25177 H 2628.54 1.29958 -3.75762 0
M  V30 25178 N 2629.54 1.576 -0.00170483 0
M  V30 25179 C 2630.78 1.92499 0.687268 0
M  V30 25180 C 2631.14 0.876174 1.70843 0
M  V30 25181 O 2632.34 1.11047 2.4479 0
M  V30 25182 C 2630.62 3.32443 1.31211 0
M  V30 25183 S 2632.17 3.8923 2.02597 0
M  V30 25184 H 2628.99 0.673798 0.226973 0
M  V30 25185 H 2631.59 1.95412 -0.0588009 0
M  V30 25186 H 2630.3 4.06615 0.556093 0
M  V30 25187 H 2629.83 3.32909 2.09608 0
M  V30 25188 H 2631.84 3.70444 3.3013 0
M  V30 25189 N 2631.02 -0.271076 1.55251 0
M  V30 25190 C 2632.27 -1.00021 1.75153 0
M  V30 25191 C 2632.58 -1.8738 0.561074 0
M  V30 25192 O 2633.79 -2.63787 0.642552 0
M  V30 25193 C 2632.24 -1.82829 3.10002 0
M  V30 25194 C 2631.85 -1.00328 4.36621 0
M  V30 25195 C 2633.59 -2.55162 3.39253 0
M  V30 25196 C 2631.5 -1.82585 5.62509 0
M  V30 25197 H 2630.43 -0.377172 0.652884 0
M  V30 25198 H 2633.08 -0.255811 1.81708 0
M  V30 25199 H 2631.46 -2.61373 2.9749 0
M  V30 25200 H 2632.64 -0.261879 4.60055 0
M  V30 25201 H 2630.95 -0.394413 4.14528 0
M  V30 25202 H 2633.55 -3.17113 4.30516 0
M  V30 25203 H 2633.89 -3.25545 2.59473 0
M  V30 25204 H 2634.43 -1.83647 3.52872 0
M  V30 25205 H 2631.16 -1.1662 6.45043 0
M  V30 25206 H 2630.68 -2.54318 5.43215 0
M  V30 25207 H 2632.36 -2.39903 6.00879 0
M  V30 25208 N 2632.5 -1.48217 -0.535675 0
M  V30 25209 C 2633.44 -1.62752 -1.66176 0
M  V30 25210 C 2634.44 -0.494119 -1.62033 0
M  V30 25211 O 2635.64 -0.672653 -1.66959 0
M  V30 25212 H 2632.02 -0.512587 -0.550235 0
M  V30 25213 H 2633.99 -2.5734 -1.51059 0
M  V30 25214 C 2632.74 -1.67913 -3.04468 0
M  V30 25215 H 2632.06 -2.54485 -3.08347 0
M  V30 25216 H 2633.5 -1.82128 -3.82891 0
M  V30 25217 C 2631.96 -0.416655 -3.34314 0
M  V30 25218 O 2632.49 0.472944 -3.98906 0
M  V30 25219 N 2630.7 -0.290089 -2.89148 0
M  V30 25220 H 2630.24 -1.01497 -2.36762 0
M  V30 25221 H 2630.2 0.553616 -3.09487 0
M  V30 25222 N 2633.97 0.784108 -1.3671 0
M  V30 25223 C 2635.22 1.53742 -1.30562 0
M  V30 25224 C 2635.54 1.95283 0.11134 0
M  V30 25225 O 2636.74 2.6989 0.295222 0
M  V30 25226 C 2635.2 2.77561 -2.29103 0
M  V30 25227 C 2634.81 2.43168 -3.76263 0
M  V30 25228 C 2636.55 3.55532 -2.31942 0
M  V30 25229 C 2634.46 3.63414 -4.66566 0
M  V30 25230 H 2633.39 0.577154 -0.48519 0
M  V30 25231 H 2636.04 0.859952 -1.62102 0
M  V30 25232 H 2634.42 3.47133 -1.90564 0
M  V30 25233 H 2635.59 1.81458 -4.23568 0
M  V30 25234 H 2633.91 1.78396 -3.7625 0
M  V30 25235 H 2636.51 4.44884 -2.96618 0
M  V30 25236 H 2636.85 3.94501 -1.32947 0
M  V30 25237 H 2637.38 2.92944 -2.69126 0
M  V30 25238 H 2634.12 3.29537 -5.66644 0
M  V30 25239 H 2633.64 4.24272 -4.23974 0
M  V30 25240 H 2635.32 4.30378 -4.83098 0
M  V30 25241 N 2635.45 1.21076 1.00888 0
M  V30 25242 C 2636.86 1.02488 1.56055 0
M  V30 25243 C 2637.21 -0.416472 1.91729 0
M  V30 25244 O 2636.34 -1.29908 1.73069 0
M  V30 25245 C 2636.93 1.85416 2.8356 0
M  V30 25246 C 2635.49 1.71172 3.35227 0
M  V30 25247 C 2634.64 1.82869 2.08457 0
M  V30 25248 H 2637.59 1.35155 0.831794 0
M  V30 25249 H 2637.61 1.36211 3.55284 0
M  V30 25250 H 2637.12 2.90314 2.57564 0
M  V30 25251 H 2635.23 0.689425 3.66166 0
M  V30 25252 H 2635.34 2.52908 4.06908 0
M  V30 25253 H 2633.7 1.26136 2.21273 0
M  V30 25254 H 2634.49 2.89266 1.84878 0
M  V30 25255 N 2636.93 -1.2032 1.01789 0
M  V30 25256 C 2638.18 -1.89346 0.706571 0
M  V30 25257 C 2638.5 -1.79314 -0.766258 0
M  V30 25258 O 2637.77 -1.19638 -1.55124 0
M  V30 25259 H 2636.35 -0.700899 0.258361 0
M  V30 25260 H 2639.01 -1.4612 1.28976 0
M  V30 25261 H 2638.11 -2.95945 0.991118 0
M  V30 25262 N 2638.41 -0.794293 -1.3612 0
M  V30 25263 C 2639.63 -0.379907 -2.03891 0
M  V30 25264 C 2640.06 0.997223 -1.5949 0
M  V30 25265 O 2639.42 1.64338 -0.765681 0
M  V30 25266 C 2639.46 -0.457505 -3.57686 0
M  V30 25267 O 2638.57 0.533728 -4.08932 0
M  V30 25268 H 2637.91 -0.160552 -0.644297 0
M  V30 25269 H 2640.44 -1.07676 -1.73974 0
M  V30 25270 H 2640.45 -0.322864 -4.06721 0
M  V30 25271 H 2639.12 -1.46206 -3.89354 0
M  V30 25272 H 2637.7 0.360344 -3.71155 0
M  V30 25273 N 2639.89 1.47813 -0.546727 0
M  V30 25274 C 2641.12 2.06587 -0.0232882 0
M  V30 25275 C 2641.52 1.40135 1.27117 0
M  V30 25276 O 2640.87 0.488337 1.7709 0
M  V30 25277 C 2640.93 3.58601 0.254054 0
M  V30 25278 C 2640.59 4.47029 -0.949409 0
M  V30 25279 C 2641.59 4.85786 -1.85225 0
M  V30 25280 C 2639.28 4.88695 -1.16113 0
M  V30 25281 C 2641.27 5.64996 -2.95057 0
M  V30 25282 C 2638.96 5.67672 -2.26256 0
M  V30 25283 C 2639.95 6.05732 -3.1556 0
M  V30 25284 O 2639.64 6.8312 -4.23796 0
M  V30 25285 H 2639.37 0.67493 -0.03802 0
M  V30 25286 H 2641.93 1.90955 -0.756665 0
M  V30 25287 H 2640.16 3.72407 1.04161 0
M  V30 25288 H 2641.85 3.99434 0.721599 0
M  V30 25289 H 2642.61 4.54204 -1.70069 0
M  V30 25290 H 2638.49 4.58544 -0.47524 0
M  V30 25291 H 2642.04 5.94622 -3.64789 0
M  V30 25292 H 2637.93 5.98666 -2.4139 0
M  V30 25293 H 2638.7 7.01499 -4.21713 0
M  V30 25294 N 2641.36 0.28266 1.55044 0
M  V30 25295 C 2642.78 -0.0712717 1.59441 0
M  V30 25296 C 2642.98 -1.5397 1.29983 0
M  V30 25297 O 2642.04 -2.28971 1.06435 0
M  V30 25298 C 2643.35 0.310157 2.99096 0
M  V30 25299 C 2644.9 0.257398 3.1194 0
M  V30 25300 C 2645.37 0.613377 4.53874 0
M  V30 25301 N 2646.86 0.565214 4.59739 0
M  V30 25302 C 2647.6 0.81336 5.67602 0
M  V30 25303 N 2647.09 1.12652 6.8358 0
M  V30 25304 N 2648.89 0.741651 5.57186 0
M  V30 25305 H 2641.04 1.23987 1.72456 0
M  V30 25306 H 2643.3 0.501417 0.80454 0
M  V30 25307 H 2643.01 1.33168 3.25514 0
M  V30 25308 H 2642.88 -0.3453 3.75616 0
M  V30 25309 H 2645.27 -0.754855 2.85282 0
M  V30 25310 H 2645.35 0.94722 2.37616 0
M  V30 25311 H 2644.99 1.62335 4.81258 0
M  V30 25312 H 2644.92 -0.0983174 5.26508 0
M  V30 25313 H 2647.41 0.33336 3.76427 0
M  V30 25314 H 2647.73 1.30233 7.61748 0
M  V30 25315 H 2646.07 1.16437 6.85177 0
M  V30 25316 H 2649.26 0.496787 4.65456 0
M  V30 25317 H 2649.44 0.938418 6.41169 0
M  V30 25318 N 2642.84 -1.57597 0.0100627 0
M  V30 25319 C 2644.08 -1.92861 -0.67705 0
M  V30 25320 C 2644.45 -0.885222 -1.70376 0
M  V30 25321 O 2645.65 -1.12343 -2.44197 0
M  V30 25322 C 2643.92 -3.33134 -1.29446 0
M  V30 25323 S 2645.48 -3.90299 -2.0053 0
M  V30 25324 H 2642.3 -0.674992 -0.223397 0
M  V30 25325 H 2644.9 -1.95378 0.0691633 0
M  V30 25326 H 2643.6 -4.06904 -0.534521 0
M  V30 25327 H 2643.13 -3.34016 -2.07839 0
M  V30 25328 H 2645.15 -3.72189 -3.28161 0
M  V30 25329 N 2644.32 0.262839 -1.55393 0
M  V30 25330 C 2645.27 1.32513 -1.88968 0
M  V30 25331 C 2646.24 1.48595 -0.742213 0
M  V30 25332 O 2647.42 1.62837 -0.994419 0
M  V30 25333 C 2644.56 2.67854 -2.17596 0
M  V30 25334 C 2643.68 2.59911 -3.45066 0
M  V30 25335 C 2642.81 3.87499 -3.63343 0
M  V30 25336 C 2641.85 3.74107 -4.84469 0
M  V30 25337 N 2640.99 4.93552 -4.9935 0
M  V30 25338 H 2645.83 1.03179 -2.79568 0
M  V30 25339 H 2643.36 0.498261 -1.38404 0
M  V30 25340 H 2645.32 3.46613 -2.32196 0
M  V30 25341 H 2643.95 2.95369 -1.3022 0
M  V30 25342 H 2643 1.72806 -3.38884 0
M  V30 25343 H 2644.32 2.45919 -4.33965 0
M  V30 25344 H 2643.47 4.747 -3.77815 0
M  V30 25345 H 2642.21 4.04369 -2.72648 0
M  V30 25346 H 2641.21 2.85289 -4.6999 0
M  V30 25347 H 2642.44 3.58746 -5.76609 0
M  V30 25348 H 2640.38 5.10814 -4.11589 0
M  V30 25349 H 2640.3 4.8213 -5.82311 0
M  V30 25350 H 2641.57 5.82297 -5.18218 0
M  V30 25351 N 2645.8 1.48499 0.527807 0
M  V30 25352 C 2647.04 1.58226 1.29398 0
M  V30 25353 C 2647.4 0.251361 1.90348 0
M  V30 25354 O 2648.6 0.223635 2.67868 0
M  V30 25355 C 2646.87 2.69048 2.35261 0
M  V30 25356 S 2648.43 2.98555 3.21575 0
M  V30 25357 H 2645.25 0.558398 0.440128 0
M  V30 25358 H 2647.85 1.86031 0.601047 0
M  V30 25359 H 2646.56 3.64306 1.88969 0
M  V30 25360 H 2646.09 2.43151 3.09259 0
M  V30 25361 H 2648.1 2.38019 4.35387 0
M  V30 25362 N 2647.28 -0.776847 1.37123 0
M  V30 25363 C 2648.51 -1.56588 1.35233 0
M  V30 25364 C 2648.92 -1.88693 -0.0635186 0
M  V30 25365 O 2648.28 -1.51071 -1.02391 0
M  V30 25366 C 2648.33 -2.87926 2.18588 0
M  V30 25367 O 2648.05 -2.57199 3.54655 0
M  V30 25368 C 2649.55 -3.82179 2.24619 0
M  V30 25369 H 2646.77 -0.485277 0.463408 0
M  V30 25370 H 2649.31 -0.963235 1.80394 0
M  V30 25371 H 2647.47 -3.44627 1.76949 0
M  V30 25372 H 2647.88 -3.41268 3.98292 0
M  V30 25373 H 2649.36 -4.71356 2.87275 0
M  V30 25374 H 2649.83 -4.20942 1.25317 0
M  V30 25375 H 2650.44 -3.31409 2.66548 0
M  V30 25376 N 2648.76 -1.2161 -1.00244 0
M  V30 25377 C 2650.17 -0.973998 -1.26434 0
M  V30 25378 C 2650.37 0.338109 -1.98643 0
M  V30 25379 O 2649.43 1.06313 -2.29028 0
M  V30 25380 C 2650.74 -2.1663 -2.08547 0
M  V30 25381 C 2652.29 -2.20883 -2.21765 0
M  V30 25382 C 2652.76 -3.39639 -3.07261 0
M  V30 25383 N 2654.25 -3.39741 -3.14849 0
M  V30 25384 C 2654.99 -4.2828 -3.81266 0
M  V30 25385 N 2654.49 -5.2702 -4.49691 0
M  V30 25386 N 2656.28 -4.16081 -3.77932 0
M  V30 25387 H 2648.43 -2.05985 -0.518053 0
M  V30 25388 H 2650.69 -0.902119 -0.291352 0
M  V30 25389 H 2650.4 -3.1173 -1.62841 0
M  V30 25390 H 2650.27 -2.15902 -3.09299 0
M  V30 25391 H 2652.66 -1.26337 -2.66689 0
M  V30 25392 H 2652.74 -2.25654 -1.20474 0
M  V30 25393 H 2652.38 -4.3448 -2.63039 0
M  V30 25394 H 2652.31 -3.32107 -4.08672 0
M  V30 25395 H 2654.81 -2.68285 -2.66142 0
M  V30 25396 H 2655.12 -5.90876 -4.98082 0
M  V30 25397 H 2653.46 -5.30943 -4.4847 0
M  V30 25398 H 2656.65 -3.38201 -3.23632 0
M  V30 25399 H 2656.83 -4.8529 -4.29416 0
M  V30 25400 N 2650.23 1.19778 -1.02425 0
M  V30 25401 C 2651.48 1.88969 -0.716603 0
M  V30 25402 C 2651.8 1.79718 0.756737 0
M  V30 25403 O 2651.07 1.20459 1.54488 0
M  V30 25404 H 2649.65 0.699519 -0.262074 0
M  V30 25405 H 2652.31 1.45434 -1.2975 0
M  V30 25406 H 2651.41 2.95415 -1.0068 0
M  V30 25407 N 2651.71 0.801501 1.35697 0
M  V30 25408 C 2652.94 0.391236 2.02862 0
M  V30 25409 C 2653.35 -1.00096 1.60553 0
M  V30 25410 O 2652.69 -1.65546 0.796244 0
M  V30 25411 C 2652.75 0.389362 3.57385 0
M  V30 25412 C 2652.42 1.7312 4.2294 0
M  V30 25413 C 2653.42 2.68867 4.44979 0
M  V30 25414 C 2651.1 2.01381 4.60164 0
M  V30 25415 C 2653.09 3.91062 5.03338 0
M  V30 25416 C 2650.78 3.23841 5.18238 0
M  V30 25417 C 2651.78 4.18499 5.39766 0
M  V30 25418 O 2651.47 5.38798 5.96617 0
M  V30 25419 H 2651.2 0.157743 0.657338 0
M  V30 25420 H 2653.75 1.08499 1.74405 0
M  V30 25421 H 2651.98 -0.360964 3.85012 0
M  V30 25422 H 2653.67 0.00210785 4.059 0
M  V30 25423 H 2654.44 2.48323 4.16606 0
M  V30 25424 H 2650.32 1.28516 4.42724 0
M  V30 25425 H 2653.86 4.64958 5.20057 0
M  V30 25426 H 2649.76 3.44257 5.46038 0
M  V30 25427 H 2650.53 5.40026 6.15073 0
M  V30 25428 N 2653.19 -1.47521 0.554558 0
M  V30 25429 C 2654.14 -2.29978 -0.19462 0
M  V30 25430 C 2655.11 -1.38898 -0.910857 0
M  V30 25431 O 2656.29 -1.6786 -0.907073 0
M  V30 25432 C 2653.43 -3.22805 -1.2203 0
M  V30 25433 C 2652.54 -4.28974 -0.510398 0
M  V30 25434 C 2651.68 -5.08955 -1.52114 0
M  V30 25435 C 2650.72 -6.06901 -0.796066 0
M  V30 25436 N 2649.86 -6.7985 -1.75351 0
M  V30 25437 H 2654.7 -2.93522 0.514662 0
M  V30 25438 H 2652.23 -1.44682 0.265632 0
M  V30 25439 H 2654.19 -3.75043 -1.82753 0
M  V30 25440 H 2652.82 -2.61131 -1.89765 0
M  V30 25441 H 2651.87 -3.79813 0.211301 0
M  V30 25442 H 2653.18 -4.98767 0.0577379 0
M  V30 25443 H 2652.34 -5.6533 -2.20198 0
M  V30 25444 H 2651.08 -4.39058 -2.12319 0
M  V30 25445 H 2650.08 -5.49707 -0.101291 0
M  V30 25446 H 2651.31 -6.78806 -0.199792 0
M  V30 25447 H 2649.25 -6.12686 -2.34419 0
M  V30 25448 H 2649.17 -7.45804 -1.23745 0
M  V30 25449 H 2650.44 -7.40801 -2.42557 0
M  V30 25450 N 2654.67 -0.290879 -1.54892 0
M  V30 25451 C 2655.6 0.583044 -2.26104 0
M  V30 25452 C 2656.58 1.14617 -1.25686 0
M  V30 25453 O 2657.76 1.17739 -1.54439 0
M  V30 25454 C 2654.89 1.75982 -2.99412 0
M  V30 25455 C 2653.85 1.32751 -4.06892 0
M  V30 25456 C 2653.17 2.58864 -4.67861 0
M  V30 25457 C 2654.47 0.466148 -5.20216 0
M  V30 25458 H 2656.17 -0.0108741 -2.99398 0
M  V30 25459 H 2653.71 -0.00666999 -1.43998 0
M  V30 25460 H 2655.67 2.3772 -3.47947 0
M  V30 25461 H 2654.39 2.37981 -2.23679 0
M  V30 25462 H 2653.05 0.733236 -3.59192 0
M  V30 25463 H 2652.7 3.19156 -3.88778 0
M  V30 25464 H 2652.4 2.30644 -5.40442 0
M  V30 25465 H 2653.92 3.21424 -5.19152 0
M  V30 25466 H 2655.34 0.988948 -5.64706 0
M  V30 25467 H 2653.73 0.278155 -5.99455 0
M  V30 25468 H 2654.8 -0.511257 -4.82197 0
M  V30 25469 N 2656.15 1.57589 -0.0184203 0
M  V30 25470 C 2657.37 1.96053 0.676599 0
M  V30 25471 C 2657.8 0.894337 1.65479 0
M  V30 25472 O 2657.15 -0.145817 1.80713 0
M  V30 25473 C 2657.2 3.33616 1.36866 0
M  V30 25474 O 2656.31 3.29223 2.48366 0
M  V30 25475 H 2655.65 0.639533 0.178589 0
M  V30 25476 H 2658.18 2.04455 -0.077092 0
M  V30 25477 H 2658.19 3.69605 1.7279 0
M  V30 25478 H 2656.86 4.10764 0.651564 0
M  V30 25479 H 2655.44 3.04938 2.14633 0
M  V30 25480 N 2657.62 -0.254594 1.5553 0
M  V30 25481 C 2659.03 -0.824256 1.6752 0
M  V30 25482 C 2659.39 -1.8633 0.614462 0
M  V30 25483 O 2658.51 -2.15057 -0.240698 0
M  V30 25484 C 2659.11 -1.50184 3.03694 0
M  V30 25485 C 2657.66 -2.01929 3.1765 0
M  V30 25486 C 2656.81 -0.8677 2.63375 0
M  V30 25487 H 2659.76 -0.0305564 1.58671 0
M  V30 25488 H 2659.78 -2.36957 2.9771 0
M  V30 25489 H 2659.3 -0.745364 3.80875 0
M  V30 25490 H 2657.4 -2.80481 2.45278 0
M  V30 25491 H 2657.51 -2.22196 4.24459 0
M  V30 25492 H 2655.87 -1.26612 2.21001 0
M  V30 25493 H 2656.66 -0.124437 3.43074 0
M  V30 25494 N 2659.1 -1.48777 -0.519925 0
M  V30 25495 C 2660.35 -1.56995 -1.27267 0
M  V30 25496 C 2660.67 -0.250074 -1.9339 0
M  V30 25497 O 2659.94 0.729184 -1.81823 0
M  V30 25498 H 2658.52 -0.578397 -0.472722 0
M  V30 25499 H 2661.18 -1.85298 -0.604201 0
M  V30 25500 H 2660.28 -2.35624 -2.04665 0
M  V30 25501 N 2660.58 0.769564 -1.37534 0
M  V30 25502 C 2661.83 1.52518 -1.326 0
M  V30 25503 C 2662.15 1.948 0.0883952 0
M  V30 25504 O 2661.42 1.6646 1.03286 0
M  V30 25505 H 2660 0.56569 -0.487856 0
M  V30 25506 H 2662.66 0.915775 -1.72045 0
M  V30 25507 H 2661.76 2.42356 -1.96647 0
M  V30 25508 N 2662.06 1.22139 0.995977 0
M  V30 25509 C 2663.02 0.990145 2.06709 0
M  V30 25510 C 2664.02 -0.0422696 1.60744 0
M  V30 25511 O 2665.21 0.195925 1.73095 0
M  V30 25512 C 2662.34 0.494969 3.37288 0
M  V30 25513 H 2663.54 1.94051 2.28658 0
M  V30 25514 H 2661.09 1.03965 1.16709 0
M  V30 25515 H 2661.82 -0.459891 3.21023 0
M  V30 25516 H 2661.61 1.23978 3.71984 0
M  V30 25517 H 2663.1 0.353326 4.16103 0
M  V30 25518 N 2663.54 -1.19233 1.03059 0
M  V30 25519 C 2664.78 -1.90659 0.73679 0
M  V30 25520 C 2665.14 -1.77928 -0.721489 0
M  V30 25521 O 2666.34 -2.43966 -1.12844 0
M  V30 25522 C 2664.61 -3.37442 1.17761 0
M  V30 25523 S 2666.17 -4.27067 1.00791 0
M  V30 25524 H 2662.99 -0.658481 0.268186 0
M  V30 25525 H 2665.59 -1.44138 1.32078 0
M  V30 25526 H 2664.3 -3.44233 2.23454 0
M  V30 25527 H 2663.83 -3.88996 0.58698 0
M  V30 25528 H 2665.84 -4.96135 -0.0805484 0
M  V30 25529 N 2665.01 -0.808686 -1.3527 0
M  V30 25530 C 2666.26 -0.390616 -1.99003 0
M  V30 25531 C 2666.59 1.04007 -1.64001 0
M  V30 25532 O 2665.87 1.72194 -0.904398 0
M  V30 25533 C 2666.15 -0.576629 -3.55453 0
M  V30 25534 C 2666 -2.0524 -4.00246 0
M  V30 25535 C 2667.32 -0.00362013 -4.401 0
M  V30 25536 H 2664.44 -0.143401 -0.722914 0
M  V30 25537 H 2667.08 -1.01861 -1.60388 0
M  V30 25538 H 2665.23 -0.0420449 -3.88477 0
M  V30 25539 H 2666.91 -2.64952 -3.77621 0
M  V30 25540 H 2665.15 -2.54807 -3.51078 0
M  V30 25541 H 2665.82 -2.13342 -5.09106 0
M  V30 25542 H 2668.3 -0.460189 -4.13547 0
M  V30 25543 H 2667.17 -0.163672 -5.48656 0
M  V30 25544 H 2667.43 1.09025 -4.28446 0
M  V30 25545 N 2666.49 1.47225 -0.562374 0
M  V30 25546 C 2667.74 2.0206 -0.0401726 0
M  V30 25547 C 2668.06 1.43854 1.31648 0
M  V30 25548 O 2667.33 0.615632 1.85975 0
M  V30 25549 H 2665.91 0.746906 -0.011861 0
M  V30 25550 H 2668.57 1.80569 -0.733552 0
M  V30 25551 H 2667.67 3.12069 0.0440705 0
M  V30 25552 N 2667.97 0.299089 1.54736 0
M  V30 25553 C 2669.39 -0.0543569 1.59507 0
M  V30 25554 C 2669.59 -1.52582 1.31609 0
M  V30 25555 O 2668.64 -2.2783 1.08857 0
M  V30 25556 C 2669.96 0.341862 2.9875 0
M  V30 25557 C 2671.5 0.290469 3.11649 0
M  V30 25558 C 2671.98 0.661482 4.53198 0
M  V30 25559 N 2673.47 0.613944 4.59113 0
M  V30 25560 C 2674.2 0.873516 5.66707 0
M  V30 25561 N 2673.7 1.19896 6.82347 0
M  V30 25562 N 2675.49 0.800706 5.56368 0
M  V30 25563 H 2667.64 1.25809 1.71131 0
M  V30 25564 H 2669.91 0.509922 0.799177 0
M  V30 25565 H 2669.61 1.36613 3.24083 0
M  V30 25566 H 2669.49 -0.305442 3.75961 0
M  V30 25567 H 2671.87 -0.724554 2.86067 0
M  V30 25568 H 2671.96 0.972369 2.36598 0
M  V30 25569 H 2671.6 1.6743 4.7951 0
M  V30 25570 H 2671.53 -0.0424687 5.26583 0
M  V30 25571 H 2674.02 0.373267 3.76052 0
M  V30 25572 H 2674.33 1.38305 7.60323 0
M  V30 25573 H 2672.68 1.23697 6.83903 0
M  V30 25574 H 2675.87 0.546127 4.64903 0
M  V30 25575 H 2676.04 1.00637 6.40138 0
M  V30 25576 N 2669.45 -1.57577 0.0267774 0
M  V30 25577 C 2670.4 -2.1123 -0.973886 0
M  V30 25578 C 2671.39 -1.03834 -1.33847 0
M  V30 25579 O 2672.6 -1.22271 -1.32097 0
M  V30 25580 H 2668.97 -0.674827 -0.331832 0
M  V30 25581 H 2670.94 -2.94248 -0.49604 0
M  V30 25582 C 2669.69 -2.65261 -2.24794 0
M  V30 25583 H 2669.01 -3.47547 -1.97614 0
M  V30 25584 H 2670.45 -3.0645 -2.93026 0
M  V30 25585 C 2668.91 -1.57896 -2.97608 0
M  V30 25586 O 2669.44 -0.977419 -3.89627 0
M  V30 25587 N 2667.65 -1.29997 -2.59902 0
M  V30 25588 H 2667.2 -1.791 -1.85151 0
M  V30 25589 H 2667.15 -0.583852 -3.08931 0
M  V30 25590 N 2670.93 0.246342 -1.55663 0
M  V30 25591 C 2671.84 1.32649 -1.93498 0
M  V30 25592 C 2672.85 1.52629 -0.835489 0
M  V30 25593 O 2674.03 1.6624 -1.13693 0
M  V30 25594 C 2671.09 2.66097 -2.22246 0
M  V30 25595 C 2670.15 2.54635 -3.45629 0
M  V30 25596 C 2669.39 3.81718 -3.72998 0
M  V30 25597 O 2669.61 4.83624 -3.0243 0
M  V30 25598 O 2668.54 3.80317 -4.66522 0
M  V30 25599 H 2672.37 1.03554 -2.855 0
M  V30 25600 H 2669.96 0.447144 -1.42552 0
M  V30 25601 H 2671.84 3.44954 -2.42043 0
M  V30 25602 H 2670.51 2.94924 -1.33422 0
M  V30 25603 H 2669.42 1.74062 -3.31139 0
M  V30 25604 H 2670.75 2.30752 -4.34758 0
M  V30 25605 N 2672.4 1.4905 0.512027 0
M  V30 25606 C 2673.64 1.5959 1.27712 0
M  V30 25607 C 2674.01 0.271536 1.9007 0
M  V30 25608 O 2675.21 0.252034 2.67616 0
M  V30 25609 C 2673.48 2.71528 2.32395 0
M  V30 25610 S 2675.04 3.01949 3.1839 0
M  V30 25611 H 2671.86 0.563035 0.43418 0
M  V30 25612 H 2674.46 1.86658 0.581282 0
M  V30 25613 H 2673.16 3.6629 1.85094 0
M  V30 25614 H 2672.69 2.46418 3.06662 0
M  V30 25615 H 2674.71 2.42623 4.32838 0
M  V30 25616 N 2673.88 -0.762259 1.3794 0
M  V30 25617 C 2675.3 -1.06413 1.18947 0
M  V30 25618 C 2675.5 -2.01474 0.0321517 0
M  V30 25619 O 2674.55 -2.44648 -0.624801 0
M  V30 25620 C 2675.87 -1.65253 2.51221 0
M  V30 25621 C 2677.42 -1.77466 2.57827 0
M  V30 25622 C 2677.89 -2.39718 3.90255 0
M  V30 25623 N 2679.38 -2.47159 3.91748 0
M  V30 25624 C 2680.12 -2.96201 4.90971 0
M  V30 25625 N 2679.61 -3.45344 6.00591 0
M  V30 25626 N 2681.41 -2.95162 4.78368 0
M  V30 25627 H 2673.56 -0.131263 2.11994 0
M  V30 25628 H 2675.82 -0.120862 0.940264 0
M  V30 25629 H 2675.53 -1.02872 3.36319 0
M  V30 25630 H 2675.4 -2.64428 2.68994 0
M  V30 25631 H 2677.79 -2.38977 1.7313 0
M  V30 25632 H 2677.87 -0.770198 2.43929 0
M  V30 25633 H 2677.51 -1.78844 4.75371 0
M  V30 25634 H 2677.44 -3.40789 4.0146 0
M  V30 25635 H 2679.93 -2.12392 3.12567 0
M  V30 25636 H 2680.25 -3.81195 6.72242 0
M  V30 25637 H 2678.59 -3.43424 6.04223 0
M  V30 25638 H 2681.78 -2.56075 3.91846 0
M  V30 25639 H 2681.95 -3.33071 5.55849 0
M  V30 25640 N 2675.36 -1.22666 -0.989486 0
M  V30 25641 C 2676.27 -1.01623 -2.11447 0
M  V30 25642 C 2677.29 0.0365144 -1.73962 0
M  V30 25643 O 2678.46 -0.156959 -2.00787 0
M  V30 25644 C 2675.53 -0.600264 -3.41464 0
M  V30 25645 C 2674.59 -1.72702 -3.9303 0
M  V30 25646 C 2673.82 -1.3308 -5.16842 0
M  V30 25647 O 2674.04 -0.211075 -5.70009 0
M  V30 25648 O 2672.98 -2.14855 -5.62246 0
M  V30 25649 H 2676.8 -1.95884 -2.32084 0
M  V30 25650 H 2674.39 -1.0129 -1.09821 0
M  V30 25651 H 2676.27 -0.378804 -4.19694 0
M  V30 25652 H 2674.95 0.313454 -3.22179 0
M  V30 25653 H 2673.85 -2.00303 -3.15958 0
M  V30 25654 H 2675.19 -2.61872 -4.16754 0
M  V30 25655 N 2676.84 1.18685 -1.0369 0
M  V30 25656 C 2678.09 1.87899 -0.733268 0
M  V30 25657 C 2678.4 1.80992 0.741713 0
M  V30 25658 O 2679.61 2.45532 1.15871 0
M  V30 25659 C 2678.06 3.37073 -1.26133 0
M  V30 25660 C 2677.67 3.5252 -2.76467 0
M  V30 25661 C 2679.42 4.11713 -1.03406 0
M  V30 25662 C 2677.32 4.95632 -3.2265 0
M  V30 25663 H 2676.25 0.703771 -0.270597 0
M  V30 25664 H 2678.9 1.34131 -1.25224 0
M  V30 25665 H 2677.29 3.90287 -0.670233 0
M  V30 25666 H 2678.46 3.09596 -3.41302 0
M  V30 25667 H 2676.77 2.9128 -2.97565 0
M  V30 25668 H 2679.37 5.17265 -1.35429 0
M  V30 25669 H 2679.71 4.1629 0.0288514 0
M  V30 25670 H 2680.25 3.64661 -1.58957 0
M  V30 25671 H 2676.99 4.96221 -4.28305 0
M  V30 25672 H 2676.51 5.39285 -2.62549 0
M  V30 25673 H 2678.19 5.64328 -3.16454 0
M  V30 25674 N 2678.32 0.815849 1.34839 0
M  V30 25675 C 2679.73 0.460322 1.80936 0
M  V30 25676 C 2680.08 -1.0186 1.67687 0
M  V30 25677 O 2679.2 -1.79221 1.2128 0
M  V30 25678 C 2679.8 0.828766 3.28507 0
M  V30 25679 C 2678.36 0.525709 3.72711 0
M  V30 25680 C 2677.51 1.04945 2.56674 0
M  V30 25681 H 2680.46 1.00666 1.22687 0
M  V30 25682 H 2680.48 0.129824 3.80278 0
M  V30 25683 H 2679.99 1.90519 3.38118 0
M  V30 25684 H 2678.09 -0.541602 3.68643 0
M  V30 25685 H 2678.2 1.06482 4.67117 0
M  V30 25686 H 2676.57 0.47133 2.50301 0
M  V30 25687 H 2677.35 2.13218 2.69059 0
M  V30 25688 N 2679.8 -1.46924 0.570174 0
M  V30 25689 C 2680.74 -2.31878 -0.183141 0
M  V30 25690 C 2681.74 -1.43721 -0.896695 0
M  V30 25691 O 2682.94 -1.60416 -0.816508 0
M  V30 25692 H 2679.32 -0.747951 -0.0779308 0
M  V30 25693 H 2681.29 -2.93243 0.552363 0
M  V30 25694 C 2680.04 -3.26642 -1.19166 0
M  V30 25695 H 2679.36 -3.94447 -0.652018 0
M  V30 25696 H 2680.8 -3.8889 -1.6894 0
M  V30 25697 C 2679.26 -2.5109 -2.24623 0
M  V30 25698 O 2679.79 -2.26478 -3.31769 0
M  V30 25699 N 2678 -2.11871 -1.98895 0
M  V30 25700 H 2677.54 -2.32087 -1.11773 0
M  V30 25701 H 2677.5 -1.61639 -2.69667 0
M  V30 25702 N 2681.27 -0.307291 -1.54575 0
M  V30 25703 C 2682.52 0.300577 -2.0056 0
M  V30 25704 C 2682.85 1.53054 -1.19532 0
M  V30 25705 O 2682.13 1.92569 -0.273404 0
M  V30 25706 C 2682.41 0.650925 -3.54168 0
M  V30 25707 C 2682.26 -0.588618 -4.45932 0
M  V30 25708 C 2683.58 1.47498 -4.14647 0
M  V30 25709 H 2680.7 0.107775 -0.729077 0
M  V30 25710 H 2683.34 -0.420639 -1.85285 0
M  V30 25711 H 2681.49 1.26538 -3.67315 0
M  V30 25712 H 2683.17 -1.22705 -4.44681 0
M  V30 25713 H 2681.41 -1.22065 -4.16272 0
M  V30 25714 H 2682.08 -0.29925 -5.51188 0
M  V30 25715 H 2684.56 0.95575 -4.04975 0
M  V30 25716 H 2683.43 1.6889 -5.22271 0
M  V30 25717 H 2683.69 2.46614 -3.66925 0
M  V30 25718 N 2682.75 1.57561 -0.0351337 0
M  V30 25719 C 2683.99 1.93914 0.646282 0
M  V30 25720 C 2684.36 0.912215 1.68946 0
M  V30 25721 O 2685.56 1.16214 2.42379 0
M  V30 25722 C 2683.83 3.35151 1.2413 0
M  V30 25723 S 2685.39 3.9344 1.94295 0
M  V30 25724 H 2682.2 0.678461 0.21263 0
M  V30 25725 H 2684.81 1.95243 -0.100237 0
M  V30 25726 H 2683.51 4.07703 0.469718 0
M  V30 25727 H 2683.04 3.3728 2.02499 0
M  V30 25728 H 2685.06 3.77363 3.22198 0
M  V30 25729 N 2684.23 -0.238084 1.55791 0
M  V30 25730 C 2685.45 -0.9864 1.82442 0
M  V30 25731 C 2685.88 -1.77819 0.613345 0
M  V30 25732 O 2685.24 -1.75936 -0.437736 0
M  V30 25733 C 2685.29 -1.89295 3.0692 0
M  V30 25734 O 2684.39 -2.98596 2.84454 0
M  V30 25735 H 2683.73 -0.280207 0.60198 0
M  V30 25736 H 2686.26 -0.256402 2.02987 0
M  V30 25737 H 2686.27 -2.30593 3.36587 0
M  V30 25738 H 2684.95 -1.31084 3.94702 0
M  V30 25739 H 2683.52 -2.61363 2.65977 0
M  V30 25740 N 2685.71 -1.4932 -0.504115 0
M  V30 25741 C 2686.66 -1.62154 -1.60282 0
M  V30 25742 C 2687.64 -0.477342 -1.53656 0
M  V30 25743 O 2688.83 -0.730136 -1.61239 0
M  V30 25744 C 2685.96 -1.68849 -2.98906 0
M  V30 25745 C 2685.05 -2.88836 -3.10539 0
M  V30 25746 N 2685.44 -4.12951 -2.9207 0
M  V30 25747 C 2683.74 -2.86708 -3.41635 0
M  V30 25748 C 2684.44 -4.93591 -3.07804 0
M  V30 25749 N 2683.41 -4.26897 -3.36541 0
M  V30 25750 H 2687.22 -2.55838 -1.44652 0
M  V30 25751 H 2684.73 -1.46049 -0.710173 0
M  V30 25752 H 2686.73 -1.76141 -3.77862 0
M  V30 25753 H 2685.39 -0.762998 -3.15608 0
M  V30 25754 H 2686.4 -4.4298 -2.68308 0
M  V30 25755 H 2683.08 -2.03524 -3.64533 0
M  V30 25756 H 2684.47 -6.02179 -2.98043 0
M  V30 25757 N 2687.19 0.754933 -1.38342 0
M  V30 25758 C 2688.43 1.51103 -1.3421 0
M  V30 25759 C 2688.75 1.94882 0.0677291 0
M  V30 25760 O 2688.02 1.67546 1.01515 0
M  V30 25761 H 2686.6 0.560484 -0.493828 0
M  V30 25762 H 2689.27 0.897476 -1.73007 0
M  V30 25763 H 2688.36 2.40256 -1.99207 0
M  V30 25764 N 2688.66 1.23189 0.982967 0
M  V30 25765 C 2689.94 0.970737 1.69812 0
M  V30 25766 C 2690.32 -0.511388 2.04812 0
M  V30 25767 O 2689.67 -1.48195 1.73927 0
M  V30 25768 C 2689.88 1.87837 2.9414 0
M  V30 25769 C 2691.23 2.14032 3.66709 0
M  V30 25770 O 2692.25 1.85366 3.04168 0
M  V30 25771 O 2691.11 2.62637 4.79254 0
M  V30 25772 H 2688.2 0.365897 0.741652 0
M  V30 25773 H 2690.75 1.3422 1.03842 0
M  V30 25774 H 2689.52 2.88043 2.64853 0
M  V30 25775 H 2689.14 1.50912 3.67847 0
M  V30 25776 N 2690.14 -1.18133 1.04318 0
M  V30 25777 C 2691.38 -1.89867 0.756971 0
M  V30 25778 C 2691.75 -1.78684 -0.702577 0
M  V30 25779 O 2692.95 -2.4515 -1.1025 0
M  V30 25780 C 2691.22 -3.36174 1.21333 0
M  V30 25781 S 2692.78 -4.25974 1.05315 0
M  V30 25782 H 2689.59 -0.6556 0.275155 0
M  V30 25783 H 2692.2 -1.42729 1.33599 0
M  V30 25784 H 2690.9 -3.41844 2.27092 0
M  V30 25785 H 2690.43 -3.88352 0.628206 0
M  V30 25786 H 2692.45 -4.96192 -0.0279221 0
M  V30 25787 N 2691.62 -0.822988 -1.34405 0
M  V30 25788 C 2692.55 -0.190164 -2.27406 0
M  V30 25789 C 2693.53 0.65346 -1.48891 0
M  V30 25790 O 2694.72 0.617185 -1.7811 0
M  V30 25791 C 2691.84 0.734419 -3.30642 0
M  V30 25792 C 2690.89 -0.0316848 -4.26488 0
M  V30 25793 S 2691.72 -1.37889 -5.17443 0
M  V30 25794 C 2692.88 -0.45918 -6.24213 0
M  V30 25795 H 2693.11 -0.978635 -2.80731 0
M  V30 25796 H 2690.64 -0.618891 -1.41454 0
M  V30 25797 H 2692.6 1.26231 -3.9061 0
M  V30 25798 H 2691.26 1.49641 -2.76163 0
M  V30 25799 H 2690.46 0.671197 -4.99511 0
M  V30 25800 H 2690.06 -0.490131 -3.70774 0
M  V30 25801 H 2692.35 0.349238 -6.76599 0
M  V30 25802 H 2693.29 -1.15908 -6.98549 0
M  V30 25803 H 2693.7 -0.0475817 -5.6448 0
M  V30 25804 N 2693.1 1.4662 -0.577957 0
M  V30 25805 C 2694.38 1.95599 0.00491849 0
M  V30 25806 C 2694.76 1.52062 1.46425 0
M  V30 25807 O 2694.1 0.769083 2.15168 0
M  V30 25808 C 2694.31 3.48623 -0.162176 0
M  V30 25809 C 2695.66 4.24591 -0.027537 0
M  V30 25810 O 2696.69 3.56084 -0.0907693 0
M  V30 25811 O 2695.54 5.46385 0.112104 0
M  V30 25812 H 2692.64 0.825332 0.0524912 0
M  V30 25813 H 2695.18 1.56926 -0.645942 0
M  V30 25814 H 2693.96 3.73183 -1.17686 0
M  V30 25815 H 2693.58 3.94114 0.525337 0
M  V30 25816 N 2694.58 0.315484 1.5441 0
M  V30 25817 C 2695.8 -0.291702 2.04833 0
M  V30 25818 C 2696.22 -1.46409 1.19206 0
M  V30 25819 O 2695.58 -1.81158 0.220899 0
M  V30 25820 C 2695.63 -0.733978 3.5397 0
M  V30 25821 O 2695.35 0.391758 4.36345 0
M  V30 25822 C 2696.85 -1.40481 4.20452 0
M  V30 25823 H 2694.07 -0.061283 0.668196 0
M  V30 25824 H 2696.61 0.459325 1.99275 0
M  V30 25825 H 2694.77 -1.435 3.59842 0
M  V30 25826 H 2695.18 0.044801 5.24481 0
M  V30 25827 H 2696.66 -1.66529 5.26281 0
M  V30 25828 H 2697.13 -2.34954 3.71071 0
M  V30 25829 H 2697.74 -0.746588 4.18696 0
M  V30 25830 N 2696.05 -1.5754 0.0434891 0
M  V30 25831 C 2696.96 -2.14553 -0.948892 0
M  V30 25832 C 2697.98 -1.10138 -1.34705 0
M  V30 25833 O 2699.16 -1.42268 -1.42554 0
M  V30 25834 C 2696.22 -2.67302 -2.20795 0
M  V30 25835 C 2695.28 -3.86487 -1.86886 0
M  V30 25836 C 2694.52 -4.36711 -3.06789 0
M  V30 25837 O 2694.74 -3.86041 -4.19915 0
M  V30 25838 O 2693.67 -5.28389 -2.8825 0
M  V30 25839 H 2697.5 -2.99655 -0.494046 0
M  V30 25840 H 2695.08 -1.48336 -0.177963 0
M  V30 25841 H 2696.97 -3.01233 -2.9468 0
M  V30 25842 H 2695.64 -1.85276 -2.65432 0
M  V30 25843 H 2694.55 -3.57457 -1.1034 0
M  V30 25844 H 2695.88 -4.69719 -1.47054 0
M  V30 25845 N 2697.53 0.229818 -1.55915 0
M  V30 25846 C 2698.78 0.953534 -1.78191 0
M  V30 25847 C 2699.1 1.85196 -0.610536 0
M  V30 25848 O 2698.37 1.92317 0.372955 0
M  V30 25849 H 2696.95 0.355076 -0.657214 0
M  V30 25850 H 2699.61 0.243659 -1.93371 0
M  V30 25851 H 2698.71 1.56522 -2.70014 0
M  V30 25852 N 2699.01 1.49585 0.49619 0
M  V30 25853 C 2700.24 1.63297 1.27862 0
M  V30 25854 C 2700.66 0.306188 1.85591 0
M  V30 25855 O 2700.02 -0.726822 1.66093 0
M  V30 25856 C 2700.07 2.70794 2.38123 0
M  V30 25857 O 2699.17 2.30302 3.42104 0
M  V30 25858 H 2698.51 0.54641 0.37727 0
M  V30 25859 H 2701.04 1.95804 0.593462 0
M  V30 25860 H 2701.05 2.93109 2.83815 0
M  V30 25861 H 2699.73 3.67101 1.95472 0
M  V30 25862 H 2698.3 2.18336 3.02297 0
M  V30 25863 N 2700.49 -0.747586 1.3874 0
M  V30 25864 C 2701.72 -1.53461 1.38323 0
M  V30 25865 C 2702.13 -1.8918 -0.0273131 0
M  V30 25866 O 2701.47 -1.53715 -1.00585 0
M  V30 25867 C 2701.53 -2.85852 2.18012 0
M  V30 25868 C 2701.2 -2.72637 3.66767 0
M  V30 25869 C 2702.19 -2.42029 4.60128 0
M  V30 25870 C 2699.88 -2.89902 4.10198 0
M  V30 25871 C 2701.87 -2.28848 5.94901 0
M  V30 25872 C 2699.56 -2.76341 5.4505 0
M  V30 25873 C 2700.56 -2.45858 6.37215 0
M  V30 25874 O 2700.24 -2.32366 7.69585 0
M  V30 25875 H 2699.98 -0.48126 0.474726 0
M  V30 25876 H 2702.53 -0.932486 1.83013 0
M  V30 25877 H 2700.76 -3.48276 1.68049 0
M  V30 25878 H 2702.45 -3.47398 2.09927 0
M  V30 25879 H 2703.22 -2.28353 4.27878 0
M  V30 25880 H 2699.09 -3.12624 3.38803 0
M  V30 25881 H 2702.64 -2.04977 6.66806 0
M  V30 25882 H 2698.54 -2.89591 5.76894 0
M  V30 25883 H 2699.3 -2.47533 7.80173 0
M  V30 25884 N 2701.97 -1.23709 -0.97642 0
M  V30 25885 C 2702.9 -0.965009 -2.06792 0
M  V30 25886 C 2703.88 0.0981187 -1.62304 0
M  V30 25887 O 2705.06 -0.0369808 -1.88464 0
M  V30 25888 C 2702.19 -0.454581 -3.35636 0
M  V30 25889 C 2701.23 -1.50492 -3.99067 0
M  V30 25890 S 2702.07 -3.08357 -4.37808 0
M  V30 25891 C 2703.22 -2.58995 -5.698 0
M  V30 25892 H 2703.46 -1.88926 -2.29552 0
M  V30 25893 H 2700.99 -1.06997 -1.11315 0
M  V30 25894 H 2702.95 -0.166698 -4.10161 0
M  V30 25895 H 2701.61 0.448816 -3.10877 0
M  V30 25896 H 2700.8 -1.09801 -4.91894 0
M  V30 25897 H 2700.4 -1.74236 -3.30935 0
M  V30 25898 H 2702.7 -2.01263 -6.46915 0
M  V30 25899 H 2703.64 -3.50377 -6.15338 0
M  V30 25900 H 2704.05 -1.99714 -5.27991 0
M  V30 25901 N 2703.44 1.17579 -1.04943 0
M  V30 25902 C 2704.68 1.89462 -0.767029 0
M  V30 25903 C 2705.05 1.79054 0.693091 0
M  V30 25904 O 2706.25 2.45731 1.08949 0
M  V30 25905 C 2704.52 3.35526 -1.23114 0
M  V30 25906 S 2706.08 4.2541 -1.07573 0
M  V30 25907 H 2702.9 0.654131 -0.278628 0
M  V30 25908 H 2705.5 1.42018 -1.34354 0
M  V30 25909 H 2704.2 3.40635 -2.28902 0
M  V30 25910 H 2703.73 3.88013 -0.648792 0
M  V30 25911 H 2705.75 4.962 0.00160745 0
M  V30 25912 N 2704.92 0.830104 1.33967 0
M  V30 25913 C 2705.85 0.271951 2.31911 0
M  V30 25914 C 2706.83 -0.615532 1.58572 0
M  V30 25915 O 2708.02 -0.540914 1.86515 0
M  V30 25916 C 2705.15 -0.561086 3.42738 0
M  V30 25917 C 2704.1 0.229864 4.27382 0
M  V30 25918 C 2703.43 -0.72637 5.29743 0
M  V30 25919 C 2704.73 1.44206 5.01998 0
M  V30 25920 H 2706.42 1.0903 2.78842 0
M  V30 25921 H 2703.97 0.525733 1.3406 0
M  V30 25922 H 2705.92 -0.961795 4.10277 0
M  V30 25923 H 2704.65 -1.41256 2.94473 0
M  V30 25924 H 2703.3 0.612028 3.61455 0
M  V30 25925 H 2702.95 -1.574 4.77739 0
M  V30 25926 H 2702.65 -0.201317 5.87255 0
M  V30 25927 H 2704.18 -1.12478 6.00151 0
M  V30 25928 H 2705.59 1.11498 5.62353 0
M  V30 25929 H 2703.99 1.90327 5.69118 0
M  V30 25930 H 2705.06 2.21648 4.31277 0
M  V30 25931 N 2706.4 -1.46311 0.585725 0
M  V30 25932 C 2707.64 -2.04262 0.0751791 0
M  V30 25933 C 2708.01 -1.44699 -1.26199 0
M  V30 25934 O 2709.21 -1.93868 -1.86195 0
M  V30 25935 C 2707.48 -3.57397 0.0135408 0
M  V30 25936 S 2709.04 -4.36599 -0.438992 0
M  V30 25937 H 2705.85 -0.709933 0.0389353 0
M  V30 25938 H 2708.46 -1.79314 0.778902 0
M  V30 25939 H 2707.16 -3.98265 0.990628 0
M  V30 25940 H 2706.69 -3.86887 -0.712859 0
M  V30 25941 H 2708.71 -4.6642 -1.69312 0
M  V30 25942 N 2707.88 -0.323668 -1.54241 0
M  V30 25943 C 2708.83 0.557794 -2.21072 0
M  V30 25944 C 2709.81 1.08154 -1.19128 0
M  V30 25945 O 2711.01 1.01855 -1.44757 0
M  V30 25946 C 2708.13 1.71815 -2.97211 0
M  V30 25947 C 2707.22 1.20929 -4.06494 0
M  V30 25948 N 2707.61 0.420113 -5.04052 0
M  V30 25949 C 2705.91 1.488 -4.20446 0
M  V30 25950 C 2706.61 0.146311 -5.81516 0
M  V30 25951 N 2705.59 0.732468 -5.38643 0
M  V30 25952 H 2709.39 -0.0524438 -2.93853 0
M  V30 25953 H 2706.9 -0.129531 -1.61883 0
M  V30 25954 H 2708.9 2.3614 -3.43574 0
M  V30 25955 H 2707.56 2.33187 -2.25951 0
M  V30 25956 H 2708.57 0.0629491 -5.17862 0
M  V30 25957 H 2705.25 2.10756 -3.604 0
M  V30 25958 H 2706.64 -0.489013 -6.70118 0
M  V30 25959 N 2709.36 1.57515 -0.0518432 0
M  V30 25960 C 2710.77 1.56664 0.304707 0
M  V30 25961 C 2710.97 1.05956 1.71393 0
M  V30 25962 O 2710.03 0.716457 2.42122 0
M  V30 25963 C 2711.34 3.00408 0.132562 0
M  V30 25964 C 2712.89 3.12337 0.203615 0
M  V30 25965 C 2713.37 4.57961 0.0599901 0
M  V30 25966 N 2714.86 4.63054 0.116245 0
M  V30 25967 C 2715.59 5.73393 0.0292355 0
M  V30 25968 N 2715.09 6.92712 -0.11016 0
M  V30 25969 N 2716.88 5.62036 0.0848663 0
M  V30 25970 H 2709.03 1.88798 -0.973089 0
M  V30 25971 H 2711.29 0.869468 -0.377796 0
M  V30 25972 H 2711 3.41544 -0.839079 0
M  V30 25973 H 2710.87 3.66469 0.893311 0
M  V30 25974 H 2713.26 2.71099 1.16573 0
M  V30 25975 H 2713.34 2.48953 -0.587901 0
M  V30 25976 H 2712.99 4.99884 -0.898802 0
M  V30 25977 H 2712.92 5.19353 0.870659 0
M  V30 25978 H 2715.41 3.7724 0.223204 0
M  V30 25979 H 2715.72 7.72615 -0.16924 0
M  V30 25980 H 2714.07 6.94848 -0.145254 0
M  V30 25981 H 2717.26 4.67705 0.192329 0
M  V30 25982 H 2717.43 6.47999 0.0135992 0
M  V30 25983 N 2710.84 -0.221546 1.56035 0
M  V30 25984 C 2712.08 -0.94407 1.78695 0
M  V30 25985 C 2712.4 -1.84869 0.620349 0
M  V30 25986 O 2711.67 -1.92512 -0.36275 0
M  V30 25987 H 2710.25 -0.351585 0.659088 0
M  V30 25988 H 2712.92 -0.233401 1.93497 0
M  V30 25989 H 2712.01 -1.55088 2.7084 0
M  V30 25990 N 2712.31 -1.49846 -0.48825 0
M  V30 25991 C 2713.56 -1.59975 -1.24154 0
M  V30 25992 C 2713.89 -0.292215 -1.92292 0
M  V30 25993 O 2713.14 0.720781 -1.81943 0
M  V30 25994 C 2713.44 -2.71739 -2.32147 0
M  V30 25995 C 2713.11 -4.1281 -1.8138 0
M  V30 25996 C 2711.77 -4.51198 -1.67254 0
M  V30 25997 C 2714.12 -5.01048 -1.43529 0
M  V30 25998 C 2711.45 -5.75582 -1.13675 0
M  V30 25999 C 2713.8 -6.25963 -0.913971 0
M  V30 26000 C 2712.47 -6.63168 -0.75921 0
M  V30 26001 H 2711.74 -0.585391 -0.454311 0
M  V30 26002 H 2714.38 -1.83722 -0.540228 0
M  V30 26003 H 2712.69 -2.42014 -3.08118 0
M  V30 26004 H 2714.39 -2.76783 -2.90159 0
M  V30 26005 H 2710.98 -3.82516 -1.93337 0
M  V30 26006 H 2715.16 -4.72036 -1.53283 0
M  V30 26007 H 2710.42 -6.03098 -1.00415 0
M  V30 26008 H 2714.59 -6.93706 -0.611944 0
M  V30 26009 H 2712.22 -7.59431 -0.341868 0
M  V30 26010 N 2713.79 0.740218 -1.39135 0
M  V30 26011 C 2714.72 1.86425 -1.33335 0
M  V30 26012 C 2715.74 1.60975 -0.243071 0
M  V30 26013 O 2716.93 1.71306 -0.501638 0
M  V30 26014 C 2714.03 3.22344 -1.04632 0
M  V30 26015 C 2713.2 3.75192 -2.24833 0
M  V30 26016 C 2712.26 4.89659 -1.92667 0
M  V30 26017 O 2711.28 5.03592 -2.65299 0
M  V30 26018 N 2712.49 5.73642 -0.889676 0
M  V30 26019 H 2715.25 1.91907 -2.30199 0
M  V30 26020 H 2712.81 0.920732 -1.3317 0
M  V30 26021 H 2714.8 3.96482 -0.811417 0
M  V30 26022 H 2713.37 3.12163 -0.165184 0
M  V30 26023 H 2712.59 2.92465 -2.64306 0
M  V30 26024 H 2713.88 4.07234 -3.05022 0
M  V30 26025 H 2713.28 5.64968 -0.287629 0
M  V30 26026 H 2711.84 6.4787 -0.714671 0
M  V30 26027 N 2715.27 1.24225 0.969846 0
M  V30 26028 C 2716.23 1.03377 2.04563 0
M  V30 26029 C 2717.23 -0.0081638 1.60798 0
M  V30 26030 O 2718.42 0.232597 1.7264 0
M  V30 26031 C 2715.55 0.566402 3.36162 0
M  V30 26032 H 2716.75 1.98857 2.2449 0
M  V30 26033 H 2714.3 1.06417 1.14478 0
M  V30 26034 H 2715.04 -0.391694 3.21926 0
M  V30 26035 H 2714.82 1.3184 3.6927 0
M  V30 26036 H 2716.31 0.441508 4.1526 0
M  V30 26037 N 2716.75 -1.1702 1.05565 0
M  V30 26038 C 2717.97 -1.91828 0.788471 0
M  V30 26039 C 2718.4 -1.765 -0.650325 0
M  V30 26040 O 2717.76 -1.0853 -1.45227 0
M  V30 26041 C 2717.8 -3.40793 1.17866 0
M  V30 26042 O 2716.91 -4.1121 0.313037 0
M  V30 26043 H 2716.25 -0.597903 0.288805 0
M  V30 26044 H 2718.78 -1.48304 1.4095 0
M  V30 26045 H 2718.79 -3.91544 1.14704 0
M  V30 26046 H 2717.46 -3.51269 2.22672 0
M  V30 26047 H 2716.04 -3.70688 0.40558 0
M  V30 26048 N 2718.23 -0.837197 -1.33524 0
M  V30 26049 C 2719.19 -0.274461 -2.27551 0
M  V30 26050 C 2720.19 0.555855 -1.50887 0
M  V30 26051 O 2721.38 0.369888 -1.70228 0
M  V30 26052 C 2718.51 0.613546 -3.35333 0
M  V30 26053 H 2719.7 -1.10413 -2.78835 0
M  V30 26054 H 2717.26 -0.610151 -1.43899 0
M  V30 26055 H 2717.99 1.46572 -2.89288 0
M  V30 26056 H 2717.78 0.0194652 -3.92095 0
M  V30 26057 H 2719.27 1.00061 -4.05435 0
M  V30 26058 N 2719.7 1.45999 -0.593476 0
M  V30 26059 C 2720.98 1.95594 -0.0158277 0
M  V30 26060 C 2721.36 1.53607 1.44804 0
M  V30 26061 O 2720.71 0.791862 2.1434 0
M  V30 26062 C 2720.92 3.48431 -0.199143 0
M  V30 26063 C 2722.27 4.24538 -0.072569 0
M  V30 26064 O 2723.29 3.55968 -0.128532 0
M  V30 26065 O 2722.15 5.46473 0.0541465 0
M  V30 26066 H 2719.24 0.825843 0.0437345 0
M  V30 26067 H 2721.79 1.56232 -0.662549 0
M  V30 26068 H 2720.56 3.71914 -1.21637 0
M  V30 26069 H 2720.18 3.94649 0.483507 0
M  V30 26070 N 2721.18 0.331843 1.54067 0
M  V30 26071 C 2722.11 -0.564499 2.2214 0
M  V30 26072 C 2723.13 -1.0733 1.2241 0
M  V30 26073 O 2724.32 -0.985455 1.48832 0
M  V30 26074 C 2721.42 -1.78826 2.87879 0
M  V30 26075 C 2720.59 -1.41675 4.1382 0
M  V30 26076 C 2719.65 -2.49893 4.63077 0
M  V30 26077 O 2718.67 -2.1369 5.27565 0
M  V30 26078 N 2719.88 -3.80959 4.38007 0
M  V30 26079 H 2722.64 0.0184263 2.99694 0
M  V30 26080 H 2720.2 0.155424 1.61152 0
M  V30 26081 H 2722.19 -2.50631 3.17752 0
M  V30 26082 H 2720.76 -2.27884 2.13981 0
M  V30 26083 H 2719.98 -0.529976 3.90621 0
M  V30 26084 H 2721.27 -1.14435 4.95764 0
M  V30 26085 H 2720.67 -4.13166 3.86407 0
M  V30 26086 H 2719.23 -4.48969 4.72515 0
M  V30 26087 N 2722.66 -1.57485 0.0601958 0
M  V30 26088 C 2723.89 -1.97364 -0.620903 0
M  V30 26089 C 2724.3 -0.938111 -1.63844 0
M  V30 26090 O 2723.66 0.0766257 -1.82339 0
M  V30 26091 C 2723.71 -3.37324 -1.29981 0
M  V30 26092 O 2723.43 -4.36908 -0.323004 0
M  V30 26093 C 2724.93 -3.92012 -2.06982 0
M  V30 26094 H 2722.15 -0.649337 -0.169124 0
M  V30 26095 H 2724.7 -2.04092 0.129167 0
M  V30 26096 H 2722.85 -3.31718 -2.00104 0
M  V30 26097 H 2723.27 -5.18229 -0.808663 0
M  V30 26098 H 2724.74 -4.92197 -2.49893 0
M  V30 26099 H 2725.22 -3.27926 -2.92167 0
M  V30 26100 H 2725.82 -4.00983 -1.4175 0
M  V30 26101 N 2724.14 0.213268 -1.5615 0
M  V30 26102 C 2725.07 1.26738 -1.96111 0
M  V30 26103 C 2726.05 1.48449 -0.830475 0
M  V30 26104 O 2727.23 1.60493 -1.09342 0
M  V30 26105 C 2724.36 2.61547 -2.28497 0
M  V30 26106 C 2723.32 2.54479 -3.44129 0
M  V30 26107 C 2722.64 3.93393 -3.62141 0
M  V30 26108 C 2723.94 2.08548 -4.78858 0
M  V30 26109 H 2725.64 0.935384 -2.84413 0
M  V30 26110 H 2723.18 0.448516 -1.36837 0
M  V30 26111 H 2725.14 3.35455 -2.55045 0
M  V30 26112 H 2723.86 2.96451 -1.37057 0
M  V30 26113 H 2722.52 1.83027 -3.17642 0
M  V30 26114 H 2722.17 4.25619 -2.68063 0
M  V30 26115 H 2721.87 3.89544 -4.3992 0
M  V30 26116 H 2723.39 4.68951 -3.91046 0
M  V30 26117 H 2724.81 2.72204 -5.04557 0
M  V30 26118 H 2723.2 2.1574 -5.59979 0
M  V30 26119 H 2724.27 1.03802 -4.73659 0
M  V30 26120 N 2725.62 1.50103 0.480296 0
M  V30 26121 C 2726.86 1.62263 1.24299 0
M  V30 26122 C 2727.22 0.311791 1.89451 0
M  V30 26123 O 2728.42 0.308742 2.67021 0
M  V30 26124 C 2726.69 2.76396 2.26583 0
M  V30 26125 S 2728.25 3.08634 3.11914 0
M  V30 26126 H 2725.07 0.572118 0.42214 0
M  V30 26127 H 2727.67 1.87849 0.541558 0
M  V30 26128 H 2726.38 3.70134 1.77283 0
M  V30 26129 H 2725.91 2.52867 3.01366 0
M  V30 26130 H 2727.92 2.5175 4.27594 0
M  V30 26131 N 2727.09 -0.732829 1.39526 0
M  V30 26132 C 2728.03 -1.85572 1.32809 0
M  V30 26133 C 2729.01 -1.61348 0.201382 0
M  V30 26134 O 2730.19 -1.84585 0.382192 0
M  V30 26135 C 2727.32 -3.21594 1.06277 0
M  V30 26136 C 2726.36 -3.64674 2.21167 0
M  V30 26137 S 2727.2 -3.73789 3.83461 0
M  V30 26138 C 2728.35 -5.12598 3.59158 0
M  V30 26139 H 2728.58 -1.90986 2.27842 0
M  V30 26140 H 2726.12 -0.897905 1.25607 0
M  V30 26141 H 2728.08 -4.00137 0.916532 0
M  V30 26142 H 2726.74 -3.13834 0.129278 0
M  V30 26143 H 2725.93 -4.63392 1.98201 0
M  V30 26144 H 2725.53 -2.93342 2.32005 0
M  V30 26145 H 2727.82 -5.98997 3.16557 0
M  V30 26146 H 2728.77 -5.40594 4.57345 0
M  V30 26147 H 2729.17 -4.82377 2.93212 0
M  V30 26148 N 2728.57 -1.24737 -0.963244 0
M  V30 26149 C 2729.85 -0.99763 -1.68246 0
M  V30 26150 C 2730.23 0.47874 -2.056 0
M  V30 26151 O 2729.58 1.45409 -1.76263 0
M  V30 26152 C 2729.79 -1.92492 -2.91115 0
M  V30 26153 C 2731.14 -2.19839 -3.63257 0
M  V30 26154 O 2732.16 -1.90181 -3.0118 0
M  V30 26155 O 2731.02 -2.70228 -4.75015 0
M  V30 26156 H 2728.11 -0.37765 -0.735738 0
M  V30 26157 H 2730.66 -1.35855 -1.01694 0
M  V30 26158 H 2729.43 -2.9222 -2.60237 0
M  V30 26159 H 2729.05 -1.56745 -3.654 0
M  V30 26160 N 2730.05 1.16459 -1.06184 0
M  V30 26161 C 2731.3 1.86301 -0.77296 0
M  V30 26162 C 2731.61 1.82524 0.703155 0
M  V30 26163 O 2732.82 2.47935 1.10637 0
M  V30 26164 C 2731.27 3.34322 -1.33254 0
M  V30 26165 C 2730.88 3.46576 -2.83882 0
M  V30 26166 C 2732.63 4.09427 -1.12115 0
M  V30 26167 C 2730.53 4.88676 -3.33091 0
M  V30 26168 H 2729.46 0.697873 -0.285464 0
M  V30 26169 H 2732.11 1.31445 -1.28041 0
M  V30 26170 H 2730.5 3.88777 -0.752868 0
M  V30 26171 H 2731.67 3.02287 -3.47792 0
M  V30 26172 H 2729.99 2.84903 -3.03676 0
M  V30 26173 H 2732.58 5.14276 -1.4637 0
M  V30 26174 H 2732.93 4.16258 -0.0594564 0
M  V30 26175 H 2733.46 3.61207 -1.66656 0
M  V30 26176 H 2730.2 4.87024 -4.38734 0
M  V30 26177 H 2729.72 5.33594 -2.73929 0
M  V30 26178 H 2731.4 5.57488 -3.28353 0
M  V30 26179 N 2731.53 0.844266 1.33079 0
M  V30 26180 C 2732.81 0.364295 1.92178 0
M  V30 26181 C 2733.19 -1.15098 1.76963 0
M  V30 26182 O 2732.53 -1.96788 1.16132 0
M  V30 26183 C 2732.74 0.817166 3.39298 0
M  V30 26184 C 2734.09 0.828309 4.16442 0
M  V30 26185 O 2735.12 0.761123 3.47973 0
M  V30 26186 O 2733.97 0.921021 5.38683 0
M  V30 26187 H 2731.07 0.104205 0.820409 0
M  V30 26188 H 2733.61 0.930478 1.41916 0
M  V30 26189 H 2732.39 1.85997 3.44269 0
M  V30 26190 H 2732.01 0.227855 3.96947 0
M  V30 26191 N 2733.01 -1.45682 0.60121 0
M  V30 26192 C 2733.92 -2.34275 -0.123354 0
M  V30 26193 C 2734.93 -1.50862 -0.866994 0
M  V30 26194 O 2736.11 -1.83682 -0.826017 0
M  V30 26195 C 2733.17 -3.28372 -1.11231 0
M  V30 26196 C 2732.23 -4.27691 -0.37133 0
M  V30 26197 C 2731.47 -5.17292 -1.31318 0
M  V30 26198 O 2731.69 -5.10192 -2.55069 0
M  V30 26199 O 2730.62 -5.96374 -0.813706 0
M  V30 26200 H 2734.45 -2.97622 0.604535 0
M  V30 26201 H 2732.04 -1.4496 0.361503 0
M  V30 26202 H 2733.92 -3.86373 -1.68208 0
M  V30 26203 H 2732.59 -2.67598 -1.82134 0
M  V30 26204 H 2731.5 -3.73325 0.240736 0
M  V30 26205 H 2732.83 -4.91303 0.297085 0
M  V30 26206 N 2734.48 -0.340009 -1.53889 0
M  V30 26207 C 2735.72 0.257975 -2.02766 0
M  V30 26208 C 2736.09 1.48049 -1.22252 0
M  V30 26209 O 2737.29 2.15242 -1.6101 0
M  V30 26210 C 2735.56 0.56781 -3.52861 0
M  V30 26211 S 2737.12 1.14311 -4.23649 0
M  V30 26212 H 2733.94 0.0770265 -0.706815 0
M  V30 26213 H 2736.54 -0.47695 -1.89593 0
M  V30 26214 H 2735.24 -0.329817 -4.09073 0
M  V30 26215 H 2734.77 1.3325 -3.70146 0
M  V30 26216 H 2736.79 2.42904 -4.3268 0
M  V30 26217 N 2735.96 1.57451 -0.0685468 0
M  V30 26218 C 2737.24 1.84759 0.642134 0
M  V30 26219 C 2737.62 0.960377 1.87989 0
M  V30 26220 O 2736.97 0.0258296 2.28485 0
M  V30 26221 C 2737.18 3.34874 0.982888 0
M  V30 26222 C 2738.53 4.02306 1.35777 0
M  V30 26223 O 2739.55 3.396 1.07471 0
M  V30 26224 O 2738.41 5.12899 1.88672 0
M  V30 26225 H 2735.5 0.763161 0.318612 0
M  V30 26226 H 2738.05 1.6941 -0.0992313 0
M  V30 26227 H 2736.82 3.91163 0.103652 0
M  V30 26228 H 2736.44 3.55474 1.78112 0
M  V30 26229 N 2737.44 -0.204984 1.56261 0
M  V30 26230 C 2738.86 -0.555406 1.49624 0
M  V30 26231 C 2739.06 -1.86342 0.766752 0
M  V30 26232 O 2738.11 -2.5055 0.313202 0
M  V30 26233 C 2739.43 -0.619296 2.94254 0
M  V30 26234 C 2740.97 -0.708802 3.04869 0
M  V30 26235 C 2741.45 -0.80389 4.5089 0
M  V30 26236 N 2742.94 -0.867678 4.55001 0
M  V30 26237 C 2743.68 -0.96125 5.65285 0
M  V30 26238 N 2743.17 -1.01774 6.85284 0
M  V30 26239 N 2744.96 -0.997674 5.53175 0
M  V30 26240 H 2737.12 0.653129 2.02109 0
M  V30 26241 H 2739.38 0.231382 0.919329 0
M  V30 26242 H 2739.08 0.27252 3.50643 0
M  V30 26243 H 2738.96 -1.47734 3.47065 0
M  V30 26244 H 2741.35 -1.59105 2.48535 0
M  V30 26245 H 2741.43 0.17525 2.55199 0
M  V30 26246 H 2741.07 0.073969 5.07846 0
M  V30 26247 H 2741 -1.7036 4.98282 0
M  V30 26248 H 2743.49 -0.83367 3.6859 0
M  V30 26249 H 2743.8 -1.08938 7.65083 0
M  V30 26250 H 2742.15 -0.986585 6.87962 0
M  V30 26251 H 2745.34 -0.950312 4.58352 0
M  V30 26252 H 2745.51 -1.06714 6.39153 0
M  V30 26253 N 2738.92 -1.50356 -0.472329 0
M  V30 26254 C 2739.85 -1.65281 -1.58792 0
M  V30 26255 C 2740.86 -0.53434 -1.53781 0
M  V30 26256 O 2742.05 -0.807474 -1.59192 0
M  V30 26257 C 2739.15 -1.62006 -2.9767 0
M  V30 26258 C 2738.33 -2.89864 -3.27563 0
M  V30 26259 C 2737.39 -2.7925 -4.45989 0
M  V30 26260 O 2736.41 -3.53205 -4.46357 0
M  V30 26261 N 2737.61 -1.92723 -5.47575 0
M  V30 26262 H 2740.38 -2.61506 -1.46406 0
M  V30 26263 H 2737.94 -1.47804 -0.660725 0
M  V30 26264 H 2739.93 -1.5252 -3.7486 0
M  V30 26265 H 2738.5 -0.735213 -3.03831 0
M  V30 26266 H 2737.72 -3.13487 -2.38997 0
M  V30 26267 H 2739.01 -3.74571 -3.44346 0
M  V30 26268 H 2738.41 -1.31949 -5.50096 0
M  V30 26269 H 2736.96 -1.89141 -6.23754 0
M  V30 26270 N 2740.4 0.725419 -1.39912 0
M  V30 26271 C 2741.81 1.30413 -1.33601 0
M  V30 26272 C 2742.16 1.96199 -0.00485241 0
M  V30 26273 O 2741.28 1.96923 0.897241 0
M  V30 26274 C 2741.88 2.37142 -2.41969 0
M  V30 26275 C 2740.44 2.90662 -2.39149 0
M  V30 26276 C 2739.59 1.64337 -2.23358 0
M  V30 26277 H 2742.54 0.522241 -1.49861 0
M  V30 26278 H 2742.56 3.17757 -2.0931 0
M  V30 26279 H 2742.07 1.89232 -3.3884 0
M  V30 26280 H 2740.17 3.42827 -1.45946 0
M  V30 26281 H 2740.28 3.43125 -3.34368 0
M  V30 26282 H 2738.65 1.89034 -1.70699 0
M  V30 26283 H 2739.43 1.18466 -3.22212 0
M  V30 26284 N 2741.88 1.25246 0.956615 0
M  V30 26285 C 2743.12 1.11079 1.71583 0
M  V30 26286 C 2743.48 -0.342736 1.88916 0
M  V30 26287 O 2744.68 -0.606181 2.61876 0
M  V30 26288 C 2742.95 1.84221 3.06264 0
M  V30 26289 S 2744.51 1.85921 3.97466 0
M  V30 26290 H 2741.33 0.397066 0.589796 0
M  V30 26291 H 2743.93 1.58741 1.14112 0
M  V30 26292 H 2742.63 2.89072 2.91317 0
M  V30 26293 H 2742.17 1.36937 3.68798 0
M  V30 26294 H 2744.18 0.934825 4.87315 0
M  V30 26295 N 2743.35 -1.15894 1.068 0
M  V30 26296 C 2744.6 -1.86179 0.786243 0
M  V30 26297 C 2744.92 -1.82403 -0.689515 0
M  V30 26298 O 2744.19 -1.2611 -1.49911 0
M  V30 26299 H 2742.77 -0.68931 0.287856 0
M  V30 26300 H 2745.43 -1.40518 1.35058 0
M  V30 26301 H 2744.53 -2.91475 1.11575 0
M  V30 26302 N 2744.83 -0.851312 -1.32629 0
M  V30 26303 C 2745.78 -0.282242 -2.30881 0
M  V30 26304 C 2746.77 0.592562 -1.58698 0
M  V30 26305 O 2747.98 0.480737 -1.73462 0
M  V30 26306 H 2744.35 -0.0725618 -0.748491 0
M  V30 26307 H 2746.33 -1.12521 -2.76372 0
M  V30 26308 C 2745.07 0.517389 -3.43829 0
M  V30 26309 H 2744.4 -0.146463 -3.99532 0
M  V30 26310 H 2745.84 0.881207 -4.14742 0
M  V30 26311 C 2744.3 1.70127 -2.90789 0
M  V30 26312 O 2744.83 2.80029 -2.88005 0
M  V30 26313 N 2743.03 1.52724 -2.47232 0
M  V30 26314 H 2742.58 0.633213 -2.49696 0
M  V30 26315 H 2742.54 2.32082 -2.12098 0
M  V30 26316 N 2746.31 1.45361 -0.608928 0
M  V30 26317 C 2747.56 2.0183 -0.104436 0
M  V30 26318 C 2747.88 1.47969 1.27004 0
M  V30 26319 O 2747.15 0.674487 1.83922 0
M  V30 26320 H 2745.73 0.74615 -0.0356173 0
M  V30 26321 H 2748.39 1.78143 -0.790627 0
M  V30 26322 H 2747.49 3.12051 -0.0552341 0
M  V30 26323 N 2747.79 0.348166 1.53706 0
M  V30 26324 C 2749.02 -0.248188 2.05406 0
M  V30 26325 C 2749.43 -1.43847 1.22284 0
M  V30 26326 O 2748.79 -1.80649 0.259276 0
M  V30 26327 C 2748.84 -0.65873 3.55448 0
M  V30 26328 O 2748.56 0.484226 4.35416 0
M  V30 26329 C 2750.06 -1.31531 4.23337 0
M  V30 26330 H 2747.28 -0.0470958 0.669345 0
M  V30 26331 H 2749.82 0.501491 1.98256 0
M  V30 26332 H 2747.98 -1.35835 3.62805 0
M  V30 26333 H 2748.39 0.156041 5.24268 0
M  V30 26334 H 2749.87 -1.55329 5.29695 0
M  V30 26335 H 2750.34 -2.2703 3.75971 0
M  V30 26336 H 2750.95 -0.657609 4.20185 0
M  V30 26337 N 2749.27 -1.57412 0.0768958 0
M  V30 26338 C 2750.51 -1.95559 -0.594642 0
M  V30 26339 C 2750.87 -0.956687 -1.66468 0
M  V30 26340 O 2752.07 -1.226 -2.39213 0
M  V30 26341 C 2750.34 -3.38325 -1.152 0
M  V30 26342 S 2751.9 -3.98453 -1.83795 0
M  V30 26343 H 2748.72 -0.68386 -0.194567 0
M  V30 26344 H 2751.32 -1.94908 0.151967 0
M  V30 26345 H 2750.02 -4.08805 -0.361458 0
M  V30 26346 H 2749.56 -3.4253 -1.93485 0
M  V30 26347 H 2751.57 -3.85773 -3.1208 0
M  V30 26348 N 2750.74 0.196695 -1.56368 0
M  V30 26349 C 2751.69 1.24378 -1.94419 0
M  V30 26350 C 2752.66 1.45313 -0.804569 0
M  V30 26351 O 2753.85 1.58473 -1.06259 0
M  V30 26352 C 2750.99 2.58384 -2.28761 0
M  V30 26353 C 2750.1 2.45041 -3.55779 0
M  V30 26354 C 2749.23 3.71739 -3.79451 0
M  V30 26355 C 2748.27 3.53223 -4.999 0
M  V30 26356 N 2747.41 4.71929 -5.19834 0
M  V30 26357 H 2752.25 0.912288 -2.83692 0
M  V30 26358 H 2749.79 0.43911 -1.40393 0
M  V30 26359 H 2751.75 3.36453 -2.46688 0
M  V30 26360 H 2750.38 2.8958 -1.4263 0
M  V30 26361 H 2749.43 1.58278 -3.45908 0
M  V30 26362 H 2750.74 2.27292 -4.44004 0
M  V30 26363 H 2749.89 4.58249 -3.97609 0
M  V30 26364 H 2748.63 3.92441 -2.89553 0
M  V30 26365 H 2747.64 2.65098 -4.81667 0
M  V30 26366 H 2748.86 3.33968 -5.91306 0
M  V30 26367 H 2746.81 4.92897 -4.32884 0
M  V30 26368 H 2746.73 4.56999 -6.02236 0
M  V30 26369 H 2747.99 5.59794 -5.42449 0
M  V30 26370 N 2752.22 1.50604 0.464349 0
M  V30 26371 C 2753.17 1.70496 1.58221 0
M  V30 26372 C 2754.16 0.570864 1.59491 0
M  V30 26373 O 2755.37 0.751545 1.6356 0
M  V30 26374 H 2751.75 0.538256 0.525152 0
M  V30 26375 H 2753.72 2.64254 1.38608 0
M  V30 26376 C 2752.47 1.82248 2.9611 0
M  V30 26377 H 2751.79 2.68907 2.95854 0
M  V30 26378 H 2753.23 2.00189 3.73765 0
M  V30 26379 C 2751.69 0.575686 3.31945 0
M  V30 26380 O 2752.22 -0.282082 4.00708 0
M  V30 26381 N 2750.42 0.427715 2.87435 0
M  V30 26382 H 2749.97 1.12678 2.3165 0
M  V30 26383 H 2749.93 -0.405325 3.11776 0
M  V30 26384 N 2753.7 -0.717989 1.40295 0
M  V30 26385 C 2754.95 -1.47337 1.37748 0
M  V30 26386 C 2755.26 -1.95592 -0.018041 0
M  V30 26387 O 2756.47 -2.70991 -0.166118 0
M  V30 26388 C 2754.92 -2.66314 2.42085 0
M  V30 26389 C 2754.53 -2.24939 3.87436 0
M  V30 26390 C 2756.28 -3.44061 2.48641 0
M  V30 26391 C 2754.18 -3.4074 4.83374 0
M  V30 26392 H 2753.11 -0.553347 0.512175 0
M  V30 26393 H 2755.76 -0.781632 1.6602 0
M  V30 26394 H 2754.15 -3.37646 2.06909 0
M  V30 26395 H 2755.32 -1.61042 4.31743 0
M  V30 26396 H 2753.64 -1.60242 3.84333 0
M  V30 26397 H 2756.23 -4.30225 3.17506 0
M  V30 26398 H 2756.58 -3.87708 1.51618 0
M  V30 26399 H 2757.11 -2.7977 2.82796 0
M  V30 26400 H 2753.85 -3.02126 5.81722 0
M  V30 26401 H 2753.37 -4.0356 4.43733 0
M  V30 26402 H 2755.05 -4.06839 5.03081 0
M  V30 26403 N 2755.18 -1.25752 -0.94996 0
M  V30 26404 C 2756.43 -1.10171 -1.68954 0
M  V30 26405 C 2756.74 0.356275 -1.92328 0
M  V30 26406 O 2757.95 0.63261 -2.64027 0
M  V30 26407 C 2756.4 -1.92341 -3.04192 0
M  V30 26408 C 2756.01 -3.4266 -2.88597 0
M  V30 26409 C 2757.75 -1.85343 -3.81901 0
M  V30 26410 C 2755.66 -4.17109 -4.19254 0
M  V30 26411 H 2754.59 -0.408679 -0.633638 0
M  V30 26412 H 2757.24 -1.49988 -1.05716 0
M  V30 26413 H 2755.62 -1.45351 -3.6836 0
M  V30 26414 H 2756.8 -3.97357 -2.33333 0
M  V30 26415 H 2755.11 -3.508 -2.24339 0
M  V30 26416 H 2757.71 -2.38257 -4.78683 0
M  V30 26417 H 2758.05 -0.822298 -4.08098 0
M  V30 26418 H 2758.59 -2.30109 -3.24491 0
M  V30 26419 H 2755.33 -5.20655 -3.98244 0
M  V30 26420 H 2754.85 -3.67194 -4.74266 0
M  V30 26421 H 2756.52 -4.25079 -4.87767 0
M  V30 26422 N 2756.66 1.15326 -1.07413 0
M  V30 26423 C 2757.9 1.85759 -0.796106 0
M  V30 26424 C 2758.23 1.82766 0.679832 0
M  V30 26425 O 2757.5 1.26903 1.4924 0
M  V30 26426 H 2756.08 0.687774 -0.291507 0
M  V30 26427 H 2758.74 1.398 -1.35801 0
M  V30 26428 H 2757.83 2.90879 -1.13119 0
M  V30 26429 N 2758.13 0.858334 1.32176 0
M  V30 26430 C 2759.36 0.476753 2.01846 0
M  V30 26431 C 2759.78 -0.919992 1.64066 0
M  V30 26432 O 2759.14 -1.60498 0.843217 0
M  V30 26433 C 2759.19 0.62764 3.55096 0
M  V30 26434 O 2758.29 -0.338013 4.11012 0
M  V30 26435 H 2757.64 0.19111 0.635903 0
M  V30 26436 H 2760.17 1.15854 1.68639 0
M  V30 26437 H 2760.18 0.516547 4.04717 0
M  V30 26438 H 2758.85 1.64616 3.81935 0
M  V30 26439 H 2757.43 -0.182851 3.72451 0
M  V30 26440 N 2759.61 -1.45036 0.616628 0
M  V30 26441 C 2760.84 -2.0624 0.121827 0
M  V30 26442 C 2761.25 -1.4604 -1.20287 0
M  V30 26443 O 2760.59 -0.572273 -1.74559 0
M  V30 26444 C 2760.66 -3.59405 -0.0826713 0
M  V30 26445 C 2760.32 -4.4199 1.16161 0
M  V30 26446 C 2761.32 -4.76395 2.08191 0
M  V30 26447 C 2759 -4.82599 1.39297 0
M  V30 26448 C 2761 -5.50275 3.21678 0
M  V30 26449 C 2758.68 -5.5623 2.53083 0
M  V30 26450 C 2759.68 -5.89986 3.44101 0
M  V30 26451 O 2759.37 -6.62122 4.55906 0
M  V30 26452 H 2759.1 -0.672347 0.0701785 0
M  V30 26453 H 2761.65 -1.87127 0.84691 0
M  V30 26454 H 2759.88 -3.76953 -0.862746 0
M  V30 26455 H 2761.57 -4.02422 -0.530202 0
M  V30 26456 H 2762.34 -4.45573 1.91546 0
M  V30 26457 H 2758.22 -4.55754 0.693476 0
M  V30 26458 H 2761.76 -5.7654 3.92743 0
M  V30 26459 H 2757.66 -5.86468 2.69678 0
M  V30 26460 H 2758.43 -6.80579 4.54702 0
M  V30 26461 N 2761.09 -0.356312 -1.53519 0
M  V30 26462 C 2762.04 0.50974 -2.26946 0
M  V30 26463 C 2763.03 1.09123 -1.29571 0
M  V30 26464 O 2764.24 1.0355 -1.47233 0
M  V30 26465 H 2760.61 0.183089 -0.729371 0
M  V30 26466 H 2762.58 -0.131427 -2.9811 0
M  V30 26467 C 2761.33 1.64232 -3.06469 0
M  V30 26468 H 2760.66 1.20416 -3.81235 0
M  V30 26469 H 2762.1 2.22321 -3.61039 0
M  V30 26470 C 2760.56 2.57924 -2.16742 0
M  V30 26471 O 2761.09 3.60503 -1.77201 0
M  V30 26472 N 2759.29 2.269 -1.81562 0
M  V30 26473 H 2758.84 1.4352 -2.13915 0
M  V30 26474 H 2758.8 2.89844 -1.21812 0
M  V30 26475 N 2762.57 1.57369 -0.0852427 0
M  V30 26476 C 2763.81 1.95872 0.584262 0
M  V30 26477 C 2764.17 0.965502 1.65958 0
M  V30 26478 O 2765.37 1.23866 2.38559 0
M  V30 26479 C 2763.64 3.38931 1.13405 0
M  V30 26480 S 2765.2 3.99422 1.8168 0
M  V30 26481 H 2762.02 0.684882 0.190938 0
M  V30 26482 H 2764.62 1.94825 -0.162302 0
M  V30 26483 H 2763.33 4.08991 0.339773 0
M  V30 26484 H 2762.86 3.43552 1.91666 0
M  V30 26485 H 2764.87 3.87422 3.1003 0
M  V30 26486 N 2764.05 -0.188399 1.5647 0
M  V30 26487 C 2764.98 -1.23602 1.98103 0
M  V30 26488 C 2765.96 -1.47109 0.853986 0
M  V30 26489 O 2767.14 -1.58733 1.11881 0
M  V30 26490 C 2764.27 -2.57878 2.32629 0
M  V30 26491 C 2763.23 -2.48972 3.48134 0
M  V30 26492 C 2762.55 -3.87582 3.68354 0
M  V30 26493 C 2763.85 -2.00903 4.82115 0
M  V30 26494 H 2765.55 -0.890018 2.85865 0
M  V30 26495 H 2763.09 -0.42669 1.37533 0
M  V30 26496 H 2765.05 -3.31355 2.60349 0
M  V30 26497 H 2763.77 -2.94233 1.41756 0
M  V30 26498 H 2762.43 -1.7795 3.20514 0
M  V30 26499 H 2762.08 -4.213 2.748 0
M  V30 26500 H 2761.78 -3.82496 4.46062 0
M  V30 26501 H 2763.3 -4.62671 3.98457 0
M  V30 26502 H 2764.71 -2.64142 5.08824 0
M  V30 26503 H 2763.11 -2.06804 5.6334 0
M  V30 26504 H 2764.18 -0.962536 4.75251 0
M  V30 26505 N 2765.53 -1.50848 -0.456355 0
M  V30 26506 C 2766.77 -1.6422 -1.21701 0
M  V30 26507 C 2767.13 -0.341892 -1.88931 0
M  V30 26508 O 2768.33 -0.351184 -2.66496 0
M  V30 26509 C 2766.6 -2.79966 -2.22157 0
M  V30 26510 S 2768.16 -3.13558 -3.06964 0
M  V30 26511 H 2764.98 -0.578761 -0.412985 0
M  V30 26512 H 2767.58 -1.88687 -0.511604 0
M  V30 26513 H 2766.28 -3.72907 -1.71372 0
M  V30 26514 H 2765.82 -2.5763 -2.97305 0
M  V30 26515 H 2767.83 -2.58521 -4.23534 0
M  V30 26516 N 2767 0.710538 -1.40674 0
M  V30 26517 C 2768.25 1.47047 -1.39224 0
M  V30 26518 C 2768.58 1.945 0.00373492 0
M  V30 26519 O 2767.83 1.68859 0.989194 0
M  V30 26520 C 2768.13 2.70787 -2.33258 0
M  V30 26521 C 2767.8 2.42072 -3.8041 0
M  V30 26522 C 2766.46 2.33951 -4.205 0
M  V30 26523 C 2768.81 2.18086 -4.73379 0
M  V30 26524 C 2766.14 1.99919 -5.51588 0
M  V30 26525 C 2768.49 1.85566 -6.04771 0
M  V30 26526 C 2767.16 1.7593 -6.43898 0
M  V30 26527 H 2766.43 0.538083 -0.509458 0
M  V30 26528 H 2769.07 0.81345 -1.73364 0
M  V30 26529 H 2767.38 3.41351 -1.9232 0
M  V30 26530 H 2769.08 3.2889 -2.29417 0
M  V30 26531 H 2765.67 2.49282 -3.4865 0
M  V30 26532 H 2769.85 2.23313 -4.43221 0
M  V30 26533 H 2765.11 1.91 -5.808 0
M  V30 26534 H 2769.28 1.66021 -6.76321 0
M  V30 26535 H 2766.91 1.49327 -7.4539 0
M  V30 26536 N 2768.48 1.26254 0.943277 0
M  V30 26537 C 2769.89 1.10616 1.50403 0
M  V30 26538 C 2770.24 -0.314256 1.93667 0
M  V30 26539 O 2769.37 -1.20552 1.79711 0
M  V30 26540 C 2769.96 2.00187 2.73333 0
M  V30 26541 C 2768.52 1.88701 3.25682 0
M  V30 26542 C 2767.67 1.93662 1.9847 0
M  V30 26543 H 2770.62 1.39374 0.758982 0
M  V30 26544 H 2770.64 1.54853 3.47564 0
M  V30 26545 H 2770.15 3.03559 2.41813 0
M  V30 26546 H 2768.25 0.882553 3.61997 0
M  V30 26547 H 2768.37 2.74121 3.9293 0
M  V30 26548 H 2766.73 1.37688 2.14276 0
M  V30 26549 H 2767.51 2.9866 1.69284 0
M  V30 26550 N 2769.96 -1.14755 1.08024 0
M  V30 26551 C 2771.21 -1.85335 0.805946 0
M  V30 26552 C 2771.53 -1.83124 -0.67013 0
M  V30 26553 O 2770.8 -1.27693 -1.48565 0
M  V30 26554 H 2769.38 -0.686218 0.29515 0
M  V30 26555 H 2772.04 -1.39078 1.36541 0
M  V30 26556 H 2771.14 -2.90275 1.1466 0
M  V30 26557 N 2771.44 -0.865331 -1.31719 0
M  V30 26558 C 2772.68 -0.473966 -1.96875 0
M  V30 26559 C 2773.01 0.972757 -1.68427 0
M  V30 26560 O 2772.27 1.69925 -0.970772 0
M  V30 26561 C 2772.57 -0.672345 -3.51019 0
M  V30 26562 C 2772.23 -2.09115 -3.99477 0
M  V30 26563 C 2770.89 -2.47917 -4.1242 0
M  V30 26564 C 2773.25 -3.01667 -4.25025 0
M  V30 26565 C 2770.57 -3.78523 -4.48261 0
M  V30 26566 C 2772.93 -4.31782 -4.62328 0
M  V30 26567 C 2771.59 -4.70505 -4.73478 0
M  V30 26568 H 2770.86 -0.173436 -0.720417 0
M  V30 26569 H 2773.51 -1.09743 -1.56935 0
M  V30 26570 H 2771.81 0.0342871 -3.91785 0
M  V30 26571 H 2773.51 -0.349424 -3.99475 0
M  V30 26572 H 2770.1 -1.77988 -3.89895 0
M  V30 26573 H 2774.28 -2.72917 -4.14524 0
M  V30 26574 H 2769.54 -4.08293 -4.5509 0
M  V30 26575 H 2773.71 -5.03552 -4.81049 0
M  V30 26576 H 2771.34 -5.71749 -5.01006 0
M  V30 26577 N 2772.92 1.44707 -0.624311 0
M  V30 26578 C 2774.16 2.02407 -0.126273 0
M  V30 26579 C 2774.49 1.48945 1.24615 0
M  V30 26580 O 2773.77 0.670774 1.82567 0
M  V30 26581 C 2774.05 3.59945 -0.105512 0
M  V30 26582 C 2773.91 4.23704 -1.5098 0
M  V30 26583 C 2775.22 4.36347 0.573552 0
M  V30 26584 H 2772.34 0.735477 -0.0473602 0
M  V30 26585 H 2774.99 1.72361 -0.799482 0
M  V30 26586 H 2773.14 3.85674 0.467762 0
M  V30 26587 H 2774.81 4.09106 -2.13144 0
M  V30 26588 H 2773.05 3.81461 -2.06567 0
M  V30 26589 H 2773.72 5.32687 -1.44736 0
M  V30 26590 H 2776.2 4.16011 0.0861056 0
M  V30 26591 H 2775.07 5.46064 0.557242 0
M  V30 26592 H 2775.33 4.10449 1.64269 0
M  V30 26593 N 2774.39 0.364449 1.53328 0
M  V30 26594 C 2775.64 -0.225933 2.01538 0
M  V30 26595 C 2775.97 -1.48513 1.2513 0
M  V30 26596 O 2775.25 -1.91421 0.344687 0
M  V30 26597 C 2775.53 -0.51903 3.5634 0
M  V30 26598 C 2775.38 0.753717 4.4344 0
M  V30 26599 C 2776.7 -1.32007 4.19836 0
M  V30 26600 H 2773.82 -0.0806419 0.732575 0
M  V30 26601 H 2776.46 0.489117 1.83596 0
M  V30 26602 H 2774.61 -1.12818 3.71758 0
M  V30 26603 H 2776.29 1.39124 4.39821 0
M  V30 26604 H 2774.53 1.37431 4.11455 0
M  V30 26605 H 2775.2 0.503613 5.49698 0
M  V30 26606 H 2777.68 -0.804787 4.08243 0
M  V30 26607 H 2776.55 -1.49389 5.2818 0
M  V30 26608 H 2776.81 -2.32826 3.75825 0
M  V30 26609 N 2775.87 -1.57322 0.0935872 0
M  V30 26610 C 2777.1 -1.98636 -0.578899 0
M  V30 26611 C 2777.51 -0.972654 -1.61817 0
M  V30 26612 O 2776.87 0.0379317 -1.82461 0
M  V30 26613 C 2776.92 -3.40005 -1.22796 0
M  V30 26614 O 2776.64 -4.37494 -0.230257 0
M  V30 26615 C 2778.14 -3.96314 -1.9862 0
M  V30 26616 H 2775.36 -0.652778 -0.155312 0
M  V30 26617 H 2777.91 -2.03772 0.172429 0
M  V30 26618 H 2776.06 -3.35888 -1.93023 0
M  V30 26619 H 2776.48 -5.19827 -0.698557 0
M  V30 26620 H 2777.95 -4.97387 -2.39396 0
M  V30 26621 H 2778.43 -3.34049 -2.85145 0
M  V30 26622 H 2779.03 -4.03899 -1.33213 0
M  V30 26623 N 2777.35 0.180099 -1.56568 0
M  V30 26624 C 2778.3 1.22753 -1.92135 0
M  V30 26625 C 2779.28 1.40246 -0.788663 0
M  V30 26626 O 2780.48 1.42364 -1.05173 0
M  V30 26627 C 2777.6 2.56898 -2.27724 0
M  V30 26628 C 2776.69 2.43136 -3.47485 0
M  V30 26629 N 2777.08 1.99074 -4.64976 0
M  V30 26630 C 2775.38 2.73987 -3.51919 0
M  V30 26631 C 2776.08 1.97564 -5.47123 0
M  V30 26632 N 2775.06 2.39637 -4.8793 0
M  V30 26633 H 2778.86 0.878428 -2.80465 0
M  V30 26634 H 2776.37 0.388436 -1.57686 0
M  V30 26635 H 2778.37 3.32575 -2.51395 0
M  V30 26636 H 2777.03 2.92619 -1.40727 0
M  V30 26637 H 2778.04 1.69548 -4.89361 0
M  V30 26638 H 2774.72 3.13804 -2.75378 0
M  V30 26639 H 2776.11 1.65271 -6.51257 0
M  V30 26640 N 2778.83 1.51088 0.448349 0
M  V30 26641 C 2779.78 1.72164 1.56404 0
M  V30 26642 C 2780.77 0.587748 1.58877 0
M  V30 26643 O 2781.98 0.768851 1.62753 0
M  V30 26644 H 2778.35 0.543796 0.519413 0
M  V30 26645 H 2780.32 2.65709 1.35798 0
M  V30 26646 C 2779.07 1.85378 2.9416 0
M  V30 26647 H 2778.39 2.72029 2.92985 0
M  V30 26648 H 2779.83 2.04142 3.71621 0
M  V30 26649 C 2778.29 0.610861 3.31316 0
M  V30 26650 O 2778.82 -0.239566 4.00985 0
M  V30 26651 N 2777.03 0.458177 2.86965 0
M  V30 26652 H 2776.58 1.15128 2.30441 0
M  V30 26653 H 2776.53 -0.372234 3.12189 0
M  V30 26654 N 2780.31 -0.703068 1.41049 0
M  V30 26655 C 2781.55 -1.46018 1.39726 0
M  V30 26656 C 2781.88 -1.94999 0.00464685 0
M  V30 26657 O 2781.15 -1.71198 -0.952262 0
M  V30 26658 H 2779.73 -0.54177 0.51429 0
M  V30 26659 H 2782.39 -0.832647 1.76219 0
M  V30 26660 H 2781.48 -2.32697 2.07986 0
M  V30 26661 N 2781.78 -1.26752 -0.936569 0
M  V30 26662 C 2783.06 -1.03309 -1.66092 0
M  V30 26663 C 2783.44 0.435021 -2.06569 0
M  V30 26664 O 2782.79 1.41637 -1.79307 0
M  V30 26665 C 2783 -1.98624 -2.86966 0
M  V30 26666 C 2784.35 -2.27495 -3.58512 0
M  V30 26667 O 2785.37 -1.96527 -2.97078 0
M  V30 26668 O 2784.23 -2.80243 -4.69176 0
M  V30 26669 H 2781.32 -0.393171 -0.727561 0
M  V30 26670 H 2783.87 -1.37981 -0.98789 0
M  V30 26671 H 2782.64 -2.97674 -2.5398 0
M  V30 26672 H 2782.27 -1.6446 -3.61993 0
M  V30 26673 N 2783.26 1.1418 -1.08631 0
M  V30 26674 C 2784.5 1.86926 -0.826917 0
M  V30 26675 C 2784.87 1.81168 0.635776 0
M  V30 26676 O 2786.07 2.49072 1.01076 0
M  V30 26677 C 2784.34 3.31439 -1.33726 0
M  V30 26678 S 2785.9 4.21772 -1.21052 0
M  V30 26679 H 2782.72 0.644936 -0.299298 0
M  V30 26680 H 2785.32 1.37672 -1.38805 0
M  V30 26681 H 2784.02 3.3318 -2.39623 0
M  V30 26682 H 2783.55 3.85753 -0.771907 0
M  V30 26683 H 2785.57 4.95954 -0.156256 0
M  V30 26684 N 2784.74 0.872304 1.31258 0
M  V30 26685 C 2785.99 0.485118 1.96912 0
M  V30 26686 C 2786.32 -0.960637 1.68776 0
M  V30 26687 O 2785.59 -1.67683 0.985524 0
M  V30 26688 C 2785.88 0.745564 3.52297 0
M  V30 26689 C 2785.73 2.24102 3.89998 0
M  V30 26690 C 2787.05 0.213593 4.39581 0
M  V30 26691 H 2784.17 0.177729 0.715249 0
M  V30 26692 H 2786.81 1.09397 1.55346 0
M  V30 26693 H 2784.96 0.227344 3.87834 0
M  V30 26694 H 2786.63 2.82668 3.6455 0
M  V30 26695 H 2784.88 2.71267 3.38521 0
M  V30 26696 H 2785.55 2.3739 4.98347 0
M  V30 26697 H 2788.02 0.656974 4.10881 0
M  V30 26698 H 2786.9 0.425256 5.4725 0
M  V30 26699 H 2787.16 -0.88459 4.3316 0
M  V30 26700 N 2786.22 -1.44374 0.631976 0
M  V30 26701 C 2787.5 -1.95483 0.0676803 0
M  V30 26702 C 2787.88 -1.57392 -1.4068 0
M  V30 26703 O 2787.22 -0.848412 -2.12166 0
M  V30 26704 C 2787.43 -3.47781 0.291453 0
M  V30 26705 C 2788.78 -4.24196 0.185102 0
M  V30 26706 O 2789.81 -3.55502 0.222865 0
M  V30 26707 O 2788.66 -5.46425 0.0907602 0
M  V30 26708 H 2785.76 -0.826712 -0.0218234 0
M  V30 26709 H 2788.3 -1.5442 0.703739 0
M  V30 26710 H 2787.08 -3.68558 1.31455 0
M  V30 26711 H 2786.7 -3.95792 -0.378702 0
M  V30 26712 N 2787.7 -0.372575 -1.53133 0
M  V30 26713 C 2788.94 0.214924 -2.01356 0
M  V30 26714 C 2789.27 1.48201 -1.25963 0
M  V30 26715 O 2788.53 1.92661 -0.343545 0
M  V30 26716 C 2788.83 0.545876 -3.53207 0
M  V30 26717 C 2788.49 -0.627703 -4.46509 0
M  V30 26718 C 2787.15 -0.949698 -4.71735 0
M  V30 26719 C 2789.51 -1.41362 -5.01663 0
M  V30 26720 C 2786.83 -2.05946 -5.49366 0
M  V30 26721 C 2789.19 -2.51385 -5.80507 0
M  V30 26722 C 2787.85 -2.84112 -6.04017 0
M  V30 26723 H 2787.12 0.0786461 -0.736815 0
M  V30 26724 H 2789.77 -0.506479 -1.84681 0
M  V30 26725 H 2788.07 1.34839 -3.67866 0
M  V30 26726 H 2789.77 1.01281 -3.87999 0
M  V30 26727 H 2786.36 -0.36671 -4.27028 0
M  V30 26728 H 2790.54 -1.1781 -4.82115 0
M  V30 26729 H 2785.8 -2.31692 -5.65799 0
M  V30 26730 H 2789.97 -3.12695 -6.2225 0
M  V30 26731 H 2787.6 -3.70226 -6.63955 0
M  V30 26732 N 2789.17 1.5727 -0.101929 0
M  V30 26733 C 2790.45 1.8608 0.6028 0
M  V30 26734 C 2790.83 1.00004 1.8591 0
M  V30 26735 O 2790.18 0.0742889 2.28379 0
M  V30 26736 C 2790.39 3.36883 0.911635 0
M  V30 26737 C 2791.74 4.05095 1.27212 0
M  V30 26738 O 2792.76 3.41804 1.00244 0
M  V30 26739 O 2791.62 5.16785 1.77751 0
M  V30 26740 H 2788.71 0.769748 0.302353 0
M  V30 26741 H 2791.26 1.69161 -0.135143 0
M  V30 26742 H 2790.03 3.91295 0.0206568 0
M  V30 26743 H 2789.66 3.59172 1.70532 0
M  V30 26744 N 2790.65 -0.171793 1.56661 0
M  V30 26745 C 2791.56 -1.23266 1.99606 0
M  V30 26746 C 2792.58 -1.48469 0.907359 0
M  V30 26747 O 2793.75 -1.60627 1.21495 0
M  V30 26748 C 2790.82 -2.5519 2.34689 0
M  V30 26749 C 2789.88 -2.37854 3.57385 0
M  V30 26750 C 2789.11 -3.63487 3.90785 0
M  V30 26751 O 2789.34 -4.68644 3.2516 0
M  V30 26752 O 2788.27 -3.57626 4.84136 0
M  V30 26753 H 2792.1 -0.898141 2.90116 0
M  V30 26754 H 2789.68 -0.378622 1.44523 0
M  V30 26755 H 2791.56 -3.33013 2.58225 0
M  V30 26756 H 2790.24 -2.88222 1.47342 0
M  V30 26757 H 2789.15 -1.58064 3.39067 0
M  V30 26758 H 2790.48 -2.09747 4.45272 0
M  V30 26759 N 2792.13 -1.51324 -0.44033 0
M  V30 26760 C 2793.37 -1.65501 -1.19953 0
M  V30 26761 C 2793.73 -0.361911 -1.88558 0
M  V30 26762 O 2794.94 -0.37943 -2.66109 0
M  V30 26763 C 2793.21 -2.82307 -2.19175 0
M  V30 26764 S 2794.77 -3.16796 -3.03621 0
M  V30 26765 H 2791.58 -0.583109 -0.406823 0
M  V30 26766 H 2794.19 -1.89219 -0.491563 0
M  V30 26767 H 2792.89 -3.74704 -1.67407 0
M  V30 26768 H 2792.42 -2.60768 -2.94556 0
M  V30 26769 H 2794.44 -2.62998 -4.20769 0
M  V30 26770 N 2793.61 0.695578 -1.41419 0
M  V30 26771 C 2794.84 1.48437 -1.44132 0
M  V30 26772 C 2795.25 1.88742 -0.0466029 0
M  V30 26773 O 2794.61 1.56783 0.93409 0
M  V30 26774 C 2794.66 2.74692 -2.35003 0
M  V30 26775 O 2794.38 2.36084 -3.69047 0
M  V30 26776 C 2795.88 3.68433 -2.46519 0
M  V30 26777 H 2793.1 0.457434 -0.490913 0
M  V30 26778 H 2795.65 0.856421 -1.85703 0
M  V30 26779 H 2793.8 3.33724 -1.96741 0
M  V30 26780 H 2794.21 3.17466 -4.17511 0
M  V30 26781 H 2795.69 4.53806 -3.14268 0
M  V30 26782 H 2796.17 4.1292 -1.49646 0
M  V30 26783 H 2796.77 3.15305 -2.85417 0
M  V30 26784 N 2795.09 1.27247 0.929833 0
M  V30 26785 C 2796.32 1.16268 1.71142 0
M  V30 26786 C 2796.73 -0.280753 1.86701 0
M  V30 26787 O 2796.09 -1.19134 1.38251 0
M  V30 26788 C 2796.14 1.83916 3.11219 0
M  V30 26789 O 2795.86 3.22619 2.96392 0
M  V30 26790 C 2797.36 1.79035 4.05538 0
M  V30 26791 H 2794.58 0.404338 0.535492 0
M  V30 26792 H 2797.12 1.68079 1.16489 0
M  V30 26793 H 2795.28 1.36015 3.62738 0
M  V30 26794 H 2795.69 3.56268 3.84933 0
M  V30 26795 H 2797.17 2.30987 5.01347 0
M  V30 26796 H 2797.64 0.759244 4.32588 0
M  V30 26797 H 2798.25 2.26541 3.59943 0
M  V30 26798 N 2796.57 -1.13603 1.09235 0
M  V30 26799 C 2797.5 -2.21067 0.751776 0
M  V30 26800 C 2798.48 -1.67949 -0.269659 0
M  V30 26801 O 2799.66 -1.93708 -0.138156 0
M  V30 26802 C 2796.79 -3.46887 0.169411 0
M  V30 26803 C 2795.75 -4.13082 1.12014 0
M  V30 26804 C 2795.07 -5.33205 0.399577 0
M  V30 26805 C 2796.37 -4.60646 2.46176 0
M  V30 26806 H 2798.07 -2.49812 1.65029 0
M  V30 26807 H 2795.61 -1.20071 0.794926 0
M  V30 26808 H 2797.56 -4.21322 -0.0809084 0
M  V30 26809 H 2796.29 -3.17532 -0.76428 0
M  V30 26810 H 2794.95 -3.40612 1.3557 0
M  V30 26811 H 2794.6 -5.00113 -0.538189 0
M  V30 26812 H 2794.3 -5.7844 1.03347 0
M  V30 26813 H 2795.82 -6.10397 0.157511 0
M  V30 26814 H 2797.23 -5.26514 2.26838 0
M  V30 26815 H 2795.63 -5.16614 3.05335 0
M  V30 26816 H 2796.7 -3.75271 3.07083 0
M  V30 26817 N 2798.04 -0.879253 -1.30793 0
M  V30 26818 C 2799.29 -0.495553 -1.96652 0
M  V30 26819 C 2799.62 0.951673 -1.69283 0
M  V30 26820 O 2798.9 1.67158 -0.994403 0
M  V30 26821 C 2799.18 -0.764236 -3.51897 0
M  V30 26822 C 2799.03 -2.26167 -3.88804 0
M  V30 26823 C 2800.35 -0.236902 -4.39462 0
M  V30 26824 H 2797.47 -0.181519 -0.714297 0
M  V30 26825 H 2800.11 -1.1022 -1.54763 0
M  V30 26826 H 2798.26 -0.247909 -3.87708 0
M  V30 26827 H 2799.94 -2.84597 -3.63046 0
M  V30 26828 H 2798.18 -2.73059 -3.37078 0
M  V30 26829 H 2798.85 -2.40029 -4.97082 0
M  V30 26830 H 2801.33 -0.678755 -4.10527 0
M  V30 26831 H 2800.2 -0.454272 -5.47017 0
M  V30 26832 H 2800.46 0.861606 -4.33623 0
M  V30 26833 N 2799.52 1.44037 -0.639624 0
M  V30 26834 C 2800.77 2.01563 -0.147224 0
M  V30 26835 C 2801.09 1.5063 1.23837 0
M  V30 26836 O 2800.36 0.713348 1.8245 0
M  V30 26837 H 2798.94 0.745227 -0.0514362 0
M  V30 26838 H 2801.6 1.76426 -0.828236 0
M  V30 26839 H 2800.7 3.11864 -0.121412 0
M  V30 26840 N 2801 0.380691 1.52933 0
M  V30 26841 C 2801.93 -0.493542 2.23823 0
M  V30 26842 C 2802.94 -1.03381 1.25763 0
M  V30 26843 O 2804.13 -0.937607 1.51892 0
M  V30 26844 C 2801.23 -1.69577 2.93423 0
M  V30 26845 C 2800.41 -1.28438 4.18118 0
M  V30 26846 C 2799.47 -2.35034 4.70792 0
M  V30 26847 O 2798.49 -1.96798 5.34097 0
M  V30 26848 N 2799.69 -3.66831 4.49906 0
M  V30 26849 H 2802.46 0.113762 2.99484 0
M  V30 26850 H 2800.02 0.206615 1.60576 0
M  V30 26851 H 2802.01 -2.40395 3.25565 0
M  V30 26852 H 2800.58 -2.20961 2.21122 0
M  V30 26853 H 2799.8 -0.405434 3.9211 0
M  V30 26854 H 2801.09 -0.986044 4.99154 0
M  V30 26855 H 2800.49 -4.00663 3.99356 0
M  V30 26856 H 2799.04 -4.33709 4.86559 0
M  V30 26857 N 2802.48 -1.57214 0.110268 0
M  V30 26858 C 2803.72 -1.95181 -0.55065 0
M  V30 26859 C 2804.06 -0.993151 -1.66884 0
M  V30 26860 O 2803.33 -0.0288249 -1.94479 0
M  V30 26861 C 2803.61 -3.43157 -1.09157 0
M  V30 26862 C 2803.47 -4.49794 0.0225989 0
M  V30 26863 C 2804.79 -3.92782 -1.98521 0
M  V30 26864 H 2801.91 -0.709711 -0.198694 0
M  V30 26865 H 2804.55 -1.89106 0.184057 0
M  V30 26866 H 2802.7 -3.48465 -1.71769 0
M  V30 26867 H 2804.37 -4.5659 0.657524 0
M  V30 26868 H 2802.61 -4.28326 0.686943 0
M  V30 26869 H 2803.28 -5.50571 -0.396963 0
M  V30 26870 H 2805.76 -3.89723 -1.45793 0
M  V30 26871 H 2804.64 -4.96857 -2.33289 0
M  V30 26872 H 2804.9 -3.32963 -2.90841 0
M  V30 26873 N 2803.96 0.163482 -1.5675 0
M  V30 26874 C 2805.2 0.885238 -1.84236 0
M  V30 26875 C 2805.56 1.79085 -0.692291 0
M  V30 26876 O 2806.76 2.5508 -0.847792 0
M  V30 26877 C 2805.03 1.65331 -3.1686 0
M  V30 26878 S 2806.59 2.42276 -3.65852 0
M  V30 26879 H 2803.41 0.296343 -0.646299 0
M  V30 26880 H 2806.01 0.146331 -1.94952 0
M  V30 26881 H 2804.71 0.979196 -3.98547 0
M  V30 26882 H 2804.25 2.43345 -3.09107 0
M  V30 26883 H 2806.26 3.67138 -3.33803 0
M  V30 26884 N 2805.43 1.51555 0.432299 0
M  V30 26885 C 2806.85 1.39843 0.76917 0
M  V30 26886 C 2807.05 0.48471 1.95583 0
M  V30 26887 O 2806.11 -0.0582385 2.52433 0
M  V30 26888 C 2807.42 2.81965 1.04482 0
M  V30 26889 C 2808.97 2.9115 1.14895 0
M  V30 26890 C 2809.44 4.3419 1.4575 0
M  V30 26891 N 2810.93 4.37319 1.52663 0
M  V30 26892 C 2811.67 5.45033 1.78119 0
M  V30 26893 N 2811.16 6.629 2.01334 0
M  V30 26894 N 2812.96 5.32519 1.79943 0
M  V30 26895 H 2805.11 2.0951 -0.349159 0
M  V30 26896 H 2807.37 0.943345 -0.0938279 0
M  V30 26897 H 2807.08 3.50842 0.245509 0
M  V30 26898 H 2806.95 3.21599 1.97114 0
M  V30 26899 H 2809.34 2.22467 1.93888 0
M  V30 26900 H 2809.42 2.55005 0.201523 0
M  V30 26901 H 2809.06 5.03424 0.672828 0
M  V30 26902 H 2808.99 4.67852 2.41707 0
M  V30 26903 H 2811.48 3.52345 1.36606 0
M  V30 26904 H 2811.8 7.40782 2.20142 0
M  V30 26905 H 2810.14 6.66007 1.98646 0
M  V30 26906 H 2813.33 4.39421 1.61329 0
M  V30 26907 H 2813.51 6.16544 1.99444 0
M  V30 26908 N 2806.91 -0.688069 1.41786 0
M  V30 26909 C 2808.16 -1.44813 1.41546 0
M  V30 26910 C 2808.49 -1.94481 0.0272088 0
M  V30 26911 O 2807.74 -1.70412 -0.962205 0
M  V30 26912 C 2808.04 -2.67042 2.37536 0
M  V30 26913 C 2807.71 -2.3599 3.84213 0
M  V30 26914 C 2806.37 -2.27232 4.24169 0
M  V30 26915 C 2808.72 -2.10527 4.76789 0
M  V30 26916 C 2806.05 -1.91119 5.54699 0
M  V30 26917 C 2808.4 -1.75921 6.07647 0
M  V30 26918 C 2807.06 -1.65664 6.46616 0
M  V30 26919 H 2806.33 -0.52991 0.517954 0
M  V30 26920 H 2808.98 -0.785766 1.74637 0
M  V30 26921 H 2807.29 -3.38248 1.97726 0
M  V30 26922 H 2808.98 -3.25199 2.34621 0
M  V30 26923 H 2805.57 -2.43703 3.52571 0
M  V30 26924 H 2809.76 -2.16234 4.46718 0
M  V30 26925 H 2805.01 -1.81736 5.83765 0
M  V30 26926 H 2809.19 -1.5524 6.78877 0
M  V30 26927 H 2806.81 -1.37449 7.47671 0
M  V30 26928 N 2808.39 -1.27739 -0.923072 0
M  V30 26929 C 2809.64 -1.14122 -1.66795 0
M  V30 26930 C 2809.96 0.312507 -1.9248 0
M  V30 26931 O 2809.23 1.21798 -1.53435 0
M  V30 26932 H 2807.81 -0.419347 -0.618189 0
M  V30 26933 H 2810.47 -1.60333 -1.10812 0
M  V30 26934 H 2809.57 -1.67379 -2.63421 0
M  V30 26935 N 2809.87 1.13022 -1.09836 0
M  V30 26936 C 2810.82 2.16633 -0.710937 0
M  V30 26937 C 2811.8 1.58501 0.276809 0
M  V30 26938 O 2812.99 1.76788 0.0865146 0
M  V30 26939 C 2810.12 3.43024 -0.137634 0
M  V30 26940 C 2809.21 4.08153 -1.15205 0
M  V30 26941 N 2809.6 4.48384 -2.34062 0
M  V30 26942 C 2807.9 4.34847 -0.991151 0
M  V30 26943 C 2808.6 4.99197 -2.98625 0
M  V30 26944 N 2807.58 4.94317 -2.26167 0
M  V30 26945 H 2811.38 2.45497 -1.61581 0
M  V30 26946 H 2808.89 1.29861 -0.975181 0
M  V30 26947 H 2810.89 4.16601 0.157958 0
M  V30 26948 H 2809.55 3.15631 0.762033 0
M  V30 26949 H 2810.56 4.40952 -2.71627 0
M  V30 26950 H 2807.24 4.17243 -0.146522 0
M  V30 26951 H 2808.63 5.40089 -3.99692 0
M  V30 26952 N 2811.35 0.886177 1.30325 0
M  V30 26953 C 2812.59 0.511946 1.97885 0
M  V30 26954 C 2812.95 -0.921915 1.68418 0
M  V30 26955 O 2814.15 -1.40233 2.29321 0
M  V30 26956 C 2812.42 0.780506 3.48773 0
M  V30 26957 S 2813.98 0.508558 4.35843 0
M  V30 26958 H 2810.8 0.19044 0.685021 0
M  V30 26959 H 2813.4 1.1457 1.58411 0
M  V30 26960 H 2812.11 1.82255 3.67711 0
M  V30 26961 H 2811.64 0.134353 3.93171 0
M  V30 26962 H 2813.65 -0.652304 4.91894 0
M  V30 26963 N 2812.82 -1.43695 0.647253 0
M  V30 26964 C 2813.75 -2.33474 -0.0345221 0
M  V30 26965 C 2814.74 -1.49131 -0.818166 0
M  V30 26966 O 2815.92 -1.77811 -0.780835 0
M  V30 26967 C 2813.05 -3.3242 -1.0057 0
M  V30 26968 C 2812 -4.26706 -0.332585 0
M  V30 26969 C 2811.33 -5.15643 -1.4148 0
M  V30 26970 C 2812.63 -5.16574 0.771295 0
M  V30 26971 H 2814.32 -2.90732 0.715214 0
M  V30 26972 H 2811.87 -1.39797 0.345389 0
M  V30 26973 H 2813.82 -3.94121 -1.49152 0
M  V30 26974 H 2812.55 -2.73406 -1.78653 0
M  V30 26975 H 2811.21 -3.6636 0.132735 0
M  V30 26976 H 2810.85 -4.52972 -2.1869 0
M  V30 26977 H 2810.55 -5.79543 -0.969697 0
M  V30 26978 H 2812.08 -5.80218 -1.9021 0
M  V30 26979 H 2813.49 -5.72118 0.367891 0
M  V30 26980 H 2811.89 -5.89163 1.1405 0
M  V30 26981 H 2812.96 -4.5662 1.63177 0
M  V30 26982 N 2814.3 -0.388796 -1.52729 0
M  V30 26983 C 2815.25 0.461487 -2.27976 0
M  V30 26984 C 2816.24 1.0635 -1.31856 0
M  V30 26985 O 2817.45 1.00403 -1.49396 0
M  V30 26986 H 2813.83 0.167577 -0.733091 0
M  V30 26987 H 2815.8 -0.194631 -2.97765 0
M  V30 26988 C 2814.55 1.57694 -3.09883 0
M  V30 26989 H 2813.87 1.12303 -3.83703 0
M  V30 26990 H 2815.31 2.14613 -3.65674 0
M  V30 26991 C 2813.77 2.53268 -2.22164 0
M  V30 26992 O 2814.3 3.56664 -1.84808 0
M  V30 26993 N 2812.5 2.22998 -1.86334 0
M  V30 26994 H 2812.05 1.3895 -2.16911 0
M  V30 26995 H 2812.01 2.87195 -1.27932 0
M  V30 26996 N 2815.78 1.57153 -0.118604 0
M  V30 26997 C 2817.01 1.99532 0.547225 0
M  V30 26998 C 2817.42 0.998275 1.6025 0
M  V30 26999 O 2816.78 -0.00889898 1.82498 0
M  V30 27000 C 2816.83 3.41915 1.17372 0
M  V30 27001 O 2816.55 4.37805 0.160626 0
M  V30 27002 C 2818.05 3.99424 1.9229 0
M  V30 27003 H 2815.27 0.655166 0.144908 0
M  V30 27004 H 2817.82 2.03472 -0.204826 0
M  V30 27005 H 2815.97 3.38916 1.87655 0
M  V30 27006 H 2816.39 5.20873 0.615769 0
M  V30 27007 H 2817.86 5.01132 2.31453 0
M  V30 27008 H 2818.34 3.38543 2.79795 0
M  V30 27009 H 2818.94 4.05967 1.2677 0
M  V30 27010 N 2817.26 -0.155167 1.56834 0
M  V30 27011 C 2818.22 -1.17568 1.9675 0
M  V30 27012 C 2819.22 -1.36309 0.85303 0
M  V30 27013 O 2820.41 -1.3344 1.1198 0
M  V30 27014 C 2817.54 -2.53761 2.27635 0
M  V30 27015 H 2818.74 -0.833448 2.88086 0
M  V30 27016 H 2816.29 -0.398215 1.51142 0
M  V30 27017 H 2817.02 -2.9297 1.39065 0
M  V30 27018 H 2816.81 -2.41522 3.08885 0
M  V30 27019 H 2818.3 -3.27277 2.59383 0
M  V30 27020 N 2818.74 -1.51782 -0.424256 0
M  V30 27021 C 2819.98 -1.64771 -1.17025 0
M  V30 27022 C 2820.31 -0.372557 -1.91408 0
M  V30 27023 O 2819.58 0.612076 -1.86093 0
M  V30 27024 H 2818.16 -0.607289 -0.434981 0
M  V30 27025 H 2820.82 -1.88766 -0.485135 0
M  V30 27026 H 2819.91 -2.48163 -1.89266 0
M  V30 27027 N 2820.21 0.68054 -1.42149 0
M  V30 27028 C 2821.44 1.47401 -1.45903 0
M  V30 27029 C 2821.86 1.87969 -0.0701315 0
M  V30 27030 O 2821.22 1.55623 0.930117 0
M  V30 27031 C 2821.27 2.70317 -2.38666 0
M  V30 27032 O 2820.37 3.68373 -1.85406 0
M  V30 27033 H 2819.72 0.443051 -0.494573 0
M  V30 27034 H 2822.25 0.835218 -1.86776 0
M  V30 27035 H 2822.26 3.18454 -2.55051 0
M  V30 27036 H 2820.93 2.40128 -3.39575 0
M  V30 27037 H 2819.51 3.27377 -1.78546 0
M  V30 27038 N 2821.69 1.28226 0.916285 0
M  V30 27039 C 2822.94 1.15232 1.66516 0
M  V30 27040 C 2823.27 -0.299598 1.92179 0
M  V30 27041 O 2822.52 -1.23458 1.51844 0
M  V30 27042 C 2822.82 1.89346 3.03122 0
M  V30 27043 C 2822.49 3.39154 2.97129 0
M  V30 27044 C 2821.15 3.80012 2.95202 0
M  V30 27045 C 2823.5 4.3469 2.87566 0
M  V30 27046 C 2820.83 5.14752 2.81509 0
M  V30 27047 C 2823.18 5.695 2.75414 0
M  V30 27048 C 2821.85 6.09637 2.71843 0
M  V30 27049 H 2821.12 0.421665 0.609327 0
M  V30 27050 H 2823.76 1.58971 1.06773 0
M  V30 27051 H 2822.07 1.38149 3.66636 0
M  V30 27052 H 2823.76 1.7671 3.59965 0
M  V30 27053 H 2820.35 3.06666 2.99422 0
M  V30 27054 H 2824.54 4.04087 2.88144 0
M  V30 27055 H 2819.79 5.44981 2.77138 0
M  V30 27056 H 2823.97 6.4319 2.66982 0
M  V30 27057 H 2821.6 7.13994 2.6099 0
M  V30 27058 N 2823.17 -1.12438 1.10433 0
M  V30 27059 C 2824.12 -2.16253 0.722416 0
M  V30 27060 C 2825.1 -1.58646 -0.268399 0
M  V30 27061 O 2826.3 -1.76832 -0.0771379 0
M  V30 27062 C 2823.43 -3.42946 0.155823 0
M  V30 27063 C 2822.51 -4.07536 1.17368 0
M  V30 27064 N 2822.9 -4.47137 2.36437 0
M  V30 27065 C 2821.2 -4.34316 1.0142 0
M  V30 27066 C 2821.9 -4.97607 3.01268 0
M  V30 27067 N 2820.88 -4.93111 2.28786 0
M  V30 27068 H 2824.68 -2.44637 1.6288 0
M  V30 27069 H 2822.19 -1.29342 0.982054 0
M  V30 27070 H 2824.19 -4.16679 -0.135863 0
M  V30 27071 H 2822.85 -3.16031 -0.745283 0
M  V30 27072 H 2823.86 -4.39506 2.73962 0
M  V30 27073 H 2820.54 -4.17159 0.168647 0
M  V30 27074 H 2821.93 -5.37961 4.02551 0
M  V30 27075 N 2824.65 -0.893076 -1.29853 0
M  V30 27076 C 2825.89 -0.522434 -1.97611 0
M  V30 27077 C 2826.25 0.91297 -1.68905 0
M  V30 27078 O 2827.45 1.39015 -2.30062 0
M  V30 27079 C 2825.73 -0.798991 -3.48355 0
M  V30 27080 S 2827.28 -0.531665 -4.35567 0
M  V30 27081 H 2824.1 -0.19407 -0.684001 0
M  V30 27082 H 2826.7 -1.15409 -1.57801 0
M  V30 27083 H 2825.41 -1.84202 -3.66739 0
M  V30 27084 H 2824.94 -0.155202 -3.93094 0
M  V30 27085 H 2826.95 0.626208 -4.92233 0
M  V30 27086 N 2826.13 1.4335 -0.654865 0
M  V30 27087 C 2827.06 2.3349 0.0221399 0
M  V30 27088 C 2828.04 1.49563 0.810246 0
M  V30 27089 O 2829.22 1.78222 0.771395 0
M  V30 27090 C 2826.35 3.32948 0.988059 0
M  V30 27091 C 2825.31 4.26876 0.309951 0
M  V30 27092 C 2824.63 5.16386 1.38743 0
M  V30 27093 C 2825.93 5.16157 -0.798679 0
M  V30 27094 H 2827.63 2.90349 -0.730622 0
M  V30 27095 H 2825.17 1.39611 -0.352798 0
M  V30 27096 H 2827.13 3.94907 1.4706 0
M  V30 27097 H 2825.85 2.7435 1.772 0
M  V30 27098 H 2824.51 3.66284 -0.152162 0
M  V30 27099 H 2824.16 4.54125 2.16285 0
M  V30 27100 H 2823.86 5.8005 0.938949 0
M  V30 27101 H 2825.38 5.81218 1.8713 0
M  V30 27102 H 2826.8 5.71915 -0.398226 0
M  V30 27103 H 2825.19 5.8855 -1.17173 0
M  V30 27104 H 2826.26 4.55748 -1.65596 0
M  V30 27105 N 2827.61 0.39689 1.52521 0
M  V30 27106 C 2828.85 -0.182542 2.03583 0
M  V30 27107 C 2829.21 -1.4341 1.27662 0
M  V30 27108 O 2830.41 -2.09118 1.68888 0
M  V30 27109 C 2828.68 -0.436457 3.54725 0
M  V30 27110 S 2830.24 -0.985087 4.276 0
M  V30 27111 H 2827.06 -0.0507404 0.709187 0
M  V30 27112 H 2829.66 0.546988 1.87692 0
M  V30 27113 H 2828.36 0.481415 4.07567 0
M  V30 27114 H 2827.9 -1.1942 3.74837 0
M  V30 27115 H 2829.91 -2.26678 4.41397 0
M  V30 27116 N 2829.08 -1.57088 0.126936 0
M  V30 27117 C 2830.02 -2.12819 -0.850936 0
M  V30 27118 C 2831.03 -1.07278 -1.22455 0
M  V30 27119 O 2832.22 -1.34624 -1.17212 0
M  V30 27120 C 2829.32 -2.61942 -2.15034 0
M  V30 27121 C 2828.49 -3.91667 -1.94719 0
M  V30 27122 C 2827.55 -4.26307 -3.08462 0
M  V30 27123 O 2826.58 -4.94986 -2.81029 0
M  V30 27124 N 2827.78 -3.84266 -4.35109 0
M  V30 27125 H 2830.54 -2.97348 -0.374748 0
M  V30 27126 H 2828.1 -1.61799 -0.0572509 0
M  V30 27127 H 2830.1 -2.8214 -2.90136 0
M  V30 27128 H 2828.67 -1.82249 -2.53977 0
M  V30 27129 H 2827.89 -3.80298 -1.03765 0
M  V30 27130 H 2829.17 -4.76476 -1.7846 0
M  V30 27131 H 2828.57 -3.28888 -4.60271 0
M  V30 27132 H 2827.13 -4.09557 -5.07057 0
M  V30 27133 N 2830.56 0.146848 -1.56914 0
M  V30 27134 C 2831.84 0.888134 -1.74274 0
M  V30 27135 C 2832.22 1.99331 -0.694995 0
M  V30 27136 O 2831.57 2.26702 0.286053 0
M  V30 27137 C 2831.78 1.43045 -3.18338 0
M  V30 27138 C 2833.12 1.8938 -3.80027 0
M  V30 27139 O 2834.15 1.52786 -3.21768 0
M  V30 27140 O 2833.01 2.56866 -4.82372 0
M  V30 27141 H 2830.1 0.419725 -0.712573 0
M  V30 27142 H 2832.65 0.132761 -1.6918 0
M  V30 27143 H 2831.42 0.636207 -3.86093 0
M  V30 27144 H 2831.04 2.24932 -3.27858 0
M  V30 27145 N 2832.04 1.52005 0.4162 0
M  V30 27146 C 2833.29 1.65389 1.1615 0
M  V30 27147 C 2833.61 0.382702 1.91208 0
M  V30 27148 O 2832.88 -0.602198 1.86415 0
M  V30 27149 H 2831.46 0.609588 0.431754 0
M  V30 27150 H 2834.12 1.8902 0.475118 0
M  V30 27151 H 2833.22 2.49163 1.87947 0
M  V30 27152 N 2833.52 -0.672992 1.42508 0
M  V30 27153 C 2834.76 -1.43304 1.43074 0
M  V30 27154 C 2835.09 -1.94441 0.0478345 0
M  V30 27155 O 2834.35 -1.71423 -0.944076 0
M  V30 27156 C 2834.65 -2.64507 2.40355 0
M  V30 27157 C 2834.31 -2.31901 3.86694 0
M  V30 27158 C 2832.97 -2.2272 4.26555 0
M  V30 27159 C 2835.33 -2.05459 4.78995 0
M  V30 27160 C 2832.65 -1.85225 5.56695 0
M  V30 27161 C 2835.01 -1.69466 6.09479 0
M  V30 27162 C 2833.67 -1.58796 6.48336 0
M  V30 27163 H 2832.94 -0.524386 0.523546 0
M  V30 27164 H 2835.59 -0.767199 1.7546 0
M  V30 27165 H 2833.89 -3.36132 2.01303 0
M  V30 27166 H 2835.59 -3.22692 2.38057 0
M  V30 27167 H 2832.18 -2.3995 3.55136 0
M  V30 27168 H 2836.36 -2.11484 4.48986 0
M  V30 27169 H 2831.62 -1.75534 5.8566 0
M  V30 27170 H 2835.79 -1.48031 6.80485 0
M  V30 27171 H 2833.42 -1.29512 7.49087 0
M  V30 27172 N 2835 -1.2871 -0.909472 0
M  V30 27173 C 2835.91 -1.14865 -2.04556 0
M  V30 27174 C 2836.92 -0.0741927 -1.73842 0
M  V30 27175 O 2838.1 -0.284335 -1.99383 0
M  V30 27176 C 2835.16 -0.816207 -3.36955 0
M  V30 27177 C 2834.22 -1.97347 -3.81251 0
M  V30 27178 C 2833.46 -1.6568 -5.07332 0
M  V30 27179 O 2833.68 -0.573152 -5.67513 0
M  V30 27180 O 2832.61 -2.50177 -5.47444 0
M  V30 27181 H 2836.44 -2.10247 -2.19157 0
M  V30 27182 H 2834.02 -1.0807 -1.03157 0
M  V30 27183 H 2835.91 -0.644946 -4.16435 0
M  V30 27184 H 2834.58 0.107926 -3.2352 0
M  V30 27185 H 2833.49 -2.19991 -3.0258 0
M  V30 27186 H 2834.82 -2.87846 -3.99256 0
M  V30 27187 N 2836.47 1.1185 -1.11028 0
M  V30 27188 C 2837.4 2.19843 -0.786851 0
M  V30 27189 C 2838.38 1.68357 0.242905 0
M  V30 27190 O 2839.57 1.93903 0.107321 0
M  V30 27191 C 2836.7 3.46573 -0.224577 0
M  V30 27192 C 2835.65 4.11248 -1.18572 0
M  V30 27193 C 2834.98 5.32502 -0.484355 0
M  V30 27194 C 2836.28 4.56671 -2.53473 0
M  V30 27195 H 2837.97 2.47155 -1.68982 0
M  V30 27196 H 2835.52 1.18791 -0.813927 0
M  V30 27197 H 2837.47 4.21398 0.0138694 0
M  V30 27198 H 2836.2 3.18707 0.713666 0
M  V30 27199 H 2834.86 3.38412 -1.40972 0
M  V30 27200 H 2834.5 5.00905 0.458558 0
M  V30 27201 H 2834.2 5.76723 -1.12536 0
M  V30 27202 H 2835.73 6.10069 -0.2546 0
M  V30 27203 H 2837.14 5.22839 -2.35186 0
M  V30 27204 H 2835.54 5.11691 -3.13516 0
M  V30 27205 H 2836.61 3.70338 -3.13014 0
M  V30 27206 N 2837.95 0.89995 1.29378 0
M  V30 27207 C 2839.18 0.541421 1.9969 0
M  V30 27208 C 2839.59 -0.873907 1.67357 0
M  V30 27209 O 2838.95 -1.57687 0.918756 0
M  V30 27210 C 2839 0.724442 3.54167 0
M  V30 27211 O 2838.72 2.08406 3.85355 0
M  V30 27212 C 2840.22 0.370896 4.41746 0
M  V30 27213 H 2837.44 0.207737 0.638033 0
M  V30 27214 H 2839.99 1.20937 1.64908 0
M  V30 27215 H 2838.14 0.103675 3.87261 0
M  V30 27216 H 2838.56 2.1136 4.80028 0
M  V30 27217 H 2840.03 0.54979 5.49255 0
M  V30 27218 H 2840.51 -0.692071 4.33713 0
M  V30 27219 H 2841.11 0.968615 4.14123 0
M  V30 27220 N 2839.43 -1.43001 0.662458 0
M  V30 27221 C 2840.39 -2.29196 -0.0141613 0
M  V30 27222 C 2841.39 -1.4269 -0.741369 0
M  V30 27223 O 2842.58 -1.64217 -0.581228 0
M  V30 27224 C 2839.72 -3.24943 -1.03078 0
M  V30 27225 H 2840.91 -2.90516 0.744351 0
M  V30 27226 H 2838.46 -1.50435 0.424159 0
M  V30 27227 H 2839.2 -2.68536 -1.81821 0
M  V30 27228 H 2838.98 -3.88731 -0.512877 0
M  V30 27229 H 2840.47 -3.89614 -1.50301 0
M  V30 27230 N 2840.91 -0.404973 -1.52308 0
M  V30 27231 C 2842.19 0.23051 -1.94237 0
M  V30 27232 C 2842.57 1.62988 -1.34157 0
M  V30 27233 O 2841.91 2.22603 -0.515752 0
M  V30 27234 C 2842.12 0.241045 -3.48167 0
M  V30 27235 C 2843.47 0.462414 -4.22075 0
M  V30 27236 O 2844.5 0.320581 -3.54754 0
M  V30 27237 O 2843.35 0.741613 -5.41445 0
M  V30 27238 H 2840.45 0.147343 -0.813768 0
M  V30 27239 H 2842.99 -0.460615 -1.63329 0
M  V30 27240 H 2841.77 -0.738535 -3.84267 0
M  V30 27241 H 2841.39 0.976443 -3.85424 0
M  V30 27242 N 2842.39 1.57018 -0.135265 0
M  V30 27243 C 2843.63 1.95356 0.517735 0
M  V30 27244 C 2843.96 1.02045 1.66168 0
M  V30 27245 O 2843.23 0.0797687 1.95738 0
M  V30 27246 H 2841.81 0.721301 0.194252 0
M  V30 27247 H 2844.47 1.93787 -0.208017 0
M  V30 27248 H 2843.56 2.98793 0.901622 0
M  V30 27249 N 2843.86 -0.138524 1.5699 0
M  V30 27250 C 2844.81 -1.17077 1.98901 0
M  V30 27251 C 2845.78 -1.42227 0.857947 0
M  V30 27252 O 2846.97 -1.5442 1.12067 0
M  V30 27253 C 2844.11 -2.49716 2.38193 0
M  V30 27254 C 2843.22 -2.31668 3.64629 0
M  V30 27255 C 2842.35 -3.574 3.92987 0
M  V30 27256 C 2841.39 -3.34426 5.12665 0
M  V30 27257 N 2840.53 -4.5231 5.36991 0
M  V30 27258 H 2845.37 -0.806369 2.86883 0
M  V30 27259 H 2842.91 -0.386702 1.41926 0
M  V30 27260 H 2844.87 -3.27066 2.59006 0
M  V30 27261 H 2843.5 -2.84087 1.5328 0
M  V30 27262 H 2842.55 -1.4533 3.51544 0
M  V30 27263 H 2843.86 -2.10656 4.52134 0
M  V30 27264 H 2843.01 -4.43176 4.14343 0
M  V30 27265 H 2841.75 -3.81424 3.03919 0
M  V30 27266 H 2840.76 -2.47039 4.91174 0
M  V30 27267 H 2841.98 -3.11792 6.03293 0
M  V30 27268 H 2839.93 -4.76492 4.50879 0
M  V30 27269 H 2839.85 -4.34332 6.18782 0
M  V30 27270 H 2841.11 -5.39275 5.62852 0
M  V30 27271 N 2845.34 -1.52224 -0.408133 0
M  V30 27272 C 2846.29 -1.7625 -1.51785 0
M  V30 27273 C 2847.28 -0.629665 -1.57263 0
M  V30 27274 O 2848.49 -0.811732 -1.60658 0
M  V30 27275 H 2844.87 -0.557376 -0.504813 0
M  V30 27276 H 2846.84 -2.69216 -1.28705 0
M  V30 27277 C 2845.59 -1.93112 -2.89142 0
M  V30 27278 H 2844.91 -2.79702 -2.85669 0
M  V30 27279 H 2846.35 -2.13923 -3.66078 0
M  V30 27280 C 2844.81 -0.698489 -3.2958 0
M  V30 27281 O 2845.34 0.133167 -4.01479 0
M  V30 27282 N 2843.54 -0.5341 -2.8565 0
M  V30 27283 H 2843.09 -1.21198 -2.27308 0
M  V30 27284 H 2843.05 0.289332 -3.13066 0
M  V30 27285 N 2846.82 0.665425 -1.42863 0
M  V30 27286 C 2848.06 1.43735 -1.45326 0
M  V30 27287 C 2848.42 1.91869 -0.0708307 0
M  V30 27288 O 2849.63 2.68783 0.029838 0
M  V30 27289 C 2847.9 2.59573 -2.45676 0
M  V30 27290 S 2849.46 3.48283 -2.66916 0
M  V30 27291 H 2846.27 0.4908 -0.514428 0
M  V30 27292 H 2848.88 0.773714 -1.79538 0
M  V30 27293 H 2847.58 2.22465 -3.44873 0
M  V30 27294 H 2847.11 3.308 -2.1292 0
M  V30 27295 H 2849.13 4.55883 -1.95922 0
M  V30 27296 N 2848.3 1.29191 0.902633 0
M  V30 27297 C 2849.54 1.17165 1.6553 0
M  V30 27298 C 2849.88 -0.276846 1.92217 0
M  V30 27299 O 2849.15 -1.20025 1.5305 0
M  V30 27300 C 2849.44 1.98233 3.00626 0
M  V30 27301 C 2849.29 3.51207 2.81023 0
M  V30 27302 C 2850.61 1.80642 4.01318 0
M  V30 27303 H 2847.73 0.426996 0.600703 0
M  V30 27304 H 2850.37 1.58631 1.04576 0
M  V30 27305 H 2848.52 1.62997 3.52653 0
M  V30 27306 H 2850.19 3.96408 2.3592 0
M  V30 27307 H 2848.43 3.76279 2.15863 0
M  V30 27308 H 2849.1 4.03199 3.77007 0
M  V30 27309 H 2851.58 2.11413 3.58391 0
M  V30 27310 H 2850.46 2.39719 4.93788 0
M  V30 27311 H 2850.72 0.760831 4.35504 0
M  V30 27312 N 2849.78 -1.1126 1.1162 0
M  V30 27313 C 2851.05 -1.79466 0.777907 0
M  V30 27314 C 2851.43 -1.97938 -0.73374 0
M  V30 27315 O 2850.78 -1.56557 -1.6644 0
M  V30 27316 C 2850.99 -3.1303 1.54316 0
M  V30 27317 C 2852.34 -3.88041 1.72364 0
M  V30 27318 O 2853.36 -3.22724 1.50756 0
M  V30 27319 O 2852.22 -5.05252 2.08284 0
M  V30 27320 H 2849.32 -0.777423 0.282032 0
M  V30 27321 H 2851.86 -1.17986 1.21973 0
M  V30 27322 H 2850.63 -2.94951 2.57137 0
M  V30 27323 H 2850.26 -3.82224 1.09501 0
M  V30 27324 N 2851.25 -0.906798 -1.28899 0
M  V30 27325 C 2852.48 -0.552004 -1.994 0
M  V30 27326 C 2852.9 0.865019 -1.67818 0
M  V30 27327 O 2852.25 1.57197 -0.927105 0
M  V30 27328 C 2852.31 -0.743214 -3.53778 0
M  V30 27329 O 2852.03 -2.10447 -3.84244 0
M  V30 27330 C 2853.53 -0.394318 -4.41543 0
M  V30 27331 H 2850.75 -0.211118 -0.636923 0
M  V30 27332 H 2853.29 -1.21809 -1.64264 0
M  V30 27333 H 2851.45 -0.124211 -3.87201 0
M  V30 27334 H 2851.86 -2.13903 -4.78901 0
M  V30 27335 H 2853.33 -0.578911 -5.48956 0
M  V30 27336 H 2853.81 0.669061 -4.34074 0
M  V30 27337 H 2854.42 -0.990564 -4.13604 0
M  V30 27338 N 2852.73 1.42648 -0.670032 0
M  V30 27339 C 2853.68 2.32589 0.0229697 0
M  V30 27340 C 2854.67 1.49557 0.795559 0
M  V30 27341 O 2855.88 1.65659 0.704061 0
M  V30 27342 H 2852.26 0.751543 0.0262209 0
M  V30 27343 H 2854.23 2.88741 -0.75306 0
M  V30 27344 C 2852.98 3.34075 0.963813 0
M  V30 27345 H 2852.3 3.98002 0.378743 0
M  V30 27346 H 2853.74 3.99604 1.41748 0
M  V30 27347 C 2852.2 2.65967 2.06792 0
M  V30 27348 O 2852.73 2.48795 3.15379 0
M  V30 27349 N 2850.93 2.25069 1.83827 0
M  V30 27350 H 2850.48 2.39236 0.955193 0
M  V30 27351 H 2850.44 1.79831 2.57892 0
M  V30 27352 N 2854.21 0.413044 1.52091 0
M  V30 27353 C 2855.12 -0.417277 2.30859 0
M  V30 27354 C 2856.14 -1.05 1.38748 0
M  V30 27355 O 2857.31 -1.05066 1.71823 0
M  V30 27356 C 2854.38 -1.51682 3.11759 0
M  V30 27357 C 2853.44 -0.906751 4.19615 0
M  V30 27358 C 2852.67 -1.9539 4.96647 0
M  V30 27359 O 2852.9 -3.17263 4.74026 0
M  V30 27360 O 2851.83 -1.55795 5.81388 0
M  V30 27361 H 2855.66 0.225081 3.02865 0
M  V30 27362 H 2853.24 0.176152 1.48358 0
M  V30 27363 H 2855.12 -2.15506 3.62126 0
M  V30 27364 H 2853.8 -2.14371 2.42543 0
M  V30 27365 H 2852.7 -0.231118 3.73385 0
M  V30 27366 H 2854.04 -0.323727 4.91134 0
M  V30 27367 N 2855.69 -1.56945 0.143591 0
M  V30 27368 C 2856.93 -1.97905 -0.511163 0
M  V30 27369 C 2857.29 -1.02643 -1.6226 0
M  V30 27370 O 2858.49 -1.32635 -2.33798 0
M  V30 27371 C 2856.77 -3.42906 -1.00747 0
M  V30 27372 S 2858.32 -4.0589 -1.6673 0
M  V30 27373 H 2855.14 -0.691497 -0.165387 0
M  V30 27374 H 2857.74 -1.94089 0.234498 0
M  V30 27375 H 2856.45 -4.0997 -0.187745 0
M  V30 27376 H 2855.98 -3.50428 -1.78783 0
M  V30 27377 H 2857.99 -3.98662 -2.95437 0
M  V30 27378 N 2857.17 0.130197 -1.57061 0
M  V30 27379 C 2858.1 1.16165 -2.02554 0
M  V30 27380 C 2859.08 1.43838 -0.907997 0
M  V30 27381 O 2860.26 1.54471 -1.17696 0
M  V30 27382 C 2857.39 2.49067 -2.42039 0
M  V30 27383 C 2856.35 2.3588 -3.57134 0
M  V30 27384 C 2855.67 3.73644 -3.82485 0
M  V30 27385 C 2856.97 1.82871 -4.8924 0
M  V30 27386 H 2858.67 0.783308 -2.88972 0
M  V30 27387 H 2856.21 0.375351 -1.39022 0
M  V30 27388 H 2858.17 3.21464 -2.72468 0
M  V30 27389 H 2856.89 2.88769 -1.52578 0
M  V30 27390 H 2855.55 1.65932 -3.26898 0
M  V30 27391 H 2855.2 4.10811 -2.90247 0
M  V30 27392 H 2854.9 3.65677 -4.5995 0
M  V30 27393 H 2856.42 4.47563 -4.15355 0
M  V30 27394 H 2857.84 2.45076 -5.18277 0
M  V30 27395 H 2856.23 1.85753 -5.70627 0
M  V30 27396 H 2857.3 0.785487 -4.78496 0
M  V30 27397 N 2858.65 1.52438 0.400055 0
M  V30 27398 C 2859.87 1.71098 1.17218 0
M  V30 27399 C 2860.3 0.423597 1.83268 0
M  V30 27400 O 2859.65 -0.619721 1.70379 0
M  V30 27401 C 2859.7 2.8539 2.2042 0
M  V30 27402 O 2858.81 2.51592 3.26765 0
M  V30 27403 H 2858.15 0.569297 0.341756 0
M  V30 27404 H 2860.68 1.99182 0.467737 0
M  V30 27405 H 2860.69 3.10566 2.646 0
M  V30 27406 H 2859.36 3.78789 1.7173 0
M  V30 27407 H 2857.94 2.37119 2.878 0
M  V30 27408 N 2860.12 -0.657839 1.43214 0
M  V30 27409 C 2861.05 -1.78259 1.50818 0
M  V30 27410 C 2862.03 -1.66176 0.363241 0
M  V30 27411 O 2863.22 -1.85342 0.579839 0
M  V30 27412 C 2860.35 -3.16661 1.4263 0
M  V30 27413 C 2859.3 -3.43501 2.55326 0
M  V30 27414 C 2858.63 -4.81654 2.32192 0
M  V30 27415 C 2859.93 -3.38704 3.97589 0
M  V30 27416 H 2861.62 -1.72152 2.44957 0
M  V30 27417 H 2859.17 -0.826809 1.17898 0
M  V30 27418 H 2861.12 -3.95095 1.46555 0
M  V30 27419 H 2859.85 -3.23486 0.449934 0
M  V30 27420 H 2858.51 -2.67435 2.50747 0
M  V30 27421 H 2858.15 -4.8515 1.32809 0
M  V30 27422 H 2857.85 -5.00574 3.07733 0
M  V30 27423 H 2859.38 -5.62352 2.37893 0
M  V30 27424 H 2860.79 -4.07082 4.0368 0
M  V30 27425 H 2859.19 -3.6916 4.73118 0
M  V30 27426 H 2860.26 -2.36968 4.23053 0
M  V30 27427 N 2861.6 -1.29668 -0.895769 0
M  V30 27428 C 2862.56 -1.15128 -1.98187 0
M  V30 27429 C 2863.56 -0.0855999 -1.60572 0
M  V30 27430 O 2864.75 -0.332856 -1.7099 0
M  V30 27431 C 2861.89 -0.76143 -3.32288 0
M  V30 27432 H 2863.08 -2.11607 -2.12514 0
M  V30 27433 H 2860.63 -1.1291 -1.08079 0
M  V30 27434 H 2861.37 0.203336 -3.23662 0
M  V30 27435 H 2861.15 -1.53145 -3.60956 0
M  V30 27436 H 2862.64 -0.682865 -4.11979 0
M  V30 27437 N 2863.08 1.10667 -1.12208 0
M  V30 27438 C 2864.33 1.82216 -0.874176 0
M  V30 27439 C 2864.65 1.85485 0.601703 0
M  V30 27440 O 2863.92 1.33118 1.43723 0
M  V30 27441 H 2862.5 0.674791 -0.320416 0
M  V30 27442 H 2865.16 1.33915 -1.41608 0
M  V30 27443 H 2864.26 2.85819 -1.25354 0
M  V30 27444 N 2864.56 0.913621 1.28416 0
M  V30 27445 C 2865.79 0.562571 1.99105 0
M  V30 27446 C 2866.2 -0.856107 1.68274 0
M  V30 27447 O 2865.56 -1.56703 0.935429 0
M  V30 27448 C 2865.61 0.761965 3.53378 0
M  V30 27449 O 2865.33 2.12482 3.83123 0
M  V30 27450 C 2866.83 0.417729 4.41327 0
M  V30 27451 H 2864.05 0.214492 0.635794 0
M  V30 27452 H 2866.59 1.22679 1.63616 0
M  V30 27453 H 2864.75 0.144744 3.8713 0
M  V30 27454 H 2865.16 2.1644 4.77759 0
M  V30 27455 H 2866.64 0.608015 5.48641 0
M  V30 27456 H 2867.11 -0.646031 4.34423 0
M  V30 27457 H 2867.72 1.01248 4.13072 0
M  V30 27458 N 2866.04 -1.4229 0.677588 0
M  V30 27459 C 2867.28 -2.0337 0.20493 0
M  V30 27460 C 2867.64 -1.52432 -1.16741 0
M  V30 27461 O 2868.84 -2.05317 -1.73489 0
M  V30 27462 C 2867.11 -3.56588 0.240805 0
M  V30 27463 S 2868.67 -4.38507 -0.160443 0
M  V30 27464 H 2865.49 -0.70602 0.0840056 0
M  V30 27465 H 2868.09 -1.73997 0.891362 0
M  V30 27466 H 2866.79 -3.91158 1.2419 0
M  V30 27467 H 2866.33 -3.90638 -0.46537 0
M  V30 27468 H 2868.34 -4.76244 -1.39307 0
M  V30 27469 N 2867.51 -0.421104 -1.5187 0
M  V30 27470 C 2868.44 0.389322 -2.30231 0
M  V30 27471 C 2869.42 1.03553 -1.34948 0
M  V30 27472 O 2870.61 1.04226 -1.63861 0
M  V30 27473 C 2867.74 1.49973 -3.1325 0
M  V30 27474 C 2866.69 0.977893 -4.16679 0
M  V30 27475 C 2866.02 2.18281 -4.88116 0
M  V30 27476 C 2867.32 0.0235857 -5.22295 0
M  V30 27477 H 2869.01 -0.264576 -2.98229 0
M  V30 27478 H 2866.56 -0.128685 -1.43424 0
M  V30 27479 H 2868.51 2.07377 -3.66842 0
M  V30 27480 H 2867.24 2.18168 -2.43044 0
M  V30 27481 H 2865.9 0.426181 -3.64114 0
M  V30 27482 H 2865.54 2.85059 -4.14428 0
M  V30 27483 H 2865.24 1.84011 -5.58044 0
M  V30 27484 H 2866.77 2.76269 -5.44525 0
M  V30 27485 H 2868.18 0.506798 -5.71056 0
M  V30 27486 H 2866.58 -0.230887 -5.99656 0
M  V30 27487 H 2867.65 -0.918083 -4.76129 0
M  V30 27488 N 2868.99 1.56866 -0.151912 0
M  V30 27489 C 2870.4 1.83035 0.368096 0
M  V30 27490 C 2870.75 1.07085 1.644 0
M  V30 27491 O 2869.88 0.317685 2.14055 0
M  V30 27492 C 2870.47 3.32016 0.674617 0
M  V30 27493 C 2869.03 3.58749 1.13913 0
M  V30 27494 C 2868.18 2.7681 0.164784 0
M  V30 27495 H 2871.13 1.54169 -0.376526 0
M  V30 27496 H 2871.15 3.48438 1.52877 0
M  V30 27497 H 2870.66 3.87267 -0.254181 0
M  V30 27498 H 2868.77 3.0889 2.0837 0
M  V30 27499 H 2868.88 4.67188 1.06171 0
M  V30 27500 H 2867.24 2.46044 0.658376 0
M  V30 27501 H 2868.03 3.34834 -0.757691 0
M  V30 27502 N 2870.47 -0.121866 1.57128 0
M  V30 27503 C 2871.72 -0.828516 1.84337 0
M  V30 27504 C 2872.04 -1.8055 0.736663 0
M  V30 27505 O 2871.31 -1.94429 -0.239585 0
M  V30 27506 H 2869.89 -0.308958 0.680113 0
M  V30 27507 H 2872.55 -0.109871 1.9459 0
M  V30 27508 H 2871.65 -1.37549 2.80155 0
M  V30 27509 N 2871.95 -1.52648 -0.391965 0
M  V30 27510 C 2873.18 -1.7142 -1.15857 0
M  V30 27511 C 2873.59 -0.431248 -1.83809 0
M  V30 27512 O 2872.95 0.594055 -1.72561 0
M  V30 27513 C 2873 -2.86169 -2.20883 0
M  V30 27514 O 2872.72 -4.09498 -1.55703 0
M  V30 27515 C 2874.22 -3.16595 -3.10294 0
M  V30 27516 H 2871.44 -0.574018 -0.347484 0
M  V30 27517 H 2873.99 -1.99284 -0.458937 0
M  V30 27518 H 2872.14 -2.60775 -2.86487 0
M  V30 27519 H 2872.55 -4.73567 -2.25466 0
M  V30 27520 H 2874.03 -4.00358 -3.80023 0
M  V30 27521 H 2874.51 -2.30854 -3.73635 0
M  V30 27522 H 2875.11 -3.43818 -2.50339 0
M  V30 27523 N 2873.43 0.650235 -1.43561 0
M  V30 27524 C 2874.67 1.42186 -1.46842 0
M  V30 27525 C 2875.03 1.91783 -0.091177 0
M  V30 27526 O 2876.23 2.688 0.0013282 0
M  V30 27527 C 2874.5 2.56953 -2.48415 0
M  V30 27528 S 2876.06 3.45433 -2.70595 0
M  V30 27529 H 2872.88 0.485316 -0.519605 0
M  V30 27530 H 2875.48 0.754628 -1.80349 0
M  V30 27531 H 2874.19 2.18795 -3.47213 0
M  V30 27532 H 2873.72 3.28523 -2.16417 0
M  V30 27533 H 2875.73 4.53779 -2.00746 0
M  V30 27534 N 2874.9 1.30141 0.88888 0
M  V30 27535 C 2875.84 1.12003 1.9997 0
M  V30 27536 C 2876.85 0.0643905 1.62673 0
M  V30 27537 O 2878.04 0.310013 1.75787 0
M  V30 27538 C 2875.14 0.685118 3.31903 0
M  V30 27539 C 2874.31 1.82165 3.97661 0
M  V30 27540 C 2873.37 1.37594 5.07892 0
M  V30 27541 O 2872.4 2.0825 5.29736 0
M  V30 27542 N 2873.6 0.252799 5.79949 0
M  V30 27543 H 2876.36 2.07675 2.16082 0
M  V30 27544 H 2873.92 1.22225 1.06173 0
M  V30 27545 H 2875.92 0.370035 4.03005 0
M  V30 27546 H 2874.49 -0.179452 3.12084 0
M  V30 27547 H 2873.71 2.30505 3.19783 0
M  V30 27548 H 2874.99 2.58339 4.38336 0
M  V30 27549 H 2874.39 -0.336042 5.64701 0
M  V30 27550 H 2872.95 -0.00285356 6.518 0
M  V30 27551 N 2876.38 -1.1007 1.12794 0
M  V30 27552 C 2877.33 -2.18608 0.794561 0
M  V30 27553 C 2878.32 -1.67962 -0.220241 0
M  V30 27554 O 2879.53 -1.79831 -0.0780622 0
M  V30 27555 H 2875.91 -0.712964 0.239135 0
M  V30 27556 H 2877.88 -2.43963 1.71828 0
M  V30 27557 C 2876.63 -3.46653 0.269609 0
M  V30 27558 H 2875.95 -3.85988 1.04178 0
M  V30 27559 H 2877.39 -4.23934 0.0746987 0
M  V30 27560 C 2875.85 -3.21615 -1.00327 0
M  V30 27561 O 2876.38 -3.43633 -2.08036 0
M  V30 27562 N 2874.58 -2.75259 -0.931715 0
M  V30 27563 H 2874.13 -2.57541 -0.0550745 0
M  V30 27564 H 2874.09 -2.58884 -1.784 0
M  V30 27565 N 2877.86 -0.920419 -1.2793 0
M  V30 27566 C 2878.79 -0.431064 -2.29487 0
M  V30 27567 C 2879.77 0.504833 -1.62436 0
M  V30 27568 O 2880.96 0.411142 -1.89798 0
M  V30 27569 C 2878.09 0.323648 -3.45789 0
M  V30 27570 C 2877.04 -0.523732 -4.24784 0
M  V30 27571 C 2876.37 0.359716 -5.33489 0
M  V30 27572 C 2877.67 -1.78445 -4.90871 0
M  V30 27573 H 2879.36 -1.2798 -2.70669 0
M  V30 27574 H 2876.91 -0.616836 -1.3012 0
M  V30 27575 H 2878.86 0.676879 -4.15928 0
M  V30 27576 H 2877.58 1.20634 -3.03504 0
M  V30 27577 H 2876.24 -0.859572 -3.5638 0
M  V30 27578 H 2875.89 1.24115 -4.87447 0
M  V30 27579 H 2875.59 -0.203709 -5.87247 0
M  V30 27580 H 2877.11 0.708681 -6.06473 0
M  V30 27581 H 2878.53 -1.49973 -5.53336 0
M  V30 27582 H 2876.93 -2.2908 -5.54655 0
M  V30 27583 H 2878 -2.50831 -4.14984 0
M  V30 27584 N 2879.34 1.41929 -0.685124 0
M  V30 27585 C 2880.25 2.34596 -0.0134453 0
M  V30 27586 C 2881.26 1.5566 0.777562 0
M  V30 27587 O 2882.44 1.88185 0.71752 0
M  V30 27588 C 2879.51 3.34299 0.918972 0
M  V30 27589 C 2878.57 4.29128 0.121342 0
M  V30 27590 C 2877.8 5.24069 1.00935 0
M  V30 27591 O 2878.02 5.24196 2.24889 0
M  V30 27592 O 2876.96 6.00104 0.464618 0
M  V30 27593 H 2880.78 2.93591 -0.777029 0
M  V30 27594 H 2878.37 1.42606 -0.445404 0
M  V30 27595 H 2880.25 3.95523 1.45395 0
M  V30 27596 H 2878.92 2.77762 1.66223 0
M  V30 27597 H 2877.83 3.71286 -0.457986 0
M  V30 27598 H 2879.16 4.88735 -0.583023 0
M  V30 27599 N 2880.82 0.429152 1.51644 0
M  V30 27600 C 2882.06 -0.139767 2.01616 0
M  V30 27601 C 2882.39 -1.43925 1.3157 0
M  V30 27602 O 2881.66 -1.90715 0.447722 0
M  V30 27603 H 2880.24 -0.0546409 0.744999 0
M  V30 27604 H 2882.9 0.569984 1.86379 0
M  V30 27605 H 2881.99 -0.321555 3.10439 0
M  V30 27606 N 2882.29 -1.56783 0.160229 0
M  V30 27607 C 2883.52 -2.01349 -0.497338 0
M  V30 27608 C 2883.94 -1.03969 -1.56755 0
M  V30 27609 O 2883.3 -0.0174773 -1.81292 0
M  V30 27610 C 2883.35 -3.44584 -1.06274 0
M  V30 27611 O 2882.45 -3.50247 -2.17717 0
M  V30 27612 H 2881.8 -0.653014 -0.120284 0
M  V30 27613 H 2884.33 -2.0293 0.260857 0
M  V30 27614 H 2884.34 -3.8366 -1.38812 0
M  V30 27615 H 2883.01 -4.14963 -0.279093 0
M  V30 27616 H 2881.59 -3.23023 -1.86307 0
M  V30 27617 N 2883.77 0.113531 -1.57191 0
M  V30 27618 C 2885.02 0.820349 -1.85139 0
M  V30 27619 C 2885.35 1.7962 -0.746111 0
M  V30 27620 O 2884.6 1.93938 0.262043 0
M  V30 27621 C 2884.9 1.59979 -3.19596 0
M  V30 27622 C 2884.57 0.76773 -4.44316 0
M  V30 27623 C 2883.23 0.538295 -4.7818 0
M  V30 27624 C 2885.58 0.188111 -5.2086 0
M  V30 27625 C 2882.91 -0.280923 -5.86027 0
M  V30 27626 C 2885.26 -0.618328 -6.29571 0
M  V30 27627 C 2883.93 -0.858028 -6.61962 0
M  V30 27628 H 2883.2 0.300187 -0.677472 0
M  V30 27629 H 2885.84 0.0825106 -1.91322 0
M  V30 27630 H 2884.15 2.40869 -3.09014 0
M  V30 27631 H 2885.85 2.15074 -3.38444 0
M  V30 27632 H 2882.44 0.956651 -4.17787 0
M  V30 27633 H 2886.62 0.352571 -4.95046 0
M  V30 27634 H 2881.88 -0.4758 -6.09546 0
M  V30 27635 H 2886.05 -1.07442 -6.88062 0
M  V30 27636 H 2883.68 -1.49464 -7.45362 0
M  V30 27637 N 2885.25 1.52854 0.383864 0
M  V30 27638 C 2886.67 1.42219 0.724291 0
M  V30 27639 C 2886.87 0.546688 1.93942 0
M  V30 27640 O 2885.92 0.0221006 2.5249 0
M  V30 27641 C 2887.24 2.85146 0.954584 0
M  V30 27642 C 2888.78 2.94658 1.05574 0
M  V30 27643 C 2889.26 4.38607 1.31863 0
M  V30 27644 N 2890.75 4.41955 1.38673 0
M  V30 27645 C 2891.49 5.50424 1.60689 0
M  V30 27646 N 2890.98 6.6897 1.80142 0
M  V30 27647 N 2892.77 5.37975 1.6291 0
M  V30 27648 H 2884.93 2.08294 -0.415636 0
M  V30 27649 H 2887.19 0.939883 -0.123792 0
M  V30 27650 H 2886.89 3.51446 0.133767 0
M  V30 27651 H 2886.77 3.27707 1.86782 0
M  V30 27652 H 2889.16 2.28523 1.86712 0
M  V30 27653 H 2889.24 2.55517 0.120293 0
M  V30 27654 H 2888.88 5.05309 0.512327 0
M  V30 27655 H 2888.81 4.75305 2.267 0
M  V30 27656 H 2891.3 3.56513 1.25327 0
M  V30 27657 H 2891.61 7.4741 1.96463 0
M  V30 27658 H 2889.96 6.71989 1.77357 0
M  V30 27659 H 2893.15 4.44331 1.47268 0
M  V30 27660 H 2893.32 6.22577 1.79728 0
M  V30 27661 N 2886.73 -0.642612 1.43904 0
M  V30 27662 C 2887.97 -1.41405 1.47594 0
M  V30 27663 C 2888.33 -1.91732 0.101346 0
M  V30 27664 O 2889.53 -2.68797 0.0129269 0
M  V30 27665 C 2887.81 -2.55632 2.49774 0
M  V30 27666 S 2889.36 -3.43993 2.72423 0
M  V30 27667 H 2886.18 -0.482554 0.522171 0
M  V30 27668 H 2888.78 -0.745053 1.80746 0
M  V30 27669 H 2887.49 -2.1695 3.48369 0
M  V30 27670 H 2887.02 -3.27371 2.18156 0
M  V30 27671 H 2889.03 -4.52708 2.0315 0
M  V30 27672 N 2888.21 -1.30611 -0.881966 0
M  V30 27673 C 2889.46 -1.18972 -1.62876 0
M  V30 27674 C 2889.77 0.253825 -1.93946 0
M  V30 27675 O 2890.98 0.491766 -2.67009 0
M  V30 27676 C 2889.43 -2.08195 -2.93569 0
M  V30 27677 C 2889.04 -3.57476 -2.70028 0
M  V30 27678 C 2890.78 -2.05326 -3.71539 0
M  V30 27679 C 2888.69 -4.38746 -3.96555 0
M  V30 27680 H 2887.62 -0.441692 -0.611084 0
M  V30 27681 H 2890.27 -1.55381 -0.976173 0
M  V30 27682 H 2888.65 -1.64672 -3.60137 0
M  V30 27683 H 2889.83 -4.09167 -2.11942 0
M  V30 27684 H 2888.14 -3.62199 -2.05429 0
M  V30 27685 H 2890.74 -2.63296 -4.65381 0
M  V30 27686 H 2891.08 -1.03747 -4.03165 0
M  V30 27687 H 2891.62 -2.46986 -3.11837 0
M  V30 27688 H 2888.35 -5.41033 -3.70086 0
M  V30 27689 H 2887.87 -3.91818 -4.54135 0
M  V30 27690 H 2889.55 -4.50337 -4.64549 0
M  V30 27691 N 2889.69 1.0947 -1.13376 0
M  V30 27692 C 2890.93 1.83251 -0.905455 0
M  V30 27693 C 2891.29 1.83702 0.558364 0
M  V30 27694 O 2892.49 2.53135 0.90421 0
M  V30 27695 C 2890.76 3.25469 -1.47664 0
M  V30 27696 S 2892.32 4.16258 -1.38832 0
M  V30 27697 H 2889.14 0.631661 -0.326382 0
M  V30 27698 H 2891.74 1.31661 -1.44519 0
M  V30 27699 H 2890.44 3.22717 -2.53539 0
M  V30 27700 H 2889.98 3.82132 -0.934823 0
M  V30 27701 H 2891.99 4.94845 -0.366466 0
M  V30 27702 N 2891.16 0.92719 1.2744 0
M  V30 27703 C 2892.57 0.61201 1.76384 0
M  V30 27704 C 2892.93 -0.872822 1.75716 0
M  V30 27705 O 2892.05 -1.68297 1.36033 0
M  V30 27706 C 2892.65 1.1042 3.20301 0
M  V30 27707 C 2891.2 0.839692 3.66914 0
M  V30 27708 C 2890.35 1.26321 2.46857 0
M  V30 27709 H 2893.3 1.10702 1.13714 0
M  V30 27710 H 2893.32 0.451644 3.7781 0
M  V30 27711 H 2892.84 2.1849 3.20755 0
M  V30 27712 H 2890.94 -0.227226 3.71906 0
M  V30 27713 H 2891.05 1.45687 4.56412 0
M  V30 27714 H 2889.41 0.681766 2.45406 0
M  V30 27715 H 2890.2 2.35254 2.50021 0
M  V30 27716 N 2892.64 -1.41564 0.692641 0
M  V30 27717 C 2894.05 -1.84314 0.297511 0
M  V30 27718 C 2894.4 -1.57959 -1.16376 0
M  V30 27719 O 2893.53 -1.04853 -1.89301 0
M  V30 27720 C 2894.12 -3.34578 0.533195 0
M  V30 27721 C 2892.68 -3.7591 0.19201 0
M  V30 27722 C 2891.83 -2.64994 0.816919 0
M  V30 27723 H 2894.78 -1.31157 0.893511 0
M  V30 27724 H 2894.8 -3.79925 -0.209039 0
M  V30 27725 H 2894.31 -3.53728 1.5968 0
M  V30 27726 H 2892.41 -3.62362 -0.867448 0
M  V30 27727 H 2892.53 -4.74739 0.644986 0
M  V30 27728 H 2890.89 -2.53502 0.246759 0
M  V30 27729 H 2891.67 -2.86963 1.88434 0
M  V30 27730 N 2894.12 -0.437188 -1.51415 0
M  V30 27731 C 2895.37 0.129073 -2.01687 0
M  V30 27732 C 2895.69 1.43225 -1.32332 0
M  V30 27733 O 2894.96 1.90475 -0.457829 0
M  V30 27734 H 2893.54 0.0506892 -0.745278 0
M  V30 27735 H 2896.2 -0.579861 -1.86074 0
M  V30 27736 H 2895.3 0.305087 -3.10605 0
M  V30 27737 N 2895.6 1.56696 -0.168541 0
M  V30 27738 C 2896.84 1.96799 0.477123 0
M  V30 27739 C 2897.17 1.0544 1.6344 0
M  V30 27740 O 2896.43 0.0879247 1.95502 0
M  V30 27741 C 2896.73 3.42998 1.00435 0
M  V30 27742 C 2896.39 4.50885 -0.0367349 0
M  V30 27743 C 2895.05 4.80116 -0.322869 0
M  V30 27744 C 2897.41 5.15869 -0.743537 0
M  V30 27745 C 2894.73 5.71629 -1.32124 0
M  V30 27746 C 2897.09 6.0846 -1.73087 0
M  V30 27747 C 2895.75 6.36059 -2.02448 0
M  V30 27748 H 2895.02 0.720138 0.174592 0
M  V30 27749 H 2897.67 1.89728 -0.259917 0
M  V30 27750 H 2895.97 3.47007 1.81916 0
M  V30 27751 H 2897.67 3.71366 1.51288 0
M  V30 27752 H 2894.26 4.2815 0.196457 0
M  V30 27753 H 2898.44 4.93401 -0.535688 0
M  V30 27754 H 2893.7 5.91297 -1.55493 0
M  V30 27755 H 2897.87 6.57882 -2.28394 0
M  V30 27756 H 2895.5 7.06772 -2.79959 0
M  V30 27757 N 2897.08 -0.105193 1.57249 0
M  V30 27758 C 2898.01 -1.15432 1.9801 0
M  V30 27759 C 2899.02 -1.36886 0.88126 0
M  V30 27760 O 2900.21 -1.35716 1.15946 0
M  V30 27761 C 2897.31 -2.51179 2.27513 0
M  V30 27762 C 2896.48 -2.50141 3.58815 0
M  V30 27763 C 2895.54 -3.67738 3.76371 0
M  V30 27764 O 2894.57 -3.50691 4.48335 0
M  V30 27765 N 2895.77 -4.86835 3.16183 0
M  V30 27766 H 2898.53 -0.807469 2.88617 0
M  V30 27767 H 2896.1 -0.294302 1.59203 0
M  V30 27768 H 2898.09 -3.28433 2.3646 0
M  V30 27769 H 2896.66 -2.77993 1.42964 0
M  V30 27770 H 2895.88 -1.58503 3.6093 0
M  V30 27771 H 2897.17 -2.46516 4.45093 0
M  V30 27772 H 2896.56 -5.03589 2.5771 0
M  V30 27773 H 2895.12 -5.61718 3.30631 0
M  V30 27774 N 2898.55 -1.53055 -0.375752 0
M  V30 27775 C 2899.8 -1.68994 -1.12111 0
M  V30 27776 C 2900.13 -0.435272 -1.89259 0
M  V30 27777 O 2899.41 0.567245 -1.86045 0
M  V30 27778 C 2899.69 -2.93341 -2.08861 0
M  V30 27779 C 2899.54 -4.2894 -1.35389 0
M  V30 27780 C 2900.86 -3.13263 -3.09119 0
M  V30 27781 H 2897.98 -0.614958 -0.406197 0
M  V30 27782 H 2900.62 -1.85676 -0.403021 0
M  V30 27783 H 2898.77 -2.79249 -2.70097 0
M  V30 27784 H 2900.45 -4.54825 -0.770162 0
M  V30 27785 H 2898.69 -4.28815 -0.655726 0
M  V30 27786 H 2899.36 -5.1206 -2.06152 0
M  V30 27787 H 2901.84 -3.26473 -2.57981 0
M  V30 27788 H 2900.71 -4.01721 -3.74047 0
M  V30 27789 H 2900.97 -2.28079 -3.78725 0
M  V30 27790 N 2900.03 0.634971 -1.44242 0
M  V30 27791 C 2900.96 1.76021 -1.46796 0
M  V30 27792 C 2901.98 1.58729 -0.361808 0
M  V30 27793 O 2903.17 1.67113 -0.627326 0
M  V30 27794 C 2900.27 3.13694 -1.28254 0
M  V30 27795 C 2899.44 3.57481 -2.52044 0
M  V30 27796 C 2898.5 4.74018 -2.28458 0
M  V30 27797 O 2897.52 4.82526 -3.01923 0
M  V30 27798 N 2898.73 5.65462 -1.31274 0
M  V30 27799 H 2901.49 1.74303 -2.438 0
M  V30 27800 H 2899.05 0.819414 -1.39632 0
M  V30 27801 H 2901.04 3.89371 -1.10328 0
M  V30 27802 H 2899.61 3.10078 -0.396284 0
M  V30 27803 H 2898.83 2.72054 -2.85273 0
M  V30 27804 H 2900.12 3.83486 -3.34389 0
M  V30 27805 H 2899.52 5.61278 -0.705916 0
M  V30 27806 H 2898.08 6.40784 -1.19328 0
M  V30 27807 N 2901.51 1.31076 0.875027 0
M  V30 27808 C 2902.74 1.23553 1.66581 0
M  V30 27809 C 2903.16 -0.196827 1.87067 0
M  V30 27810 O 2902.52 -1.14117 1.40879 0
M  V30 27811 C 2902.57 1.9797 3.01397 0
M  V30 27812 O 2901.67 1.31358 3.9092 0
M  V30 27813 H 2901.01 0.42683 0.508638 0
M  V30 27814 H 2903.54 1.73062 1.09136 0
M  V30 27815 H 2903.55 2.07372 3.5137 0
M  V30 27816 H 2902.23 3.02138 2.85806 0
M  V30 27817 H 2900.8 1.30374 3.49366 0
M  V30 27818 N 2902.99 -1.08867 1.13955 0
M  V30 27819 C 2904.27 -1.77775 0.815799 0
M  V30 27820 C 2904.65 -1.9945 -0.691589 0
M  V30 27821 O 2903.99 -1.60052 -1.63082 0
M  V30 27822 C 2904.2 -3.09686 1.60921 0
M  V30 27823 C 2905.55 -3.84298 1.80556 0
M  V30 27824 O 2906.58 -3.19454 1.57568 0
M  V30 27825 O 2905.43 -5.00721 2.18955 0
M  V30 27826 H 2902.53 -0.771266 0.298458 0
M  V30 27827 H 2905.07 -1.15372 1.24448 0
M  V30 27828 H 2903.85 -2.89431 2.63336 0
M  V30 27829 H 2903.47 -3.79815 1.17584 0
M  V30 27830 N 2904.47 -0.933936 -1.26946 0
M  V30 27831 C 2905.42 -0.408819 -2.24305 0
M  V30 27832 C 2906.4 0.490408 -1.53244 0
M  V30 27833 O 2907.59 0.326836 -1.73956 0
M  V30 27834 C 2904.72 0.331518 -3.41696 0
M  V30 27835 C 2903.81 -0.584584 -4.20052 0
M  V30 27836 N 2904.2 -1.70718 -4.76119 0
M  V30 27837 C 2902.5 -0.388781 -4.44302 0
M  V30 27838 C 2903.2 -2.27746 -5.35263 0
M  V30 27839 N 2902.17 -1.56632 -5.20545 0
M  V30 27840 H 2905.98 -1.26586 -2.65242 0
M  V30 27841 H 2903.49 -0.788944 -1.41949 0
M  V30 27842 H 2905.49 0.724702 -4.10553 0
M  V30 27843 H 2904.15 1.18541 -3.02288 0
M  V30 27844 H 2905.16 -2.08945 -4.7388 0
M  V30 27845 H 2901.83 0.423943 -4.15342 0
M  V30 27846 H 2903.22 -3.22292 -5.89557 0
M  V30 27847 N 2905.94 1.41194 -0.700139 0
M  V30 27848 C 2907.18 2.03018 -0.237258 0
M  V30 27849 C 2907.55 1.5427 1.14301 0
M  V30 27850 O 2908.75 2.08051 1.702 0
M  V30 27851 C 2907.02 3.5616 -0.297504 0
M  V30 27852 S 2908.58 4.38706 0.0906596 0
M  V30 27853 H 2905.4 0.704594 -0.0952271 0
M  V30 27854 H 2908 1.72557 -0.918931 0
M  V30 27855 H 2906.7 3.89133 -1.30398 0
M  V30 27856 H 2906.23 3.91329 0.403164 0
M  V30 27857 H 2908.25 4.784 1.31712 0
M  V30 27858 N 2907.42 0.445212 1.51181 0
M  V30 27859 C 2908.67 -0.120154 2.01342 0
M  V30 27860 C 2908.98 -1.43093 1.33356 0
M  V30 27861 O 2910.19 -2.07971 1.74529 0
M  V30 27862 C 2908.65 -0.264669 3.58926 0
M  V30 27863 C 2908.25 1.03614 4.35853 0
M  V30 27864 C 2910 -0.783381 4.17209 0
M  V30 27865 C 2907.91 0.856834 5.8516 0
M  V30 27866 H 2906.84 -0.048679 0.752427 0
M  V30 27867 H 2909.49 0.576174 1.7422 0
M  V30 27868 H 2907.87 -1.02418 3.82526 0
M  V30 27869 H 2909.04 1.8046 4.23994 0
M  V30 27870 H 2907.36 1.48398 3.89059 0
M  V30 27871 H 2909.95 -0.934147 5.26477 0
M  V30 27872 H 2910.3 -1.76793 3.76895 0
M  V30 27873 H 2910.83 -0.0819647 3.97716 0
M  V30 27874 H 2907.57 1.81399 6.299 0
M  V30 27875 H 2907.09 0.128312 5.99663 0
M  V30 27876 H 2908.77 0.51314 6.44962 0
M  V30 27877 N 2908.9 -1.56605 0.176849 0
M  V30 27878 C 2910.18 -1.88744 -0.513332 0
M  V30 27879 C 2910.56 -1.0876 -1.80927 0
M  V30 27880 O 2909.91 -0.183167 -2.27765 0
M  V30 27881 C 2910.12 -3.40849 -0.749865 0
M  V30 27882 C 2911.46 -4.10703 -1.0774 0
M  V30 27883 O 2912.49 -3.46197 -0.838216 0
M  V30 27884 O 2911.35 -5.24677 -1.52892 0
M  V30 27885 H 2908.44 -0.783297 -0.265283 0
M  V30 27886 H 2910.99 -1.68324 0.215698 0
M  V30 27887 H 2909.76 -3.90947 0.166058 0
M  V30 27888 H 2909.38 -3.66899 -1.53201 0
M  V30 27889 N 2910.38 0.0968524 -1.57302 0
M  V30 27890 C 2911.63 0.799356 -1.85184 0
M  V30 27891 C 2911.94 1.79984 -0.765849 0
M  V30 27892 O 2913.15 2.55011 -0.93174 0
M  V30 27893 C 2911.6 1.47244 -3.28401 0
M  V30 27894 C 2911.21 0.51181 -4.45067 0
M  V30 27895 C 2912.95 2.15877 -3.6551 0
M  V30 27896 C 2910.86 1.18938 -5.79317 0
M  V30 27897 H 2909.79 0.302275 -0.690758 0
M  V30 27898 H 2912.44 0.0522781 -1.83426 0
M  V30 27899 H 2910.82 2.26691 -3.24696 0
M  V30 27900 H 2912 -0.251043 -4.60116 0
M  V30 27901 H 2910.31 -0.0687308 -4.16343 0
M  V30 27902 H 2912.91 2.67301 -4.63092 0
M  V30 27903 H 2913.25 2.94691 -2.94046 0
M  V30 27904 H 2913.79 1.43292 -3.71096 0
M  V30 27905 H 2910.53 0.442083 -6.54008 0
M  V30 27906 H 2910.05 1.9237 -5.68114 0
M  V30 27907 H 2911.72 1.71636 -6.23819 0
M  V30 27908 N 2911.86 1.53252 0.36763 0
M  V30 27909 C 2913.13 1.59937 1.12603 0
M  V30 27910 C 2913.51 0.405643 2.07166 0
M  V30 27911 O 2912.86 -0.604284 2.20365 0
M  V30 27912 C 2913.07 2.94867 1.86694 0
M  V30 27913 C 2914.42 3.4937 2.413 0
M  V30 27914 O 2915.44 2.96882 1.96823 0
M  V30 27915 O 2914.3 4.41124 3.22602 0
M  V30 27916 H 2911.4 0.645936 0.516426 0
M  V30 27917 H 2913.94 1.65594 0.371059 0
M  V30 27918 H 2912.71 3.73189 1.17668 0
M  V30 27919 H 2912.34 2.92692 2.69104 0
M  V30 27920 N 2913.34 -0.627313 1.44577 0
M  V30 27921 C 2914.25 -1.76773 1.54235 0
M  V30 27922 C 2915.26 -1.68659 0.427811 0
M  V30 27923 O 2916.44 -1.89368 0.685705 0
M  V30 27924 C 2913.5 -3.13171 1.48744 0
M  V30 27925 C 2912.56 -3.32888 2.71079 0
M  V30 27926 C 2911.8 -4.62779 2.6584 0
M  V30 27927 O 2912.02 -5.43831 1.72057 0
M  V30 27928 O 2910.95 -4.84781 3.5675 0
M  V30 27929 H 2914.78 -1.71577 2.50589 0
M  V30 27930 H 2912.36 -0.789006 1.26866 0
M  V30 27931 H 2914.25 -3.94474 1.48218 0
M  V30 27932 H 2912.92 -3.18901 0.555348 0
M  V30 27933 H 2911.83 -2.5125 2.77172 0
M  V30 27934 H 2913.16 -3.32023 3.63348 0
M  V30 27935 N 2914.81 -1.31539 -0.868063 0
M  V30 27936 C 2916.05 -1.22635 -1.63524 0
M  V30 27937 C 2916.42 0.211782 -1.90828 0
M  V30 27938 O 2917.62 0.424341 -2.65429 0
M  V30 27939 C 2915.89 -2.04881 -2.92846 0
M  V30 27940 S 2917.45 -2.1286 -3.83714 0
M  V30 27941 H 2914.27 -0.436752 -0.561042 0
M  V30 27942 H 2916.87 -1.66225 -1.02905 0
M  V30 27943 H 2915.57 -3.08453 -2.70712 0
M  V30 27944 H 2915.1 -1.62018 -3.58488 0
M  V30 27945 H 2917.12 -1.26831 -4.79717 0
M  V30 27946 N 2916.29 1.08262 -1.1453 0
M  V30 27947 C 2917.52 1.84956 -0.938414 0
M  V30 27948 C 2917.94 1.8111 0.508012 0
M  V30 27949 O 2917.3 1.19727 1.36144 0
M  V30 27950 C 2917.35 3.30349 -1.44574 0
M  V30 27951 O 2916.45 4.07422 -0.638816 0
M  V30 27952 H 2915.79 0.573062 -0.335404 0
M  V30 27953 H 2918.32 1.36635 -1.5229 0
M  V30 27954 H 2918.33 3.81191 -1.45456 0
M  V30 27955 H 2917.01 3.32463 -2.49882 0
M  V30 27956 H 2915.58 3.66293 -0.698865 0
M  V30 27957 N 2917.77 0.940655 1.26449 0
M  V30 27958 C 2918.68 0.455922 2.30127 0
M  V30 27959 C 2919.7 -0.469837 1.67537 0
M  V30 27960 O 2920.87 -0.349494 1.98344 0
M  V30 27961 C 2917.94 -0.271587 3.45635 0
M  V30 27962 C 2917 0.690668 4.23708 0
M  V30 27963 C 2916.23 -0.00221666 5.337 0
M  V30 27964 O 2916.45 -1.21925 5.57217 0
M  V30 27965 O 2915.39 0.676216 5.98089 0
M  V30 27966 H 2919.21 1.31712 2.73652 0
M  V30 27967 H 2916.8 0.70652 1.31638 0
M  V30 27968 H 2918.68 -0.681413 4.15854 0
M  V30 27969 H 2917.36 -1.10818 3.0414 0
M  V30 27970 H 2916.26 1.15043 3.55972 0
M  V30 27971 H 2917.6 1.49486 4.68951 0
M  V30 27972 N 2919.25 -1.40821 0.707617 0
M  V30 27973 C 2920.16 -2.34545 0.0507658 0
M  V30 27974 C 2921.17 -1.56877 -0.7527 0
M  V30 27975 O 2922.35 -1.89303 -0.687491 0
M  V30 27976 C 2919.41 -3.35719 -0.865672 0
M  V30 27977 C 2918.48 -4.29267 -0.0530559 0
M  V30 27978 C 2917.71 -5.25608 -0.925846 0
M  V30 27979 O 2917.93 -5.27707 -2.16521 0
M  V30 27980 O 2916.87 -6.00767 -0.369088 0
M  V30 27981 H 2920.69 -2.92318 0.823639 0
M  V30 27982 H 2918.28 -1.4188 0.468035 0
M  V30 27983 H 2920.16 -3.97786 -1.39084 0
M  V30 27984 H 2918.83 -2.80371 -1.61783 0
M  V30 27985 H 2917.74 -3.7051 0.516996 0
M  V30 27986 H 2919.07 -4.87745 0.660702 0
M  V30 27987 N 2920.73 -0.453223 -1.50943 0
M  V30 27988 C 2922.14 0.0061661 -1.86699 0
M  V30 27989 C 2922.49 1.40513 -1.36933 0
M  V30 27990 O 2921.61 2.03832 -0.726751 0
M  V30 27991 C 2922.21 0.0179654 -3.38795 0
M  V30 27992 C 2920.77 0.421819 -3.74029 0
M  V30 27993 C 2919.91 -0.375135 -2.74751 0
M  V30 27994 H 2922.86 -0.668343 -1.43941 0
M  V30 27995 H 2922.89 0.82406 -3.71469 0
M  V30 27996 H 2922.4 -1.00034 -3.74986 0
M  V30 27997 H 2920.5 1.44515 -3.43433 0
M  V30 27998 H 2920.61 0.13558 -4.78908 0
M  V30 27999 H 2918.98 0.168749 -2.5414 0
M  V30 28000 H 2919.76 -1.39262 -3.13785 0
M  V30 28001 N 2922.2 1.56509 -0.185151 0
M  V30 28002 C 2923.15 2.19955 0.756466 0
M  V30 28003 C 2924.15 1.16771 1.22723 0
M  V30 28004 O 2925.35 1.34939 1.19128 0
M  V30 28005 H 2921.73 0.704784 0.262267 0
M  V30 28006 H 2923.7 2.97745 0.197535 0
M  V30 28007 C 2922.45 2.86527 1.9697 0
M  V30 28008 H 2921.77 3.65662 1.61651 0
M  V30 28009 H 2923.21 3.34372 2.60713 0
M  V30 28010 C 2921.67 1.87032 2.80215 0
M  V30 28011 O 2922.2 1.36439 3.77819 0
M  V30 28012 N 2920.4 1.55481 2.45507 0
M  V30 28013 H 2919.95 1.96816 1.66196 0
M  V30 28014 H 2919.91 0.89165 3.01491 0
M  V30 28015 N 2923.68 -0.0885089 1.57351 0
M  V30 28016 C 2924.61 -1.10753 2.05562 0
M  V30 28017 C 2925.59 -1.4138 0.945814 0
M  V30 28018 O 2926.78 -1.51296 1.2175 0
M  V30 28019 C 2923.91 -2.42562 2.48558 0
M  V30 28020 C 2922.86 -2.26328 3.63263 0
M  V30 28021 C 2922.19 -3.63371 3.92257 0
M  V30 28022 C 2923.49 -1.69836 4.93916 0
M  V30 28023 H 2925.18 -0.706417 2.90947 0
M  V30 28024 H 2922.73 -0.33836 1.39968 0
M  V30 28025 H 2924.68 -3.14127 2.80895 0
M  V30 28026 H 2923.4 -2.84622 1.60181 0
M  V30 28027 H 2922.06 -1.57207 3.31182 0
M  V30 28028 H 2921.71 -4.02971 3.01037 0
M  V30 28029 H 2921.41 -3.53353 4.69484 0
M  V30 28030 H 2922.94 -4.36394 4.27075 0
M  V30 28031 H 2924.35 -2.31248 5.24592 0
M  V30 28032 H 2922.75 -1.70559 5.75352 0
M  V30 28033 H 2923.82 -0.658346 4.8041 0
M  V30 28034 N 2925.16 -1.53445 -0.359498 0
M  V30 28035 C 2926.4 -1.71627 -1.11011 0
M  V30 28036 C 2926.76 -0.461353 -1.86375 0
M  V30 28037 O 2927.96 -0.519955 -2.63723 0
M  V30 28038 C 2926.24 -2.93528 -2.03902 0
M  V30 28039 S 2927.79 -3.32445 -2.86402 0
M  V30 28040 H 2924.61 -0.603854 -0.375342 0
M  V30 28041 H 2927.21 -1.91559 -0.390571 0
M  V30 28042 H 2925.92 -3.83051 -1.4731 0
M  V30 28043 H 2925.45 -2.76016 -2.80319 0
M  V30 28044 H 2927.46 -2.84933 -4.06236 0
M  V30 28045 N 2926.64 0.619637 -1.44908 0
M  V30 28046 C 2927.57 1.74198 -1.55491 0
M  V30 28047 C 2928.55 1.65155 -0.407172 0
M  V30 28048 O 2929.73 1.83739 -0.628775 0
M  V30 28049 C 2926.86 3.12768 -1.50976 0
M  V30 28050 C 2925.82 3.3661 -2.64343 0
M  V30 28051 C 2925.14 4.75329 -2.44881 0
M  V30 28052 C 2926.44 3.28044 -4.06429 0
M  V30 28053 H 2928.14 1.65597 -2.49435 0
M  V30 28054 H 2925.68 0.79526 -1.20048 0
M  V30 28055 H 2927.64 3.9107 -1.56978 0
M  V30 28056 H 2926.36 3.22179 -0.535543 0
M  V30 28057 H 2925.02 2.60693 -2.57749 0
M  V30 28058 H 2924.67 4.81458 -1.45625 0
M  V30 28059 H 2924.37 4.92239 -3.20897 0
M  V30 28060 H 2925.89 5.55847 -2.52719 0
M  V30 28061 H 2927.31 3.96236 -4.14331 0
M  V30 28062 H 2925.7 3.56486 -4.8274 0
M  V30 28063 H 2926.77 2.25669 -4.29187 0
M  V30 28064 N 2928.12 1.31997 0.861075 0
M  V30 28065 C 2929.36 1.22191 1.61479 0
M  V30 28066 C 2929.69 -0.217819 1.93276 0
M  V30 28067 O 2928.95 -1.16906 1.56944 0
M  V30 28068 C 2929.25 2.02032 2.94818 0
M  V30 28069 C 2928.91 3.51451 2.82477 0
M  V30 28070 C 2927.57 3.92191 2.78819 0
M  V30 28071 C 2929.93 4.46495 2.68871 0
M  V30 28072 C 2927.25 5.26228 2.59423 0
M  V30 28073 C 2929.61 5.80669 2.51012 0
M  V30 28074 C 2928.27 6.20618 2.45742 0
M  V30 28075 H 2927.54 0.44713 0.590894 0
M  V30 28076 H 2930.19 1.63356 0.999347 0
M  V30 28077 H 2928.49 1.53575 3.60447 0
M  V30 28078 H 2930.19 1.91819 3.52146 0
M  V30 28079 H 2926.78 3.1909 2.86146 0
M  V30 28080 H 2930.96 4.15945 2.70746 0
M  V30 28081 H 2926.22 5.56245 2.53775 0
M  V30 28082 H 2930.39 6.53935 2.39462 0
M  V30 28083 H 2928.02 7.24421 2.30472 0
M  V30 28084 N 2929.59 -1.07653 1.15103 0
M  V30 28085 C 2930.84 -1.79834 0.92218 0
M  V30 28086 C 2931.16 -1.87015 -0.552314 0
M  V30 28087 O 2930.43 -1.36882 -1.40143 0
M  V30 28088 H 2929.01 -0.666058 0.338194 0
M  V30 28089 H 2931.68 -1.30113 1.45109 0
M  V30 28090 H 2930.77 -2.82395 1.32888 0
M  V30 28091 N 2931.07 -0.947348 -1.25949 0
M  V30 28092 C 2932.3 -0.615162 -1.97543 0
M  V30 28093 C 2932.72 0.811191 -1.70485 0
M  V30 28094 O 2932.07 1.54168 -0.976647 0
M  V30 28095 C 2932.12 -0.85539 -3.51234 0
M  V30 28096 O 2931.84 -2.22565 -3.77355 0
M  V30 28097 C 2933.35 -0.534592 -4.40065 0
M  V30 28098 H 2930.57 -0.231274 -0.629884 0
M  V30 28099 H 2933.11 -1.26974 -1.60306 0
M  V30 28100 H 2931.26 -0.247334 -3.8661 0
M  V30 28101 H 2931.68 -2.29031 -4.71853 0
M  V30 28102 H 2933.15 -0.753264 -5.46836 0
M  V30 28103 H 2933.63 0.530625 -4.35983 0
M  V30 28104 H 2934.24 -1.12165 -4.10243 0
M  V30 28105 N 2932.55 1.40444 -0.715075 0
M  V30 28106 C 2933.79 2.02755 -0.258778 0
M  V30 28107 C 2934.15 1.55474 1.12659 0
M  V30 28108 O 2935.36 2.09845 1.67984 0
M  V30 28109 C 2933.63 3.55824 -0.335263 0
M  V30 28110 S 2935.19 4.38778 0.0441239 0
M  V30 28111 H 2932 0.703544 -0.102695 0
M  V30 28112 H 2934.61 1.71573 -0.937181 0
M  V30 28113 H 2933.31 3.87728 -1.34518 0
M  V30 28114 H 2932.84 3.91734 0.361636 0
M  V30 28115 H 2934.86 4.7977 1.26631 0
M  V30 28116 N 2934.03 0.461222 1.507 0
M  V30 28117 C 2935.26 -0.0951392 2.06681 0
M  V30 28118 C 2935.67 -1.3438 1.32618 0
M  V30 28119 O 2935.03 -1.78228 0.392562 0
M  V30 28120 C 2935.08 -0.393253 3.59355 0
M  V30 28121 O 2934.8 0.805872 4.30624 0
M  V30 28122 C 2936.3 -0.997669 4.31928 0
M  V30 28123 H 2933.52 0.00268438 0.670995 0
M  V30 28124 H 2936.07 0.647171 1.9399 0
M  V30 28125 H 2934.22 -1.08548 3.71882 0
M  V30 28126 H 2934.63 0.5445 5.21666 0
M  V30 28127 H 2936.11 -1.15609 5.39758 0
M  V30 28128 H 2936.59 -1.98516 3.91776 0
M  V30 28129 H 2937.19 -0.344114 4.23906 0
M  V30 28130 N 2935.51 -1.56408 0.193449 0
M  V30 28131 C 2936.45 -2.20353 -0.744791 0
M  V30 28132 C 2937.45 -1.1742 -1.22102 0
M  V30 28133 O 2938.65 -1.35569 -1.18411 0
M  V30 28134 H 2935.03 -0.706165 -0.258525 0
M  V30 28135 H 2937 -2.97846 -0.181742 0
M  V30 28136 C 2935.75 -2.87568 -1.95448 0
M  V30 28137 H 2935.07 -3.66514 -1.5971 0
M  V30 28138 H 2936.51 -3.3575 -2.58936 0
M  V30 28139 C 2934.97 -1.88515 -2.7922 0
M  V30 28140 O 2935.5 -1.38441 -3.7709 0
M  V30 28141 N 2933.71 -1.56781 -2.44679 0
M  V30 28142 H 2933.25 -1.97695 -1.6515 0
M  V30 28143 H 2933.21 -0.907626 -3.01014 0
M  V30 28144 N 2936.98 0.0801629 -1.57396 0
M  V30 28145 C 2938.21 0.797875 -1.91439 0
M  V30 28146 C 2938.63 1.70748 -0.789105 0
M  V30 28147 O 2937.99 1.79447 0.258539 0
M  V30 28148 C 2938.04 1.57461 -3.24405 0
M  V30 28149 O 2937.14 2.68468 -3.13047 0
M  V30 28150 H 2936.49 0.218232 -0.627113 0
M  V30 28151 H 2939.02 0.0509131 -2.04537 0
M  V30 28152 H 2939.03 1.95565 -3.58076 0
M  V30 28153 H 2937.7 0.907157 -4.05886 0
M  V30 28154 H 2936.28 2.33282 -2.90919 0
M  V30 28155 N 2938.46 1.53634 0.351355 0
M  V30 28156 C 2939.87 1.62038 0.9274 0
M  V30 28157 C 2940.22 0.496739 1.89808 0
M  V30 28158 O 2939.35 -0.374712 2.13131 0
M  V30 28159 C 2939.94 2.93709 1.68881 0
M  V30 28160 C 2938.5 3.04401 2.21398 0
M  V30 28161 C 2937.65 2.57433 1.0307 0
M  V30 28162 H 2940.6 1.58169 0.12972 0
M  V30 28163 H 2940.62 2.8231 2.55111 0
M  V30 28164 H 2940.13 3.75469 0.982083 0
M  V30 28165 H 2938.24 2.27258 2.9527 0
M  V30 28166 H 2938.35 4.09734 2.48305 0
M  V30 28167 H 2936.71 2.12651 1.40184 0
M  V30 28168 H 2937.5 3.41625 0.338733 0
M  V30 28169 N 2939.94 -0.611943 1.45234 0
M  V30 28170 C 2941.19 -1.36836 1.48729 0
M  V30 28171 C 2941.51 -1.94575 0.12865 0
M  V30 28172 O 2940.78 -1.76908 -0.841459 0
M  V30 28173 H 2939.36 -0.507966 0.547704 0
M  V30 28174 H 2942.02 -0.718893 1.81157 0
M  V30 28175 H 2941.12 -2.18999 2.22364 0
M  V30 28176 N 2941.42 -1.32452 -0.854063 0
M  V30 28177 C 2942.64 -1.26188 -1.64594 0
M  V30 28178 C 2943.07 0.167041 -1.87357 0
M  V30 28179 O 2942.43 1.11862 -1.42677 0
M  V30 28180 C 2942.47 -2.0274 -2.9821 0
M  V30 28181 O 2941.58 -1.37561 -3.88781 0
M  V30 28182 H 2940.92 -0.434868 -0.501783 0
M  V30 28183 H 2943.45 -1.74777 -1.06369 0
M  V30 28184 H 2943.46 -2.12936 -3.48026 0
M  V30 28185 H 2942.13 -3.06647 -2.80964 0
M  V30 28186 H 2940.71 -1.35916 -3.47248 0
M  V30 28187 N 2942.9 1.07041 -1.15672 0
M  V30 28188 C 2944.14 1.79697 -0.933549 0
M  V30 28189 C 2944.47 1.86879 0.539129 0
M  V30 28190 O 2943.73 1.35096 1.4159 0
M  V30 28191 C 2944.03 3.24546 -1.49683 0
M  V30 28192 C 2943.69 3.37458 -2.99053 0
M  V30 28193 C 2942.35 3.40689 -3.3983 0
M  V30 28194 C 2944.71 3.39997 -3.95033 0
M  V30 28195 C 2942.03 3.44067 -4.75221 0
M  V30 28196 C 2944.39 3.44911 -5.30301 0
M  V30 28197 C 2943.05 3.46422 -5.70568 0
M  V30 28198 H 2942.32 0.657559 -0.34161 0
M  V30 28199 H 2944.97 1.25935 -1.44266 0
M  V30 28200 H 2943.27 3.8111 -0.908982 0
M  V30 28201 H 2944.97 3.79345 -1.29992 0
M  V30 28202 H 2941.56 3.35644 -2.66536 0
M  V30 28203 H 2945.74 3.36719 -3.64601 0
M  V30 28204 H 2941 3.43536 -5.0576 0
M  V30 28205 H 2945.17 3.45823 -6.04466 0
M  V30 28206 H 2942.8 3.48791 -6.75462 0
M  V30 28207 N 2944.38 0.954014 1.25445 0
M  V30 28208 C 2945.31 0.431044 2.2511 0
M  V30 28209 C 2946.32 -0.452736 1.56378 0
M  V30 28210 O 2947.51 -0.261113 1.7658 0
M  V30 28211 C 2944.61 -0.398331 3.36551 0
M  V30 28212 C 2943.78 0.472306 4.34843 0
M  V30 28213 C 2942.84 -0.298767 5.25351 0
M  V30 28214 O 2941.87 0.302622 5.68395 0
M  V30 28215 N 2943.07 -1.59202 5.58243 0
M  V30 28216 H 2945.83 1.28789 2.70617 0
M  V30 28217 H 2943.4 0.824306 1.39344 0
M  V30 28218 H 2945.39 -0.921872 3.9406 0
M  V30 28219 H 2943.96 -1.15604 2.90438 0
M  V30 28220 H 2943.18 1.17695 3.7622 0
M  V30 28221 H 2944.47 1.06657 4.97495 0
M  V30 28222 H 2943.86 -2.10255 5.25176 0
M  V30 28223 H 2942.42 -2.06153 6.1834 0
M  V30 28224 N 2945.85 -1.40063 0.722513 0
M  V30 28225 C 2947.09 -2.02615 0.269527 0
M  V30 28226 C 2947.46 -1.56069 -1.11832 0
M  V30 28227 O 2948.66 -2.10733 -1.66869 0
M  V30 28228 C 2946.93 -3.55641 0.354129 0
M  V30 28229 S 2948.49 -4.38795 -0.0208538 0
M  V30 28230 H 2945.31 -0.70299 0.106425 0
M  V30 28231 H 2947.91 -1.71073 0.946267 0
M  V30 28232 H 2946.61 -3.87009 1.36572 0
M  V30 28233 H 2946.14 -3.91921 -0.340856 0
M  V30 28234 H 2948.16 -4.80435 -1.24085 0
M  V30 28235 N 2947.33 -0.469207 -1.50453 0
M  V30 28236 C 2948.26 0.315879 -2.31354 0
M  V30 28237 C 2949.24 0.99207 -1.38174 0
M  V30 28238 O 2950.43 0.989604 -1.67094 0
M  V30 28239 C 2947.56 1.39931 -3.17862 0
M  V30 28240 C 2946.51 0.844835 -4.19579 0
M  V30 28241 C 2945.84 2.02642 -4.94814 0
M  V30 28242 C 2947.14 -0.14259 -5.22105 0
M  V30 28243 H 2948.83 -0.359322 -2.97236 0
M  V30 28244 H 2946.38 -0.174249 -1.42942 0
M  V30 28245 H 2948.33 1.95601 -3.73254 0
M  V30 28246 H 2947.05 2.10326 -2.49861 0
M  V30 28247 H 2945.71 0.310125 -3.65286 0
M  V30 28248 H 2945.36 2.7173 -4.23287 0
M  V30 28249 H 2945.06 1.66164 -5.63616 0
M  V30 28250 H 2946.59 2.58805 -5.53039 0
M  V30 28251 H 2948 0.324865 -5.72379 0
M  V30 28252 H 2946.4 -0.421546 -5.98618 0
M  V30 28253 H 2947.47 -1.06909 -4.72968 0
M  V30 28254 N 2948.81 1.56303 -0.201741 0
M  V30 28255 C 2950.05 1.99666 0.43736 0
M  V30 28256 C 2950.41 1.08595 1.58339 0
M  V30 28257 O 2951.61 1.41221 2.28714 0
M  V30 28258 C 2949.89 3.46409 0.879511 0
M  V30 28259 S 2951.44 4.11798 1.51551 0
M  V30 28260 H 2948.26 0.697159 0.139609 0
M  V30 28261 H 2950.86 1.93084 -0.306371 0
M  V30 28262 H 2949.57 4.10385 0.0354574 0
M  V30 28263 H 2949.1 3.56822 1.65654 0
M  V30 28264 H 2951.11 4.09352 2.80438 0
M  V30 28265 N 2950.29 -0.0718147 1.57436 0
M  V30 28266 C 2951.7 -0.623647 1.75976 0
M  V30 28267 C 2952.05 -1.7791 0.827186 0
M  V30 28268 O 2951.17 -2.16397 0.0112805 0
M  V30 28269 C 2951.77 -1.1381 3.19112 0
M  V30 28270 C 2950.33 -1.6358 3.38996 0
M  V30 28271 C 2949.48 -0.555213 2.71685 0
M  V30 28272 H 2952.43 0.154356 1.57948 0
M  V30 28273 H 2952.45 -2.00691 3.2327 0
M  V30 28274 H 2951.96 -0.29693 3.86962 0
M  V30 28275 H 2950.06 -2.50022 2.7626 0
M  V30 28276 H 2950.17 -1.71276 4.47439 0
M  V30 28277 H 2948.54 -1.00025 2.34237 0
M  V30 28278 H 2949.32 0.275772 3.42191 0
M  V30 28279 N 2951.77 -1.53818 -0.343203 0
M  V30 28280 C 2953.18 -1.62527 -0.918794 0
M  V30 28281 C 2953.53 -0.506798 -1.89542 0
M  V30 28282 O 2952.65 0.363403 -2.13327 0
M  V30 28283 C 2953.25 -2.946 -1.67321 0
M  V30 28284 C 2951.81 -3.05571 -2.19781 0
M  V30 28285 C 2950.95 -2.57976 -1.01703 0
M  V30 28286 H 2953.9 -1.58236 -0.12133 0
M  V30 28287 H 2953.93 -2.83659 -2.5361 0
M  V30 28288 H 2953.44 -3.75984 -0.962157 0
M  V30 28289 H 2951.54 -2.28821 -2.94061 0
M  V30 28290 H 2951.65 -4.11045 -2.46128 0
M  V30 28291 H 2950.02 -2.13392 -1.39054 0
M  V30 28292 H 2950.8 -3.418 -0.320611 0
M  V30 28293 N 2953.24 0.604233 -1.45557 0
M  V30 28294 C 2954.49 1.36045 -1.49453 0
M  V30 28295 C 2954.81 1.94504 -0.138967 0
M  V30 28296 O 2954.08 1.77351 0.832065 0
M  V30 28297 H 2952.66 0.505055 -0.55039 0
M  V30 28298 H 2955.32 0.709276 -1.81536 0
M  V30 28299 H 2954.42 2.17817 -2.23522 0
M  V30 28300 N 2954.72 1.32903 0.847027 0
M  V30 28301 C 2955.97 1.23897 1.60174 0
M  V30 28302 C 2956.3 -0.197307 1.93497 0
M  V30 28303 O 2955.55 -1.15235 1.58175 0
M  V30 28304 C 2955.85 2.05147 2.92659 0
M  V30 28305 C 2955.52 3.54427 2.78734 0
M  V30 28306 C 2954.18 3.95126 2.74643 0
M  V30 28307 C 2956.53 4.49322 2.6412 0
M  V30 28308 C 2953.86 5.2895 2.53828 0
M  V30 28309 C 2956.21 5.83298 2.44839 0
M  V30 28310 C 2954.87 6.2319 2.39145 0
M  V30 28311 H 2954.14 0.453372 0.586119 0
M  V30 28312 H 2956.79 1.64407 0.981965 0
M  V30 28313 H 2955.1 1.57389 3.58798 0
M  V30 28314 H 2956.79 1.95543 3.50091 0
M  V30 28315 H 2953.38 3.22107 2.82746 0
M  V30 28316 H 2957.57 4.18793 2.6632 0
M  V30 28317 H 2952.82 5.58905 2.47861 0
M  V30 28318 H 2957 6.56438 2.32513 0
M  V30 28319 H 2954.62 7.26825 2.22776 0
M  V30 28320 N 2956.2 -1.06426 1.16238 0
M  V30 28321 C 2957.45 -1.79465 0.944462 0
M  V30 28322 C 2957.78 -1.86926 -0.526525 0
M  V30 28323 O 2957.05 -1.35988 -1.39059 0
M  V30 28324 C 2957.34 -3.24025 1.57097 0
M  V30 28325 C 2957.19 -3.24653 3.11321 0
M  V30 28326 C 2958.51 -4.21542 1.26454 0
M  V30 28327 H 2955.63 -0.651511 0.344533 0
M  V30 28328 H 2958.27 -1.24475 1.43548 0
M  V30 28329 H 2956.42 -3.70983 1.15343 0
M  V30 28330 H 2958.09 -2.85867 3.62047 0
M  V30 28331 H 2956.33 -2.63344 3.44721 0
M  V30 28332 H 2957.01 -4.26627 3.50277 0
M  V30 28333 H 2959.48 -3.8302 1.62588 0
M  V30 28334 H 2958.36 -5.2096 1.72894 0
M  V30 28335 H 2958.62 -4.4172 0.183146 0
M  V30 28336 N 2957.68 -0.960653 -1.24937 0
M  V30 28337 C 2958.61 -0.503855 -2.27999 0
M  V30 28338 C 2959.59 0.4529 -1.6396 0
M  V30 28339 O 2960.77 0.350552 -1.9101 0
M  V30 28340 C 2957.9 0.213474 -3.46643 0
M  V30 28341 C 2956.86 -0.658609 -4.22902 0
M  V30 28342 C 2956.18 0.189808 -5.34363 0
M  V30 28343 C 2957.48 -1.93972 -4.84946 0
M  V30 28344 H 2959.18 -1.36526 -2.6646 0
M  V30 28345 H 2956.72 -0.65792 -1.28091 0
M  V30 28346 H 2958.68 0.544212 -4.17871 0
M  V30 28347 H 2957.4 1.10918 -3.07189 0
M  V30 28348 H 2956.06 -0.972517 -3.53465 0
M  V30 28349 H 2955.71 1.08545 -4.91149 0
M  V30 28350 H 2955.41 -0.390434 -5.86301 0
M  V30 28351 H 2956.93 0.515377 -6.08421 0
M  V30 28352 H 2958.35 -1.67501 -5.48285 0
M  V30 28353 H 2956.74 -2.4661 -5.47086 0
M  V30 28354 H 2957.81 -2.63907 -4.06794 0
M  V30 28355 N 2959.16 1.39677 -0.729931 0
M  V30 28356 C 2960.38 2.05441 -0.284382 0
M  V30 28357 C 2960.81 1.54665 1.07054 0
M  V30 28358 O 2960.16 0.688187 1.67731 0
M  V30 28359 C 2960.21 3.59431 -0.290152 0
M  V30 28360 O 2959.32 4.05997 0.723906 0
M  V30 28361 H 2958.66 0.651085 -0.130322 0
M  V30 28362 H 2961.19 1.78808 -0.994434 0
M  V30 28363 H 2961.2 4.07784 -0.132784 0
M  V30 28364 H 2959.87 3.95751 -1.27884 0
M  V30 28365 H 2958.45 3.6907 0.533089 0
M  V30 28366 N 2960.63 0.47718 1.50202 0
M  V30 28367 C 2961.91 -0.137575 1.95116 0
M  V30 28368 C 2962.29 -1.56402 1.41781 0
M  V30 28369 O 2961.64 -2.19889 0.621372 0
M  V30 28370 C 2961.85 -0.0746555 3.4892 0
M  V30 28371 C 2963.2 -0.26051 4.238 0
M  V30 28372 O 2964.22 -0.150958 3.5588 0
M  V30 28373 O 2963.08 -0.482438 5.44366 0
M  V30 28374 H 2960.17 -0.10835 0.819872 0
M  V30 28375 H 2962.72 0.538017 1.60946 0
M  V30 28376 H 2961.49 0.921033 3.80306 0
M  V30 28377 H 2961.12 -0.79144 3.89643 0
M  V30 28378 N 2962.11 -1.56194 0.210027 0
M  V30 28379 C 2963.06 -2.21131 -0.721377 0
M  V30 28380 C 2964.05 -1.18708 -1.2085 0
M  V30 28381 O 2965.26 -1.36817 -1.16966 0
M  V30 28382 H 2961.64 -0.708867 -0.251021 0
M  V30 28383 H 2963.61 -2.98022 -0.150141 0
M  V30 28384 C 2962.36 -2.89625 -1.92387 0
M  V30 28385 H 2961.68 -3.68188 -1.55813 0
M  V30 28386 H 2963.12 -3.38477 -2.55361 0
M  V30 28387 C 2961.58 -1.91466 -2.77204 0
M  V30 28388 O 2962.11 -1.42433 -3.75601 0
M  V30 28389 N 2960.31 -1.59367 -2.43003 0
M  V30 28390 H 2959.86 -1.99435 -1.63044 0
M  V30 28391 H 2959.82 -0.939502 -3.00035 0
M  V30 28392 N 2963.59 0.0634645 -1.57472 0
M  V30 28393 C 2964.84 0.75953 -1.87285 0
M  V30 28394 C 2965.16 1.77691 -0.803166 0
M  V30 28395 O 2964.43 1.95185 0.167259 0
M  V30 28396 H 2963.01 0.283503 -0.691111 0
M  V30 28397 H 2965.67 0.0375748 -1.94864 0
M  V30 28398 H 2964.77 1.27057 -2.85067 0
M  V30 28399 N 2965.07 1.53998 0.33504 0
M  V30 28400 C 2966.02 1.78963 1.41267 0
M  V30 28401 C 2967 0.645156 1.47399 0
M  V30 28402 O 2968.19 0.904812 1.52125 0
M  V30 28403 C 2965.32 2.01023 2.78289 0
M  V30 28404 C 2964.41 3.21559 2.76515 0
M  V30 28405 N 2964.8 4.42853 2.44366 0
M  V30 28406 C 2963.1 3.22901 3.07654 0
M  V30 28407 C 2963.8 5.24742 2.5104 0
M  V30 28408 N 2962.78 4.61655 2.87012 0
M  V30 28409 H 2966.58 2.70329 1.15322 0
M  V30 28410 H 2964.09 1.53037 0.543456 0
M  V30 28411 H 2966.09 2.17045 3.55945 0
M  V30 28412 H 2964.75 1.10903 3.05173 0
M  V30 28413 H 2965.76 4.70055 2.17414 0
M  V30 28414 H 2962.44 2.42777 3.39655 0
M  V30 28415 H 2963.83 6.31573 2.29272 0
M  V30 28416 N 2966.55 -0.596505 1.45875 0
M  V30 28417 C 2967.96 -0.918436 1.30526 0
M  V30 28418 C 2968.16 -1.9973 0.266464 0
M  V30 28419 O 2967.22 -2.50258 -0.335765 0
M  V30 28420 C 2968.53 -1.34886 2.6875 0
M  V30 28421 C 2970.08 -1.46246 2.76733 0
M  V30 28422 C 2970.55 -1.9266 4.15507 0
M  V30 28423 N 2972.05 -1.99876 4.17856 0
M  V30 28424 C 2972.78 -2.37035 5.22113 0
M  V30 28425 N 2972.28 -2.73083 6.36708 0
M  V30 28426 N 2974.07 -2.3747 5.09475 0
M  V30 28427 H 2966.22 0.116406 2.12081 0
M  V30 28428 H 2968.48 -0.0105866 0.947941 0
M  V30 28429 H 2968.19 -0.630227 3.46007 0
M  V30 28430 H 2968.06 -2.31318 2.97946 0
M  V30 28431 H 2970.45 -2.17199 1.99772 0
M  V30 28432 H 2970.53 -0.48101 2.51237 0
M  V30 28433 H 2970.18 -1.22291 4.92958 0
M  V30 28434 H 2970.11 -2.91739 4.38401 0
M  V30 28435 H 2972.6 -1.74563 3.35166 0
M  V30 28436 H 2972.91 -3.0035 7.12046 0
M  V30 28437 H 2971.25 -2.70753 6.40092 0
M  V30 28438 H 2974.45 -2.08721 4.18991 0
M  V30 28439 H 2974.62 -2.66102 5.90842 0
M  V30 28440 N 2968.02 -1.3335 -0.839967 0
M  V30 28441 C 2969.26 -1.26076 -1.60886 0
M  V30 28442 C 2969.63 0.171257 -1.91235 0
M  V30 28443 O 2970.83 0.367944 -2.6627 0
M  V30 28444 C 2969.1 -2.11047 -2.88434 0
M  V30 28445 S 2970.66 -2.20951 -3.79112 0
M  V30 28446 H 2967.48 -0.448555 -0.551652 0
M  V30 28447 H 2970.08 -1.6837 -0.993561 0
M  V30 28448 H 2968.78 -3.14126 -2.64108 0
M  V30 28449 H 2968.31 -1.69585 -3.54971 0
M  V30 28450 H 2970.33 -1.36977 -4.76919 0
M  V30 28451 N 2969.5 1.05808 -1.16801 0
M  V30 28452 C 2970.75 1.78697 -0.952555 0
M  V30 28453 C 2971.08 1.8744 0.519277 0
M  V30 28454 O 2970.33 1.3659 1.40149 0
M  V30 28455 C 2970.63 3.2294 -1.53117 0
M  V30 28456 C 2970.3 3.34267 -3.02616 0
M  V30 28457 C 2968.96 3.37066 -3.43424 0
M  V30 28458 C 2971.31 3.35788 -3.98617 0
M  V30 28459 C 2968.64 3.39007 -4.78844 0
M  V30 28460 C 2970.99 3.39267 -5.33929 0
M  V30 28461 C 2969.66 3.4035 -5.74211 0
M  V30 28462 H 2968.93 0.653899 -0.348565 0
M  V30 28463 H 2971.57 1.24398 -1.45593 0
M  V30 28464 H 2969.88 3.80124 -0.949353 0
M  V30 28465 H 2971.57 3.77945 -1.34009 0
M  V30 28466 H 2968.16 3.32798 -2.70081 0
M  V30 28467 H 2972.35 3.32833 -3.68152 0
M  V30 28468 H 2967.6 3.38152 -5.09375 0
M  V30 28469 H 2971.78 3.39392 -6.081 0
M  V30 28470 H 2969.41 3.41608 -6.79123 0
M  V30 28471 N 2970.98 0.967265 1.24426 0
M  V30 28472 C 2972.26 0.545809 1.8783 0
M  V30 28473 C 2972.64 -0.977066 1.87127 0
M  V30 28474 O 2971.99 -1.84823 1.3436 0
M  V30 28475 C 2972.2 1.13684 3.29965 0
M  V30 28476 C 2973.54 1.22147 4.06651 0
M  V30 28477 O 2974.57 1.08932 3.39134 0
M  V30 28478 O 2973.43 1.43027 5.27452 0
M  V30 28479 H 2970.52 0.181926 0.806741 0
M  V30 28480 H 2973.07 1.06151 1.32401 0
M  V30 28481 H 2971.84 2.17963 3.24973 0
M  V30 28482 H 2971.46 0.605163 3.92968 0
M  V30 28483 N 2972.46 -1.39288 0.737328 0
M  V30 28484 C 2973.69 -2.04763 0.296609 0
M  V30 28485 C 2974.1 -1.55594 -1.06939 0
M  V30 28486 O 2973.46 -0.721852 -1.67617 0
M  V30 28487 C 2973.51 -3.60319 0.291969 0
M  V30 28488 O 2973.23 -4.07679 1.60404 0
M  V30 28489 C 2974.73 -4.42994 -0.16463 0
M  V30 28490 H 2971.95 -0.658432 0.129263 0
M  V30 28491 H 2974.5 -1.78291 1.00163 0
M  V30 28492 H 2972.65 -3.85684 -0.364183 0
M  V30 28493 H 2973.07 -5.02017 1.51918 0
M  V30 28494 H 2974.54 -5.51877 -0.116717 0
M  V30 28495 H 2975.02 -4.22199 -1.21015 0
M  V30 28496 H 2975.62 -4.22783 0.462043 0
M  V30 28497 N 2973.94 -0.485139 -1.49947 0
M  V30 28498 C 2975.35 -0.140124 -1.58984 0
M  V30 28499 C 2975.55 1.35435 -1.49196 0
M  V30 28500 O 2974.61 2.12892 -1.35769 0
M  V30 28501 C 2975.92 -0.702821 -2.92371 0
M  V30 28502 C 2977.47 -0.667503 -3.058 0
M  V30 28503 C 2977.95 -1.20799 -4.41782 0
M  V30 28504 N 2979.44 -1.168 -4.48232 0
M  V30 28505 C 2980.17 -1.55656 -5.51869 0
M  V30 28506 N 2979.67 -2.02028 -6.62689 0
M  V30 28507 N 2981.46 -1.47171 -5.42492 0
M  V30 28508 H 2973.61 -1.45696 -1.54552 0
M  V30 28509 H 2975.87 -0.603372 -0.731195 0
M  V30 28510 H 2975.58 -1.75031 -3.05053 0
M  V30 28511 H 2975.45 -0.154271 -3.76884 0
M  V30 28512 H 2977.84 0.371105 -2.92757 0
M  V30 28513 H 2977.92 -1.25302 -2.23009 0
M  V30 28514 H 2977.57 -2.2453 -4.55575 0
M  V30 28515 H 2977.5 -0.598556 -5.23187 0
M  V30 28516 H 2979.99 -0.828047 -3.68716 0
M  V30 28517 H 2980.3 -2.29788 -7.37846 0
M  V30 28518 H 2978.65 -2.05991 -6.63772 0
M  V30 28519 H 2981.84 -1.10773 -4.54804 0
M  V30 28520 H 2982.01 -1.77777 -6.23137 0
M  V30 28521 N 2975.42 1.56081 -0.218307 0
M  V30 28522 C 2976.35 2.17418 0.725409 0
M  V30 28523 C 2977.36 1.14235 1.15993 0
M  V30 28524 O 2978.55 1.41229 1.09164 0
M  V30 28525 C 2975.65 2.74033 1.99396 0
M  V30 28526 C 2974.82 4.02354 1.71553 0
M  V30 28527 C 2973.88 4.43566 2.83083 0
M  V30 28528 O 2972.91 5.10529 2.51692 0
M  V30 28529 N 2974.11 4.08981 4.11965 0
M  V30 28530 H 2976.87 2.99027 0.200748 0
M  V30 28531 H 2974.44 1.61857 -0.0371798 0
M  V30 28532 H 2976.43 2.98576 2.73193 0
M  V30 28533 H 2975 1.96746 2.42919 0
M  V30 28534 H 2974.22 3.85701 0.814165 0
M  V30 28535 H 2975.51 4.8607 1.50377 0
M  V30 28536 H 2974.9 3.55164 4.40313 0
M  V30 28537 H 2973.46 4.38423 4.82316 0
M  V30 28538 N 2976.89 -0.0551124 1.57504 0
M  V30 28539 C 2978.12 -0.767318 1.92684 0
M  V30 28540 C 2978.54 -1.69471 0.81617 0
M  V30 28541 O 2977.9 -1.79836 -0.229957 0
M  V30 28542 C 2977.95 -1.5228 3.26869 0
M  V30 28543 O 2977.05 -2.63454 3.17279 0
M  V30 28544 H 2976.39 -0.208227 0.630506 0
M  V30 28545 H 2978.92 -0.0183666 2.04592 0
M  V30 28546 H 2978.93 -1.89844 3.61142 0
M  V30 28547 H 2977.61 -0.84247 4.07278 0
M  V30 28548 H 2976.19 -2.28624 2.94593 0
M  V30 28549 N 2978.37 -1.54173 -0.326869 0
M  V30 28550 C 2979.62 -1.7222 -1.0652 0
M  V30 28551 C 2979.95 -0.494147 -1.88118 0
M  V30 28552 O 2979.2 0.524114 -1.88551 0
M  V30 28553 C 2979.5 -2.94789 -2.02075 0
M  V30 28554 C 2979.17 -4.29692 -1.36658 0
M  V30 28555 C 2977.83 -4.66369 -1.18547 0
M  V30 28556 C 2980.18 -5.13427 -0.896778 0
M  V30 28557 C 2977.51 -5.84382 -0.52101 0
M  V30 28558 C 2979.86 -6.32121 -0.24615 0
M  V30 28559 C 2978.52 -6.67479 -0.0528697 0
M  V30 28560 H 2977.79 -0.630197 -0.389785 0
M  V30 28561 H 2980.44 -1.88409 -0.342692 0
M  V30 28562 H 2978.75 -2.73273 -2.80765 0
M  V30 28563 H 2980.44 -3.05946 -2.59226 0
M  V30 28564 H 2977.03 -4.00835 -1.51755 0
M  V30 28565 H 2981.22 -4.85611 -1.02449 0
M  V30 28566 H 2976.47 -6.10339 -0.360032 0
M  V30 28567 H 2980.65 -6.96286 0.125898 0
M  V30 28568 H 2978.27 -7.58782 0.464037 0
M  V30 28569 N 2979.85 0.58876 -1.4619 0
M  V30 28570 C 2981.09 1.3583 -1.5274 0
M  V30 28571 C 2981.45 1.91224 -0.172437 0
M  V30 28572 O 2982.65 2.68564 -0.11268 0
M  V30 28573 C 2980.93 2.46185 -2.5909 0
M  V30 28574 S 2982.48 3.33645 -2.85002 0
M  V30 28575 H 2979.3 0.462841 -0.539721 0
M  V30 28576 H 2981.9 0.677457 -1.83387 0
M  V30 28577 H 2980.61 2.03871 -3.56181 0
M  V30 28578 H 2980.14 3.19049 -2.30156 0
M  V30 28579 H 2982.15 4.44856 -2.19812 0
M  V30 28580 N 2981.33 1.33794 0.832883 0
M  V30 28581 C 2982.57 1.25589 1.58851 0
M  V30 28582 C 2982.9 -0.176773 1.93695 0
M  V30 28583 O 2982.16 -1.13551 1.59388 0
M  V30 28584 C 2982.46 2.0824 2.90467 0
M  V30 28585 C 2982.12 3.57363 2.74959 0
M  V30 28586 C 2980.78 3.98017 2.70437 0
M  V30 28587 C 2983.14 4.52098 2.59339 0
M  V30 28588 C 2980.46 5.31613 2.48203 0
M  V30 28589 C 2982.82 5.85862 2.38638 0
M  V30 28590 C 2981.48 6.25691 2.32522 0
M  V30 28591 H 2980.75 0.459563 0.581277 0
M  V30 28592 H 2983.4 1.65439 0.964472 0
M  V30 28593 H 2981.7 1.61186 3.57108 0
M  V30 28594 H 2983.4 1.99245 3.47998 0
M  V30 28595 H 2979.99 3.25088 2.79314 0
M  V30 28596 H 2984.17 4.21594 2.61863 0
M  V30 28597 H 2979.43 5.61503 2.41919 0
M  V30 28598 H 2983.6 6.58867 2.25537 0
M  V30 28599 H 2981.23 7.29147 2.15055 0
M  V30 28600 N 2982.81 -1.05187 1.1736 0
M  V30 28601 C 2984.03 -1.81864 0.986561 0
M  V30 28602 C 2984.45 -1.82979 -0.465187 0
M  V30 28603 O 2983.81 -1.25707 -1.32303 0
M  V30 28604 C 2983.86 -3.27979 1.52027 0
M  V30 28605 O 2983.58 -3.27032 2.91517 0
M  V30 28606 C 2985.08 -4.21344 1.37782 0
M  V30 28607 H 2982.3 -0.573078 0.349031 0
M  V30 28608 H 2984.84 -1.3264 1.5565 0
M  V30 28609 H 2983 -3.74474 0.992353 0
M  V30 28610 H 2983.41 -4.18482 3.16185 0
M  V30 28611 H 2984.89 -5.21849 1.79939 0
M  V30 28612 H 2985.36 -4.37997 0.324907 0
M  V30 28613 H 2985.97 -3.80704 1.8959 0
M  V30 28614 N 2984.28 -0.97385 -1.23911 0
M  V30 28615 C 2985.7 -0.681389 -1.44323 0
M  V30 28616 C 2985.9 0.754695 -1.86833 0
M  V30 28617 O 2984.96 1.52789 -2.01027 0
M  V30 28618 C 2986.27 -1.67073 -2.50014 0
M  V30 28619 C 2987.82 -1.68404 -2.63835 0
M  V30 28620 C 2988.29 -2.66152 -3.72729 0
M  V30 28621 N 2989.78 -2.64631 -3.80164 0
M  V30 28622 C 2990.52 -3.36935 -4.63964 0
M  V30 28623 N 2990.01 -4.18777 -5.51904 0
M  V30 28624 N 2991.81 -3.25731 -4.581 0
M  V30 28625 H 2983.96 -1.90161 -0.946171 0
M  V30 28626 H 2986.22 -0.819043 -0.477359 0
M  V30 28627 H 2985.93 -2.69742 -2.25681 0
M  V30 28628 H 2985.8 -1.44837 -3.48285 0
M  V30 28629 H 2988.19 -0.664429 -2.87523 0
M  V30 28630 H 2988.27 -1.94705 -1.65902 0
M  V30 28631 H 2987.91 -3.68251 -3.49791 0
M  V30 28632 H 2987.84 -2.37128 -4.70189 0
M  V30 28633 H 2990.33 -2.0523 -3.17315 0
M  V30 28634 H 2990.65 -4.7082 -6.1282 0
M  V30 28635 H 2988.99 -4.2287 -5.51549 0
M  V30 28636 H 2992.18 -2.61249 -3.88415 0
M  V30 28637 H 2992.36 -3.82342 -5.23181 0
M  V30 28638 N 2985.76 1.38895 -0.744705 0
M  V30 28639 C 2987.01 2.00311 -0.296919 0
M  V30 28640 C 2987.34 1.59104 1.11875 0
M  V30 28641 O 2986.59 0.815734 1.77888 0
M  V30 28642 C 2986.89 3.55609 -0.357364 0
M  V30 28643 C 2986.56 4.16498 -1.72743 0
M  V30 28644 C 2985.22 4.32843 -2.1024 0
M  V30 28645 C 2987.57 4.5018 -2.62655 0
M  V30 28646 C 2984.9 4.80161 -3.37138 0
M  V30 28647 C 2987.25 4.98911 -3.88935 0
M  V30 28648 C 2985.91 5.13463 -4.26512 0
M  V30 28649 H 2985.18 0.732991 -0.10865 0
M  V30 28650 H 2987.83 1.66077 -0.953448 0
M  V30 28651 H 2986.14 3.89926 0.382736 0
M  V30 28652 H 2987.83 4.00999 0.00738911 0
M  V30 28653 H 2984.42 4.04185 -1.42592 0
M  V30 28654 H 2988.61 4.37162 -2.34953 0
M  V30 28655 H 2983.86 4.89613 -3.66182 0
M  V30 28656 H 2988.04 5.23944 -4.58754 0
M  V30 28657 H 2985.66 5.49889 -5.24906 0
M  V30 28658 N 2987.24 0.493084 1.49688 0
M  V30 28659 C 2988.15 -0.294317 2.32747 0
M  V30 28660 C 2989.17 -0.974977 1.44119 0
M  V30 28661 O 2990.34 -0.958107 1.7715 0
M  V30 28662 C 2987.41 -1.34943 3.19361 0
M  V30 28663 C 2986.47 -0.683048 4.23831 0
M  V30 28664 C 2985.7 -1.68789 5.06306 0
M  V30 28665 O 2985.92 -2.91689 4.90177 0
M  V30 28666 O 2984.86 -1.24757 5.88829 0
M  V30 28667 H 2988.68 0.385307 3.01246 0
M  V30 28668 H 2986.27 0.254545 1.47216 0
M  V30 28669 H 2988.15 -1.96008 3.7304 0
M  V30 28670 H 2986.83 -2.01213 2.53565 0
M  V30 28671 H 2985.73 -0.0328693 3.74086 0
M  V30 28672 H 2987.07 -0.0629327 4.9216 0
M  V30 28673 N 2988.72 -1.55963 0.226582 0
M  V30 28674 C 2989.68 -2.1925 -0.667976 0
M  V30 28675 C 2990.68 -1.15582 -1.11792 0
M  V30 28676 O 2991.87 -1.40786 -1.02591 0
M  V30 28677 C 2989 -2.81985 -1.91566 0
M  V30 28678 H 2990.2 -2.99675 -0.116122 0
M  V30 28679 H 2987.75 -1.56283 -0.0230222 0
M  V30 28680 H 2988.48 -2.05444 -2.50925 0
M  V30 28681 H 2988.27 -3.57905 -1.60144 0
M  V30 28682 H 2989.76 -3.30481 -2.55288 0
M  V30 28683 N 2990.2 0.0467589 -1.57531 0
M  V30 28684 C 2991.44 0.739623 -1.8808 0
M  V30 28685 C 2991.77 1.7683 -0.821967 0
M  V30 28686 O 2991.04 1.95351 0.146548 0
M  V30 28687 H 2989.62 0.276157 -0.694079 0
M  V30 28688 H 2992.28 0.0169048 -1.94893 0
M  V30 28689 H 2991.37 1.24026 -2.86398 0
M  V30 28690 N 2991.67 1.54344 0.318688 0
M  V30 28691 C 2992.62 1.84068 1.39239 0
M  V30 28692 C 2993.59 0.68816 1.51174 0
M  V30 28693 O 2994.78 0.935068 1.66316 0
M  V30 28694 C 2991.92 2.07799 2.75525 0
M  V30 28695 C 2991.03 3.35472 2.72182 0
M  V30 28696 C 2990.16 3.49137 4.00346 0
M  V30 28697 C 2989.2 4.70667 3.9133 0
M  V30 28698 N 2988.34 4.81233 5.11233 0
M  V30 28699 H 2993.18 2.75666 1.13191 0
M  V30 28700 H 2990.72 1.36518 0.547833 0
M  V30 28701 H 2992.68 2.1955 3.54759 0
M  V30 28702 H 2991.31 1.19487 2.99871 0
M  V30 28703 H 2990.36 3.32434 1.84911 0
M  V30 28704 H 2991.67 4.24817 2.61404 0
M  V30 28705 H 2990.82 3.60456 4.88012 0
M  V30 28706 H 2989.56 2.57893 4.13935 0
M  V30 28707 H 2988.57 4.59399 3.02047 0
M  V30 28708 H 2989.79 5.63301 3.793 0
M  V30 28709 H 2987.74 3.92906 5.2532 0
M  V30 28710 H 2987.66 5.64551 5.0281 0
M  V30 28711 H 2988.92 4.96889 6.00601 0
M  V30 28712 N 2993.15 -0.580999 1.465 0
M  V30 28713 C 2994.39 -1.35018 1.53459 0
M  V30 28714 C 2994.76 -1.9113 0.182575 0
M  V30 28715 O 2995.96 -2.685 0.126921 0
M  V30 28716 C 2994.23 -2.44808 2.60392 0
M  V30 28717 S 2995.79 -3.32129 2.86768 0
M  V30 28718 H 2992.61 -0.459972 0.542168 0
M  V30 28719 H 2995.21 -0.667722 1.83744 0
M  V30 28720 H 2993.91 -2.01979 3.57257 0
M  V30 28721 H 2993.44 -3.17823 2.31844 0
M  V30 28722 H 2995.46 -4.43684 2.22168 0
M  V30 28723 N 2994.63 -1.34234 -0.825776 0
M  V30 28724 C 2995.86 -1.29651 -1.61881 0
M  V30 28725 C 2996.28 0.127262 -1.87669 0
M  V30 28726 O 2995.64 1.0881 -1.45017 0
M  V30 28727 C 2995.69 -2.0902 -2.93842 0
M  V30 28728 O 2994.79 -1.45776 -3.85776 0
M  V30 28729 H 2994.13 -0.445413 -0.492446 0
M  V30 28730 H 2996.66 -1.76993 -1.02638 0
M  V30 28731 H 2996.67 -2.2027 -3.43431 0
M  V30 28732 H 2995.35 -3.12538 -2.74396 0
M  V30 28733 H 2993.92 -1.43251 -3.44287 0
M  V30 28734 N 2996.11 1.04563 -1.17917 0
M  V30 28735 C 2997.35 1.7794 -0.972894 0
M  V30 28736 C 2997.69 1.8774 0.49672 0
M  V30 28737 O 2996.96 1.38183 1.36878 0
M  V30 28738 C 2997.25 3.21485 -1.62232 0
M  V30 28739 C 2997.1 3.19659 -3.16446 0
M  V30 28740 C 2998.42 4.19477 -1.33144 0
M  V30 28741 H 2995.54 0.645947 -0.354854 0
M  V30 28742 H 2998.18 1.22176 -1.4551 0
M  V30 28743 H 2996.33 3.69101 -1.21231 0
M  V30 28744 H 2998 2.80071 -3.66549 0
M  V30 28745 H 2996.24 2.57826 -3.48867 0
M  V30 28746 H 2996.91 4.21 -3.5702 0
M  V30 28747 H 2999.39 3.80385 -1.68661 0
M  V30 28748 H 2998.27 5.18143 -1.8116 0
M  V30 28749 H 2998.53 4.41373 -0.253396 0
M  V30 28750 N 2997.59 0.980408 1.23393 0
M  V30 28751 C 2999 0.68627 1.7363 0
M  V30 28752 C 2999.35 -0.79751 1.7926 0
M  V30 28753 O 2998.47 -1.62376 1.43049 0
M  V30 28754 C 2999.07 1.23905 3.1533 0
M  V30 28755 C 2997.63 0.994557 3.63023 0
M  V30 28756 C 2996.77 1.36677 2.41277 0
M  V30 28757 H 2999.73 1.15425 1.08916 0
M  V30 28758 H 2999.75 0.61148 3.75554 0
M  V30 28759 H 2999.26 2.31897 3.112 0
M  V30 28760 H 2997.36 -0.0692837 3.72536 0
M  V30 28761 H 2997.47 1.64914 4.49822 0
M  V30 28762 H 2995.84 0.785237 2.42293 0
M  V30 28763 H 2996.62 2.45647 2.39818 0
M  V30 28764 N 2999.06 -1.38498 0.75206 0
M  V30 28765 C 3000.01 -2.3047 0.123328 0
M  V30 28766 C 3000.98 -1.50099 -0.711299 0
M  V30 28767 O 3002.17 -1.78734 -0.667743 0
M  V30 28768 C 2999.31 -3.36514 -0.765026 0
M  V30 28769 C 2998.42 -4.31918 0.0840645 0
M  V30 28770 C 2997.55 -5.25032 -0.807151 0
M  V30 28771 C 2996.59 -6.12083 0.0456659 0
M  V30 28772 N 2995.73 -6.975 -0.802424 0
M  V30 28773 H 3000.57 -2.83662 0.913219 0
M  V30 28774 H 2998.11 -1.39657 0.461974 0
M  V30 28775 H 3000.07 -3.96602 -1.29469 0
M  V30 28776 H 2998.7 -2.84735 -1.52072 0
M  V30 28777 H 2997.75 -3.73304 0.731342 0
M  V30 28778 H 2999.06 -4.93239 0.742737 0
M  V30 28779 H 2998.21 -5.9023 -1.40404 0
M  V30 28780 H 2996.95 -4.64074 -1.49956 0
M  V30 28781 H 2995.96 -5.45882 0.655233 0
M  V30 28782 H 2997.18 -6.7511 0.735113 0
M  V30 28783 H 2995.13 -6.39091 -1.47981 0
M  V30 28784 H 2995.05 -7.55734 -0.200614 0
M  V30 28785 H 2996.31 -7.67109 -1.38433 0
M  V30 28786 N 3000.54 -0.501015 -1.49424 0
M  V30 28787 C 3001.51 0.266376 -2.27647 0
M  V30 28788 C 3002.51 0.893938 -1.33661 0
M  V30 28789 O 3003.7 0.758468 -1.56821 0
M  V30 28790 C 3000.83 1.38222 -3.11621 0
M  V30 28791 H 3002.02 -0.420025 -2.96944 0
M  V30 28792 H 2999.57 -0.255982 -1.5419 0
M  V30 28793 H 3000.31 2.10277 -2.46889 0
M  V30 28794 H 3000.09 0.937679 -3.80723 0
M  V30 28795 H 3001.58 1.92277 -3.70701 0
M  V30 28796 N 3002.02 1.5584 -0.234849 0
M  V30 28797 C 3003.27 1.98645 0.393225 0
M  V30 28798 C 3003.6 1.12277 1.58821 0
M  V30 28799 O 3002.85 0.170765 1.94954 0
M  V30 28800 C 3003.15 3.46949 0.857971 0
M  V30 28801 C 3002.82 4.50323 -0.227938 0
M  V30 28802 C 3001.48 4.78314 -0.526212 0
M  V30 28803 C 3003.83 5.12251 -0.961666 0
M  V30 28804 C 3001.16 5.65511 -1.5625 0
M  V30 28805 C 3003.51 6.00571 -1.98739 0
M  V30 28806 C 3002.17 6.269 -2.29244 0
M  V30 28807 H 3001.44 0.726895 0.143891 0
M  V30 28808 H 3004.09 1.88455 -0.340153 0
M  V30 28809 H 3002.4 3.5441 1.67034 0
M  V30 28810 H 3004.09 3.77449 1.35401 0
M  V30 28811 H 3000.68 4.28597 0.014687 0
M  V30 28812 H 3004.87 4.90684 -0.744474 0
M  V30 28813 H 3000.12 5.8417 -1.80432 0
M  V30 28814 H 3004.3 6.47603 -2.56091 0
M  V30 28815 H 3001.92 6.94262 -3.09683 0
M  V30 28816 N 3003.5 -0.038404 1.57553 0
M  V30 28817 C 3004.45 -1.0604 2.07023 0
M  V30 28818 C 3005.44 -1.38026 0.982102 0
M  V30 28819 O 3006.65 -1.3704 1.16704 0
M  V30 28820 H 3003.02 -0.359452 0.660529 0
M  V30 28821 H 3004.99 -0.617288 2.91945 0
M  V30 28822 C 3003.74 -2.3557 2.55738 0
M  V30 28823 H 3003.07 -2.11816 3.39078 0
M  V30 28824 H 3004.51 -3.05447 2.94072 0
M  V30 28825 C 3002.96 -3.03882 1.45455 0
M  V30 28826 O 3003.49 -3.93336 0.815471 0
M  V30 28827 N 3001.7 -2.65055 1.19139 0
M  V30 28828 H 3001.25 -1.92398 1.71291 0
M  V30 28829 H 3001.21 -3.11081 0.455609 0
M  V30 28830 N 3004.98 -1.54511 -0.310498 0
M  V30 28831 C 3006.21 -1.7732 -1.06608 0
M  V30 28832 C 3006.62 -0.528075 -1.81264 0
M  V30 28833 O 3005.98 0.501749 -1.75467 0
M  V30 28834 C 3006.03 -2.97475 -2.05403 0
M  V30 28835 O 3005.75 -4.17175 -1.33777 0
M  V30 28836 C 3007.25 -3.32598 -2.93076 0
M  V30 28837 H 3004.47 -0.59163 -0.316568 0
M  V30 28838 H 3007.01 -2.01436 -0.352656 0
M  V30 28839 H 3005.17 -2.75595 -2.72261 0
M  V30 28840 H 3005.58 -4.84852 -2.00046 0
M  V30 28841 H 3007.06 -4.19939 -3.58267 0
M  V30 28842 H 3007.53 -2.50335 -3.60872 0
M  V30 28843 H 3008.14 -3.56604 -2.31762 0
M  V30 28844 N 3006.46 0.573222 -1.46806 0
M  V30 28845 C 3007.68 1.35688 -1.56194 0
M  V30 28846 C 3008.1 1.87668 -0.206395 0
M  V30 28847 O 3007.46 1.64136 0.797855 0
M  V30 28848 C 3007.51 2.53787 -2.57438 0
M  V30 28849 O 3007.23 2.03958 -3.87728 0
M  V30 28850 C 3008.73 3.46215 -2.76857 0
M  V30 28851 H 3005.95 0.414183 -0.527914 0
M  V30 28852 H 3008.49 0.695956 -1.92293 0
M  V30 28853 H 3006.65 3.1585 -2.24316 0
M  V30 28854 H 3007.06 2.8094 -4.42914 0
M  V30 28855 H 3008.54 4.25539 -3.51598 0
M  V30 28856 H 3009.01 3.98752 -1.84103 0
M  V30 28857 H 3009.62 2.89981 -3.11113 0
M  V30 28858 N 3007.93 1.3467 0.818645 0
M  V30 28859 C 3008.88 1.26599 1.9298 0
M  V30 28860 C 3009.85 0.140345 1.65506 0
M  V30 28861 O 3011.04 0.322038 1.88063 0
M  V30 28862 C 3008.18 1.03169 3.29318 0
M  V30 28863 C 3007.29 2.24546 3.69057 0
M  V30 28864 C 3006.42 1.94364 4.94364 0
M  V30 28865 C 3005.46 3.1186 5.26697 0
M  V30 28866 N 3004.6 2.81534 6.43182 0
M  V30 28867 H 3009.44 2.21624 1.99216 0
M  V30 28868 H 3006.98 1.10182 0.974593 0
M  V30 28869 H 3008.93 0.876201 4.07895 0
M  V30 28870 H 3007.56 0.118102 3.22584 0
M  V30 28871 H 3006.62 2.51 2.85838 0
M  V30 28872 H 3007.93 3.12319 3.88919 0
M  V30 28873 H 3007.08 1.75576 5.80739 0
M  V30 28874 H 3005.82 1.03857 4.76514 0
M  V30 28875 H 3004.83 3.31239 4.38817 0
M  V30 28876 H 3006.05 4.03152 5.46484 0
M  V30 28877 H 3004 1.93607 6.26779 0
M  V30 28878 H 3003.91 3.6284 6.63237 0
M  V30 28879 H 3005.18 2.6626 7.32616 0
M  V30 28880 N 3009.41 -1.03936 1.1847 0
M  V30 28881 C 3010.64 -1.80808 1.00579 0
M  V30 28882 C 3011.05 -1.83462 -0.445754 0
M  V30 28883 O 3010.41 -1.27103 -1.30962 0
M  V30 28884 C 3010.46 -3.26348 1.55497 0
M  V30 28885 O 3010.18 -3.23921 2.94969 0
M  V30 28886 C 3011.68 -4.19859 1.42243 0
M  V30 28887 H 3008.9 -0.569344 0.35509 0
M  V30 28888 H 3011.45 -1.30982 1.57048 0
M  V30 28889 H 3009.6 -3.73401 1.03202 0
M  V30 28890 H 3010.02 -4.15105 3.20606 0
M  V30 28891 H 3011.49 -5.19911 1.85464 0
M  V30 28892 H 3011.97 -4.37627 0.371344 0
M  V30 28893 H 3012.57 -3.78672 1.93617 0
M  V30 28894 N 3010.89 -0.986938 -1.22871 0
M  V30 28895 C 3012.31 -0.696658 -1.43593 0
M  V30 28896 C 3012.51 0.734836 -1.87623 0
M  V30 28897 O 3011.56 1.50649 -2.02636 0
M  V30 28898 C 3012.87 -1.69715 -2.48228 0
M  V30 28899 C 3014.42 -1.71193 -2.62034 0
M  V30 28900 C 3014.9 -2.7009 -3.69886 0
M  V30 28901 N 3016.39 -2.68648 -3.77336 0
M  V30 28902 C 3017.12 -3.41837 -4.60364 0
M  V30 28903 N 3016.62 -4.24607 -5.47431 0
M  V30 28904 N 3018.41 -3.30571 -4.5462 0
M  V30 28905 H 3010.56 -1.91154 -0.925949 0
M  V30 28906 H 3012.83 -0.82406 -0.468645 0
M  V30 28907 H 3012.53 -2.72121 -2.22808 0
M  V30 28908 H 3012.41 -1.48522 -3.46729 0
M  V30 28909 H 3014.79 -0.694887 -2.86802 0
M  V30 28910 H 3014.87 -1.96454 -1.63828 0
M  V30 28911 H 3014.52 -3.7194 -3.45866 0
M  V30 28912 H 3014.45 -2.42101 -4.67648 0
M  V30 28913 H 3016.94 -2.08584 -3.15121 0
M  V30 28914 H 3017.25 -4.77293 -6.07792 0
M  V30 28915 H 3015.6 -4.28696 -5.47033 0
M  V30 28916 H 3018.79 -2.65354 -3.85623 0
M  V30 28917 H 3018.96 -3.8787 -5.19097 0
M  V30 28918 N 3012.37 1.38098 -0.759394 0
M  V30 28919 C 3013.61 2.01829 -0.323152 0
M  V30 28920 C 3013.97 1.58979 1.07655 0
M  V30 28921 O 3015.17 2.15083 1.61223 0
M  V30 28922 C 3013.44 3.54577 -0.448296 0
M  V30 28923 S 3015 4.38696 -0.0954923 0
M  V30 28924 H 3011.82 0.699921 -0.125026 0
M  V30 28925 H 3014.42 1.68504 -0.991291 0
M  V30 28926 H 3013.13 3.83252 -1.46785 0
M  V30 28927 H 3012.66 3.92687 0.236826 0
M  V30 28928 H 3014.67 4.83556 1.11303 0
M  V30 28929 N 3013.85 0.508932 1.49156 0
M  V30 28930 C 3015.09 -0.0310263 2.04376 0
M  V30 28931 C 3015.45 -1.33545 1.37948 0
M  V30 28932 O 3016.65 -1.96014 1.83935 0
M  V30 28933 C 3014.92 -0.172128 3.56985 0
M  V30 28934 S 3016.48 -0.665191 4.33729 0
M  V30 28935 H 3013.3 0.00200515 0.710997 0
M  V30 28936 H 3015.9 0.684706 1.83118 0
M  V30 28937 H 3014.6 0.782411 4.02873 0
M  V30 28938 H 3014.14 -0.912866 3.82662 0
M  V30 28939 H 3016.15 -1.93312 4.56996 0
M  V30 28940 N 3015.32 -1.55714 0.243111 0
M  V30 28941 C 3016.56 -2.00755 -0.384268 0
M  V30 28942 C 3016.93 -1.12754 -1.55404 0
M  V30 28943 O 3018.13 -1.47235 -2.24889 0
M  V30 28944 C 3016.4 -3.48619 -0.787357 0
M  V30 28945 S 3017.96 -4.15671 -1.4058 0
M  V30 28946 H 3014.78 -0.700615 -0.121076 0
M  V30 28947 H 3017.38 -1.92204 0.357456 0
M  V30 28948 H 3016.08 -4.10334 0.0733613 0
M  V30 28949 H 3015.61 -3.61089 -1.56136 0
M  V30 28950 H 3017.63 -4.16644 -2.69486 0
M  V30 28951 N 3016.8 0.030048 -1.57571 0
M  V30 28952 C 3018.03 0.736567 -1.9388 0
M  V30 28953 C 3018.45 1.68151 -0.843028 0
M  V30 28954 O 3017.81 1.80179 0.201318 0
M  V30 28955 C 3017.86 1.47061 -3.2925 0
M  V30 28956 O 3016.96 2.58373 -3.2143 0
M  V30 28957 H 3016.3 0.19817 -0.633739 0
M  V30 28958 H 3018.83 -0.0141845 -2.04595 0
M  V30 28959 H 3018.84 1.84074 -3.64116 0
M  V30 28960 H 3017.52 0.777569 -4.08567 0
M  V30 28961 H 3016.1 2.23909 -2.98193 0
M  V30 28962 N 3018.28 1.54674 0.3023 0
M  V30 28963 C 3019.23 1.85535 1.37279 0
M  V30 28964 C 3020.2 0.704156 1.50436 0
M  V30 28965 O 3021.38 0.952656 1.65315 0
M  V30 28966 C 3018.52 2.10709 2.73305 0
M  V30 28967 C 3017.64 3.3834 2.68608 0
M  V30 28968 C 3016.77 3.53364 3.9662 0
M  V30 28969 C 3015.81 4.74791 3.86315 0
M  V30 28970 N 3014.95 4.86628 5.061 0
M  V30 28971 H 3019.79 2.76851 1.10261 0
M  V30 28972 H 3017.32 1.37092 0.533322 0
M  V30 28973 H 3019.28 2.233 3.5241 0
M  V30 28974 H 3017.91 1.22661 2.98587 0
M  V30 28975 H 3016.96 3.34376 1.81375 0
M  V30 28976 H 3018.28 4.27566 2.56883 0
M  V30 28977 H 3017.43 3.65612 4.84162 0
M  V30 28978 H 3016.17 2.62269 4.11177 0
M  V30 28979 H 3015.17 4.62577 2.97157 0
M  V30 28980 H 3016.4 5.67292 3.73305 0
M  V30 28981 H 3014.34 3.98455 5.21123 0
M  V30 28982 H 3014.26 5.69853 4.96794 0
M  V30 28983 H 3015.53 5.03231 5.95297 0
M  V30 28984 N 3019.76 -0.565428 1.47108 0
M  V30 28985 C 3021.17 -0.890543 1.32444 0
M  V30 28986 C 3021.37 -1.9912 0.30877 0
M  V30 28987 O 3020.43 -2.50914 -0.282606 0
M  V30 28988 C 3021.74 -1.29155 2.7155 0
M  V30 28989 C 3023.29 -1.40344 2.79773 0
M  V30 28990 C 3023.77 -1.83803 4.195 0
M  V30 28991 N 3025.26 -1.90968 4.22002 0
M  V30 28992 C 3025.99 -2.25906 5.27024 0
M  V30 28993 N 3025.49 -2.59516 6.42358 0
M  V30 28994 N 3027.28 -2.2661 5.14397 0
M  V30 28995 H 3019.43 0.161365 2.11786 0
M  V30 28996 H 3021.7 0.00952297 0.947952 0
M  V30 28997 H 3021.4 -0.556692 3.47266 0
M  V30 28998 H 3021.28 -2.24946 3.02786 0
M  V30 28999 H 3023.66 -2.12912 2.04334 0
M  V30 29000 H 3023.74 -0.427611 2.52201 0
M  V30 29001 H 3023.39 -1.11807 4.95441 0
M  V30 29002 H 3023.32 -2.82374 4.44491 0
M  V30 29003 H 3025.81 -1.67414 3.38793 0
M  V30 29004 H 3026.12 -2.85179 7.18257 0
M  V30 29005 H 3024.47 -2.57115 6.45691 0
M  V30 29006 H 3027.66 -1.99786 4.23324 0
M  V30 29007 H 3027.83 -2.53509 5.96353 0
M  V30 29008 N 3021.24 -1.35102 -0.811492 0
M  V30 29009 C 3022.65 -1.25185 -1.38513 0
M  V30 29010 C 3023 0.117849 -1.95846 0
M  V30 29011 O 3022.12 1.01863 -1.90926 0
M  V30 29012 C 3022.72 -2.26666 -2.51809 0
M  V30 29013 C 3021.28 -2.20505 -3.05049 0
M  V30 29014 C 3020.42 -2.12644 -1.77983 0
M  V30 29015 H 3023.38 -1.46302 -0.614933 0
M  V30 29016 H 3023.4 -1.89029 -3.30224 0
M  V30 29017 H 3022.91 -3.26344 -2.10051 0
M  V30 29018 H 3021.01 -1.24222 -3.51283 0
M  V30 29019 H 3021.12 -3.12257 -3.63363 0
M  V30 29020 H 3019.49 -1.58544 -1.99339 0
M  V30 29021 H 3020.27 -3.14174 -1.38383 0
M  V30 29022 N 3022.71 1.03306 -1.19019 0
M  V30 29023 C 3023.96 1.76287 -0.988289 0
M  V30 29024 C 3024.28 1.88936 0.482524 0
M  V30 29025 O 3023.55 1.41989 1.34966 0
M  V30 29026 H 3022.13 0.653048 -0.362681 0
M  V30 29027 H 3024.8 1.24638 -1.49838 0
M  V30 29028 H 3023.89 2.77269 -1.43278 0
M  V30 29029 N 3024.19 0.99344 1.22346 0
M  V30 29030 C 3025.1 0.553116 2.27986 0
M  V30 29031 C 3026.12 -0.398357 1.69379 0
M  V30 29032 O 3027.29 -0.265055 1.99648 0
M  V30 29033 C 3024.36 -0.124748 3.46475 0
M  V30 29034 C 3023.42 0.869756 4.20397 0
M  V30 29035 C 3022.65 0.224146 5.33229 0
M  V30 29036 O 3022.88 -0.981816 5.61887 0
M  V30 29037 O 3021.81 0.929278 5.94683 0
M  V30 29038 H 3025.64 1.432 2.6782 0
M  V30 29039 H 3023.22 0.761716 1.28523 0
M  V30 29040 H 3025.1 -0.504422 4.1837 0
M  V30 29041 H 3023.78 -0.978189 3.08566 0
M  V30 29042 H 3022.69 1.30037 3.50772 0
M  V30 29043 H 3024.02 1.69242 4.62188 0
M  V30 29044 N 3025.67 -1.37693 0.766707 0
M  V30 29045 C 3026.92 -1.99419 0.3281 0
M  V30 29046 C 3027.24 -1.61168 -1.09772 0
M  V30 29047 O 3026.51 -0.874717 -1.75287 0
M  V30 29048 H 3025.09 -0.737569 0.118323 0
M  V30 29049 H 3027.75 -1.68253 0.983715 0
M  V30 29050 H 3026.85 -3.09504 0.401701 0
M  V30 29051 N 3027.15 -0.516835 -1.48884 0
M  V30 29052 C 3028.39 0.0139868 -2.03395 0
M  V30 29053 C 3028.75 1.33227 -1.3881 0
M  V30 29054 O 3028.04 1.84405 -0.520136 0
M  V30 29055 C 3028.24 0.206735 -3.56802 0
M  V30 29056 C 3028.07 -1.09131 -4.36257 0
M  V30 29057 C 3026.84 -1.64754 -4.77686 0
M  V30 29058 C 3029.03 -1.99863 -4.73877 0
M  V30 29059 N 3027.02 -2.88984 -5.41628 0
M  V30 29060 C 3028.39 -3.0867 -5.37701 0
M  V30 29061 C 3030.44 -2.00349 -4.55812 0
M  V30 29062 C 3029.14 -4.18011 -5.85371 0
M  V30 29063 C 3031.17 -3.08675 -5.04454 0
M  V30 29064 C 3030.53 -4.16201 -5.68292 0
M  V30 29065 H 3026.63 -0.0360558 -0.781168 0
M  V30 29066 H 3029.22 -0.695205 -1.81865 0
M  V30 29067 H 3027.39 0.884998 -3.78183 0
M  V30 29068 H 3029.12 0.735983 -3.97951 0
M  V30 29069 H 3025.87 -1.19062 -4.5839 0
M  V30 29070 H 3026.3 -3.52198 -5.78175 0
M  V30 29071 H 3030.94 -1.18518 -4.05849 0
M  V30 29072 H 3028.66 -5.00629 -6.34347 0
M  V30 29073 H 3032.24 -3.1009 -4.92276 0
M  V30 29074 H 3031.12 -4.98642 -6.05248 0
M  V30 29075 N 3028.63 1.55583 -0.251365 0
M  V30 29076 C 3029.87 1.98658 0.371399 0
M  V30 29077 C 3030.2 1.1409 1.58141 0
M  V30 29078 O 3029.47 0.224742 1.94607 0
M  V30 29079 H 3028.05 0.733723 0.140212 0
M  V30 29080 H 3030.71 1.9171 -0.351191 0
M  V30 29081 H 3029.8 3.04658 0.677501 0
M  V30 29082 N 3030.1 -0.0216912 1.57585 0
M  V30 29083 C 3031.38 -0.746838 1.80781 0
M  V30 29084 C 3031.76 -1.93178 0.851197 0
M  V30 29085 O 3031.11 -2.28259 -0.104999 0
M  V30 29086 C 3031.32 -1.17296 3.28698 0
M  V30 29087 C 3032.67 -1.58582 3.93874 0
M  V30 29088 O 3033.69 -1.26734 3.32892 0
M  V30 29089 O 3032.55 -2.17722 5.01258 0
M  V30 29090 H 3029.64 -0.361773 0.743673 0
M  V30 29091 H 3032.19 0.00209768 1.697 0
M  V30 29092 H 3030.96 -0.327385 3.89928 0
M  V30 29093 H 3030.59 -1.98168 3.44696 0
M  V30 29094 N 3031.58 -1.54832 -0.294093 0
M  V30 29095 C 3032.99 -1.65368 -0.866622 0
M  V30 29096 C 3033.35 -0.566843 -1.87833 0
M  V30 29097 O 3032.47 0.295351 -2.14375 0
M  V30 29098 C 3033.07 -2.99774 -1.57864 0
M  V30 29099 C 3031.62 -3.12408 -2.09948 0
M  V30 29100 C 3030.77 -2.61081 -0.934446 0
M  V30 29101 H 3033.72 -1.58541 -0.0709273 0
M  V30 29102 H 3033.74 -2.91584 -2.44457 0
M  V30 29103 H 3033.26 -3.78855 -0.842053 0
M  V30 29104 H 3031.36 -2.3806 -2.86632 0
M  V30 29105 H 3031.47 -4.18667 -2.32927 0
M  V30 29106 H 3029.83 -2.17707 -1.32195 0
M  V30 29107 H 3030.62 -3.42647 -0.211708 0
M  V30 29108 N 3033.06 0.557619 -1.47405 0
M  V30 29109 C 3034.3 1.32559 -1.55587 0
M  V30 29110 C 3034.67 1.90815 -0.212959 0
M  V30 29111 O 3035.87 2.68264 -0.169621 0
M  V30 29112 C 3034.14 2.40634 -2.64253 0
M  V30 29113 S 3035.7 3.27525 -2.92015 0
M  V30 29114 H 3032.51 0.451289 -0.549417 0
M  V30 29115 H 3035.12 0.638405 -1.84783 0
M  V30 29116 H 3033.82 1.9627 -3.60425 0
M  V30 29117 H 3033.35 3.14095 -2.36871 0
M  V30 29118 H 3035.37 4.40094 -2.29199 0
M  V30 29119 N 3034.54 1.35531 0.804316 0
M  V30 29120 C 3035.45 1.30756 1.94782 0
M  V30 29121 C 3036.47 0.212102 1.72702 0
M  V30 29122 O 3037.64 0.441875 1.96493 0
M  V30 29123 C 3034.71 1.08139 3.29404 0
M  V30 29124 C 3033.77 2.27019 3.64363 0
M  V30 29125 C 3033 2.05471 4.92562 0
M  V30 29126 O 3033.22 1.02231 5.61164 0
M  V30 29127 O 3032.16 2.92889 5.25833 0
M  V30 29128 H 3035.98 2.26998 2.01757 0
M  V30 29129 H 3033.57 1.15925 0.942428 0
M  V30 29130 H 3035.45 0.973828 4.09993 0
M  V30 29131 H 3034.13 0.149501 3.23355 0
M  V30 29132 H 3033.03 2.4334 2.84141 0
M  V30 29133 H 3034.37 3.18663 3.7512 0
M  V30 29134 N 3036.02 -1.02674 1.19565 0
M  V30 29135 C 3036.95 -2.12895 0.959061 0
M  V30 29136 C 3037.93 -1.69755 -0.108352 0
M  V30 29137 O 3039.11 -1.94143 0.0471039 0
M  V30 29138 C 3036.24 -3.43693 0.499271 0
M  V30 29139 C 3035.2 -4.00525 1.50877 0
M  V30 29140 C 3034.52 -5.26969 0.905976 0
M  V30 29141 C 3035.82 -4.35085 2.88961 0
M  V30 29142 H 3037.52 -2.32945 1.88088 0
M  V30 29143 H 3035.06 -1.11947 0.905751 0
M  V30 29144 H 3037.02 -4.20175 0.321039 0
M  V30 29145 H 3035.74 -3.23371 -0.458148 0
M  V30 29146 H 3034.4 -3.26139 1.67418 0
M  V30 29147 H 3034.05 -5.02965 -0.0590622 0
M  V30 29148 H 3033.75 -5.65956 1.5801 0
M  V30 29149 H 3035.27 -6.06117 0.738587 0
M  V30 29150 H 3036.69 -5.02496 2.7599 0
M  V30 29151 H 3035.08 -4.8516 3.53186 0
M  V30 29152 H 3036.15 -3.44293 3.41453 0
M  V30 29153 N 3037.5 -0.999914 -1.21817 0
M  V30 29154 C 3038.74 -0.68803 -1.92472 0
M  V30 29155 C 3039.1 0.766538 -1.76035 0
M  V30 29156 O 3040.3 1.19017 -2.41016 0
M  V30 29157 C 3038.57 -1.09135 -3.4033 0
M  V30 29158 S 3040.13 -0.898897 -4.29494 0
M  V30 29159 H 3036.95 -0.251341 -0.665093 0
M  V30 29160 H 3039.55 -1.28367 -1.47452 0
M  V30 29161 H 3038.25 -2.14621 -3.49809 0
M  V30 29162 H 3037.79 -0.487793 -3.90364 0
M  V30 29163 H 3039.8 0.206786 -4.95769 0
M  V30 29164 N 3038.97 1.37284 -0.773999 0
M  V30 29165 C 3040.38 1.82266 -0.404465 0
M  V30 29166 C 3040.74 1.64475 1.06969 0
M  V30 29167 O 3039.86 1.15712 1.82865 0
M  V30 29168 C 3040.46 3.309 -0.727356 0
M  V30 29169 C 3039.01 3.74151 -0.41085 0
M  V30 29170 C 3038.16 2.5978 -0.970029 0
M  V30 29171 H 3041.11 1.25724 -0.96846 0
M  V30 29172 H 3041.13 3.80498 -0.0128243 0
M  V30 29173 H 3040.65 3.43817 -1.80032 0
M  V30 29174 H 3038.75 3.66803 0.654705 0
M  V30 29175 H 3038.86 4.70171 -0.920675 0
M  V30 29176 H 3037.22 2.51632 -0.394138 0
M  V30 29177 H 3038.01 2.75488 -2.04844 0
M  V30 29178 N 3040.45 0.524724 1.48608 0
M  V30 29179 C 3041.38 -0.27796 2.27508 0
M  V30 29180 C 3042.4 -0.909234 1.35044 0
M  V30 29181 O 3043.59 -0.788564 1.60137 0
M  V30 29182 C 3040.69 -1.40838 3.0825 0
M  V30 29183 C 3039.86 -0.880008 4.28456 0
M  V30 29184 C 3038.92 -1.89091 4.91051 0
M  V30 29185 O 3037.94 -1.44995 5.50423 0
M  V30 29186 N 3039.15 -3.22279 4.82821 0
M  V30 29187 H 3041.91 0.398694 2.97036 0
M  V30 29188 H 3039.47 0.358726 1.57876 0
M  V30 29189 H 3041.46 -2.0827 3.46995 0
M  V30 29190 H 3040.03 -1.98879 2.41176 0
M  V30 29191 H 3039.25 -0.0298536 3.94189 0
M  V30 29192 H 3040.54 -0.505792 5.0628 0
M  V30 29193 H 3039.94 -3.60775 4.35727 0
M  V30 29194 H 3038.5 -3.85359 5.25682 0
M  V30 29195 N 3041.93 -1.55447 0.259613 0
M  V30 29196 C 3042.84 -2.2556 -0.644986 0
M  V30 29197 C 3043.86 -1.27608 -1.18289 0
M  V30 29198 O 3045.03 -1.60512 -1.21647 0
M  V30 29199 C 3042.1 -2.95113 -1.81959 0
M  V30 29200 C 3041.16 -4.08506 -1.3199 0
M  V30 29201 C 3040.39 -4.74733 -2.43852 0
M  V30 29202 O 3040.61 -4.40094 -3.62868 0
M  V30 29203 O 3039.55 -5.62994 -2.12888 0
M  V30 29204 H 3043.37 -3.03601 -0.0774866 0
M  V30 29205 H 3040.96 -1.49374 0.0276121 0
M  V30 29206 H 3042.84 -3.38878 -2.50479 0
M  V30 29207 H 3041.52 -2.20001 -2.37447 0
M  V30 29208 H 3040.42 -3.69231 -0.601611 0
M  V30 29209 H 3041.76 -4.85473 -0.81096 0
M  V30 29210 N 3043.41 0.0133338 -1.57594 0
M  V30 29211 C 3044.66 0.699562 -1.89606 0
M  V30 29212 C 3044.98 1.75046 -0.85929 0
M  V30 29213 O 3044.25 1.95618 0.105078 0
M  V30 29214 H 3042.83 0.261373 -0.699781 0
M  V30 29215 H 3045.49 -0.0244386 -1.94885 0
M  V30 29216 H 3044.58 1.17923 -2.88965 0
M  V30 29217 N 3044.89 1.54985 0.285878 0
M  V30 29218 C 3046.11 1.79322 1.04204 0
M  V30 29219 C 3046.54 0.558374 1.79621 0
M  V30 29220 O 3045.89 -0.491631 1.74507 0
M  V30 29221 C 3045.94 3.00954 1.98643 0
M  V30 29222 O 3045.05 2.75137 3.07202 0
M  V30 29223 H 3044.39 0.593079 0.298586 0
M  V30 29224 H 3046.92 2.02103 0.3187 0
M  V30 29225 H 3046.93 3.29337 2.40834 0
M  V30 29226 H 3045.6 3.90484 1.4316 0
M  V30 29227 H 3044.18 2.57814 2.69418 0
M  V30 29228 N 3046.36 -0.549794 1.47699 0
M  V30 29229 C 3047.33 -1.63834 1.60285 0
M  V30 29230 C 3048.33 -1.53549 0.477421 0
M  V30 29231 O 3049.52 -1.57574 0.742693 0
M  V30 29232 C 3046.65 -3.03401 1.55436 0
M  V30 29233 H 3047.84 -1.54022 2.57327 0
M  V30 29234 H 3045.4 -0.770305 1.36 0
M  V30 29235 H 3046.13 -3.18739 0.597968 0
M  V30 29236 H 3045.92 -3.12275 2.37121 0
M  V30 29237 H 3047.41 -3.82581 1.67396 0
M  V30 29238 N 3047.84 -1.35955 -0.797117 0
M  V30 29239 C 3048.81 -1.29512 -1.89102 0
M  V30 29240 C 3049.81 -0.204472 -1.59495 0
M  V30 29241 O 3051 -0.458775 -1.6805 0
M  V30 29242 C 3048.13 -1.00582 -3.25724 0
M  V30 29243 H 3049.32 -2.26788 -1.96233 0
M  V30 29244 H 3046.87 -1.20616 -0.994053 0
M  V30 29245 H 3047.61 -0.0373089 -3.24279 0
M  V30 29246 H 3047.39 -1.79498 -3.48601 0
M  V30 29247 H 3048.88 -0.98658 -4.05779 0
M  V30 29248 N 3049.32 1.02038 -1.20108 0
M  V30 29249 C 3050.57 1.75576 -1.00892 0
M  V30 29250 C 3050.9 1.88997 0.459382 0
M  V30 29251 O 3050.15 1.40979 1.35732 0
M  V30 29252 C 3050.45 3.17905 -1.63313 0
M  V30 29253 C 3050.12 3.24471 -3.13097 0
M  V30 29254 C 3048.78 3.25969 -3.53974 0
M  V30 29255 C 3051.13 3.22936 -4.09098 0
M  V30 29256 C 3048.46 3.23601 -4.89386 0
M  V30 29257 C 3050.81 3.22109 -5.44452 0
M  V30 29258 C 3049.47 3.2191 -5.84748 0
M  V30 29259 H 3048.74 0.642478 -0.369192 0
M  V30 29260 H 3051.39 1.19703 -1.49477 0
M  V30 29261 H 3049.7 3.76912 -1.06981 0
M  V30 29262 H 3051.39 3.73491 -1.45965 0
M  V30 29263 H 3047.98 3.24037 -2.80532 0
M  V30 29264 H 3052.17 3.20952 -3.78555 0
M  V30 29265 H 3047.42 3.21776 -5.19875 0
M  V30 29266 H 3051.6 3.19874 -6.1859 0
M  V30 29267 H 3049.22 3.19829 -6.89647 0
M  V30 29268 N 3050.8 1.00636 1.21285 0
M  V30 29269 C 3051.73 0.526133 2.2308 0
M  V30 29270 C 3052.74 -0.386004 1.58158 0
M  V30 29271 O 3053.93 -0.185985 1.77528 0
M  V30 29272 C 3051.03 -0.25523 3.37938 0
M  V30 29273 C 3050.21 0.656312 4.32448 0
M  V30 29274 C 3049.26 -0.0756789 5.26146 0
M  V30 29275 O 3048.29 0.543425 5.666 0
M  V30 29276 N 3049.49 -1.35381 5.64493 0
M  V30 29277 H 3052.26 1.40151 2.64911 0
M  V30 29278 H 3049.82 0.882665 1.35723 0
M  V30 29279 H 3051.81 -0.753908 3.97616 0
M  V30 29280 H 3050.38 -1.03181 2.9508 0
M  V30 29281 H 3049.6 1.33546 3.7089 0
M  V30 29282 H 3050.89 1.27662 4.92524 0
M  V30 29283 H 3050.29 -1.87791 5.33621 0
M  V30 29284 H 3048.84 -1.79742 6.26527 0
M  V30 29285 N 3052.28 -1.36872 0.781268 0
M  V30 29286 C 3053.19 -2.33946 0.175022 0
M  V30 29287 C 3054.2 -1.60646 -0.668484 0
M  V30 29288 O 3055.38 -1.92681 -0.586179 0
M  V30 29289 C 3052.44 -3.39835 -0.686497 0
M  V30 29290 C 3051.5 -4.28945 0.174564 0
M  V30 29291 C 3050.74 -5.29777 -0.645931 0
M  V30 29292 O 3050.96 -5.38442 -1.88244 0
M  V30 29293 O 3049.89 -6.01879 -0.0501156 0
M  V30 29294 H 3053.72 -2.87541 0.977432 0
M  V30 29295 H 3051.31 -1.39199 0.542584 0
M  V30 29296 H 3053.19 -4.04599 -1.17803 0
M  V30 29297 H 3051.86 -2.88553 -1.46693 0
M  V30 29298 H 3050.77 -3.67249 0.712669 0
M  V30 29299 H 3052.1 -4.83557 0.918317 0
M  V30 29300 N 3053.75 -0.532597 -1.48328 0
M  V30 29301 C 3054.68 0.21747 -2.32485 0
M  V30 29302 C 3055.67 0.932573 -1.42257 0
M  V30 29303 O 3056.85 0.917843 -1.71141 0
M  V30 29304 C 3053.98 1.26324 -3.23511 0
M  V30 29305 C 3052.93 0.666117 -4.22785 0
M  V30 29306 C 3052.26 1.81473 -5.02963 0
M  V30 29307 C 3053.56 -0.363905 -5.21031 0
M  V30 29308 H 3055.25 -0.485066 -2.95445 0
M  V30 29309 H 3052.8 -0.234719 -1.42074 0
M  V30 29310 H 3054.75 1.79594 -3.81214 0
M  V30 29311 H 3053.48 1.99539 -2.58557 0
M  V30 29312 H 3052.14 0.154916 -3.66273 0
M  V30 29313 H 3051.78 2.53532 -4.34431 0
M  V30 29314 H 3051.48 1.4211 -5.70157 0
M  V30 29315 H 3053.01 2.35116 -5.63518 0
M  V30 29316 H 3054.42 0.0818072 -5.73242 0
M  V30 29317 H 3052.82 -0.675061 -5.96291 0
M  V30 29318 H 3053.89 -1.26873 -4.68008 0
M  V30 29319 N 3055.23 1.55307 -0.267853 0
M  V30 29320 C 3056.47 2.01341 0.352281 0
M  V30 29321 C 3056.84 1.15213 1.53591 0
M  V30 29322 O 3058.04 1.50794 2.22518 0
M  V30 29323 C 3056.31 3.49828 0.731795 0
M  V30 29324 S 3057.87 4.17855 1.33949 0
M  V30 29325 H 3054.69 0.702453 0.109914 0
M  V30 29326 H 3057.29 1.91611 -0.387989 0
M  V30 29327 H 3055.99 4.10166 -0.138633 0
M  V30 29328 H 3055.52 3.63527 1.50371 0
M  V30 29329 H 3057.54 4.20878 2.62823 0
M  V30 29330 N 3056.71 -0.00497598 1.57599 0
M  V30 29331 C 3058.12 -0.548449 1.78463 0
M  V30 29332 C 3058.47 -1.74242 0.901899 0
M  V30 29333 O 3057.6 -2.16154 0.103052 0
M  V30 29334 C 3058.19 -1.00173 3.23652 0
M  V30 29335 C 3056.75 -1.49055 3.45629 0
M  V30 29336 C 3055.9 -0.439482 2.73795 0
M  V30 29337 H 3058.85 0.221208 1.57151 0
M  V30 29338 H 3058.87 -1.86799 3.31491 0
M  V30 29339 H 3058.38 -0.132539 3.87874 0
M  V30 29340 H 3056.48 -2.3808 2.86616 0
M  V30 29341 H 3056.6 -1.52144 4.54301 0
M  V30 29342 H 3054.96 -0.900001 2.38269 0
M  V30 29343 H 3055.74 0.420659 3.40713 0
M  V30 29344 N 3058.19 -1.55135 -0.277654 0
M  V30 29345 C 3059.44 -1.75522 -1.00987 0
M  V30 29346 C 3059.76 -0.553745 -1.86451 0
M  V30 29347 O 3059.02 0.463862 -1.90123 0
M  V30 29348 C 3059.32 -3.01069 -1.92594 0
M  V30 29349 C 3058.98 -4.33822 -1.22918 0
M  V30 29350 C 3057.65 -4.69904 -1.0365 0
M  V30 29351 C 3060 -5.1602 -0.732981 0
M  V30 29352 C 3057.33 -5.85744 -0.33483 0
M  V30 29353 C 3059.68 -6.32584 -0.0449207 0
M  V30 29354 C 3058.34 -6.67309 0.15951 0
M  V30 29355 H 3057.61 -0.642279 -0.369538 0
M  V30 29356 H 3060.26 -1.89404 -0.282578 0
M  V30 29357 H 3058.56 -2.82067 -2.71929 0
M  V30 29358 H 3060.26 -3.14038 -2.49361 0
M  V30 29359 H 3056.85 -4.0546 -1.38926 0
M  V30 29360 H 3061.03 -4.88624 -0.869479 0
M  V30 29361 H 3056.29 -6.11175 -0.165675 0
M  V30 29362 H 3060.46 -6.95533 0.347352 0
M  V30 29363 H 3058.09 -7.56922 0.705203 0
M  V30 29364 N 3059.67 0.541953 -1.47989 0
M  V30 29365 C 3060.91 1.29584 -1.55088 0
M  V30 29366 C 3061.24 1.9374 -0.221338 0
M  V30 29367 O 3060.51 1.80721 0.756096 0
M  V30 29368 H 3059.09 0.481256 -0.571316 0
M  V30 29369 H 3061.75 0.631642 -1.84381 0
M  V30 29370 H 3060.84 2.0814 -2.3256 0
M  V30 29371 N 3061.15 1.36376 0.789896 0
M  V30 29372 C 3062.1 1.27193 1.89225 0
M  V30 29373 C 3063.08 0.163526 1.60067 0
M  V30 29374 O 3064.27 0.396292 1.72507 0
M  V30 29375 C 3061.4 1.06297 3.26429 0
M  V30 29376 C 3060.49 2.21602 3.61598 0
M  V30 29377 N 3060.88 3.46917 3.6808 0
M  V30 29378 C 3059.18 2.13357 3.91656 0
M  V30 29379 C 3059.88 4.22842 3.99474 0
M  V30 29380 N 3058.85 3.51777 4.14432 0
M  V30 29381 H 3062.65 2.22117 1.92461 0
M  V30 29382 H 3060.17 1.29088 0.985391 0
M  V30 29383 H 3062.17 0.978051 4.05265 0
M  V30 29384 H 3060.83 0.122733 3.24468 0
M  V30 29385 H 3061.84 3.81057 3.50736 0
M  V30 29386 H 3058.51 1.27286 3.97624 0
M  V30 29387 H 3059.9 5.31212 4.11416 0
M  V30 29388 N 3062.62 -1.014 1.20647 0
M  V30 29389 C 3063.87 -1.74693 1.01621 0
M  V30 29390 C 3064.19 -1.89679 -0.452405 0
M  V30 29391 O 3063.46 -1.44118 -1.3269 0
M  V30 29392 H 3062.04 -0.647195 0.373025 0
M  V30 29393 H 3064.7 -1.22238 1.51802 0
M  V30 29394 H 3063.8 -2.74954 1.4767 0
M  V30 29395 N 3064.1 -1.01278 -1.2075 0
M  V30 29396 C 3065.06 -0.584622 -2.21619 0
M  V30 29397 C 3066.06 0.343187 -1.57095 0
M  V30 29398 O 3067.25 0.132402 -1.73696 0
M  V30 29399 C 3064.39 0.146812 -3.40584 0
M  V30 29400 H 3065.58 -1.4769 -2.61013 0
M  V30 29401 H 3063.13 -0.802147 -1.34147 0
M  V30 29402 H 3063.87 1.05418 -3.06688 0
M  V30 29403 H 3063.65 -0.519648 -3.88641 0
M  V30 29404 H 3065.14 0.433851 -4.1534 0
M  V30 29405 N 3065.58 1.36456 -0.788516 0
M  V30 29406 C 3066.83 1.99561 -0.361031 0
M  V30 29407 C 3067.16 1.62439 1.0643 0
M  V30 29408 O 3066.43 0.878736 1.73518 0
M  V30 29409 C 3066.72 3.5627 -0.523798 0
M  V30 29410 C 3066.57 4.03248 -1.99275 0
M  V30 29411 C 3067.89 4.40057 0.0617135 0
M  V30 29412 H 3065.01 0.724964 -0.132653 0
M  V30 29413 H 3067.65 1.61883 -0.994688 0
M  V30 29414 H 3065.8 3.88497 0.0156296 0
M  V30 29415 H 3067.47 3.81513 -2.59317 0
M  V30 29416 H 3065.71 3.54822 -2.49567 0
M  V30 29417 H 3066.39 5.12217 -2.05761 0
M  V30 29418 H 3068.86 4.14185 -0.398747 0
M  V30 29419 H 3067.74 5.48838 -0.0822053 0
M  V30 29420 H 3068 4.2678 1.15373 0
M  V30 29421 N 3067.06 0.540456 1.48043 0
M  V30 29422 C 3068.47 0.102695 1.86417 0
M  V30 29423 C 3068.82 -1.3229 1.44892 0
M  V30 29424 O 3067.94 -1.99248 0.844355 0
M  V30 29425 C 3068.54 0.179592 3.38324 0
M  V30 29426 C 3067.1 -0.203032 3.75852 0
M  V30 29427 C 3066.25 0.534684 2.72096 0
M  V30 29428 H 3069.2 0.751127 1.39799 0
M  V30 29429 H 3069.22 -0.606081 3.75642 0
M  V30 29430 H 3068.73 1.21727 3.68516 0
M  V30 29431 H 3066.83 -1.24246 3.51275 0
M  V30 29432 H 3066.94 0.143868 4.78884 0
M  V30 29433 H 3065.31 -0.0202911 2.54692 0
M  V30 29434 H 3066.09 1.5732 3.05132 0
M  V30 29435 N 3068.54 -1.55163 0.276085 0
M  V30 29436 C 3069.78 -1.99224 -0.339747 0
M  V30 29437 C 3070.1 -1.16592 -1.56305 0
M  V30 29438 O 3069.37 -0.255674 -1.94224 0
M  V30 29439 H 3067.95 -0.735861 -0.128521 0
M  V30 29440 H 3070.62 -1.91127 0.381646 0
M  V30 29441 H 3069.71 -3.05697 -0.628947 0
M  V30 29442 N 3070.01 -0.00338196 -1.576 0
M  V30 29443 C 3071.42 0.538977 -1.78751 0
M  V30 29444 C 3071.78 1.73761 -0.911127 0
M  V30 29445 O 3070.9 2.16097 -0.114514 0
M  V30 29446 C 3071.5 0.984554 -3.24179 0
M  V30 29447 C 3070.05 1.4722 -3.46415 0
M  V30 29448 C 3069.2 0.424956 -2.74024 0
M  V30 29449 H 3072.15 -0.229539 -1.57031 0
M  V30 29450 H 3072.17 1.85038 -3.32477 0
M  V30 29451 H 3071.69 0.111967 -3.87938 0
M  V30 29452 H 3069.79 2.36557 -2.87875 0
M  V30 29453 H 3069.9 1.49733 -4.55101 0
M  V30 29454 H 3068.26 0.887352 -2.38743 0
M  V30 29455 H 3069.05 -0.438722 -3.40485 0
M  V30 29456 N 3071.49 1.5528 0.269423 0
M  V30 29457 C 3072.77 1.66774 1.02204 0
M  V30 29458 C 3073.15 0.536572 2.04167 0
M  V30 29459 O 3072.5 -0.462917 2.23762 0
M  V30 29460 C 3072.71 3.06143 1.67564 0
M  V30 29461 C 3074.05 3.64009 2.18593 0
M  V30 29462 O 3075.08 3.08799 1.77544 0
M  V30 29463 O 3073.94 4.60747 2.93895 0
M  V30 29464 H 3071.03 0.677471 0.474302 0
M  V30 29465 H 3073.58 1.67618 0.264997 0
M  V30 29466 H 3072.35 3.79917 0.936962 0
M  V30 29467 H 3071.97 3.09213 2.49946 0
M  V30 29468 N 3072.97 -0.534097 1.48274 0
M  V30 29469 C 3074.25 -1.29525 1.4657 0
M  V30 29470 C 3074.63 -2.10372 0.175127 0
M  V30 29471 O 3073.97 -2.12374 -0.843191 0
M  V30 29472 C 3074.18 -2.18019 2.72523 0
M  V30 29473 C 3075.53 -2.78292 3.20685 0
M  V30 29474 O 3076.56 -2.28308 2.73412 0
M  V30 29475 O 3075.42 -3.69201 4.02931 0
M  V30 29476 H 3072.51 -0.584393 0.585161 0
M  V30 29477 H 3075.06 -0.551091 1.60503 0
M  V30 29478 H 3073.83 -1.58034 3.57968 0
M  V30 29479 H 3073.45 -2.99689 2.6129 0
M  V30 29480 N 3074.45 -1.36793 -0.782652 0
M  V30 29481 C 3075.67 -1.34735 -1.57674 0
M  V30 29482 C 3076.1 0.0674923 -1.87979 0
M  V30 29483 O 3075.46 1.04141 -1.48406 0
M  V30 29484 C 3075.5 -2.18262 -2.87044 0
M  V30 29485 O 3074.61 -1.57976 -3.80943 0
M  V30 29486 H 3073.95 -0.460855 -0.478026 0
M  V30 29487 H 3076.48 -1.80169 -0.969547 0
M  V30 29488 H 3076.49 -2.31085 -3.3625 0
M  V30 29489 H 3075.16 -3.21109 -2.64314 0
M  V30 29490 H 3073.74 -1.54132 -3.39555 0
M  V30 29491 N 3075.93 1.00759 -1.21184 0
M  V30 29492 C 3077.34 1.26845 -0.968629 0
M  V30 29493 C 3077.54 1.98498 0.346526 0
M  V30 29494 O 3076.6 2.28575 1.07283 0
M  V30 29495 C 3077.91 2.09464 -2.15744 0
M  V30 29496 C 3079.46 2.22699 -2.19941 0
M  V30 29497 C 3079.93 3.08698 -3.38333 0
M  V30 29498 N 3081.43 3.16287 -3.38404 0
M  V30 29499 C 3082.16 3.83078 -4.2666 0
M  V30 29500 N 3081.66 4.51921 -5.25109 0
M  V30 29501 N 3083.45 3.79693 -4.14475 0
M  V30 29502 H 3075.6 0.52678 -2.05764 0
M  V30 29503 H 3077.86 0.295174 -0.900875 0
M  V30 29504 H 3077.57 1.64161 -3.11037 0
M  V30 29505 H 3077.44 3.10212 -2.14589 0
M  V30 29506 H 3079.83 2.67222 -1.25205 0
M  V30 29507 H 3079.91 1.2143 -2.25141 0
M  V30 29508 H 3079.56 2.64879 -4.33361 0
M  V30 29509 H 3079.49 4.10076 -3.30372 0
M  V30 29510 H 3081.98 2.67277 -2.67154 0
M  V30 29511 H 3082.29 5.00582 -5.88759 0
M  V30 29512 H 3080.63 4.50716 -5.29037 0
M  V30 29513 H 3083.83 3.25063 -3.36826 0
M  V30 29514 H 3084 4.31469 -4.83465 0
M  V30 29515 N 3077.4 1.01917 1.20211 0
M  V30 29516 C 3078.31 0.601351 2.26762 0
M  V30 29517 C 3079.33 -0.362339 1.70185 0
M  V30 29518 O 3080.51 -0.222647 2.00166 0
M  V30 29519 C 3077.57 -0.051227 3.46662 0
M  V30 29520 C 3076.63 0.958732 4.18458 0
M  V30 29521 C 3075.87 0.337201 5.32634 0
M  V30 29522 O 3076.09 -0.862411 5.63843 0
M  V30 29523 O 3075.02 1.05521 5.92578 0
M  V30 29524 H 3078.85 1.48849 2.64722 0
M  V30 29525 H 3076.43 0.788807 1.26879 0
M  V30 29526 H 3078.32 -0.415566 4.19346 0
M  V30 29527 H 3076.99 -0.912517 3.10572 0
M  V30 29528 H 3075.9 1.37448 3.47935 0
M  V30 29529 H 3077.23 1.79007 4.58495 0
M  V30 29530 N 3078.88 -1.36036 0.795742 0
M  V30 29531 C 3080.16 -1.93366 0.294777 0
M  V30 29532 C 3080.54 -1.72698 -1.21402 0
M  V30 29533 O 3079.89 -1.08962 -2.00847 0
M  V30 29534 C 3080.1 -3.42024 0.694314 0
M  V30 29535 C 3081.45 -4.19158 0.67764 0
M  V30 29536 O 3082.47 -3.50491 0.635181 0
M  V30 29537 O 3081.33 -5.41653 0.726222 0
M  V30 29538 H 3078.42 -0.823632 0.0745603 0
M  V30 29539 H 3080.97 -1.45178 0.878711 0
M  V30 29540 H 3079.74 -3.5075 1.73464 0
M  V30 29541 H 3079.36 -3.9751 0.0846037 0
M  V30 29542 N 3080.36 -0.5483 -1.47755 0
M  V30 29543 C 3081.61 -0.0209621 -2.02789 0
M  V30 29544 C 3081.94 1.32184 -1.42271 0
M  V30 29545 O 3081.21 1.85805 -0.575034 0
M  V30 29546 C 3081.5 0.0816042 -3.60008 0
M  V30 29547 C 3081.35 -1.28766 -4.30975 0
M  V30 29548 C 3082.67 0.799439 -4.32778 0
M  V30 29549 H 3079.79 -0.00909179 -0.736944 0
M  V30 29550 H 3082.43 -0.70887 -1.76281 0
M  V30 29551 H 3080.58 0.66747 -3.82723 0
M  V30 29552 H 3082.25 -1.91605 -4.19625 0
M  V30 29553 H 3080.5 -1.86473 -3.91676 0
M  V30 29554 H 3081.17 -1.16871 -5.39486 0
M  V30 29555 H 3083.64 0.302087 -4.15002 0
M  V30 29556 H 3082.52 0.840143 -5.42432 0
M  V30 29557 H 3082.78 1.85368 -4.01361 0
M  V30 29558 N 3081.84 1.55014 -0.28431 0
M  V30 29559 C 3082.79 2.24321 0.615051 0
M  V30 29560 C 3083.78 1.24339 1.15048 0
M  V30 29561 O 3084.99 1.42242 1.10305 0
M  V30 29562 H 3081.36 0.720036 0.216914 0
M  V30 29563 H 3083.33 2.98399 0.00777971 0
M  V30 29564 C 3082.08 2.98474 1.7835 0
M  V30 29565 H 3081.4 3.75203 1.38069 0
M  V30 29566 H 3082.84 3.50275 2.38921 0
M  V30 29567 C 3081.3 2.04474 2.67754 0
M  V30 29568 O 3081.83 1.60191 3.68377 0
M  V30 29569 N 3080.04 1.7078 2.35122 0
M  V30 29570 H 3079.59 2.06987 1.53343 0
M  V30 29571 H 3079.54 1.08158 2.9521 0
M  V30 29572 N 3083.32 0.0117398 1.57596 0
M  V30 29573 C 3084.23 -0.991927 2.12598 0
M  V30 29574 C 3085.24 -1.36897 1.07402 0
M  V30 29575 O 3086.42 -1.45392 1.39367 0
M  V30 29576 C 3083.48 -2.26136 2.628 0
M  V30 29577 C 3082.54 -1.94635 3.82643 0
M  V30 29578 C 3081.78 -3.15526 4.30441 0
M  V30 29579 O 3082 -4.27607 3.77503 0
M  V30 29580 O 3080.93 -2.98837 5.22475 0
M  V30 29581 H 3084.76 -0.554319 2.98598 0
M  V30 29582 H 3082.35 -0.207813 1.47948 0
M  V30 29583 H 3084.23 -3.0069 2.95235 0
M  V30 29584 H 3082.9 -2.69111 1.79891 0
M  V30 29585 H 3081.81 -1.1752 3.55162 0
M  V30 29586 H 3083.14 -1.56488 4.66661 0
M  V30 29587 N 3084.79 -1.55421 -0.261185 0
M  V30 29588 C 3086.03 -1.7834 -0.998716 0
M  V30 29589 C 3086.4 -0.578947 -1.83063 0
M  V30 29590 O 3087.6 -0.68662 -2.59883 0
M  V30 29591 C 3085.87 -3.05901 -1.84822 0
M  V30 29592 S 3087.43 -3.49986 -2.6468 0
M  V30 29593 H 3084.25 -0.626502 -0.336179 0
M  V30 29594 H 3086.85 -1.93655 -0.267956 0
M  V30 29595 H 3085.55 -3.91644 -1.22651 0
M  V30 29596 H 3085.08 -2.93284 -2.62198 0
M  V30 29597 H 3087.1 -3.10191 -3.87293 0
M  V30 29598 N 3086.27 0.526227 -1.48555 0
M  V30 29599 C 3087.24 1.61263 -1.62871 0
M  V30 29600 C 3088.24 1.5277 -0.501789 0
M  V30 29601 O 3089.43 1.56373 -0.767668 0
M  V30 29602 C 3086.56 3.0089 -1.60243 0
M  V30 29603 H 3087.75 1.49908 -2.59745 0
M  V30 29604 H 3085.3 0.748571 -1.37208 0
M  V30 29605 H 3086.04 3.17748 -0.648601 0
M  V30 29606 H 3085.82 3.08463 -2.42059 0
M  V30 29607 H 3087.31 3.79869 -1.73462 0
M  V30 29608 N 3087.75 1.37206 0.775387 0
M  V30 29609 C 3088.66 1.34859 1.91964 0
M  V30 29610 C 3089.68 0.248687 1.72214 0
M  V30 29611 O 3090.85 0.483455 1.95511 0
M  V30 29612 C 3087.92 1.15102 3.27036 0
M  V30 29613 C 3086.98 2.34697 3.59466 0
M  V30 29614 C 3086.21 2.15873 4.88093 0
M  V30 29615 O 3086.43 1.14112 5.58869 0
M  V30 29616 O 3085.37 3.03976 5.19502 0
M  V30 29617 H 3089.19 2.31226 1.96896 0
M  V30 29618 H 3086.78 1.17898 0.917627 0
M  V30 29619 H 3088.66 1.06057 4.07835 0
M  V30 29620 H 3087.34 0.218055 3.22965 0
M  V30 29621 H 3086.24 2.49313 2.78916 0
M  V30 29622 H 3087.58 3.26548 3.68276 0
M  V30 29623 N 3089.23 -1.00115 1.21716 0
M  V30 29624 C 3090.18 -2.11088 0.976974 0
M  V30 29625 C 3091.17 -1.69224 -0.0770998 0
M  V30 29626 O 3092.38 -1.79845 0.0746261 0
M  V30 29627 H 3088.75 -0.690132 0.298699 0
M  V30 29628 H 3090.72 -2.28523 1.91885 0
M  V30 29629 C 3089.47 -3.43121 0.562429 0
M  V30 29630 H 3088.79 -3.7577 1.36516 0
M  V30 29631 H 3090.23 -4.21776 0.433716 0
M  V30 29632 C 3088.69 -3.28961 -0.72709 0
M  V30 29633 O 3089.22 -3.60028 -1.78164 0
M  V30 29634 N 3087.43 -2.82165 -0.695079 0
M  V30 29635 H 3086.98 -2.57081 0.163391 0
M  V30 29636 H 3086.93 -2.73072 -1.55818 0
M  V30 29637 N 3090.71 -1.02553 -1.19669 0
M  V30 29638 C 3092.12 -0.750238 -1.70963 0
M  V30 29639 C 3092.47 0.730429 -1.82097 0
M  V30 29640 O 3091.59 1.56955 -1.48976 0
M  V30 29641 C 3092.19 -1.35523 -3.10514 0
M  V30 29642 C 3090.75 -1.12861 -3.59081 0
M  V30 29643 C 3089.9 -1.45538 -2.36038 0
M  V30 29644 H 3092.85 -1.19388 -1.04557 0
M  V30 29645 H 3092.87 -0.750443 -3.73026 0
M  V30 29646 H 3092.38 -2.43288 -3.02379 0
M  V30 29647 H 3090.48 -0.0690282 -3.72536 0
M  V30 29648 H 3090.59 -1.81495 -4.43392 0
M  V30 29649 H 3088.96 -0.874622 -2.39212 0
M  V30 29650 H 3089.74 -2.54378 -2.30536 0
M  V30 29651 N 3092.19 1.35612 -0.802945 0
M  V30 29652 C 3093.43 1.98479 -0.380857 0
M  V30 29653 C 3093.75 1.64021 1.05461 0
M  V30 29654 O 3093.02 0.920884 1.72906 0
M  V30 29655 H 3091.6 0.734173 -0.137836 0
M  V30 29656 H 3094.27 1.65586 -1.02798 0
M  V30 29657 H 3093.36 3.0833 -0.483619 0
M  V30 29658 N 3093.66 0.556128 1.47462 0
M  V30 29659 C 3094.91 0.0317162 2.02775 0
M  V30 29660 C 3095.24 -1.31428 1.4297 0
M  V30 29661 O 3094.52 -1.85498 0.584879 0
M  V30 29662 C 3094.8 -0.0625109 3.60046 0
M  V30 29663 C 3094.65 1.3105 4.30286 0
M  V30 29664 C 3095.97 -0.776476 4.33196 0
M  V30 29665 H 3093.09 0.0129999 0.736885 0
M  V30 29666 H 3095.73 0.718208 1.75903 0
M  V30 29667 H 3093.88 -0.647163 3.83072 0
M  V30 29668 H 3095.56 1.93827 4.18603 0
M  V30 29669 H 3093.8 1.88547 3.90682 0
M  V30 29670 H 3094.47 1.1973 5.38859 0
M  V30 29671 H 3096.95 -0.280074 4.15156 0
M  V30 29672 H 3095.82 -0.811365 5.4287 0
M  V30 29673 H 3096.08 -1.83237 4.02339 0
M  V30 29674 N 3095.14 -1.54861 0.292527 0
M  V30 29675 C 3096.38 -2.01876 -0.320205 0
M  V30 29676 C 3096.75 -1.17641 -1.51738 0
M  V30 29677 O 3097.95 -1.54315 -2.20091 0
M  V30 29678 C 3096.22 -3.50948 -0.676048 0
M  V30 29679 S 3097.78 -4.19933 -1.27284 0
M  V30 29680 H 3094.59 -0.704112 -0.098725 0
M  V30 29681 H 3097.2 -1.9097 0.418424 0
M  V30 29682 H 3095.9 -4.09893 0.203869 0
M  V30 29683 H 3095.43 -3.65874 -1.44569 0
M  V30 29684 H 3097.45 -4.25006 -2.56094 0
M  V30 29685 N 3096.62 -0.0200973 -1.57587 0
M  V30 29686 C 3097.85 0.67093 -1.9572 0
M  V30 29687 C 3098.26 1.66179 -0.89611 0
M  V30 29688 O 3097.62 1.82085 0.123005 0
M  V30 29689 C 3097.67 1.38523 -3.33907 0
M  V30 29690 O 3097.39 0.43409 -4.35944 0
M  V30 29691 C 3098.89 2.16891 -3.86617 0
M  V30 29692 H 3096.11 0.185594 -0.644822 0
M  V30 29693 H 3098.66 -0.0771854 -2.04354 0
M  V30 29694 H 3096.81 2.08482 -3.26518 0
M  V30 29695 H 3097.23 0.940287 -5.16003 0
M  V30 29696 H 3098.7 2.62338 -4.85678 0
M  V30 29697 H 3099.18 3.00418 -3.20384 0
M  V30 29698 H 3099.78 1.51909 -3.97245 0
M  V30 29699 N 3098.1 1.55557 0.252939 0
M  V30 29700 C 3099.05 1.90625 1.33285 0
M  V30 29701 C 3100.04 0.784665 1.50131 0
M  V30 29702 O 3101.25 0.969223 1.51678 0
M  V30 29703 H 3097.62 0.605329 0.446185 0
M  V30 29704 H 3099.59 2.80798 1.00972 0
M  V30 29705 C 3098.34 2.21218 2.6825 0
M  V30 29706 H 3097.66 3.07019 2.56085 0
M  V30 29707 H 3099.1 2.49662 3.42702 0
M  V30 29708 C 3097.56 1.02648 3.20882 0
M  V30 29709 O 3098.09 0.271363 4.00782 0
M  V30 29710 N 3096.3 0.818731 2.78828 0
M  V30 29711 H 3095.85 1.43448 2.13964 0
M  V30 29712 H 3095.8 0.0270541 3.14388 0
M  V30 29713 N 3099.58 -0.518341 1.48832 0
M  V30 29714 C 3100.82 -1.271 1.5713 0
M  V30 29715 C 3101.14 -1.93363 0.252132 0
M  V30 29716 O 3100.41 -1.81901 -0.727249 0
M  V30 29717 H 3098.99 -0.472106 0.5789 0
M  V30 29718 H 3101.66 -0.602229 1.85362 0
M  V30 29719 H 3100.75 -2.04414 2.35842 0
M  V30 29720 N 3101.05 -1.37615 -0.7681 0
M  V30 29721 C 3102.3 -1.33222 -1.52904 0
M  V30 29722 C 3102.63 0.0820876 -1.94026 0
M  V30 29723 O 3101.91 1.0402 -1.64347 0
M  V30 29724 C 3102.19 -2.27468 -2.7916 0
M  V30 29725 C 3102.04 -3.77694 -2.44269 0
M  V30 29726 C 3103.36 -2.20095 -3.81112 0
M  V30 29727 H 3100.48 -0.485256 -0.554703 0
M  V30 29728 H 3103.12 -1.68346 -0.880882 0
M  V30 29729 H 3101.27 -1.97645 -3.34468 0
M  V30 29730 H 3102.95 -4.18129 -1.94848 0
M  V30 29731 H 3101.19 -3.96084 -1.76918 0
M  V30 29732 H 3101.86 -4.39078 -3.34537 0
M  V30 29733 H 3104.34 -2.46391 -3.35307 0
M  V30 29734 H 3103.21 -2.88174 -4.67169 0
M  V30 29735 H 3103.47 -1.19505 -4.25642 0
M  V30 29736 N 3102.53 0.994677 -1.22245 0
M  V30 29737 C 3103.77 1.74918 -1.0575 0
M  V30 29738 C 3104.14 1.87773 0.400667 0
M  V30 29739 O 3105.34 2.59888 0.686423 0
M  V30 29740 C 3103.61 3.11784 -1.74716 0
M  V30 29741 S 3105.17 4.02995 -1.73611 0
M  V30 29742 H 3101.98 0.601727 -0.378741 0
M  V30 29743 H 3104.59 1.18939 -1.55157 0
M  V30 29744 H 3103.29 3.00068 -2.79977 0
M  V30 29745 H 3102.82 3.72834 -1.25532 0
M  V30 29746 H 3104.84 4.89959 -0.784531 0
M  V30 29747 N 3104.01 1.03186 1.19123 0
M  V30 29748 C 3105.26 0.731144 1.89162 0
M  V30 29749 C 3105.59 -0.738631 1.79605 0
M  V30 29750 O 3104.86 -1.53817 1.1904 0
M  V30 29751 C 3105.15 1.18672 3.39984 0
M  V30 29752 C 3105 2.71794 3.58397 0
M  V30 29753 C 3106.32 0.769848 4.33314 0
M  V30 29754 H 3103.44 0.267081 0.686904 0
M  V30 29755 H 3106.08 1.28231 1.40203 0
M  V30 29756 H 3104.23 0.717803 3.81811 0
M  V30 29757 H 3105.9 3.26655 3.25721 0
M  V30 29758 H 3104.14 3.12043 3.01349 0
M  V30 29759 H 3104.82 2.98727 4.64183 0
M  V30 29760 H 3107.29 1.17321 3.99218 0
M  V30 29761 H 3106.17 1.11647 5.37426 0
M  V30 29762 H 3106.43 -0.327603 4.40885 0
M  V30 29763 N 3105.49 -1.35184 0.810125 0
M  V30 29764 C 3106.44 -2.3164 0.211112 0
M  V30 29765 C 3107.43 -1.56801 -0.641082 0
M  V30 29766 O 3108.64 -1.71901 -0.53385 0
M  V30 29767 H 3105.01 -0.750368 0.049511 0
M  V30 29768 H 3106.98 -2.79702 1.03969 0
M  V30 29769 C 3105.73 -3.42075 -0.622873 0
M  V30 29770 H 3105.05 -3.99793 0.023535 0
M  V30 29771 H 3106.49 -4.11836 -1.00833 0
M  V30 29772 C 3104.95 -2.8542 -1.78989 0
M  V30 29773 O 3105.48 -2.79257 -2.88753 0
M  V30 29774 N 3103.69 -2.42419 -1.60254 0
M  V30 29775 H 3103.24 -2.47631 -0.709697 0
M  V30 29776 H 3103.19 -2.04861 -2.38494 0
M  V30 29777 N 3106.97 -0.56394 -1.47165 0
M  V30 29778 C 3108.19 -0.047465 -2.06846 0
M  V30 29779 C 3108.61 1.24925 -1.4156 0
M  V30 29780 O 3107.97 1.751 -0.514407 0
M  V30 29781 C 3108.02 0.144767 -3.6121 0
M  V30 29782 O 3107.74 -1.10061 -4.2405 0
M  V30 29783 C 3109.24 0.697753 -4.37774 0
M  V30 29784 H 3106.46 -0.0489014 -0.669216 0
M  V30 29785 H 3109 -0.779269 -1.8907 0
M  V30 29786 H 3107.16 0.826723 -3.78476 0
M  V30 29787 H 3107.57 -0.902571 -5.16676 0
M  V30 29788 H 3109.05 0.78152 -5.4644 0
M  V30 29789 H 3109.52 1.71056 -4.0452 0
M  V30 29790 H 3110.13 0.0512769 -4.25269 0
M  V30 29791 N 3108.44 1.54704 -0.300735 0
M  V30 29792 C 3109.72 1.92226 0.361723 0
M  V30 29793 C 3110.1 1.22793 1.71712 0
M  V30 29794 O 3109.45 0.363581 2.25589 0
M  V30 29795 C 3109.66 3.4573 0.476638 0
M  V30 29796 C 3111.01 4.17966 0.747627 0
M  V30 29797 O 3112.03 3.51763 0.560459 0
M  V30 29798 O 3110.89 5.35168 1.10715 0
M  V30 29799 H 3107.98 0.801901 0.202199 0
M  V30 29800 H 3110.53 1.66077 -0.348775 0
M  V30 29801 H 3109.3 3.88392 -0.4762 0
M  V30 29802 H 3108.93 3.77913 1.23561 0
M  V30 29803 N 3109.92 0.0284543 1.57574 0
M  V30 29804 C 3111.17 -0.649046 1.91394 0
M  V30 29805 C 3111.49 -1.72706 0.905399 0
M  V30 29806 O 3110.76 -1.95828 -0.0531763 0
M  V30 29807 H 3109.34 -0.242727 0.706465 0
M  V30 29808 H 3112 0.0761002 1.94751 0
M  V30 29809 H 3111.1 -1.10221 2.91989 0
M  V30 29810 N 3111.4 -1.55689 -0.244686 0
M  V30 29811 C 3112.63 -1.82022 -0.994125 0
M  V30 29812 C 3113.05 -0.605802 -1.78078 0
M  V30 29813 O 3112.41 0.44519 -1.75749 0
M  V30 29814 C 3112.46 -3.06115 -1.90594 0
M  V30 29815 O 3111.56 -2.83186 -2.99799 0
M  V30 29816 H 3110.9 -0.600787 -0.282756 0
M  V30 29817 H 3113.43 -2.02877 -0.265004 0
M  V30 29818 H 3113.44 -3.35607 -2.32017 0
M  V30 29819 H 3112.12 -3.94143 -1.32756 0
M  V30 29820 H 3110.69 -2.64867 -2.62488 0
M  V30 29821 N 3112.88 0.510441 -1.49105 0
M  V30 29822 C 3114.13 1.26515 -1.58114 0
M  V30 29823 C 3114.45 1.92705 -0.263637 0
M  V30 29824 O 3113.71 1.80853 0.747711 0
M  V30 29825 C 3114.01 2.36156 -2.68263 0
M  V30 29826 C 3113.67 1.87488 -4.10072 0
M  V30 29827 C 3112.34 1.73934 -4.48665 0
M  V30 29828 C 3114.69 1.50951 -4.98862 0
M  V30 29829 C 3112.02 1.22207 -5.73831 0
M  V30 29830 C 3114.37 1.0068 -6.24537 0
M  V30 29831 C 3113.03 0.857574 -6.61968 0
M  V30 29832 H 3112.3 0.462952 -0.578582 0
M  V30 29833 H 3114.95 0.567442 -1.829 0
M  V30 29834 H 3113.25 3.11677 -2.37413 0
M  V30 29835 H 3114.95 2.94236 -2.72445 0
M  V30 29836 H 3111.54 1.98994 -3.79604 0
M  V30 29837 H 3115.72 1.60274 -4.69708 0
M  V30 29838 H 3110.98 1.09357 -6.0154 0
M  V30 29839 H 3115.15 0.714858 -6.92721 0
M  V30 29840 H 3112.78 0.454569 -7.5884 0
M  V30 29841 N 3114.36 1.38021 0.760791 0
M  V30 29842 C 3115.77 1.1906 1.06287 0
M  V30 29843 C 3115.97 0.0342957 2.01471 0
M  V30 29844 O 3115.03 -0.622197 2.44714 0
M  V30 29845 C 3116.34 2.51396 1.64986 0
M  V30 29846 C 3117.89 2.58016 1.77191 0
M  V30 29847 C 3118.36 3.9051 2.39303 0
M  V30 29848 N 3119.86 3.92011 2.46742 0
M  V30 29849 C 3120.59 4.91286 2.95678 0
M  V30 29850 N 3120.09 6.00958 3.44705 0
M  V30 29851 N 3121.88 4.78682 2.94653 0
M  V30 29852 H 3114.03 2.12008 0.129007 0
M  V30 29853 H 3116.29 0.940392 0.119861 0
M  V30 29854 H 3116 3.36428 1.02514 0
M  V30 29855 H 3115.87 2.69275 2.64142 0
M  V30 29856 H 3118.26 1.73384 2.38793 0
M  V30 29857 H 3118.34 2.44011 0.767602 0
M  V30 29858 H 3117.99 4.75561 1.78338 0
M  V30 29859 H 3117.92 4.01823 3.40362 0
M  V30 29860 H 3120.41 3.12793 2.12059 0
M  V30 29861 H 3120.72 6.72648 3.8048 0
M  V30 29862 H 3119.06 6.04588 3.42781 0
M  V30 29863 H 3122.26 3.92118 2.55658 0
M  V30 29864 H 3122.43 5.56203 3.32479 0
M  V30 29865 N 3115.83 -0.98818 1.22771 0
M  V30 29866 C 3117.07 -1.74355 1.06676 0
M  V30 29867 C 3117.44 -1.87983 -0.390704 0
M  V30 29868 O 3118.64 -2.60248 -0.672631 0
M  V30 29869 C 3116.91 -3.10853 1.76367 0
M  V30 29870 S 3118.47 -4.02068 1.75745 0
M  V30 29871 H 3115.29 -0.59971 0.381927 0
M  V30 29872 H 3117.89 -1.18114 1.55786 0
M  V30 29873 H 3116.59 -2.98579 2.81564 0
M  V30 29874 H 3116.12 -3.72163 1.27507 0
M  V30 29875 H 3118.14 -4.89536 0.810504 0
M  V30 29876 N 3117.31 -1.03816 -1.18575 0
M  V30 29877 C 3118.22 -0.637351 -2.25776 0
M  V30 29878 C 3119.24 0.335218 -1.7074 0
M  V30 29879 O 3120.41 0.190774 -2.00494 0
M  V30 29880 C 3117.48 -0.00393047 -3.467 0
M  V30 29881 C 3116.54 -1.02518 -4.16879 0
M  V30 29882 C 3115.77 -0.421896 -5.3203 0
M  V30 29883 O 3116 0.772599 -5.65143 0
M  V30 29884 O 3114.93 -1.14935 -5.90824 0
M  V30 29885 H 3118.76 -1.53041 -2.62321 0
M  V30 29886 H 3116.34 -0.808892 -1.25608 0
M  V30 29887 H 3118.22 0.348799 -4.19954 0
M  V30 29888 H 3116.9 0.862993 -3.11984 0
M  V30 29889 H 3115.81 -1.42966 -3.45704 0
M  V30 29890 H 3117.14 -1.86279 -4.55589 0
M  V30 29891 N 3118.79 1.34753 -0.817283 0
M  V30 29892 C 3120.03 2.00277 -0.408464 0
M  V30 29893 C 3120.39 1.63402 1.00816 0
M  V30 29894 O 3121.6 2.21727 1.51956 0
M  V30 29895 C 3119.87 3.52357 -0.598281 0
M  V30 29896 S 3121.43 4.37896 -0.281472 0
M  V30 29897 H 3118.24 0.693989 -0.154599 0
M  V30 29898 H 3120.85 1.64148 -1.06187 0
M  V30 29899 H 3119.55 3.76682 -1.62908 0
M  V30 29900 H 3119.08 3.93338 0.0700608 0
M  V30 29901 H 3121.1 4.87841 0.906938 0
M  V30 29902 N 3120.27 0.571737 1.46864 0
M  V30 29903 C 3121.68 0.142214 1.86158 0
M  V30 29904 C 3122.03 -1.29187 1.47665 0
M  V30 29905 O 3121.16 -1.97412 0.886428 0
M  V30 29906 C 3121.75 0.251316 3.37867 0
M  V30 29907 C 3120.31 -0.123263 3.76198 0
M  V30 29908 C 3119.46 0.59228 2.70901 0
M  V30 29909 H 3122.41 0.780612 1.38174 0
M  V30 29910 H 3122.43 -0.526265 3.76843 0
M  V30 29911 H 3121.94 1.29516 3.65851 0
M  V30 29912 H 3120.04 -1.16767 3.53831 0
M  V30 29913 H 3120.16 0.245414 4.78471 0
M  V30 29914 H 3118.52 0.0337374 2.54678 0
M  V30 29915 H 3119.3 1.63757 3.01726 0
M  V30 29916 N 3121.75 -1.54542 0.308935 0
M  V30 29917 C 3122.99 -2.00295 -0.298001 0
M  V30 29918 C 3123.32 -1.19727 -1.53283 0
M  V30 29919 O 3122.58 -0.263585 -1.93917 0
M  V30 29920 C 3122.88 -3.50647 -0.69146 0
M  V30 29921 C 3122.54 -4.48723 0.442533 0
M  V30 29922 C 3121.2 -4.75259 0.753823 0
M  V30 29923 C 3123.56 -5.0708 1.20497 0
M  V30 29924 C 3120.88 -5.57412 1.83053 0
M  V30 29925 C 3123.24 -5.90405 2.27166 0
M  V30 29926 C 3121.9 -6.15249 2.58893 0
M  V30 29927 H 3121.17 -0.732932 -0.109046 0
M  V30 29928 H 3123.82 -1.86617 0.42968 0
M  V30 29929 H 3122.12 -3.61976 -1.49935 0
M  V30 29930 H 3123.82 -3.83479 -1.17238 0
M  V30 29931 H 3120.41 -4.28179 0.189819 0
M  V30 29932 H 3124.59 -4.86574 0.977738 0
M  V30 29933 H 3119.85 -5.74896 2.08098 0
M  V30 29934 H 3124.02 -6.34647 2.86698 0
M  V30 29935 H 3121.65 -6.78696 3.42455 0
M  V30 29936 N 3123.23 -0.0368104 -1.57557 0
M  V30 29937 C 3124.47 0.638886 -1.91736 0
M  V30 29938 C 3124.79 1.72224 -0.914545 0
M  V30 29939 O 3124.06 1.95853 0.0427903 0
M  V30 29940 H 3122.64 0.238977 -0.707742 0
M  V30 29941 H 3125.31 -0.0864273 -1.94708 0
M  V30 29942 H 3124.4 1.08671 -2.9257 0
M  V30 29943 N 3124.7 1.55817 0.236426 0
M  V30 29944 C 3125.93 1.8194 0.978841 0
M  V30 29945 C 3126.34 0.611678 1.79039 0
M  V30 29946 O 3125.68 -0.429141 1.78617 0
M  V30 29947 C 3125.75 3.01575 1.95685 0
M  V30 29948 C 3125.41 4.37181 1.33124 0
M  V30 29949 C 3126.41 5.14771 0.728495 0
M  V30 29950 C 3124.09 4.83889 1.34746 0
M  V30 29951 C 3126.09 6.37223 0.150315 0
M  V30 29952 C 3123.77 6.06287 0.765432 0
M  V30 29953 C 3124.77 6.82794 0.167896 0
M  V30 29954 O 3124.46 8.02879 -0.405117 0
M  V30 29955 H 3124.19 0.609118 0.293175 0
M  V30 29956 H 3126.75 2.03731 0.261349 0
M  V30 29957 H 3124.98 2.75566 2.71293 0
M  V30 29958 H 3126.66 3.147 2.56357 0
M  V30 29959 H 3127.43 4.79799 0.708392 0
M  V30 29960 H 3123.31 4.24324 1.80195 0
M  V30 29961 H 3126.85 6.96881 -0.316708 0
M  V30 29962 H 3122.75 6.40735 0.782897 0
M  V30 29963 H 3123.52 8.17957 -0.297993 0
M  V30 29964 N 3126.18 -0.502526 1.49373 0
M  V30 29965 C 3127.41 -1.28553 1.62754 0
M  V30 29966 C 3127.83 -1.85719 0.298318 0
M  V30 29967 O 3127.19 -1.65784 -0.733856 0
M  V30 29968 C 3127.24 -2.39269 2.69783 0
M  V30 29969 O 3126.34 -3.43077 2.28849 0
M  V30 29970 H 3125.68 -0.379583 0.544805 0
M  V30 29971 H 3128.21 -0.601757 1.95551 0
M  V30 29972 H 3128.22 -2.85055 2.91904 0
M  V30 29973 H 3126.9 -1.97027 3.66269 0
M  V30 29974 H 3125.47 -3.0322 2.17053 0
M  V30 29975 N 3127.66 -1.38422 -0.75346 0
M  V30 29976 C 3128.59 -1.3838 -1.88078 0
M  V30 29977 C 3129.57 -0.249693 -1.68257 0
M  V30 29978 O 3130.76 -0.452794 -1.88848 0
M  V30 29979 C 3127.89 -1.20824 -3.25605 0
M  V30 29980 C 3126.84 -2.3144 -3.60027 0
M  V30 29981 C 3126.17 -1.98989 -4.96294 0
M  V30 29982 C 3127.47 -3.737 -3.64891 0
M  V30 29983 H 3129.16 -2.32716 -1.88371 0
M  V30 29984 H 3126.71 -1.12018 -0.904871 0
M  V30 29985 H 3128.66 -1.19419 -4.04125 0
M  V30 29986 H 3127.38 -0.22949 -3.25793 0
M  V30 29987 H 3126.04 -2.3203 -2.83827 0
M  V30 29988 H 3125.69 -0.995975 -4.93041 0
M  V30 29989 H 3125.39 -2.73073 -5.20293 0
M  V30 29990 H 3126.91 -1.99203 -5.77192 0
M  V30 29991 H 3128.33 -3.7514 -4.33524 0
M  V30 29992 H 3126.72 -4.4699 -4.004 0
M  V30 29993 H 3127.79 -4.06006 -2.65117 0
M  V30 29994 N 3129.14 0.981655 -1.23294 0
M  V30 29995 C 3130.41 1.69708 -0.972544 0
M  V30 29996 C 3130.79 2.04866 0.509208 0
M  V30 29997 O 3130.14 1.74085 1.48009 0
M  V30 29998 C 3130.35 2.9394 -1.8815 0
M  V30 29999 C 3131.7 3.66481 -2.14423 0
M  V30 30000 O 3132.72 3.0397 -1.85689 0
M  V30 30001 O 3131.58 4.78974 -2.63147 0
M  V30 30002 H 3128.68 0.741263 -0.366686 0
M  V30 30003 H 3131.22 1.03699 -1.3433 0
M  V30 30004 H 3130 2.64546 -2.88325 0
M  V30 30005 H 3129.62 3.67686 -1.51303 0
M  V30 30006 N 3130.62 1.04444 1.18022 0
M  V30 30007 C 3131.86 0.750055 1.88097 0
M  V30 30008 C 3132.19 -0.722457 1.80585 0
M  V30 30009 O 3131.45 -1.54333 1.20332 0
M  V30 30010 C 3131.74 1.16637 3.37832 0
M  V30 30011 C 3131.41 2.6398 3.65548 0
M  V30 30012 C 3130.07 3.04232 3.72822 0
M  V30 30013 C 3132.42 3.59231 3.77628 0
M  V30 30014 C 3129.75 4.38615 3.89658 0
M  V30 30015 C 3132.1 4.93337 3.95981 0
M  V30 30016 C 3130.77 5.33255 4.01492 0
M  V30 30017 H 3130.04 0.274465 0.688295 0
M  V30 30018 H 3132.69 1.31015 1.39669 0
M  V30 30019 H 3130.99 0.525139 3.88265 0
M  V30 30020 H 3132.69 0.915896 3.904 0
M  V30 30021 H 3129.28 2.31805 3.60506 0
M  V30 30022 H 3133.46 3.29276 3.71336 0
M  V30 30023 H 3128.72 4.69055 3.9217 0
M  V30 30024 H 3132.89 5.67044 4.0427 0
M  V30 30025 H 3130.52 6.37391 4.1429 0
M  V30 30026 N 3132.09 -1.34317 0.824418 0
M  V30 30027 C 3133.32 -2.02462 0.42623 0
M  V30 30028 C 3133.74 -1.6208 -0.96827 0
M  V30 30029 O 3133.09 -0.826989 -1.62687 0
M  V30 30030 C 3133.14 -3.57733 0.520527 0
M  V30 30031 O 3132.87 -3.96652 1.86007 0
M  V30 30032 C 3134.37 -4.43144 0.117431 0
M  V30 30033 H 3131.59 -0.648878 0.170875 0
M  V30 30034 H 3134.13 -1.7156 1.11299 0
M  V30 30035 H 3132.29 -3.8722 -0.118165 0
M  V30 30036 H 3132.7 -4.9134 1.83537 0
M  V30 30037 H 3134.17 -5.51502 0.234492 0
M  V30 30038 H 3134.65 -4.2904 -0.939196 0
M  V30 30039 H 3135.26 -4.18988 0.729981 0
M  V30 30040 N 3133.57 -0.579517 -1.46558 0
M  V30 30041 C 3134.82 -0.0637512 -2.01999 0
M  V30 30042 C 3135.14 1.2996 -1.4538 0
M  V30 30043 O 3134.41 1.85244 -0.637294 0
M  V30 30044 H 3132.99 -0.0205769 -0.746717 0
M  V30 30045 H 3135.65 -0.754575 -1.797 0
M  V30 30046 H 3134.75 0.00764768 -3.12099 0
M  V30 30047 N 3135.05 1.54376 -0.317127 0
M  V30 30048 C 3136.3 1.9963 0.288236 0
M  V30 30049 C 3136.61 1.20912 1.53752 0
M  V30 30050 O 3137.82 1.56512 2.21848 0
M  V30 30051 C 3136.27 3.55451 0.564125 0
M  V30 30052 C 3135.88 4.42996 -0.667737 0
M  V30 30053 C 3137.63 4.09189 1.1298 0
M  V30 30054 C 3135.53 5.90278 -0.364107 0
M  V30 30055 H 3134.46 0.745713 0.111479 0
M  V30 30056 H 3137.11 1.7843 -0.428348 0
M  V30 30057 H 3135.5 3.72613 1.34073 0
M  V30 30058 H 3136.67 4.37609 -1.44342 0
M  V30 30059 H 3134.99 4.00114 -1.15317 0
M  V30 30060 H 3137.58 5.16812 1.37148 0
M  V30 30061 H 3137.93 3.60777 2.07716 0
M  V30 30062 H 3138.46 3.95634 0.414526 0
M  V30 30063 H 3135.2 6.42872 -1.28047 0
M  V30 30064 H 3134.72 5.98633 0.373997 0
M  V30 30065 H 3136.4 6.46994 0.0284296 0
M  V30 30066 N 3136.53 0.0451655 1.57535 0
M  V30 30067 C 3137.48 -0.949168 2.12352 0
M  V30 30068 C 3138.47 -1.32626 1.05389 0
M  V30 30069 O 3139.68 -1.30661 1.23805 0
M  V30 30070 H 3136.05 -0.323934 0.678654 0
M  V30 30071 H 3138.02 -0.461666 2.94807 0
M  V30 30072 C 3136.77 -2.21683 2.67866 0
M  V30 30073 H 3136.09 -1.93544 3.49829 0
M  V30 30074 H 3137.53 -2.8943 3.09849 0
M  V30 30075 C 3135.99 -2.95745 1.61358 0
M  V30 30076 O 3136.52 -3.8846 1.02282 0
M  V30 30077 N 3134.73 -2.58367 1.33021 0
M  V30 30078 H 3134.28 -1.83048 1.81249 0
M  V30 30079 H 3134.23 -3.08229 0.619866 0
M  V30 30080 N 3138.01 -1.5594 -0.228159 0
M  V30 30081 C 3139.25 -1.80418 -0.960663 0
M  V30 30082 C 3139.61 -0.617647 -1.81794 0
M  V30 30083 O 3140.81 -0.741591 -2.58368 0
M  V30 30084 C 3139.08 -3.09753 -1.78292 0
M  V30 30085 S 3140.64 -3.55521 -2.57196 0
M  V30 30086 H 3137.46 -0.633492 -0.322814 0
M  V30 30087 H 3140.06 -1.9418 -0.226818 0
M  V30 30088 H 3138.77 -3.94157 -1.14316 0
M  V30 30089 H 3138.3 -2.9878 -2.55918 0
M  V30 30090 H 3140.31 -3.18336 -3.80626 0
M  V30 30091 N 3139.48 0.494597 -1.49638 0
M  V30 30092 C 3140.73 1.25016 -1.59684 0
M  V30 30093 C 3141.06 1.92089 -0.285544 0
M  V30 30094 O 3140.34 1.81024 0.711366 0
M  V30 30095 C 3140.62 2.31218 -2.76062 0
M  V30 30096 C 3140.47 1.68603 -4.17005 0
M  V30 30097 C 3141.79 3.32728 -2.88062 0
M  V30 30098 H 3138.91 0.453162 -0.581217 0
M  V30 30099 H 3141.55 0.547359 -1.81945 0
M  V30 30100 H 3139.7 2.9116 -2.57212 0
M  V30 30101 H 3141.38 1.12439 -4.47387 0
M  V30 30102 H 3139.62 0.989917 -4.22354 0
M  V30 30103 H 3140.29 2.45665 -4.9432 0
M  V30 30104 H 3142.77 2.82784 -3.05242 0
M  V30 30105 H 3141.64 4.04392 -3.71158 0
M  V30 30106 H 3141.9 3.95441 -1.97683 0
M  V30 30107 N 3140.96 1.3882 0.746109 0
M  V30 30108 C 3142.24 1.25953 1.4965 0
M  V30 30109 C 3142.62 -0.135796 2.10663 0
M  V30 30110 O 3141.97 -1.14601 1.97684 0
M  V30 30111 C 3142.18 2.37541 2.55686 0
M  V30 30112 C 3143.53 2.76326 3.2238 0
M  V30 30113 O 3144.55 2.36909 2.65994 0
M  V30 30114 O 3143.41 3.44327 4.24384 0
M  V30 30115 H 3140.5 0.49297 0.66401 0
M  V30 30116 H 3143.05 1.50666 0.780882 0
M  V30 30117 H 3141.82 3.30871 2.08903 0
M  V30 30118 H 3141.44 2.14433 3.3482 0
M  V30 30119 N 3142.44 -0.975103 1.23812 0
M  V30 30120 C 3143.67 -1.75222 1.10022 0
M  V30 30121 C 3144.08 -1.85567 -0.347878 0
M  V30 30122 O 3143.44 -1.33867 -1.2404 0
M  V30 30123 C 3143.49 -3.17647 1.72577 0
M  V30 30124 O 3143.21 -3.0783 3.11725 0
M  V30 30125 C 3144.71 -4.11729 1.64299 0
M  V30 30126 H 3141.93 -0.549721 0.38477 0
M  V30 30127 H 3144.48 -1.22473 1.6377 0
M  V30 30128 H 3142.63 -3.67405 1.2285 0
M  V30 30129 H 3143.05 -3.97527 3.42159 0
M  V30 30130 H 3144.52 -5.09349 2.12763 0
M  V30 30131 H 3145 -4.35044 0.602799 0
M  V30 30132 H 3145.6 -3.67876 2.13418 0
M  V30 30133 N 3143.92 -1.05068 -1.17467 0
M  V30 30134 C 3145.2 -0.673905 -1.83624 0
M  V30 30135 C 3145.58 0.845837 -1.93414 0
M  V30 30136 O 3144.92 1.75129 -1.46773 0
M  V30 30137 C 3145.13 -1.36145 -3.2135 0
M  V30 30138 C 3146.48 -1.4987 -3.97271 0
M  V30 30139 O 3147.51 -1.32036 -3.30825 0
M  V30 30140 O 3146.36 -1.79022 -5.16346 0
M  V30 30141 H 3143.46 -0.237069 -0.792292 0
M  V30 30142 H 3146 -1.15019 -1.24774 0
M  V30 30143 H 3144.78 -2.39832 -3.09186 0
M  V30 30144 H 3144.4 -0.874432 -3.87865 0
M  V30 30145 N 3145.4 1.33878 -0.831529 0
M  V30 30146 C 3146.31 2.33135 -0.261729 0
M  V30 30147 C 3147.32 1.63017 0.608401 0
M  V30 30148 O 3148.5 1.94724 0.514263 0
M  V30 30149 C 3145.56 3.42149 0.559897 0
M  V30 30150 C 3144.62 4.28002 -0.333644 0
M  V30 30151 C 3143.86 5.31809 0.448863 0
M  V30 30152 O 3144.08 5.45058 1.68131 0
M  V30 30153 O 3143.01 6.0165 -0.173302 0
M  V30 30154 H 3146.84 2.83715 -1.08348 0
M  V30 30155 H 3144.43 1.37089 -0.593873 0
M  V30 30156 H 3146.31 4.08693 1.02705 0
M  V30 30157 H 3144.98 2.93798 1.35883 0
M  V30 30158 H 3143.89 3.64351 -0.84848 0
M  V30 30159 H 3145.22 4.79816 -1.09715 0
M  V30 30160 N 3146.87 0.587281 1.46249 0
M  V30 30161 C 3148.11 0.0773528 2.04254 0
M  V30 30162 C 3148.48 -1.26045 1.44833 0
M  V30 30163 O 3149.68 -1.85988 1.94066 0
M  V30 30164 C 3147.95 0.0173441 3.57396 0
M  V30 30165 S 3149.51 -0.434345 4.36645 0
M  V30 30166 H 3146.33 0.0396907 0.709891 0
M  V30 30167 H 3148.93 0.78081 1.79231 0
M  V30 30168 H 3147.63 0.994865 3.98159 0
M  V30 30169 H 3147.16 -0.708742 3.86963 0
M  V30 30170 H 3149.18 -1.68815 4.666 0
M  V30 30171 N 3148.35 -1.54206 0.325309 0
M  V30 30172 C 3149.58 -2.05482 -0.281382 0
M  V30 30173 C 3150 -1.1998 -1.44867 0
M  V30 30174 O 3149.36 -0.209306 -1.80088 0
M  V30 30175 C 3149.41 -3.53899 -0.691967 0
M  V30 30176 O 3148.51 -3.71328 -1.79414 0
M  V30 30177 H 3147.85 -0.662079 -0.0504756 0
M  V30 30178 H 3150.38 -1.99028 0.474226 0
M  V30 30179 H 3150.39 -3.962 -0.974149 0
M  V30 30180 H 3149.07 -4.15585 0.161783 0
M  V30 30181 H 3147.65 -3.40932 -1.51063 0
M  V30 30182 N 3149.83 -0.0535194 -1.57509 0
M  V30 30183 C 3151.08 0.620657 -1.93069 0
M  V30 30184 C 3151.41 1.70356 -0.932343 0
M  V30 30185 O 3150.69 1.94456 0.0413051 0
M  V30 30186 C 3150.97 1.21457 -3.38999 0
M  V30 30187 C 3150.82 0.139571 -4.49583 0
M  V30 30188 C 3152.14 2.12552 -3.8537 0
M  V30 30189 H 3149.26 0.22415 -0.702087 0
M  V30 30190 H 3151.9 -0.115763 -1.89647 0
M  V30 30191 H 3150.05 1.8422 -3.42046 0
M  V30 30192 H 3151.72 -0.492492 -4.58664 0
M  V30 30193 H 3149.97 -0.532081 -4.30524 0
M  V30 30194 H 3150.64 0.595191 -5.48782 0
M  V30 30195 H 3153.11 1.59748 -3.84213 0
M  V30 30196 H 3151.99 2.5105 -4.88124 0
M  V30 30197 H 3152.25 3.02655 -3.22261 0
M  V30 30198 N 3151.31 1.56059 0.219886 0
M  V30 30199 C 3152.56 1.78795 0.942168 0
M  V30 30200 C 3152.88 0.622316 1.84803 0
M  V30 30201 O 3152.15 -0.360701 1.92551 0
M  V30 30202 H 3150.73 0.659462 0.350884 0
M  V30 30203 H 3153.39 1.93522 0.231342 0
M  V30 30204 H 3152.49 2.71005 1.54799 0
M  V30 30205 N 3152.79 -0.486655 1.49898 0
M  V30 30206 C 3153.74 -1.58378 1.64013 0
M  V30 30207 C 3154.72 -1.53089 0.495242 0
M  V30 30208 O 3155.91 -1.60376 0.748904 0
M  V30 30209 C 3153.04 -2.96915 1.72326 0
M  V30 30210 C 3152.13 -3.07147 2.9244 0
M  V30 30211 N 3152.52 -2.87231 4.16331 0
M  V30 30212 C 3150.82 -3.38266 2.90675 0
M  V30 30213 C 3151.52 -3.02022 4.97149 0
M  V30 30214 N 3150.49 -3.31536 4.30795 0
M  V30 30215 H 3154.3 -1.41656 2.57509 0
M  V30 30216 H 3151.81 -0.69308 1.46868 0
M  V30 30217 H 3153.81 -3.75781 1.80539 0
M  V30 30218 H 3152.47 -3.14696 0.799779 0
M  V30 30219 H 3153.48 -2.6312 4.46081 0
M  V30 30220 H 3150.16 -3.62133 2.07764 0
M  V30 30221 H 3151.55 -2.90995 6.05616 0
M  V30 30222 N 3154.27 -1.39214 -0.738737 0
M  V30 30223 C 3155.68 -1.32351 -1.31682 0
M  V30 30224 C 3156.03 0.0138696 -1.96195 0
M  V30 30225 O 3155.15 0.915991 -1.96058 0
M  V30 30226 C 3155.75 -2.39695 -2.3944 0
M  V30 30227 C 3154.31 -2.36365 -2.92931 0
M  V30 30228 C 3153.45 -2.21779 -1.66461 0
M  V30 30229 H 3156.4 -1.49356 -0.536517 0
M  V30 30230 H 3156.43 -2.06268 -3.1974 0
M  V30 30231 H 3155.94 -3.37019 -1.92457 0
M  V30 30232 H 3154.04 -1.42668 -3.44204 0
M  V30 30233 H 3154.15 -3.31079 -3.463 0
M  V30 30234 H 3152.52 -1.68887 -1.90654 0
M  V30 30235 H 3153.3 -3.21067 -1.21535 0
M  V30 30236 N 3155.74 0.968523 -1.24328 0
M  V30 30237 C 3156.98 1.72635 -1.09437 0
M  V30 30238 C 3157.35 1.88581 0.360748 0
M  V30 30239 O 3158.55 2.61285 0.631142 0
M  V30 30240 C 3156.82 3.08008 -1.8129 0
M  V30 30241 S 3158.38 3.99222 -1.8212 0
M  V30 30242 H 3155.2 0.593558 -0.39142 0
M  V30 30243 H 3157.8 1.15621 -1.57645 0
M  V30 30244 H 3156.5 2.94062 -2.86279 0
M  V30 30245 H 3156.03 3.70088 -1.33412 0
M  V30 30246 H 3158.05 4.88184 -0.888282 0
M  V30 30247 N 3157.22 1.0569 1.16908 0
M  V30 30248 C 3158.47 0.768442 1.86921 0
M  V30 30249 C 3158.79 -0.706889 1.81736 0
M  V30 30250 O 3158.06 -1.51107 1.24673 0
M  V30 30251 H 3156.64 0.281265 0.692025 0
M  V30 30252 H 3159.3 1.33711 1.41801 0
M  V30 30253 H 3158.4 1.08788 2.92526 0
M  V30 30254 N 3158.7 -1.33435 0.838617 0
M  V30 30255 C 3159.63 -2.28053 0.229046 0
M  V30 30256 C 3160.64 -1.5173 -0.590076 0
M  V30 30257 O 3161.83 -1.73556 -0.417187 0
M  V30 30258 C 3158.93 -3.31672 -0.696193 0
M  V30 30259 C 3158.11 -4.3732 0.0835375 0
M  V30 30260 C 3157.17 -5.20609 -0.765006 0
M  V30 30261 O 3156.19 -5.68833 -0.2043 0
M  V30 30262 N 3157.39 -5.41864 -2.08239 0
M  V30 30263 H 3160.16 -2.81002 1.04201 0
M  V30 30264 H 3157.72 -1.46126 0.697057 0
M  V30 30265 H 3159.71 -3.84295 -1.26883 0
M  V30 30266 H 3158.28 -2.79001 -1.40987 0
M  V30 30267 H 3157.5 -3.852 0.837548 0
M  V30 30268 H 3158.79 -5.05012 0.619701 0
M  V30 30269 H 3158.19 -5.04386 -2.56147 0
M  V30 30270 H 3156.74 -5.97545 -2.60352 0
M  V30 30271 N 3160.18 -0.595029 -1.45935 0
M  V30 30272 C 3161.43 -0.0851723 -2.0192 0
M  V30 30273 C 3161.75 1.2841 -1.46751 0
M  V30 30274 O 3161.02 1.84558 -0.656906 0
M  V30 30275 H 3159.6 -0.0284957 -0.746456 0
M  V30 30276 H 3162.26 -0.773592 -1.7889 0
M  V30 30277 H 3161.35 -0.025455 -3.1209 0
M  V30 30278 N 3161.66 1.54031 -0.333483 0
M  V30 30279 C 3162.88 2.0516 0.267777 0
M  V30 30280 C 3163.3 1.20906 1.45007 0
M  V30 30281 O 3162.66 0.242026 1.80888 0
M  V30 30282 C 3162.71 3.54803 0.692618 0
M  V30 30283 O 3162.43 4.35858 -0.442655 0
M  V30 30284 C 3163.93 4.22063 1.35565 0
M  V30 30285 H 3161.15 0.668865 0.0534807 0
M  V30 30286 H 3163.69 1.98725 -0.48255 0
M  V30 30287 H 3161.85 3.61493 1.3929 0
M  V30 30288 H 3162.26 5.24393 -0.106007 0
M  V30 30289 H 3163.74 5.28189 1.60376 0
M  V30 30290 H 3164.21 3.73787 2.30607 0
M  V30 30291 H 3164.82 4.19539 0.697674 0
M  V30 30292 N 3163.13 0.0618717 1.57479 0
M  V30 30293 C 3164.37 -0.613275 1.94983 0
M  V30 30294 C 3164.74 -1.67373 0.940759 0
M  V30 30295 O 3165.94 -2.40372 1.20311 0
M  V30 30296 C 3164.21 -1.18424 3.3721 0
M  V30 30297 S 3165.77 -1.87589 3.96681 0
M  V30 30298 H 3162.59 -0.201084 0.681972 0
M  V30 30299 H 3165.19 0.133362 1.95045 0
M  V30 30300 H 3163.89 -0.400451 4.08442 0
M  V30 30301 H 3163.42 -1.96745 3.40668 0
M  V30 30302 H 3165.44 -3.15747 3.82777 0
M  V30 30303 N 3164.61 -1.56173 -0.211607 0
M  V30 30304 C 3165.84 -1.83741 -0.951151 0
M  V30 30305 C 3166.26 -0.642283 -1.77539 0
M  V30 30306 O 3165.61 0.389143 -1.78303 0
M  V30 30307 C 3165.66 -3.09936 -1.86069 0
M  V30 30308 O 3165.38 -4.24839 -1.06976 0
M  V30 30309 C 3166.89 -3.50563 -2.7133 0
M  V30 30310 H 3164.11 -0.610565 -0.278301 0
M  V30 30311 H 3166.65 -2.03271 -0.223836 0
M  V30 30312 H 3164.8 -2.92352 -2.54184 0
M  V30 30313 H 3165.22 -4.96593 -1.68806 0
M  V30 30314 H 3166.69 -4.41873 -3.30835 0
M  V30 30315 H 3167.17 -2.72779 -3.44221 0
M  V30 30316 H 3167.78 -3.70622 -2.08614 0
M  V30 30317 N 3166.09 0.478699 -1.50154 0
M  V30 30318 C 3167.04 1.59841 -1.68978 0
M  V30 30319 C 3168.03 1.60029 -0.555619 0
M  V30 30320 O 3169.24 1.64269 -0.735904 0
M  V30 30321 H 3165.61 0.530264 -0.53322 0
M  V30 30322 H 3167.58 1.41124 -2.62919 0
M  V30 30323 C 3166.33 2.97835 -1.79414 0
M  V30 30324 H 3165.66 2.98406 -2.66071 0
M  V30 30325 H 3167.1 3.75659 -1.96613 0
M  V30 30326 C 3165.56 3.32479 -0.543985 0
M  V30 30327 O 3166.09 4.00421 0.320305 0
M  V30 30328 N 3164.29 2.8783 -0.400268 0
M  V30 30329 H 3163.84 2.32714 -1.10462 0
M  V30 30330 H 3163.8 3.11375 0.435057 0
M  V30 30331 N 3167.57 1.39603 0.731343 0
M  V30 30332 C 3168.81 1.37229 1.49318 0
M  V30 30333 C 3169.15 -0.0306161 1.94176 0
M  V30 30334 O 3168.42 -0.996265 1.67047 0
M  V30 30335 C 3168.71 2.34789 2.73031 0
M  V30 30336 C 3168.56 3.84038 2.34169 0
M  V30 30337 C 3169.88 2.30122 3.75142 0
M  V30 30338 H 3167 0.499792 0.541643 0
M  V30 30339 H 3169.64 1.70623 0.835938 0
M  V30 30340 H 3167.79 2.06443 3.2911 0
M  V30 30341 H 3169.46 4.23148 1.83693 0
M  V30 30342 H 3167.7 4.00636 1.66354 0
M  V30 30343 H 3168.37 4.47793 3.22778 0
M  V30 30344 H 3170.85 2.55195 3.28656 0
M  V30 30345 H 3169.73 3.00459 4.59365 0
M  V30 30346 H 3169.99 1.30748 4.22324 0
M  V30 30347 N 3169.05 -0.961916 1.2484 0
M  V30 30348 C 3170.3 -1.69997 1.08553 0
M  V30 30349 C 3170.61 -1.91979 -0.374611 0
M  V30 30350 O 3171.81 -2.63411 -0.657775 0
M  V30 30351 C 3170.27 -3.06014 1.8943 0
M  V30 30352 C 3169.88 -2.91854 3.3989 0
M  V30 30353 C 3171.62 -3.83652 1.81691 0
M  V30 30354 C 3169.53 -4.23215 4.13089 0
M  V30 30355 H 3168.46 -0.637509 0.402614 0
M  V30 30356 H 3171.11 -1.07143 1.48972 0
M  V30 30357 H 3169.49 -3.6973 1.41829 0
M  V30 30358 H 3170.67 -2.37114 3.95112 0
M  V30 30359 H 3168.98 -2.27677 3.48644 0
M  V30 30360 H 3171.58 -4.80935 2.33678 0
M  V30 30361 H 3171.92 -4.08864 0.783319 0
M  V30 30362 H 3172.45 -3.26672 2.27002 0
M  V30 30363 H 3169.19 -4.03194 5.16831 0
M  V30 30364 H 3168.71 -4.77749 3.62652 0
M  V30 30365 H 3170.39 -4.91801 4.20405 0
M  V30 30366 N 3170.52 -1.06308 -1.16346 0
M  V30 30367 C 3171.77 -0.778344 -1.86511 0
M  V30 30368 C 3172.09 0.697241 -1.82109 0
M  V30 30369 O 3171.36 1.50444 -1.25473 0
M  V30 30370 H 3169.94 -0.284931 -0.690524 0
M  V30 30371 H 3172.61 -1.34461 -1.4109 0
M  V30 30372 H 3171.7 -1.10338 -2.91945 0
M  V30 30373 N 3172 1.32989 -0.845682 0
M  V30 30374 C 3173.25 1.97167 -0.443809 0
M  V30 30375 C 3173.57 1.67294 1.00189 0
M  V30 30376 O 3172.84 0.975427 1.69889 0
M  V30 30377 H 3171.42 0.729416 -0.161124 0
M  V30 30378 H 3174.08 1.62231 -1.08014 0
M  V30 30379 H 3173.18 3.06636 -0.581467 0
M  V30 30380 N 3173.48 0.60276 1.45618 0
M  V30 30381 C 3174.73 0.0960692 2.02272 0
M  V30 30382 C 3175.06 -1.27156 1.47179 0
M  V30 30383 O 3174.31 -1.85124 0.634626 0
M  V30 30384 C 3174.61 0.00164192 3.574 0
M  V30 30385 C 3174.28 1.3043 4.31624 0
M  V30 30386 C 3172.94 1.66114 4.51619 0
M  V30 30387 C 3175.29 2.16543 4.74087 0
M  V30 30388 C 3172.62 2.87672 5.11333 0
M  V30 30389 C 3174.97 3.37346 5.35146 0
M  V30 30390 C 3173.63 3.73288 5.53365 0
M  V30 30391 H 3172.9 0.0351542 0.740166 0
M  V30 30392 H 3175.55 0.783412 1.74742 0
M  V30 30393 H 3173.86 -0.76894 3.8418 0
M  V30 30394 H 3175.55 -0.406478 3.98935 0
M  V30 30395 H 3172.14 1.01654 4.1637 0
M  V30 30396 H 3176.33 1.90274 4.58377 0
M  V30 30397 H 3171.58 3.15632 5.23628 0
M  V30 30398 H 3175.76 4.04326 5.67004 0
M  V30 30399 H 3173.38 4.67567 5.99404 0
M  V30 30400 N 3174.96 -1.53852 0.341647 0
M  V30 30401 C 3175.87 -2.28661 -0.524515 0
M  V30 30402 C 3176.88 -1.33699 -1.11358 0
M  V30 30403 O 3178.06 -1.66734 -1.12967 0
M  V30 30404 C 3175.13 -3.04344 -1.6606 0
M  V30 30405 C 3174.19 -4.14928 -1.10151 0
M  V30 30406 C 3173.42 -4.86992 -2.18345 0
M  V30 30407 O 3173.64 -4.5871 -3.3903 0
M  V30 30408 O 3172.58 -5.73487 -1.82746 0
M  V30 30409 H 3176.4 -3.03585 0.0835547 0
M  V30 30410 H 3173.99 -1.49018 0.106753 0
M  V30 30411 H 3175.87 -3.51679 -2.32164 0
M  V30 30412 H 3174.54 -2.32279 -2.25451 0
M  V30 30413 H 3173.45 -3.71901 -0.405044 0
M  V30 30414 H 3174.78 -4.89089 -0.552481 0
M  V30 30415 N 3176.44 -0.0702223 -1.57443 0
M  V30 30416 C 3177.68 0.602926 -1.95305 0
M  V30 30417 C 3178.04 1.66872 -0.949622 0
M  V30 30418 O 3179.24 2.3973 -1.21584 0
M  V30 30419 C 3177.51 1.16634 -3.37833 0
M  V30 30420 S 3179.07 1.85483 -3.9767 0
M  V30 30421 H 3175.89 0.197464 -0.683029 0
M  V30 30422 H 3178.49 -0.143704 -1.94971 0
M  V30 30423 H 3177.2 0.378784 -4.08648 0
M  V30 30424 H 3176.73 1.94936 -3.41707 0
M  V30 30425 H 3178.74 3.13712 -3.84446 0
M  V30 30426 N 3177.91 1.56283 0.203321 0
M  V30 30427 C 3178.88 1.93041 1.23562 0
M  V30 30428 C 3179.88 0.810711 1.38867 0
M  V30 30429 O 3181.07 1.07824 1.3682 0
M  V30 30430 C 3178.2 2.19725 2.60641 0
M  V30 30431 H 3179.39 2.85387 0.921642 0
M  V30 30432 H 3176.95 1.49846 0.444504 0
M  V30 30433 H 3177.68 1.2999 2.97108 0
M  V30 30434 H 3177.47 3.01312 2.50906 0
M  V30 30435 H 3178.96 2.49196 3.35099 0
M  V30 30436 N 3179.39 -0.470729 1.50406 0
M  V30 30437 C 3180.63 -1.23263 1.63051 0
M  V30 30438 C 3181 -1.89249 0.323848 0
M  V30 30439 O 3182.2 -2.66819 0.325738 0
M  V30 30440 C 3180.47 -2.24818 2.77834 0
M  V30 30441 S 3182.03 -3.09942 3.10614 0
M  V30 30442 H 3178.85 -0.418488 0.574794 0
M  V30 30443 H 3181.45 -0.529586 1.8819 0
M  V30 30444 H 3180.15 -1.74923 3.71255 0
M  V30 30445 H 3179.68 -2.9975 2.54781 0
M  V30 30446 H 3181.7 -4.25982 2.54468 0
M  V30 30447 N 3180.87 -1.39989 -0.72393 0
M  V30 30448 C 3181.83 -1.39353 -1.81971 0
M  V30 30449 C 3182.83 -0.28873 -1.58187 0
M  V30 30450 O 3184.02 -0.54721 -1.65382 0
M  V30 30451 C 3181.16 -1.17706 -3.19935 0
M  V30 30452 H 3182.35 -2.36871 -1.83935 0
M  V30 30453 H 3179.9 -1.25716 -0.92872 0
M  V30 30454 H 3180.64 -0.209149 -3.23625 0
M  V30 30455 H 3180.42 -1.97725 -3.38596 0
M  V30 30456 H 3181.91 -1.20029 -3.99979 0
M  V30 30457 N 3182.35 0.955282 -1.25348 0
M  V30 30458 C 3183.63 1.67607 -1.00832 0
M  V30 30459 C 3184.01 2.05901 0.465639 0
M  V30 30460 O 3183.35 1.77185 1.44284 0
M  V30 30461 C 3183.56 2.89883 -1.94342 0
M  V30 30462 C 3184.91 3.6185 -2.22148 0
M  V30 30463 O 3185.94 2.99963 -1.92095 0
M  V30 30464 O 3184.8 4.73284 -2.73248 0
M  V30 30465 H 3181.89 0.733318 -0.382327 0
M  V30 30466 H 3184.44 1.00826 -1.365 0
M  V30 30467 H 3183.21 2.58371 -2.93871 0
M  V30 30468 H 3182.83 3.64394 -1.59068 0
M  V30 30469 N 3183.83 1.06924 1.1578 0
M  V30 30470 C 3185.08 0.788224 1.86095 0
M  V30 30471 C 3185.4 -0.687573 1.82476 0
M  V30 30472 O 3184.67 -1.49776 1.26269 0
M  V30 30473 H 3183.25 0.288589 0.689003 0
M  V30 30474 H 3185.91 1.35207 1.40375 0
M  V30 30475 H 3185 1.11885 2.91356 0
M  V30 30476 N 3185.31 -1.32538 0.852723 0
M  V30 30477 C 3186.55 -1.97318 0.455158 0
M  V30 30478 C 3186.88 -1.67491 -0.988784 0
M  V30 30479 O 3186.14 -0.954513 -1.70844 0
M  V30 30480 C 3186.43 -3.51645 0.638819 0
M  V30 30481 C 3186.1 -4.01454 2.05294 0
M  V30 30482 C 3184.76 -4.14767 2.43971 0
M  V30 30483 C 3187.11 -4.27884 2.97598 0
M  V30 30484 C 3184.44 -4.51852 3.74228 0
M  V30 30485 C 3186.79 -4.66427 4.27351 0
M  V30 30486 C 3185.46 -4.77946 4.65965 0
M  V30 30487 H 3184.73 -0.722039 0.166554 0
M  V30 30488 H 3187.38 -1.57975 1.08241 0
M  V30 30489 H 3185.68 -3.91734 -0.0716705 0
M  V30 30490 H 3187.38 -3.9979 0.311289 0
M  V30 30491 H 3183.97 -3.91576 1.7426 0
M  V30 30492 H 3188.15 -4.17109 2.68949 0
M  V30 30493 H 3183.41 -4.58965 4.03932 0
M  V30 30494 H 3187.58 -4.85832 4.98939 0
M  V30 30495 H 3185.21 -5.06439 5.66943 0
M  V30 30496 N 3186.78 -0.610474 -1.45296 0
M  V30 30497 C 3187.69 0.108434 -2.34349 0
M  V30 30498 C 3188.71 0.85737 -1.51411 0
M  V30 30499 O 3189.89 0.814304 -1.84204 0
M  V30 30500 C 3186.95 1.09138 -3.29074 0
M  V30 30501 C 3186.01 0.344089 -4.27919 0
M  V30 30502 C 3185.24 1.28021 -5.18118 0
M  V30 30503 O 3185.47 2.51815 -5.11806 0
M  V30 30504 O 3184.4 0.775716 -5.9688 0
M  V30 30505 H 3188.23 -0.623474 -2.97231 0
M  V30 30506 H 3185.81 -0.370725 -1.44727 0
M  V30 30507 H 3187.69 1.65744 -3.87436 0
M  V30 30508 H 3186.37 1.80427 -2.68752 0
M  V30 30509 H 3185.28 -0.264502 -3.73164 0
M  V30 30510 H 3186.61 -0.328362 -4.91103 0
M  V30 30511 N 3188.26 1.53669 -0.349801 0
M  V30 30512 C 3189.67 1.86227 0.132783 0
M  V30 30513 C 3190.02 1.27087 1.49477 0
M  V30 30514 O 3189.15 0.586826 2.08291 0
M  V30 30515 C 3189.74 3.37893 0.247716 0
M  V30 30516 C 3188.3 3.70307 0.674538 0
M  V30 30517 C 3187.45 2.76663 -0.187918 0
M  V30 30518 H 3190.4 1.48142 -0.569174 0
M  V30 30519 H 3190.42 3.65025 1.07412 0
M  V30 30520 H 3189.93 3.80908 -0.743702 0
M  V30 30521 H 3188.03 3.3284 1.67476 0
M  V30 30522 H 3188.15 4.76886 0.460093 0
M  V30 30523 H 3186.51 2.52411 0.340734 0
M  V30 30524 H 3187.29 3.22508 -1.17658 0
M  V30 30525 N 3189.74 0.0785709 1.57404 0
M  V30 30526 C 3190.99 -0.587826 1.93362 0
M  V30 30527 C 3191.31 -1.69739 0.959886 0
M  V30 30528 O 3190.58 -1.95898 0.00915174 0
M  V30 30529 H 3189.16 -0.220129 0.713829 0
M  V30 30530 H 3191.82 0.13802 1.94411 0
M  V30 30531 H 3190.92 -1.00875 2.95348 0
M  V30 30532 N 3191.22 -1.56389 -0.19503 0
M  V30 30533 C 3192.15 -1.97577 -1.24441 0
M  V30 30534 C 3193.13 -0.847743 -1.4747 0
M  V30 30535 O 3194.31 -1.11208 -1.59206 0
M  V30 30536 C 3191.44 -2.31533 -2.58862 0
M  V30 30537 C 3190.4 -3.47075 -2.50445 0
M  V30 30538 C 3189.72 -3.66707 -3.8914 0
M  V30 30539 C 3191.02 -4.81259 -2.02945 0
M  V30 30540 H 3192.72 -2.85486 -0.902128 0
M  V30 30541 H 3190.26 -1.37351 -0.432516 0
M  V30 30542 H 3192.22 -2.58942 -3.32456 0
M  V30 30543 H 3190.94 -1.40507 -2.94831 0
M  V30 30544 H 3189.6 -3.19757 -1.79307 0
M  V30 30545 H 3189.25 -2.73012 -4.22461 0
M  V30 30546 H 3188.95 -4.44436 -3.84383 0
M  V30 30547 H 3190.47 -3.96492 -4.64356 0
M  V30 30548 H 3191.89 -5.07699 -2.66297 0
M  V30 30549 H 3190.28 -5.62458 -2.0919 0
M  V30 30550 H 3191.35 -4.74838 -0.982674 0
M  V30 30551 N 3192.7 0.462746 -1.50653 0
M  V30 30552 C 3193.63 1.57874 -1.64776 0
M  V30 30553 C 3194.61 1.5486 -0.495691 0
M  V30 30554 O 3195.79 1.74361 -0.716279 0
M  V30 30555 C 3192.92 2.96457 -1.63802 0
M  V30 30556 C 3191.96 3.17594 -2.84669 0
M  V30 30557 S 3192.8 2.966 -4.45857 0
M  V30 30558 C 3193.95 4.3751 -4.47589 0
M  V30 30559 H 3194.19 1.45657 -2.59174 0
M  V30 30560 H 3191.72 0.650674 -1.4002 0
M  V30 30561 H 3193.68 3.7635 -1.63924 0
M  V30 30562 H 3192.34 3.06057 -0.706239 0
M  V30 30563 H 3191.53 4.18855 -2.80316 0
M  V30 30564 H 3191.13 2.45487 -2.82157 0
M  V30 30565 H 3193.42 5.30288 -4.21665 0
M  V30 30566 H 3194.37 4.46905 -5.49256 0
M  V30 30567 H 3194.78 4.19979 -3.77198 0
M  V30 30568 N 3194.17 1.40371 0.716495 0
M  V30 30569 C 3195.11 1.34966 1.84009 0
M  V30 30570 C 3196.09 0.220198 1.61102 0
M  V30 30571 O 3197.27 0.403708 1.84126 0
M  V30 30572 C 3194.4 1.10023 3.20332 0
M  V30 30573 C 3193.44 2.25408 3.62068 0
M  V30 30574 S 3194.28 3.87797 3.69288 0
M  V30 30575 C 3195.43 3.65115 5.08371 0
M  V30 30576 H 3195.66 2.30055 1.88314 0
M  V30 30577 H 3193.2 1.26646 0.883185 0
M  V30 30578 H 3195.16 0.963167 3.99041 0
M  V30 30579 H 3193.82 0.165895 3.13662 0
M  V30 30580 H 3193.01 2.03595 4.61048 0
M  V30 30581 H 3192.61 2.35413 2.90614 0
M  V30 30582 H 3194.9 3.23526 5.95262 0
M  V30 30583 H 3195.85 4.63622 5.35219 0
M  V30 30584 H 3196.25 2.98821 4.78922 0
M  V30 30585 N 3195.65 -0.948621 1.25853 0
M  V30 30586 C 3196.88 -1.72849 1.13714 0
M  V30 30587 C 3197.3 -1.86264 -0.308438 0
M  V30 30588 O 3196.65 -1.36468 -1.21173 0
M  V30 30589 C 3196.7 -3.13915 1.79276 0
M  V30 30590 O 3196.42 -3.01149 3.18184 0
M  V30 30591 C 3197.93 -4.08151 1.72995 0
M  V30 30592 H 3195.15 -0.541436 0.396344 0
M  V30 30593 H 3197.69 -1.18971 1.66331 0
M  V30 30594 H 3195.84 -3.64717 1.30615 0
M  V30 30595 H 3196.26 -3.9018 3.50514 0
M  V30 30596 H 3197.73 -5.04721 2.23519 0
M  V30 30597 H 3198.21 -4.33667 0.694942 0
M  V30 30598 H 3198.82 -3.63267 2.21173 0
M  V30 30599 N 3197.13 -1.07536 -1.15212 0
M  V30 30600 C 3198.37 -0.809042 -1.87707 0
M  V30 30601 C 3198.73 0.653034 -1.80553 0
M  V30 30602 O 3199.94 1.03448 -2.48097 0
M  V30 30603 C 3198.21 -1.30558 -3.327 0
M  V30 30604 S 3199.77 -1.17022 -4.22908 0
M  V30 30605 H 3196.58 -0.29313 -0.647762 0
M  V30 30606 H 3199.19 -1.37485 -1.3899 0
M  V30 30607 H 3197.89 -2.36433 -3.35451 0
M  V30 30608 H 3197.42 -0.735062 -3.86472 0
M  V30 30609 H 3199.44 -0.108923 -4.9608 0
M  V30 30610 N 3198.61 1.32084 -0.85974 0
M  V30 30611 C 3199.52 2.32528 -0.311121 0
M  V30 30612 C 3200.53 1.64271 0.573686 0
M  V30 30613 O 3201.71 1.95771 0.472843 0
M  V30 30614 C 3198.78 3.4326 0.487196 0
M  V30 30615 C 3197.84 4.27198 -0.424354 0
M  V30 30616 C 3197.07 5.32642 0.335957 0
M  V30 30617 O 3197.29 5.48502 1.56531 0
M  V30 30618 O 3196.23 6.01147 -0.300882 0
M  V30 30619 H 3200.05 2.81353 -1.14341 0
M  V30 30620 H 3197.64 1.35799 -0.622818 0
M  V30 30621 H 3199.52 4.10779 0.940131 0
M  V30 30622 H 3198.19 2.96615 1.2962 0
M  V30 30623 H 3197.1 3.62469 -0.925573 0
M  V30 30624 H 3198.43 4.77381 -1.19868 0
M  V30 30625 N 3200.09 0.618171 1.4497 0
M  V30 30626 C 3201.36 0.0490238 1.95539 0
M  V30 30627 C 3201.74 -1.42176 1.56042 0
M  V30 30628 O 3201.09 -2.12965 0.828128 0
M  V30 30629 C 3201.3 0.258254 3.48043 0
M  V30 30630 C 3202.65 0.144616 4.24354 0
M  V30 30631 O 3203.67 0.188932 3.55699 0
M  V30 30632 O 3202.53 0.038615 5.46486 0
M  V30 30633 H 3199.63 -0.0297111 0.826466 0
M  V30 30634 H 3202.17 0.688971 1.55085 0
M  V30 30635 H 3200.94 1.27932 3.69796 0
M  V30 30636 H 3200.57 -0.416453 3.95413 0
M  V30 30637 N 3201.56 -1.53481 0.357946 0
M  V30 30638 C 3202.81 -2.00324 -0.235206 0
M  V30 30639 C 3203.13 -1.24946 -1.50492 0
M  V30 30640 O 3204.33 -1.62339 -2.1762 0
M  V30 30641 C 3202.79 -3.56822 -0.469685 0
M  V30 30642 C 3202.4 -4.4107 0.784955 0
M  V30 30643 C 3204.14 -4.12041 -1.02091 0
M  V30 30644 C 3202.05 -5.89105 0.520481 0
M  V30 30645 H 3200.98 -0.748407 -0.0916685 0
M  V30 30646 H 3203.63 -1.77232 0.475505 0
M  V30 30647 H 3202.01 -3.76037 -1.24146 0
M  V30 30648 H 3203.18 -4.33629 1.55894 0
M  V30 30649 H 3201.5 -3.96916 1.25885 0
M  V30 30650 H 3204.1 -5.20266 -1.23397 0
M  V30 30651 H 3204.44 -3.66157 -1.98077 0
M  V30 30652 H 3204.97 -3.96594 -0.309485 0
M  V30 30653 H 3201.71 -6.39251 1.45046 0
M  V30 30654 H 3201.23 -5.99414 -0.215148 0
M  V30 30655 H 3202.91 -6.46842 0.143119 0
M  V30 30656 N 3203.04 -0.0869173 -1.5736 0
M  V30 30657 C 3204.32 0.620528 -1.85496 0
M  V30 30658 C 3204.7 1.86856 -0.982251 0
M  V30 30659 O 3204.05 2.2844 -0.0524931 0
M  V30 30660 C 3204.26 0.943739 -3.35998 0
M  V30 30661 C 3205.61 1.31072 -4.03863 0
M  V30 30662 O 3206.63 1.03501 -3.40831 0
M  V30 30663 O 3205.49 1.82674 -5.15066 0
M  V30 30664 H 3202.58 0.309684 -0.766828 0
M  V30 30665 H 3205.13 -0.118995 -1.69282 0
M  V30 30666 H 3203.9 0.057994 -3.91257 0
M  V30 30667 H 3203.52 1.73952 -3.57528 0
M  V30 30668 N 3204.52 1.5649 0.186734 0
M  V30 30669 C 3205.43 1.98421 1.25165 0
M  V30 30670 C 3206.45 0.89315 1.49328 0
M  V30 30671 O 3207.62 1.19957 1.61779 0
M  V30 30672 C 3204.69 2.32243 2.57418 0
M  V30 30673 C 3203.75 3.55099 2.41254 0
M  V30 30674 C 3202.98 3.87299 3.67199 0
M  V30 30675 O 3203.2 3.20673 4.71726 0
M  V30 30676 O 3202.14 4.80701 3.62229 0
M  V30 30677 H 3205.96 2.89245 0.925784 0
M  V30 30678 H 3203.55 1.44155 0.392395 0
M  V30 30679 H 3205.43 2.55036 3.35462 0
M  V30 30680 H 3204.11 1.44585 2.89615 0
M  V30 30681 H 3203.01 3.37543 1.61293 0
M  V30 30682 H 3204.35 4.4325 2.13986 0
M  V30 30683 N 3206 -0.45475 1.50897 0
M  V30 30684 C 3207.24 -1.21526 1.64349 0
M  V30 30685 C 3207.6 -1.88895 0.343902 0
M  V30 30686 O 3208.8 -2.66459 0.35402 0
M  V30 30687 C 3207.07 -2.21859 2.80202 0
M  V30 30688 S 3208.63 -3.0663 3.13884 0
M  V30 30689 H 3205.45 -0.412368 0.579201 0
M  V30 30690 H 3208.05 -0.509596 1.88742 0
M  V30 30691 H 3206.76 -1.70975 3.73089 0
M  V30 30692 H 3206.29 -2.97031 2.57946 0
M  V30 30693 H 3208.3 -4.23259 2.58971 0
M  V30 30694 N 3207.48 -1.40749 -0.709041 0
M  V30 30695 C 3208.7 -1.42904 -1.5031 0
M  V30 30696 C 3209.13 -0.0322461 -1.88072 0
M  V30 30697 O 3208.48 0.961283 -1.53717 0
M  V30 30698 C 3208.53 -2.33171 -2.7507 0
M  V30 30699 O 3207.64 -1.77947 -3.72033 0
M  V30 30700 H 3206.98 -0.485546 -0.452925 0
M  V30 30701 H 3209.51 -1.85055 -0.87268 0
M  V30 30702 H 3209.52 -2.48584 -3.23528 0
M  V30 30703 H 3208.19 -3.34668 -2.46921 0
M  V30 30704 H 3206.77 -1.71914 -3.30908 0
M  V30 30705 N 3208.96 0.941933 -1.26354 0
M  V30 30706 C 3209.89 2.05782 -1.10344 0
M  V30 30707 C 3210.87 1.70098 -0.00884555 0
M  V30 30708 O 3212.05 1.93357 -0.180733 0
M  V30 30709 C 3209.18 3.39437 -0.734848 0
M  V30 30710 C 3208.14 3.8918 -1.7811 0
M  V30 30711 C 3207.46 5.19476 -1.26684 0
M  V30 30712 C 3208.76 4.14145 -3.18247 0
M  V30 30713 H 3210.46 2.19435 -2.03688 0
M  V30 30714 H 3208 1.05442 -0.980717 0
M  V30 30715 H 3209.95 4.16966 -0.609726 0
M  V30 30716 H 3208.68 3.25759 0.234297 0
M  V30 30717 H 3207.34 3.13831 -1.89488 0
M  V30 30718 H 3206.99 5.02177 -0.28756 0
M  V30 30719 H 3206.69 5.53727 -1.96622 0
M  V30 30720 H 3208.21 5.99589 -1.15437 0
M  V30 30721 H 3209.62 4.8229 -3.0995 0
M  V30 30722 H 3208.02 4.59677 -3.85768 0
M  V30 30723 H 3209.09 3.19953 -3.6436 0
M  V30 30724 N 3210.43 1.08146 1.1464 0
M  V30 30725 C 3211.38 0.703487 2.21707 0
M  V30 30726 C 3212.38 -0.289505 1.66908 0
M  V30 30727 O 3213.58 -0.152356 1.79354 0
M  V30 30728 H 3209.96 0.20945 0.722243 0
M  V30 30729 H 3211.93 1.61593 2.50859 0
M  V30 30730 C 3210.68 0.126036 3.47471 0
M  V30 30731 H 3210 0.881284 3.89966 0
M  V30 30732 H 3211.44 -0.100663 4.2388 0
M  V30 30733 C 3209.9 -1.1354 3.17191 0
M  V30 30734 O 3210.43 -2.22067 3.34737 0
M  V30 30735 N 3208.63 -1.04474 2.71171 0
M  V30 30736 H 3208.18 -0.161521 2.57093 0
M  V30 30737 H 3208.14 -1.88952 2.51285 0
M  V30 30738 N 3211.91 -1.31626 0.866732 0
M  V30 30739 C 3213.32 -1.79047 0.529064 0
M  V30 30740 C 3213.67 -1.71454 -0.953841 0
M  V30 30741 O 3212.8 -1.28034 -1.7446 0
M  V30 30742 C 3213.39 -3.25104 0.953579 0
M  V30 30743 C 3211.95 -3.70432 0.667619 0
M  V30 30744 C 3211.1 -2.52481 1.14668 0
M  V30 30745 H 3214.05 -1.18754 1.05277 0
M  V30 30746 H 3214.07 -3.79506 0.274911 0
M  V30 30747 H 3213.58 -3.30598 2.03289 0
M  V30 30748 H 3211.68 -3.70442 -0.400467 0
M  V30 30749 H 3211.8 -4.62711 1.24238 0
M  V30 30750 H 3210.16 -2.48319 0.566546 0
M  V30 30751 H 3210.94 -2.60723 2.23335 0
M  V30 30752 N 3213.39 -0.62585 -1.4464 0
M  V30 30753 C 3214.32 0.0691778 -2.33398 0
M  V30 30754 C 3215.3 0.840215 -1.479 0
M  V30 30755 O 3216.49 0.807145 -1.76632 0
M  V30 30756 C 3213.62 1.05494 -3.3089 0
M  V30 30757 C 3212.57 0.395893 -4.26165 0
M  V30 30758 C 3211.9 1.49119 -5.13486 0
M  V30 30759 C 3213.2 -0.694524 -5.17662 0
M  V30 30760 H 3214.89 -0.671976 -2.91762 0
M  V30 30761 H 3212.44 -0.324598 -1.40294 0
M  V30 30762 H 3214.39 1.54986 -3.91864 0
M  V30 30763 H 3213.11 1.82692 -2.70724 0
M  V30 30764 H 3211.77 -0.0783336 -3.66516 0
M  V30 30765 H 3211.42 2.25391 -4.49675 0
M  V30 30766 H 3211.12 1.05562 -5.7804 0
M  V30 30767 H 3212.64 1.98802 -5.7733 0
M  V30 30768 H 3214.06 -0.282919 -5.72601 0
M  V30 30769 H 3212.45 -1.05291 -5.90791 0
M  V30 30770 H 3213.52 -1.5638 -4.58992 0
M  V30 30771 N 3214.87 1.53289 -0.36608 0
M  V30 30772 C 3215.8 2.28678 0.47207 0
M  V30 30773 C 3216.78 1.31127 1.0835 0
M  V30 30774 O 3217.96 1.59997 1.10066 0
M  V30 30775 C 3215.09 3.07639 1.61168 0
M  V30 30776 C 3214.05 4.12883 1.12747 0
M  V30 30777 C 3213.37 4.7993 2.35736 0
M  V30 30778 C 3214.67 5.2187 0.211862 0
M  V30 30779 H 3216.37 2.98989 -0.15689 0
M  V30 30780 H 3213.91 1.43795 -0.0768962 0
M  V30 30781 H 3215.87 3.59127 2.20467 0
M  V30 30782 H 3214.59 2.3502 2.26788 0
M  V30 30783 H 3213.25 3.62341 0.55717 0
M  V30 30784 H 3212.9 4.03882 2.99814 0
M  V30 30785 H 3212.6 5.51048 2.0401 0
M  V30 30786 H 3214.12 5.34212 2.9572 0
M  V30 30787 H 3215.54 5.68857 0.71234 0
M  V30 30788 H 3213.93 6.00098 -0.0145556 0
M  V30 30789 H 3215 4.7913 -0.745837 0
M  V30 30790 N 3216.35 0.0952613 1.57312 0
M  V30 30791 C 3217.59 -0.571778 1.9624 0
M  V30 30792 C 3217.95 -1.6534 0.976049 0
M  V30 30793 O 3219.15 -2.37766 1.25383 0
M  V30 30794 C 3217.42 -1.11244 3.39646 0
M  V30 30795 S 3218.98 -1.79133 4.00571 0
M  V30 30796 H 3215.8 -0.186573 0.686084 0
M  V30 30797 H 3218.4 0.174704 1.94718 0
M  V30 30798 H 3217.1 -0.313724 4.09199 0
M  V30 30799 H 3216.64 -1.89475 3.44765 0
M  V30 30800 H 3218.65 -3.07557 3.89388 0
M  V30 30801 N 3217.82 -1.56587 -0.178432 0
M  V30 30802 C 3218.79 -1.94983 -1.20476 0
M  V30 30803 C 3219.79 -0.832701 -1.3756 0
M  V30 30804 O 3220.98 -1.09987 -1.35087 0
M  V30 30805 C 3218.11 -2.23843 -2.57113 0
M  V30 30806 H 3219.3 -2.86817 -0.876122 0
M  V30 30807 H 3216.85 -1.50534 -0.420608 0
M  V30 30808 H 3217.59 -1.347 -2.95002 0
M  V30 30809 H 3217.37 -3.05265 -2.4608 0
M  V30 30810 H 3218.86 -2.54496 -3.31092 0
M  V30 30811 N 3219.3 0.446741 -1.51136 0
M  V30 30812 C 3220.55 1.19695 -1.63338 0
M  V30 30813 C 3220.88 1.91413 -0.345133 0
M  V30 30814 O 3220.13 1.83861 0.670332 0
M  V30 30815 C 3220.43 2.24565 -2.78038 0
M  V30 30816 C 3220.1 1.69927 -4.17655 0
M  V30 30817 C 3218.76 1.54748 -4.55639 0
M  V30 30818 C 3221.11 1.29657 -5.04815 0
M  V30 30819 C 3218.44 0.977587 -5.78498 0
M  V30 30820 C 3220.79 0.741002 -6.28245 0
M  V30 30821 C 3219.45 0.576039 -6.6501 0
M  V30 30822 H 3218.72 0.437995 -0.597697 0
M  V30 30823 H 3221.37 0.489358 -1.85142 0
M  V30 30824 H 3219.68 3.01327 -2.50418 0
M  V30 30825 H 3221.37 2.82415 -2.8468 0
M  V30 30826 H 3217.96 1.82715 -3.87703 0
M  V30 30827 H 3222.15 1.40208 -4.76083 0
M  V30 30828 H 3217.4 0.837456 -6.05637 0
M  V30 30829 H 3221.58 0.420408 -6.9513 0
M  V30 30830 H 3219.2 0.13231 -7.60085 0
M  V30 30831 N 3220.78 1.41123 0.701567 0
M  V30 30832 C 3222.2 1.23461 1.01141 0
M  V30 30833 C 3222.4 0.119716 2.01144 0
M  V30 30834 O 3221.45 -0.517845 2.47133 0
M  V30 30835 C 3222.76 2.58168 1.54175 0
M  V30 30836 C 3224.31 2.65299 1.66089 0
M  V30 30837 C 3224.79 4.00308 2.22525 0
M  V30 30838 N 3226.28 4.02124 2.29893 0
M  V30 30839 C 3227.01 5.03385 2.74575 0
M  V30 30840 N 3226.51 6.15037 3.18906 0
M  V30 30841 N 3228.3 4.90748 2.74085 0
M  V30 30842 H 3220.45 2.12364 0.0389714 0
M  V30 30843 H 3222.72 0.94463 0.0798682 0
M  V30 30844 H 3222.42 3.40473 0.881528 0
M  V30 30845 H 3222.3 2.80236 2.52483 0
M  V30 30846 H 3224.68 1.83356 2.31224 0
M  V30 30847 H 3224.76 2.47047 0.663417 0
M  V30 30848 H 3224.41 4.82697 1.58007 0
M  V30 30849 H 3224.34 4.15897 3.23013 0
M  V30 30850 H 3226.83 3.21506 1.98601 0
M  V30 30851 H 3227.14 6.8818 3.51608 0
M  V30 30852 H 3225.49 6.18582 3.16829 0
M  V30 30853 H 3228.68 4.02608 2.38797 0
M  V30 30854 H 3228.85 5.69804 3.0859 0
M  V30 30855 N 3222.26 -0.935219 1.26852 0
M  V30 30856 C 3223.5 -1.69673 1.13975 0
M  V30 30857 C 3223.86 -1.89471 -0.310622 0
M  V30 30858 O 3225.06 -2.62867 -0.561645 0
M  V30 30859 C 3223.33 -3.03093 1.89393 0
M  V30 30860 S 3224.89 -3.94253 1.9264 0
M  V30 30861 H 3221.71 -0.582972 0.407019 0
M  V30 30862 H 3224.31 -1.11401 1.60655 0
M  V30 30863 H 3223.02 -2.86369 2.93975 0
M  V30 30864 H 3222.55 -3.6642 1.43177 0
M  V30 30865 H 3224.56 -4.85658 1.0174 0
M  V30 30866 N 3223.74 -1.08752 -1.14065 0
M  V30 30867 C 3224.69 -0.690233 -2.17301 0
M  V30 30868 C 3225.67 0.291921 -1.5823 0
M  V30 30869 O 3226.86 0.10338 -1.76698 0
M  V30 30870 C 3223.99 -0.104896 -3.4314 0
M  V30 30871 C 3223.08 -1.11305 -4.09233 0
M  V30 30872 N 3223.47 -2.29773 -4.50597 0
M  V30 30873 C 3221.77 -0.949611 -4.35773 0
M  V30 30874 C 3222.47 -2.93848 -5.02024 0
M  V30 30875 N 3221.44 -2.2144 -4.96453 0
M  V30 30876 H 3225.25 -1.59231 -2.47028 0
M  V30 30877 H 3222.76 -0.962745 -1.30786 0
M  V30 30878 H 3224.76 0.197704 -4.16431 0
M  V30 30879 H 3223.42 0.792116 -3.1489 0
M  V30 30880 H 3224.43 -2.67407 -4.43524 0
M  V30 30881 H 3221.1 -0.106701 -4.17364 0
M  V30 30882 H 3222.49 -3.9452 -5.43878 0
M  V30 30883 N 3225.21 1.31165 -0.873701 0
M  V30 30884 C 3226.16 2.30369 -0.32139 0
M  V30 30885 C 3227.16 1.59681 0.56554 0
M  V30 30886 O 3228.36 1.74253 0.451226 0
M  V30 30887 H 3224.74 0.747152 -0.0852556 0
M  V30 30888 H 3226.71 2.74423 -1.17196 0
M  V30 30889 C 3225.46 3.44658 0.458955 0
M  V30 30890 H 3224.78 3.99225 -0.214255 0
M  V30 30891 H 3226.22 4.16178 0.810685 0
M  V30 30892 C 3224.68 2.93635 1.65167 0
M  V30 30893 O 3225.21 2.92716 2.751 0
M  V30 30894 N 3223.42 2.49789 1.48506 0
M  V30 30895 H 3222.96 2.50735 0.59074 0
M  V30 30896 H 3222.92 2.16007 2.28448 0
M  V30 30897 N 3226.69 0.633512 1.44307 0
M  V30 30898 C 3227.92 0.1461 2.06384 0
M  V30 30899 C 3228.34 -1.18029 1.47359 0
M  V30 30900 O 3227.69 -1.72447 0.597364 0
M  V30 30901 C 3227.74 0.0277357 3.61489 0
M  V30 30902 O 3227.46 1.30167 4.18316 0
M  V30 30903 C 3228.97 -0.48809 4.40605 0
M  V30 30904 H 3226.19 0.0807749 0.66612 0
M  V30 30905 H 3228.73 0.868589 1.85137 0
M  V30 30906 H 3226.88 -0.645206 3.81989 0
M  V30 30907 H 3227.3 1.14806 5.11781 0
M  V30 30908 H 3228.77 -0.519916 5.49546 0
M  V30 30909 H 3229.25 -1.51561 4.12221 0
M  V30 30910 H 3229.86 0.151683 4.25029 0
M  V30 30911 N 3228.17 -1.53093 0.374204 0
M  V30 30912 C 3229.08 -2.29722 -0.475894 0
M  V30 30913 C 3230.1 -1.36031 -1.08497 0
M  V30 30914 O 3231.27 -1.69093 -1.09405 0
M  V30 30915 C 3228.34 -3.07797 -1.59567 0
M  V30 30916 C 3227.4 -4.17171 -1.01325 0
M  V30 30917 C 3226.63 -4.91514 -2.07966 0
M  V30 30918 O 3226.85 -4.65798 -3.29223 0
M  V30 30919 O 3225.79 -5.77235 -1.7054 0
M  V30 30920 H 3229.61 -3.0334 0.147931 0
M  V30 30921 H 3227.2 -1.48758 0.138338 0
M  V30 30922 H 3229.08 -3.56524 -2.24652 0
M  V30 30923 H 3227.76 -2.37008 -2.20474 0
M  V30 30924 H 3226.66 -3.72676 -0.326067 0
M  V30 30925 H 3228 -4.90151 -0.448613 0
M  V30 30926 N 3229.65 -0.103603 -1.57259 0
M  V30 30927 C 3230.9 0.55699 -1.94273 0
M  V30 30928 C 3231.22 1.6819 -0.986768 0
M  V30 30929 O 3230.49 1.95859 -0.0403162 0
M  V30 30930 H 3229.07 0.208745 -0.717241 0
M  V30 30931 H 3231.73 -0.168932 -1.94167 0
M  V30 30932 H 3230.83 0.961638 -2.96916 0
M  V30 30933 N 3231.13 1.56679 0.170126 0
M  V30 30934 C 3232.35 1.86558 0.906148 0
M  V30 30935 C 3232.78 0.690075 1.74985 0
M  V30 30936 O 3232.13 -0.360831 1.77673 0
M  V30 30937 C 3232.18 3.1486 1.75772 0
M  V30 30938 O 3231.29 2.97167 2.85947 0
M  V30 30939 H 3230.63 0.613593 0.25377 0
M  V30 30940 H 3233.16 2.0391 0.167907 0
M  V30 30941 H 3233.17 3.46295 2.15741 0
M  V30 30942 H 3231.84 4.00028 1.138 0
M  V30 30943 H 3230.42 2.77089 2.49552 0
M  V30 30944 N 3232.6 -0.43872 1.5137 0
M  V30 30945 C 3233.83 -1.20898 1.67533 0
M  V30 30946 C 3234.24 -1.85515 0.371606 0
M  V30 30947 O 3233.59 -1.71447 -0.659671 0
M  V30 30948 C 3233.65 -2.33543 2.73309 0
M  V30 30949 C 3233.31 -1.89305 4.15948 0
M  V30 30950 C 3234.31 -1.39727 5.00772 0
M  V30 30951 C 3231.99 -1.97039 4.6204 0
M  V30 30952 C 3233.99 -0.984662 6.29748 0
M  V30 30953 C 3231.67 -1.5539 5.91014 0
M  V30 30954 C 3232.67 -1.06185 6.74695 0
M  V30 30955 O 3232.36 -0.651266 8.01258 0
M  V30 30956 H 3232.09 -0.370522 0.565411 0
M  V30 30957 H 3234.65 -0.526261 1.98544 0
M  V30 30958 H 3232.88 -3.05088 2.37609 0
M  V30 30959 H 3234.57 -2.95412 2.78364 0
M  V30 30960 H 3235.33 -1.33148 4.66365 0
M  V30 30961 H 3231.21 -2.34284 3.97029 0
M  V30 30962 H 3234.75 -0.599907 6.95016 0
M  V30 30963 H 3230.65 -1.61639 6.24935 0
M  V30 30964 H 3231.42 -0.777239 8.14801 0
M  V30 30965 N 3234.08 -1.41493 -0.694073 0
M  V30 30966 C 3235.01 -1.46232 -1.82039 0
M  V30 30967 C 3235.99 -0.320832 -1.67047 0
M  V30 30968 O 3237.18 -0.532483 -1.86757 0
M  V30 30969 C 3234.31 -1.34525 -3.20188 0
M  V30 30970 C 3233.26 -2.46501 -3.49887 0
M  V30 30971 C 3232.59 -2.19859 -4.87408 0
M  V30 30972 C 3233.89 -3.8884 -3.48713 0
M  V30 30973 H 3235.58 -2.40496 -1.78331 0
M  V30 30974 H 3233.13 -1.15755 -0.856546 0
M  V30 30975 H 3235.08 -1.36452 -3.98696 0
M  V30 30976 H 3233.81 -0.367463 -3.24526 0
M  V30 30977 H 3232.46 -2.43859 -2.7373 0
M  V30 30978 H 3232.11 -1.20419 -4.88373 0
M  V30 30979 H 3231.81 -2.94894 -5.08243 0
M  V30 30980 H 3233.34 -2.23504 -5.68224 0
M  V30 30981 H 3234.75 -3.93189 -4.17223 0
M  V30 30982 H 3233.15 -4.6357 -3.81081 0
M  V30 30983 H 3234.22 -4.16885 -2.47658 0
M  V30 30984 N 3235.56 0.928479 -1.27346 0
M  V30 30985 C 3236.8 1.69066 -1.14874 0
M  V30 30986 C 3237.16 1.89633 0.30057 0
M  V30 30987 O 3238.37 2.63161 0.547697 0
M  V30 30988 C 3236.64 3.02084 -1.90997 0
M  V30 30989 S 3238.2 3.93225 -1.94728 0
M  V30 30990 H 3235.01 0.580805 -0.410105 0
M  V30 30991 H 3237.62 1.10547 -1.61244 0
M  V30 30992 H 3236.32 2.84806 -2.95489 0
M  V30 30993 H 3235.85 3.65656 -1.45118 0
M  V30 30994 H 3237.87 4.85111 -1.04314 0
M  V30 30995 N 3237.04 1.09355 1.13486 0
M  V30 30996 C 3238.27 0.850948 1.88591 0
M  V30 30997 C 3238.68 -0.59773 1.79088 0
M  V30 30998 O 3238.04 -1.4114 1.15697 0
M  V30 30999 C 3238.09 1.27639 3.38217 0
M  V30 31000 O 3237.81 2.66825 3.47471 0
M  V30 31001 C 3239.31 1.06606 4.30291 0
M  V30 31002 H 3236.53 0.306195 0.597064 0
M  V30 31003 H 3239.08 1.45535 1.43665 0
M  V30 31004 H 3237.23 0.715895 3.80728 0
M  V30 31005 H 3237.64 2.84741 4.4048 0
M  V30 31006 H 3239.12 1.41302 5.33608 0
M  V30 31007 H 3239.6 0.0037907 4.392 0
M  V30 31008 H 3240.2 1.61247 3.93547 0
M  V30 31009 N 3238.52 -1.307 0.880644 0
M  V30 31010 C 3239.76 -1.981 0.503553 0
M  V30 31011 C 3240.12 -1.68026 -0.929046 0
M  V30 31012 O 3241.32 -2.28725 -1.41204 0
M  V30 31013 C 3239.59 -3.49101 0.765714 0
M  V30 31014 S 3241.15 -4.36055 0.490078 0
M  V30 31015 H 3237.97 -0.685822 0.187534 0
M  V30 31016 H 3240.57 -1.58895 1.13898 0
M  V30 31017 H 3239.28 -3.6848 1.80694 0
M  V30 31018 H 3238.81 -3.93224 0.117685 0
M  V30 31019 H 3240.82 -4.91613 -0.67315 0
M  V30 31020 N 3240 -0.641156 -1.43969 0
M  V30 31021 C 3241.41 -0.23087 -1.85267 0
M  V30 31022 C 3241.76 1.21995 -1.53661 0
M  V30 31023 O 3240.88 1.92958 -0.979606 0
M  V30 31024 C 3241.48 -0.41223 -3.36283 0
M  V30 31025 C 3240.04 -0.0563666 -3.76358 0
M  V30 31026 C 3239.18 -0.720856 -2.67767 0
M  V30 31027 H 3242.13 -0.845647 -1.34293 0
M  V30 31028 H 3242.16 0.345869 -3.78925 0
M  V30 31029 H 3241.67 -1.46824 -3.59255 0
M  V30 31030 H 3239.77 0.997519 -3.58999 0
M  V30 31031 H 3239.88 -0.473419 -4.76755 0
M  V30 31032 H 3238.25 -0.155209 -2.54227 0
M  V30 31033 H 3239.03 -1.77966 -2.9357 0
M  V30 31034 N 3241.47 1.52892 -0.382318 0
M  V30 31035 C 3242.44 2.24858 0.444041 0
M  V30 31036 C 3243.44 1.26241 0.995982 0
M  V30 31037 O 3244.63 1.50392 0.879087 0
M  V30 31038 C 3241.76 2.99824 1.62229 0
M  V30 31039 H 3242.95 2.99323 -0.185915 0
M  V30 31040 H 3240.5 1.55722 -0.134302 0
M  V30 31041 H 3241.24 2.29642 2.28987 0
M  V30 31042 H 3241.02 3.72199 1.2333 0
M  V30 31043 H 3242.51 3.54485 2.2075 0
M  V30 31044 N 3242.95 0.111941 1.57202 0
M  V30 31045 C 3244.2 -0.546679 1.94566 0
M  V30 31046 C 3244.52 -1.67664 0.995674 0
M  V30 31047 O 3243.79 -1.95834 0.0507025 0
M  V30 31048 H 3242.37 -0.204938 0.718338 0
M  V30 31049 H 3245.03 0.179227 1.94074 0
M  V30 31050 H 3244.13 -0.945879 2.97421 0
M  V30 31051 N 3244.43 -1.56767 -0.161814 0
M  V30 31052 C 3245.66 -1.86403 -0.890921 0
M  V30 31053 C 3246.07 -0.696404 -1.75917 0
M  V30 31054 O 3245.41 0.343432 -1.80461 0
M  V30 31055 C 3245.47 -3.10568 -1.81074 0
M  V30 31056 C 3245.14 -4.43034 -1.12114 0
M  V30 31057 C 3246.13 -5.1766 -0.482061 0
M  V30 31058 C 3243.82 -4.89767 -1.11506 0
M  V30 31059 C 3245.81 -6.37214 0.153884 0
M  V30 31060 C 3243.5 -6.09249 -0.475293 0
M  V30 31061 C 3244.5 -6.82817 0.158064 0
M  V30 31062 O 3244.19 -8.00031 0.787719 0
M  V30 31063 H 3243.92 -0.622412 -0.263779 0
M  V30 31064 H 3246.47 -2.04745 -0.163848 0
M  V30 31065 H 3244.7 -2.88196 -2.57837 0
M  V30 31066 H 3246.39 -3.26573 -2.4105 0
M  V30 31067 H 3247.16 -4.82632 -0.478668 0
M  V30 31068 H 3243.04 -4.32438 -1.59744 0
M  V30 31069 H 3246.58 -6.94576 0.648838 0
M  V30 31070 H 3242.48 -6.4374 -0.476303 0
M  V30 31071 H 3243.24 -8.15604 0.687912 0
M  V30 31072 N 3245.91 0.430686 -1.51601 0
M  V30 31073 C 3247.14 1.20182 -1.68416 0
M  V30 31074 C 3247.55 1.84847 -0.38433 0
M  V30 31075 O 3246.91 1.70993 0.637778 0
M  V30 31076 C 3246.96 2.28095 -2.80455 0
M  V30 31077 O 3246.68 1.66074 -4.05402 0
M  V30 31078 C 3248.18 3.18251 -3.08596 0
M  V30 31079 H 3245.4 0.36198 -0.564988 0
M  V30 31080 H 3247.94 0.509505 -1.98051 0
M  V30 31081 H 3246.1 2.93031 -2.534 0
M  V30 31082 H 3246.51 2.37445 -4.67675 0
M  V30 31083 H 3247.99 3.90089 -3.90557 0
M  V30 31084 H 3248.46 3.79389 -2.21271 0
M  V30 31085 H 3249.07 2.59008 -3.37335 0
M  V30 31086 N 3247.39 1.4186 0.686559 0
M  V30 31087 C 3248.32 1.47196 1.81261 0
M  V30 31088 C 3249.3 0.329686 1.66874 0
M  V30 31089 O 3250.48 0.54238 1.86472 0
M  V30 31090 C 3247.61 1.36221 3.1947 0
M  V30 31091 C 3246.57 2.48353 3.48575 0
M  V30 31092 C 3245.89 2.22441 4.86235 0
M  V30 31093 C 3247.19 3.90684 3.46646 0
M  V30 31094 H 3248.89 2.41439 1.77053 0
M  V30 31095 H 3246.43 1.16208 0.850395 0
M  V30 31096 H 3248.38 1.38565 3.97967 0
M  V30 31097 H 3247.11 0.384668 3.24327 0
M  V30 31098 H 3245.77 2.45307 2.72433 0
M  V30 31099 H 3245.42 1.23008 4.87727 0
M  V30 31100 H 3245.12 2.97585 5.06672 0
M  V30 31101 H 3246.64 2.26514 5.6703 0
M  V30 31102 H 3248.05 3.95396 4.15132 0
M  V30 31103 H 3246.45 4.65585 3.78617 0
M  V30 31104 H 3247.52 4.18193 2.45444 0
M  V30 31105 N 3248.86 -0.921712 1.27837 0
M  V30 31106 C 3250.28 -1.19871 1.05371 0
M  V30 31107 C 3250.48 -2.00414 -0.208962 0
M  V30 31108 O 3249.54 -2.35423 -0.91282 0
M  V30 31109 C 3250.85 -1.94104 2.29661 0
M  V30 31110 C 3252.4 -2.07019 2.3476 0
M  V30 31111 C 3252.87 -2.84658 3.58795 0
M  V30 31112 N 3254.36 -2.92223 3.59388 0
M  V30 31113 C 3255.1 -3.52777 4.52036 0
M  V30 31114 N 3254.59 -4.14673 5.54993 0
M  V30 31115 N 3256.39 -3.50239 4.39647 0
M  V30 31116 H 3248.54 -0.383782 2.08904 0
M  V30 31117 H 3250.8 -0.232413 0.919069 0
M  V30 31118 H 3250.51 -1.42344 3.21607 0
M  V30 31119 H 3250.38 -2.94692 2.35449 0
M  V30 31120 H 3252.77 -2.57962 1.43316 0
M  V30 31121 H 3252.85 -1.05632 2.32971 0
M  V30 31122 H 3252.49 -2.34396 4.50578 0
M  V30 31123 H 3252.42 -3.86343 3.57836 0
M  V30 31124 H 3254.91 -2.48239 2.84932 0
M  V30 31125 H 3255.23 -4.58834 6.21845 0
M  V30 31126 H 3253.57 -4.13201 5.58829 0
M  V30 31127 H 3256.76 -3.01088 3.58418 0
M  V30 31128 H 3256.94 -3.97139 5.1204 0
M  V30 31129 N 3250.34 -1.09956 -1.12905 0
M  V30 31130 C 3251.25 -0.756134 -2.22081 0
M  V30 31131 C 3252.27 0.244241 -1.72277 0
M  V30 31132 O 3253.44 0.0842284 -2.01224 0
M  V30 31133 C 3250.51 -0.187703 -3.46192 0
M  V30 31134 C 3249.57 -1.24472 -4.10859 0
M  V30 31135 C 3248.8 -0.70332 -5.29045 0
M  V30 31136 O 3249.03 0.471943 -5.68444 0
M  V30 31137 O 3247.96 -1.46092 -5.83901 0
M  V30 31138 H 3251.79 -1.66731 -2.53839 0
M  V30 31139 H 3249.37 -0.874337 -1.21143 0
M  V30 31140 H 3251.25 0.1257 -4.21212 0
M  V30 31141 H 3249.93 0.696403 -3.1612 0
M  V30 31142 H 3248.83 -1.6109 -3.3764 0
M  V30 31143 H 3250.17 -2.10167 -4.45074 0
M  V30 31144 N 3251.82 1.30231 -0.887563 0
M  V30 31145 C 3253.1 1.90876 -0.427282 0
M  V30 31146 C 3253.48 1.80651 1.09217 0
M  V30 31147 O 3252.82 1.22539 1.92864 0
M  V30 31148 C 3253.03 3.36428 -0.928278 0
M  V30 31149 C 3254.38 4.13494 -0.964779 0
M  V30 31150 O 3255.41 3.45283 -0.875118 0
M  V30 31151 O 3254.27 5.35364 -1.09763 0
M  V30 31152 H 3251.36 0.816539 -0.131121 0
M  V30 31153 H 3253.91 1.3878 -0.976634 0
M  V30 31154 H 3252.68 3.37967 -1.97215 0
M  V30 31155 H 3252.3 3.95983 -0.358239 0
M  V30 31156 N 3253.3 0.648782 1.43627 0
M  V30 31157 C 3254.55 0.160055 2.01465 0
M  V30 31158 C 3254.87 -1.22875 1.51415 0
M  V30 31159 O 3254.14 -1.81993 0.724951 0
M  V30 31160 H 3252.72 0.0561803 0.744884 0
M  V30 31161 H 3255.38 0.839453 1.75895 0
M  V30 31162 H 3254.48 0.141268 3.1178 0
M  V30 31163 N 3254.78 -1.52688 0.390421 0
M  V30 31164 C 3255.74 -2.2509 -0.43211 0
M  V30 31165 C 3256.74 -1.26768 -0.989273 0
M  V30 31166 O 3257.93 -1.50856 -0.871099 0
M  V30 31167 C 3255.06 -3.00681 -1.60636 0
M  V30 31168 H 3256.25 -2.9922 0.201786 0
M  V30 31169 H 3253.81 -1.55649 0.142559 0
M  V30 31170 H 3254.54 -2.30854 -2.27765 0
M  V30 31171 H 3254.33 -3.72848 -1.21354 0
M  V30 31172 H 3255.82 -3.5565 -2.18867 0
M  V30 31173 N 3256.25 -0.120276 -1.5714 0
M  V30 31174 C 3257.19 0.866763 -2.11098 0
M  V30 31175 C 3258.17 1.26004 -1.0277 0
M  V30 31176 O 3259.35 1.36087 -1.30433 0
M  V30 31177 C 3256.48 2.16015 -2.60874 0
M  V30 31178 C 3255.52 1.91484 -3.81098 0
M  V30 31179 S 3256.36 1.12996 -5.23443 0
M  V30 31180 C 3257.51 2.43511 -5.76587 0
M  V30 31181 H 3257.74 0.40782 -2.9449 0
M  V30 31182 H 3255.28 0.093522 -1.54117 0
M  V30 31183 H 3257.24 2.90328 -2.90206 0
M  V30 31184 H 3255.9 2.59027 -1.77662 0
M  V30 31185 H 3255.09 2.87322 -4.14079 0
M  V30 31186 H 3254.69 1.25291 -3.52389 0
M  V30 31187 H 3256.98 3.39342 -5.8639 0
M  V30 31188 H 3257.93 2.15073 -6.74647 0
M  V30 31189 H 3258.33 2.52937 -5.04661 0
M  V30 31190 N 3257.73 1.56851 0.153498 0
M  V30 31191 C 3258.97 1.84796 0.873489 0
M  V30 31192 C 3259.34 0.70368 1.7864 0
M  V30 31193 O 3260.54 0.864017 2.54535 0
M  V30 31194 C 3258.81 3.17906 1.6331 0
M  V30 31195 S 3260.37 3.67388 2.39941 0
M  V30 31196 H 3257.19 0.648172 0.292222 0
M  V30 31197 H 3259.79 1.95041 0.133914 0
M  V30 31198 H 3258.49 3.99163 0.953799 0
M  V30 31199 H 3258.02 3.1065 2.41372 0
M  V30 31200 H 3260.04 3.36134 3.65005 0
M  V30 31201 N 3259.21 -0.42264 1.51827 0
M  V30 31202 C 3260.63 -0.76025 1.40329 0
M  V30 31203 C 3260.83 -1.95271 0.497153 0
M  V30 31204 O 3259.88 -2.52465 -0.0421639 0
M  V30 31205 C 3261.2 -1.02684 2.82624 0
M  V30 31206 C 3262.74 -1.13038 2.91876 0
M  V30 31207 C 3263.22 -1.42982 4.35109 0
M  V30 31208 N 3264.71 -1.49876 4.38282 0
M  V30 31209 C 3265.44 -1.74645 5.46156 0
M  V30 31210 N 3264.94 -1.97109 6.64169 0
M  V30 31211 N 3266.73 -1.76549 5.33654 0
M  V30 31212 H 3258.88 0.362492 2.09284 0
M  V30 31213 H 3261.15 0.0998326 0.942729 0
M  V30 31214 H 3260.85 -0.223164 3.50991 0
M  V30 31215 H 3260.73 -1.95062 3.22848 0
M  V30 31216 H 3263.11 -1.92467 2.23697 0
M  V30 31217 H 3263.2 -0.185282 2.55128 0
M  V30 31218 H 3262.84 -0.64076 5.03842 0
M  V30 31219 H 3262.77 -2.38723 4.69382 0
M  V30 31220 H 3265.26 -1.3436 3.53208 0
M  V30 31221 H 3265.57 -2.15421 7.42168 0
M  V30 31222 H 3263.92 -1.94401 6.67258 0
M  V30 31223 H 3267.11 -1.58528 4.40439 0
M  V30 31224 H 3267.28 -1.95514 6.17801 0
M  V30 31225 N 3260.69 -1.42222 -0.679027 0
M  V30 31226 C 3261.97 -1.3295 -1.4347 0
M  V30 31227 C 3262.35 0.0351318 -2.11071 0
M  V30 31228 O 3261.69 1.05039 -2.02926 0
M  V30 31229 C 3261.9 -2.4947 -2.44061 0
M  V30 31230 C 3263.25 -2.91393 -3.08829 0
M  V30 31231 O 3264.28 -2.4933 -2.54388 0
M  V30 31232 O 3263.13 -3.64182 -4.07472 0
M  V30 31233 H 3260.23 -0.524089 -0.639734 0
M  V30 31234 H 3262.77 -1.5422 -0.708107 0
M  V30 31235 H 3261.55 -3.40461 -1.92878 0
M  V30 31236 H 3261.17 -2.30163 -3.24208 0
M  V30 31237 N 3262.17 0.91492 -1.28324 0
M  V30 31238 C 3263.41 1.6664 -1.15581 0
M  V30 31239 C 3263.75 1.91944 0.295175 0
M  V30 31240 O 3263.02 1.51898 1.2148 0
M  V30 31241 C 3263.3 3.02503 -1.95355 0
M  V30 31242 C 3263.16 2.84361 -3.48509 0
M  V30 31243 C 3264.48 4.03024 -1.76805 0
M  V30 31244 H 3261.59 0.60475 -0.421244 0
M  V30 31245 H 3264.24 1.06085 -1.57626 0
M  V30 31246 H 3262.39 3.54192 -1.59625 0
M  V30 31247 H 3264.06 2.39692 -3.94139 0
M  V30 31248 H 3262.3 2.19444 -3.74202 0
M  V30 31249 H 3262.97 3.80838 -3.99583 0
M  V30 31250 H 3265.45 3.60392 -2.07983 0
M  V30 31251 H 3264.32 4.96053 -2.34996 0
M  V30 31252 H 3264.59 4.3621 -0.719239 0
M  V30 31253 N 3263.64 1.10553 1.1232 0
M  V30 31254 C 3264.92 0.760747 1.802 0
M  V30 31255 C 3265.3 -0.752594 1.97229 0
M  V30 31256 O 3264.65 -1.67926 1.54961 0
M  V30 31257 C 3264.86 1.51322 3.14488 0
M  V30 31258 C 3266.21 1.68653 3.89668 0
M  V30 31259 O 3267.23 1.4767 3.24148 0
M  V30 31260 O 3266.09 2.03454 5.07217 0
M  V30 31261 H 3263.18 0.2746 0.780079 0
M  V30 31262 H 3265.73 1.20842 1.19144 0
M  V30 31263 H 3264.5 2.54311 2.97391 0
M  V30 31264 H 3264.13 1.05849 3.83252 0
M  V30 31265 N 3265.12 -1.29758 0.894457 0
M  V30 31266 C 3266.03 -2.31621 0.372663 0
M  V30 31267 C 3267.05 -1.65734 -0.52993 0
M  V30 31268 O 3268.22 -1.96956 -0.420772 0
M  V30 31269 C 3265.29 -3.44431 -0.396015 0
M  V30 31270 C 3264.35 -4.25922 0.537469 0
M  V30 31271 C 3263.58 -5.33345 -0.194619 0
M  V30 31272 O 3263.81 -5.52459 -1.41934 0
M  V30 31273 O 3262.74 -6.00138 0.46016 0
M  V30 31274 H 3266.57 -2.78223 1.21761 0
M  V30 31275 H 3264.15 -1.341 0.658604 0
M  V30 31276 H 3266.03 -4.13127 -0.830889 0
M  V30 31277 H 3264.71 -2.99947 -1.21711 0
M  V30 31278 H 3263.62 -3.59888 1.02135 0
M  V30 31279 H 3264.95 -4.74035 1.32483 0
M  V30 31280 N 3266.6 -0.65639 -1.4328 0
M  V30 31281 C 3267.84 -0.174717 -2.03652 0
M  V30 31282 C 3268.2 1.18991 -1.50682 0
M  V30 31283 O 3269.41 1.76518 -2.02719 0
M  V30 31284 C 3267.68 -0.187842 -3.56906 0
M  V30 31285 S 3269.24 0.225522 -4.3822 0
M  V30 31286 H 3266.05 -0.0735154 -0.707189 0
M  V30 31287 H 3268.66 -0.865434 -1.75301 0
M  V30 31288 H 3267.36 -1.1837 -3.92959 0
M  V30 31289 H 3266.89 0.52331 -3.89904 0
M  V30 31290 H 3268.91 1.46361 -4.74123 0
M  V30 31291 N 3268.08 1.52478 -0.398513 0
M  V30 31292 C 3269.04 2.25316 0.420167 0
M  V30 31293 C 3270.04 1.2729 0.982537 0
M  V30 31294 O 3271.23 1.51316 0.863087 0
M  V30 31295 C 3268.36 3.01528 1.59039 0
M  V30 31296 H 3269.56 2.99109 -0.217652 0
M  V30 31297 H 3267.11 1.55571 -0.150811 0
M  V30 31298 H 3267.85 2.32058 2.26538 0
M  V30 31299 H 3267.63 3.73486 1.19375 0
M  V30 31300 H 3269.12 3.56806 2.16977 0
M  V30 31301 N 3269.56 0.128608 1.57074 0
M  V30 31302 C 3270.83 -0.571129 1.87076 0
M  V30 31303 C 3271.21 -1.84186 1.03145 0
M  V30 31304 O 3270.56 -2.2822 0.113041 0
M  V30 31305 C 3270.77 -0.854324 3.38382 0
M  V30 31306 C 3272.12 -1.20318 4.07196 0
M  V30 31307 O 3273.14 -0.944277 3.43456 0
M  V30 31308 O 3272 -1.68954 5.19728 0
M  V30 31309 H 3269.1 -0.289244 0.774769 0
M  V30 31310 H 3271.64 0.163836 1.68907 0
M  V30 31311 H 3270.42 0.0457612 3.91273 0
M  V30 31312 H 3270.04 -1.64411 3.62015 0
M  V30 31313 N 3271.04 -1.5693 -0.145178 0
M  V30 31314 C 3272.28 -1.83086 -0.85579 0
M  V30 31315 C 3272.6 -0.709779 -1.81624 0
M  V30 31316 O 3271.87 0.268422 -1.94052 0
M  V30 31317 H 3270.45 -0.675452 -0.31902 0
M  V30 31318 H 3273.12 -1.94406 -0.138746 0
M  V30 31319 H 3272.21 -2.78082 -1.41693 0
M  V30 31320 N 3272.51 0.414582 -1.52049 0
M  V30 31321 C 3273.45 1.52366 -1.71222 0
M  V30 31322 C 3274.46 1.51629 -0.59266 0
M  V30 31323 O 3275.65 1.55993 -0.867661 0
M  V30 31324 C 3272.75 2.91268 -1.73253 0
M  V30 31325 C 3271.92 3.16258 -3.02159 0
M  V30 31326 C 3270.98 4.35002 -2.96073 0
M  V30 31327 O 3270.01 4.32547 -3.69988 0
M  V30 31328 N 3271.21 5.39818 -2.13487 0
M  V30 31329 H 3273.97 1.36316 -2.66905 0
M  V30 31330 H 3271.53 0.603815 -1.50219 0
M  V30 31331 H 3273.53 3.68763 -1.6672 0
M  V30 31332 H 3272.1 3.00803 -0.850672 0
M  V30 31333 H 3271.32 2.26855 -3.22383 0
M  V30 31334 H 3272.6 3.29794 -3.87445 0
M  V30 31335 H 3272 5.44658 -1.52854 0
M  V30 31336 H 3270.56 6.16078 -2.12816 0
M  V30 31337 N 3273.99 1.4258 0.671475 0
M  V30 31338 C 3274.92 1.42269 1.797 0
M  V30 31339 C 3275.94 0.321296 1.59598 0
M  V30 31340 O 3277.13 0.584594 1.68656 0
M  V30 31341 C 3274.23 1.20229 3.16857 0
M  V30 31342 C 3273.4 2.42865 3.63779 0
M  V30 31343 C 3272.46 2.16321 4.79679 0
M  V30 31344 O 3271.48 2.89545 4.90053 0
M  V30 31345 N 3272.69 1.16841 5.6862 0
M  V30 31346 H 3275.45 2.39285 1.80451 0
M  V30 31347 H 3273.01 1.37502 0.854684 0
M  V30 31348 H 3275 1.00383 3.92053 0
M  V30 31349 H 3273.57 0.317243 3.10986 0
M  V30 31350 H 3272.79 2.78257 2.79226 0
M  V30 31351 H 3274.08 3.24521 3.91872 0
M  V30 31352 H 3273.48 0.562845 5.62893 0
M  V30 31353 H 3272.04 1.02981 6.43613 0
M  V30 31354 N 3275.47 -0.908102 1.28807 0
M  V30 31355 C 3276.75 -1.6375 1.06983 0
M  V30 31356 C 3277.13 -2.07487 -0.388899 0
M  V30 31357 O 3276.47 -1.82418 -1.37608 0
M  V30 31358 C 3276.68 -2.8247 2.04967 0
M  V30 31359 C 3278.03 -3.53356 2.35425 0
M  V30 31360 O 3279.06 -2.92627 2.03096 0
M  V30 31361 O 3277.92 -4.62817 2.90625 0
M  V30 31362 H 3275.01 -0.718623 0.40928 0
M  V30 31363 H 3277.56 -0.956909 1.40148 0
M  V30 31364 H 3276.33 -2.47286 3.03258 0
M  V30 31365 H 3275.95 -3.58239 1.72483 0
M  V30 31366 N 3276.95 -1.11147 -1.11732 0
M  V30 31367 C 3278.19 -0.86835 -1.85038 0
M  V30 31368 C 3278.55 0.595262 -1.82539 0
M  V30 31369 O 3279.75 0.955027 -2.51262 0
M  V30 31370 C 3278.02 -1.41076 -3.28378 0
M  V30 31371 S 3279.58 -1.30417 -4.18971 0
M  V30 31372 H 3276.4 -0.313589 -0.638109 0
M  V30 31373 H 3279 -1.41837 -1.34546 0
M  V30 31374 H 3277.71 -2.46985 -3.2776 0
M  V30 31375 H 3277.24 -0.857643 -3.83938 0
M  V30 31376 H 3279.25 -0.266693 -4.95483 0
M  V30 31377 N 3278.43 1.29282 -0.901326 0
M  V30 31378 C 3279.38 2.25273 -0.351602 0
M  V30 31379 C 3280.36 1.51947 0.529249 0
M  V30 31380 O 3281.55 1.73068 0.371001 0
M  V30 31381 C 3278.68 3.40741 0.41837 0
M  V30 31382 C 3277.77 4.21403 -0.477494 0
M  V30 31383 N 3278.16 4.80309 -1.58546 0
M  V30 31384 C 3276.46 4.45148 -0.275583 0
M  V30 31385 C 3277.16 5.40886 -2.1405 0
M  V30 31386 N 3276.13 5.24363 -1.43333 0
M  V30 31387 H 3279.93 2.68377 -1.19795 0
M  V30 31388 H 3277.45 1.43911 -0.752563 0
M  V30 31389 H 3279.45 4.08576 0.82895 0
M  V30 31390 H 3278.11 2.99173 1.26196 0
M  V30 31391 H 3279.12 4.79044 -1.96818 0
M  V30 31392 H 3275.79 4.14129 0.529508 0
M  V30 31393 H 3277.18 5.97568 -3.07184 0
M  V30 31394 N 3279.9 0.663979 1.4293 0
M  V30 31395 C 3280.87 -0.0117223 2.29197 0
M  V30 31396 C 3281.87 -0.73985 1.42769 0
M  V30 31397 O 3283.06 -0.57948 1.64279 0
M  V30 31398 C 3280.19 -1.02732 3.25052 0
M  V30 31399 H 3281.38 0.747442 2.90436 0
M  V30 31400 H 3278.93 0.42576 1.50389 0
M  V30 31401 H 3279.67 -1.81535 2.68729 0
M  V30 31402 H 3279.45 -0.50874 3.88786 0
M  V30 31403 H 3280.94 -1.49887 3.89774 0
M  V30 31404 N 3281.38 -1.52265 0.406593 0
M  V30 31405 C 3282.8 -1.59497 0.0573509 0
M  V30 31406 C 3283 -1.4196 -1.43003 0
M  V30 31407 O 3282.05 -1.24527 -2.19657 0
M  V30 31408 C 3283.37 -2.95627 0.549999 0
M  V30 31409 C 3284.91 -3.08854 0.507754 0
M  V30 31410 C 3285.39 -4.47461 0.976871 0
M  V30 31411 N 3286.88 -4.53694 0.933587 0
M  V30 31412 C 3287.62 -5.59209 1.26779 0
M  V30 31413 N 3287.11 -6.72289 1.67332 0
M  V30 31414 N 3288.9 -5.49404 1.18792 0
M  V30 31415 H 3281.06 -1.61912 1.37471 0
M  V30 31416 H 3283.32 -0.76155 0.564575 0
M  V30 31417 H 3283.02 -3.13733 1.58948 0
M  V30 31418 H 3282.9 -3.77177 -0.0417104 0
M  V30 31419 H 3285.29 -2.90434 -0.522677 0
M  V30 31420 H 3285.37 -2.29217 1.13549 0
M  V30 31421 H 3285.01 -4.66623 2.00562 0
M  V30 31422 H 3284.94 -5.2559 0.325977 0
M  V30 31423 H 3287.43 -3.7252 0.635399 0
M  V30 31424 H 3287.74 -7.48787 1.9115 0
M  V30 31425 H 3286.09 -6.73576 1.71233 0
M  V30 31426 H 3289.28 -4.59944 0.869987 0
M  V30 31427 H 3289.45 -6.3153 1.45168 0
M  V30 31428 N 3282.86 -0.136936 -1.57004 0
M  V30 31429 C 3284.11 0.515656 -1.95411 0
M  V30 31430 C 3284.43 1.66059 -1.02222 0
M  V30 31431 O 3283.7 1.95729 -0.0818516 0
M  V30 31432 H 3282.28 0.193484 -0.721507 0
M  V30 31433 H 3284.94 -0.21008 -1.93764 0
M  V30 31434 H 3284.04 0.898442 -2.98889 0
M  V30 31435 N 3284.34 1.57005 0.136853 0
M  V30 31436 C 3285.27 1.94194 1.1985 0
M  V30 31437 C 3286.25 0.809127 1.41039 0
M  V30 31438 O 3287.43 1.06567 1.55485 0
M  V30 31439 C 3284.56 2.22275 2.55561 0
M  V30 31440 C 3283.61 3.44889 2.50907 0
M  V30 31441 S 3284.44 4.98101 1.9661 0
M  V30 31442 C 3285.6 5.29315 3.3403 0
M  V30 31443 H 3285.83 2.83938 0.881267 0
M  V30 31444 H 3283.36 1.50544 0.342889 0
M  V30 31445 H 3285.32 2.39133 3.33655 0
M  V30 31446 H 3283.98 1.33177 2.84469 0
M  V30 31447 H 3283.17 3.61846 3.50832 0
M  V30 31448 H 3282.78 3.27325 1.80926 0
M  V30 31449 H 3285.07 5.23404 4.3018 0
M  V30 31450 H 3286.01 6.30694 3.21916 0
M  V30 31451 H 3286.42 4.56814 3.31634 0
M  V30 31452 N 3285.82 -0.406513 1.52267 0
M  V30 31453 C 3286.73 -1.52009 1.78691 0
M  V30 31454 C 3287.74 -1.60473 0.672628 0
M  V30 31455 O 3288.92 -1.77139 0.958321 0
M  V30 31456 C 3285.98 -2.87719 1.93439 0
M  V30 31457 C 3285.04 -2.89119 3.17346 0
M  V30 31458 C 3284.28 -4.18356 3.31381 0
M  V30 31459 O 3284.5 -5.12391 2.50622 0
M  V30 31460 O 3283.43 -4.26666 4.24546 0
M  V30 31461 H 3287.26 -1.32615 2.73216 0
M  V30 31462 H 3284.85 -0.592629 1.37143 0
M  V30 31463 H 3286.73 -3.68204 2.04948 0
M  V30 31464 H 3285.4 -3.07175 1.02104 0
M  V30 31465 H 3284.31 -2.07478 3.11294 0
M  V30 31466 H 3285.64 -2.74613 4.08471 0
M  V30 31467 N 3287.29 -1.42934 -0.663904 0
M  V30 31468 C 3288.53 -1.45478 -1.43581 0
M  V30 31469 C 3288.9 -0.0728724 -1.91862 0
M  V30 31470 O 3290.1 0.0269776 -2.68786 0
M  V30 31471 C 3288.37 -2.45952 -2.59311 0
M  V30 31472 S 3289.93 -2.67286 -3.47999 0
M  V30 31473 H 3286.75 -0.51495 -0.490252 0
M  V30 31474 H 3289.35 -1.7962 -0.771803 0
M  V30 31475 H 3288.05 -3.4511 -2.22098 0
M  V30 31476 H 3287.58 -2.13272 -3.30573 0
M  V30 31477 H 3289.6 -1.96407 -4.55674 0
M  V30 31478 N 3288.77 0.901258 -1.29287 0
M  V30 31479 C 3289.72 2.00519 -1.14283 0
M  V30 31480 C 3290.69 1.6606 -0.036572 0
M  V30 31481 O 3291.87 1.89708 -0.203804 0
M  V30 31482 C 3289.01 3.35125 -0.82373 0
M  V30 31483 C 3288.13 3.82377 -2.01027 0
M  V30 31484 C 3287.26 5.05551 -1.63069 0
M  V30 31485 C 3286.3 5.45168 -2.78313 0
M  V30 31486 N 3285.44 6.59529 -2.40762 0
M  V30 31487 H 3290.28 2.12685 -2.08732 0
M  V30 31488 H 3287.82 1.04159 -1.03872 0
M  V30 31489 H 3289.77 4.12576 -0.619412 0
M  V30 31490 H 3288.4 3.22691 0.0838545 0
M  V30 31491 H 3287.46 3.00974 -2.32634 0
M  V30 31492 H 3288.77 4.07688 -2.87387 0
M  V30 31493 H 3287.92 5.90582 -1.38916 0
M  V30 31494 H 3286.66 4.82075 -0.738548 0
M  V30 31495 H 3285.67 4.58672 -3.0315 0
M  V30 31496 H 3286.89 5.70626 -3.68189 0
M  V30 31497 H 3284.84 6.3766 -1.54033 0
M  V30 31498 H 3284.75 6.84629 -3.20655 0
M  V30 31499 H 3286.02 7.47832 -2.19925 0
M  V30 31500 N 3290.25 1.11738 1.11141 0
M  V30 31501 C 3291.2 0.773665 2.19356 0
M  V30 31502 C 3292.19 -0.236258 1.67744 0
M  V30 31503 O 3293.4 -0.0952184 1.79748 0
M  V30 31504 H 3289.77 0.232321 0.715214 0
M  V30 31505 H 3291.74 1.69492 2.45591 0
M  V30 31506 C 3290.49 0.236518 3.46895 0
M  V30 31507 H 3289.82 1.0049 3.86965 0
M  V30 31508 H 3291.26 0.0342426 4.23986 0
M  V30 31509 C 3289.72 -1.03391 3.20643 0
M  V30 31510 O 3290.25 -2.11306 3.41633 0
M  V30 31511 N 3288.45 -0.957938 2.74357 0
M  V30 31512 H 3288 -0.0796471 2.57477 0
M  V30 31513 H 3287.96 -1.80862 2.5717 0
M  V30 31514 N 3291.73 -1.28802 0.90817 0
M  V30 31515 C 3292.66 -2.29887 0.409146 0
M  V30 31516 C 3293.64 -1.61947 -0.52031 0
M  V30 31517 O 3294.82 -1.89397 -0.429235 0
M  V30 31518 C 3291.95 -3.45464 -0.356629 0
M  V30 31519 C 3290.91 -4.25264 0.483175 0
M  V30 31520 C 3290.23 -5.33121 -0.410606 0
M  V30 31521 C 3291.53 -4.92552 1.73753 0
M  V30 31522 H 3293.23 -2.71878 1.25391 0
M  V30 31523 H 3290.77 -1.30702 0.604391 0
M  V30 31524 H 3292.73 -4.15263 -0.716537 0
M  V30 31525 H 3291.45 -3.02339 -1.23525 0
M  V30 31526 H 3290.11 -3.57184 0.825527 0
M  V30 31527 H 3289.76 -4.8624 -1.28761 0
M  V30 31528 H 3289.46 -5.87414 0.147663 0
M  V30 31529 H 3290.98 -6.0577 -0.766519 0
M  V30 31530 H 3292.4 -5.54742 1.44686 0
M  V30 31531 H 3290.79 -5.56816 2.23777 0
M  V30 31532 H 3291.86 -4.17359 2.4686 0
M  V30 31533 N 3293.21 -0.67155 -1.42576 0
M  V30 31534 C 3294.46 -0.189698 -2.00806 0
M  V30 31535 C 3294.77 1.20975 -1.53702 0
M  V30 31536 O 3295.97 1.7878 -2.04328 0
M  V30 31537 C 3294.43 -0.28829 -3.58743 0
M  V30 31538 C 3294.04 -1.69159 -4.14836 0
M  V30 31539 C 3295.78 0.135016 -4.24285 0
M  V30 31540 C 3293.69 -1.74312 -5.65128 0
M  V30 31541 H 3292.62 -0.0671592 -0.751003 0
M  V30 31542 H 3295.27 -0.836259 -1.63337 0
M  V30 31543 H 3293.65 0.426106 -3.93701 0
M  V30 31544 H 3294.83 -2.43281 -3.91345 0
M  V30 31545 H 3293.14 -2.06246 -3.61734 0
M  V30 31546 H 3295.74 0.116615 -5.34573 0
M  V30 31547 H 3296.08 1.1697 -3.99529 0
M  V30 31548 H 3296.61 -0.52826 -3.94277 0
M  V30 31549 H 3293.35 -2.75752 -5.94677 0
M  V30 31550 H 3292.87 -1.04542 -5.90619 0
M  V30 31551 H 3294.55 -1.4951 -6.29489 0
M  V30 31552 N 3294.68 1.52047 -0.414663 0
M  V30 31553 C 3295.93 2.01474 0.158999 0
M  V30 31554 C 3296.25 1.30191 1.45173 0
M  V30 31555 O 3295.52 0.429503 1.91134 0
M  V30 31556 H 3294.1 0.744444 0.0617473 0
M  V30 31557 H 3296.77 1.86915 -0.552174 0
M  V30 31558 H 3295.86 3.10118 0.351163 0
M  V30 31559 N 3296.16 0.145261 1.56929 0
M  V30 31560 C 3297.39 -0.513279 2.00432 0
M  V30 31561 C 3297.81 -1.58532 1.02533 0
M  V30 31562 O 3297.16 -1.82487 0.0220779 0
M  V30 31563 C 3297.21 -1.11551 3.43858 0
M  V30 31564 O 3296.93 -0.0862937 4.38015 0
M  V30 31565 C 3298.44 -1.85483 4.0263 0
M  V30 31566 H 3295.66 -0.133766 0.657531 0
M  V30 31567 H 3298.2 0.239332 2.03095 0
M  V30 31568 H 3296.35 -1.81875 3.42053 0
M  V30 31569 H 3296.77 -0.527272 5.21843 0
M  V30 31570 H 3298.24 -2.22914 5.04989 0
M  V30 31571 H 3298.72 -2.74008 3.43243 0
M  V30 31572 H 3299.33 -1.19861 4.0806 0
M  V30 31573 N 3297.64 -1.57075 -0.128525 0
M  V30 31574 C 3298.89 -1.84348 -0.837978 0
M  V30 31575 C 3299.22 -0.728937 -1.80324 0
M  V30 31576 O 3298.47 0.280537 -1.93679 0
M  V30 31577 C 3298.77 -3.18055 -1.63021 0
M  V30 31578 C 3298.44 -4.43563 -0.810093 0
M  V30 31579 C 3297.1 -4.77644 -0.5839 0
M  V30 31580 C 3299.45 -5.20657 -0.237805 0
M  V30 31581 C 3296.78 -5.86268 0.22499 0
M  V30 31582 C 3299.13 -6.30132 0.558224 0
M  V30 31583 C 3297.79 -6.62751 0.794823 0
M  V30 31584 H 3297.06 -0.674577 -0.306638 0
M  V30 31585 H 3299.71 -1.91235 -0.100763 0
M  V30 31586 H 3298.02 -3.06701 -2.43806 0
M  V30 31587 H 3299.71 -3.36376 -2.18294 0
M  V30 31588 H 3296.3 -4.16855 -0.996474 0
M  V30 31589 H 3300.49 -4.94687 -0.399794 0
M  V30 31590 H 3295.74 -6.09972 0.417614 0
M  V30 31591 H 3299.92 -6.89056 1.00871 0
M  V30 31592 H 3297.54 -7.46754 1.42344 0
M  V30 31593 N 3299.12 0.398432 -1.5248 0
M  V30 31594 C 3300.08 1.46879 -1.75952 0
M  V30 31595 C 3301.08 1.47968 -0.629457 0
M  V30 31596 O 3302.27 1.49304 -0.897433 0
M  V30 31597 C 3299.4 2.86227 -1.85167 0
M  V30 31598 H 3300.6 1.27355 -2.71515 0
M  V30 31599 H 3298.15 0.629593 -1.43059 0
M  V30 31600 H 3298.89 3.11108 -0.91556 0
M  V30 31601 H 3298.67 2.86839 -2.67331 0
M  V30 31602 H 3300.16 3.63802 -2.05032 0
M  V30 31603 N 3300.6 1.43284 0.656314 0
M  V30 31604 C 3301.84 1.46238 1.42807 0
M  V30 31605 C 3302.2 0.0830463 1.9182 0
M  V30 31606 O 3303.4 -0.0127229 2.68797 0
M  V30 31607 C 3301.67 2.47324 2.58003 0
M  V30 31608 S 3303.23 2.69128 3.46577 0
M  V30 31609 H 3300.05 0.517543 0.487514 0
M  V30 31610 H 3302.65 1.80027 0.762266 0
M  V30 31611 H 3301.36 3.46283 2.20265 0
M  V30 31612 H 3300.89 2.15022 3.29438 0
M  V30 31613 H 3302.9 1.98821 4.54626 0
M  V30 31614 N 3302.08 -0.894389 1.29763 0
M  V30 31615 C 3303.32 -1.6478 1.18217 0
M  V30 31616 C 3303.65 -1.92389 -0.264601 0
M  V30 31617 O 3302.93 -1.53811 -1.19048 0
M  V30 31618 C 3303.21 -2.99357 2.00143 0
M  V30 31619 C 3303.07 -2.78781 3.52989 0
M  V30 31620 C 3304.38 -4.0016 1.83194 0
M  V30 31621 H 3301.5 -0.597972 0.430812 0
M  V30 31622 H 3304.15 -1.03563 1.59294 0
M  V30 31623 H 3302.3 -3.51608 1.6524 0
M  V30 31624 H 3303.97 -2.33391 3.97903 0
M  V30 31625 H 3302.21 -2.13463 3.77645 0
M  V30 31626 H 3302.88 -3.74432 4.05591 0
M  V30 31627 H 3305.36 -3.57037 2.1369 0
M  V30 31628 H 3304.23 -4.92251 2.42858 0
M  V30 31629 H 3304.49 -4.35011 0.788545 0
M  V30 31630 N 3303.55 -1.12326 -1.10547 0
M  V30 31631 C 3304.79 -0.887927 -1.84107 0
M  V30 31632 C 3305.16 0.575868 -1.8316 0
M  V30 31633 O 3306.36 0.928323 -2.52261 0
M  V30 31634 C 3304.63 -1.44551 -3.26863 0
M  V30 31635 S 3306.19 -1.34854 -4.17564 0
M  V30 31636 H 3303.01 -0.32034 -0.634747 0
M  V30 31637 H 3305.61 -1.43256 -1.33034 0
M  V30 31638 H 3304.31 -2.50448 -3.25122 0
M  V30 31639 H 3303.84 -0.898317 -3.83006 0
M  V30 31640 H 3305.86 -0.31923 -4.95172 0
M  V30 31641 N 3305.03 1.28319 -0.914988 0
M  V30 31642 C 3306.44 1.7696 -0.595151 0
M  V30 31643 C 3306.79 1.74876 0.88955 0
M  V30 31644 O 3305.92 1.34421 1.69588 0
M  V30 31645 C 3306.51 3.2134 -1.07358 0
M  V30 31646 C 3305.07 3.67699 -0.804642 0
M  V30 31647 C 3304.22 2.48051 -1.2396 0
M  V30 31648 H 3307.17 1.14765 -1.09612 0
M  V30 31649 H 3307.19 3.78224 -0.415572 0
M  V30 31650 H 3306.7 3.22825 -2.15419 0
M  V30 31651 H 3304.8 3.71673 0.262704 0
M  V30 31652 H 3304.92 4.57782 -1.41325 0
M  V30 31653 H 3303.28 2.46045 -0.658317 0
M  V30 31654 H 3304.06 2.52254 -2.32858 0
M  V30 31655 N 3306.51 0.679102 1.42218 0
M  V30 31656 C 3307.92 0.279909 1.8459 0
M  V30 31657 C 3308.27 -1.17878 1.56841 0
M  V30 31658 O 3307.4 -1.90293 1.03042 0
M  V30 31659 C 3307.99 0.501244 3.35072 0
M  V30 31660 C 3306.55 0.156131 3.76076 0
M  V30 31661 C 3305.7 0.791596 2.65761 0
M  V30 31662 H 3308.65 0.880955 1.32003 0
M  V30 31663 H 3308.67 -0.245282 3.79709 0
M  V30 31664 H 3308.18 1.56298 3.55236 0
M  V30 31665 H 3306.28 -0.901986 3.61518 0
M  V30 31666 H 3306.4 0.599656 4.75332 0
M  V30 31667 H 3304.76 0.222558 2.53726 0
M  V30 31668 H 3305.54 1.85687 2.88748 0
M  V30 31669 N 3307.99 -1.51825 0.42272 0
M  V30 31670 C 3309.24 -2.01555 -0.148312 0
M  V30 31671 C 3309.56 -1.30959 -1.44481 0
M  V30 31672 O 3308.83 -0.439633 -1.90903 0
M  V30 31673 H 3307.41 -0.744761 -0.0577985 0
M  V30 31674 H 3310.07 -1.86619 0.562079 0
M  V30 31675 H 3309.16 -3.103 -0.334711 0
M  V30 31676 N 3309.47 -0.153581 -1.5685 0
M  V30 31677 C 3310.4 0.821791 -2.12889 0
M  V30 31678 C 3311.38 1.23796 -1.0542 0
M  V30 31679 O 3312.56 1.33289 -1.3329 0
M  V30 31680 C 3309.69 2.10433 -2.65397 0
M  V30 31681 C 3308.73 1.83357 -3.85074 0
M  V30 31682 S 3309.57 1.01868 -5.25722 0
M  V30 31683 C 3310.72 2.31226 -5.81623 0
M  V30 31684 H 3310.96 0.345262 -2.95288 0
M  V30 31685 H 3308.49 0.0608106 -1.5428 0
M  V30 31686 H 3310.45 2.84107 -2.96299 0
M  V30 31687 H 3309.11 2.552 -1.83116 0
M  V30 31688 H 3308.3 2.78475 -4.20081 0
M  V30 31689 H 3307.9 1.17788 -3.54968 0
M  V30 31690 H 3310.19 3.26828 -5.93456 0
M  V30 31691 H 3311.14 2.00715 -6.79058 0
M  V30 31692 H 3311.55 2.42176 -5.09913 0
M  V30 31693 N 3310.94 1.57141 0.120193 0
M  V30 31694 C 3312.36 1.52408 0.473691 0
M  V30 31695 C 3312.56 0.866386 1.81923 0
M  V30 31696 O 3311.62 0.448217 2.4849 0
M  V30 31697 C 3312.93 2.97172 0.459285 0
M  V30 31698 C 3314.48 3.08255 0.542921 0
M  V30 31699 C 3314.95 4.54577 0.558916 0
M  V30 31700 N 3316.44 4.59027 0.620388 0
M  V30 31701 C 3317.18 5.69656 0.654192 0
M  V30 31702 N 3316.67 6.89784 0.645714 0
M  V30 31703 N 3318.47 5.57761 0.69711 0
M  V30 31704 H 3310.62 1.98282 -0.761455 0
M  V30 31705 H 3312.88 0.905474 -0.280752 0
M  V30 31706 H 3312.59 3.48656 -0.461715 0
M  V30 31707 H 3312.46 3.54546 1.28752 0
M  V30 31708 H 3314.85 2.56774 1.45434 0
M  V30 31709 H 3314.93 2.53878 -0.312981 0
M  V30 31710 H 3314.57 5.06703 -0.348456 0
M  V30 31711 H 3314.5 5.06765 1.43168 0
M  V30 31712 H 3316.99 3.72558 0.633153 0
M  V30 31713 H 3317.31 7.69854 0.674098 0
M  V30 31714 H 3315.65 6.9229 0.613157 0
M  V30 31715 H 3318.84 4.6282 0.701089 0
M  V30 31716 H 3319.02 6.43988 0.719987 0
M  V30 31717 N 3312.42 -0.39034 1.5269 0
M  V30 31718 C 3313.83 -0.968338 1.59625 0
M  V30 31719 C 3314.18 -1.9101 0.448273 0
M  V30 31720 O 3313.31 -2.12108 -0.428831 0
M  V30 31721 C 3313.9 -1.76301 2.89315 0
M  V30 31722 C 3312.46 -2.29073 2.98668 0
M  V30 31723 C 3311.61 -1.09588 2.54727 0
M  V30 31724 H 3314.56 -0.169931 1.57788 0
M  V30 31725 H 3314.58 -2.62213 2.75726 0
M  V30 31726 H 3314.09 -1.07732 3.72848 0
M  V30 31727 H 3312.2 -3.00958 2.1967 0
M  V30 31728 H 3312.31 -2.58652 4.03282 0
M  V30 31729 H 3310.67 -1.45551 2.09015 0
M  V30 31730 H 3311.46 -0.425565 3.40652 0
M  V30 31731 N 3313.9 -1.4363 -0.648706 0
M  V30 31732 C 3314.83 -1.5195 -1.77295 0
M  V30 31733 C 3315.81 -0.373814 -1.65942 0
M  V30 31734 O 3317 -0.591629 -1.84969 0
M  V30 31735 C 3314.13 -1.44643 -3.15746 0
M  V30 31736 C 3313.08 -2.57508 -3.41868 0
M  V30 31737 C 3312.41 -2.35254 -4.80166 0
M  V30 31738 C 3313.71 -3.99737 -3.36166 0
M  V30 31739 H 3315.4 -2.46048 -1.70589 0
M  V30 31740 H 3312.95 -1.18422 -0.819285 0
M  V30 31741 H 3314.9 -1.49067 -3.94153 0
M  V30 31742 H 3313.62 -0.470523 -3.23193 0
M  V30 31743 H 3312.28 -2.52444 -2.65833 0
M  V30 31744 H 3311.93 -1.35896 -4.84295 0
M  V30 31745 H 3311.63 -3.10914 -4.98604 0
M  V30 31746 H 3313.15 -2.41469 -5.60825 0
M  V30 31747 H 3314.57 -4.06264 -4.04503 0
M  V30 31748 H 3312.97 -4.75459 -3.6614 0
M  V30 31749 H 3314.04 -4.24553 -2.3427 0
M  V30 31750 N 3315.38 0.887495 -1.30236 0
M  V30 31751 C 3316.79 1.45451 -1.17051 0
M  V30 31752 C 3317.14 1.9485 0.229759 0
M  V30 31753 O 3316.27 1.84783 1.12625 0
M  V30 31754 C 3316.86 2.64371 -2.11881 0
M  V30 31755 C 3315.42 3.1717 -2.02682 0
M  V30 31756 C 3314.57 1.89863 -2.02107 0
M  V30 31757 H 3317.52 0.697669 -1.42542 0
M  V30 31758 H 3317.54 3.40503 -1.69817 0
M  V30 31759 H 3317.05 2.28387 -3.13785 0
M  V30 31760 H 3315.15 3.57818 -1.0391 0
M  V30 31761 H 3315.26 3.80641 -2.90946 0
M  V30 31762 H 3313.63 2.08087 -1.46874 0
M  V30 31763 H 3314.41 1.5614 -3.05737 0
M  V30 31764 N 3316.86 1.12911 1.0995 0
M  V30 31765 C 3318.1 0.885761 1.81655 0
M  V30 31766 C 3318.43 -0.58988 1.85864 0
M  V30 31767 O 3317.7 -1.42872 1.34031 0
M  V30 31768 H 3316.28 0.324706 0.672737 0
M  V30 31769 H 3318.94 1.42458 1.3301 0
M  V30 31770 H 3318.03 1.27172 2.85015 0
M  V30 31771 N 3318.33 -1.27832 0.92178 0
M  V30 31772 C 3319.56 -1.9928 0.574635 0
M  V30 31773 C 3319.98 -1.68358 -0.838875 0
M  V30 31774 O 3319.34 -0.920495 -1.56194 0
M  V30 31775 C 3319.39 -3.51612 0.800088 0
M  V30 31776 O 3318.49 -4.12172 -0.137143 0
M  V30 31777 H 3317.84 -0.625825 0.221898 0
M  V30 31778 H 3320.37 -1.62787 1.23941 0
M  V30 31779 H 3320.38 -4.01716 0.71333 0
M  V30 31780 H 3319.05 -3.73452 1.83048 0
M  V30 31781 H 3317.63 -3.729 -0.000973171 0
M  V30 31782 N 3319.81 -0.686634 -1.41856 0
M  V30 31783 C 3321.06 -0.213414 -2.0097 0
M  V30 31784 C 3321.38 1.18818 -1.5462 0
M  V30 31785 O 3320.65 1.80006 -0.772948 0
M  V30 31786 H 3319.23 -0.0759099 -0.743133 0
M  V30 31787 H 3321.89 -0.885794 -1.73608 0
M  V30 31788 H 3320.99 -0.223881 -3.11296 0
M  V30 31789 N 3321.29 1.51599 -0.430766 0
M  V30 31790 C 3322.2 2.3133 0.390307 0
M  V30 31791 C 3323.22 1.39964 1.03374 0
M  V30 31792 O 3324.39 1.73037 1.03054 0
M  V30 31793 C 3321.46 3.13508 1.48033 0
M  V30 31794 C 3320.52 4.20644 0.857718 0
M  V30 31795 C 3319.75 4.98894 1.8958 0
M  V30 31796 O 3319.97 4.77696 3.11709 0
M  V30 31797 O 3318.91 5.83166 1.48999 0
M  V30 31798 H 3322.73 3.02581 -0.260411 0
M  V30 31799 H 3320.32 1.48142 -0.193454 0
M  V30 31800 H 3322.2 3.64616 2.11265 0
M  V30 31801 H 3320.88 2.45028 2.11525 0
M  V30 31802 H 3319.78 3.7363 0.187526 0
M  V30 31803 H 3321.12 4.91479 0.266388 0
M  V30 31804 N 3322.77 0.161897 1.56766 0
M  V30 31805 C 3324.02 -0.484503 1.96206 0
M  V30 31806 C 3324.34 -1.64412 1.04851 0
M  V30 31807 O 3323.61 -1.95574 0.11298 0
M  V30 31808 H 3322.19 -0.181981 0.724494 0
M  V30 31809 H 3324.85 0.240879 1.93406 0
M  V30 31810 H 3323.95 -0.850778 3.0028 0
M  V30 31811 N 3324.25 -1.57203 -0.111858 0
M  V30 31812 C 3325.49 -1.87047 -0.824187 0
M  V30 31813 C 3325.85 -0.750796 -1.76712 0
M  V30 31814 O 3327.05 -0.931199 -2.52155 0
M  V30 31815 C 3325.32 -3.22125 -1.54824 0
M  V30 31816 S 3326.88 -3.7362 -2.30116 0
M  V30 31817 H 3323.7 -0.655692 -0.274934 0
M  V30 31818 H 3326.3 -1.95327 -0.0821555 0
M  V30 31819 H 3325.01 -4.01551 -0.847633 0
M  V30 31820 H 3324.54 -3.1694 -2.33051 0
M  V30 31821 H 3326.55 -3.45693 -3.55964 0
M  V30 31822 N 3325.72 0.382237 -1.52894 0
M  V30 31823 C 3326.95 1.14763 -1.72154 0
M  V30 31824 C 3327.37 1.83531 -0.442943 0
M  V30 31825 O 3326.72 1.72936 0.583055 0
M  V30 31826 C 3326.78 2.19057 -2.8757 0
M  V30 31827 O 3326.5 1.53092 -4.10481 0
M  V30 31828 C 3328 3.08272 -3.18565 0
M  V30 31829 H 3325.22 0.343822 -0.576218 0
M  V30 31830 H 3327.76 0.446238 -1.99572 0
M  V30 31831 H 3325.92 2.84821 -2.62594 0
M  V30 31832 H 3326.33 2.22446 -4.74993 0
M  V30 31833 H 3327.8 3.77466 -4.02769 0
M  V30 31834 H 3328.28 3.72157 -2.33229 0
M  V30 31835 H 3328.89 2.48144 -3.45405 0
M  V30 31836 N 3327.2 1.43972 0.64108 0
M  V30 31837 C 3328.48 1.36707 1.39895 0
M  V30 31838 C 3328.86 0.0208422 2.1109 0
M  V30 31839 O 3328.21 -0.996214 2.0564 0
M  V30 31840 C 3328.42 2.55853 2.37361 0
M  V30 31841 C 3329.77 2.99479 3.00995 0
M  V30 31842 O 3330.79 2.55987 2.47688 0
M  V30 31843 O 3329.65 3.74858 3.97673 0
M  V30 31844 H 3326.74 0.540866 0.625614 0
M  V30 31845 H 3329.29 1.56044 0.66697 0
M  V30 31846 H 3328.06 3.45455 1.83784 0
M  V30 31847 H 3327.68 2.38678 3.17991 0
M  V30 31848 N 3328.68 -0.880575 1.30704 0
M  V30 31849 C 3329.96 -1.61443 1.10433 0
M  V30 31850 C 3330.34 -2.08265 -0.344801 0
M  V30 31851 O 3329.69 -1.85296 -1.33708 0
M  V30 31852 C 3329.9 -2.78059 2.10913 0
M  V30 31853 C 3331.24 -3.48283 2.42867 0
M  V30 31854 O 3332.27 -2.88253 2.09257 0
M  V30 31855 O 3331.13 -4.56548 3.00377 0
M  V30 31856 H 3328.22 -0.70978 0.424431 0
M  V30 31857 H 3330.77 -0.926966 1.42146 0
M  V30 31858 H 3329.54 -2.40798 3.08435 0
M  V30 31859 H 3329.16 -3.545 1.80043 0
M  V30 31860 N 3330.16 -1.13492 -1.09349 0
M  V30 31861 C 3331.11 -0.808465 -2.18098 0
M  V30 31862 C 3332.1 0.209542 -1.68099 0
M  V30 31863 O 3333.31 0.06661 -1.79877 0
M  V30 31864 H 3329.68 -0.24367 -0.711427 0
M  V30 31865 H 3331.65 -1.73377 -2.42864 0
M  V30 31866 C 3330.4 -0.291676 -3.46474 0
M  V30 31867 H 3329.73 -1.06634 -3.85317 0
M  V30 31868 H 3331.17 -0.101691 -4.23878 0
M  V30 31869 C 3329.62 0.982771 -3.22247 0
M  V30 31870 O 3330.15 2.05844 -3.44951 0
M  V30 31871 N 3328.36 0.914169 -2.75847 0
M  V30 31872 H 3327.91 0.0386747 -2.57571 0
M  V30 31873 H 3327.87 1.76748 -2.60014 0
M  V30 31874 N 3331.64 1.27341 -0.928546 0
M  V30 31875 C 3332.55 2.30552 -0.433942 0
M  V30 31876 C 3333.56 1.67081 0.485803 0
M  V30 31877 O 3334.74 1.98002 0.368405 0
M  V30 31878 C 3331.8 3.4536 0.304556 0
M  V30 31879 C 3330.87 4.24348 -0.650206 0
M  V30 31880 C 3330.1 5.33674 0.0531434 0
M  V30 31881 O 3330.32 5.56028 1.27236 0
M  V30 31882 O 3329.26 5.98707 -0.619115 0
M  V30 31883 H 3333.08 2.74897 -1.29095 0
M  V30 31884 H 3330.67 1.32307 -0.693926 0
M  V30 31885 H 3332.55 4.15185 0.721064 0
M  V30 31886 H 3331.22 3.03068 1.13715 0
M  V30 31887 H 3330.13 3.57053 -1.11641 0
M  V30 31888 H 3331.46 4.70356 -1.45005 0
M  V30 31889 N 3333.12 0.694147 1.4149 0
M  V30 31890 C 3334.36 0.22865 2.03117 0
M  V30 31891 C 3334.72 -1.14954 1.53784 0
M  V30 31892 O 3335.92 -1.71081 2.07328 0
M  V30 31893 C 3334.19 0.282404 3.56283 0
M  V30 31894 S 3335.75 -0.109256 4.38664 0
M  V30 31895 H 3332.57 0.0922394 0.704991 0
M  V30 31896 H 3335.17 0.911608 1.72945 0
M  V30 31897 H 3333.87 1.28747 3.89682 0
M  V30 31898 H 3333.41 -0.419749 3.91154 0
M  V30 31899 H 3335.42 -1.33739 4.77837 0
M  V30 31900 N 3334.59 -1.51368 0.438799 0
M  V30 31901 C 3335.54 -2.24642 -0.389881 0
M  V30 31902 C 3336.53 -1.26928 -0.988849 0
M  V30 31903 O 3337.72 -1.5201 -0.906747 0
M  V30 31904 C 3334.85 -3.09296 -1.48967 0
M  V30 31905 C 3333.93 -4.1444 -0.90002 0
M  V30 31906 N 3334.33 -5.05784 -0.0396799 0
M  V30 31907 C 3332.62 -4.30449 -1.16745 0
M  V30 31908 C 3333.32 -5.80969 0.291629 0
M  V30 31909 N 3332.3 -5.42627 -0.325124 0
M  V30 31910 H 3336.1 -2.92626 0.273387 0
M  V30 31911 H 3333.62 -1.60449 0.250962 0
M  V30 31912 H 3335.61 -3.60367 -2.09621 0
M  V30 31913 H 3334.27 -2.42856 -2.15525 0
M  V30 31914 H 3335.28 -5.16868 0.326862 0
M  V30 31915 H 3331.96 -3.75236 -1.83042 0
M  V30 31916 H 3333.35 -6.64539 0.991815 0
M  V30 31917 N 3336.07 -0.170208 -1.56678 0
M  V30 31918 C 3337.03 0.746584 -2.167 0
M  V30 31919 C 3338.03 1.15886 -1.11477 0
M  V30 31920 O 3339.22 1.076 -1.36996 0
M  V30 31921 C 3336.36 2.01607 -2.74895 0
M  V30 31922 H 3337.55 0.224082 -2.99062 0
M  V30 31923 H 3335.1 0.0793487 -1.56098 0
M  V30 31924 H 3335.84 2.58168 -1.96264 0
M  V30 31925 H 3335.62 1.72943 -3.51899 0
M  V30 31926 H 3337.11 2.67036 -3.21063 0
M  V30 31927 N 3337.55 1.5726 0.10352 0
M  V30 31928 C 3338.48 1.98133 1.15221 0
M  V30 31929 C 3339.49 0.882716 1.36792 0
M  V30 31930 O 3340.68 1.1609 1.35593 0
M  V30 31931 C 3337.78 2.2778 2.50937 0
M  V30 31932 C 3336.96 3.59081 2.49759 0
M  V30 31933 C 3336.02 3.76762 3.67337 0
M  V30 31934 O 3335.04 4.48708 3.50213 0
M  V30 31935 N 3336.24 3.16701 4.86499 0
M  V30 31936 H 3339.01 2.88703 0.804397 0
M  V30 31937 H 3336.57 1.59234 0.292608 0
M  V30 31938 H 3338.56 2.3681 3.28182 0
M  V30 31939 H 3337.13 1.4326 2.77841 0
M  V30 31940 H 3336.35 3.61098 1.58119 0
M  V30 31941 H 3337.64 4.45355 2.46042 0
M  V30 31942 H 3337.04 2.58245 5.03315 0
M  V30 31943 H 3335.59 3.31228 5.61365 0
M  V30 31944 N 3339.03 -0.374123 1.53095 0
M  V30 31945 C 3340.44 -0.951353 1.60643 0
M  V30 31946 C 3340.79 -1.90524 0.468507 0
M  V30 31947 O 3339.91 -2.12551 -0.40631 0
M  V30 31948 C 3340.51 -1.73222 2.91169 0
M  V30 31949 C 3339.07 -2.25893 3.0108 0
M  V30 31950 C 3338.22 -1.0688 2.55875 0
M  V30 31951 H 3341.17 -0.153186 1.57959 0
M  V30 31952 H 3341.19 -2.59273 2.78492 0
M  V30 31953 H 3340.7 -1.03771 3.73969 0
M  V30 31954 H 3338.8 -2.98611 2.2285 0
M  V30 31955 H 3338.91 -2.5436 4.06002 0
M  V30 31956 H 3337.28 -1.43326 2.10547 0
M  V30 31957 H 3338.06 -0.38941 3.41084 0
M  V30 31958 N 3340.51 -1.4431 -0.633436 0
M  V30 31959 C 3341.78 -1.37447 -1.39168 0
M  V30 31960 C 3342.16 -0.0320365 -2.11076 0
M  V30 31961 O 3341.51 0.985294 -2.06165 0
M  V30 31962 C 3341.72 -2.57108 -2.36001 0
M  V30 31963 C 3343.07 -3.01071 -2.99402 0
M  V30 31964 O 3344.09 -2.57297 -2.46327 0
M  V30 31965 O 3342.95 -3.76961 -3.9568 0
M  V30 31966 H 3340.05 -0.544177 -0.622737 0
M  V30 31967 H 3342.59 -1.56395 -0.658685 0
M  V30 31968 H 3341.36 -3.46425 -1.81949 0
M  V30 31969 H 3340.99 -2.40361 -3.16721 0
M  V30 31970 N 3341.98 0.873632 -1.3117 0
M  V30 31971 C 3342.91 1.99644 -1.21097 0
M  V30 31972 C 3343.9 1.69812 -0.0989982 0
M  V30 31973 O 3345.08 1.92127 -0.282973 0
M  V30 31974 C 3342.21 3.35064 -0.913743 0
M  V30 31975 C 3341.16 3.79192 -1.98489 0
M  V30 31976 C 3340.49 5.1203 -1.54042 0
M  V30 31977 C 3341.79 3.96693 -3.39752 0
M  V30 31978 H 3343.48 2.08329 -2.15033 0
M  V30 31979 H 3341.03 1.00095 -1.03523 0
M  V30 31980 H 3342.98 4.13147 -0.829893 0
M  V30 31981 H 3341.71 3.26542 0.0612897 0
M  V30 31982 H 3340.37 3.03346 -2.05857 0
M  V30 31983 H 3340.01 4.99947 -0.553349 0
M  V30 31984 H 3339.71 5.42526 -2.25697 0
M  V30 31985 H 3341.24 5.92627 -1.47058 0
M  V30 31986 H 3342.65 4.65182 -3.3508 0
M  V30 31987 H 3341.05 4.38582 -4.09592 0
M  V30 31988 H 3342.12 3.00189 -3.80808 0
M  V30 31989 N 3343.46 1.1407 1.08746 0
M  V30 31990 C 3344.7 0.917105 1.82671 0
M  V30 31991 C 3345.07 -0.546656 1.84053 0
M  V30 31992 O 3346.27 -0.888073 2.53706 0
M  V30 31993 C 3344.54 1.49733 3.24522 0
M  V30 31994 S 3346.1 1.4148 4.15366 0
M  V30 31995 H 3342.92 0.330398 0.62957 0
M  V30 31996 H 3345.52 1.45354 1.30738 0
M  V30 31997 H 3344.22 2.55588 3.21096 0
M  V30 31998 H 3343.75 0.959136 3.81529 0
M  V30 31999 H 3345.77 0.397967 4.94602 0
M  V30 32000 N 3344.94 -1.26847 0.935286 0
M  V30 32001 C 3346.19 -1.94312 0.580583 0
M  V30 32002 C 3346.52 -1.73261 -0.877175 0
M  V30 32003 O 3345.79 -1.06614 -1.62677 0
M  V30 32004 C 3346.08 -3.48242 0.916506 0
M  V30 32005 C 3345.93 -3.78603 2.42857 0
M  V30 32006 C 3347.25 -4.38016 0.427742 0
M  V30 32007 H 3344.37 -0.705729 0.212403 0
M  V30 32008 H 3347.01 -1.49825 1.16844 0
M  V30 32009 H 3345.16 -3.86264 0.416237 0
M  V30 32010 H 3346.83 -3.50329 3.00112 0
M  V30 32011 H 3345.08 -3.24887 2.87456 0
M  V30 32012 H 3345.75 -4.86176 2.61413 0
M  V30 32013 H 3348.22 -4.07187 0.856596 0
M  V30 32014 H 3347.1 -5.44525 0.691667 0
M  V30 32015 H 3347.36 -4.36959 -0.672267 0
M  V30 32016 N 3346.42 -0.701641 -1.4112 0
M  V30 32017 C 3347.37 -0.0288461 -2.32582 0
M  V30 32018 C 3348.36 0.762047 -1.51292 0
M  V30 32019 O 3349.57 0.666985 -1.67186 0
M  V30 32020 H 3345.94 0.00947353 -0.75194 0
M  V30 32021 H 3347.91 -0.817192 -2.86992 0
M  V30 32022 C 3346.66 0.889158 -3.36139 0
M  V30 32023 H 3345.98 0.289992 -3.98747 0
M  V30 32024 H 3347.42 1.32812 -4.02662 0
M  V30 32025 C 3345.88 2.00816 -2.70508 0
M  V30 32026 O 3346.41 3.09759 -2.55758 0
M  V30 32027 N 3344.62 1.78768 -2.29108 0
M  V30 32028 H 3344.17 0.901665 -2.41304 0
M  V30 32029 H 3344.12 2.53822 -1.85531 0
M  V30 32030 N 3347.9 1.51133 -0.446821 0
M  V30 32031 C 3349.14 2.01766 0.116228 0
M  V30 32032 C 3349.47 1.33241 1.42379 0
M  V30 32033 O 3348.74 0.469948 1.9018 0
M  V30 32034 H 3347.32 0.745586 0.0459427 0
M  V30 32035 H 3349.98 1.85701 -0.591697 0
M  V30 32036 H 3349.07 3.10793 0.285303 0
M  V30 32037 N 3349.37 0.178515 1.56586 0
M  V30 32038 C 3350.79 -0.177562 1.58609 0
M  V30 32039 C 3350.99 -1.62304 1.19413 0
M  V30 32040 O 3350.05 -2.35567 0.909101 0
M  V30 32041 C 3351.36 0.109775 3.005 0
M  V30 32042 C 3352.91 0.0485586 3.12962 0
M  V30 32043 C 3353.38 0.308982 4.56957 0
M  V30 32044 N 3354.87 0.257011 4.62486 0
M  V30 32045 C 3355.61 0.432589 5.71766 0
M  V30 32046 N 3355.1 0.667615 6.89576 0
M  V30 32047 N 3356.9 0.367994 5.60894 0
M  V30 32048 H 3349.05 1.12196 1.80349 0
M  V30 32049 H 3351.31 0.446584 0.836222 0
M  V30 32050 H 3351.02 1.11139 3.33678 0
M  V30 32051 H 3350.89 -0.595308 3.72473 0
M  V30 32052 H 3353.28 -0.943638 2.79606 0
M  V30 32053 H 3353.36 0.786463 2.4341 0
M  V30 32054 H 3353 1.29842 4.91023 0
M  V30 32055 H 3352.93 -0.449618 5.24677 0
M  V30 32056 H 3355.42 0.0812972 3.77813 0
M  V30 32057 H 3355.74 0.790845 7.68743 0
M  V30 32058 H 3354.08 0.704315 6.91422 0
M  V30 32059 H 3357.27 0.184919 4.67735 0
M  V30 32060 H 3357.45 0.508252 6.46004 0
M  V30 32061 N 3350.85 -1.57312 -0.0951784 0
M  V30 32062 C 3352.09 -1.8791 -0.804302 0
M  V30 32063 C 3352.46 -0.769496 -1.75906 0
M  V30 32064 O 3353.66 -0.957891 -2.51153 0
M  V30 32065 C 3351.93 -3.23749 -1.51399 0
M  V30 32066 S 3353.49 -3.7604 -2.26141 0
M  V30 32067 H 3350.31 -0.658571 -0.267964 0
M  V30 32068 H 3352.91 -1.95403 -0.0614338 0
M  V30 32069 H 3351.61 -4.02428 -0.804996 0
M  V30 32070 H 3351.14 -3.19394 -2.29676 0
M  V30 32071 H 3353.16 -3.49449 -3.52278 0
M  V30 32072 N 3352.33 0.365999 -1.53291 0
M  V30 32073 C 3353.58 1.11033 -1.69704 0
M  V30 32074 C 3353.91 1.88978 -0.447314 0
M  V30 32075 O 3353.18 1.86402 0.555388 0
M  V30 32076 C 3353.47 2.06989 -2.94665 0
M  V30 32077 C 3353.32 1.32655 -4.29794 0
M  V30 32078 C 3354.64 3.07118 -3.15225 0
M  V30 32079 H 3351.76 0.402273 -0.617532 0
M  V30 32080 H 3354.4 0.39119 -1.85929 0
M  V30 32081 H 3352.55 2.68313 -2.80963 0
M  V30 32082 H 3354.22 0.741186 -4.55307 0
M  V30 32083 H 3352.47 0.628408 -4.29224 0
M  V30 32084 H 3353.14 2.02887 -5.13362 0
M  V30 32085 H 3355.61 2.55897 -3.28109 0
M  V30 32086 H 3354.49 3.71482 -4.04095 0
M  V30 32087 H 3354.75 3.77265 -2.30486 0
M  V30 32088 N 3353.81 1.44644 0.625774 0
M  V30 32089 C 3354.76 1.52229 1.75866 0
M  V30 32090 C 3355.75 0.393579 1.64764 0
M  V30 32091 O 3356.96 0.568748 1.70778 0
M  V30 32092 H 3353.33 0.477794 0.580704 0
M  V30 32093 H 3355.3 2.47567 1.66592 0
M  V30 32094 C 3354.05 1.48879 3.14214 0
M  V30 32095 H 3353.37 2.35049 3.23407 0
M  V30 32096 H 3354.81 1.58246 3.93363 0
M  V30 32097 C 3353.27 0.210358 3.36243 0
M  V30 32098 O 3353.8 -0.717265 3.95244 0
M  V30 32099 N 3352.01 0.111795 2.90385 0
M  V30 32100 H 3351.56 0.867508 2.42553 0
M  V30 32101 H 3351.51 -0.742817 3.05499 0
M  V30 32102 N 3355.29 -0.866663 1.31631 0
M  V30 32103 C 3356.51 -1.65267 1.24477 0
M  V30 32104 C 3356.93 -1.87848 -0.189357 0
M  V30 32105 O 3356.29 -1.43897 -1.12249 0
M  V30 32106 C 3356.34 -3.01878 1.98877 0
M  V30 32107 O 3356.06 -2.80304 3.36692 0
M  V30 32108 C 3357.56 -3.96323 1.98602 0
M  V30 32109 H 3354.78 -0.515134 0.429975 0
M  V30 32110 H 3357.32 -1.08152 1.73561 0
M  V30 32111 H 3355.48 -3.55672 1.53545 0
M  V30 32112 H 3355.89 -3.67099 3.74618 0
M  V30 32113 H 3357.37 -4.89484 2.55165 0
M  V30 32114 H 3357.84 -4.2837 0.969332 0
M  V30 32115 H 3358.45 -3.48466 2.43827 0
M  V30 32116 N 3356.77 -1.14645 -1.0814 0
M  V30 32117 C 3357.73 -0.838627 -2.13307 0
M  V30 32118 C 3358.73 0.157984 -1.60022 0
M  V30 32119 O 3359.92 -0.0706927 -1.74057 0
M  V30 32120 C 3357.05 -0.25065 -3.39977 0
M  V30 32121 H 3358.24 -1.7707 -2.42046 0
M  V30 32122 H 3355.8 -0.95285 -1.23897 0
M  V30 32123 H 3356.53 0.690008 -3.16874 0
M  V30 32124 H 3356.32 -0.968523 -3.7995 0
M  V30 32125 H 3357.81 -0.0525849 -4.17567 0
M  V30 32126 N 3358.24 1.26349 -0.942 0
M  V30 32127 C 3359.49 1.93332 -0.58884 0
M  V30 32128 C 3359.81 1.74264 0.875036 0
M  V30 32129 O 3359.08 1.09876 1.62185 0
M  V30 32130 H 3357.66 0.715455 -0.214786 0
M  V30 32131 H 3360.32 1.53772 -1.1975 0
M  V30 32132 H 3359.42 3.01478 -0.80732 0
M  V30 32133 N 3359.72 0.709115 1.40746 0
M  V30 32134 C 3360.95 0.253852 2.05841 0
M  V30 32135 C 3361.37 -1.09338 1.53058 0
M  V30 32136 O 3360.73 -1.68734 0.663211 0
M  V30 32137 C 3360.78 0.236762 3.59822 0
M  V30 32138 O 3359.88 -0.784097 4.04877 0
M  V30 32139 H 3359.22 0.120642 0.652948 0
M  V30 32140 H 3361.75 0.967781 1.80264 0
M  V30 32141 H 3361.76 0.0722333 4.07936 0
M  V30 32142 H 3360.44 1.21995 3.97605 0
M  V30 32143 H 3359.01 -0.587819 3.68238 0
M  V30 32144 N 3361.2 -1.50894 0.454829 0
M  V30 32145 C 3362.45 -2.02224 -0.105735 0
M  V30 32146 C 3362.77 -1.33792 -1.41174 0
M  V30 32147 O 3362.03 -0.447215 -1.90522 0
M  V30 32148 C 3362.33 -3.55642 -0.354097 0
M  V30 32149 C 3361.99 -4.42462 0.868214 0
M  V30 32150 C 3360.66 -4.6591 1.20338 0
M  V30 32151 C 3363.01 -4.93286 1.6828 0
M  V30 32152 C 3360.34 -5.37427 2.35349 0
M  V30 32153 C 3362.69 -5.66065 2.82406 0
M  V30 32154 C 3361.35 -5.87771 3.16356 0
M  V30 32155 H 3360.62 -0.739989 -0.0386911 0
M  V30 32156 H 3363.27 -1.81672 0.605596 0
M  V30 32157 H 3361.57 -3.74619 -1.14751 0
M  V30 32158 H 3363.27 -3.92908 -0.801531 0
M  V30 32159 H 3359.86 -4.24421 0.597069 0
M  V30 32160 H 3364.05 -4.75039 1.43706 0
M  V30 32161 H 3359.3 -5.52444 2.61946 0
M  V30 32162 H 3363.48 -6.04432 3.45883 0
M  V30 32163 H 3361.1 -6.42966 4.05585 0
M  V30 32164 N 3362.68 -0.186817 -1.56489 0
M  V30 32165 C 3364.09 0.169149 -1.58701 0
M  V30 32166 C 3364.29 1.61669 -1.20273 0
M  V30 32167 O 3363.35 2.35081 -0.921581 0
M  V30 32168 C 3364.66 -0.12571 -3.00437 0
M  V30 32169 C 3366.21 -0.065155 -3.12932 0
M  V30 32170 C 3366.69 -0.333211 -4.56786 0
M  V30 32171 N 3368.18 -0.281534 -4.62344 0
M  V30 32172 C 3368.91 -0.462905 -5.71528 0
M  V30 32173 N 3368.41 -0.704176 -6.89212 0
M  V30 32174 N 3370.2 -0.397734 -5.60691 0
M  V30 32175 H 3362.35 -1.13151 -1.79752 0
M  V30 32176 H 3364.61 -0.451012 -0.833842 0
M  V30 32177 H 3364.32 -1.12907 -3.33084 0
M  V30 32178 H 3364.19 0.575546 -3.72783 0
M  V30 32179 H 3366.58 0.928796 -2.80102 0
M  V30 32180 H 3366.66 -0.799361 -2.42989 0
M  V30 32181 H 3366.31 -1.32444 -4.90327 0
M  V30 32182 H 3366.24 0.421787 -5.24908 0
M  V30 32183 H 3368.73 -0.101332 -3.77764 0
M  V30 32184 H 3369.04 -0.831603 -7.68313 0
M  V30 32185 H 3367.39 -0.740973 -6.91039 0
M  V30 32186 H 3370.58 -0.209722 -4.6763 0
M  V30 32187 H 3370.75 -0.542504 -6.45725 0
M  V30 32188 N 3364.16 1.57361 0.0868344 0
M  V30 32189 C 3365.4 1.88334 0.794325 0
M  V30 32190 C 3365.76 0.778814 1.75495 0
M  V30 32191 O 3366.96 0.971196 2.50642 0
M  V30 32192 C 3365.23 3.24547 1.4968 0
M  V30 32193 S 3366.79 3.77234 2.24143 0
M  V30 32194 H 3363.61 0.659983 0.264468 0
M  V30 32195 H 3366.21 1.95433 0.0510703 0
M  V30 32196 H 3364.91 4.02849 0.783643 0
M  V30 32197 H 3364.45 3.20608 2.27979 0
M  V30 32198 H 3366.46 3.51313 3.5042 0
M  V30 32199 N 3365.63 -0.357865 1.53483 0
M  V30 32200 C 3366.91 -1.11583 1.60651 0
M  V30 32201 C 3367.29 -2.06904 0.418826 0
M  V30 32202 O 3366.64 -2.20745 -0.59024 0
M  V30 32203 C 3366.85 -1.84813 2.96049 0
M  V30 32204 C 3368.2 -2.3907 3.509 0
M  V30 32205 O 3369.22 -1.94929 2.98129 0
M  V30 32206 O 3368.08 -3.19786 4.43169 0
M  V30 32207 H 3365.17 -0.512303 0.649211 0
M  V30 32208 H 3367.72 -0.360508 1.65827 0
M  V30 32209 H 3366.49 -1.15289 3.73931 0
M  V30 32210 H 3366.11 -2.67235 2.94399 0
M  V30 32211 N 3367.11 -1.44974 -0.618094 0
M  V30 32212 C 3368.35 -1.49973 -1.3888 0
M  V30 32213 C 3368.72 -0.133875 -1.91533 0
M  V30 32214 O 3369.92 -0.0585484 -2.68736 0
M  V30 32215 C 3368.19 -2.54077 -2.51355 0
M  V30 32216 S 3369.75 -2.78222 -3.3932 0
M  V30 32217 H 3366.56 -0.530287 -0.473621 0
M  V30 32218 H 3369.17 -1.81985 -0.714267 0
M  V30 32219 H 3367.87 -3.52001 -2.11006 0
M  V30 32220 H 3367.4 -2.23681 -3.23621 0
M  V30 32221 H 3369.42 -2.10805 -4.49195 0
M  V30 32222 N 3368.59 0.85967 -1.32089 0
M  V30 32223 C 3369.87 1.59666 -1.12987 0
M  V30 32224 C 3370.25 2.08787 0.311624 0
M  V30 32225 O 3369.59 1.87399 1.30743 0
M  V30 32226 C 3369.8 2.74669 -2.1531 0
M  V30 32227 C 3371.15 3.44375 -2.48377 0
M  V30 32228 O 3372.18 2.84888 -2.13816 0
M  V30 32229 O 3371.04 4.51712 -3.07602 0
M  V30 32230 H 3368.13 0.702938 -0.435669 0
M  V30 32231 H 3370.68 0.904235 -1.43603 0
M  V30 32232 H 3369.45 2.3586 -3.12227 0
M  V30 32233 H 3369.07 3.51591 -1.8566 0
M  V30 32234 N 3370.07 1.15217 1.0753 0
M  V30 32235 C 3370.98 0.86123 2.1822 0
M  V30 32236 C 3371.99 -0.161767 1.73246 0
M  V30 32237 O 3373.17 0.011874 2.01396 0
M  V30 32238 C 3370.23 0.352662 3.44902 0
M  V30 32239 C 3369.3 1.43933 4.04452 0
M  V30 32240 C 3368.53 0.954934 5.25087 0
M  V30 32241 O 3368.75 -0.200193 5.70049 0
M  V30 32242 O 3367.69 1.73784 5.76266 0
M  V30 32243 H 3371.51 1.78652 2.45595 0
M  V30 32244 H 3369.1 0.93114 1.16834 0
M  V30 32245 H 3370.98 0.0754088 4.21333 0
M  V30 32246 H 3369.65 -0.544785 3.19083 0
M  V30 32247 H 3368.56 1.77016 3.2957 0
M  V30 32248 H 3369.89 2.31162 4.3454 0
M  V30 32249 N 3371.55 -1.25848 0.948687 0
M  V30 32250 C 3372.79 -1.93017 0.599084 0
M  V30 32251 C 3373.12 -1.74726 -0.865783 0
M  V30 32252 O 3372.39 -1.10734 -1.616 0
M  V30 32253 H 3370.97 -0.714306 0.218577 0
M  V30 32254 H 3373.63 -1.53135 1.20564 0
M  V30 32255 H 3372.72 -3.01045 0.823297 0
M  V30 32256 N 3373.02 -0.716569 -1.40368 0
M  V30 32257 C 3374.27 -0.256501 -2.00869 0
M  V30 32258 C 3374.6 1.15058 -1.56818 0
M  V30 32259 O 3373.85 1.79496 -0.779728 0
M  V30 32260 C 3374.15 -0.285645 -3.56257 0
M  V30 32261 C 3373.82 -1.64316 -4.19894 0
M  V30 32262 C 3372.48 -2.01476 -4.36991 0
M  V30 32263 C 3374.83 -2.53532 -4.5538 0
M  V30 32264 C 3372.16 -3.27395 -4.86856 0
M  V30 32265 C 3374.51 -3.78804 -5.06646 0
M  V30 32266 C 3373.18 -4.1608 -5.21952 0
M  V30 32267 H 3372.45 -0.0938604 -0.735031 0
M  V30 32268 H 3375.09 -0.919794 -1.67964 0
M  V30 32269 H 3373.4 0.461219 -3.89076 0
M  V30 32270 H 3375.1 0.0881791 -4.00903 0
M  V30 32271 H 3371.69 -1.3442 -4.06976 0
M  V30 32272 H 3375.87 -2.26098 -4.41807 0
M  V30 32273 H 3371.13 -3.56244 -4.96891 0
M  V30 32274 H 3375.3 -4.48105 -5.33081 0
M  V30 32275 H 3372.93 -5.1372 -5.60353 0
M  V30 32276 N 3374.5 1.50651 -0.462825 0
M  V30 32277 C 3375.43 2.26164 0.371797 0
M  V30 32278 C 3376.45 1.31168 0.964297 0
M  V30 32279 O 3377.64 1.5674 0.854106 0
M  V30 32280 C 3374.74 3.02162 1.53464 0
M  V30 32281 C 3373.91 4.24451 1.05642 0
M  V30 32282 C 3372.97 4.82812 2.09234 0
M  V30 32283 O 3371.99 5.43956 1.67631 0
M  V30 32284 N 3373.2 4.69082 3.41968 0
M  V30 32285 H 3375.96 2.98431 -0.275528 0
M  V30 32286 H 3373.52 1.59224 -0.293137 0
M  V30 32287 H 3375.51 3.38087 2.2244 0
M  V30 32288 H 3374.08 2.32746 2.08681 0
M  V30 32289 H 3373.3 3.93728 0.192826 0
M  V30 32290 H 3374.59 5.03755 0.714707 0
M  V30 32291 H 3373.99 4.20436 3.78484 0
M  V30 32292 H 3372.55 5.09298 4.06766 0
M  V30 32293 N 3375.98 0.195113 1.56388 0
M  V30 32294 C 3377.39 -0.317481 1.83981 0
M  V30 32295 C 3377.74 -1.61384 1.11578 0
M  V30 32296 O 3376.87 -2.13098 0.376594 0
M  V30 32297 C 3377.46 -0.582801 3.3375 0
M  V30 32298 C 3376.02 -1.03976 3.61754 0
M  V30 32299 C 3375.17 -0.0883853 2.77159 0
M  V30 32300 H 3378.12 0.418898 1.53072 0
M  V30 32301 H 3378.14 -1.4321 3.52521 0
M  V30 32302 H 3377.65 0.360881 3.86419 0
M  V30 32303 H 3375.75 -1.99772 3.14518 0
M  V30 32304 H 3375.87 -0.932466 4.69938 0
M  V30 32305 H 3374.23 -0.590274 2.47766 0
M  V30 32306 H 3375.01 0.849741 3.32617 0
M  V30 32307 N 3377.46 -1.57404 -0.0784879 0
M  V30 32308 C 3378.68 -1.91523 -0.795838 0
M  V30 32309 C 3379.11 -0.790922 -1.70664 0
M  V30 32310 O 3378.47 0.256629 -1.79475 0
M  V30 32311 C 3378.51 -3.24572 -1.57116 0
M  V30 32312 O 3377.62 -3.13333 -2.68135 0
M  V30 32313 H 3376.96 -0.627345 -0.217564 0
M  V30 32314 H 3379.49 -2.04542 -0.0487364 0
M  V30 32315 H 3379.5 -3.58284 -1.95184 0
M  V30 32316 H 3378.17 -4.05982 -0.902838 0
M  V30 32317 H 3376.75 -2.91167 -2.32973 0
M  V30 32318 N 3378.94 0.34972 -1.53671 0
M  V30 32319 C 3380.35 0.925676 -1.62136 0
M  V30 32320 C 3380.7 1.89755 -0.498759 0
M  V30 32321 O 3379.82 2.13171 0.372443 0
M  V30 32322 C 3380.42 1.68568 -2.93888 0
M  V30 32323 C 3378.98 2.21074 -3.04636 0
M  V30 32324 C 3378.12 1.02796 -2.57543 0
M  V30 32325 H 3381.08 0.128037 -1.58183 0
M  V30 32326 H 3381.1 2.5481 -2.82581 0
M  V30 32327 H 3380.61 0.978087 -3.75573 0
M  V30 32328 H 3378.71 2.95028 -2.27572 0
M  V30 32329 H 3378.82 2.47868 -4.09998 0
M  V30 32330 H 3377.19 1.39958 -2.128 0
M  V30 32331 H 3377.97 0.335097 -3.41661 0
M  V30 32332 N 3380.41 1.45299 0.610397 0
M  V30 32333 C 3381.64 1.5269 1.39619 0
M  V30 32334 C 3382.06 0.158568 1.88133 0
M  V30 32335 O 3381.41 -0.839368 1.62052 0
M  V30 32336 C 3381.47 2.50896 2.60257 0
M  V30 32337 O 3381.19 3.82411 2.1376 0
M  V30 32338 C 3382.69 2.67957 3.53149 0
M  V30 32339 H 3379.91 0.517203 0.427484 0
M  V30 32340 H 3382.45 1.9046 0.744668 0
M  V30 32341 H 3380.61 2.16205 3.21456 0
M  V30 32342 H 3381.02 4.35621 2.92121 0
M  V30 32343 H 3382.49 3.40654 4.34349 0
M  V30 32344 H 3382.97 1.73895 4.03308 0
M  V30 32345 H 3383.58 3.03632 2.97805 0
M  V30 32346 N 3381.89 -0.852653 1.32543 0
M  V30 32347 C 3382.82 -1.97692 1.24258 0
M  V30 32348 C 3383.8 -1.69633 0.126001 0
M  V30 32349 O 3384.99 -1.91653 0.313503 0
M  V30 32350 C 3382.12 -3.33568 0.966933 0
M  V30 32351 C 3381.07 -3.75986 2.04496 0
M  V30 32352 C 3380.4 -5.09515 1.62169 0
M  V30 32353 C 3381.7 -3.91238 3.4602 0
M  V30 32354 H 3383.39 -2.04882 2.18321 0
M  V30 32355 H 3380.94 -0.984352 1.05102 0
M  V30 32356 H 3382.89 -4.11775 0.895516 0
M  V30 32357 H 3381.62 -3.26599 -0.00933189 0
M  V30 32358 H 3380.27 -3.00032 2.10657 0
M  V30 32359 H 3379.92 -4.99003 0.632816 0
M  V30 32360 H 3379.62 -5.38867 2.343 0
M  V30 32361 H 3381.15 -5.90212 1.56467 0
M  V30 32362 H 3382.56 -4.59793 3.42438 0
M  V30 32363 H 3380.96 -4.3201 4.16518 0
M  V30 32364 H 3382.03 -2.94093 3.85535 0
M  V30 32365 N 3383.37 -1.15786 -1.06918 0
M  V30 32366 C 3384.6 -0.959454 -1.83309 0
M  V30 32367 C 3385.01 0.4923 -1.82269 0
M  V30 32368 O 3384.37 1.34154 -1.23729 0
M  V30 32369 C 3384.42 -1.47141 -3.302 0
M  V30 32370 O 3384.14 -2.8663 -3.31323 0
M  V30 32371 C 3385.64 -1.31512 -4.23343 0
M  V30 32372 H 3382.86 -0.340485 -0.578196 0
M  V30 32373 H 3385.41 -1.53664 -1.34936 0
M  V30 32374 H 3383.56 -0.936653 -3.75906 0
M  V30 32375 H 3383.98 -3.09938 -4.2313 0
M  V30 32376 H 3385.45 -1.72172 -5.24462 0
M  V30 32377 H 3385.93 -0.25985 -4.38431 0
M  V30 32378 H 3386.53 -1.83917 -3.83477 0
M  V30 32379 N 3384.85 1.25343 -0.955348 0
M  V30 32380 C 3385.76 2.29579 -0.482748 0
M  V30 32381 C 3386.77 1.68074 0.450253 0
M  V30 32382 O 3387.95 1.98739 0.326323 0
M  V30 32383 C 3385.02 3.45928 0.231232 0
M  V30 32384 C 3384.08 4.22873 -0.74007 0
M  V30 32385 C 3383.31 5.33666 -0.0600686 0
M  V30 32386 O 3383.53 5.58602 1.15414 0
M  V30 32387 O 3382.47 5.97259 -0.74597 0
M  V30 32388 H 3386.29 2.72097 -1.34897 0
M  V30 32389 H 3383.88 1.30805 -0.721834 0
M  V30 32390 H 3385.76 4.16621 0.632835 0
M  V30 32391 H 3384.43 3.05412 1.07261 0
M  V30 32392 H 3383.34 3.54605 -1.19189 0
M  V30 32393 H 3384.67 4.67174 -1.54949 0
M  V30 32394 N 3386.33 0.724003 1.39986 0
M  V30 32395 C 3387.57 0.271683 2.02586 0
M  V30 32396 C 3387.93 -1.11666 1.56188 0
M  V30 32397 O 3389.13 -1.66645 2.1091 0
M  V30 32398 C 3387.4 0.357913 3.55603 0
M  V30 32399 S 3388.96 -0.0161843 4.38797 0
M  V30 32400 H 3385.78 0.107173 0.702876 0
M  V30 32401 H 3388.38 0.948087 1.70972 0
M  V30 32402 H 3387.09 1.36984 3.86864 0
M  V30 32403 H 3386.62 -0.336685 3.91957 0
M  V30 32404 H 3388.63 -1.23573 4.80566 0
M  V30 32405 N 3387.81 -1.50403 0.470808 0
M  V30 32406 C 3388.76 -2.25418 -0.342144 0
M  V30 32407 C 3389.74 -1.28996 -0.961703 0
M  V30 32408 O 3390.93 -1.53899 -0.874299 0
M  V30 32409 C 3388.06 -3.12386 -1.42372 0
M  V30 32410 C 3387.15 -4.16256 -0.811909 0
M  V30 32411 N 3387.54 -5.05755 0.0676134 0
M  V30 32412 C 3385.84 -4.32829 -1.07588 0
M  V30 32413 C 3386.54 -5.80219 0.414795 0
M  V30 32414 N 3385.51 -5.43194 -0.209951 0
M  V30 32415 H 3389.31 -2.9198 0.335395 0
M  V30 32416 H 3386.83 -1.59881 0.284939 0
M  V30 32417 H 3388.83 -3.64733 -2.0193 0
M  V30 32418 H 3387.49 -2.47373 -2.10326 0
M  V30 32419 H 3388.5 -5.16058 0.436424 0
M  V30 32420 H 3385.17 -3.79034 -1.75042 0
M  V30 32421 H 3386.56 -6.62286 1.13255 0
M  V30 32422 N 3389.28 -0.203404 -1.56282 0
M  V30 32423 C 3390.56 0.481222 -1.89588 0
M  V30 32424 C 3390.94 1.79055 -1.11815 0
M  V30 32425 O 3390.29 2.27421 -0.221799 0
M  V30 32426 C 3390.5 0.691904 -3.42073 0
M  V30 32427 C 3391.85 1.00754 -4.12473 0
M  V30 32428 O 3392.87 0.779335 -3.4757 0
M  V30 32429 O 3391.73 1.43964 -5.27197 0
M  V30 32430 H 3388.82 0.251949 -0.787687 0
M  V30 32431 H 3391.37 -0.244237 -1.67933 0
M  V30 32432 H 3390.14 -0.232391 -3.90609 0
M  V30 32433 H 3389.76 1.46952 -3.69447 0
M  V30 32434 N 3390.76 1.57444 0.0701393 0
M  V30 32435 C 3392.01 1.86514 0.767809 0
M  V30 32436 C 3392.32 0.796288 1.78658 0
M  V30 32437 O 3393.53 0.97489 2.53393 0
M  V30 32438 C 3391.99 3.30853 1.41648 0
M  V30 32439 C 3391.59 4.45871 0.436194 0
M  V30 32440 C 3393.34 3.69121 2.09642 0
M  V30 32441 C 3391.24 5.81252 1.09088 0
M  V30 32442 H 3390.17 0.695789 0.290507 0
M  V30 32443 H 3392.83 1.83488 0.0211375 0
M  V30 32444 H 3391.21 3.28496 2.21147 0
M  V30 32445 H 3392.38 4.59623 -0.329103 0
M  V30 32446 H 3390.7 4.16167 -0.139387 0
M  V30 32447 H 3393.29 4.67562 2.59403 0
M  V30 32448 H 3393.64 2.99005 2.89657 0
M  V30 32449 H 3394.17 3.73475 1.36972 0
M  V30 32450 H 3390.91 6.54664 0.331013 0
M  V30 32451 H 3390.43 5.71298 1.827 0
M  V30 32452 H 3392.11 6.26642 1.61023 0
M  V30 32453 N 3392.24 -0.341566 1.53854 0
M  V30 32454 C 3393.66 -0.684796 1.44162 0
M  V30 32455 C 3393.86 -1.92361 0.599963 0
M  V30 32456 O 3392.91 -2.52333 0.0917215 0
M  V30 32457 C 3394.22 -0.875587 2.8767 0
M  V30 32458 C 3395.77 -0.974078 2.97457 0
M  V30 32459 C 3396.25 -1.19717 4.42077 0
M  V30 32460 N 3397.74 -1.26433 4.45611 0
M  V30 32461 C 3398.47 -1.45449 5.54646 0
M  V30 32462 N 3397.97 -1.61626 6.73683 0
M  V30 32463 N 3399.76 -1.48013 5.42263 0
M  V30 32464 H 3391.91 0.472919 2.07068 0
M  V30 32465 H 3394.18 0.149664 0.936111 0
M  V30 32466 H 3393.88 -0.0367977 3.51681 0
M  V30 32467 H 3393.76 -1.77674 3.32734 0
M  V30 32468 H 3396.14 -1.80339 2.33585 0
M  V30 32469 H 3396.22 -0.0497832 2.55752 0
M  V30 32470 H 3395.87 -0.372783 5.0653 0
M  V30 32471 H 3395.8 -2.13506 4.81376 0
M  V30 32472 H 3398.29 -1.15448 3.59833 0
M  V30 32473 H 3398.6 -1.75777 7.52544 0
M  V30 32474 H 3396.95 -1.58758 6.76625 0
M  V30 32475 H 3400.14 -1.34959 4.48223 0
M  V30 32476 H 3400.31 -1.62491 6.27296 0
M  V30 32477 N 3393.72 -1.45621 -0.602683 0
M  V30 32478 C 3394.65 -1.50681 -1.72708 0
M  V30 32479 C 3395.66 -0.397076 -1.57883 0
M  V30 32480 O 3396.85 -0.664396 -1.65674 0
M  V30 32481 C 3393.95 -1.3521 -3.1076 0
M  V30 32482 C 3393.12 -2.59945 -3.51777 0
M  V30 32483 C 3392.18 -2.3896 -4.68812 0
M  V30 32484 O 3391.21 -3.12597 -4.75681 0
M  V30 32485 N 3392.41 -1.43837 -5.62398 0
M  V30 32486 H 3395.18 -2.47622 -1.68829 0
M  V30 32487 H 3392.74 -1.41423 -0.788107 0
M  V30 32488 H 3394.73 -1.18974 -3.86817 0
M  V30 32489 H 3393.3 -0.465257 -3.09118 0
M  V30 32490 H 3392.52 -2.91262 -2.65632 0
M  V30 32491 H 3393.81 -3.42848 -3.75942 0
M  V30 32492 H 3393.21 -0.830768 -5.59567 0
M  V30 32493 H 3391.76 -1.33572 -6.37967 0
M  V30 32494 N 3395.2 0.845612 -1.32993 0
M  V30 32495 C 3396.44 1.59726 -1.23822 0
M  V30 32496 C 3396.76 1.93995 0.19769 0
M  V30 32497 O 3396.03 1.60394 1.12474 0
M  V30 32498 H 3394.61 0.592204 -0.455306 0
M  V30 32499 H 3397.28 1.01098 -1.66629 0
M  V30 32500 H 3396.37 2.5302 -1.82722 0
M  V30 32501 N 3396.67 1.16351 1.06302 0
M  V30 32502 C 3398.08 0.95268 1.60564 0
M  V30 32503 C 3398.44 -0.50344 1.89631 0
M  V30 32504 O 3397.56 -1.37663 1.66967 0
M  V30 32505 C 3398.16 1.72297 2.91717 0
M  V30 32506 C 3396.71 1.55713 3.42681 0
M  V30 32507 C 3395.86 1.73176 2.16576 0
M  V30 32508 H 3398.81 1.31223 0.89254 0
M  V30 32509 H 3398.83 1.19874 3.61124 0
M  V30 32510 H 3398.35 2.78271 2.7053 0
M  V30 32511 H 3396.45 0.521791 3.68928 0
M  V30 32512 H 3396.56 2.34096 4.18014 0
M  V30 32513 H 3394.92 1.15918 2.26793 0
M  V30 32514 H 3395.71 2.80538 1.97872 0
M  V30 32515 N 3398.15 -1.24835 0.961982 0
M  V30 32516 C 3399.39 -1.94497 0.628518 0
M  V30 32517 C 3399.76 -1.73594 -0.820307 0
M  V30 32518 O 3400.96 -2.37242 -1.26372 0
M  V30 32519 C 3399.23 -3.43525 0.986179 0
M  V30 32520 S 3400.79 -4.32055 0.7664 0
M  V30 32521 H 3397.6 -0.672507 0.23077 0
M  V30 32522 H 3400.21 -1.5133 1.23772 0
M  V30 32523 H 3398.91 -3.56243 2.03762 0
M  V30 32524 H 3398.44 -3.91679 0.367523 0
M  V30 32525 H 3400.46 -4.94899 -0.35914 0
M  V30 32526 N 3399.63 -0.731417 -1.396 0
M  V30 32527 C 3400.88 -0.277792 -2.00586 0
M  V30 32528 C 3401.2 1.13389 -1.58029 0
M  V30 32529 O 3400.46 1.78659 -0.798722 0
M  V30 32530 C 3400.76 -0.323415 -3.55934 0
M  V30 32531 C 3400.42 -1.68761 -4.18128 0
M  V30 32532 C 3399.09 -2.061 -4.34829 0
M  V30 32533 C 3401.44 -2.58347 -4.52666 0
M  V30 32534 C 3398.77 -3.32541 -4.83356 0
M  V30 32535 C 3401.12 -3.84157 -5.026 0
M  V30 32536 C 3399.78 -4.21593 -5.17509 0
M  V30 32537 H 3399.05 -0.101651 -0.733995 0
M  V30 32538 H 3401.7 -0.937557 -1.66979 0
M  V30 32539 H 3400 0.419926 -3.89543 0
M  V30 32540 H 3401.7 0.045653 -4.00974 0
M  V30 32541 H 3398.29 -1.38729 -4.05527 0
M  V30 32542 H 3402.48 -2.30771 -4.39384 0
M  V30 32543 H 3397.73 -3.61494 -4.93084 0
M  V30 32544 H 3401.91 -4.53734 -5.28298 0
M  V30 32545 H 3399.53 -5.19635 -5.54873 0
M  V30 32546 N 3401.11 1.50152 -0.478778 0
M  V30 32547 C 3402.07 2.27226 0.300141 0
M  V30 32548 C 3403.07 1.3232 0.913681 0
M  V30 32549 O 3404.26 1.55678 0.781664 0
M  V30 32550 C 3401.39 3.09535 1.42832 0
M  V30 32551 H 3402.59 2.97535 -0.375897 0
M  V30 32552 H 3400.14 1.54553 -0.233064 0
M  V30 32553 H 3400.87 2.4374 2.13919 0
M  V30 32554 H 3400.66 3.79289 0.994095 0
M  V30 32555 H 3402.15 3.67806 1.97759 0
M  V30 32556 N 3402.59 0.211689 1.56172 0
M  V30 32557 C 3403.5 -0.714042 2.23469 0
M  V30 32558 C 3404.51 -1.22157 1.2391 0
M  V30 32559 O 3405.69 -1.26525 1.56695 0
M  V30 32560 C 3402.75 -1.90948 2.89378 0
M  V30 32561 C 3401.81 -1.4449 4.04254 0
M  V30 32562 C 3401.05 -2.58335 4.6701 0
M  V30 32563 O 3401.27 -3.7623 4.28728 0
M  V30 32564 O 3400.2 -2.301 5.56181 0
M  V30 32565 H 3404.03 -0.170809 3.03219 0
M  V30 32566 H 3401.62 -0.0183345 1.49389 0
M  V30 32567 H 3403.5 -2.60782 3.31015 0
M  V30 32568 H 3402.17 -2.441 2.12596 0
M  V30 32569 H 3401.08 -0.714867 3.67206 0
M  V30 32570 H 3402.41 -0.959862 4.8275 0
M  V30 32571 N 3404.06 -1.57479 -0.0617887 0
M  V30 32572 C 3405.31 -1.88014 -0.76016 0
M  V30 32573 C 3405.64 -0.805289 -1.76717 0
M  V30 32574 O 3404.92 0.183374 -1.93634 0
M  V30 32575 C 3405.2 -3.29211 -1.45919 0
M  V30 32576 C 3405.05 -4.4736 -0.467916 0
M  V30 32577 C 3406.37 -3.68797 -2.4016 0
M  V30 32578 H 3403.49 -0.683818 -0.274884 0
M  V30 32579 H 3406.13 -1.89986 -0.0232099 0
M  V30 32580 H 3404.28 -3.27661 -2.08736 0
M  V30 32581 H 3405.96 -4.61037 0.155816 0
M  V30 32582 H 3404.2 -4.33263 0.215874 0
M  V30 32583 H 3404.87 -5.42961 -0.994847 0
M  V30 32584 H 3407.35 -3.71505 -1.87412 0
M  V30 32585 H 3406.22 -4.68462 -2.86068 0
M  V30 32586 H 3406.48 -2.9927 -3.25408 0
M  V30 32587 N 3405.54 0.333401 -1.54033 0
M  V30 32588 C 3406.47 1.41527 -1.85722 0
M  V30 32589 C 3407.45 1.54428 -0.713171 0
M  V30 32590 O 3408.64 1.68469 -0.966014 0
M  V30 32591 C 3405.77 2.78436 -2.07583 0
M  V30 32592 C 3404.72 2.80333 -3.23416 0
M  V30 32593 C 3404.05 4.20224 -3.3063 0
M  V30 32594 C 3405.35 2.44959 -4.61294 0
M  V30 32595 H 3407.04 1.15256 -2.76327 0
M  V30 32596 H 3404.59 0.553007 -1.32958 0
M  V30 32597 H 3406.54 3.54176 -2.28336 0
M  V30 32598 H 3405.27 3.06163 -1.13718 0
M  V30 32599 H 3403.92 2.07046 -3.02535 0
M  V30 32600 H 3403.57 4.45077 -2.34341 0
M  V30 32601 H 3403.27 4.22402 -4.08474 0
M  V30 32602 H 3404.8 4.97791 -3.53605 0
M  V30 32603 H 3406.21 3.10413 -4.81993 0
M  V30 32604 H 3404.61 2.58404 -5.41615 0
M  V30 32605 H 3405.68 1.40126 -4.64212 0
M  V30 32606 N 3407.02 1.45939 0.594952 0
M  V30 32607 C 3407.95 1.51594 1.71906 0
M  V30 32608 C 3408.97 0.405443 1.57671 0
M  V30 32609 O 3410.15 0.673173 1.6532 0
M  V30 32610 C 3407.25 1.36856 3.10038 0
M  V30 32611 C 3406.43 2.61807 3.50394 0
M  V30 32612 C 3405.49 2.41443 4.67538 0
M  V30 32613 O 3404.51 3.15115 4.74016 0
M  V30 32614 N 3405.71 1.46818 5.61627 0
M  V30 32615 H 3408.48 2.48514 1.67513 0
M  V30 32616 H 3406.04 1.41839 0.780596 0
M  V30 32617 H 3408.03 1.21024 3.8618 0
M  V30 32618 H 3406.6 0.481644 3.08867 0
M  V30 32619 H 3405.82 2.92667 2.64083 0
M  V30 32620 H 3407.11 3.44837 3.74119 0
M  V30 32621 H 3406.51 0.860431 5.59118 0
M  V30 32622 H 3405.07 1.36953 6.3725 0
M  V30 32623 N 3408.5 -0.838547 1.3344 0
M  V30 32624 C 3409.73 -1.6259 1.27954 0
M  V30 32625 C 3410.14 -1.88207 -0.149469 0
M  V30 32626 O 3409.5 -1.46246 -1.09171 0
M  V30 32627 C 3409.55 -2.97591 2.05235 0
M  V30 32628 O 3409.27 -2.73099 3.42562 0
M  V30 32629 C 3410.77 -3.92021 2.06964 0
M  V30 32630 H 3407.99 -0.505897 0.440805 0
M  V30 32631 H 3410.54 -1.04447 1.75816 0
M  V30 32632 H 3408.69 -3.52335 1.61055 0
M  V30 32633 H 3409.1 -3.5907 3.82321 0
M  V30 32634 H 3410.58 -4.83962 2.6549 0
M  V30 32635 H 3411.06 -4.26217 1.05998 0
M  V30 32636 H 3411.66 -3.43215 2.51164 0
M  V30 32637 N 3409.98 -1.16914 -1.05683 0
M  V30 32638 C 3410.91 -0.824793 -2.12773 0
M  V30 32639 C 3411.89 0.206261 -1.61286 0
M  V30 32640 O 3413.07 0.0889285 -1.8829 0
M  V30 32641 C 3410.2 -0.229482 -3.37922 0
M  V30 32642 C 3409.24 -1.23513 -4.08224 0
M  V30 32643 S 3410.08 -2.78439 -4.57419 0
M  V30 32644 C 3411.23 -2.20375 -5.85821 0
M  V30 32645 H 3411.47 -1.73178 -2.41654 0
M  V30 32646 H 3409 -0.993261 -1.1821 0
M  V30 32647 H 3410.96 0.107516 -4.10359 0
M  V30 32648 H 3409.62 0.65537 -3.07187 0
M  V30 32649 H 3408.81 -0.767147 -4.98127 0
M  V30 32650 H 3408.41 -1.51753 -3.41829 0
M  V30 32651 H 3410.71 -1.57623 -6.58909 0
M  V30 32652 H 3411.65 -3.08513 -6.37358 0
M  V30 32653 H 3412.06 -1.64018 -5.40147 0
M  V30 32654 N 3411.45 1.24323 -0.968589 0
M  V30 32655 C 3412.69 1.94161 -0.638824 0
M  V30 32656 C 3413.06 1.74027 0.811089 0
M  V30 32657 O 3414.26 2.37909 1.25112 0
M  V30 32658 C 3412.53 3.42997 -1.00438 0
M  V30 32659 S 3414.09 4.31643 -0.789302 0
M  V30 32660 H 3410.91 0.671274 -0.234334 0
M  V30 32661 H 3413.51 1.50671 -1.24573 0
M  V30 32662 H 3412.21 3.55157 -2.05649 0
M  V30 32663 H 3411.74 3.91479 -0.388289 0
M  V30 32664 H 3413.76 4.95082 0.332889 0
M  V30 32665 N 3412.93 0.73881 1.3921 0
M  V30 32666 C 3414.35 0.4148 1.54115 0
M  V30 32667 C 3414.55 -1.07389 1.70499 0
M  V30 32668 O 3413.6 -1.86 1.70763 0
M  V30 32669 C 3414.92 1.20115 2.75668 0
M  V30 32670 C 3416.47 1.18975 2.89506 0
M  V30 32671 C 3416.94 1.95875 4.14001 0
M  V30 32672 N 3418.43 1.9306 4.21049 0
M  V30 32673 C 3419.17 2.49367 5.16337 0
M  V30 32674 N 3418.66 3.14327 6.1739 0
M  V30 32675 N 3420.46 2.39379 5.0858 0
M  V30 32676 H 3412.61 1.70381 1.26824 0
M  V30 32677 H 3414.87 0.721468 0.61497 0
M  V30 32678 H 3414.58 2.25472 2.69918 0
M  V30 32679 H 3414.45 0.80813 3.68441 0
M  V30 32680 H 3416.84 0.1443 2.94747 0
M  V30 32681 H 3416.92 1.62217 1.97786 0
M  V30 32682 H 3416.56 3.00423 4.09522 0
M  V30 32683 H 3416.49 1.50036 5.04774 0
M  V30 32684 H 3418.98 1.45739 3.48667 0
M  V30 32685 H 3419.3 3.54749 6.86566 0
M  V30 32686 H 3417.64 3.18418 6.17766 0
M  V30 32687 H 3420.83 1.8827 4.2857 0
M  V30 32688 H 3421 2.83559 5.82665 0
M  V30 32689 N 3414.41 -1.49895 0.486734 0
M  V30 32690 C 3415.64 -2.07307 -0.0622634 0
M  V30 32691 C 3416.06 -1.34642 -1.31351 0
M  V30 32692 O 3415.42 -0.398783 -1.7686 0
M  V30 32693 C 3415.47 -3.59235 -0.313418 0
M  V30 32694 O 3414.57 -3.88235 -1.39094 0
M  V30 32695 H 3413.91 -0.663702 0.0199001 0
M  V30 32696 H 3416.44 -1.92889 0.682266 0
M  V30 32697 H 3416.45 -4.04286 -0.549231 0
M  V30 32698 H 3415.13 -4.11537 0.600839 0
M  V30 32699 H 3413.7 -3.55008 -1.1412 0
M  V30 32700 N 3415.89 -0.219968 -1.56057 0
M  V30 32701 C 3416.82 0.685508 -2.23211 0
M  V30 32702 C 3417.8 1.20227 -1.2033 0
M  V30 32703 O 3418.99 1.24656 -1.48911 0
M  V30 32704 C 3416.12 1.89447 -2.91079 0
M  V30 32705 C 3415.07 1.51161 -4.00418 0
M  V30 32706 C 3414.4 2.79922 -4.55574 0
M  V30 32707 C 3415.7 0.702805 -5.1755 0
M  V30 32708 H 3417.39 0.125619 -2.99136 0
M  V30 32709 H 3414.94 0.058979 -1.43879 0
M  V30 32710 H 3416.89 2.53335 -3.36748 0
M  V30 32711 H 3415.61 2.4793 -2.12598 0
M  V30 32712 H 3414.27 0.896213 -3.55477 0
M  V30 32713 H 3413.92 3.36547 -3.73825 0
M  V30 32714 H 3413.62 2.5504 -5.29366 0
M  V30 32715 H 3415.14 3.44755 -5.03961 0
M  V30 32716 H 3416.56 1.24534 -5.59611 0
M  V30 32717 H 3414.95 0.551129 -5.97564 0
M  V30 32718 H 3416.02 -0.290915 -4.84027 0
M  V30 32719 N 3417.37 1.57509 0.0534363 0
M  V30 32720 C 3418.59 1.92765 0.765267 0
M  V30 32721 C 3419.02 0.817973 1.69384 0
M  V30 32722 O 3418.38 -0.228044 1.7986 0
M  V30 32723 C 3418.42 3.27031 1.51932 0
M  V30 32724 O 3417.53 3.17559 2.63116 0
M  V30 32725 H 3416.87 0.630727 0.207556 0
M  V30 32726 H 3419.4 2.04594 0.0161894 0
M  V30 32727 H 3419.41 3.61344 1.89459 0
M  V30 32728 H 3418.08 4.07367 0.838135 0
M  V30 32729 H 3416.66 2.94836 2.28311 0
M  V30 32730 N 3418.85 -0.325228 1.54208 0
M  V30 32731 C 3420.07 -1.08733 1.76612 0
M  V30 32732 C 3420.5 -1.80984 0.512481 0
M  V30 32733 O 3419.85 -1.73199 -0.535882 0
M  V30 32734 C 3419.9 -2.06238 2.95801 0
M  V30 32735 O 3419.01 -3.14105 2.6723 0
M  V30 32736 H 3418.35 -0.313583 0.585288 0
M  V30 32737 H 3420.88 -0.370031 2.01226 0
M  V30 32738 H 3420.89 -2.49137 3.23102 0
M  V30 32739 H 3419.56 -1.53051 3.86715 0
M  V30 32740 H 3418.14 -2.75892 2.50874 0
M  V30 32741 N 3420.32 -1.46252 -0.587204 0
M  V30 32742 C 3421.55 -1.55129 -1.37658 0
M  V30 32743 C 3421.97 -0.191522 -1.87122 0
M  V30 32744 O 3421.33 0.827548 -1.61311 0
M  V30 32745 C 3421.38 -2.55644 -2.54319 0
M  V30 32746 O 3420.48 -2.08836 -3.55614 0
M  V30 32747 H 3419.82 -0.522185 -0.410145 0
M  V30 32748 H 3422.35 -1.91786 -0.712705 0
M  V30 32749 H 3422.36 -2.75108 -3.01296 0
M  V30 32750 H 3421.04 -3.54391 -2.17669 0
M  V30 32751 H 3419.62 -1.9934 -3.15147 0
M  V30 32752 N 3421.8 0.831459 -1.33883 0
M  V30 32753 C 3423.03 1.62429 -1.28964 0
M  V30 32754 C 3423.45 1.87613 0.135216 0
M  V30 32755 O 3422.81 1.44555 1.09424 0
M  V30 32756 C 3422.86 2.94725 -2.07772 0
M  V30 32757 O 3421.96 3.8639 -1.4414 0
M  V30 32758 H 3421.3 0.494329 -0.443322 0
M  V30 32759 H 3423.83 1.03387 -1.76557 0
M  V30 32760 H 3423.84 3.44362 -2.18812 0
M  V30 32761 H 3422.52 2.75718 -3.11372 0
M  V30 32762 H 3421.09 3.44891 -1.4179 0
M  V30 32763 N 3423.28 1.17472 1.05062 0
M  V30 32764 C 3424.19 0.907324 2.16344 0
M  V30 32765 C 3425.21 -0.124983 1.73551 0
M  V30 32766 O 3426.38 0.0545905 2.01326 0
M  V30 32767 C 3423.45 0.425741 3.44076 0
M  V30 32768 C 3422.51 1.5248 4.01308 0
M  V30 32769 C 3421.74 1.0661 5.22944 0
M  V30 32770 O 3421.96 -0.0792326 5.70345 0
M  V30 32771 O 3420.9 1.85968 5.7245 0
M  V30 32772 H 3424.72 1.83821 2.41751 0
M  V30 32773 H 3422.31 0.955713 1.14832 0
M  V30 32774 H 3424.19 0.164763 4.21078 0
M  V30 32775 H 3422.87 -0.47698 3.20166 0
M  V30 32776 H 3421.77 1.83967 3.25741 0
M  V30 32777 H 3423.11 2.40328 4.29539 0
M  V30 32778 N 3424.76 -1.23807 0.975168 0
M  V30 32779 C 3425.72 -2.23312 0.516196 0
M  V30 32780 C 3426.72 -1.55965 -0.391333 0
M  V30 32781 O 3427.91 -1.73207 -0.185752 0
M  V30 32782 C 3425.04 -3.39971 -0.251474 0
M  V30 32783 H 3426.24 -2.65431 1.39594 0
M  V30 32784 H 3423.79 -1.3655 0.760517 0
M  V30 32785 H 3424.52 -3.03301 -1.14799 0
M  V30 32786 H 3424.31 -3.90055 0.399893 0
M  V30 32787 H 3425.8 -4.1381 -0.561366 0
M  V30 32788 N 3426.24 -0.746182 -1.38816 0
M  V30 32789 C 3427.48 -0.299494 -2.00576 0
M  V30 32790 C 3427.81 1.11375 -1.59089 0
M  V30 32791 O 3427.09 1.76138 -0.824963 0
M  V30 32792 C 3427.37 -0.413995 -3.57712 0
M  V30 32793 C 3427.23 -1.86781 -4.09186 0
M  V30 32794 C 3428.54 0.197004 -4.39659 0
M  V30 32795 H 3425.66 -0.110297 -0.7287 0
M  V30 32796 H 3428.31 -0.944437 -1.64865 0
M  V30 32797 H 3426.46 0.135087 -3.88265 0
M  V30 32798 H 3428.13 -2.47463 -3.89307 0
M  V30 32799 H 3426.37 -2.38538 -3.62328 0
M  V30 32800 H 3427.04 -1.89913 -5.18302 0
M  V30 32801 H 3429.52 -0.271194 -4.15215 0
M  V30 32802 H 3428.39 0.0866046 -5.48832 0
M  V30 32803 H 3428.65 1.28442 -4.23031 0
M  V30 32804 N 3427.71 1.49635 -0.494676 0
M  V30 32805 C 3428.94 2.06842 0.0490766 0
M  V30 32806 C 3429.36 1.35578 1.31393 0
M  V30 32807 O 3428.71 0.432166 1.77309 0
M  V30 32808 C 3428.76 3.60141 0.313108 0
M  V30 32809 O 3428.49 4.28722 -0.901596 0
M  V30 32810 C 3429.99 4.34043 0.901207 0
M  V30 32811 H 3427.21 0.670768 -0.0176304 0
M  V30 32812 H 3429.75 1.925 -0.690222 0
M  V30 32813 H 3427.91 3.74207 1.00238 0
M  V30 32814 H 3428.32 5.20324 -0.660568 0
M  V30 32815 H 3429.79 5.42199 1.03557 0
M  V30 32816 H 3430.27 3.961 1.8974 0
M  V30 32817 H 3430.88 4.24567 0.249602 0
M  V30 32818 N 3429.19 0.228241 1.55939 0
M  V30 32819 C 3430.61 -0.127012 1.59094 0
M  V30 32820 C 3430.81 -1.58423 1.24517 0
M  V30 32821 O 3429.86 -2.32555 0.983585 0
M  V30 32822 C 3431.18 0.205321 2.99998 0
M  V30 32823 C 3432.72 0.148101 3.12649 0
M  V30 32824 C 3433.2 0.454203 4.55742 0
M  V30 32825 N 3434.69 0.404018 4.61435 0
M  V30 32826 C 3435.43 0.614273 5.701 0
M  V30 32827 N 3434.92 0.88666 6.87103 0
M  V30 32828 N 3436.71 0.546252 5.59439 0
M  V30 32829 H 3428.87 1.17877 1.76688 0
M  V30 32830 H 3431.13 0.472961 0.821591 0
M  V30 32831 H 3430.83 1.21698 3.29973 0
M  V30 32832 H 3430.71 -0.476507 3.74178 0
M  V30 32833 H 3433.1 -0.854206 2.82467 0
M  V30 32834 H 3433.18 0.863504 2.40785 0
M  V30 32835 H 3432.82 1.45398 4.86644 0
M  V30 32836 H 3432.75 -0.282469 5.25842 0
M  V30 32837 H 3435.24 0.201454 3.77363 0
M  V30 32838 H 3435.55 1.03501 7.65838 0
M  V30 32839 H 3433.9 0.923929 6.88831 0
M  V30 32840 H 3437.09 0.333632 4.6691 0
M  V30 32841 H 3437.26 0.713516 6.4406 0
M  V30 32842 N 3430.67 -1.57536 -0.0450825 0
M  V30 32843 C 3431.63 -2.04492 -1.03517 0
M  V30 32844 C 3432.63 -0.946288 -1.30008 0
M  V30 32845 O 3433.82 -1.2104 -1.2528 0
M  V30 32846 C 3430.96 -2.44828 -2.37217 0
M  V30 32847 H 3432.15 -2.9321 -0.629891 0
M  V30 32848 H 3429.7 -1.53557 -0.291517 0
M  V30 32849 H 3430.44 -1.59217 -2.82525 0
M  V30 32850 H 3430.22 -3.25022 -2.19324 0
M  V30 32851 H 3431.71 -2.8164 -3.08332 0
M  V30 32852 N 3432.15 0.317045 -1.54378 0
M  V30 32853 C 3433.06 1.41332 -1.8725 0
M  V30 32854 C 3434.07 1.56279 -0.765044 0
M  V30 32855 O 3435.25 1.7125 -1.05997 0
M  V30 32856 C 3432.32 2.75951 -2.09885 0
M  V30 32857 C 3431.38 2.70125 -3.33663 0
M  V30 32858 C 3430.61 3.98324 -3.55209 0
M  V30 32859 O 3430.83 4.96908 -2.80069 0
M  V30 32860 O 3429.77 4.01188 -4.487 0
M  V30 32861 H 3433.59 1.16461 -2.80483 0
M  V30 32862 H 3431.18 0.511662 -1.40365 0
M  V30 32863 H 3433.06 3.55629 -2.26066 0
M  V30 32864 H 3431.73 3.007 -1.19839 0
M  V30 32865 H 3430.64 1.88976 -3.22861 0
M  V30 32866 H 3431.97 2.50331 -4.23787 0
M  V30 32867 N 3433.63 1.46561 0.57944 0
M  V30 32868 C 3434.87 1.53602 1.34855 0
M  V30 32869 C 3435.23 0.184609 1.9111 0
M  V30 32870 O 3436.43 0.129778 2.68487 0
M  V30 32871 C 3434.7 2.60652 2.44531 0
M  V30 32872 S 3436.26 2.87121 3.31824 0
M  V30 32873 H 3433.08 0.542657 0.459395 0
M  V30 32874 H 3435.68 1.83815 0.665766 0
M  V30 32875 H 3434.39 3.57472 2.01599 0
M  V30 32876 H 3433.92 2.32182 3.17577 0
M  V30 32877 H 3435.93 2.2264 4.43448 0
M  V30 32878 N 3435.1 -0.824347 1.34322 0
M  V30 32879 C 3436.34 -1.59403 1.27945 0
M  V30 32880 C 3436.71 -1.91422 -0.148927 0
M  V30 32881 O 3437.91 -2.66681 -0.336844 0
M  V30 32882 C 3436.18 -2.85951 2.14398 0
M  V30 32883 S 3437.74 -3.76508 2.2536 0
M  V30 32884 H 3434.56 -0.546379 0.454962 0
M  V30 32885 H 3437.16 -0.973844 1.69519 0
M  V30 32886 H 3435.86 -2.60424 3.17187 0
M  V30 32887 H 3435.39 -3.52968 1.73716 0
M  V30 32888 H 3437.41 -4.75288 1.42534 0
M  V30 32889 N 3436.58 -1.18028 -1.04437 0
M  V30 32890 C 3437.82 -0.98427 -1.79141 0
M  V30 32891 C 3438.19 0.477969 -1.85956 0
M  V30 32892 O 3439.39 0.7933 -2.56827 0
M  V30 32893 C 3437.66 -1.61674 -3.18742 0
M  V30 32894 S 3439.22 -1.56798 -4.09829 0
M  V30 32895 H 3436.04 -0.353536 -0.616874 0
M  V30 32896 H 3438.64 -1.50106 -1.25253 0
M  V30 32897 H 3437.34 -2.6733 -3.11389 0
M  V30 32898 H 3436.87 -1.10008 -3.77706 0
M  V30 32899 H 3438.89 -0.581261 -4.92784 0
M  V30 32900 N 3438.06 1.23288 -0.98172 0
M  V30 32901 C 3439.31 1.9136 -0.650049 0
M  V30 32902 C 3439.63 1.7696 0.819153 0
M  V30 32903 O 3438.9 1.1498 1.58608 0
M  V30 32904 H 3437.48 0.70826 -0.237439 0
M  V30 32905 H 3440.14 1.49885 -1.24582 0
M  V30 32906 H 3439.24 2.98757 -0.902824 0
M  V30 32907 N 3439.54 0.753533 1.38418 0
M  V30 32908 C 3440.79 0.309056 1.99723 0
M  V30 32909 C 3441.11 -1.11305 1.60113 0
M  V30 32910 O 3440.38 -1.76114 0.857951 0
M  V30 32911 H 3438.96 0.111279 0.738665 0
M  V30 32912 H 3441.62 0.967615 1.69184 0
M  V30 32913 H 3440.72 0.372149 3.09873 0
M  V30 32914 N 3441.02 -1.49371 0.502605 0
M  V30 32915 C 3442.26 -2.02058 -0.0412637 0
M  V30 32916 C 3442.59 -1.38433 -1.37336 0
M  V30 32917 O 3441.86 -0.540208 -1.88304 0
M  V30 32918 H 3440.44 -0.746777 -0.0182391 0
M  V30 32919 H 3443.1 -1.83377 0.660211 0
M  V30 32920 H 3442.19 -3.11638 -0.169758 0
M  V30 32921 N 3442.49 -0.236508 -1.55815 0
M  V30 32922 C 3443.91 0.118573 -1.59159 0
M  V30 32923 C 3444.11 1.57761 -1.25355 0
M  V30 32924 O 3443.17 2.3203 -0.995904 0
M  V30 32925 C 3444.48 -0.221228 -2.99885 0
M  V30 32926 C 3446.03 -0.164679 -3.12566 0
M  V30 32927 C 3446.5 -0.478365 -4.55495 0
M  V30 32928 N 3447.99 -0.428483 -4.61214 0
M  V30 32929 C 3448.73 -0.644498 -5.69766 0
M  V30 32930 N 3448.22 -0.923087 -6.86623 0
M  V30 32931 N 3450.02 -0.575913 -5.59142 0
M  V30 32932 H 3442.17 -1.18812 -1.76061 0
M  V30 32933 H 3444.43 -0.477312 -0.819071 0
M  V30 32934 H 3444.14 -1.23446 -3.29323 0
M  V30 32935 H 3444.01 0.456657 -3.74426 0
M  V30 32936 H 3446.4 0.839214 -2.82916 0
M  V30 32937 H 3446.48 -0.876261 -2.40323 0
M  V30 32938 H 3446.12 -1.47976 -4.85866 0
M  V30 32939 H 3446.05 0.254578 -5.25984 0
M  V30 32940 H 3448.54 -0.221464 -3.77251 0
M  V30 32941 H 3448.86 -1.07561 -7.65278 0
M  V30 32942 H 3447.2 -0.960446 -6.88332 0
M  V30 32943 H 3450.39 -0.358389 -4.66726 0
M  V30 32944 H 3450.57 -0.747662 -6.43672 0
M  V30 32945 N 3443.97 1.57557 0.0367273 0
M  V30 32946 C 3445.22 1.88547 0.727632 0
M  V30 32947 C 3445.54 0.83321 1.76303 0
M  V30 32948 O 3444.81 -0.134106 1.9544 0
M  V30 32949 H 3443.39 0.695824 0.271732 0
M  V30 32950 H 3446.05 1.94899 0.00449489 0
M  V30 32951 H 3445.15 2.87182 1.222 0
M  V30 32952 N 3445.45 -0.308854 1.54544 0
M  V30 32953 C 3446.7 -1.0427 1.74641 0
M  V30 32954 C 3447.05 -1.85194 0.521616 0
M  V30 32955 O 3446.35 -1.85334 -0.485997 0
M  V30 32956 C 3446.54 -1.98621 2.97127 0
M  V30 32957 C 3446.37 -1.26976 4.31401 0
M  V30 32958 C 3445.14 -1.00016 4.95303 0
M  V30 32959 C 3447.34 -0.67818 5.09809 0
M  V30 32960 N 3445.32 -0.253161 6.13378 0
M  V30 32961 C 3446.69 -0.0635484 6.19967 0
M  V30 32962 C 3448.74 -0.582451 4.94481 0
M  V30 32963 C 3447.45 0.637542 7.16469 0
M  V30 32964 C 3449.47 0.104968 5.91307 0
M  V30 32965 C 3448.84 0.708483 7.00828 0
M  V30 32966 H 3444.93 -0.364748 0.691725 0
M  V30 32967 H 3447.52 -0.3222 1.92016 0
M  V30 32968 H 3445.69 -2.67929 2.81192 0
M  V30 32969 H 3447.42 -2.65099 3.05785 0
M  V30 32970 H 3444.18 -1.2963 4.55514 0
M  V30 32971 H 3444.6 0.106624 6.76916 0
M  V30 32972 H 3449.24 -1.03475 4.09942 0
M  V30 32973 H 3446.96 1.10164 8.00556 0
M  V30 32974 H 3450.55 0.178876 5.81525 0
M  V30 32975 H 3449.43 1.23195 7.74463 0
M  V30 32976 N 3446.93 -1.46867 -0.571659 0
M  V30 32977 C 3448.18 -1.52446 -1.32682 0
M  V30 32978 C 3448.5 -0.182259 -1.94146 0
M  V30 32979 O 3447.77 0.792353 -1.79161 0
M  V30 32980 H 3446.35 -0.561504 -0.492669 0
M  V30 32981 H 3449.01 -1.83071 -0.668662 0
M  V30 32982 H 3448.11 -2.28319 -2.12784 0
M  V30 32983 N 3448.41 0.817212 -1.34757 0
M  V30 32984 C 3449.82 1.39042 -1.24596 0
M  V30 32985 C 3450.17 1.95794 0.12615 0
M  V30 32986 O 3449.29 1.90493 1.02671 0
M  V30 32987 C 3449.89 2.52768 -2.25597 0
M  V30 32988 C 3448.45 3.05981 -2.1921 0
M  V30 32989 C 3447.6 1.78883 -2.11887 0
M  V30 32990 H 3450.55 0.62113 -1.4604 0
M  V30 32991 H 3450.57 3.31023 -1.87628 0
M  V30 32992 H 3450.08 2.11433 -3.2545 0
M  V30 32993 H 3448.18 3.51806 -1.22731 0
M  V30 32994 H 3448.29 3.64683 -3.10713 0
M  V30 32995 H 3446.66 2.00009 -1.57697 0
M  V30 32996 H 3447.44 1.39714 -3.13584 0
M  V30 32997 N 3449.89 1.1858 1.0381 0
M  V30 32998 C 3451.3 0.936034 1.29269 0
M  V30 32999 C 3451.5 -0.396931 1.97552 0
M  V30 33000 O 3450.56 -1.13065 2.25771 0
M  V30 33001 C 3451.87 2.10343 2.14886 0
M  V30 33002 C 3453.42 2.14202 2.28224 0
M  V30 33003 C 3453.89 3.30367 3.17209 0
M  V30 33004 N 3455.38 3.30245 3.24796 0
M  V30 33005 C 3456.12 4.16772 3.93813 0
M  V30 33006 N 3455.62 5.13438 4.65138 0
M  V30 33007 N 3457.41 4.04678 3.90118 0
M  V30 33008 H 3449.56 2.04357 0.578975 0
M  V30 33009 H 3451.82 0.893072 0.318005 0
M  V30 33010 H 3451.53 3.06758 1.72024 0
M  V30 33011 H 3451.4 2.06625 3.15573 0
M  V30 33012 H 3453.79 1.18364 2.70322 0
M  V30 33013 H 3453.87 2.21978 1.2712 0
M  V30 33014 H 3453.51 4.26479 2.75822 0
M  V30 33015 H 3453.44 3.19828 4.18351 0
M  V30 33016 H 3455.94 2.60265 2.7399 0
M  V30 33017 H 3456.25 5.75829 5.15403 0
M  V30 33018 H 3454.59 5.17395 4.64034 0
M  V30 33019 H 3457.78 3.28444 3.3353 0
M  V30 33020 H 3457.96 4.72328 4.43633 0
M  V30 33021 N 3451.36 -1.22766 0.988245 0
M  V30 33022 C 3452.6 -1.9312 0.669633 0
M  V30 33023 C 3452.97 -1.75295 -0.7833 0
M  V30 33024 O 3454.17 -2.39869 -1.21311 0
M  V30 33025 C 3452.44 -3.41356 1.05882 0
M  V30 33026 S 3454 -4.30332 0.857873 0
M  V30 33027 H 3450.82 -0.667461 0.244983 0
M  V30 33028 H 3453.42 -1.4867 1.26954 0
M  V30 33029 H 3452.12 -3.51841 2.11273 0
M  V30 33030 H 3451.65 -3.90812 0.450521 0
M  V30 33031 H 3453.67 -4.95549 -0.254084 0
M  V30 33032 N 3452.84 -0.760864 -1.38017 0
M  V30 33033 C 3453.75 -0.140273 -2.3418 0
M  V30 33034 C 3454.77 0.692259 -1.59636 0
M  V30 33035 O 3455.94 0.614718 -1.91789 0
M  V30 33036 C 3453.01 0.736871 -3.38779 0
M  V30 33037 C 3452.07 -0.110867 -4.29157 0
M  V30 33038 C 3451.3 0.724506 -5.28759 0
M  V30 33039 O 3451.53 1.96217 -5.35589 0
M  V30 33040 O 3450.46 0.13946 -6.01738 0
M  V30 33041 H 3454.29 -0.934639 -2.88961 0
M  V30 33042 H 3451.87 -0.52186 -1.39989 0
M  V30 33043 H 3453.75 1.23796 -4.02806 0
M  V30 33044 H 3452.43 1.50961 -2.86343 0
M  V30 33045 H 3451.33 -0.658072 -3.68267 0
M  V30 33046 H 3452.67 -0.846431 -4.84867 0
M  V30 33047 N 3454.32 1.49102 -0.510519 0
M  V30 33048 C 3455.25 2.32137 0.251958 0
M  V30 33049 C 3456.23 1.40857 0.953588 0
M  V30 33050 O 3457.42 1.6976 0.943148 0
M  V30 33051 C 3454.55 3.216 1.31112 0
M  V30 33052 C 3453.5 4.21749 0.728806 0
M  V30 33053 C 3452.83 5.00214 1.88919 0
M  V30 33054 C 3454.13 5.21514 -0.286517 0
M  V30 33055 H 3455.82 2.96132 -0.441154 0
M  V30 33056 H 3453.37 1.42407 -0.213602 0
M  V30 33057 H 3455.32 3.78506 1.85233 0
M  V30 33058 H 3454.04 2.55567 2.03355 0
M  V30 33059 H 3452.7 3.66002 0.209272 0
M  V30 33060 H 3452.35 4.3062 2.59953 0
M  V30 33061 H 3452.05 5.67984 1.50558 0
M  V30 33062 H 3453.57 5.59966 2.43456 0
M  V30 33063 H 3454.99 5.73057 0.166896 0
M  V30 33064 H 3453.38 5.97227 -0.586466 0
M  V30 33065 H 3454.45 4.6984 -1.19912 0
M  V30 33066 N 3455.8 0.244768 1.55688 0
M  V30 33067 C 3457.04 -0.382131 2.00796 0
M  V30 33068 C 3457.4 -1.55284 1.1292 0
M  V30 33069 O 3458.6 -2.24733 1.47475 0
M  V30 33070 C 3456.87 -0.783647 3.48703 0
M  V30 33071 S 3458.43 -1.40137 4.15821 0
M  V30 33072 H 3455.25 -0.12033 0.700744 0
M  V30 33073 H 3457.85 0.359501 1.92166 0
M  V30 33074 H 3456.56 0.0777279 4.10326 0
M  V30 33075 H 3456.09 -1.55751 3.61255 0
M  V30 33076 H 3458.1 -2.69042 4.1693 0
M  V30 33077 N 3457.28 -1.57574 -0.0283712 0
M  V30 33078 C 3458.69 -1.77629 -0.574881 0
M  V30 33079 C 3459.04 -0.875934 -1.75562 0
M  V30 33080 O 3458.16 -0.0709521 -2.16284 0
M  V30 33081 C 3458.76 -3.22129 -1.04967 0
M  V30 33082 C 3457.32 -3.43379 -1.54169 0
M  V30 33083 C 3456.46 -2.73113 -0.480079 0
M  V30 33084 H 3459.41 -1.57462 0.197854 0
M  V30 33085 H 3459.44 -3.28682 -1.91699 0
M  V30 33086 H 3458.95 -3.87634 -0.190104 0
M  V30 33087 H 3457.05 -2.8305 -2.42308 0
M  V30 33088 H 3457.16 -4.51992 -1.58871 0
M  V30 33089 H 3455.53 -2.36907 -0.935273 0
M  V30 33090 H 3456.31 -3.413 0.370033 0
M  V30 33091 N 3458.75 0.300654 -1.54706 0
M  V30 33092 C 3459.68 1.37555 -1.88682 0
M  V30 33093 C 3460.66 1.5288 -0.745767 0
M  V30 33094 O 3461.85 1.66382 -1.00153 0
M  V30 33095 C 3458.98 2.7397 -2.13443 0
M  V30 33096 C 3457.93 2.73409 -3.29289 0
M  V30 33097 C 3457.26 4.13116 -3.39469 0
M  V30 33098 C 3458.56 2.3512 -4.66386 0
M  V30 33099 H 3460.25 1.09368 -2.78709 0
M  V30 33100 H 3457.8 0.52468 -1.34101 0
M  V30 33101 H 3459.75 3.49253 -2.35797 0
M  V30 33102 H 3458.48 3.03682 -1.20187 0
M  V30 33103 H 3457.14 2.00582 -3.06859 0
M  V30 33104 H 3456.78 4.40006 -2.43729 0
M  V30 33105 H 3456.48 4.13642 -4.17341 0
M  V30 33106 H 3458.01 4.90179 -3.64084 0
M  V30 33107 H 3459.42 3.00119 -4.88468 0
M  V30 33108 H 3457.82 2.46858 -5.46975 0
M  V30 33109 H 3458.89 1.30248 -4.6708 0
M  V30 33110 N 3460.23 1.47168 0.563863 0
M  V30 33111 C 3461.64 1.4739 1.146 0
M  V30 33112 C 3461.99 0.22495 1.94906 0
M  V30 33113 O 3461.12 -0.670636 2.05746 0
M  V30 33114 C 3461.71 2.67048 2.08497 0
M  V30 33115 C 3460.27 2.7025 2.61996 0
M  V30 33116 C 3459.42 2.40385 1.3824 0
M  V30 33117 H 3462.37 1.54774 0.350805 0
M  V30 33118 H 3462.39 2.43639 2.92267 0
M  V30 33119 H 3461.9 3.57932 1.50021 0
M  V30 33120 H 3460.01 1.83488 3.24288 0
M  V30 33121 H 3460.12 3.70754 3.03444 0
M  V30 33122 H 3458.48 1.9083 1.68689 0
M  V30 33123 H 3459.27 3.33469 0.815667 0
M  V30 33124 N 3461.71 -0.810054 1.35188 0
M  V30 33125 C 3462.96 -1.56387 1.28014 0
M  V30 33126 C 3463.28 -1.94451 -0.146186 0
M  V30 33127 O 3462.55 -1.6332 -1.08182 0
M  V30 33128 H 3461.13 -0.579924 0.470847 0
M  V30 33129 H 3463.79 -0.966447 1.69251 0
M  V30 33130 H 3462.89 -2.48087 1.89366 0
M  V30 33131 N 3463.19 -1.19129 -1.0318 0
M  V30 33132 C 3464.42 -1.01729 -1.80163 0
M  V30 33133 C 3464.83 0.434063 -1.83743 0
M  V30 33134 O 3464.19 1.3015 -1.27935 0
M  V30 33135 C 3464.24 -1.57572 -3.25351 0
M  V30 33136 O 3463.96 -2.97025 -3.22036 0
M  V30 33137 C 3465.46 -1.44914 -4.18945 0
M  V30 33138 H 3462.68 -0.358708 -0.567071 0
M  V30 33139 H 3465.23 -1.57879 -1.29979 0
M  V30 33140 H 3463.38 -1.05577 -3.72736 0
M  V30 33141 H 3463.79 -3.23242 -4.13055 0
M  V30 33142 H 3465.27 -1.88771 -5.18719 0
M  V30 33143 H 3465.75 -0.399202 -4.37382 0
M  V30 33144 H 3466.35 -1.96024 -3.77431 0
M  V30 33145 N 3464.67 1.2224 -0.994741 0
M  V30 33146 C 3465.89 1.95591 -0.689843 0
M  V30 33147 C 3466.32 1.72963 0.73929 0
M  V30 33148 O 3465.67 1.00999 1.50562 0
M  V30 33149 C 3465.72 3.46349 -1.00373 0
M  V30 33150 O 3464.83 4.1227 -0.103398 0
M  V30 33151 H 3464.17 0.611823 -0.258008 0
M  V30 33152 H 3466.7 1.55284 -1.33222 0
M  V30 33153 H 3466.71 3.96874 -0.946329 0
M  V30 33154 H 3465.38 3.62144 -2.0451 0
M  V30 33155 H 3463.96 3.72271 -0.21644 0
M  V30 33156 N 3466.14 0.768172 1.37611 0
M  V30 33157 C 3467.11 0.158323 2.28653 0
M  V30 33158 C 3468.11 -0.63191 1.47863 0
M  V30 33159 O 3469.3 -0.456025 1.68125 0
M  V30 33160 C 3466.43 -0.783377 3.31777 0
M  V30 33161 H 3467.62 0.960822 2.84092 0
M  V30 33162 H 3465.18 0.536142 1.46817 0
M  V30 33163 H 3465.91 -1.61101 2.81455 0
M  V30 33164 H 3465.7 -0.218947 3.91488 0
M  V30 33165 H 3467.19 -1.20561 3.99818 0
M  V30 33166 N 3467.62 -1.48829 0.518419 0
M  V30 33167 C 3468.85 -2.06594 -0.0161402 0
M  V30 33168 C 3469.26 -1.37684 -1.29769 0
M  V30 33169 O 3468.6 -0.454453 -1.7799 0
M  V30 33170 C 3468.67 -3.58051 -0.322442 0
M  V30 33171 C 3468.33 -4.4876 0.863927 0
M  V30 33172 C 3469.33 -4.89232 1.7592 0
M  V30 33173 C 3467.01 -4.90822 1.06766 0
M  V30 33174 C 3469.01 -5.70523 2.84221 0
M  V30 33175 C 3466.69 -5.71886 2.15382 0
M  V30 33176 C 3467.69 -6.11643 3.03943 0
M  V30 33177 O 3467.38 -6.91083 4.10682 0
M  V30 33178 H 3467.11 -0.675533 0.025133 0
M  V30 33179 H 3469.66 -1.92364 0.720086 0
M  V30 33180 H 3467.89 -3.70352 -1.11249 0
M  V30 33181 H 3469.58 -3.97984 -0.797694 0
M  V30 33182 H 3470.35 -4.57367 1.6137 0
M  V30 33183 H 3466.23 -4.59367 0.387647 0
M  V30 33184 H 3469.77 -6.01475 3.53375 0
M  V30 33185 H 3465.67 -6.03164 2.29921 0
M  V30 33186 H 3466.44 -7.09419 4.08249 0
M  V30 33187 N 3469.1 -0.253021 -1.55556 0
M  V30 33188 C 3470.52 0.101686 -1.59276 0
M  V30 33189 C 3470.72 1.56422 -1.27021 0
M  V30 33190 O 3469.77 2.30961 -1.02046 0
M  V30 33191 C 3471.09 -0.253022 -2.99634 0
M  V30 33192 C 3472.63 -0.197822 -3.12374 0
M  V30 33193 C 3473.11 -0.52665 -4.54962 0
M  V30 33194 N 3474.6 -0.477377 -4.60733 0
M  V30 33195 C 3475.33 -0.704893 -5.69051 0
M  V30 33196 N 3474.83 -0.99586 -6.85605 0
M  V30 33197 N 3476.62 -0.635185 -5.585 0
M  V30 33198 H 3468.77 -1.20673 -1.74791 0
M  V30 33199 H 3471.04 -0.485972 -0.813962 0
M  V30 33200 H 3470.74 -1.26932 -3.27996 0
M  V30 33201 H 3470.62 0.416918 -3.74889 0
M  V30 33202 H 3473 0.809159 -2.8379 0
M  V30 33203 H 3473.09 -0.901701 -2.3938 0
M  V30 33204 H 3472.73 -1.53121 -4.84269 0
M  V30 33205 H 3472.66 0.198776 -5.26225 0
M  V30 33206 H 3475.15 -0.261464 -3.76994 0
M  V30 33207 H 3475.46 -1.15672 -7.64094 0
M  V30 33208 H 3473.81 -1.0334 -6.87274 0
M  V30 33209 H 3477 -0.407871 -4.6632 0
M  V30 33210 H 3477.17 -0.81589 -6.42843 0
M  V30 33211 N 3470.58 1.57587 0.0200142 0
M  V30 33212 C 3471.53 2.07146 1.0178 0
M  V30 33213 C 3472.5 0.962525 1.35369 0
M  V30 33214 O 3473.68 1.23368 1.45551 0
M  V30 33215 C 3470.82 2.56306 2.31087 0
M  V30 33216 C 3469.93 3.81025 2.03577 0
M  V30 33217 C 3469.07 4.18763 3.26819 0
M  V30 33218 C 3468.11 5.36374 2.94906 0
M  V30 33219 N 3467.24 5.69501 4.10626 0
M  V30 33220 H 3472.08 2.92137 0.588237 0
M  V30 33221 H 3469.62 1.44433 0.278822 0
M  V30 33222 H 3471.58 2.82879 3.06651 0
M  V30 33223 H 3470.21 1.74219 2.71749 0
M  V30 33224 H 3469.26 3.61482 1.18469 0
M  V30 33225 H 3470.57 4.66702 1.76041 0
M  V30 33226 H 3469.73 4.46512 4.10745 0
M  V30 33227 H 3468.47 3.31755 3.57477 0
M  V30 33228 H 3467.47 5.08369 2.09383 0
M  V30 33229 H 3468.7 6.25042 2.65517 0
M  V30 33230 H 3466.64 4.85452 4.41217 0
M  V30 33231 H 3466.56 6.49707 3.86545 0
M  V30 33232 H 3467.83 6.01831 4.95399 0
M  V30 33233 N 3472.06 -0.292445 1.54863 0
M  V30 33234 C 3472.99 -1.36553 1.89409 0
M  V30 33235 C 3473.97 -1.52482 0.753864 0
M  V30 33236 O 3475.15 -1.65849 1.01034 0
M  V30 33237 C 3472.28 -2.72834 2.14893 0
M  V30 33238 C 3471.24 -2.71659 3.30734 0
M  V30 33239 C 3470.56 -4.1131 3.41655 0
M  V30 33240 C 3471.86 -2.32643 4.67627 0
M  V30 33241 H 3473.56 -1.07889 2.79285 0
M  V30 33242 H 3471.1 -0.517561 1.34377 0
M  V30 33243 H 3473.06 -3.47998 2.37646 0
M  V30 33244 H 3471.78 -3.0304 1.21795 0
M  V30 33245 H 3470.44 -1.98952 3.07918 0
M  V30 33246 H 3470.09 -4.38707 2.46059 0
M  V30 33247 H 3469.79 -4.11423 4.19529 0
M  V30 33248 H 3471.31 -4.88241 3.66678 0
M  V30 33249 H 3472.72 -2.97524 4.90053 0
M  V30 33250 H 3471.12 -2.43953 5.48276 0
M  V30 33251 H 3472.19 -1.27769 4.67764 0
M  V30 33252 N 3473.53 -1.47465 -0.55605 0
M  V30 33253 C 3474.77 -1.55728 -1.32394 0
M  V30 33254 C 3475.14 -0.21499 -1.90793 0
M  V30 33255 O 3476.34 -0.172476 -2.68246 0
M  V30 33256 C 3474.61 -2.64509 -2.40353 0
M  V30 33257 S 3476.17 -2.92364 -3.27214 0
M  V30 33258 H 3472.99 -0.549897 -0.450704 0
M  V30 33259 H 3475.59 -1.84851 -0.636439 0
M  V30 33260 H 3474.29 -3.60634 -1.95887 0
M  V30 33261 H 3473.82 -2.37205 -3.13843 0
M  V30 33262 H 3475.84 -2.29667 -4.39849 0
M  V30 33263 N 3475.01 0.802873 -1.35616 0
M  V30 33264 C 3476.42 1.37713 -1.26064 0
M  V30 33265 C 3476.78 1.95917 0.105376 0
M  V30 33266 O 3475.9 1.91571 1.00645 0
M  V30 33267 C 3476.5 2.50361 -2.28265 0
M  V30 33268 C 3475.05 3.03638 -2.22443 0
M  V30 33269 C 3474.2 1.76625 -2.13773 0
M  V30 33270 H 3477.15 0.605605 -1.46691 0
M  V30 33271 H 3477.17 3.29014 -1.91128 0
M  V30 33272 H 3476.69 2.07969 -3.27675 0
M  V30 33273 H 3474.79 3.50485 -1.26456 0
M  V30 33274 H 3474.9 3.61367 -3.14564 0
M  V30 33275 H 3473.26 1.98325 -1.5981 0
M  V30 33276 H 3474.05 1.3638 -3.15048 0
M  V30 33277 N 3476.49 1.19674 1.02547 0
M  V30 33278 C 3477.44 0.905319 2.09256 0
M  V30 33279 C 3478.43 -0.131274 1.60364 0
M  V30 33280 O 3479.62 0.0748874 1.76842 0
M  V30 33281 C 3476.75 0.449533 3.40344 0
M  V30 33282 C 3475.83 1.51906 3.95961 0
M  V30 33283 N 3476.22 2.73934 4.25199 0
M  V30 33284 C 3474.52 1.38315 4.24011 0
M  V30 33285 C 3475.22 3.42857 4.69919 0
M  V30 33286 N 3474.2 2.70256 4.7166 0
M  V30 33287 H 3478 1.83272 2.29758 0
M  V30 33288 H 3475.51 1.08942 1.20438 0
M  V30 33289 H 3477.51 0.222194 4.16307 0
M  V30 33290 H 3476.17 -0.471345 3.21261 0
M  V30 33291 H 3477.18 3.10666 4.14376 0
M  V30 33292 H 3473.86 0.525992 4.14173 0
M  V30 33293 H 3475.25 4.47229 5.01434 0
M  V30 33294 N 3477.97 -1.21711 1.00121 0
M  V30 33295 C 3479.22 -1.90302 0.68041 0
M  V30 33296 C 3479.54 -1.78241 -0.790896 0
M  V30 33297 O 3478.81 -1.17489 -1.56758 0
M  V30 33298 H 3477.39 -0.704392 0.248677 0
M  V30 33299 H 3480.05 -1.47884 1.2695 0
M  V30 33300 H 3479.15 -2.97282 0.95024 0
M  V30 33301 N 3479.45 -0.775459 -1.37202 0
M  V30 33302 C 3480.67 -0.351772 -2.04395 0
M  V30 33303 C 3481.1 1.01911 -1.58101 0
M  V30 33304 O 3480.46 1.65378 -0.742961 0
M  V30 33305 C 3480.5 -0.408168 -3.58282 0
M  V30 33306 O 3479.61 0.590032 -4.08157 0
M  V30 33307 H 3478.95 -0.151658 -0.646449 0
M  V30 33308 H 3481.48 -1.05268 -1.75441 0
M  V30 33309 H 3481.49 -0.266783 -4.07127 0
M  V30 33310 H 3480.16 -1.40826 -3.91332 0
M  V30 33311 H 3478.74 0.411459 -3.70623 0
M  V30 33312 N 3480.93 1.48552 -0.526305 0
M  V30 33313 C 3482.17 2.02098 0.00911287 0
M  V30 33314 C 3482.49 1.40601 1.35116 0
M  V30 33315 O 3481.76 0.570098 1.87421 0
M  V30 33316 H 3480.34 0.746973 0.00635622 0
M  V30 33317 H 3483.01 1.82304 -0.689301 0
M  V30 33318 H 3482.1 3.11869 0.120157 0
M  V30 33319 N 3482.4 0.261267 1.55419 0
M  V30 33320 C 3483.63 -0.362663 2.03392 0
M  V30 33321 C 3484.04 -1.51037 1.1395 0
M  V30 33322 O 3483.38 -1.83093 0.149263 0
M  V30 33323 C 3483.45 -0.918828 3.4756 0
M  V30 33324 C 3483.11 0.0984632 4.56894 0
M  V30 33325 C 3484.11 0.913108 5.11819 0
M  V30 33326 C 3481.79 0.228705 5.01779 0
M  V30 33327 C 3483.79 1.84431 6.10134 0
M  V30 33328 C 3481.47 1.1634 5.99924 0
M  V30 33329 C 3482.47 1.96972 6.53981 0
M  V30 33330 O 3482.16 2.88863 7.50209 0
M  V30 33331 H 3481.89 -0.0886064 0.670168 0
M  V30 33332 H 3484.45 0.387003 2.01721 0
M  V30 33333 H 3482.68 -1.71832 3.46426 0
M  V30 33334 H 3484.36 -1.45436 3.7895 0
M  V30 33335 H 3485.13 0.82315 4.77964 0
M  V30 33336 H 3481.01 -0.388865 4.59357 0
M  V30 33337 H 3484.55 2.47409 6.52254 0
M  V30 33338 H 3480.45 1.25423 6.33198 0
M  V30 33339 H 3481.22 2.83387 7.67876 0
M  V30 33340 N 3483.88 -1.57596 -0.0116567 0
M  V30 33341 C 3485.11 -1.94328 -0.710226 0
M  V30 33342 C 3485.52 -0.862447 -1.6795 0
M  V30 33343 O 3484.88 0.159666 -1.818 0
M  V30 33344 C 3484.93 -3.31048 -1.45222 0
M  V30 33345 O 3484.65 -4.34981 -0.521834 0
M  V30 33346 C 3486.15 -3.82169 -2.24637 0
M  V30 33347 H 3483.37 -0.640952 -0.198548 0
M  V30 33348 H 3485.92 -2.04468 0.0359974 0
M  V30 33349 H 3484.07 -3.22252 -2.15018 0
M  V30 33350 H 3484.49 -5.14004 -1.04406 0
M  V30 33351 H 3485.96 -4.80294 -2.7207 0
M  V30 33352 H 3486.44 -3.14266 -3.06812 0
M  V30 33353 H 3487.04 -3.94104 -1.59882 0
M  V30 33354 N 3485.36 0.284228 -1.55016 0
M  V30 33355 C 3486.32 1.33423 -1.86362 0
M  V30 33356 C 3487.32 1.42891 -0.737482 0
M  V30 33357 O 3488.51 1.42236 -1.00571 0
M  V30 33358 C 3485.64 2.71703 -2.05889 0
M  V30 33359 H 3486.84 1.06864 -2.80214 0
M  V30 33360 H 3484.39 0.521741 -1.47335 0
M  V30 33361 H 3485.13 3.03459 -1.14381 0
M  V30 33362 H 3484.91 2.66219 -2.87871 0
M  V30 33363 H 3486.4 3.47591 -2.31453 0
M  V30 33364 N 3486.84 1.47758 0.548222 0
M  V30 33365 C 3487.75 1.63568 1.68175 0
M  V30 33366 C 3488.76 0.51838 1.66099 0
M  V30 33367 O 3489.94 0.787093 1.85383 0
M  V30 33368 C 3487 1.65459 3.0467 0
M  V30 33369 C 3486.07 2.88682 3.17744 0
M  V30 33370 C 3485.3 2.90474 4.47728 0
M  V30 33371 O 3485.52 2.01211 5.33732 0
M  V30 33372 O 3484.46 3.82441 4.64782 0
M  V30 33373 H 3488.28 2.595 1.57777 0
M  V30 33374 H 3485.87 1.30947 0.719254 0
M  V30 33375 H 3487.75 1.6933 3.85882 0
M  V30 33376 H 3486.42 0.726967 3.15431 0
M  V30 33377 H 3485.33 2.90352 2.35895 0
M  V30 33378 H 3486.66 3.80769 3.11891 0
M  V30 33379 N 3488.32 -0.79567 1.3604 0
M  V30 33380 C 3489.56 -1.5502 1.29665 0
M  V30 33381 C 3489.88 -1.94595 -0.125554 0
M  V30 33382 O 3489.15 -1.64458 -1.06444 0
M  V30 33383 H 3487.73 -0.574897 0.476972 0
M  V30 33384 H 3490.4 -0.948441 1.70266 0
M  V30 33385 H 3489.49 -2.46064 1.91987 0
M  V30 33386 N 3489.79 -1.20217 -1.0191 0
M  V30 33387 C 3491.21 -0.956481 -1.27764 0
M  V30 33388 C 3491.41 0.365452 -1.98158 0
M  V30 33389 O 3490.47 1.09459 -2.27541 0
M  V30 33390 C 3491.78 -2.13736 -2.11513 0
M  V30 33391 C 3493.33 -2.17806 -2.24788 0
M  V30 33392 C 3493.8 -3.35372 -3.11913 0
M  V30 33393 N 3495.29 -3.3537 -3.19501 0
M  V30 33394 C 3496.03 -4.22985 -3.87132 0
M  V30 33395 N 3495.52 -5.20773 -4.56911 0
M  V30 33396 N 3497.32 -4.10833 -3.83631 0
M  V30 33397 H 3489.47 -2.05252 -0.54639 0
M  V30 33398 H 3491.73 -0.898018 -0.303757 0
M  V30 33399 H 3491.44 -3.09456 -1.67122 0
M  V30 33400 H 3491.31 -2.11619 -3.12245 0
M  V30 33401 H 3493.7 -1.2265 -2.68405 0
M  V30 33402 H 3493.78 -2.23972 -1.23572 0
M  V30 33403 H 3493.42 -4.30814 -2.69002 0
M  V30 33404 H 3493.35 -3.26443 -4.1321 0
M  V30 33405 H 3495.84 -2.64591 -2.69814 0
M  V30 33406 H 3496.16 -5.83956 -5.06177 0
M  V30 33407 H 3494.5 -5.24712 -4.55744 0
M  V30 33408 H 3497.69 -3.33709 -3.28262 0
M  V30 33409 H 3497.87 -4.79326 -4.36063 0
M  V30 33410 N 3491.27 1.21178 -1.00765 0
M  V30 33411 C 3492.55 1.85934 -0.607268 0
M  V30 33412 C 3492.93 1.90239 0.915015 0
M  V30 33413 O 3492.28 1.40364 1.80306 0
M  V30 33414 C 3492.49 3.26049 -1.24471 0
M  V30 33415 C 3493.84 4.02416 -1.3545 0
M  V30 33416 O 3494.86 3.3537 -1.20024 0
M  V30 33417 O 3493.72 5.22464 -1.60291 0
M  V30 33418 H 3490.81 0.800324 -0.208352 0
M  V30 33419 H 3493.36 1.2884 -1.10446 0
M  V30 33420 H 3492.13 3.17631 -2.2853 0
M  V30 33421 H 3491.75 3.90766 -0.734035 0
M  V30 33422 N 3492.75 0.782725 1.36789 0
M  V30 33423 C 3494 0.352568 1.99712 0
M  V30 33424 C 3494.33 -1.07118 1.61986 0
M  V30 33425 O 3493.6 -1.73889 0.871372 0
M  V30 33426 C 3493.89 0.508691 3.56489 0
M  V30 33427 C 3493.74 1.97564 4.0409 0
M  V30 33428 C 3495.06 -0.0803673 4.40027 0
M  V30 33429 H 3492.18 0.129579 0.725519 0
M  V30 33430 H 3494.82 0.987816 1.62303 0
M  V30 33431 H 3492.97 -0.0320981 3.88487 0
M  V30 33432 H 3494.64 2.57698 3.82609 0
M  V30 33433 H 3492.89 2.48061 3.55877 0
M  V30 33434 H 3493.56 2.03588 5.13085 0
M  V30 33435 H 3496.03 0.381186 4.1435 0
M  V30 33436 H 3494.91 0.0589389 5.48868 0
M  V30 33437 H 3495.17 -1.17181 4.26287 0
M  V30 33438 N 3494.23 -1.48271 0.534176 0
M  V30 33439 C 3495.51 -1.95499 -0.0629837 0
M  V30 33440 C 3495.89 -1.47648 -1.50875 0
M  V30 33441 O 3495.23 -0.704868 -2.17357 0
M  V30 33442 C 3495.44 -3.48951 0.0586089 0
M  V30 33443 C 3496.79 -4.24486 -0.0985231 0
M  V30 33444 O 3497.82 -3.56197 -0.0149811 0
M  V30 33445 O 3496.67 -5.45811 -0.27426 0
M  V30 33446 H 3493.77 -0.82341 -0.0769697 0
M  V30 33447 H 3496.31 -1.58774 0.59907 0
M  V30 33448 H 3495.09 -3.76512 1.06555 0
M  V30 33449 H 3494.71 -3.92381 -0.642106 0
M  V30 33450 N 3495.71 -0.269505 -1.55279 0
M  V30 33451 C 3496.62 0.630611 -2.25966 0
M  V30 33452 C 3497.63 1.17474 -1.28359 0
M  V30 33453 O 3498.81 1.20622 -1.61283 0
M  V30 33454 C 3495.87 1.80076 -2.96266 0
M  V30 33455 C 3494.93 1.29386 -4.09338 0
M  V30 33456 C 3494.17 2.40824 -4.76276 0
M  V30 33457 O 3494.39 3.60059 -4.42396 0
M  V30 33458 O 3493.32 2.09299 -5.64338 0
M  V30 33459 H 3497.15 0.0581535 -3.03644 0
M  V30 33460 H 3494.74 -0.0371228 -1.49354 0
M  V30 33461 H 3496.62 2.48317 -3.40466 0
M  V30 33462 H 3495.29 2.36041 -2.21509 0
M  V30 33463 H 3494.2 0.578089 -3.69606 0
M  V30 33464 H 3495.53 0.780031 -4.8598 0
M  V30 33465 N 3497.18 1.576 0.00329885 0
M  V30 33466 C 3498.42 1.9228 0.693376 0
M  V30 33467 C 3498.79 0.870745 1.7112 0
M  V30 33468 O 3499.99 1.10269 2.45141 0
M  V30 33469 C 3498.26 3.32025 1.32266 0
M  V30 33470 S 3499.82 3.88585 2.03832 0
M  V30 33471 H 3496.64 0.673074 0.229112 0
M  V30 33472 H 3499.24 1.95429 -0.0525965 0
M  V30 33473 H 3497.94 4.06436 0.569 0
M  V30 33474 H 3497.47 3.32242 2.10664 0
M  V30 33475 H 3499.49 3.69394 3.31305 0
M  V30 33476 N 3498.66 -0.276003 1.55164 0
M  V30 33477 C 3500.08 -0.623036 1.46937 0
M  V30 33478 C 3500.28 -1.89643 0.68101 0
M  V30 33479 O 3499.33 -2.51717 0.198662 0
M  V30 33480 C 3500.65 -0.752788 2.91125 0
M  V30 33481 C 3502.2 -0.84704 3.01321 0
M  V30 33482 C 3502.67 -1.00859 4.46757 0
M  V30 33483 N 3504.16 -1.07419 4.50572 0
M  V30 33484 C 3504.9 -1.21794 5.60316 0
M  V30 33485 N 3504.39 -1.32907 6.79932 0
M  V30 33486 N 3506.19 -1.2488 5.48052 0
M  V30 33487 H 3498.34 0.560318 2.04876 0
M  V30 33488 H 3500.6 0.189233 0.928921 0
M  V30 33489 H 3500.31 0.112395 3.5152 0
M  V30 33490 H 3500.18 -1.63402 3.3997 0
M  V30 33491 H 3502.57 -1.70269 2.41024 0
M  V30 33492 H 3502.65 0.0587346 2.55733 0
M  V30 33493 H 3502.29 -0.157611 5.07655 0
M  V30 33494 H 3502.22 -1.92897 4.89998 0
M  V30 33495 H 3504.71 -1.00083 3.64406 0
M  V30 33496 H 3505.03 -1.43701 7.59322 0
M  V30 33497 H 3503.37 -1.29917 6.82749 0
M  V30 33498 H 3506.56 -1.15827 4.53544 0
M  V30 33499 H 3506.73 -1.35739 6.33624 0
M  V30 33500 N 3500.14 -1.48046 -0.540378 0
M  V30 33501 C 3501.07 -1.56352 -1.6622 0
M  V30 33502 C 3502.05 -0.41458 -1.57226 0
M  V30 33503 O 3503.24 -0.62474 -1.77846 0
M  V30 33504 C 3500.36 -1.48181 -3.04565 0
M  V30 33505 C 3499.41 -2.67787 -3.31952 0
M  V30 33506 S 3500.24 -4.29848 -3.1936 0
M  V30 33507 C 3501.4 -4.24258 -4.6017 0
M  V30 33508 H 3501.63 -2.51258 -1.58923 0
M  V30 33509 H 3499.16 -1.36451 -0.72253 0
M  V30 33510 H 3501.12 -1.44154 -3.84357 0
M  V30 33511 H 3499.78 -0.546304 -3.09313 0
M  V30 33512 H 3498.98 -2.5818 -4.3285 0
M  V30 33513 H 3498.58 -2.69024 -2.59812 0
M  V30 33514 H 3500.87 -3.9355 -5.51475 0
M  V30 33515 H 3501.81 -5.253 -4.74833 0
M  V30 33516 H 3502.22 -3.54873 -4.39005 0
M  V30 33517 N 3501.62 0.788444 -1.3646 0
M  V30 33518 C 3502.55 1.91539 -1.33549 0
M  V30 33519 C 3503.53 1.68838 -0.206792 0
M  V30 33520 O 3504.71 1.89939 -0.404586 0
M  V30 33521 C 3501.84 3.28575 -1.12498 0
M  V30 33522 C 3500.8 3.65801 -2.22202 0
M  V30 33523 C 3500.12 5.01197 -1.86294 0
M  V30 33524 C 3501.42 3.74283 -3.64293 0
M  V30 33525 H 3503.12 1.94232 -2.27847 0
M  V30 33526 H 3500.66 0.933086 -1.09679 0
M  V30 33527 H 3502.62 4.07033 -1.09096 0
M  V30 33528 H 3501.34 3.26271 -0.146503 0
M  V30 33529 H 3500 2.8964 -2.24732 0
M  V30 33530 H 3499.65 4.95416 -0.870177 0
M  V30 33531 H 3499.35 5.27074 -2.59743 0
M  V30 33532 H 3500.87 5.82075 -1.84449 0
M  V30 33533 H 3502.29 4.42931 -3.63985 0
M  V30 33534 H 3500.68 4.11645 -4.36655 0
M  V30 33535 H 3501.75 2.75364 -3.99128 0
M  V30 33536 N 3503.1 1.20755 1.01271 0
M  V30 33537 C 3504.06 0.961565 2.08054 0
M  V30 33538 C 3505.06 -0.0644178 1.60671 0
M  V30 33539 O 3506.25 0.172052 1.73348 0
M  V30 33540 C 3503.38 0.448441 3.37938 0
M  V30 33541 H 3504.57 1.90881 2.3131 0
M  V30 33542 H 3502.13 1.02346 1.18131 0
M  V30 33543 H 3502.86 -0.504088 3.20358 0
M  V30 33544 H 3502.65 1.1884 3.73657 0
M  V30 33545 H 3504.14 0.295949 4.1655 0
M  V30 33546 N 3504.58 -1.20642 1.01406 0
M  V30 33547 C 3505.53 -2.21192 0.552995 0
M  V30 33548 C 3506.51 -1.56095 -0.390297 0
M  V30 33549 O 3507.7 -1.75706 -0.213675 0
M  V30 33550 C 3504.83 -3.43124 -0.109889 0
M  V30 33551 C 3503.92 -4.15393 0.854959 0
M  V30 33552 N 3504.31 -4.64084 2.01146 0
M  V30 33553 C 3502.61 -4.40859 0.675245 0
M  V30 33554 C 3503.31 -5.19417 2.61879 0
M  V30 33555 N 3502.28 -5.09329 1.89961 0
M  V30 33556 H 3506.08 -2.56502 1.43471 0
M  V30 33557 H 3503.6 -1.36551 0.879074 0
M  V30 33558 H 3505.6 -4.1438 -0.457729 0
M  V30 33559 H 3504.26 -3.0932 -0.98748 0
M  V30 33560 H 3505.27 -4.59378 2.39148 0
M  V30 33561 H 3501.94 -4.17214 -0.154503 0
M  V30 33562 H 3503.33 -5.67485 3.59737 0
M  V30 33563 N 3506.05 -0.789968 -1.36372 0
M  V30 33564 C 3506.98 -0.202984 -2.32616 0
M  V30 33565 C 3507.96 0.662336 -1.56675 0
M  V30 33566 O 3509.15 0.596046 -1.84827 0
M  V30 33567 C 3506.28 0.662586 -3.40921 0
M  V30 33568 C 3505.23 -0.102886 -4.27876 0
M  V30 33569 C 3504.56 0.883314 -5.27353 0
M  V30 33570 C 3505.86 -1.2924 -5.06058 0
M  V30 33571 H 3507.55 -1.00704 -2.81956 0
M  V30 33572 H 3505.1 -0.485704 -1.35562 0
M  V30 33573 H 3507.05 1.08317 -4.07241 0
M  V30 33574 H 3505.78 1.49935 -2.9015 0
M  V30 33575 H 3504.44 -0.504453 -3.63113 0
M  V30 33576 H 3504.08 1.71513 -4.72856 0
M  V30 33577 H 3503.78 0.375566 -5.86399 0
M  V30 33578 H 3505.31 1.30245 -5.96547 0
M  V30 33579 H 3506.72 -0.947546 -5.65415 0
M  V30 33580 H 3505.12 -1.73348 -5.74518 0
M  V30 33581 H 3506.19 -2.08747 -4.37667 0
M  V30 33582 N 3507.53 1.47986 -0.542031 0
M  V30 33583 C 3508.77 2.04395 -0.014507 0
M  V30 33584 C 3509.14 1.40889 1.30439 0
M  V30 33585 O 3510.34 1.88255 1.91868 0
M  V30 33586 C 3508.61 3.5728 0.0925654 0
M  V30 33587 S 3510.17 4.35103 0.568411 0
M  V30 33588 H 3506.98 0.710776 -0.0178424 0
M  V30 33589 H 3509.59 1.81547 -0.725326 0
M  V30 33590 H 3508.29 4.0103 -0.871959 0
M  V30 33591 H 3507.82 3.84601 0.8274 0
M  V30 33592 H 3509.84 4.61188 1.83084 0
M  V30 33593 N 3509.01 0.277736 1.55133 0
M  V30 33594 C 3509.97 -0.595531 2.21328 0
M  V30 33595 C 3510.97 -1.07931 1.19195 0
M  V30 33596 O 3512.16 -0.979068 1.44083 0
M  V30 33597 C 3509.29 -1.82191 2.88131 0
M  V30 33598 H 3510.49 -0.0175328 2.99895 0
M  V30 33599 H 3508.04 0.0283728 1.56274 0
M  V30 33600 H 3508.78 -2.44035 2.13582 0
M  V30 33601 H 3508.56 -1.4829 3.62977 0
M  V30 33602 H 3510.05 -2.44285 3.38696 0
M  V30 33603 N 3510.49 -1.57599 0.00505908 0
M  V30 33604 C 3511.44 -2.05224 -0.993343 0
M  V30 33605 C 3512.42 -0.947942 -1.30011 0
M  V30 33606 O 3513.61 -1.21168 -1.29025 0
M  V30 33607 C 3510.74 -2.56324 -2.2837 0
M  V30 33608 C 3509.83 -3.73639 -2.00636 0
M  V30 33609 N 3510.22 -4.85142 -1.43078 0
M  V30 33610 C 3508.52 -3.81666 -2.30753 0
M  V30 33611 C 3509.22 -5.66542 -1.31929 0
M  V30 33612 N 3508.19 -5.127 -1.80663 0
M  V30 33613 H 3512 -2.88842 -0.542901 0
M  V30 33614 H 3509.51 -1.61157 -0.200522 0
M  V30 33615 H 3511.51 -2.88721 -3.00742 0
M  V30 33616 H 3510.17 -1.74125 -2.74063 0
M  V30 33617 H 3511.18 -5.05889 -1.10892 0
M  V30 33618 H 3507.86 -3.10332 -2.79285 0
M  V30 33619 H 3509.25 -6.66161 -0.876274 0
M  V30 33620 N 3511.97 0.267771 -1.55309 0
M  V30 33621 C 3513.21 0.996703 -1.75813 0
M  V30 33622 C 3513.53 1.86629 -0.565194 0
M  V30 33623 O 3512.8 1.9135 0.419741 0
M  V30 33624 H 3511.38 0.370997 -0.64836 0
M  V30 33625 H 3514.05 0.290742 -1.92719 0
M  V30 33626 H 3513.14 1.6306 -2.66116 0
M  V30 33627 N 3513.44 1.48331 0.532519 0
M  V30 33628 C 3514.35 1.65342 1.6643 0
M  V30 33629 C 3515.37 0.535968 1.6554 0
M  V30 33630 O 3516.55 0.806711 1.84538 0
M  V30 33631 C 3513.61 1.68682 3.02898 0
M  V30 33632 C 3512.67 2.92036 3.14664 0
M  V30 33633 C 3511.9 2.95207 4.44622 0
M  V30 33634 O 3512.13 2.0686 5.31568 0
M  V30 33635 O 3511.06 3.87349 4.607 0
M  V30 33636 H 3514.89 2.61159 1.55016 0
M  V30 33637 H 3512.47 1.31702 0.705325 0
M  V30 33638 H 3514.35 1.73414 3.84065 0
M  V30 33639 H 3513.03 0.760382 3.14642 0
M  V30 33640 H 3511.94 2.92838 2.32802 0
M  V30 33641 H 3513.27 3.84056 3.07835 0
M  V30 33642 N 3514.92 -0.781196 1.36876 0
M  V30 33643 C 3516.16 -1.55252 1.32952 0
M  V30 33644 C 3516.53 -1.91798 -0.0879525 0
M  V30 33645 O 3517.73 -2.67618 -0.251831 0
M  V30 33646 C 3516 -2.78985 2.23387 0
M  V30 33647 S 3517.56 -3.69148 2.37225 0
M  V30 33648 H 3514.37 -0.531629 0.472114 0
M  V30 33649 H 3516.98 -0.91942 1.72531 0
M  V30 33650 H 3515.68 -2.50201 3.25312 0
M  V30 33651 H 3515.21 -3.47262 1.84858 0
M  V30 33652 H 3517.23 -4.70513 1.57583 0
M  V30 33653 N 3516.4 -1.21291 -1.0063 0
M  V30 33654 C 3517.65 -1.02354 -1.738 0
M  V30 33655 C 3517.96 0.443578 -1.90504 0
M  V30 33656 O 3519.17 0.75231 -2.60869 0
M  V30 33657 C 3517.62 -1.78275 -3.12644 0
M  V30 33658 C 3517.23 -3.29148 -3.03917 0
M  V30 33659 C 3518.98 -1.67741 -3.89953 0
M  V30 33660 C 3516.88 -3.97563 -4.37833 0
M  V30 33661 H 3515.81 -0.37937 -0.651609 0
M  V30 33662 H 3518.46 -1.45013 -1.12444 0
M  V30 33663 H 3516.85 -1.28408 -3.74603 0
M  V30 33664 H 3518.02 -3.86307 -2.51204 0
M  V30 33665 H 3516.33 -3.40209 -2.40097 0
M  V30 33666 H 3518.93 -2.16188 -4.89047 0
M  V30 33667 H 3519.27 -0.63541 -4.11422 0
M  V30 33668 H 3519.81 -2.15078 -3.34644 0
M  V30 33669 H 3516.55 -5.0196 -4.21565 0
M  V30 33670 H 3516.07 -3.45193 -4.90512 0
M  V30 33671 H 3517.75 -4.02402 -5.06637 0
M  V30 33672 N 3517.88 1.20103 -1.02045 0
M  V30 33673 C 3518.83 2.25062 -0.587371 0
M  V30 33674 C 3519.82 1.65179 0.375815 0
M  V30 33675 O 3521.03 1.78321 0.245316 0
M  V30 33676 H 3517.4 0.732148 -0.17165 0
M  V30 33677 H 3519.37 2.58915 -1.48344 0
M  V30 33678 C 3518.12 3.47657 0.0546282 0
M  V30 33679 H 3517.44 3.94017 -0.677526 0
M  V30 33680 H 3518.88 4.22785 0.320712 0
M  V30 33681 C 3517.34 3.10865 1.29863 0
M  V30 33682 O 3517.87 3.2275 2.39156 0
M  V30 33683 N 3516.08 2.65378 1.18419 0
M  V30 33684 H 3515.63 2.55907 0.29485 0
M  V30 33685 H 3515.58 2.41131 2.0175 0
M  V30 33686 N 3519.36 0.797189 1.35951 0
M  V30 33687 C 3520.58 0.384245 2.0381 0
M  V30 33688 C 3521.01 -0.993826 1.59702 0
M  V30 33689 O 3520.36 -1.64175 0.769177 0
M  V30 33690 C 3520.41 0.465116 3.57588 0
M  V30 33691 O 3519.52 -0.525023 4.09044 0
M  V30 33692 H 3518.86 0.161923 0.643954 0
M  V30 33693 H 3521.39 1.08046 1.73745 0
M  V30 33694 H 3521.4 0.331519 4.06651 0
M  V30 33695 H 3520.07 1.47034 3.89042 0
M  V30 33696 H 3518.65 -0.352444 3.71231 0
M  V30 33697 N 3520.83 -1.47696 0.549872 0
M  V30 33698 C 3521.76 -2.32723 -0.190323 0
M  V30 33699 C 3522.75 -1.43336 -0.915907 0
M  V30 33700 O 3523.93 -1.72201 -0.897807 0
M  V30 33701 C 3521.06 -3.24964 -1.2254 0
M  V30 33702 C 3520.01 -4.23533 -0.616731 0
M  V30 33703 C 3519.34 -5.05047 -1.75591 0
M  V30 33704 C 3520.64 -5.20571 0.424686 0
M  V30 33705 H 3522.33 -2.94858 0.519513 0
M  V30 33706 H 3519.88 -1.41791 0.251284 0
M  V30 33707 H 3521.83 -3.83284 -1.75133 0
M  V30 33708 H 3520.56 -2.60868 -1.96508 0
M  V30 33709 H 3519.22 -3.66428 -0.11216 0
M  V30 33710 H 3518.86 -4.3736 -2.48445 0
M  V30 33711 H 3518.56 -5.71776 -1.35446 0
M  V30 33712 H 3520.09 -5.66224 -2.28524 0
M  V30 33713 H 3521.5 -5.73298 -0.0149018 0
M  V30 33714 H 3519.9 -5.95463 0.744605 0
M  V30 33715 H 3520.97 -4.66495 1.32327 0
M  V30 33716 N 3522.31 -0.285959 -1.54984 0
M  V30 33717 C 3523.56 0.327055 -1.99436 0
M  V30 33718 C 3523.88 1.5556 -1.17585 0
M  V30 33719 O 3523.15 1.94058 -0.268036 0
M  V30 33720 H 3521.73 0.123833 -0.736664 0
M  V30 33721 H 3524.39 -0.393808 -1.9088 0
M  V30 33722 H 3523.49 0.609469 -3.06091 0
M  V30 33723 N 3523.79 1.57594 -0.0134169 0
M  V30 33724 C 3525.02 1.95837 0.68282 0
M  V30 33725 C 3525.44 0.889078 1.65762 0
M  V30 33726 O 3524.8 -0.151553 1.80665 0
M  V30 33727 C 3524.85 3.3318 1.37925 0
M  V30 33728 O 3523.95 3.28433 2.4941 0
M  V30 33729 H 3523.29 0.638963 0.180618 0
M  V30 33730 H 3525.82 2.04478 -0.0706003 0
M  V30 33731 H 3525.83 3.69054 1.73963 0
M  V30 33732 H 3524.51 4.10556 0.664602 0
M  V30 33733 H 3523.08 3.04255 2.156 0
M  V30 33734 N 3525.27 -0.259531 1.55448 0
M  V30 33735 C 3526.52 -0.989319 1.76688 0
M  V30 33736 C 3526.84 -1.85792 0.575467 0
M  V30 33737 O 3526.1 -1.90652 -0.441642 0
M  V30 33738 C 3526.4 -1.89067 3.03296 0
M  V30 33739 C 3526.06 -1.17847 4.35227 0
M  V30 33740 C 3524.73 -0.981592 4.71082 0
M  V30 33741 C 3527.08 -0.672709 5.1684 0
M  V30 33742 C 3524.41 -0.266448 5.86095 0
M  V30 33743 C 3526.76 0.0289077 6.32593 0
M  V30 33744 C 3525.42 0.237378 6.67078 0
M  V30 33745 H 3524.69 -0.362018 0.646548 0
M  V30 33746 H 3527.34 -0.260454 1.89721 0
M  V30 33747 H 3525.64 -2.68619 2.85221 0
M  V30 33748 H 3527.34 -2.45679 3.16927 0
M  V30 33749 H 3523.93 -1.34184 4.07053 0
M  V30 33750 H 3528.11 -0.812395 4.89606 0
M  V30 33751 H 3523.37 -0.0943372 6.11327 0
M  V30 33752 H 3527.54 0.4285 6.9508 0
M  V30 33753 H 3525.17 0.793491 7.56047 0
M  V30 33754 N 3526.75 -1.48611 -0.524645 0
M  V30 33755 C 3528.16 -1.3485 -0.85368 0
M  V30 33756 C 3528.36 -0.363564 -1.98193 0
M  V30 33757 O 3527.42 0.213304 -2.51597 0
M  V30 33758 C 3528.73 -2.75009 -1.21617 0
M  V30 33759 C 3530.28 -2.83536 -1.32575 0
M  V30 33760 C 3530.75 -4.24409 -1.72165 0
M  V30 33761 N 3532.25 -4.27108 -1.79258 0
M  V30 33762 C 3532.98 -5.33053 -2.11287 0
M  V30 33763 N 3532.48 -6.4927 -2.41703 0
M  V30 33764 N 3534.27 -5.20451 -2.12338 0
M  V30 33765 H 3526.42 -2.11261 0.219708 0
M  V30 33766 H 3528.68 -0.947329 0.035661 0
M  V30 33767 H 3528.39 -3.48669 -0.460714 0
M  V30 33768 H 3528.26 -3.08874 -2.1651 0
M  V30 33769 H 3530.65 -2.10128 -2.07196 0
M  V30 33770 H 3530.73 -2.53284 -0.357899 0
M  V30 33771 H 3530.38 -4.98336 -0.981021 0
M  V30 33772 H 3530.31 -4.52109 -2.70009 0
M  V30 33773 H 3532.8 -3.43281 -1.58007 0
M  V30 33774 H 3533.11 -7.25848 -2.65263 0
M  V30 33775 H 3531.45 -6.52536 -2.39211 0
M  V30 33776 H 3534.65 -4.28672 -1.88036 0
M  V30 33777 H 3534.82 -6.03117 -2.36967 0
M  V30 33778 N 3528.22 0.773926 -1.37289 0
M  V30 33779 C 3529.46 1.54545 -1.33773 0
M  V30 33780 C 3529.83 1.91842 0.0777797 0
M  V30 33781 O 3531.03 2.67748 0.237635 0
M  V30 33782 C 3529.3 2.77797 -2.24864 0
M  V30 33783 S 3530.86 3.67884 -2.39179 0
M  V30 33784 H 3527.68 0.529117 -0.474927 0
M  V30 33785 H 3530.28 0.910257 -1.73016 0
M  V30 33786 H 3528.98 2.48472 -3.26634 0
M  V30 33787 H 3528.51 3.46277 -1.86697 0
M  V30 33788 H 3530.53 4.6967 -1.60076 0
M  V30 33789 N 3529.7 1.21823 0.99985 0
M  V30 33790 C 3530.65 0.949502 2.07288 0
M  V30 33791 C 3531.64 -0.0972289 1.60606 0
M  V30 33792 O 3532.83 0.112381 1.76643 0
M  V30 33793 C 3529.96 0.521624 3.39314 0
M  V30 33794 C 3529.04 1.60271 3.9265 0
M  V30 33795 N 3529.43 2.82891 4.19292 0
M  V30 33796 C 3527.73 1.47277 4.20981 0
M  V30 33797 C 3528.43 3.52747 4.62541 0
M  V30 33798 N 3527.41 2.802 4.65821 0
M  V30 33799 H 3531.21 1.88104 2.25818 0
M  V30 33800 H 3528.73 1.11472 1.181 0
M  V30 33801 H 3530.72 0.310449 4.15742 0
M  V30 33802 H 3529.38 -0.403095 3.22188 0
M  V30 33803 H 3530.39 3.19385 4.07693 0
M  V30 33804 H 3527.07 0.613726 4.12964 0
M  V30 33805 H 3528.46 4.57764 4.91835 0
M  V30 33806 N 3531.18 -1.1956 1.0268 0
M  V30 33807 C 3532.42 -1.90892 0.730733 0
M  V30 33808 C 3532.78 -1.77698 -0.727135 0
M  V30 33809 O 3533.99 -2.43607 -1.13618 0
M  V30 33810 C 3532.26 -3.37814 1.16689 0
M  V30 33811 S 3533.82 -4.27385 0.994346 0
M  V30 33812 H 3530.63 -0.659329 0.266094 0
M  V30 33813 H 3533.24 -1.44556 1.3162 0
M  V30 33814 H 3531.94 -3.44941 2.2236 0
M  V30 33815 H 3531.47 -3.89181 0.574627 0
M  V30 33816 H 3533.49 -4.96107 -0.0962999 0
M  V30 33817 N 3532.66 -0.804387 -1.35526 0
M  V30 33818 C 3533.59 -0.170934 -2.28562 0
M  V30 33819 C 3534.6 0.628499 -1.50179 0
M  V30 33820 O 3535.79 0.461221 -1.72438 0
M  V30 33821 C 3532.89 0.780376 -3.29793 0
M  V30 33822 C 3532.07 0.027785 -4.37391 0
M  V30 33823 C 3531.12 0.89725 -5.18494 0
M  V30 33824 O 3530.15 0.348999 -5.68129 0
M  V30 33825 N 3531.35 2.21962 -5.36389 0
M  V30 33826 H 3534.12 -0.970158 -2.83563 0
M  V30 33827 H 3531.68 -0.659643 -1.47852 0
M  V30 33828 H 3533.67 1.36622 -3.80942 0
M  V30 33829 H 3532.24 1.48041 -2.75323 0
M  V30 33830 H 3531.46 -0.739246 -3.87206 0
M  V30 33831 H 3532.75 -0.490978 -5.06426 0
M  V30 33832 H 3532.15 2.68901 -4.97704 0
M  V30 33833 H 3530.7 2.75474 -5.90726 0
M  V30 33834 N 3534.14 1.47403 -0.557697 0
M  V30 33835 C 3535.1 2.28498 0.179271 0
M  V30 33836 C 3536.1 1.36977 0.842257 0
M  V30 33837 O 3537.29 1.59603 0.698044 0
M  V30 33838 C 3534.42 3.16671 1.26224 0
M  V30 33839 H 3535.62 2.95124 -0.533085 0
M  V30 33840 H 3533.17 1.531 -0.314661 0
M  V30 33841 H 3533.9 2.54737 2.00698 0
M  V30 33842 H 3533.69 3.84025 0.791644 0
M  V30 33843 H 3535.18 3.77772 1.77984 0
M  V30 33844 N 3535.62 0.294175 1.5483 0
M  V30 33845 C 3536.86 -0.316474 1.99607 0
M  V30 33846 C 3537.18 -1.54934 1.18408 0
M  V30 33847 O 3536.45 -1.93913 0.278323 0
M  V30 33848 H 3535.03 -0.119925 0.737311 0
M  V30 33849 H 3537.7 0.403925 1.90668 0
M  V30 33850 H 3536.79 -0.593228 3.0641 0
M  V30 33851 N 3537.09 -1.57585 0.0217743 0
M  V30 33852 C 3538.32 -1.95507 -0.667877 0
M  V30 33853 C 3538.73 -0.89645 -1.66615 0
M  V30 33854 O 3538.07 0.131027 -1.83232 0
M  V30 33855 C 3538.14 -3.29535 -1.4369 0
M  V30 33856 C 3537.8 -4.53073 -0.59779 0
M  V30 33857 C 3538.8 -5.19753 0.123811 0
M  V30 33858 C 3536.48 -4.99417 -0.537352 0
M  V30 33859 C 3538.48 -6.31091 0.894602 0
M  V30 33860 C 3536.16 -6.1064 0.237149 0
M  V30 33861 C 3537.16 -6.76335 0.951839 0
M  V30 33862 O 3536.85 -7.85423 1.71366 0
M  V30 33863 H 3536.58 -0.648886 -0.189533 0
M  V30 33864 H 3539.14 -2.05261 0.0756043 0
M  V30 33865 H 3537.37 -3.16251 -2.22536 0
M  V30 33866 H 3539.05 -3.52412 -2.01396 0
M  V30 33867 H 3539.82 -4.84923 0.086406 0
M  V30 33868 H 3535.7 -4.48094 -1.08319 0
M  V30 33869 H 3539.24 -6.82301 1.45297 0
M  V30 33870 H 3535.14 -6.44908 0.276297 0
M  V30 33871 H 3535.91 -8.02051 1.63266 0
M  V30 33872 N 3538.57 0.251283 -1.55584 0
M  V30 33873 C 3539.8 0.997604 -1.81261 0
M  V30 33874 C 3540.21 1.79116 -0.596892 0
M  V30 33875 O 3539.57 1.77255 0.434394 0
M  V30 33876 C 3539.62 1.93897 -3.051 0
M  V30 33877 O 3539.34 1.17753 -4.21979 0
M  V30 33878 C 3540.84 2.80164 -3.43545 0
M  V30 33879 H 3538.06 0.29375 -0.603284 0
M  V30 33880 H 3540.61 0.275495 -2.02636 0
M  V30 33881 H 3538.76 2.61541 -2.85788 0
M  V30 33882 H 3539.18 1.8139 -4.92136 0
M  V30 33883 H 3540.65 3.41973 -4.33311 0
M  V30 33884 H 3541.13 3.51052 -2.6393 0
M  V30 33885 H 3541.73 2.17978 -3.65192 0
M  V30 33886 N 3540.05 1.48887 0.516757 0
M  V30 33887 C 3541.46 1.50961 1.09853 0
M  V30 33888 C 3541.81 0.286844 1.94092 0
M  V30 33889 O 3540.94 -0.60484 2.07775 0
M  V30 33890 C 3541.53 2.73546 1.99895 0
M  V30 33891 C 3540.09 2.78449 2.53265 0
M  V30 33892 C 3539.24 2.44662 1.30522 0
M  V30 33893 H 3542.19 1.55812 0.301388 0
M  V30 33894 H 3542.21 2.52814 2.84368 0
M  V30 33895 H 3541.72 3.62524 1.38558 0
M  V30 33896 H 3539.82 1.93712 3.18287 0
M  V30 33897 H 3539.94 3.8022 2.91495 0
M  V30 33898 H 3538.3 1.961 1.62532 0
M  V30 33899 H 3539.08 3.35895 0.709164 0
M  V30 33900 N 3541.53 -0.766635 1.37697 0
M  V30 33901 C 3542.8 -1.51503 1.23718 0
M  V30 33902 C 3543.18 -2.10438 -0.167054 0
M  V30 33903 O 3542.53 -1.95961 -1.17523 0
M  V30 33904 C 3542.74 -2.59184 2.33719 0
M  V30 33905 C 3544.09 -3.26447 2.7151 0
M  V30 33906 O 3545.11 -2.69482 2.32934 0
M  V30 33907 O 3543.97 -4.29448 3.37989 0
M  V30 33908 H 3541.07 -0.671255 0.483058 0
M  V30 33909 H 3543.61 -0.803162 1.4949 0
M  V30 33910 H 3542.39 -2.13791 3.27733 0
M  V30 33911 H 3542.01 -3.37966 2.09439 0
M  V30 33912 N 3543.01 -1.22351 -0.993375 0
M  V30 33913 C 3543.97 -0.994543 -2.06498 0
M  V30 33914 C 3544.97 0.0388483 -1.60753 0
M  V30 33915 O 3546.16 -0.199609 -1.73053 0
M  V30 33916 C 3543.29 -0.502147 -3.37181 0
M  V30 33917 H 3544.48 -1.94537 -2.28244 0
M  V30 33918 H 3542.04 -1.04213 -1.16488 0
M  V30 33919 H 3542.77 0.453058 -3.2112 0
M  V30 33920 H 3542.56 -1.24769 -3.71719 0
M  V30 33921 H 3544.05 -0.362181 -4.16026 0
M  V30 33922 N 3544.48 1.19014 -1.03313 0
M  V30 33923 C 3545.71 1.92756 -0.751836 0
M  V30 33924 C 3546.13 1.75742 0.689951 0
M  V30 33925 O 3545.48 1.08209 1.46959 0
M  V30 33926 C 3545.53 3.4439 -1.09898 0
M  V30 33927 O 3545.26 3.60862 -2.48415 0
M  V30 33928 C 3546.76 4.35247 -0.841105 0
M  V30 33929 H 3543.98 0.612163 -0.274768 0
M  V30 33930 H 3546.52 1.51031 -1.37876 0
M  V30 33931 H 3544.68 3.83933 -0.517159 0
M  V30 33932 H 3545.09 4.54677 -2.61476 0
M  V30 33933 H 3546.56 5.40228 -1.13393 0
M  V30 33934 H 3547.04 4.38627 0.224357 0
M  V30 33935 H 3547.65 4.01392 -1.40586 0
M  V30 33936 N 3545.96 0.811563 1.35098 0
M  V30 33937 C 3546.92 0.230987 2.28033 0
M  V30 33938 C 3547.92 -0.584548 1.49799 0
M  V30 33939 O 3549.11 -0.402307 1.69491 0
M  V30 33940 C 3546.25 -0.677428 3.34101 0
M  V30 33941 H 3547.44 1.05072 2.80891 0
M  V30 33942 H 3544.99 0.582579 1.45037 0
M  V30 33943 H 3545.73 -1.52065 2.86438 0
M  V30 33944 H 3545.51 -0.0942874 3.91987 0
M  V30 33945 H 3547 -1.0778 4.03452 0
M  V30 33946 N 3547.44 -1.47105 0.565506 0
M  V30 33947 C 3548.67 -2.0684 0.0496662 0
M  V30 33948 C 3549.08 -1.41693 -1.24774 0
M  V30 33949 O 3548.44 -0.51627 -1.75045 0
M  V30 33950 C 3548.49 -3.61225 -0.140923 0
M  V30 33951 O 3548.21 -4.23932 1.10512 0
M  V30 33952 C 3549.71 -4.37848 -0.693094 0
M  V30 33953 H 3546.93 -0.669163 0.0496135 0
M  V30 33954 H 3549.48 -1.88987 0.78128 0
M  V30 33955 H 3547.63 -3.78564 -0.822695 0
M  V30 33956 H 3548.05 -5.16579 0.908069 0
M  V30 33957 H 3549.52 -5.46522 -0.775704 0
M  V30 33958 H 3550 -4.04702 -1.70625 0
M  V30 33959 H 3550.6 -4.25274 -0.0467513 0
M  V30 33960 N 3548.92 -0.302382 -1.54672 0
M  V30 33961 C 3550.15 0.309057 -2.04579 0
M  V30 33962 C 3550.56 1.47414 -1.1796 0
M  V30 33963 O 3549.92 1.81339 -0.205532 0
M  V30 33964 C 3549.97 0.763961 -3.53335 0
M  V30 33965 O 3549.69 -0.354751 -4.36661 0
M  V30 33966 C 3551.19 1.44041 -4.19246 0
M  V30 33967 H 3548.41 0.0669458 -0.667652 0
M  V30 33968 H 3550.96 -0.442414 -1.99657 0
M  V30 33969 H 3549.11 1.46545 -3.58613 0
M  V30 33970 H 3549.52 -0.000333382 -5.245 0
M  V30 33971 H 3551 1.70985 -5.2485 0
M  V30 33972 H 3551.48 2.38091 -3.69065 0
M  V30 33973 H 3552.08 0.782059 -4.18048 0
M  V30 33974 N 3550.4 1.57571 -0.0301311 0
M  V30 33975 C 3551.64 1.93708 0.652435 0
M  V30 33976 C 3552 0.906846 1.69234 0
M  V30 33977 O 3553.2 1.15444 2.42747 0
M  V30 33978 C 3551.47 3.34756 1.25193 0
M  V30 33979 S 3553.03 3.92821 1.95543 0
M  V30 33980 H 3549.85 0.677783 0.214783 0
M  V30 33981 H 3552.45 1.95274 -0.0940381 0
M  V30 33982 H 3551.16 4.07552 0.48266 0
M  V30 33983 H 3550.69 3.36635 2.03569 0
M  V30 33984 H 3552.7 3.76338 3.23395 0
M  V30 33985 N 3551.87 -0.243029 1.55715 0
M  V30 33986 C 3552.8 -1.30458 1.93657 0
M  V30 33987 C 3553.79 -1.50007 0.801994 0
M  V30 33988 O 3554.97 -1.6255 1.06259 0
M  V30 33989 C 3552.1 -2.65859 2.23464 0
M  V30 33990 C 3551.05 -2.61 3.3921 0
M  V30 33991 C 3550.38 -4.00232 3.54568 0
M  V30 33992 C 3551.68 -2.17648 4.74791 0
M  V30 33993 H 3553.37 -0.98949 2.82576 0
M  V30 33994 H 3550.92 -0.474548 1.35956 0
M  V30 33995 H 3552.87 -3.40261 2.48597 0
M  V30 33996 H 3551.6 -2.99012 1.31375 0
M  V30 33997 H 3550.26 -1.89055 3.14092 0
M  V30 33998 H 3549.9 -4.30657 2.59892 0
M  V30 33999 H 3549.6 -3.97868 4.32406 0
M  V30 34000 H 3551.13 -4.76328 3.82026 0
M  V30 34001 H 3552.54 -2.81783 4.99271 0
M  V30 34002 H 3550.94 -2.26387 5.5576 0
M  V30 34003 H 3552.01 -1.12822 4.71592 0
M  V30 34004 N 3553.35 -1.49159 -0.508854 0
M  V30 34005 C 3554.63 -1.48747 -1.27019 0
M  V30 34006 C 3555.01 -0.210809 -2.10045 0
M  V30 34007 O 3554.36 0.807023 -2.13774 0
M  V30 34008 C 3554.57 -2.76184 -2.13362 0
M  V30 34009 C 3555.92 -3.25362 -2.72809 0
M  V30 34010 O 3556.94 -2.77247 -2.23635 0
M  V30 34011 O 3555.8 -4.09139 -3.62308 0
M  V30 34012 H 3552.89 -0.594996 -0.574377 0
M  V30 34013 H 3555.44 -1.61415 -0.523769 0
M  V30 34014 H 3554.21 -3.60599 -1.51935 0
M  V30 34015 H 3553.83 -2.66339 -2.95211 0
M  V30 34016 N 3554.83 0.759322 -1.38102 0
M  V30 34017 C 3555.76 1.88072 -1.29244 0
M  V30 34018 C 3556.74 1.61703 -0.170554 0
M  V30 34019 O 3557.93 1.85281 -0.346897 0
M  V30 34020 C 3555.05 3.23564 -1.0012 0
M  V30 34021 C 3554.1 3.68828 -2.14168 0
M  V30 34022 S 3554.93 3.81039 -3.76258 0
M  V30 34023 C 3556.09 5.19359 -3.4931 0
M  V30 34024 H 3556.32 1.95299 -2.24155 0
M  V30 34025 H 3553.85 0.921712 -1.2387 0
M  V30 34026 H 3555.81 4.01814 -0.840004 0
M  V30 34027 H 3554.47 3.14023 -0.069364 0
M  V30 34028 H 3553.67 4.6709 -1.89322 0
M  V30 34029 H 3553.27 2.97716 -2.26365 0
M  V30 34030 H 3555.56 6.04929 -3.05069 0
M  V30 34031 H 3556.5 5.49223 -4.46945 0
M  V30 34032 H 3556.91 4.87884 -2.83953 0
M  V30 34033 N 3556.31 1.22876 0.986873 0
M  V30 34034 C 3557.59 0.965341 1.70119 0
M  V30 34035 C 3557.97 -0.517888 2.04649 0
M  V30 34036 O 3557.31 -1.48746 1.73456 0
M  V30 34037 C 3557.52 1.86902 2.94735 0
M  V30 34038 C 3558.87 2.12867 3.67386 0
M  V30 34039 O 3559.9 1.84399 3.04755 0
M  V30 34040 O 3558.75 2.61114 4.80085 0
M  V30 34041 H 3555.85 0.36354 0.74281 0
M  V30 34042 H 3558.39 1.33889 1.04268 0
M  V30 34043 H 3557.17 2.872 2.65766 0
M  V30 34044 H 3556.79 1.49743 3.68324 0
M  V30 34045 N 3557.79 -1.18464 1.03942 0
M  V30 34046 C 3558.7 -2.25708 0.639753 0
M  V30 34047 C 3559.71 -1.70776 -0.333401 0
M  V30 34048 O 3560.89 -2.00515 -0.188641 0
M  V30 34049 C 3557.95 -3.46699 0.00761994 0
M  V30 34050 C 3557.01 -4.1677 1.02962 0
M  V30 34051 C 3556.25 -5.31985 0.427557 0
M  V30 34052 O 3556.47 -5.65225 -0.766585 0
M  V30 34053 O 3555.4 -5.90702 1.15564 0
M  V30 34054 H 3559.23 -2.62158 1.5332 0
M  V30 34055 H 3556.82 -1.25522 0.810228 0
M  V30 34056 H 3558.7 -4.19991 -0.34433 0
M  V30 34057 H 3557.37 -3.12076 -0.859672 0
M  V30 34058 H 3556.28 -3.45552 1.43334 0
M  V30 34059 H 3557.61 -4.5539 1.86764 0
M  V30 34060 N 3559.26 -0.818716 -1.34665 0
M  V30 34061 C 3560.5 -0.410595 -2.00234 0
M  V30 34062 C 3560.87 1.00642 -1.63509 0
M  V30 34063 O 3562.07 1.5172 -2.21889 0
M  V30 34064 C 3560.34 -0.60203 -3.52293 0
M  V30 34065 S 3561.9 -0.286132 -4.37866 0
M  V30 34066 H 3558.72 -0.155338 -0.693824 0
M  V30 34067 H 3561.32 -1.06361 -1.64035 0
M  V30 34068 H 3560.02 -1.63309 -3.76508 0
M  V30 34069 H 3559.55 0.065875 -3.93345 0
M  V30 34070 H 3561.57 0.901746 -4.87937 0
M  V30 34071 N 3560.74 1.46803 -0.573299 0
M  V30 34072 C 3561.97 2.07317 -0.0587081 0
M  V30 34073 C 3562.39 1.42071 1.23278 0
M  V30 34074 O 3561.75 0.501219 1.74234 0
M  V30 34075 C 3561.8 3.60452 0.10344 0
M  V30 34076 O 3560.9 3.95684 1.16222 0
M  V30 34077 H 3560.24 0.661412 -0.058562 0
M  V30 34078 H 3562.77 1.88583 -0.793565 0
M  V30 34079 H 3562.78 4.06801 0.312587 0
M  V30 34080 H 3561.46 4.07334 -0.839755 0
M  V30 34081 H 3560.04 3.61058 0.932283 0
M  V30 34082 N 3562.22 0.31058 1.54509 0
M  V30 34083 C 3563.15 -0.595059 2.21341 0
M  V30 34084 C 3564.17 -1.09006 1.20919 0
M  V30 34085 O 3565.35 -1.00587 1.4746 0
M  V30 34086 C 3562.45 -1.82777 2.85387 0
M  V30 34087 C 3561.63 -1.47364 4.11828 0
M  V30 34088 C 3560.69 -2.56251 4.59589 0
M  V30 34089 O 3559.71 -2.2094 5.2457 0
M  V30 34090 N 3560.91 -3.86959 4.32716 0
M  V30 34091 H 3563.68 -0.0228764 2.99691 0
M  V30 34092 H 3561.24 0.133201 1.61351 0
M  V30 34093 H 3563.23 -2.54986 3.14268 0
M  V30 34094 H 3561.8 -2.30811 2.1082 0
M  V30 34095 H 3561.02 -0.583757 3.89854 0
M  V30 34096 H 3562.31 -1.21256 4.9414 0
M  V30 34097 H 3561.71 -4.18452 3.80677 0
M  V30 34098 H 3560.27 -4.55438 4.66283 0
M  V30 34099 N 3563.7 -1.57553 0.0384871 0
M  V30 34100 C 3564.95 -1.92468 -0.639051 0
M  V30 34101 C 3565.28 -0.916044 -1.71237 0
M  V30 34102 O 3564.55 0.0598587 -1.94408 0
M  V30 34103 C 3564.84 -3.37824 -1.24687 0
M  V30 34104 C 3564.69 -4.4943 -0.182465 0
M  V30 34105 C 3566.01 -3.83324 -2.16219 0
M  V30 34106 H 3563.13 -0.699916 -0.23084 0
M  V30 34107 H 3565.77 -1.89749 0.0976609 0
M  V30 34108 H 3563.92 -3.40272 -1.87475 0
M  V30 34109 H 3565.59 -4.59113 0.448702 0
M  V30 34110 H 3563.83 -4.31013 0.490975 0
M  V30 34111 H 3564.51 -5.48189 -0.64753 0
M  V30 34112 H 3566.98 -3.82671 -1.63407 0
M  V30 34113 H 3565.86 -4.85706 -2.55696 0
M  V30 34114 H 3566.12 -3.19359 -3.05716 0
M  V30 34115 N 3565.18 0.234767 -1.55842 0
M  V30 34116 C 3566.59 0.802857 -1.68556 0
M  V30 34117 C 3566.94 1.85532 -0.63814 0
M  V30 34118 O 3566.06 2.15346 0.213292 0
M  V30 34119 C 3566.66 1.46304 -3.05582 0
M  V30 34120 C 3565.22 1.97868 -3.20196 0
M  V30 34121 C 3564.37 0.83409 -2.64458 0
M  V30 34122 H 3567.32 0.010348 -1.58697 0
M  V30 34123 H 3567.34 2.33147 -3.00704 0
M  V30 34124 H 3566.85 0.696801 -3.81794 0
M  V30 34125 H 3564.95 2.77335 -2.4883 0
M  V30 34126 H 3565.06 2.16773 -4.27254 0
M  V30 34127 H 3563.43 1.23787 -2.22596 0
M  V30 34128 H 3564.21 0.0807385 -3.43205 0
M  V30 34129 N 3566.66 1.49427 0.500936 0
M  V30 34130 C 3567.6 1.66101 1.60247 0
M  V30 34131 C 3568.57 0.502481 1.58317 0
M  V30 34132 O 3569.76 0.729513 1.76303 0
M  V30 34133 C 3566.9 1.73366 2.98393 0
M  V30 34134 C 3566.01 3.00523 3.10338 0
M  V30 34135 C 3565.15 2.98767 4.39217 0
M  V30 34136 C 3564.18 4.20504 4.44796 0
M  V30 34137 N 3563.32 4.16658 5.65102 0
M  V30 34138 H 3568.16 2.60156 1.45337 0
M  V30 34139 H 3565.7 1.28989 0.707124 0
M  V30 34140 H 3567.66 1.7556 3.78464 0
M  V30 34141 H 3566.29 0.827772 3.12006 0
M  V30 34142 H 3565.34 3.07941 2.23331 0
M  V30 34143 H 3566.65 3.90516 3.1032 0
M  V30 34144 H 3565.8 2.99524 5.27608 0
M  V30 34145 H 3564.54 2.06553 4.418 0
M  V30 34146 H 3563.55 4.19991 3.54806 0
M  V30 34147 H 3564.77 5.13911 4.43928 0
M  V30 34148 H 3562.72 3.2728 5.68528 0
M  V30 34149 H 3562.64 5.00386 5.66701 0
M  V30 34150 H 3563.9 4.21517 6.55701 0
M  V30 34151 N 3568.13 -0.751987 1.38502 0
M  V30 34152 C 3569.54 -1.32939 1.31088 0
M  V30 34153 C 3569.9 -1.96173 -0.0325903 0
M  V30 34154 O 3569.02 -1.95175 -0.934657 0
M  V30 34155 C 3569.62 -2.41716 2.374 0
M  V30 34156 C 3568.17 -2.95173 2.33559 0
M  V30 34157 C 3567.32 -1.6857 2.20181 0
M  V30 34158 H 3570.27 -0.550745 1.48837 0
M  V30 34159 H 3570.29 -3.21694 2.03208 0
M  V30 34160 H 3569.81 -1.95664 3.35167 0
M  V30 34161 H 3567.91 -3.4555 1.39377 0
M  V30 34162 H 3568.02 -3.49444 3.27759 0
M  V30 34163 H 3566.38 -1.92257 1.6706 0
M  V30 34164 H 3567.17 -1.24593 3.19893 0
M  V30 34165 N 3569.61 -1.23398 -0.980343 0
M  V30 34166 C 3570.85 -1.07784 -1.73672 0
M  V30 34167 C 3571.22 0.378726 -1.88228 0
M  V30 34168 O 3572.42 0.656046 -2.60671 0
M  V30 34169 C 3570.69 -1.78343 -3.09723 0
M  V30 34170 S 3572.25 -1.78302 -4.00941 0
M  V30 34171 H 3569.06 -0.385738 -0.597266 0
M  V30 34172 H 3571.67 -1.56535 -1.1712 0
M  V30 34173 H 3570.37 -2.8346 -2.96781 0
M  V30 34174 H 3569.9 -1.29874 -3.71344 0
M  V30 34175 H 3571.92 -0.841658 -4.8901 0
M  V30 34176 N 3571.09 1.17911 -1.04569 0
M  V30 34177 C 3572.32 1.91948 -0.772238 0
M  V30 34178 C 3572.73 1.76464 0.671272 0
M  V30 34179 O 3572.09 1.09762 1.45803 0
M  V30 34180 C 3572.14 3.43205 -1.13545 0
M  V30 34181 O 3571.86 3.58207 -2.52229 0
M  V30 34182 C 3573.36 4.34331 -0.887222 0
M  V30 34183 H 3570.58 0.609214 -0.281245 0
M  V30 34184 H 3573.13 1.49561 -1.3947 0
M  V30 34185 H 3571.28 3.83362 -0.557851 0
M  V30 34186 H 3571.7 4.51878 -2.66283 0
M  V30 34187 H 3573.17 5.38995 -1.19116 0
M  V30 34188 H 3573.65 4.3884 0.177822 0
M  V30 34189 H 3574.25 3.99878 -1.44836 0
M  V30 34190 N 3572.57 0.825847 1.34229 0
M  V30 34191 C 3573.81 0.415311 1.98195 0
M  V30 34192 C 3574.14 -1.02233 1.65465 0
M  V30 34193 O 3573.4 -1.72732 0.919899 0
M  V30 34194 C 3573.7 0.567842 3.5286 0
M  V30 34195 C 3573.36 1.97164 4.05509 0
M  V30 34196 C 3572.02 2.35565 4.19598 0
M  V30 34197 C 3574.38 2.88917 4.33793 0
M  V30 34198 C 3571.7 3.65048 4.593 0
M  V30 34199 C 3574.06 4.17867 4.74942 0
M  V30 34200 C 3572.72 4.56241 4.87237 0
M  V30 34201 H 3571.99 0.151973 0.725248 0
M  V30 34202 H 3574.64 1.05036 1.60124 0
M  V30 34203 H 3572.94 -0.150581 3.91511 0
M  V30 34204 H 3574.64 0.230678 4.00336 0
M  V30 34205 H 3571.23 1.66335 3.95007 0
M  V30 34206 H 3575.41 2.60491 4.22443 0
M  V30 34207 H 3570.67 3.94603 4.67011 0
M  V30 34208 H 3574.84 4.89049 4.95786 0
M  V30 34209 H 3572.47 5.56624 5.17758 0
M  V30 34210 N 3574.05 -1.46497 0.581077 0
M  V30 34211 C 3574.98 -2.33074 -0.140916 0
M  V30 34212 C 3575.96 -1.45246 -0.885298 0
M  V30 34213 O 3577.14 -1.74066 -0.861079 0
M  V30 34214 C 3574.27 -3.2749 -1.15619 0
M  V30 34215 C 3573.23 -4.24746 -0.526754 0
M  V30 34216 C 3572.55 -5.08657 -1.64838 0
M  V30 34217 C 3573.85 -5.19553 0.535012 0
M  V30 34218 H 3575.55 -2.9369 0.58194 0
M  V30 34219 H 3573.09 -1.41226 0.281303 0
M  V30 34220 H 3575.04 -3.86912 -1.66963 0
M  V30 34221 H 3573.77 -2.64978 -1.9093 0
M  V30 34222 H 3572.43 -3.66584 -0.0344094 0
M  V30 34223 H 3572.08 -4.42532 -2.39112 0
M  V30 34224 H 3571.78 -5.74521 -1.23288 0
M  V30 34225 H 3573.3 -5.70944 -2.16462 0
M  V30 34226 H 3574.71 -5.73201 0.106707 0
M  V30 34227 H 3573.11 -5.93749 0.870743 0
M  V30 34228 H 3574.18 -4.63583 1.42192 0
M  V30 34229 N 3575.52 -0.31877 -1.54343 0
M  V30 34230 C 3576.76 0.285894 -2.02391 0
M  V30 34231 C 3577.13 1.4972 -1.202 0
M  V30 34232 O 3578.33 2.1744 -1.58029 0
M  V30 34233 C 3576.6 0.616384 -3.52045 0
M  V30 34234 S 3578.16 1.20138 -4.22033 0
M  V30 34235 H 3574.98 0.0867598 -0.705687 0
M  V30 34236 H 3577.58 -0.450777 -1.90232 0
M  V30 34237 H 3576.28 -0.273411 -4.09488 0
M  V30 34238 H 3575.81 1.38338 -3.68275 0
M  V30 34239 H 3577.83 2.48844 -4.29292 0
M  V30 34240 N 3577 1.5753 -0.0468419 0
M  V30 34241 C 3577.95 2.11276 0.929028 0
M  V30 34242 C 3578.92 1.01907 1.31164 0
M  V30 34243 O 3580.1 1.2943 1.40187 0
M  V30 34244 C 3577.24 2.65877 2.20008 0
M  V30 34245 C 3576.36 3.89317 1.87233 0
M  V30 34246 C 3575.49 4.32248 3.08764 0
M  V30 34247 C 3574.53 5.48399 2.71891 0
M  V30 34248 N 3573.67 5.86404 3.86102 0
M  V30 34249 H 3578.51 2.94369 0.463802 0
M  V30 34250 H 3576.04 1.45486 0.217312 0
M  V30 34251 H 3578 2.95631 2.94378 0
M  V30 34252 H 3576.63 1.85589 2.64115 0
M  V30 34253 H 3575.68 3.66181 1.0303 0
M  V30 34254 H 3577 4.73749 1.56088 0
M  V30 34255 H 3576.15 4.63532 3.91438 0
M  V30 34256 H 3574.89 3.46619 3.43084 0
M  V30 34257 H 3573.89 5.16792 1.87633 0
M  V30 34258 H 3575.12 6.35741 2.38768 0
M  V30 34259 H 3573.07 5.03728 4.20231 0
M  V30 34260 H 3572.98 6.65517 3.58641 0
M  V30 34261 H 3574.25 6.22301 4.69427 0
M  V30 34262 N 3578.48 -0.226499 1.55964 0
M  V30 34263 C 3579.43 -1.30031 1.92859 0
M  V30 34264 C 3580.42 -1.48778 0.810034 0
M  V30 34265 O 3581.63 -1.50011 0.994828 0
M  V30 34266 H 3578 -0.435847 0.612815 0
M  V30 34267 H 3579.97 -0.96191 2.82471 0
M  V30 34268 C 3578.72 -2.64456 2.25739 0
M  V30 34269 H 3578.05 -2.50837 3.11321 0
M  V30 34270 H 3579.49 -3.38415 2.55443 0
M  V30 34271 C 3577.95 -3.19093 1.08079 0
M  V30 34272 O 3578.48 -4.00264 0.339349 0
M  V30 34273 N 3576.68 -2.77398 0.865939 0
M  V30 34274 H 3576.23 -2.11498 1.47059 0
M  V30 34275 H 3576.19 -3.14297 0.0804119 0
M  V30 34276 N 3579.96 -1.4969 -0.493005 0
M  V30 34277 C 3581.19 -1.63302 -1.27044 0
M  V30 34278 C 3581.6 -0.307567 -1.86278 0
M  V30 34279 O 3580.96 0.707939 -1.6821 0
M  V30 34280 C 3581.01 -2.70784 -2.39496 0
M  V30 34281 O 3580.73 -3.98189 -1.82695 0
M  V30 34282 C 3582.23 -2.95172 -3.30739 0
M  V30 34283 H 3579.45 -0.549537 -0.385032 0
M  V30 34284 H 3582 -1.95775 -0.590964 0
M  V30 34285 H 3580.15 -2.41066 -3.03259 0
M  V30 34286 H 3580.56 -4.57457 -2.5658 0
M  V30 34287 H 3582.04 -3.74092 -4.05905 0
M  V30 34288 H 3582.52 -2.05394 -3.88214 0
M  V30 34289 H 3583.12 -3.26337 -2.72735 0
M  V30 34290 N 3581.44 0.744631 -1.38899 0
M  V30 34291 C 3582.38 1.85853 -1.36848 0
M  V30 34292 C 3583.35 1.64505 -0.229629 0
M  V30 34293 O 3584.54 1.86046 -0.423253 0
M  V30 34294 C 3581.68 3.23258 -1.20824 0
M  V30 34295 C 3580.79 3.56376 -2.44172 0
M  V30 34296 C 3579.93 4.83132 -2.2081 0
M  V30 34297 C 3578.97 5.09064 -3.39883 0
M  V30 34298 N 3578.1 6.27019 -3.15899 0
M  V30 34299 H 3582.94 1.86941 -2.32071 0
M  V30 34300 H 3580.48 0.913591 -1.15291 0
M  V30 34301 H 3582.44 4.02561 -1.09547 0
M  V30 34302 H 3581.07 3.21473 -0.292352 0
M  V30 34303 H 3580.12 2.71848 -2.66088 0
M  V30 34304 H 3581.43 3.71463 -3.32892 0
M  V30 34305 H 3580.59 5.70396 -2.0672 0
M  V30 34306 H 3579.32 4.70201 -1.2947 0
M  V30 34307 H 3578.33 4.20265 -3.54482 0
M  V30 34308 H 3579.55 5.23886 -4.32111 0
M  V30 34309 H 3577.5 6.15394 -2.27214 0
M  V30 34310 H 3577.42 6.42648 -3.98171 0
M  V30 34311 H 3578.69 7.17147 -3.05483 0
M  V30 34312 N 3582.91 1.23916 0.973785 0
M  V30 34313 C 3584.16 1.0731 1.71257 0
M  V30 34314 C 3584.48 -0.389798 1.91064 0
M  V30 34315 O 3583.75 -1.2788 1.48403 0
M  V30 34316 H 3582.33 0.394101 0.634581 0
M  V30 34317 H 3585 1.55739 1.17181 0
M  V30 34318 H 3584.09 1.56631 2.69951 0
M  V30 34319 N 3584.39 -1.17355 1.05193 0
M  V30 34320 C 3585.62 -1.92077 0.782377 0
M  V30 34321 C 3586.04 -1.76293 -0.655926 0
M  V30 34322 O 3585.4 -1.08068 -1.45571 0
M  V30 34323 C 3585.45 -3.41166 1.16783 0
M  V30 34324 O 3584.55 -4.11308 0.29998 0
M  V30 34325 H 3583.89 -0.598817 0.286905 0
M  V30 34326 H 3586.42 -1.48751 1.40479 0
M  V30 34327 H 3586.43 -3.91907 1.1346 0
M  V30 34328 H 3585.11 -3.51974 2.21556 0
M  V30 34329 H 3583.69 -3.70815 0.393809 0
M  V30 34330 N 3585.87 -0.832954 -1.3379 0
M  V30 34331 C 3587.12 -0.425816 -1.97972 0
M  V30 34332 C 3587.45 1.01354 -1.66005 0
M  V30 34333 O 3586.7 1.72242 -0.929046 0
M  V30 34334 C 3587 -0.586547 -3.52554 0
M  V30 34335 C 3586.67 -1.99311 -4.04457 0
M  V30 34336 C 3585.33 -2.37787 -4.18343 0
M  V30 34337 C 3587.68 -2.91213 -4.32255 0
M  V30 34338 C 3585.01 -3.67479 -4.57358 0
M  V30 34339 C 3587.36 -4.2038 -4.72719 0
M  V30 34340 C 3586.02 -4.58819 -4.84811 0
M  V30 34341 H 3585.29 -0.155817 -0.724432 0
M  V30 34342 H 3587.94 -1.05884 -1.59565 0
M  V30 34343 H 3586.25 0.129816 -3.91585 0
M  V30 34344 H 3587.94 -0.251905 -4.00208 0
M  V30 34345 H 3584.53 -1.68428 -3.94119 0
M  V30 34346 H 3588.72 -2.62728 -4.21056 0
M  V30 34347 H 3583.97 -3.97074 -4.64911 0
M  V30 34348 H 3588.15 -4.91671 -4.93186 0
M  V30 34349 H 3585.77 -5.59362 -5.14799 0
M  V30 34350 N 3587.35 1.46186 -0.588837 0
M  V30 34351 C 3588.28 2.33146 0.128554 0
M  V30 34352 C 3589.26 1.45714 0.877582 0
M  V30 34353 O 3590.44 1.7452 0.851836 0
M  V30 34354 C 3587.57 3.28098 1.13881 0
M  V30 34355 C 3586.53 4.2502 0.504221 0
M  V30 34356 C 3585.85 5.09525 1.62138 0
M  V30 34357 C 3587.15 5.19262 -0.562557 0
M  V30 34358 H 3588.85 2.93377 -0.597507 0
M  V30 34359 H 3586.39 1.41074 -0.288789 0
M  V30 34360 H 3588.35 3.87792 1.64909 0
M  V30 34361 H 3587.07 2.65987 1.89522 0
M  V30 34362 H 3585.73 3.66597 0.0149681 0
M  V30 34363 H 3585.38 4.43794 2.36762 0
M  V30 34364 H 3585.08 5.75166 1.20239 0
M  V30 34365 H 3586.6 5.72084 2.13431 0
M  V30 34366 H 3588.02 5.73136 -0.137103 0
M  V30 34367 H 3586.41 5.93279 -0.902219 0
M  V30 34368 H 3587.48 4.62823 -1.44648 0
M  V30 34369 N 3588.83 0.32695 1.54171 0
M  V30 34370 C 3590.07 -0.275157 2.02539 0
M  V30 34371 C 3590.43 -1.4908 1.20992 0
M  V30 34372 O 3591.63 -2.16599 1.5918 0
M  V30 34373 C 3589.9 -0.597705 3.52367 0
M  V30 34374 S 3591.46 -1.17899 4.22665 0
M  V30 34375 H 3588.28 -0.0830161 0.706137 0
M  V30 34376 H 3590.88 0.460859 1.8999 0
M  V30 34377 H 3589.59 0.295124 4.09337 0
M  V30 34378 H 3589.12 -1.36383 3.69003 0
M  V30 34379 H 3591.13 -2.46563 4.30605 0
M  V30 34380 N 3590.3 -1.57503 0.0551955 0
M  V30 34381 C 3591.53 -1.97579 -0.630657 0
M  V30 34382 C 3591.95 -0.932715 -1.63346 0
M  V30 34383 O 3591.31 0.1036 -1.81004 0
M  V30 34384 C 3591.36 -3.3672 -1.29043 0
M  V30 34385 O 3590.46 -3.3493 -2.40615 0
M  V30 34386 H 3589.81 -0.643527 -0.163614 0
M  V30 34387 H 3592.34 -2.04219 0.124789 0
M  V30 34388 H 3592.35 -3.73537 -1.64117 0
M  V30 34389 H 3591.02 -4.12173 -0.555517 0
M  V30 34390 H 3589.6 -3.09864 -2.07458 0
M  V30 34391 N 3591.78 0.218225 -1.56082 0
M  V30 34392 C 3593.02 0.949156 -1.81026 0
M  V30 34393 C 3593.39 1.81397 -0.62921 0
M  V30 34394 O 3594.59 2.5789 -0.758027 0
M  V30 34395 C 3592.86 1.76316 -3.10882 0
M  V30 34396 S 3594.42 2.54928 -3.57152 0
M  V30 34397 H 3591.24 0.318774 -0.635535 0
M  V30 34398 H 3593.84 0.214449 -1.9432 0
M  V30 34399 H 3592.54 1.11804 -3.94877 0
M  V30 34400 H 3592.07 2.54011 -3.00403 0
M  V30 34401 H 3594.09 3.78592 -3.20753 0
M  V30 34402 N 3593.26 1.4995 0.485059 0
M  V30 34403 C 3594.67 1.53257 1.06626 0
M  V30 34404 C 3595.02 0.327949 1.9344 0
M  V30 34405 O 3594.15 -0.560632 2.09012 0
M  V30 34406 C 3594.74 2.77724 1.94048 0
M  V30 34407 C 3593.3 2.83758 2.47302 0
M  V30 34408 C 3592.45 2.47375 1.25303 0
M  V30 34409 H 3595.4 1.56416 0.26827 0
M  V30 34410 H 3595.42 2.58789 2.78942 0
M  V30 34411 H 3594.93 3.65381 1.30837 0
M  V30 34412 H 3593.03 2.0042 3.14106 0
M  V30 34413 H 3593.15 3.86318 2.83364 0
M  V30 34414 H 3591.51 1.99504 1.58336 0
M  V30 34415 H 3592.29 3.37324 0.637756 0
M  V30 34416 N 3594.74 -0.737255 1.39292 0
M  V30 34417 C 3596.16 -1.04251 1.20847 0
M  V30 34418 C 3596.36 -2.01384 0.0684867 0
M  V30 34419 O 3595.41 -2.45735 -0.580571 0
M  V30 34420 C 3596.72 -1.60695 2.54161 0
M  V30 34421 C 3598.27 -1.72787 2.60986 0
M  V30 34422 C 3598.75 -2.3264 3.94515 0
M  V30 34423 N 3600.24 -2.40053 3.96143 0
M  V30 34424 C 3600.97 -2.87297 4.96234 0
M  V30 34425 N 3600.47 -3.34455 6.06722 0
M  V30 34426 N 3602.26 -2.86486 4.83614 0
M  V30 34427 H 3594.41 -0.0930043 2.12196 0
M  V30 34428 H 3596.68 -0.103883 0.942291 0
M  V30 34429 H 3596.38 -0.967891 3.38119 0
M  V30 34430 H 3596.26 -2.59533 2.73719 0
M  V30 34431 H 3598.64 -2.35815 1.77412 0
M  V30 34432 H 3598.72 -0.726075 2.45279 0
M  V30 34433 H 3598.37 -1.7024 4.78519 0
M  V30 34434 H 3598.3 -3.33492 4.07542 0
M  V30 34435 H 3600.79 -2.06719 3.16347 0
M  V30 34436 H 3601.1 -3.69008 6.79009 0
M  V30 34437 H 3599.45 -3.32469 6.10319 0
M  V30 34438 H 3602.64 -2.48966 3.96401 0
M  V30 34439 H 3602.81 -3.22991 5.61766 0
M  V30 34440 N 3596.22 -1.24431 -0.967199 0
M  V30 34441 C 3597.47 -1.08216 -1.70686 0
M  V30 34442 C 3597.79 0.379659 -1.91268 0
M  V30 34443 O 3597.06 1.27091 -1.49079 0
M  V30 34444 H 3595.64 -0.397461 -0.632482 0
M  V30 34445 H 3598.3 -1.56358 -1.16354 0
M  V30 34446 H 3597.39 -1.5806 -2.69116 0
M  V30 34447 N 3597.7 1.16795 -1.05814 0
M  V30 34448 C 3598.93 1.90841 -0.791404 0
M  V30 34449 C 3599.33 1.7741 0.65745 0
M  V30 34450 O 3598.68 1.11305 1.4614 0
M  V30 34451 C 3598.74 3.42242 -1.10048 0
M  V30 34452 C 3598.4 3.79458 -2.54677 0
M  V30 34453 C 3599.4 3.81782 -3.52901 0
M  V30 34454 C 3597.08 4.10234 -2.8985 0
M  V30 34455 C 3599.08 4.1436 -4.84339 0
M  V30 34456 C 3596.77 4.42481 -4.2149 0
M  V30 34457 C 3597.76 4.44523 -5.18545 0
M  V30 34458 O 3597.45 4.76006 -6.47822 0
M  V30 34459 H 3597.18 0.612156 -0.286777 0
M  V30 34460 H 3599.74 1.49008 -1.41372 0
M  V30 34461 H 3597.97 3.84401 -0.421083 0
M  V30 34462 H 3599.66 3.97557 -0.818757 0
M  V30 34463 H 3600.42 3.58122 -3.27068 0
M  V30 34464 H 3596.3 4.07812 -2.14966 0
M  V30 34465 H 3599.85 4.15869 -5.60088 0
M  V30 34466 H 3595.74 4.65604 -4.47083 0
M  V30 34467 H 3596.51 4.93838 -6.52738 0
M  V30 34468 N 3599.17 0.840037 1.33346 0
M  V30 34469 C 3600.1 0.289179 2.31702 0
M  V30 34470 C 3601.08 -0.603731 1.59025 0
M  V30 34471 O 3602.27 -0.527038 1.86912 0
M  V30 34472 C 3599.4 -0.535599 3.43145 0
M  V30 34473 C 3598.35 0.261619 4.272 0
M  V30 34474 C 3597.68 -0.686982 5.30268 0
M  V30 34475 C 3598.98 1.47933 5.00912 0
M  V30 34476 H 3600.67 1.11099 2.78024 0
M  V30 34477 H 3598.22 0.535682 1.33665 0
M  V30 34478 H 3600.17 -0.931279 4.10981 0
M  V30 34479 H 3598.9 -1.39063 2.95515 0
M  V30 34480 H 3597.56 0.638872 3.6099 0
M  V30 34481 H 3597.2 -1.53845 4.78895 0
M  V30 34482 H 3596.9 -0.15767 5.87388 0
M  V30 34483 H 3598.43 -1.08015 6.0097 0
M  V30 34484 H 3599.84 1.15674 5.61509 0
M  V30 34485 H 3598.24 1.94551 5.67688 0
M  V30 34486 H 3599.31 2.24847 4.29618 0
M  V30 34487 N 3600.65 -1.45872 0.596582 0
M  V30 34488 C 3601.58 -2.33211 -0.116188 0
M  V30 34489 C 3602.56 -1.46177 -0.869842 0
M  V30 34490 O 3603.75 -1.7497 -0.842569 0
M  V30 34491 C 3600.88 -3.28698 -1.12139 0
M  V30 34492 C 3599.83 -4.25281 -0.481674 0
M  V30 34493 C 3599.16 -5.10377 -1.59434 0
M  V30 34494 C 3600.46 -5.18956 0.590087 0
M  V30 34495 H 3602.15 -2.93056 0.613057 0
M  V30 34496 H 3599.7 -1.40919 0.296266 0
M  V30 34497 H 3601.65 -3.88662 -1.6285 0
M  V30 34498 H 3600.37 -2.66988 -1.88109 0
M  V30 34499 H 3599.03 -3.666 0.00447364 0
M  V30 34500 H 3598.68 -4.45043 -2.34405 0
M  V30 34501 H 3598.38 -5.75796 -1.17187 0
M  V30 34502 H 3599.91 -5.73207 -2.10394 0
M  V30 34503 H 3601.32 -5.73055 0.167496 0
M  V30 34504 H 3599.72 -5.92792 0.93367 0
M  V30 34505 H 3600.79 -4.62049 1.47101 0
M  V30 34506 N 3602.13 -0.335122 -1.53996 0
M  V30 34507 C 3603.04 0.534203 -2.28437 0
M  V30 34508 C 3604.06 1.11924 -1.33226 0
M  V30 34509 O 3605.23 1.13673 -1.66254 0
M  V30 34510 C 3602.3 1.67349 -3.03637 0
M  V30 34511 C 3601.36 1.11909 -4.14457 0
M  V30 34512 C 3600.59 2.20407 -4.86062 0
M  V30 34513 O 3600.81 3.40971 -4.57269 0
M  V30 34514 O 3599.75 1.85175 -5.72707 0
M  V30 34515 H 3603.57 -0.0706848 -3.03618 0
M  V30 34516 H 3601.16 -0.100435 -1.49062 0
M  V30 34517 H 3603.04 2.33653 -3.50691 0
M  V30 34518 H 3601.72 2.26434 -2.31321 0
M  V30 34519 H 3600.62 0.420806 -3.71726 0
M  V30 34520 H 3601.96 0.573209 -4.88851 0
M  V30 34521 N 3603.61 1.57472 -0.0635475 0
M  V30 34522 C 3604.52 2.15744 0.921493 0
M  V30 34523 C 3605.53 1.11845 1.33292 0
M  V30 34524 O 3606.71 1.44072 1.40731 0
M  V30 34525 C 3603.77 2.70092 2.17373 0
M  V30 34526 C 3602.84 3.88835 1.81949 0
M  V30 34527 C 3602.07 4.40582 3.01203 0
M  V30 34528 O 3602.29 3.91358 4.14964 0
M  V30 34529 O 3601.23 5.32017 2.81498 0
M  V30 34530 H 3605.05 3.00259 0.455847 0
M  V30 34531 H 3602.64 1.48551 0.159059 0
M  V30 34532 H 3604.52 3.04962 2.9082 0
M  V30 34533 H 3603.19 1.88642 2.63051 0
M  V30 34534 H 3602.1 3.58834 1.05779 0
M  V30 34535 H 3603.43 4.71554 1.4106 0
M  V30 34536 N 3605.09 -0.209945 1.56195 0
M  V30 34537 C 3606.36 -0.957623 1.70555 0
M  V30 34538 C 3606.74 -2.0197 0.614127 0
M  V30 34539 O 3606.09 -2.25366 -0.377152 0
M  V30 34540 C 3606.3 -1.55754 3.12317 0
M  V30 34541 C 3607.65 -2.04536 3.72089 0
M  V30 34542 O 3608.67 -1.65625 3.15352 0
M  V30 34543 O 3607.53 -2.7609 4.71632 0
M  V30 34544 H 3604.63 -0.448092 0.695085 0
M  V30 34545 H 3607.17 -0.200811 1.68508 0
M  V30 34546 H 3605.94 -0.791235 3.83217 0
M  V30 34547 H 3605.57 -2.37958 3.1853 0
M  V30 34548 N 3606.56 -1.50205 -0.4771 0
M  V30 34549 C 3607.81 -1.60576 -1.22719 0
M  V30 34550 C 3608.13 -0.30536 -1.92594 0
M  V30 34551 O 3607.4 0.67681 -1.83837 0
M  V30 34552 H 3605.98 -0.591699 -0.455962 0
M  V30 34553 H 3608.64 -1.86953 -0.550883 0
M  V30 34554 H 3607.74 -2.41389 -1.97833 0
M  V30 34555 N 3608.04 0.729857 -1.39681 0
M  V30 34556 C 3609.46 1.03608 -1.21398 0
M  V30 34557 C 3609.66 2.01344 -0.0791656 0
M  V30 34558 O 3608.71 2.46039 0.567531 0
M  V30 34559 C 3610.03 1.59345 -2.55009 0
M  V30 34560 C 3611.58 1.714 -2.61899 0
M  V30 34561 C 3612.05 2.30545 -3.95744 0
M  V30 34562 N 3613.54 2.37948 -3.9741 0
M  V30 34563 C 3614.28 2.84661 -4.9775 0
M  V30 34564 N 3613.77 3.31232 -6.08487 0
M  V30 34565 N 3615.57 2.83917 -4.85126 0
M  V30 34566 H 3607.72 0.0817497 -2.12243 0
M  V30 34567 H 3609.98 0.098884 -0.942829 0
M  V30 34568 H 3609.69 0.949946 -3.38628 0
M  V30 34569 H 3609.56 2.58078 -2.75092 0
M  V30 34570 H 3611.95 2.34871 -1.78661 0
M  V30 34571 H 3612.03 0.713057 -2.45661 0
M  V30 34572 H 3611.67 1.677 -4.79415 0
M  V30 34573 H 3611.6 3.31326 -4.09305 0
M  V30 34574 H 3614.09 2.05039 -3.17439 0
M  V30 34575 H 3614.41 3.65402 -6.80956 0
M  V30 34576 H 3612.75 3.29228 -6.12073 0
M  V30 34577 H 3615.94 2.4686 -3.97715 0
M  V30 34578 H 3616.11 3.20007 -5.63471 0
M  V30 34579 N 3609.52 1.24942 0.960587 0
M  V30 34580 C 3610.75 1.1206 1.73926 0
M  V30 34581 C 3611.16 -0.326197 1.85961 0
M  V30 34582 O 3610.52 -1.2247 1.35305 0
M  V30 34583 C 3610.57 1.76272 3.15611 0
M  V30 34584 O 3610.29 3.15296 3.04171 0
M  V30 34585 C 3611.79 1.69093 4.09784 0
M  V30 34586 H 3609.01 0.391159 0.545193 0
M  V30 34587 H 3611.56 1.65188 1.20553 0
M  V30 34588 H 3609.71 1.27129 3.65947 0
M  V30 34589 H 3610.13 3.46775 3.93507 0
M  V30 34590 H 3611.6 2.18692 5.06831 0
M  V30 34591 H 3612.08 0.653529 4.34311 0
M  V30 34592 H 3612.68 2.17696 3.65361 0
M  V30 34593 N 3611 -1.16233 1.06432 0
M  V30 34594 C 3612.24 -1.8847 0.791094 0
M  V30 34595 C 3612.6 -1.79922 -0.670233 0
M  V30 34596 O 3613.8 -2.47098 -1.05811 0
M  V30 34597 C 3612.07 -3.33931 1.27377 0
M  V30 34598 S 3613.63 -4.24006 1.12981 0
M  V30 34599 H 3610.45 -0.65053 0.286935 0
M  V30 34600 H 3613.05 -1.40296 1.36152 0
M  V30 34601 H 3611.76 -3.37692 2.33221 0
M  V30 34602 H 3611.29 -3.87156 0.698151 0
M  V30 34603 H 3613.3 -4.96162 0.0615814 0
M  V30 34604 N 3612.48 -0.847097 -1.32899 0
M  V30 34605 C 3613.42 -0.284239 -2.29043 0
M  V30 34606 C 3614.39 0.604564 -1.54707 0
M  V30 34607 O 3615.58 0.541084 -1.82967 0
M  V30 34608 C 3612.72 0.527762 -3.41041 0
M  V30 34609 C 3611.83 -0.385983 -4.30272 0
M  V30 34610 C 3610.97 0.437916 -5.29392 0
M  V30 34611 C 3610.01 -0.473703 -6.10264 0
M  V30 34612 N 3609.14 0.312561 -7.01404 0
M  V30 34613 H 3613.98 -1.1094 -2.7658 0
M  V30 34614 H 3611.52 -0.558532 -1.36084 0
M  V30 34615 H 3613.48 1.0141 -4.04687 0
M  V30 34616 H 3612.11 1.31782 -2.94675 0
M  V30 34617 H 3611.16 -0.990675 -3.67273 0
M  V30 34618 H 3612.47 -1.08594 -4.86836 0
M  V30 34619 H 3611.63 0.987737 -5.98606 0
M  V30 34620 H 3610.36 1.17127 -4.73426 0
M  V30 34621 H 3609.37 -1.03547 -5.39961 0
M  V30 34622 H 3610.59 -1.20555 -6.68314 0
M  V30 34623 H 3608.54 1.02915 -6.47877 0
M  V30 34624 H 3608.46 -0.328509 -7.55286 0
M  V30 34625 H 3609.73 0.844353 -7.74913 0
M  V30 34626 N 3613.95 1.45554 -0.604309 0
M  V30 34627 C 3615.23 1.95576 -0.0303629 0
M  V30 34628 C 3615.61 1.54679 1.43658 0
M  V30 34629 O 3614.96 0.807769 2.13746 0
M  V30 34630 C 3615.17 3.48274 -0.225031 0
M  V30 34631 C 3616.52 4.24472 -0.104117 0
M  V30 34632 O 3617.54 3.55863 -0.154982 0
M  V30 34633 O 3616.4 5.46498 0.0135337 0
M  V30 34634 H 3613.49 0.826145 0.037596 0
M  V30 34635 H 3616.04 1.55735 -0.674141 0
M  V30 34636 H 3614.81 3.71 -1.24398 0
M  V30 34637 H 3614.44 3.94998 0.454165 0
M  V30 34638 N 3615.43 0.343284 1.53816 0
M  V30 34639 C 3616.36 -0.505965 2.27952 0
M  V30 34640 C 3617.34 -1.10285 1.29504 0
M  V30 34641 O 3618.53 -1.12429 1.58346 0
M  V30 34642 C 3615.66 -1.65718 3.05213 0
M  V30 34643 C 3614.61 -1.18864 4.11163 0
M  V30 34644 C 3613.94 -2.42835 4.76377 0
M  V30 34645 C 3615.24 -0.289311 5.21498 0
M  V30 34646 H 3616.93 0.112488 2.99189 0
M  V30 34647 H 3614.48 0.0555413 1.43893 0
M  V30 34648 H 3616.43 -2.25774 3.55815 0
M  V30 34649 H 3615.16 -2.30252 2.31628 0
M  V30 34650 H 3613.81 -0.610899 3.61474 0
M  V30 34651 H 3613.46 -3.05776 3.99387 0
M  V30 34652 H 3613.16 -2.12168 5.47959 0
M  V30 34653 H 3614.69 -3.03618 5.29763 0
M  V30 34654 H 3616.1 -0.796708 5.67737 0
M  V30 34655 H 3614.5 -0.0745311 6.00054 0
M  V30 34656 H 3615.57 0.674627 4.80184 0
M  V30 34657 N 3616.91 -1.57436 0.0718977 0
M  V30 34658 C 3618.19 -1.84896 -0.6382 0
M  V30 34659 C 3618.57 -0.964376 -1.87784 0
M  V30 34660 O 3617.92 -0.0306925 -2.28479 0
M  V30 34661 C 3618.13 -3.35082 -0.975758 0
M  V30 34662 C 3619.47 -4.02594 -1.3492 0
M  V30 34663 O 3620.5 -3.39828 -1.06748 0
M  V30 34664 O 3619.36 -5.13299 -1.8758 0
M  V30 34665 H 3616.45 -0.763838 -0.316987 0
M  V30 34666 H 3619 -1.69388 0.102837 0
M  V30 34667 H 3617.77 -3.91184 -0.095326 0
M  V30 34668 H 3617.39 -3.55852 -1.77355 0
M  V30 34669 N 3618.39 0.201658 -1.56305 0
M  V30 34670 C 3619.3 1.27053 -1.97217 0
M  V30 34671 C 3620.31 1.50173 -0.878861 0
M  V30 34672 O 3621.49 1.62916 -1.18408 0
M  V30 34673 C 3618.56 2.59622 -2.29776 0
M  V30 34674 C 3617.62 2.44631 -3.52781 0
M  V30 34675 C 3616.85 3.70878 -3.83777 0
M  V30 34676 O 3617.07 4.74764 -3.16157 0
M  V30 34677 O 3616.01 3.668 -4.77223 0
M  V30 34678 H 3619.83 0.953342 -2.88349 0
M  V30 34679 H 3617.42 0.406133 -1.43774 0
M  V30 34680 H 3619.3 3.3788 -2.51823 0
M  V30 34681 H 3617.97 2.90982 -1.41814 0
M  V30 34682 H 3616.88 1.64506 -3.35989 0
M  V30 34683 H 3618.21 2.18206 -4.41188 0
M  V30 34684 N 3619.87 1.50456 0.469128 0
M  V30 34685 C 3621.11 1.63182 1.23089 0
M  V30 34686 C 3621.47 0.325862 1.89215 0
M  V30 34687 O 3622.67 0.328578 2.66784 0
M  V30 34688 C 3620.94 2.78073 2.24522 0
M  V30 34689 S 3622.5 3.10944 3.09612 0
M  V30 34690 H 3619.32 0.575239 0.417877 0
M  V30 34691 H 3621.92 1.88247 0.527583 0
M  V30 34692 H 3620.63 3.71441 1.74527 0
M  V30 34693 H 3620.16 2.551 2.99479 0
M  V30 34694 H 3622.17 2.54921 4.25711 0
M  V30 34695 N 3621.34 -0.722439 1.40066 0
M  V30 34696 C 3622.57 -1.5116 1.41273 0
M  V30 34697 C 3622.99 -1.88797 0.0105756 0
M  V30 34698 O 3622.34 -1.54972 -0.96384 0
M  V30 34699 C 3622.4 -2.79127 2.29718 0
M  V30 34700 O 3622.12 -2.43084 3.64475 0
M  V30 34701 C 3623.62 -3.73071 2.39443 0
M  V30 34702 H 3620.84 -0.466719 0.482094 0
M  V30 34703 H 3623.38 -0.891704 1.84035 0
M  V30 34704 H 3621.54 -3.37418 1.90336 0
M  V30 34705 H 3621.95 -3.25376 4.11377 0
M  V30 34706 H 3623.42 -4.5972 3.05551 0
M  V30 34707 H 3623.9 -4.157 1.41738 0
M  V30 34708 H 3624.51 -3.20694 2.79348 0
M  V30 34709 N 3622.82 -1.2545 -0.953947 0
M  V30 34710 C 3624.05 -1.1308 -1.73861 0
M  V30 34711 C 3624.47 0.311449 -1.85504 0
M  V30 34712 O 3623.83 1.22562 -1.33598 0
M  V30 34713 C 3623.88 -1.79068 -3.12997 0
M  V30 34714 O 3622.98 -1.07079 -3.98256 0
M  V30 34715 H 3622.32 -0.394756 -0.533914 0
M  V30 34716 H 3624.85 -1.66026 -1.19568 0
M  V30 34717 H 3624.86 -1.8538 -3.63453 0
M  V30 34718 H 3623.54 -2.83998 -3.03839 0
M  V30 34719 H 3622.12 -1.08652 -3.5672 0
M  V30 34720 N 3624.3 1.15667 -1.07047 0
M  V30 34721 C 3625.72 1.38368 -0.795394 0
M  V30 34722 C 3625.92 1.92304 0.601795 0
M  V30 34723 O 3624.97 2.12677 1.36105 0
M  V30 34724 C 3626.29 2.35749 -1.86663 0
M  V30 34725 C 3627.83 2.49418 -1.89103 0
M  V30 34726 C 3628.31 3.50087 -2.95302 0
M  V30 34727 N 3629.8 3.5762 -2.94384 0
M  V30 34728 C 3630.54 4.35325 -3.73202 0
M  V30 34729 N 3630.03 5.16389 -4.6186 0
M  V30 34730 N 3631.82 4.30383 -3.61562 0
M  V30 34731 H 3623.98 0.789969 -1.97163 0
M  V30 34732 H 3626.24 0.409855 -0.854823 0
M  V30 34733 H 3625.94 2.03227 -2.87039 0
M  V30 34734 H 3625.82 3.35491 -1.72412 0
M  V30 34735 H 3628.21 2.81239 -0.893802 0
M  V30 34736 H 3628.29 1.49685 -2.07432 0
M  V30 34737 H 3627.93 3.19001 -3.95222 0
M  V30 34738 H 3627.86 4.49567 -2.7422 0
M  V30 34739 H 3630.35 2.99759 -2.30116 0
M  V30 34740 H 3630.66 5.72917 -5.18639 0
M  V30 34741 H 3629.01 5.15706 -4.65911 0
M  V30 34742 H 3632.2 3.66117 -2.91678 0
M  V30 34743 H 3632.37 4.90694 -4.2323 0
M  V30 34744 N 3625.78 0.854133 1.32447 0
M  V30 34745 C 3626.71 0.255645 2.2777 0
M  V30 34746 C 3627.72 -0.572328 1.52408 0
M  V30 34747 O 3628.91 -0.396904 1.74031 0
M  V30 34748 C 3626.01 -0.657438 3.32462 0
M  V30 34749 C 3625.19 0.134569 4.37193 0
M  V30 34750 C 3624.25 -0.704196 5.21467 0
M  V30 34751 O 3623.27 -0.137901 5.69033 0
M  V30 34752 N 3624.47 -2.01901 5.44257 0
M  V30 34753 H 3627.24 1.07473 2.79767 0
M  V30 34754 H 3624.8 0.714063 1.45302 0
M  V30 34755 H 3626.79 -1.22389 3.8575 0
M  V30 34756 H 3625.36 -1.37721 2.80627 0
M  V30 34757 H 3624.58 0.882446 3.84196 0
M  V30 34758 H 3625.87 0.678596 5.04254 0
M  V30 34759 H 3625.27 -2.50244 5.07341 0
M  V30 34760 H 3623.82 -2.5336 6.00543 0
M  V30 34761 N 3627.26 -1.45231 0.61202 0
M  V30 34762 C 3628.21 -2.27653 -0.125731 0
M  V30 34763 C 3629.19 -1.37576 -0.834373 0
M  V30 34764 O 3630.38 -1.61532 -0.723632 0
M  V30 34765 C 3627.51 -3.24534 -1.11949 0
M  V30 34766 C 3626.6 -4.22099 -0.411463 0
M  V30 34767 N 3626.99 -5.02808 0.54936 0
M  V30 34768 C 3625.29 -4.41113 -0.658437 0
M  V30 34769 C 3625.99 -5.73624 0.965937 0
M  V30 34770 N 3624.96 -5.42723 0.308744 0
M  V30 34771 H 3628.77 -2.87454 0.612166 0
M  V30 34772 H 3626.28 -1.56437 0.43603 0
M  V30 34773 H 3628.28 -3.82319 -1.66246 0
M  V30 34774 H 3626.94 -2.66293 -1.8579 0
M  V30 34775 H 3627.95 -5.09549 0.926312 0
M  V30 34776 H 3624.63 -3.93992 -1.38118 0
M  V30 34777 H 3626.02 -6.48476 1.75865 0
M  V30 34778 N 3628.74 -0.351436 -1.53632 0
M  V30 34779 C 3629.68 0.516943 -2.26783 0
M  V30 34780 C 3630.68 1.09534 -1.29223 0
M  V30 34781 O 3631.88 1.04017 -1.46903 0
M  V30 34782 H 3628.26 0.185404 -0.728786 0
M  V30 34783 H 3630.23 -0.121961 -2.98151 0
M  V30 34784 C 3628.98 1.65204 -3.05946 0
M  V30 34785 H 3628.3 1.21626 -3.80851 0
M  V30 34786 H 3629.74 2.23466 -3.60332 0
M  V30 34787 C 3628.2 2.58611 -2.15922 0
M  V30 34788 O 3628.73 3.61064 -1.76055 0
M  V30 34789 N 3626.94 2.27475 -1.80841 0
M  V30 34790 H 3626.48 1.44199 -2.13458 0
M  V30 34791 H 3626.44 2.90229 -1.20891 0
M  V30 34792 N 3630.21 1.57396 -0.0802459 0
M  V30 34793 C 3631.45 1.95685 0.590478 0
M  V30 34794 C 3631.82 0.960228 1.66264 0
M  V30 34795 O 3633.02 1.23108 2.38951 0
M  V30 34796 C 3631.29 3.38569 1.1448 0
M  V30 34797 S 3632.85 3.98843 1.82947 0
M  V30 34798 H 3629.67 0.684273 0.193111 0
M  V30 34799 H 3632.27 1.94876 -0.156115 0
M  V30 34800 H 3630.97 4.08881 0.352756 0
M  V30 34801 H 3630.5 3.42941 1.92756 0
M  V30 34802 H 3632.52 3.86436 3.11258 0
M  V30 34803 N 3631.69 -0.193366 1.56409 0
M  V30 34804 C 3632.62 -1.26374 1.91213 0
M  V30 34805 C 3633.64 -1.4162 0.802969 0
M  V30 34806 O 3634.83 -1.42015 1.08138 0
M  V30 34807 C 3631.93 -2.63564 2.13043 0
M  V30 34808 C 3631.1 -2.69903 3.44196 0
M  V30 34809 C 3630.16 -3.88301 3.55118 0
M  V30 34810 O 3629.18 -3.75324 4.27926 0
M  V30 34811 N 3630.39 -5.03829 2.88334 0
M  V30 34812 H 3633.15 -0.968333 2.83625 0
M  V30 34813 H 3630.71 -0.383274 1.57298 0
M  V30 34814 H 3632.7 -3.41199 2.17636 0
M  V30 34815 H 3631.27 -2.85585 1.27121 0
M  V30 34816 H 3630.49 -1.78529 3.51455 0
M  V30 34817 H 3631.78 -2.71131 4.30541 0
M  V30 34818 H 3631.18 -5.17272 2.29012 0
M  V30 34819 H 3629.74 -5.79405 2.98552 0
M  V30 34820 N 3633.17 -1.50702 -0.461142 0
M  V30 34821 C 3634.42 -1.62189 -1.21248 0
M  V30 34822 C 3634.74 -0.326852 -1.91734 0
M  V30 34823 O 3634 0.687846 -1.83213 0
M  V30 34824 C 3634.3 -2.75883 -2.27208 0
M  V30 34825 C 3633.96 -4.16015 -1.73904 0
M  V30 34826 C 3632.63 -4.54141 -1.59089 0
M  V30 34827 C 3634.98 -5.03555 -1.34468 0
M  V30 34828 C 3632.31 -5.77539 -1.03274 0
M  V30 34829 C 3634.66 -6.27509 -0.800917 0
M  V30 34830 C 3633.32 -6.6443 -0.63947 0
M  V30 34831 H 3632.59 -0.59349 -0.443679 0
M  V30 34832 H 3635.24 -1.84667 -0.507002 0
M  V30 34833 H 3633.54 -2.47532 -3.03703 0
M  V30 34834 H 3635.24 -2.81972 -2.85119 0
M  V30 34835 H 3631.83 -3.85941 -1.86406 0
M  V30 34836 H 3636.02 -4.74724 -1.44744 0
M  V30 34837 H 3631.27 -6.04811 -0.895209 0
M  V30 34838 H 3635.45 -6.94697 -0.48672 0
M  V30 34839 H 3633.07 -7.59924 -0.204833 0
M  V30 34840 N 3634.65 0.715001 -1.40447 0
M  V30 34841 C 3635.58 1.8419 -1.43514 0
M  V30 34842 C 3636.56 1.67505 -0.295998 0
M  V30 34843 O 3637.74 1.87527 -0.5047 0
M  V30 34844 C 3634.87 3.2215 -1.29757 0
M  V30 34845 C 3633.83 3.53508 -2.4128 0
M  V30 34846 C 3633.15 4.90618 -2.12599 0
M  V30 34847 C 3634.45 3.54447 -3.83621 0
M  V30 34848 H 3636.15 1.81881 -2.37823 0
M  V30 34849 H 3633.69 0.873635 -1.14471 0
M  V30 34850 H 3635.65 4.00678 -1.30519 0
M  V30 34851 H 3634.37 3.25036 -0.319247 0
M  V30 34852 H 3633.03 2.7732 -2.39769 0
M  V30 34853 H 3632.68 4.90107 -1.13156 0
M  V30 34854 H 3632.38 5.12565 -2.87317 0
M  V30 34855 H 3633.9 5.71479 -2.15044 0
M  V30 34856 H 3635.32 4.23014 -3.86952 0
M  V30 34857 H 3633.71 3.87921 -4.57862 0
M  V30 34858 H 3634.78 2.53819 -4.13163 0
M  V30 34859 N 3636.13 1.25954 0.947281 0
M  V30 34860 C 3637.37 1.12351 1.70753 0
M  V30 34861 C 3637.73 -0.328688 1.89166 0
M  V30 34862 O 3638.93 -0.586703 2.62319 0
M  V30 34863 C 3637.2 1.86492 3.04886 0
M  V30 34864 S 3638.76 1.8887 3.96073 0
M  V30 34865 H 3635.58 0.401438 0.586829 0
M  V30 34866 H 3638.18 1.59585 1.12929 0
M  V30 34867 H 3636.88 2.91229 2.89161 0
M  V30 34868 H 3636.42 1.39674 3.6777 0
M  V30 34869 H 3638.43 0.971014 4.86606 0
M  V30 34870 N 3637.6 -1.15097 1.07659 0
M  V30 34871 C 3638.85 -1.86232 0.802829 0
M  V30 34872 C 3639.18 -1.82294 -0.669523 0
M  V30 34873 O 3638.46 -1.24826 -1.4916 0
M  V30 34874 C 3638.74 -3.35205 1.31565 0
M  V30 34875 C 3638.59 -3.47759 2.85278 0
M  V30 34876 C 3639.91 -4.30059 0.934717 0
M  V30 34877 H 3637.03 -0.676206 0.293111 0
M  V30 34878 H 3639.67 -1.35205 1.3349 0
M  V30 34879 H 3637.82 -3.78792 0.863047 0
M  V30 34880 H 3639.5 -3.13012 3.38852 0
M  V30 34881 H 3637.74 -2.89217 3.23321 0
M  V30 34882 H 3638.41 -4.5244 3.16231 0
M  V30 34883 H 3640.89 -3.94448 1.32477 0
M  V30 34884 H 3639.76 -5.32771 1.32083 0
M  V30 34885 H 3640.02 -4.41814 -0.159044 0
M  V30 34886 N 3639.08 -0.861145 -1.31993 0
M  V30 34887 C 3640.03 -0.299393 -2.30665 0
M  V30 34888 C 3641.02 0.580751 -1.59134 0
M  V30 34889 O 3642.23 0.467833 -1.73814 0
M  V30 34890 H 3638.61 -0.0781223 -0.747931 0
M  V30 34891 H 3640.58 -1.14572 -2.75528 0
M  V30 34892 C 3639.33 0.491822 -3.44204 0
M  V30 34893 H 3638.65 -0.17615 -3.99412 0
M  V30 34894 H 3640.09 0.850361 -4.15385 0
M  V30 34895 C 3638.55 1.67962 -2.92045 0
M  V30 34896 O 3639.08 2.77881 -2.90078 0
M  V30 34897 N 3637.28 1.50882 -2.4836 0
M  V30 34898 H 3636.83 0.614639 -2.5016 0
M  V30 34899 H 3636.79 2.30499 -2.13817 0
M  V30 34900 N 3640.56 1.44905 -0.619713 0
M  V30 34901 C 3641.79 2.06514 -0.126399 0
M  V30 34902 C 3642.2 1.46226 1.1943 0
M  V30 34903 O 3641.56 0.580882 1.73009 0
M  V30 34904 C 3641.61 3.61499 0.00675965 0
M  V30 34905 O 3641.33 4.19539 -1.2617 0
M  V30 34906 C 3642.83 4.40119 0.530112 0
M  V30 34907 H 3640.05 0.666861 -0.0744149 0
M  V30 34908 H 3642.6 1.85958 -0.850883 0
M  V30 34909 H 3640.75 3.81356 0.681627 0
M  V30 34910 H 3641.17 5.12853 -1.09917 0
M  V30 34911 H 3642.64 5.49025 0.572331 0
M  V30 34912 H 3643.12 4.10756 1.55487 0
M  V30 34913 H 3643.72 4.25155 -0.111119 0
M  V30 34914 N 3642.04 0.359579 1.53443 0
M  V30 34915 C 3643.28 -0.232331 2.01465 0
M  V30 34916 C 3643.62 -1.48909 1.24658 0
M  V30 34917 O 3642.89 -1.9153 0.338607 0
M  V30 34918 C 3643.18 -0.53034 3.56173 0
M  V30 34919 C 3643.03 0.739634 4.43677 0
M  V30 34920 C 3644.35 -1.3334 4.19415 0
M  V30 34921 H 3641.47 -0.0829673 0.732315 0
M  V30 34922 H 3644.11 0.483285 1.83751 0
M  V30 34923 H 3642.26 -1.13998 3.71398 0
M  V30 34924 H 3643.93 1.37727 4.4026 0
M  V30 34925 H 3642.17 1.36124 4.11889 0
M  V30 34926 H 3642.84 0.486158 5.49855 0
M  V30 34927 H 3645.32 -0.817745 4.07985 0
M  V30 34928 H 3644.2 -1.51066 5.27703 0
M  V30 34929 H 3644.46 -2.34018 3.75084 0
M  V30 34930 N 3643.52 -1.57351 0.0885919 0
M  V30 34931 C 3644.76 -1.93733 -0.575502 0
M  V30 34932 C 3645.09 -0.970674 -1.69124 0
M  V30 34933 O 3644.36 -0.0216251 -1.95888 0
M  V30 34934 H 3642.94 -0.715216 -0.215579 0
M  V30 34935 H 3645.6 -1.94319 0.150396 0
M  V30 34936 H 3644.69 -2.95985 -0.989927 0
M  V30 34937 N 3644.99 0.185069 -1.5651 0
M  V30 34938 C 3645.96 1.21301 -1.9447 0
M  V30 34939 C 3646.96 1.37912 -0.826862 0
M  V30 34940 O 3648.15 1.35552 -1.09413 0
M  V30 34941 C 3645.28 2.58059 -2.22751 0
M  V30 34942 H 3646.47 0.888273 -2.86443 0
M  V30 34943 H 3644.03 0.426986 -1.50355 0
M  V30 34944 H 3644.76 2.95571 -1.33448 0
M  V30 34945 H 3644.55 2.47372 -3.04219 0
M  V30 34946 H 3646.04 3.32168 -2.5309 0
M  V30 34947 N 3646.47 1.50945 0.453144 0
M  V30 34948 C 3647.72 1.62829 1.20386 0
M  V30 34949 C 3648.05 0.337016 1.91558 0
M  V30 34950 O 3647.3 -0.67812 1.83576 0
M  V30 34951 C 3647.6 2.77084 2.25742 0
M  V30 34952 C 3647.27 4.16931 1.71696 0
M  V30 34953 C 3645.93 4.54979 1.56678 0
M  V30 34954 C 3648.28 5.04261 1.31795 0
M  V30 34955 C 3645.61 5.78079 1.0021 0
M  V30 34956 C 3647.96 6.27925 0.767627 0
M  V30 34957 C 3646.63 6.6476 0.604224 0
M  V30 34958 H 3645.9 0.595834 0.440525 0
M  V30 34959 H 3648.54 1.84933 0.497202 0
M  V30 34960 H 3646.85 2.49139 3.02386 0
M  V30 34961 H 3648.54 2.8348 2.8362 0
M  V30 34962 H 3645.13 3.86924 1.84357 0
M  V30 34963 H 3649.32 4.75485 1.42225 0
M  V30 34964 H 3644.57 6.05277 0.863122 0
M  V30 34965 H 3648.75 6.94945 0.449871 0
M  V30 34966 H 3646.38 7.60022 0.164529 0
M  V30 34967 N 3647.95 -0.707543 1.40825 0
M  V30 34968 C 3649.18 -1.49653 1.42869 0
M  V30 34969 C 3649.59 -1.88775 0.0305995 0
M  V30 34970 O 3648.95 -1.55986 -0.947349 0
M  V30 34971 C 3649 -2.76675 2.32666 0
M  V30 34972 O 3648.72 -2.39205 3.67032 0
M  V30 34973 C 3650.22 -3.7051 2.43387 0
M  V30 34974 H 3647.44 -0.461579 0.487017 0
M  V30 34975 H 3649.99 -0.872134 1.8497 0
M  V30 34976 H 3648.14 -3.3538 1.93904 0
M  V30 34977 H 3648.56 -3.20995 4.14805 0
M  V30 34978 H 3650.03 -4.56454 3.10409 0
M  V30 34979 H 3650.51 -4.14174 1.4614 0
M  V30 34980 H 3651.11 -3.17713 2.82734 0
M  V30 34981 N 3649.43 -1.26454 -0.940588 0
M  V30 34982 C 3650.67 -1.13255 -1.70155 0
M  V30 34983 C 3651.03 0.318651 -1.89337 0
M  V30 34984 O 3652.23 0.572784 -2.62626 0
M  V30 34985 C 3650.5 -1.88106 -3.03893 0
M  V30 34986 S 3652.06 -1.90967 -3.95066 0
M  V30 34987 H 3648.88 -0.404544 -0.584692 0
M  V30 34988 H 3651.48 -1.60182 -1.12081 0
M  V30 34989 H 3650.19 -2.92758 -2.87612 0
M  V30 34990 H 3649.72 -1.41623 -3.67024 0
M  V30 34991 H 3651.73 -0.996807 -4.86085 0
M  V30 34992 N 3650.91 1.14525 -1.08268 0
M  V30 34993 C 3652.32 1.37516 -0.810025 0
M  V30 34994 C 3652.52 1.92931 0.581365 0
M  V30 34995 O 3651.58 2.14109 1.33842 0
M  V30 34996 C 3652.89 2.33755 -1.89153 0
M  V30 34997 C 3654.44 2.47398 -1.91738 0
M  V30 34998 C 3654.91 3.46935 -2.98998 0
M  V30 34999 N 3656.41 3.54478 -2.98161 0
M  V30 35000 C 3657.14 4.31342 -3.77798 0
M  V30 35001 N 3656.64 5.11461 -4.67311 0
M  V30 35002 N 3658.43 4.26524 -3.66106 0
M  V30 35003 H 3650.58 0.769013 -1.9799 0
M  V30 35004 H 3652.84 0.400765 -0.859122 0
M  V30 35005 H 3652.55 2.00171 -2.89179 0
M  V30 35006 H 3652.42 3.33643 -1.75961 0
M  V30 35007 H 3654.81 2.80275 -0.923581 0
M  V30 35008 H 3654.89 1.47476 -2.09008 0
M  V30 35009 H 3654.54 3.14792 -3.98583 0
M  V30 35010 H 3654.47 4.46634 -2.78973 0
M  V30 35011 H 3656.96 2.97301 -2.33282 0
M  V30 35012 H 3657.27 5.67383 -5.24686 0
M  V30 35013 H 3655.61 5.10735 -4.71354 0
M  V30 35014 H 3658.81 3.63002 -2.95545 0
M  V30 35015 H 3658.98 4.86177 -4.28411 0
M  V30 35016 N 3652.39 0.868133 1.31534 0
M  V30 35017 C 3653.63 0.484627 1.98572 0
M  V30 35018 C 3653.99 -0.945037 1.67132 0
M  V30 35019 O 3655.19 -1.4338 2.27367 0
M  V30 35020 C 3653.46 0.732367 3.49816 0
M  V30 35021 S 3655.02 0.448446 4.36502 0
M  V30 35022 H 3651.84 0.180981 0.68758 0
M  V30 35023 H 3654.44 1.12376 1.59975 0
M  V30 35024 H 3653.14 1.7717 3.70188 0
M  V30 35025 H 3652.68 0.0801578 3.93318 0
M  V30 35026 H 3654.69 -0.72003 4.90948 0
M  V30 35027 N 3653.86 -1.44574 0.627389 0
M  V30 35028 C 3655.27 -1.85479 0.213181 0
M  V30 35029 C 3655.63 -1.5249 -1.23456 0
M  V30 35030 O 3654.75 -0.961149 -1.93884 0
M  V30 35031 C 3655.35 -3.36661 0.380122 0
M  V30 35032 C 3653.9 -3.76394 0.0204511 0
M  V30 35033 C 3653.05 -2.68442 0.695272 0
M  V30 35034 H 3656 -1.35093 0.832794 0
M  V30 35035 H 3656.02 -3.78578 -0.382011 0
M  V30 35036 H 3655.54 -3.6064 1.43389 0
M  V30 35037 H 3653.64 -3.58031 -1.03173 0
M  V30 35038 H 3653.75 -4.77185 0.427904 0
M  V30 35039 H 3652.11 -2.54363 0.130943 0
M  V30 35040 H 3652.9 -2.95254 1.75156 0
M  V30 35041 N 3655.34 -0.367711 -1.5325 0
M  V30 35042 C 3656.75 0.11104 -1.8637 0
M  V30 35043 C 3657.1 1.47984 -1.28823 0
M  V30 35044 O 3656.23 2.07592 -0.611095 0
M  V30 35045 C 3656.82 0.208265 -3.38159 0
M  V30 35046 C 3655.38 0.631275 -3.71069 0
M  V30 35047 C 3654.53 -0.220193 -2.76424 0
M  V30 35048 H 3657.48 -0.586424 -1.47468 0
M  V30 35049 H 3657.5 1.03144 -3.66253 0
M  V30 35050 H 3657.01 -0.788105 -3.80014 0
M  V30 35051 H 3655.11 1.6358 -3.34772 0
M  V30 35052 H 3655.23 0.404407 -4.7739 0
M  V30 35053 H 3653.59 0.311254 -2.52791 0
M  V30 35054 H 3654.37 -1.21414 -3.21113 0
M  V30 35055 N 3656.82 1.57302 -0.0969353 0
M  V30 35056 C 3658.07 1.94035 0.56522 0
M  V30 35057 C 3658.39 0.97963 1.68607 0
M  V30 35058 O 3657.66 0.0320133 1.95874 0
M  V30 35059 H 3656.24 0.71635 0.211783 0
M  V30 35060 H 3658.9 1.94236 -0.1607 0
M  V30 35061 H 3658 2.96505 0.974216 0
M  V30 35062 N 3658.3 -0.176766 1.56606 0
M  V30 35063 C 3659.54 -0.89427 1.81684 0
M  V30 35064 C 3659.87 -1.8248 0.673142 0
M  V30 35065 O 3659.13 -1.92725 -0.339961 0
M  V30 35066 C 3659.43 -1.72724 3.12891 0
M  V30 35067 C 3659.09 -0.946108 4.40862 0
M  V30 35068 C 3657.75 -0.730502 4.75623 0
M  V30 35069 C 3660.11 -0.397797 5.1968 0
M  V30 35070 C 3657.43 0.0446026 5.86683 0
M  V30 35071 C 3659.79 0.364191 6.31551 0
M  V30 35072 C 3658.45 0.590647 6.64882 0
M  V30 35073 H 3657.72 -0.327237 0.664829 0
M  V30 35074 H 3660.37 -0.159521 1.90834 0
M  V30 35075 H 3658.67 -2.53122 2.99059 0
M  V30 35076 H 3660.37 -2.28534 3.29504 0
M  V30 35077 H 3656.96 -1.12419 4.13594 0
M  V30 35078 H 3661.14 -0.551724 4.93224 0
M  V30 35079 H 3656.4 0.229847 6.10968 0
M  V30 35080 H 3660.57 0.796345 6.91832 0
M  V30 35081 H 3658.2 1.19314 7.50778 0
M  V30 35082 N 3659.78 -1.51183 -0.445132 0
M  V30 35083 C 3661 -1.67261 -1.21784 0
M  V30 35084 C 3661.42 -0.366674 -1.85205 0
M  V30 35085 O 3660.78 0.654066 -1.70377 0
M  V30 35086 C 3660.83 -2.78266 -2.3076 0
M  V30 35087 O 3660.55 -4.03799 -1.69935 0
M  V30 35088 C 3662.05 -3.05545 -3.21181 0
M  V30 35089 H 3659.27 -0.561509 -0.367354 0
M  V30 35090 H 3661.81 -1.97556 -0.52838 0
M  V30 35091 H 3659.97 -2.50592 -2.95436 0
M  V30 35092 H 3660.38 -4.65388 -2.41897 0
M  V30 35093 H 3661.86 -3.86817 -3.93798 0
M  V30 35094 H 3662.33 -2.17641 -3.81483 0
M  V30 35095 H 3662.94 -3.34848 -2.62215 0
M  V30 35096 N 3661.25 0.700065 -1.41198 0
M  V30 35097 C 3662.19 1.8253 -1.3862 0
M  V30 35098 C 3663.2 1.60213 -0.289075 0
M  V30 35099 O 3664.39 1.69799 -0.550495 0
M  V30 35100 C 3661.49 3.19215 -1.13821 0
M  V30 35101 C 3660.66 3.68598 -2.35487 0
M  V30 35102 C 3659.72 4.8394 -2.06612 0
M  V30 35103 O 3658.75 4.95787 -2.79613 0
M  V30 35104 N 3659.95 5.70858 -1.05361 0
M  V30 35105 H 3662.71 1.85236 -2.35601 0
M  V30 35106 H 3660.27 0.882214 -1.35752 0
M  V30 35107 H 3662.27 3.93996 -0.92464 0
M  V30 35108 H 3660.84 3.11562 -0.254522 0
M  V30 35109 H 3660.06 2.84775 -2.72574 0
M  V30 35110 H 3661.34 3.9833 -3.1656 0
M  V30 35111 H 3660.74 5.63913 -0.449322 0
M  V30 35112 H 3659.3 6.45557 -0.899933 0
M  V30 35113 N 3662.73 1.26951 0.933869 0
M  V30 35114 C 3663.68 1.05805 2.01964 0
M  V30 35115 C 3664.67 -0.0119585 1.60896 0
M  V30 35116 O 3665.86 0.205858 1.75799 0
M  V30 35117 C 3662.99 0.700754 3.36072 0
M  V30 35118 C 3662.07 1.80859 3.83603 0
M  V30 35119 N 3662.46 3.04719 4.03707 0
M  V30 35120 C 3660.76 1.69386 4.12583 0
M  V30 35121 C 3661.46 3.7677 4.43192 0
M  V30 35122 N 3660.44 3.04498 4.50313 0
M  V30 35123 H 3664.24 1.9981 2.1553 0
M  V30 35124 H 3661.75 1.17576 1.12025 0
M  V30 35125 H 3663.75 0.530388 4.13512 0
M  V30 35126 H 3662.41 -0.231744 3.23872 0
M  V30 35127 H 3663.42 3.40547 3.9019 0
M  V30 35128 H 3660.1 0.831767 4.09131 0
M  V30 35129 H 3661.49 4.83192 4.66878 0
M  V30 35130 N 3664.21 -1.13949 1.08873 0
M  V30 35131 C 3665.16 -2.17228 0.692545 0
M  V30 35132 C 3666.14 -1.58261 -0.290237 0
M  V30 35133 O 3667.34 -1.76709 -0.1015 0
M  V30 35134 C 3664.46 -3.43128 0.108547 0
M  V30 35135 C 3663.55 -4.09115 1.1174 0
M  V30 35136 N 3663.94 -4.50353 2.30252 0
M  V30 35137 C 3662.24 -4.35672 0.954248 0
M  V30 35138 C 3662.94 -5.01711 2.94382 0
M  V30 35139 N 3661.92 -4.96217 2.21968 0
M  V30 35140 H 3665.72 -2.46858 1.59494 0
M  V30 35141 H 3663.23 -1.30684 0.964136 0
M  V30 35142 H 3665.23 -4.16452 -0.193272 0
M  V30 35143 H 3663.89 -3.14974 -0.788765 0
M  V30 35144 H 3664.9 -4.43239 2.67879 0
M  V30 35145 H 3661.58 -4.17352 0.111142 0
M  V30 35146 H 3662.97 -5.43458 3.95099 0
M  V30 35147 N 3665.69 -0.875096 -1.31072 0
M  V30 35148 C 3666.62 -0.291849 -2.27334 0
M  V30 35149 C 3667.63 0.548009 -1.53299 0
M  V30 35150 O 3668.82 0.369167 -1.74641 0
M  V30 35151 C 3665.92 0.604463 -3.33466 0
M  V30 35152 C 3665.09 -0.204106 -4.36924 0
M  V30 35153 C 3664.15 0.621146 -5.22521 0
M  V30 35154 O 3663.18 0.0473551 -5.6918 0
M  V30 35155 N 3664.38 1.93217 -5.47401 0
M  V30 35156 H 3667.15 -1.1191 -2.78022 0
M  V30 35157 H 3664.71 -0.737089 -1.44148 0
M  V30 35158 H 3666.7 1.16237 -3.87648 0
M  V30 35159 H 3665.27 1.33239 -2.82783 0
M  V30 35160 H 3664.49 -0.943456 -3.82743 0
M  V30 35161 H 3665.78 -0.758733 -5.03111 0
M  V30 35162 H 3665.18 2.42141 -5.11258 0
M  V30 35163 H 3663.73 2.43774 -6.04498 0
M  V30 35164 N 3667.17 1.44239 -0.635047 0
M  V30 35165 C 3668.13 2.29127 0.0578974 0
M  V30 35166 C 3669.13 1.41249 0.768464 0
M  V30 35167 O 3670.32 1.63078 0.612461 0
M  V30 35168 C 3667.45 3.22916 1.0926 0
M  V30 35169 H 3668.64 2.91883 -0.688775 0
M  V30 35170 H 3666.2 1.51217 -0.395374 0
M  V30 35171 H 3666.93 2.65017 1.86912 0
M  V30 35172 H 3666.72 3.87682 0.586968 0
M  V30 35173 H 3668.21 3.86675 1.57709 0
M  V30 35174 N 3668.64 0.375833 1.53053 0
M  V30 35175 C 3669.88 -0.210581 2.03312 0
M  V30 35176 C 3670.25 -1.45155 1.25674 0
M  V30 35177 O 3671.45 -2.11425 1.6599 0
M  V30 35178 C 3669.72 -0.4853 3.5409 0
M  V30 35179 S 3671.28 -1.04392 4.26202 0
M  V30 35180 H 3668.1 -0.0605089 0.708421 0
M  V30 35181 H 3670.7 0.52107 1.88428 0
M  V30 35182 H 3669.4 0.425202 4.08191 0
M  V30 35183 H 3668.93 -1.24574 3.73155 0
M  V30 35184 H 3670.95 -2.32739 4.38232 0
M  V30 35185 N 3670.12 -1.57248 0.105276 0
M  V30 35186 C 3671.37 -1.94717 -0.55602 0
M  V30 35187 C 3671.7 -0.987699 -1.67555 0
M  V30 35188 O 3670.95 -0.00909146 -1.95698 0
M  V30 35189 C 3671.25 -3.38673 -1.14172 0
M  V30 35190 C 3670.92 -4.50667 -0.144943 0
M  V30 35191 C 3669.58 -4.81027 0.129183 0
M  V30 35192 C 3671.93 -5.18446 0.535106 0
M  V30 35193 C 3669.26 -5.76488 1.08988 0
M  V30 35194 C 3671.61 -6.14939 1.48434 0
M  V30 35195 C 3670.28 -6.43699 1.76659 0
M  V30 35196 H 3669.55 -0.71252 -0.203462 0
M  V30 35197 H 3672.19 -1.90621 0.18327 0
M  V30 35198 H 3670.5 -3.39396 -1.95748 0
M  V30 35199 H 3672.19 -3.6497 -1.66126 0
M  V30 35200 H 3668.78 -4.2701 -0.368785 0
M  V30 35201 H 3672.97 -4.95158 0.336478 0
M  V30 35202 H 3668.22 -5.97081 1.31545 0
M  V30 35203 H 3672.4 -6.6655 2.01704 0
M  V30 35204 H 3670.03 -7.17477 2.51258 0
M  V30 35205 N 3671.6 0.168458 -1.56697 0
M  V30 35206 C 3672.88 0.912067 -1.73034 0
M  V30 35207 C 3673.26 2.0027 -0.667459 0
M  V30 35208 O 3672.61 2.26287 0.317268 0
M  V30 35209 C 3672.82 1.47419 -3.16337 0
M  V30 35210 C 3674.16 1.94599 -3.77381 0
M  V30 35211 O 3675.19 1.57206 -3.19632 0
M  V30 35212 O 3674.05 2.63489 -4.78786 0
M  V30 35213 H 3671.14 0.429505 -0.706721 0
M  V30 35214 H 3673.69 0.156063 -1.68981 0
M  V30 35215 H 3672.46 0.689354 -3.8518 0
M  V30 35216 H 3672.08 2.29429 -3.24727 0
M  V30 35217 N 3673.08 1.51417 0.437109 0
M  V30 35218 C 3674.03 1.73322 1.5512 0
M  V30 35219 C 3675.02 0.599539 1.58436 0
M  V30 35220 O 3676.23 0.780925 1.62178 0
M  V30 35221 H 3672.6 0.547641 0.515358 0
M  V30 35222 H 3674.57 2.66711 1.3382 0
M  V30 35223 C 3673.32 1.87559 2.92774 0
M  V30 35224 H 3672.64 2.74199 2.90955 0
M  V30 35225 H 3674.08 2.06898 3.70094 0
M  V30 35226 C 3672.54 0.635466 3.30853 0
M  V30 35227 O 3673.07 -0.20976 4.01152 0
M  V30 35228 N 3671.28 0.479491 2.86617 0
M  V30 35229 H 3670.83 1.16838 2.29579 0
M  V30 35230 H 3670.78 -0.349023 3.12457 0
M  V30 35231 N 3674.56 -0.692567 1.41567 0
M  V30 35232 C 3675.83 -1.44732 1.31575 0
M  V30 35233 C 3676.21 -2.11028 -0.055271 0
M  V30 35234 O 3675.56 -2.01915 -1.0697 0
M  V30 35235 C 3675.77 -2.4643 2.4713 0
M  V30 35236 C 3677.12 -3.11595 2.88433 0
M  V30 35237 O 3678.14 -2.56755 2.46891 0
M  V30 35238 O 3677 -4.10929 3.60278 0
M  V30 35239 H 3674.1 -0.644706 0.517961 0
M  V30 35240 H 3676.64 -0.722791 1.53538 0
M  V30 35241 H 3675.41 -1.96118 3.38605 0
M  V30 35242 H 3675.04 -3.26389 2.27059 0
M  V30 35243 N 3676.03 -1.27445 -0.927123 0
M  V30 35244 C 3676.94 -1.12035 -2.0612 0
M  V30 35245 C 3677.96 -0.0502284 -1.73927 0
M  V30 35246 O 3679.14 -0.256831 -1.99756 0
M  V30 35247 C 3676.2 -0.769693 -3.38048 0
M  V30 35248 C 3675.26 -1.92075 -3.83935 0
M  V30 35249 C 3674.5 -1.58673 -5.09567 0
M  V30 35250 O 3674.72 -0.494889 -5.68249 0
M  V30 35251 O 3673.65 -2.42609 -5.5084 0
M  V30 35252 H 3677.48 -2.07207 -2.22034 0
M  V30 35253 H 3675.06 -1.06638 -1.04636 0
M  V30 35254 H 3676.95 -0.587496 -4.17285 0
M  V30 35255 H 3675.62 0.1525 -3.23341 0
M  V30 35256 H 3674.53 -2.15801 -3.05583 0
M  V30 35257 H 3675.86 -2.82317 -4.03185 0
M  V30 35258 N 3677.51 1.1337 -1.09476 0
M  V30 35259 C 3678.75 1.86307 -0.840786 0
M  V30 35260 C 3679.12 1.81636 0.622295 0
M  V30 35261 O 3680.32 2.49817 0.992221 0
M  V30 35262 C 3678.59 3.30436 -1.36186 0
M  V30 35263 S 3680.15 4.20861 -1.24183 0
M  V30 35264 H 3676.97 0.642694 -0.304082 0
M  V30 35265 H 3679.57 1.36636 -1.39824 0
M  V30 35266 H 3678.27 3.3139 -2.42092 0
M  V30 35267 H 3677.8 3.85168 -0.800553 0
M  V30 35268 H 3679.82 4.95824 -0.193108 0
M  V30 35269 N 3678.99 0.882035 1.30606 0
M  V30 35270 C 3680.22 0.513083 2.00953 0
M  V30 35271 C 3680.64 -0.89025 1.65699 0
M  V30 35272 O 3680 -1.58951 0.872029 0
M  V30 35273 C 3680.05 0.691587 3.53906 0
M  V30 35274 O 3679.15 -0.263823 4.11555 0
M  V30 35275 H 3678.49 0.202549 0.632353 0
M  V30 35276 H 3681.02 1.18877 1.66521 0
M  V30 35277 H 3681.03 0.589463 4.03719 0
M  V30 35278 H 3679.71 1.71478 3.78904 0
M  V30 35279 H 3678.28 -0.115642 3.72721 0
M  V30 35280 N 3680.47 -1.439 0.642688 0
M  V30 35281 C 3681.43 -2.29154 -0.0457455 0
M  V30 35282 C 3682.43 -1.41654 -0.760963 0
M  V30 35283 O 3683.62 -1.63401 -0.603804 0
M  V30 35284 C 3680.75 -3.23491 -1.07546 0
M  V30 35285 H 3681.95 -2.91514 0.704244 0
M  V30 35286 H 3679.5 -1.51005 0.403387 0
M  V30 35287 H 3680.23 -2.66005 -1.85504 0
M  V30 35288 H 3680.02 -3.87988 -0.5664 0
M  V30 35289 H 3681.51 -3.87506 -1.55656 0
M  V30 35290 N 3681.95 -0.383945 -1.52852 0
M  V30 35291 C 3682.88 0.488777 -2.23928 0
M  V30 35292 C 3683.89 1.03113 -1.25982 0
M  V30 35293 O 3685.08 0.934372 -1.52091 0
M  V30 35294 C 3682.18 1.68952 -2.93783 0
M  V30 35295 C 3681.35 1.27548 -4.1839 0
M  V30 35296 C 3680.41 2.34032 -4.71292 0
M  V30 35297 O 3679.44 1.95661 -5.34514 0
M  V30 35298 N 3680.64 3.65873 -4.50685 0
M  V30 35299 H 3683.41 -0.120136 -2.99459 0
M  V30 35300 H 3680.97 -0.210032 -1.60532 0
M  V30 35301 H 3682.96 2.39702 -3.26075 0
M  V30 35302 H 3681.53 2.2049 -2.21592 0
M  V30 35303 H 3680.75 0.397088 -3.92195 0
M  V30 35304 H 3682.04 0.975418 -4.99363 0
M  V30 35305 H 3681.44 3.99812 -4.00208 0
M  V30 35306 H 3679.99 4.32672 -4.87481 0
M  V30 35307 N 3683.43 1.5719 -0.113614 0
M  V30 35308 C 3684.84 1.82083 0.412621 0
M  V30 35309 C 3685.19 1.03044 1.66962 0
M  V30 35310 O 3684.31 0.265392 2.14766 0
M  V30 35311 C 3684.91 3.30272 0.75538 0
M  V30 35312 C 3683.47 3.55864 1.22627 0
M  V30 35313 C 3682.61 2.76326 0.232237 0
M  V30 35314 H 3685.56 1.55041 -0.338819 0
M  V30 35315 H 3685.59 3.44606 1.61329 0
M  V30 35316 H 3685.1 3.87771 -0.159668 0
M  V30 35317 H 3683.2 3.03716 2.1584 0
M  V30 35318 H 3683.31 4.6446 1.17532 0
M  V30 35319 H 3681.68 2.44365 0.718179 0
M  V30 35320 H 3682.46 3.36582 -0.675815 0
M  V30 35321 N 3684.9 -0.160146 1.56784 0
M  V30 35322 C 3686.15 -0.873221 1.82262 0
M  V30 35323 C 3686.47 -1.82293 0.692416 0
M  V30 35324 O 3685.74 -1.93787 -0.286927 0
M  V30 35325 H 3684.32 -0.325451 0.672377 0
M  V30 35326 H 3686.98 -0.157291 1.94264 0
M  V30 35327 H 3686.08 -1.4434 2.76717 0
M  V30 35328 N 3686.38 -1.51647 -0.429072 0
M  V30 35329 C 3687.79 -1.57109 -1.00865 0
M  V30 35330 C 3688.14 -0.399517 -1.92089 0
M  V30 35331 O 3687.27 0.482672 -2.10948 0
M  V30 35332 C 3687.86 -2.84735 -1.83607 0
M  V30 35333 C 3686.42 -2.92741 -2.366 0
M  V30 35334 C 3685.57 -2.51855 -1.16035 0
M  V30 35335 H 3688.52 -1.57304 -0.210032 0
M  V30 35336 H 3688.54 -2.68964 -2.69145 0
M  V30 35337 H 3688.05 -3.69985 -1.17186 0
M  V30 35338 H 3686.15 -2.1194 -3.06451 0
M  V30 35339 H 3686.27 -3.96569 -2.68831 0
M  V30 35340 H 3684.63 -2.05243 -1.50823 0
M  V30 35341 H 3685.41 -3.39459 -0.512121 0
M  V30 35342 N 3687.86 0.685049 -1.41932 0
M  V30 35343 C 3689.1 1.45724 -1.43331 0
M  V30 35344 C 3689.46 1.91949 -0.0443824 0
M  V30 35345 O 3690.66 2.68717 0.0668762 0
M  V30 35346 C 3688.94 2.62934 -2.42075 0
M  V30 35347 S 3690.49 3.51929 -2.62091 0
M  V30 35348 H 3687.31 0.497843 -0.507616 0
M  V30 35349 H 3689.91 0.798383 -1.78455 0
M  V30 35350 H 3688.62 2.27197 -3.41775 0
M  V30 35351 H 3688.15 3.33703 -2.08341 0
M  V30 35352 H 3690.16 4.58539 -1.89621 0
M  V30 35353 N 3689.34 1.27935 0.920351 0
M  V30 35354 C 3690.59 1.14477 1.66552 0
M  V30 35355 C 3690.91 -0.30841 1.92546 0
M  V30 35356 O 3690.18 -1.21471 1.53693 0
M  V30 35357 H 3688.76 0.420662 0.617295 0
M  V30 35358 H 3691.42 1.60569 1.1047 0
M  V30 35359 H 3690.51 1.67939 2.63064 0
M  V30 35360 N 3690.82 -1.12788 1.10076 0
M  V30 35361 C 3691.78 -2.16592 0.749708 0
M  V30 35362 C 3692.78 -1.59232 -0.224018 0
M  V30 35363 O 3693.97 -1.742 -0.00134042 0
M  V30 35364 C 3691.1 -3.40723 0.109855 0
M  V30 35365 H 3692.29 -2.49161 1.6691 0
M  V30 35366 H 3689.85 -1.27731 0.900804 0
M  V30 35367 H 3690.58 -3.1375 -0.820446 0
M  V30 35368 H 3690.37 -3.8363 0.810584 0
M  V30 35369 H 3691.86 -4.17427 -0.120125 0
M  V30 35370 N 3692.29 -0.888949 -1.30136 0
M  V30 35371 C 3693.24 -0.33009 -2.25598 0
M  V30 35372 C 3694.23 0.543724 -1.51435 0
M  V30 35373 O 3695.42 0.387498 -1.72706 0
M  V30 35374 C 3692.55 0.450865 -3.40326 0
M  V30 35375 C 3691.63 -0.437261 -4.2184 0
M  V30 35376 N 3692.03 -1.53955 -4.818 0
M  V30 35377 C 3690.32 -0.233093 -4.4539 0
M  V30 35378 C 3691.02 -2.08879 -5.42904 0
M  V30 35379 N 3690 -1.38323 -5.25707 0
M  V30 35380 H 3693.8 -1.17229 -2.69508 0
M  V30 35381 H 3691.32 -0.738797 -1.44622 0
M  V30 35382 H 3693.31 0.8679 -4.07766 0
M  V30 35383 H 3691.97 1.29045 -2.97955 0
M  V30 35384 H 3692.98 -1.92238 -4.809 0
M  V30 35385 H 3689.66 0.569001 -4.13604 0
M  V30 35386 H 3691.05 -3.01468 -6.00472 0
M  V30 35387 N 3693.77 1.43557 -0.65031 0
M  V30 35388 C 3695.02 2.01448 -0.162199 0
M  V30 35389 C 3695.34 1.51546 1.22714 0
M  V30 35390 O 3694.61 0.726887 1.81915 0
M  V30 35391 H 3693.19 0.744824 -0.056973 0
M  V30 35392 H 3695.85 1.75806 -0.841325 0
M  V30 35393 H 3694.95 3.11765 -0.144585 0
M  V30 35394 N 3695.25 0.392045 1.52646 0
M  V30 35395 C 3696.2 -0.458775 2.23337 0
M  V30 35396 C 3697.18 -1.02741 1.23827 0
M  V30 35397 O 3698.38 -0.953062 1.4915 0
M  V30 35398 C 3695.5 -1.58407 3.04569 0
M  V30 35399 C 3694.59 -1.02704 4.11476 0
M  V30 35400 N 3694.98 -0.195193 5.05423 0
M  V30 35401 C 3693.28 -1.29926 4.26656 0
M  V30 35402 C 3693.98 0.11284 5.81591 0
M  V30 35403 N 3692.96 -0.491831 5.4137 0
M  V30 35404 H 3696.76 0.183273 2.93328 0
M  V30 35405 H 3694.27 0.201504 1.61145 0
M  V30 35406 H 3696.27 -2.20603 3.53751 0
M  V30 35407 H 3694.93 -2.22891 2.36113 0
M  V30 35408 H 3695.94 0.167768 5.17628 0
M  V30 35409 H 3692.62 -1.94494 3.6943 0
M  V30 35410 H 3694.01 0.786997 6.67275 0
M  V30 35411 N 3696.73 -1.57127 0.121948 0
M  V30 35412 C 3697.97 -1.97182 -0.538388 0
M  V30 35413 C 3698.33 -1.00397 -1.63659 0
M  V30 35414 O 3699.53 -1.29401 -2.35603 0
M  V30 35415 C 3697.8 -3.41485 -1.05463 0
M  V30 35416 S 3699.36 -4.03553 -1.72308 0
M  V30 35417 H 3696.18 -0.689152 -0.174901 0
M  V30 35418 H 3698.78 -1.94393 0.207728 0
M  V30 35419 H 3697.49 -4.09673 -0.244225 0
M  V30 35420 H 3697.02 -3.47931 -1.83596 0
M  V30 35421 H 3699.03 -3.94553 -3.00903 0
M  V30 35422 N 3698.21 0.151829 -1.56867 0
M  V30 35423 C 3699.16 1.19267 -1.94317 0
M  V30 35424 C 3700.14 1.38801 -0.813831 0
M  V30 35425 O 3701.33 1.40444 -1.07724 0
M  V30 35426 C 3698.46 2.52749 -2.32321 0
M  V30 35427 C 3697.55 2.36829 -3.51814 0
M  V30 35428 N 3697.94 1.90655 -4.68492 0
M  V30 35429 C 3696.24 2.67595 -3.56804 0
M  V30 35430 C 3696.94 1.87663 -5.50597 0
M  V30 35431 N 3695.91 2.30797 -4.92173 0
M  V30 35432 H 3699.72 0.827698 -2.82004 0
M  V30 35433 H 3697.23 0.35993 -1.58361 0
M  V30 35434 H 3699.23 3.27986 -2.57353 0
M  V30 35435 H 3697.89 2.90033 -1.45983 0
M  V30 35436 H 3698.9 1.60694 -4.92339 0
M  V30 35437 H 3695.57 3.08786 -2.80993 0
M  V30 35438 H 3696.96 1.53497 -6.54132 0
M  V30 35439 N 3699.68 1.51872 0.421024 0
M  V30 35440 C 3700.63 1.74957 1.53273 0
M  V30 35441 C 3701.63 0.61631 1.57791 0
M  V30 35442 O 3702.83 0.798082 1.6134 0
M  V30 35443 H 3699.21 0.553076 0.50952 0
M  V30 35444 H 3701.18 2.68116 1.30983 0
M  V30 35445 C 3699.93 1.90654 2.90769 0
M  V30 35446 H 3699.25 2.7727 2.88031 0
M  V30 35447 H 3700.69 2.10811 3.67878 0
M  V30 35448 C 3699.15 0.670521 3.3016 0
M  V30 35449 O 3699.68 -0.1672 4.01352 0
M  V30 35450 N 3697.89 0.509863 2.86092 0
M  V30 35451 H 3697.43 1.19266 2.28327 0
M  V30 35452 H 3697.39 -0.315863 3.12809 0
M  V30 35453 N 3701.16 -0.677513 1.42294 0
M  V30 35454 C 3702.39 -1.46589 1.46011 0
M  V30 35455 C 3702.81 -1.88668 0.0706346 0
M  V30 35456 O 3702.16 -1.5796 -0.914049 0
M  V30 35457 C 3702.21 -2.71677 2.38482 0
M  V30 35458 O 3701.93 -2.31366 3.72024 0
M  V30 35459 C 3703.44 -3.65264 2.51191 0
M  V30 35460 H 3700.66 -0.451145 0.496698 0
M  V30 35461 H 3703.2 -0.832703 1.86779 0
M  V30 35462 H 3701.35 -3.31192 2.00975 0
M  V30 35463 H 3701.77 -3.12124 4.2152 0
M  V30 35464 H 3703.24 -4.49767 3.20022 0
M  V30 35465 H 3703.72 -4.10981 1.54892 0
M  V30 35466 H 3704.33 -3.11645 2.89409 0
M  V30 35467 N 3702.64 -1.28421 -0.913554 0
M  V30 35468 C 3704.05 -1.14097 -1.4778 0
M  V30 35469 C 3704.4 0.26897 -1.94348 0
M  V30 35470 O 3703.53 1.16325 -1.82476 0
M  V30 35471 C 3704.12 -2.06511 -2.68586 0
M  V30 35472 C 3702.68 -1.96251 -3.21189 0
M  V30 35473 C 3701.83 -1.98241 -1.93896 0
M  V30 35474 H 3704.78 -1.41108 -0.726246 0
M  V30 35475 H 3704.8 -1.62922 -3.43855 0
M  V30 35476 H 3704.31 -3.0912 -2.34662 0
M  V30 35477 H 3702.41 -0.9668 -3.59838 0
M  V30 35478 H 3702.53 -2.83217 -3.86426 0
M  V30 35479 H 3700.89 -1.42651 -2.11004 0
M  V30 35480 H 3701.67 -3.02529 -1.62268 0
M  V30 35481 N 3704.12 1.12202 -1.10672 0
M  V30 35482 C 3705.37 1.83403 -0.848982 0
M  V30 35483 C 3705.69 1.84638 0.627208 0
M  V30 35484 O 3704.96 1.31125 1.45544 0
M  V30 35485 H 3703.54 0.679143 -0.311086 0
M  V30 35486 H 3706.2 1.35853 -1.39749 0
M  V30 35487 H 3705.3 2.8752 -1.21403 0
M  V30 35488 N 3705.6 0.895838 1.29663 0
M  V30 35489 C 3706.82 0.534368 2.00398 0
M  V30 35490 C 3707.25 -0.872625 1.66634 0
M  V30 35491 O 3706.6 -1.58017 0.888839 0
M  V30 35492 C 3706.65 0.729085 3.53153 0
M  V30 35493 O 3705.76 -0.220158 4.11812 0
M  V30 35494 H 3705.1 0.209244 0.630169 0
M  V30 35495 H 3707.63 1.20637 1.65251 0
M  V30 35496 H 3707.64 0.63225 4.03071 0
M  V30 35497 H 3706.31 1.75487 3.77064 0
M  V30 35498 H 3704.89 -0.0761031 3.72822 0
M  V30 35499 N 3707.07 -1.43211 0.657914 0
M  V30 35500 C 3708.32 -2.01758 0.173222 0
M  V30 35501 C 3708.65 -1.51926 -1.21444 0
M  V30 35502 O 3707.9 -0.704839 -1.82566 0
M  V30 35503 C 3708.2 -3.57133 0.138088 0
M  V30 35504 C 3707.87 -4.26329 1.46813 0
M  V30 35505 C 3706.53 -4.44948 1.83234 0
M  V30 35506 C 3708.88 -4.65474 2.34485 0
M  V30 35507 C 3706.21 -4.99978 3.06984 0
M  V30 35508 C 3708.56 -5.21876 3.5753 0
M  V30 35509 C 3707.23 -5.3871 3.94142 0
M  V30 35510 H 3706.5 -0.738284 0.0633865 0
M  V30 35511 H 3709.14 -1.71624 0.849554 0
M  V30 35512 H 3707.45 -3.86836 -0.621708 0
M  V30 35513 H 3709.15 -4.00196 -0.253878 0
M  V30 35514 H 3705.74 -4.12186 1.17476 0
M  V30 35515 H 3709.92 -4.50778 2.07635 0
M  V30 35516 H 3705.18 -5.11197 3.35392 0
M  V30 35517 H 3709.35 -5.51154 4.25679 0
M  V30 35518 H 3706.98 -5.81116 4.9011 0
M  V30 35519 N 3708.55 -0.400135 -1.52436 0
M  V30 35520 C 3709.97 -0.0505892 -1.5952 0
M  V30 35521 C 3710.17 1.43603 -1.41352 0
M  V30 35522 O 3709.22 2.20183 -1.23595 0
M  V30 35523 C 3710.54 -0.537463 -2.95858 0
M  V30 35524 C 3712.09 -0.494657 -3.09067 0
M  V30 35525 C 3712.56 -0.957894 -4.47871 0
M  V30 35526 N 3714.05 -0.914347 -4.54086 0
M  V30 35527 C 3714.79 -1.24407 -5.59741 0
M  V30 35528 N 3714.28 -1.6448 -6.72992 0
M  V30 35529 N 3716.08 -1.16462 -5.49903 0
M  V30 35530 H 3708.23 -1.36784 -1.62493 0
M  V30 35531 H 3710.49 -0.561342 -0.763937 0
M  V30 35532 H 3710.2 -1.57617 -3.14404 0
M  V30 35533 H 3710.07 0.0576989 -3.77156 0
M  V30 35534 H 3712.46 0.534984 -2.9021 0
M  V30 35535 H 3712.54 -1.12576 -2.29696 0
M  V30 35536 H 3712.18 -1.98582 -4.67469 0
M  V30 35537 H 3712.11 -0.303694 -5.25724 0
M  V30 35538 H 3714.6 -0.619602 -3.72786 0
M  V30 35539 H 3714.92 -1.87974 -7.4959 0
M  V30 35540 H 3713.26 -1.68376 -6.74296 0
M  V30 35541 H 3716.45 -0.850482 -4.60309 0
M  V30 35542 H 3716.62 -1.42489 -6.3214 0
M  V30 35543 N 3710.03 1.57061 -0.13028 0
M  V30 35544 C 3711.27 1.97465 0.527923 0
M  V30 35545 C 3711.63 1.01264 1.63125 0
M  V30 35546 O 3712.84 1.30648 2.34914 0
M  V30 35547 C 3711.11 3.4204 1.03651 0
M  V30 35548 S 3712.67 4.04462 1.70166 0
M  V30 35549 H 3709.48 0.69007 0.171244 0
M  V30 35550 H 3712.09 1.9428 -0.218035 0
M  V30 35551 H 3710.79 4.09796 0.222495 0
M  V30 35552 H 3710.32 3.489 1.81748 0
M  V30 35553 H 3712.34 3.96143 2.98806 0
M  V30 35554 N 3711.51 -0.143508 1.56945 0
M  V30 35555 C 3712.42 -1.19646 2.01797 0
M  V30 35556 C 3713.44 -1.46808 0.933991 0
M  V30 35557 O 3714.61 -1.58409 1.24373 0
M  V30 35558 C 3711.68 -2.50915 2.39254 0
M  V30 35559 C 3710.74 -2.31369 3.61617 0
M  V30 35560 C 3709.97 -3.56379 3.97278 0
M  V30 35561 O 3710.19 -4.62703 3.3356 0
M  V30 35562 O 3709.13 -3.48835 4.90508 0
M  V30 35563 H 3712.95 -0.845666 2.91688 0
M  V30 35564 H 3710.54 -0.352493 1.45182 0
M  V30 35565 H 3712.42 -3.28301 2.6419 0
M  V30 35566 H 3711.1 -2.85518 1.52516 0
M  V30 35567 H 3710 -1.51923 3.41863 0
M  V30 35568 H 3711.34 -2.01681 4.48983 0
M  V30 35569 N 3712.99 -1.52093 -0.412964 0
M  V30 35570 C 3714.23 -1.67638 -1.16948 0
M  V30 35571 C 3714.59 -0.395863 -1.87875 0
M  V30 35572 O 3715.79 -0.427367 -2.65381 0
M  V30 35573 C 3714.06 -2.86214 -2.14047 0
M  V30 35574 S 3715.62 -3.22221 -2.97858 0
M  V30 35575 H 3712.44 -0.590352 -0.396239 0
M  V30 35576 H 3715.04 -1.90075 -0.457353 0
M  V30 35577 H 3713.75 -3.77662 -1.60621 0
M  V30 35578 H 3713.28 -2.66039 -2.89805 0
M  V30 35579 H 3715.29 -2.70545 -4.15957 0
M  V30 35580 N 3714.47 0.669957 -1.42651 0
M  V30 35581 C 3715.42 1.77612 -1.42961 0
M  V30 35582 C 3716.4 1.58073 -0.300278 0
M  V30 35583 O 3717.59 1.6847 -0.54286 0
M  V30 35584 C 3714.72 3.16103 -1.33916 0
M  V30 35585 C 3713.81 3.41249 -2.51814 0
M  V30 35586 N 3714.2 3.36953 -3.77222 0
M  V30 35587 C 3712.5 3.71903 -2.46178 0
M  V30 35588 C 3713.2 3.61716 -4.55562 0
M  V30 35589 N 3712.17 3.82717 -3.86043 0
M  V30 35590 H 3715.97 1.72691 -2.37813 0
M  V30 35591 H 3713.49 0.870985 -1.37068 0
M  V30 35592 H 3715.49 3.95377 -1.3222 0
M  V30 35593 H 3714.15 3.22218 -0.400709 0
M  V30 35594 H 3715.16 3.16744 -4.09748 0
M  V30 35595 H 3711.83 3.85235 -1.60937 0
M  V30 35596 H 3713.22 3.64315 -5.64557 0
M  V30 35597 N 3715.94 1.28904 0.90673 0
M  V30 35598 C 3716.88 1.09236 2.01495 0
M  V30 35599 C 3717.89 0.0419664 1.62746 0
M  V30 35600 O 3719.08 0.285759 1.76198 0
M  V30 35601 C 3716.18 0.639313 3.32815 0
M  V30 35602 C 3715.35 1.76668 4.00134 0
M  V30 35603 C 3714.41 1.30582 5.0974 0
M  V30 35604 O 3713.44 2.0093 5.32556 0
M  V30 35605 N 3714.64 0.172852 5.80243 0
M  V30 35606 H 3717.4 2.04677 2.18923 0
M  V30 35607 H 3714.96 1.2075 1.07847 0
M  V30 35608 H 3716.96 0.314461 4.03476 0
M  V30 35609 H 3715.53 -0.222443 3.11808 0
M  V30 35610 H 3714.75 2.26077 3.22929 0
M  V30 35611 H 3716.03 2.52274 4.41854 0
M  V30 35612 H 3715.43 -0.413831 5.64184 0
M  V30 35613 H 3713.99 -0.092678 6.51734 0
M  V30 35614 N 3717.42 -1.11614 1.11266 0
M  V30 35615 C 3718.67 -1.8295 0.858697 0
M  V30 35616 C 3718.99 -1.84968 -0.617407 0
M  V30 35617 O 3718.26 -1.31895 -1.44846 0
M  V30 35618 H 3716.84 -0.677483 0.314683 0
M  V30 35619 H 3719.5 -1.3511 1.40468 0
M  V30 35620 H 3718.6 -2.86872 1.22927 0
M  V30 35621 N 3718.9 -0.902701 -1.29186 0
M  V30 35622 C 3720.15 -0.530158 -1.95437 0
M  V30 35623 C 3720.47 0.924119 -1.71144 0
M  V30 35624 O 3719.73 1.67075 -1.01904 0
M  V30 35625 C 3720.03 -0.772603 -3.48949 0
M  V30 35626 C 3719.69 -2.20471 -3.93324 0
M  V30 35627 C 3718.36 -2.59628 -4.0515 0
M  V30 35628 C 3720.71 -3.13717 -4.16211 0
M  V30 35629 C 3718.04 -3.91206 -4.37236 0
M  V30 35630 C 3720.39 -4.44847 -4.49771 0
M  V30 35631 C 3719.05 -4.83873 -4.59808 0
M  V30 35632 H 3718.32 -0.193999 -0.715154 0
M  V30 35633 H 3720.97 -1.14193 -1.53728 0
M  V30 35634 H 3719.27 -0.0779372 -3.91722 0
M  V30 35635 H 3720.97 -0.463693 -3.9831 0
M  V30 35636 H 3717.56 -1.89082 -3.84637 0
M  V30 35637 H 3721.75 -2.84677 -4.06537 0
M  V30 35638 H 3717 -4.21159 -4.4321 0
M  V30 35639 H 3721.18 -5.17123 -4.6643 0
M  V30 35640 H 3718.8 -5.85864 -4.84425 0
M  V30 35641 N 3720.38 1.4286 -0.6655 0
M  V30 35642 C 3721.61 2.06007 -0.192036 0
M  V30 35643 C 3722.02 1.49951 1.14717 0
M  V30 35644 O 3721.38 0.635629 1.71073 0
M  V30 35645 C 3721.43 3.61338 -0.108252 0
M  V30 35646 O 3721.15 4.15312 -1.39453 0
M  V30 35647 C 3722.65 4.41583 0.389823 0
M  V30 35648 H 3719.87 0.664156 -0.0955929 0
M  V30 35649 H 3722.41 1.83156 -0.909614 0
M  V30 35650 H 3720.57 3.83332 0.559956 0
M  V30 35651 H 3720.98 5.09097 -1.26177 0
M  V30 35652 H 3722.46 5.50568 0.397374 0
M  V30 35653 H 3722.93 4.15495 1.42341 0
M  V30 35654 H 3723.54 4.24586 -0.246322 0
M  V30 35655 N 3721.86 0.408213 1.52221 0
M  V30 35656 C 3722.79 -0.408828 2.29893 0
M  V30 35657 C 3723.77 -1.04693 1.34065 0
M  V30 35658 O 3724.95 -1.05612 1.62972 0
M  V30 35659 C 3722.08 -1.52623 3.11967 0
M  V30 35660 C 3721.04 -1.01318 4.15835 0
M  V30 35661 C 3720.36 -2.22412 4.86248 0
M  V30 35662 C 3721.66 -0.0678655 5.22256 0
M  V30 35663 H 3723.36 0.239283 2.98442 0
M  V30 35664 H 3720.9 0.116521 1.43528 0
M  V30 35665 H 3722.85 -2.10479 3.6507 0
M  V30 35666 H 3721.58 -2.20221 2.41185 0
M  V30 35667 H 3720.24 -0.457036 3.6374 0
M  V30 35668 H 3719.89 -2.88562 4.11996 0
M  V30 35669 H 3719.59 -1.88736 5.56464 0
M  V30 35670 H 3721.11 -2.80875 5.42164 0
M  V30 35671 H 3722.52 -0.555195 5.70605 0
M  V30 35672 H 3720.92 0.180039 5.9983 0
M  V30 35673 H 3721.99 0.877683 4.76891 0
M  V30 35674 N 3723.33 -1.56989 0.138607 0
M  V30 35675 C 3724.58 -1.96143 -0.515355 0
M  V30 35676 C 3724.91 -1.02309 -1.65065 0
M  V30 35677 O 3724.19 -0.0638987 -1.94395 0
M  V30 35678 C 3724.47 -3.4507 -1.0295 0
M  V30 35679 C 3724.32 -4.4968 0.103725 0
M  V30 35680 C 3725.64 -3.96299 -1.91404 0
M  V30 35681 H 3722.76 -0.713179 -0.18586 0
M  V30 35682 H 3725.4 -1.88744 0.218136 0
M  V30 35683 H 3723.55 -3.51506 -1.65456 0
M  V30 35684 H 3725.23 -4.5533 0.739773 0
M  V30 35685 H 3723.47 -4.27018 0.764089 0
M  V30 35686 H 3724.14 -5.51197 -0.297591 0
M  V30 35687 H 3726.62 -3.92289 -1.3874 0
M  V30 35688 H 3725.49 -5.00984 -2.2429 0
M  V30 35689 H 3725.75 -3.38154 -2.84788 0
M  V30 35690 N 3724.81 0.135183 -1.57019 0
M  V30 35691 C 3726.04 0.864366 -1.8853 0
M  V30 35692 C 3726.46 1.73404 -0.728882 0
M  V30 35693 O 3725.82 1.78433 0.321164 0
M  V30 35694 C 3725.87 1.68715 -3.18697 0
M  V30 35695 O 3724.97 2.79256 -3.03463 0
M  V30 35696 H 3724.31 0.240039 -0.619094 0
M  V30 35697 H 3726.84 0.122444 -2.04233 0
M  V30 35698 H 3726.85 2.07973 -3.51014 0
M  V30 35699 H 3725.53 1.04861 -4.02464 0
M  V30 35700 H 3724.1 2.43318 -2.82579 0
M  V30 35701 N 3726.29 1.5231 0.404892 0
M  V30 35702 C 3727.52 1.70725 1.17761 0
M  V30 35703 C 3727.94 0.417777 1.83402 0
M  V30 35704 O 3727.3 -0.625127 1.70182 0
M  V30 35705 C 3727.35 2.84689 2.21325 0
M  V30 35706 O 3726.45 2.50553 3.27562 0
M  V30 35707 H 3725.79 0.568209 0.343562 0
M  V30 35708 H 3728.32 1.99032 0.474058 0
M  V30 35709 H 3728.33 3.09724 2.65584 0
M  V30 35710 H 3727.01 3.78242 1.72932 0
M  V30 35711 H 3725.58 2.36204 2.88552 0
M  V30 35712 N 3727.77 -0.662382 1.43004 0
M  V30 35713 C 3729.02 -1.41956 1.43851 0
M  V30 35714 C 3729.34 -1.94906 0.0604943 0
M  V30 35715 O 3728.61 -1.73855 -0.902839 0
M  V30 35716 H 3727.19 -0.526818 0.529596 0
M  V30 35717 H 3729.85 -0.781835 1.78531 0
M  V30 35718 H 3728.95 -2.26645 2.14566 0
M  V30 35719 N 3729.25 -1.29383 -0.899882 0
M  V30 35720 C 3730.2 -1.11122 -1.99088 0
M  V30 35721 C 3731.18 -0.0307043 -1.60871 0
M  V30 35722 O 3732.37 -0.252395 -1.75191 0
M  V30 35723 C 3729.5 -0.789611 -3.34096 0
M  V30 35724 C 3728.59 -1.90966 -3.78673 0
M  V30 35725 N 3728.98 -3.15316 -3.95486 0
M  V30 35726 C 3727.28 -1.80265 -4.07947 0
M  V30 35727 C 3727.98 -3.88388 -4.33047 0
M  V30 35728 N 3726.95 -3.1633 -4.42082 0
M  V30 35729 H 3730.76 -2.05454 -2.10157 0
M  V30 35730 H 3728.27 -1.20505 -1.08869 0
M  V30 35731 H 3730.27 -0.639837 -4.11961 0
M  V30 35732 H 3728.93 0.145793 -3.24373 0
M  V30 35733 H 3729.94 -3.50773 -3.81023 0
M  V30 35734 H 3726.61 -0.939948 -4.06782 0
M  V30 35735 H 3728 -4.95401 -4.53903 0
M  V30 35736 N 3730.72 1.11022 -1.11856 0
M  V30 35737 C 3731.97 1.82492 -0.868387 0
M  V30 35738 C 3732.29 1.85293 0.607589 0
M  V30 35739 O 3731.56 1.32661 1.44145 0
M  V30 35740 H 3730.14 0.675805 -0.318272 0
M  V30 35741 H 3732.81 1.34363 -1.41182 0
M  V30 35742 H 3731.9 2.86216 -1.24446 0
M  V30 35743 N 3732.2 0.90954 1.28706 0
M  V30 35744 C 3733.44 0.547556 1.96929 0
M  V30 35745 C 3733.81 -0.891387 1.70054 0
M  V30 35746 O 3735.01 -1.36074 2.31813 0
M  V30 35747 C 3733.28 0.843287 3.47309 0
M  V30 35748 S 3734.84 0.587089 4.34855 0
M  V30 35749 H 3731.66 0.202765 0.681475 0
M  V30 35750 H 3734.26 1.17409 1.56318 0
M  V30 35751 H 3732.96 1.88857 3.64364 0
M  V30 35752 H 3732.49 0.205248 3.92864 0
M  V30 35753 H 3734.51 -0.563474 4.9299 0
M  V30 35754 N 3733.68 -1.42505 0.673067 0
M  V30 35755 C 3734.59 -2.34599 -0.00644449 0
M  V30 35756 C 3735.61 -1.54995 -0.790731 0
M  V30 35757 O 3736.78 -1.8757 -0.733449 0
M  V30 35758 C 3733.85 -3.33508 -0.947281 0
M  V30 35759 C 3732.91 -4.2901 -0.157719 0
M  V30 35760 C 3732.14 -5.23194 -1.05374 0
M  V30 35761 O 3732.36 -5.2227 -2.29325 0
M  V30 35762 O 3731.3 -5.99689 -0.515479 0
M  V30 35763 H 3735.12 -2.9424 0.75211 0
M  V30 35764 H 3732.71 -1.42979 0.433297 0
M  V30 35765 H 3734.59 -3.94276 -1.48743 0
M  V30 35766 H 3733.27 -2.76343 -1.68572 0
M  V30 35767 H 3732.17 -3.71661 0.426491 0
M  V30 35768 H 3733.51 -4.89212 0.541566 0
M  V30 35769 N 3735.16 -0.41628 -1.52003 0
M  V30 35770 C 3736.44 0.216069 -1.94403 0
M  V30 35771 C 3736.82 1.61987 -1.35365 0
M  V30 35772 O 3736.16 2.22214 -0.532281 0
M  V30 35773 C 3736.37 0.215164 -3.48336 0
M  V30 35774 C 3737.72 0.431035 -4.22406 0
M  V30 35775 O 3738.75 0.294209 -3.54983 0
M  V30 35776 O 3737.6 0.701355 -5.41981 0
M  V30 35777 H 3734.7 0.141292 -0.814841 0
M  V30 35778 H 3737.24 -0.472741 -1.62982 0
M  V30 35779 H 3736.02 -0.767072 -3.83708 0
M  V30 35780 H 3735.64 0.947773 -3.86139 0
M  V30 35781 N 3736.64 1.56914 -0.146931 0
M  V30 35782 C 3737.88 1.96413 0.504946 0
M  V30 35783 C 3738.22 1.03183 1.6452 0
M  V30 35784 O 3737.49 0.074207 1.94358 0
M  V30 35785 C 3737.77 3.45611 1.01118 0
M  V30 35786 C 3737.63 4.49619 -0.127572 0
M  V30 35787 C 3738.95 3.97308 1.89299 0
M  V30 35788 H 3736.06 0.714155 0.182076 0
M  V30 35789 H 3738.71 1.88625 -0.228143 0
M  V30 35790 H 3736.86 3.52379 1.63589 0
M  V30 35791 H 3738.53 4.54931 -0.763909 0
M  V30 35792 H 3736.77 4.26606 -0.786724 0
M  V30 35793 H 3737.44 5.51347 0.268356 0
M  V30 35794 H 3739.92 3.93019 1.36657 0
M  V30 35795 H 3738.79 5.02167 2.2163 0
M  V30 35796 H 3739.06 3.3966 2.8299 0
M  V30 35797 N 3738.11 -0.126854 1.57089 0
M  V30 35798 C 3739.06 -1.17502 2.00739 0
M  V30 35799 C 3740.06 -1.43325 0.903011 0
M  V30 35800 O 3741.26 -1.4338 1.08822 0
M  V30 35801 H 3737.64 -0.395992 0.639292 0
M  V30 35802 H 3739.61 -0.780322 2.88017 0
M  V30 35803 C 3738.36 -2.49565 2.42101 0
M  V30 35804 H 3737.68 -2.3053 3.26643 0
M  V30 35805 H 3739.12 -3.21485 2.76448 0
M  V30 35806 C 3737.58 -3.11574 1.28153 0
M  V30 35807 O 3738.11 -3.97296 0.593215 0
M  V30 35808 N 3736.32 -2.7133 1.0406 0
M  V30 35809 H 3735.86 -2.01717 1.60212 0
M  V30 35810 H 3735.82 -3.1315 0.28013 0
M  V30 35811 N 3739.59 -1.52523 -0.396809 0
M  V30 35812 C 3740.5 -1.79655 -1.50868 0
M  V30 35813 C 3741.52 -0.682832 -1.60042 0
M  V30 35814 O 3742.69 -0.969581 -1.76525 0
M  V30 35815 C 3739.76 -1.95268 -2.86481 0
M  V30 35816 C 3738.82 -3.1918 -2.87093 0
M  V30 35817 C 3738.05 -3.34039 -4.16238 0
M  V30 35818 O 3738.28 -2.53879 -5.10785 0
M  V30 35819 O 3737.21 -4.27254 -4.23955 0
M  V30 35820 H 3741.04 -2.74055 -1.30873 0
M  V30 35821 H 3738.62 -1.37518 -0.583884 0
M  V30 35822 H 3740.5 -2.07288 -3.66892 0
M  V30 35823 H 3739.18 -1.04058 -3.06519 0
M  V30 35824 H 3738.09 -3.12608 -2.05492 0
M  V30 35825 H 3739.42 -4.10211 -2.72007 0
M  V30 35826 N 3741.07 0.654789 -1.43354 0
M  V30 35827 C 3742.31 1.42651 -1.4639 0
M  V30 35828 C 3742.68 1.91811 -0.0850875 0
M  V30 35829 O 3743.88 2.68798 0.00986239 0
M  V30 35830 C 3742.15 2.5774 -2.47598 0
M  V30 35831 S 3743.71 3.4629 -2.69497 0
M  V30 35832 H 3740.52 0.486963 -0.518061 0
M  V30 35833 H 3743.13 0.76035 -1.80108 0
M  V30 35834 H 3741.83 2.19896 -3.46517 0
M  V30 35835 H 3741.36 3.29209 -2.15372 0
M  V30 35836 H 3743.38 4.54414 -1.99305 0
M  V30 35837 N 3742.55 1.29858 0.893007 0
M  V30 35838 C 3743.83 1.08887 1.6249 0
M  V30 35839 C 3744.21 -0.364658 2.07927 0
M  V30 35840 O 3743.55 -1.3547 1.84011 0
M  V30 35841 C 3743.76 2.0825 2.80059 0
M  V30 35842 C 3745.11 2.39532 3.50584 0
M  V30 35843 O 3746.14 2.06497 2.90237 0
M  V30 35844 O 3745 2.96006 4.59394 0
M  V30 35845 H 3742.09 0.417639 0.713797 0
M  V30 35846 H 3744.64 1.41255 0.940488 0
M  V30 35847 H 3743.41 3.06123 2.4373 0
M  V30 35848 H 3743.03 1.76652 3.56202 0
M  V30 35849 N 3744.03 -1.10427 1.12443 0
M  V30 35850 C 3745.28 -1.82029 0.878053 0
M  V30 35851 C 3745.6 -1.85612 -0.597754 0
M  V30 35852 O 3744.87 -1.33424 -1.43439 0
M  V30 35853 H 3743.45 -0.674107 0.321851 0
M  V30 35854 H 3746.11 -1.33613 1.41893 0
M  V30 35855 H 3745.2 -2.85552 1.25962 0
M  V30 35856 N 3745.51 -0.916353 -1.28221 0
M  V30 35857 C 3746.92 -0.597034 -1.76897 0
M  V30 35858 C 3747.27 0.887688 -1.7497 0
M  V30 35859 O 3746.39 1.69445 -1.34601 0
M  V30 35860 C 3746.99 -1.077 -3.21226 0
M  V30 35861 C 3745.55 -0.808555 -3.67613 0
M  V30 35862 C 3744.69 -1.24224 -2.47919 0
M  V30 35863 H 3747.64 -1.09734 -1.14648 0
M  V30 35864 H 3747.67 -0.419597 -3.78179 0
M  V30 35865 H 3747.18 -2.15762 -3.22596 0
M  V30 35866 H 3745.28 0.258749 -3.717 0
M  V30 35867 H 3745.39 -1.41813 -4.57631 0
M  V30 35868 H 3743.76 -0.660935 -2.45975 0
M  V30 35869 H 3744.54 -2.33126 -2.52006 0
M  V30 35870 N 3746.98 1.42146 -0.680615 0
M  V30 35871 C 3747.93 2.27994 0.0169716 0
M  V30 35872 C 3748.92 1.414 0.767784 0
M  V30 35873 O 3750.11 1.64801 0.645738 0
M  V30 35874 C 3747.24 3.29505 0.963381 0
M  V30 35875 C 3746.32 4.23582 0.209605 0
M  V30 35876 N 3746.72 4.99614 -0.788631 0
M  V30 35877 C 3745.01 4.43752 0.447226 0
M  V30 35878 C 3745.71 5.68362 -1.23852 0
M  V30 35879 N 3744.69 5.40631 -0.567333 0
M  V30 35880 H 3748.49 2.84206 -0.748617 0
M  V30 35881 H 3746.01 1.54178 -0.510172 0
M  V30 35882 H 3748 3.89815 1.47816 0
M  V30 35883 H 3746.66 2.74854 1.72873 0
M  V30 35884 H 3747.67 5.04549 -1.16837 0
M  V30 35885 H 3744.35 4.00133 1.19162 0
M  V30 35886 H 3745.74 6.39347 -2.06604 0
M  V30 35887 N 3748.46 0.424336 1.5178 0
M  V30 35888 C 3749.88 0.075961 1.59419 0
M  V30 35889 C 3750.08 -1.41336 1.43619 0
M  V30 35890 O 3749.13 -2.18189 1.27082 0
M  V30 35891 C 3750.45 0.584463 2.94965 0
M  V30 35892 C 3751.99 0.543764 3.0824 0
M  V30 35893 C 3752.47 1.02903 4.4629 0
M  V30 35894 N 3753.96 0.986472 4.52574 0
M  V30 35895 C 3754.7 1.33296 5.57691 0
M  V30 35896 N 3754.19 1.75166 6.7029 0
M  V30 35897 N 3755.98 1.25196 5.4798 0
M  V30 35898 H 3748.14 1.39351 1.60296 0
M  V30 35899 H 3750.4 0.573424 0.75491 0
M  V30 35900 H 3750.1 1.62599 3.11857 0
M  V30 35901 H 3749.98 0.00231066 3.772 0
M  V30 35902 H 3752.37 -0.488747 2.91025 0
M  V30 35903 H 3752.45 1.16216 2.27876 0
M  V30 35904 H 3752.09 2.05994 4.64251 0
M  V30 35905 H 3752.02 0.387294 5.25174 0
M  V30 35906 H 3754.51 0.67883 3.71753 0
M  V30 35907 H 3754.82 1.99876 7.46505 0
M  V30 35908 H 3753.17 1.79082 6.71531 0
M  V30 35909 H 3756.36 0.923605 4.58898 0
M  V30 35910 H 3756.53 1.52528 6.29793 0
M  V30 35911 N 3749.94 -1.56833 0.15525 0
M  V30 35912 C 3751.18 -1.9828 -0.496442 0
M  V30 35913 C 3751.54 -1.03846 -1.61493 0
M  V30 35914 O 3752.74 -1.34369 -2.32806 0
M  V30 35915 C 3751.02 -3.43646 -0.981961 0
M  V30 35916 S 3752.57 -4.07118 -1.63709 0
M  V30 35917 H 3749.39 -0.692707 -0.160244 0
M  V30 35918 H 3751.99 -1.93909 0.248915 0
M  V30 35919 H 3750.7 -4.10099 -0.157272 0
M  V30 35920 H 3750.23 -3.51747 -1.76174 0
M  V30 35921 H 3752.24 -4.00846 -2.92466 0
M  V30 35922 N 3751.42 0.118521 -1.57154 0
M  V30 35923 C 3752.35 1.17107 -1.97024 0
M  V30 35924 C 3753.36 1.37628 -0.869623 0
M  V30 35925 O 3754.55 1.36694 -1.14791 0
M  V30 35926 C 3751.65 2.53099 -2.25376 0
M  V30 35927 C 3750.82 2.53174 -3.56682 0
M  V30 35928 C 3749.88 3.70916 -3.7324 0
M  V30 35929 O 3748.91 3.54479 -4.45346 0
M  V30 35930 N 3750.11 4.89498 -3.12044 0
M  V30 35931 H 3752.88 0.831909 -2.87922 0
M  V30 35932 H 3750.44 0.307789 -1.58947 0
M  V30 35933 H 3752.43 3.30426 -2.33667 0
M  V30 35934 H 3751 2.79195 -1.40602 0
M  V30 35935 H 3750.22 1.61558 -3.59573 0
M  V30 35936 H 3751.51 2.50281 -4.42987 0
M  V30 35937 H 3750.91 5.05756 -2.53431 0
M  V30 35938 H 3749.46 5.64501 -3.25856 0
M  V30 35939 N 3752.9 1.52731 0.388715 0
M  V30 35940 C 3753.85 1.7391 1.47442 0
M  V30 35941 C 3754.83 0.59319 1.49566 0
M  V30 35942 O 3756.02 0.851033 1.55198 0
M  V30 35943 C 3753.15 1.91164 2.85152 0
M  V30 35944 C 3752.24 3.11688 2.87596 0
M  V30 35945 N 3752.63 4.34032 2.59711 0
M  V30 35946 C 3750.93 3.11939 3.18763 0
M  V30 35947 C 3751.63 5.15637 2.69245 0
M  V30 35948 N 3750.6 4.51331 3.02988 0
M  V30 35949 H 3754.4 2.66129 1.2471 0
M  V30 35950 H 3751.92 1.51042 0.596667 0
M  V30 35951 H 3753.92 2.04458 3.63321 0
M  V30 35952 H 3752.58 1.00158 3.08866 0
M  V30 35953 H 3753.59 4.6216 2.33727 0
M  V30 35954 H 3750.26 2.30744 3.47942 0
M  V30 35955 H 3751.65 6.23164 2.51228 0
M  V30 35956 N 3754.37 -0.647178 1.43699 0
M  V30 35957 C 3755.62 -1.40422 1.45348 0
M  V30 35958 C 3755.94 -1.94831 0.0811633 0
M  V30 35959 O 3755.21 -1.74803 -0.884349 0
M  V30 35960 H 3753.79 -0.521171 0.535154 0
M  V30 35961 H 3756.45 -0.762856 1.7935 0
M  V30 35962 H 3755.55 -2.24356 2.16958 0
M  V30 35963 N 3755.85 -1.3033 -0.886108 0
M  V30 35964 C 3757.09 -1.2037 -1.65198 0
M  V30 35965 C 3757.46 0.23806 -1.90518 0
M  V30 35966 O 3758.66 0.460879 -2.64819 0
M  V30 35967 C 3756.93 -2.00826 -2.95641 0
M  V30 35968 S 3758.49 -2.07552 -3.86611 0
M  V30 35969 H 3755.31 -0.428979 -0.567008 0
M  V30 35970 H 3757.91 -1.64791 -1.05186 0
M  V30 35971 H 3756.61 -3.04693 -2.74937 0
M  V30 35972 H 3756.14 -1.57062 -3.60687 0
M  V30 35973 H 3758.16 -1.20207 -4.81419 0
M  V30 35974 N 3757.33 1.0983 -1.13028 0
M  V30 35975 C 3758.26 2.16175 -0.761644 0
M  V30 35976 C 3759.28 1.61378 0.214681 0
M  V30 35977 O 3760.46 1.78499 -0.00490315 0
M  V30 35978 C 3757.56 3.38729 -0.107572 0
M  V30 35979 C 3756.74 4.22951 -1.11494 0
M  V30 35980 C 3755.8 5.23938 -0.487335 0
M  V30 35981 O 3754.82 5.57541 -1.14615 0
M  V30 35982 N 3756.02 5.75732 0.74247 0
M  V30 35983 H 3758.79 2.48406 -1.67673 0
M  V30 35984 H 3756.35 1.25507 -1.02273 0
M  V30 35985 H 3758.34 4.03397 0.324436 0
M  V30 35986 H 3756.91 3.04421 0.710384 0
M  V30 35987 H 3756.13 3.54484 -1.72438 0
M  V30 35988 H 3757.42 4.7605 -1.79593 0
M  V30 35989 H 3756.82 5.50641 1.29657 0
M  V30 35990 H 3755.38 6.42154 1.1172 0
M  V30 35991 N 3758.81 0.92314 1.27734 0
M  V30 35992 C 3759.76 0.409105 2.28974 0
M  V30 35993 C 3760.75 -0.504165 1.61724 0
M  V30 35994 O 3761.96 -0.384371 1.75848 0
M  V30 35995 H 3758.33 0.113718 0.743352 0
M  V30 35996 H 3760.3 1.27587 2.69748 0
M  V30 35997 C 3759.05 -0.327038 3.46159 0
M  V30 35998 H 3758.37 0.366514 3.98116 0
M  V30 35999 H 3759.81 -0.651207 4.18969 0
M  V30 36000 C 3758.27 -1.53837 2.99726 0
M  V30 36001 O 3758.8 -2.63724 3.03006 0
M  V30 36002 N 3757.01 -1.38861 2.55276 0
M  V30 36003 H 3756.56 -0.494585 2.52807 0
M  V30 36004 H 3756.51 -2.20035 2.24571 0
M  V30 36005 N 3760.29 -1.41783 0.688143 0
M  V30 36006 C 3761.22 -2.2919 -0.0209497 0
M  V30 36007 C 3762.23 -1.44392 -0.751979 0
M  V30 36008 O 3763.42 -1.67973 -0.603917 0
M  V30 36009 C 3760.52 -3.22105 -1.05364 0
M  V30 36010 C 3759.69 -4.35624 -0.393741 0
M  V30 36011 C 3758.75 -5.09166 -1.32803 0
M  V30 36012 O 3757.78 -5.63215 -0.823242 0
M  V30 36013 N 3758.98 -5.15931 -2.66074 0
M  V30 36014 H 3761.75 -2.90688 0.72944 0
M  V30 36015 H 3759.31 -1.52854 0.533591 0
M  V30 36016 H 3761.3 -3.68172 -1.68023 0
M  V30 36017 H 3759.87 -2.61967 -1.70564 0
M  V30 36018 H 3759.09 -3.92035 0.412599 0
M  V30 36019 H 3760.38 -5.08758 0.0654274 0
M  V30 36020 H 3759.77 -4.73453 -3.0961 0
M  V30 36021 H 3758.33 -5.65599 -3.23946 0
M  V30 36022 N 3761.76 -0.432379 -1.51553 0
M  V30 36023 C 3762.69 0.372202 -2.30514 0
M  V30 36024 C 3763.68 1.02547 -1.35713 0
M  V30 36025 O 3764.86 1.03006 -1.64631 0
M  V30 36026 C 3761.99 1.47641 -3.14356 0
M  V30 36027 C 3760.94 0.9469 -4.17394 0
M  V30 36028 C 3760.27 2.14648 -4.89725 0
M  V30 36029 C 3761.57 -0.0152295 -5.22298 0
M  V30 36030 H 3763.26 -0.286732 -2.98024 0
M  V30 36031 H 3760.81 -0.13934 -1.43324 0
M  V30 36032 H 3762.76 2.04645 -3.68373 0
M  V30 36033 H 3761.49 2.16356 -2.44658 0
M  V30 36034 H 3760.15 0.39911 -3.64421 0
M  V30 36035 H 3759.79 2.81971 -4.16535 0
M  V30 36036 H 3759.49 1.79859 -5.59397 0
M  V30 36037 H 3761.02 2.72214 -5.46564 0
M  V30 36038 H 3762.43 0.464346 -5.71416 0
M  V30 36039 H 3760.83 -0.275444 -5.99468 0
M  V30 36040 H 3761.9 -0.953441 -4.75434 0
M  V30 36041 N 3763.24 1.56749 -0.163565 0
M  V30 36042 C 3764.49 1.96258 0.482414 0
M  V30 36043 C 3764.81 1.05026 1.643 0
M  V30 36044 O 3764.08 0.115061 1.95562 0
M  V30 36045 H 3762.66 0.724688 0.18121 0
M  V30 36046 H 3765.32 1.9338 -0.242937 0
M  V30 36047 H 3764.42 3.00371 0.847582 0
M  V30 36048 N 3764.72 -0.110185 1.57214 0
M  V30 36049 C 3765.97 -0.814794 1.84947 0
M  V30 36050 C 3766.29 -1.79997 0.750061 0
M  V30 36051 O 3765.56 -1.94602 -0.22513 0
M  V30 36052 H 3764.14 -0.303895 0.68239 0
M  V30 36053 H 3766.8 -0.0954073 1.94666 0
M  V30 36054 H 3765.9 -1.35464 2.81169 0
M  V30 36055 N 3766.2 -1.52935 -0.38061 0
M  V30 36056 C 3767.43 -1.72026 -1.14414 0
M  V30 36057 C 3767.84 -0.44216 -1.83961 0
M  V30 36058 O 3767.18 0.593735 -1.7384 0
M  V30 36059 C 3767.24 -2.82026 -2.22939 0
M  V30 36060 C 3766.91 -4.22872 -1.73287 0
M  V30 36061 C 3767.9 -5.05741 -1.20506 0
M  V30 36062 C 3765.59 -4.69226 -1.79256 0
M  V30 36063 C 3767.58 -6.33049 -0.743521 0
M  V30 36064 C 3765.27 -5.96515 -1.32713 0
M  V30 36065 C 3766.27 -6.78257 -0.803496 0
M  V30 36066 O 3765.95 -8.0316 -0.344889 0
M  V30 36067 H 3765.69 -0.579144 -0.348666 0
M  V30 36068 H 3768.24 -2.00408 -0.450078 0
M  V30 36069 H 3766.47 -2.49084 -2.95794 0
M  V30 36070 H 3768.16 -2.89439 -2.8457 0
M  V30 36071 H 3768.93 -4.71109 -1.15246 0
M  V30 36072 H 3764.8 -4.05684 -2.18955 0
M  V30 36073 H 3768.35 -6.96799 -0.334128 0
M  V30 36074 H 3764.25 -6.3065 -1.37662 0
M  V30 36075 H 3765.01 -8.17175 -0.465599 0
M  V30 36076 N 3767.68 0.639548 -1.4404 0
M  V30 36077 C 3769.09 0.95678 -1.27741 0
M  V30 36078 C 3769.29 2.00433 -0.207053 0
M  V30 36079 O 3768.35 2.49151 0.409911 0
M  V30 36080 C 3769.66 1.42805 -2.64627 0
M  V30 36081 C 3771.21 1.54397 -2.72269 0
M  V30 36082 C 3771.68 2.0491 -4.09604 0
M  V30 36083 N 3773.18 2.12193 -4.11738 0
M  V30 36084 C 3773.91 2.5243 -5.14846 0
M  V30 36085 N 3773.41 2.91864 -6.28321 0
M  V30 36086 N 3775.2 2.5249 -5.022 0
M  V30 36087 H 3767.35 -0.0533942 -2.12333 0
M  V30 36088 H 3769.61 0.0387234 -0.947209 0
M  V30 36089 H 3769.32 0.732668 -3.43984 0
M  V30 36090 H 3769.19 2.40061 -2.90948 0
M  V30 36091 H 3771.58 2.23033 -1.93236 0
M  V30 36092 H 3771.66 0.555382 -2.49698 0
M  V30 36093 H 3771.31 1.36872 -4.8911 0
M  V30 36094 H 3771.24 3.04625 -4.29547 0
M  V30 36095 H 3773.73 1.84436 -3.29836 0
M  V30 36096 H 3774.04 3.21356 -7.02816 0
M  V30 36097 H 3772.38 2.89636 -6.31772 0
M  V30 36098 H 3775.58 2.21067 -4.1261 0
M  V30 36099 H 3775.75 2.83525 -5.82682 0
M  V30 36100 N 3769.15 1.30798 0.879184 0
M  V30 36101 C 3770.39 1.21244 1.64557 0
M  V30 36102 C 3770.76 -0.227953 1.90642 0
M  V30 36103 O 3771.96 -0.446829 2.6506 0
M  V30 36104 C 3770.23 2.02391 2.94572 0
M  V30 36105 S 3771.79 2.09599 3.85504 0
M  V30 36106 H 3768.61 0.43198 0.564725 0
M  V30 36107 H 3771.21 1.65347 1.04311 0
M  V30 36108 H 3769.91 3.06147 2.73317 0
M  V30 36109 H 3769.44 1.58973 3.59849 0
M  V30 36110 H 3771.46 1.22759 4.80775 0
M  V30 36111 N 3770.63 -1.09229 1.13608 0
M  V30 36112 C 3771.86 -1.85744 0.922699 0
M  V30 36113 C 3772.28 -1.80673 -0.523349 0
M  V30 36114 O 3771.64 -1.18568 -1.37154 0
M  V30 36115 C 3771.69 -3.31563 1.41768 0
M  V30 36116 O 3770.79 -4.07949 0.604252 0
M  V30 36117 H 3770.13 -0.575885 0.330533 0
M  V30 36118 H 3772.66 -1.37921 1.51126 0
M  V30 36119 H 3772.67 -3.82411 1.42219 0
M  V30 36120 H 3771.35 -3.3457 2.47054 0
M  V30 36121 H 3769.93 -3.66872 0.667785 0
M  V30 36122 N 3772.11 -0.929901 -1.27242 0
M  V30 36123 C 3773.35 -0.578816 -1.96033 0
M  V30 36124 C 3773.72 0.86422 -1.7145 0
M  V30 36125 O 3774.92 1.32368 -2.33949 0
M  V30 36126 C 3773.19 -0.898434 -3.45923 0
M  V30 36127 S 3774.75 -0.656196 -4.33866 0
M  V30 36128 H 3771.56 -0.213581 -0.678162 0
M  V30 36129 H 3774.17 -1.19881 -1.54431 0
M  V30 36130 H 3772.87 -1.9463 -3.61313 0
M  V30 36131 H 3772.4 -0.267724 -3.92488 0
M  V30 36132 H 3774.42 0.484972 -4.93824 0
M  V30 36133 N 3773.59 1.41416 -0.695653 0
M  V30 36134 C 3775 1.84251 -0.301433 0
M  V30 36135 C 3775.35 1.58206 1.1604 0
M  V30 36136 O 3774.48 1.05256 1.89077 0
M  V30 36137 C 3775.07 3.34464 -0.540315 0
M  V30 36138 C 3773.63 3.75868 -0.20001 0
M  V30 36139 C 3772.78 2.64819 -0.822557 0
M  V30 36140 H 3775.73 1.30966 -0.896301 0
M  V30 36141 H 3775.75 3.79969 0.200952 0
M  V30 36142 H 3775.26 3.53388 -1.60433 0
M  V30 36143 H 3773.36 3.62546 0.859734 0
M  V30 36144 H 3773.48 4.746 -0.655088 0
M  V30 36145 H 3771.84 2.53449 -0.252154 0
M  V30 36146 H 3772.62 2.86561 -1.89044 0
M  V30 36147 N 3775.07 0.44041 1.51321 0
M  V30 36148 C 3776 -0.405331 2.25587 0
M  V30 36149 C 3777.01 -0.983663 1.29722 0
M  V30 36150 O 3778.2 -0.87728 1.55454 0
M  V30 36151 C 3775.3 -1.57932 2.99851 0
M  V30 36152 C 3774.47 -1.11932 4.22836 0
M  V30 36153 C 3773.53 -2.16379 4.79653 0
M  V30 36154 O 3772.56 -1.75688 5.41408 0
M  V30 36155 N 3773.76 -3.48894 4.63954 0
M  V30 36156 H 3776.53 0.231196 2.98807 0
M  V30 36157 H 3774.09 0.269468 1.59642 0
M  V30 36158 H 3776.08 -2.27434 3.34747 0
M  V30 36159 H 3774.65 -2.12113 2.29623 0
M  V30 36160 H 3773.87 -0.251254 3.93398 0
M  V30 36161 H 3775.16 -0.789411 5.02639 0
M  V30 36162 H 3774.56 -3.84684 4.14771 0
M  V30 36163 H 3773.11 -4.14282 5.03204 0
M  V30 36164 N 3776.55 -1.5666 0.171876 0
M  V30 36165 C 3777.79 -1.96511 -0.472 0
M  V30 36166 C 3778.11 -1.05896 -1.63741 0
M  V30 36167 O 3777.38 -0.125431 -1.95498 0
M  V30 36168 H 3775.96 -0.725638 -0.177364 0
M  V30 36169 H 3778.63 -1.93248 0.253189 0
M  V30 36170 H 3777.72 -3.00816 -0.83164 0
M  V30 36171 N 3778.02 0.101846 -1.57271 0
M  V30 36172 C 3779.27 0.806568 -1.85744 0
M  V30 36173 C 3779.6 1.79061 -0.759439 0
M  V30 36174 O 3778.85 1.94127 0.247623 0
M  V30 36175 C 3779.15 1.57599 -3.20776 0
M  V30 36176 C 3778.82 0.73469 -4.44874 0
M  V30 36177 C 3777.48 0.502744 -4.78567 0
M  V30 36178 C 3779.83 0.149398 -5.20986 0
M  V30 36179 C 3777.16 -0.324466 -5.85802 0
M  V30 36180 C 3779.51 -0.665097 -6.29094 0
M  V30 36181 C 3778.18 -0.907198 -6.61306 0
M  V30 36182 H 3777.45 0.295144 -0.679684 0
M  V30 36183 H 3780.09 0.0682902 -1.91378 0
M  V30 36184 H 3778.4 2.38565 -3.10795 0
M  V30 36185 H 3780.1 2.12553 -3.40033 0
M  V30 36186 H 3776.69 0.925577 -4.18487 0
M  V30 36187 H 3780.87 0.315772 -4.95294 0
M  V30 36188 H 3776.13 -0.521086 -6.09175 0
M  V30 36189 H 3780.3 -1.12552 -6.87245 0
M  V30 36190 H 3777.93 -1.54999 -7.44231 0
M  V30 36191 N 3779.5 1.53135 0.372494 0
M  V30 36192 C 3780.73 1.72881 1.13665 0
M  V30 36193 C 3781.14 0.45462 1.83245 0
M  V30 36194 O 3780.5 -0.572032 1.73303 0
M  V30 36195 C 3780.55 2.88959 2.17221 0
M  V30 36196 O 3780.27 4.11447 1.50475 0
M  V30 36197 C 3781.77 3.20521 3.06237 0
M  V30 36198 H 3778.99 0.578396 0.340146 0
M  V30 36199 H 3781.54 1.99852 0.433522 0
M  V30 36200 H 3779.69 2.64402 2.83143 0
M  V30 36201 H 3780.11 4.76399 2.19417 0
M  V30 36202 H 3781.58 4.05165 3.74894 0
M  V30 36203 H 3782.06 2.35594 3.70665 0
M  V30 36204 H 3782.66 3.46978 2.4594 0
M  V30 36205 N 3780.98 -0.6319 1.44377 0
M  V30 36206 C 3781.91 -1.75709 1.4717 0
M  V30 36207 C 3782.92 -1.58651 0.365186 0
M  V30 36208 O 3784.11 -1.66979 0.630882 0
M  V30 36209 C 3781.21 -3.13421 1.28921 0
M  V30 36210 C 3780.39 -3.56943 2.52805 0
M  V30 36211 C 3779.45 -4.73531 2.29467 0
M  V30 36212 O 3778.47 -4.81882 3.02949 0
M  V30 36213 N 3779.67 -5.65181 1.32477 0
M  V30 36214 H 3782.44 -1.73784 2.44171 0
M  V30 36215 H 3780 -0.81644 1.39807 0
M  V30 36216 H 3781.99 -3.89135 1.11157 0
M  V30 36217 H 3780.56 -3.09993 0.402883 0
M  V30 36218 H 3779.78 -2.71446 2.85851 0
M  V30 36219 H 3781.07 -3.82773 3.35204 0
M  V30 36220 H 3780.47 -5.61127 0.71786 0
M  V30 36221 H 3779.02 -6.40529 1.20691 0
M  V30 36222 N 3782.46 -1.31262 -0.872235 0
M  V30 36223 C 3783.41 -1.1532 -1.96686 0
M  V30 36224 C 3784.39 -0.0648205 -1.60769 0
M  V30 36225 O 3785.58 -0.289499 -1.74616 0
M  V30 36226 C 3782.71 -0.8603 -3.32346 0
M  V30 36227 C 3781.8 -1.98955 -3.74537 0
M  V30 36228 N 3782.19 -3.23634 -3.88709 0
M  V30 36229 C 3780.49 -1.88878 -4.04031 0
M  V30 36230 C 3781.19 -3.97486 -4.24711 0
M  V30 36231 N 3780.16 -3.25636 -4.35272 0
M  V30 36232 H 3783.97 -2.09866 -2.05751 0
M  V30 36233 H 3781.48 -1.22787 -1.06288 0
M  V30 36234 H 3783.48 -0.727076 -4.10511 0
M  V30 36235 H 3782.14 0.0769562 -3.24609 0
M  V30 36236 H 3783.15 -3.58776 -3.73497 0
M  V30 36237 H 3779.83 -1.02602 -4.04696 0
M  V30 36238 H 3781.22 -5.04917 -4.43293 0
M  V30 36239 N 3783.94 1.08625 -1.14186 0
M  V30 36240 C 3785.16 1.85253 -0.932537 0
M  V30 36241 C 3785.59 1.80948 0.51376 0
M  V30 36242 O 3784.94 1.19294 1.36523 0
M  V30 36243 C 3784.99 3.30807 -1.43525 0
M  V30 36244 O 3784.1 4.07623 -0.625878 0
M  V30 36245 H 3783.44 0.574124 -0.333583 0
M  V30 36246 H 3785.97 1.37118 -1.51855 0
M  V30 36247 H 3785.98 3.81651 -1.44245 0
M  V30 36248 H 3784.65 3.33255 -2.48825 0
M  V30 36249 H 3783.23 3.66513 -0.687232 0
M  V30 36250 N 3785.41 0.936635 1.26747 0
M  V30 36251 C 3786.35 0.399981 2.25683 0
M  V30 36252 C 3787.36 -0.474244 1.55739 0
M  V30 36253 O 3788.55 -0.285423 1.76203 0
M  V30 36254 C 3785.65 -0.444673 3.3597 0
M  V30 36255 C 3784.82 0.412335 4.35452 0
M  V30 36256 C 3783.88 -0.371138 5.2489 0
M  V30 36257 O 3782.91 0.224262 5.68758 0
M  V30 36258 N 3784.11 -1.6688 5.55996 0
M  V30 36259 H 3786.87 1.25048 2.72366 0
M  V30 36260 H 3784.43 0.805025 1.40467 0
M  V30 36261 H 3786.43 -0.97609 3.92753 0
M  V30 36262 H 3785 -1.19595 2.88818 0
M  V30 36263 H 3784.22 1.12499 3.77806 0
M  V30 36264 H 3785.5 0.99791 4.98918 0
M  V30 36265 H 3784.9 -2.17472 5.22228 0
M  V30 36266 H 3783.46 -2.14655 6.1544 0
M  V30 36267 N 3786.89 -1.41045 0.703143 0
M  V30 36268 C 3788.14 -2.01901 0.246455 0
M  V30 36269 C 3788.49 -1.54721 -1.14365 0
M  V30 36270 O 3787.79 -0.751879 -1.76231 0
M  V30 36271 C 3787.98 -3.56513 0.251637 0
M  V30 36272 C 3787.81 -4.18701 1.64071 0
M  V30 36273 C 3786.58 -4.52671 2.24538 0
M  V30 36274 C 3788.78 -4.44399 2.58871 0
M  V30 36275 N 3786.76 -5.00187 3.55931 0
M  V30 36276 C 3788.13 -4.93772 3.74952 0
M  V30 36277 C 3790.19 -4.26421 2.57041 0
M  V30 36278 C 3788.89 -5.27055 4.89495 0
M  V30 36279 C 3790.91 -4.60797 3.70702 0
M  V30 36280 C 3790.28 -5.10348 4.85514 0
M  V30 36281 H 3786.38 -0.770129 0.135741 0
M  V30 36282 H 3788.96 -1.71472 0.922257 0
M  V30 36283 H 3787.13 -3.864 -0.393681 0
M  V30 36284 H 3788.86 -4.04098 -0.220589 0
M  V30 36285 H 3785.62 -4.39381 1.76752 0
M  V30 36286 H 3786.04 -5.28341 4.23302 0
M  V30 36287 H 3790.68 -3.87342 1.69488 0
M  V30 36288 H 3788.4 -5.65054 5.77702 0
M  V30 36289 H 3791.99 -4.48538 3.70546 0
M  V30 36290 H 3790.87 -5.36449 5.72007 0
M  V30 36291 N 3788.37 -0.448429 -1.51086 0
M  V30 36292 C 3789.33 0.34586 -2.26575 0
M  V30 36293 C 3790.33 0.940155 -1.30452 0
M  V30 36294 O 3791.52 0.812871 -1.54072 0
M  V30 36295 C 3788.66 1.4904 -3.06594 0
M  V30 36296 H 3789.85 -0.315875 -2.98232 0
M  V30 36297 H 3787.4 -0.201878 -1.54991 0
M  V30 36298 H 3788.14 2.18786 -2.39381 0
M  V30 36299 H 3787.92 1.07031 -3.77209 0
M  V30 36300 H 3789.41 2.05129 -3.63747 0
M  V30 36301 N 3789.85 1.56567 -0.180181 0
M  V30 36302 C 3790.78 2.15584 0.778212 0
M  V30 36303 C 3791.79 1.11372 1.18744 0
M  V30 36304 O 3792.98 1.38525 1.12575 0
M  V30 36305 C 3790.08 2.6909 2.0602 0
M  V30 36306 C 3789.26 3.9805 1.81313 0
M  V30 36307 C 3788.31 4.36531 2.93815 0
M  V30 36308 O 3787.34 5.0424 2.64066 0
M  V30 36309 N 3788.54 3.98813 4.21816 0
M  V30 36310 H 3791.31 2.98448 0.273608 0
M  V30 36311 H 3788.87 1.619 0.00230106 0
M  V30 36312 H 3790.86 2.91825 2.80393 0
M  V30 36313 H 3789.43 1.90764 2.47645 0
M  V30 36314 H 3788.65 3.83601 0.907978 0
M  V30 36315 H 3789.94 4.82259 1.62185 0
M  V30 36316 H 3789.34 3.44321 4.48842 0
M  V30 36317 H 3787.89 4.26531 4.92864 0
M  V30 36318 N 3791.33 -0.0935042 1.57322 0
M  V30 36319 C 3792.57 -0.802302 1.87996 0
M  V30 36320 C 3792.93 -1.75824 0.771368 0
M  V30 36321 O 3794.13 -2.51051 0.960563 0
M  V30 36322 C 3792.4 -1.51054 3.23909 0
M  V30 36323 S 3793.96 -2.2574 3.7628 0
M  V30 36324 H 3790.78 -0.267263 0.658856 0
M  V30 36325 H 3793.38 -0.0593544 1.9541 0
M  V30 36326 H 3792.09 -0.800713 4.02513 0
M  V30 36327 H 3791.62 -2.29336 3.19638 0
M  V30 36328 H 3793.63 -3.51906 3.49824 0
M  V30 36329 N 3792.8 -1.5333 -0.364368 0
M  V30 36330 C 3794.05 -1.69822 -1.10852 0
M  V30 36331 C 3794.38 -0.449324 -1.8893 0
M  V30 36332 O 3793.66 0.553404 -1.86461 0
M  V30 36333 C 3793.94 -2.94885 -2.06676 0
M  V30 36334 C 3793.79 -4.29935 -1.32198 0
M  V30 36335 C 3795.11 -3.15551 -3.06782 0
M  V30 36336 H 3792.23 -0.61796 -0.401615 0
M  V30 36337 H 3794.87 -1.85971 -0.389212 0
M  V30 36338 H 3793.02 -2.81248 -2.68014 0
M  V30 36339 H 3794.7 -4.55385 -0.73634 0
M  V30 36340 H 3792.94 -4.29291 -0.62384 0
M  V30 36341 H 3793.61 -5.13578 -2.02341 0
M  V30 36342 H 3796.09 -3.28382 -2.55548 0
M  V30 36343 H 3794.96 -4.0449 -3.71051 0
M  V30 36344 H 3795.22 -2.30887 -3.77019 0
M  V30 36345 N 3794.28 0.624234 -1.4471 0
M  V30 36346 C 3795.56 1.3829 -1.3833 0
M  V30 36347 C 3795.94 2.11051 -0.0454759 0
M  V30 36348 O 3795.29 2.06789 0.972147 0
M  V30 36349 C 3795.5 2.34359 -2.58606 0
M  V30 36350 C 3796.85 2.97479 -3.02971 0
M  V30 36351 O 3797.87 2.44683 -2.5886 0
M  V30 36352 O 3796.73 3.93271 -3.79473 0
M  V30 36353 H 3793.82 0.619259 -0.548131 0
M  V30 36354 H 3796.37 0.648713 -1.56811 0
M  V30 36355 H 3795.14 1.7974 -3.47576 0
M  V30 36356 H 3794.76 3.15184 -2.42373 0
M  V30 36357 N 3795.76 1.31723 0.865262 0
M  V30 36358 C 3796.67 1.21741 2.0054 0
M  V30 36359 C 3797.69 0.133154 1.7349 0
M  V30 36360 O 3798.86 0.351844 1.98303 0
M  V30 36361 C 3795.93 0.930104 3.33991 0
M  V30 36362 C 3794.99 2.10174 3.74333 0
M  V30 36363 C 3794.22 1.82804 5.01416 0
M  V30 36364 O 3794.44 0.765444 5.65241 0
M  V30 36365 O 3793.38 2.68614 5.38637 0
M  V30 36366 H 3797.2 2.17565 2.11895 0
M  V30 36367 H 3794.79 1.11509 0.994293 0
M  V30 36368 H 3796.67 0.785919 4.14006 0
M  V30 36369 H 3795.35 0.00194332 3.237 0
M  V30 36370 H 3794.25 2.30135 2.94939 0
M  V30 36371 H 3795.59 3.01232 3.89256 0
M  V30 36372 N 3797.24 -1.08018 1.14761 0
M  V30 36373 C 3798.19 -2.17139 0.833862 0
M  V30 36374 C 3799.18 -1.68332 -0.18991 0
M  V30 36375 O 3800.39 -1.79942 -0.0456131 0
M  V30 36376 H 3796.76 -0.708535 0.251956 0
M  V30 36377 H 3798.73 -2.40824 1.762 0
M  V30 36378 C 3797.48 -3.4611 0.332091 0
M  V30 36379 H 3796.8 -3.84046 1.11123 0
M  V30 36380 H 3798.24 -4.2373 0.151152 0
M  V30 36381 C 3796.7 -3.23372 -0.945096 0
M  V30 36382 O 3797.23 -3.4733 -2.01804 0
M  V30 36383 N 3795.44 -2.76895 -0.881914 0
M  V30 36384 H 3794.99 -2.57599 -0.0086124 0
M  V30 36385 H 3794.94 -2.62059 -1.73701 0
M  V30 36386 N 3798.72 -0.943344 -1.26249 0
M  V30 36387 C 3799.63 -0.460819 -2.3003 0
M  V30 36388 C 3800.64 0.466271 -1.67636 0
M  V30 36389 O 3801.82 0.345272 -1.98418 0
M  V30 36390 C 3798.88 0.264231 -3.45692 0
M  V30 36391 C 3797.94 -0.699685 -4.2356 0
M  V30 36392 C 3797.18 -0.00914227 -5.33699 0
M  V30 36393 O 3797.4 1.20739 -5.57475 0
M  V30 36394 O 3796.33 -0.688944 -5.97944 0
M  V30 36395 H 3800.16 -1.32294 -2.73372 0
M  V30 36396 H 3797.75 -0.70932 -1.31488 0
M  V30 36397 H 3799.63 0.672561 -4.15998 0
M  V30 36398 H 3798.3 1.10171 -3.04375 0
M  V30 36399 H 3797.21 -1.158 -3.55726 0
M  V30 36400 H 3798.54 -1.50484 -4.68631 0
M  V30 36401 N 3800.2 1.4067 -0.710613 0
M  V30 36402 C 3801.44 2.02836 -0.252339 0
M  V30 36403 C 3801.8 1.55115 1.13152 0
M  V30 36404 O 3803 2.0931 1.68649 0
M  V30 36405 C 3801.27 3.55929 -0.323964 0
M  V30 36406 S 3802.83 4.38762 0.0580545 0
M  V30 36407 H 3799.65 0.703867 -0.100461 0
M  V30 36408 H 3802.25 1.71869 -0.931729 0
M  V30 36409 H 3800.95 3.88153 -1.33286 0
M  V30 36410 H 3800.49 3.91617 0.374071 0
M  V30 36411 H 3802.5 4.79365 1.28153 0
M  V30 36412 N 3801.67 0.456435 1.50846 0
M  V30 36413 C 3802.64 -0.33384 2.26756 0
M  V30 36414 C 3803.64 -0.933224 1.30949 0
M  V30 36415 O 3804.83 -0.804689 1.545 0
M  V30 36416 C 3801.96 -1.47412 3.0738 0
M  V30 36417 H 3803.15 0.331686 2.9806 0
M  V30 36418 H 3800.7 0.210095 1.54882 0
M  V30 36419 H 3801.44 -2.17513 2.40538 0
M  V30 36420 H 3801.22 -1.05029 3.77771 0
M  V30 36421 H 3802.71 -2.03197 3.6483 0
M  V30 36422 N 3803.15 -1.56469 0.188482 0
M  V30 36423 C 3804.08 -2.21784 -0.73034 0
M  V30 36424 C 3805.06 -1.17884 -1.22627 0
M  V30 36425 O 3806.25 -1.46369 -1.27631 0
M  V30 36426 C 3803.38 -2.87203 -1.95273 0
M  V30 36427 C 3802.33 -3.97291 -1.59198 0
M  V30 36428 C 3801.66 -4.49842 -2.89044 0
M  V30 36429 C 3802.96 -5.16029 -0.806936 0
M  V30 36430 H 3804.65 -2.98823 -0.185862 0
M  V30 36431 H 3802.2 -1.43731 -0.0879552 0
M  V30 36432 H 3804.15 -3.31576 -2.60068 0
M  V30 36433 H 3802.87 -2.0756 -2.52163 0
M  V30 36434 H 3801.53 -3.53599 -0.967651 0
M  V30 36435 H 3801.18 -3.66969 -3.4401 0
M  V30 36436 H 3800.88 -5.2412 -2.65654 0
M  V30 36437 H 3802.41 -4.96912 -3.54839 0
M  V30 36438 H 3803.82 -5.56988 -1.35784 0
M  V30 36439 H 3802.22 -5.96332 -0.671412 0
M  V30 36440 H 3803.29 -4.84514 0.193336 0
M  V30 36441 N 3804.63 0.0851597 -1.5737 0
M  V30 36442 C 3805.85 0.803949 -1.91184 0
M  V30 36443 C 3806.28 1.70997 -0.78368 0
M  V30 36444 O 3805.64 1.79364 0.264235 0
M  V30 36445 C 3805.69 1.5849 -3.23903 0
M  V30 36446 O 3804.79 2.6946 -3.12194 0
M  V30 36447 H 3804.13 0.220222 -0.626417 0
M  V30 36448 H 3806.66 0.0574067 -2.04519 0
M  V30 36449 H 3806.67 1.96701 -3.57453 0
M  V30 36450 H 3805.35 0.920039 -4.05596 0
M  V30 36451 H 3803.92 2.34205 -2.90177 0
M  V30 36452 N 3806.11 1.53521 0.356231 0
M  V30 36453 C 3807.52 1.61742 0.93254 0
M  V30 36454 C 3807.87 0.49071 1.89964 0
M  V30 36455 O 3806.99 -0.381476 2.13011 0
M  V30 36456 C 3807.59 2.93171 1.69813 0
M  V30 36457 C 3806.15 3.03696 2.22364 0
M  V30 36458 C 3805.3 2.57105 1.03887 0
M  V30 36459 H 3808.25 1.58127 0.134741 0
M  V30 36460 H 3808.27 2.81498 2.56006 0
M  V30 36461 H 3807.78 3.75155 0.993999 0
M  V30 36462 H 3805.88 2.26319 2.9599 0
M  V30 36463 H 3805.99 4.08943 2.49604 0
M  V30 36464 H 3804.36 2.12205 1.40859 0
M  V30 36465 H 3805.14 3.41516 0.349577 0
M  V30 36466 N 3807.59 -0.616551 1.45039 0
M  V30 36467 C 3809 -1.19839 1.43162 0
M  V30 36468 C 3809.35 -1.9559 0.154538 0
M  V30 36469 O 3808.47 -2.03195 -0.744374 0
M  V30 36470 C 3809.07 -2.17988 2.59358 0
M  V30 36471 C 3807.63 -2.71568 2.60629 0
M  V30 36472 C 3806.77 -1.46816 2.35245 0
M  V30 36473 H 3809.72 -0.406375 1.53409 0
M  V30 36474 H 3809.75 -3.00861 2.32944 0
M  V30 36475 H 3809.26 -1.62827 3.52291 0
M  V30 36476 H 3807.36 -3.30692 1.71678 0
M  V30 36477 H 3807.47 -3.16613 3.59574 0
M  V30 36478 H 3805.84 -1.75459 1.84625 0
M  V30 36479 H 3806.62 -0.935356 3.30312 0
M  V30 36480 N 3809.06 -1.3218 -0.858264 0
M  V30 36481 C 3810.29 -1.25526 -1.64471 0
M  V30 36482 C 3810.71 0.177392 -1.87965 0
M  V30 36483 O 3810.06 1.1133 -1.44609 0
M  V30 36484 C 3810.11 -2.00795 -3.00605 0
M  V30 36485 O 3809.84 -3.3847 -2.78154 0
M  V30 36486 C 3811.34 -2.01122 -3.95051 0
M  V30 36487 H 3808.56 -0.433246 -0.512385 0
M  V30 36488 H 3811.1 -1.74246 -1.07045 0
M  V30 36489 H 3809.26 -1.55807 -3.54687 0
M  V30 36490 H 3809.67 -3.76948 -3.64706 0
M  V30 36491 H 3811.14 -2.58276 -4.8785 0
M  V30 36492 H 3811.62 -0.996588 -4.27744 0
M  V30 36493 H 3812.23 -2.46041 -3.46906 0
M  V30 36494 N 3810.54 1.07407 -1.15332 0
M  V30 36495 C 3811.78 1.81588 -0.938361 0
M  V30 36496 C 3812.15 1.84679 0.525139 0
M  V30 36497 O 3813.35 2.54725 0.858404 0
M  V30 36498 C 3811.62 3.22753 -1.5351 0
M  V30 36499 S 3813.18 4.13687 -1.46318 0
M  V30 36500 H 3809.99 0.625671 -0.337722 0
M  V30 36501 H 3812.6 1.29033 -1.4687 0
M  V30 36502 H 3811.3 3.18091 -2.59318 0
M  V30 36503 H 3810.83 3.80383 -1.0036 0
M  V30 36504 H 3812.85 4.94103 -0.455662 0
M  V30 36505 N 3812.02 0.950026 1.25747 0
M  V30 36506 C 3813.27 0.601138 1.92953 0
M  V30 36507 C 3813.59 -0.863923 1.74818 0
M  V30 36508 O 3812.86 -1.61482 1.10906 0
M  V30 36509 H 3811.44 0.219337 0.714073 0
M  V30 36510 H 3814.1 1.20727 1.53007 0
M  V30 36511 H 3813.2 0.8265 3.00957 0
M  V30 36512 N 3813.5 -1.40291 0.718063 0
M  V30 36513 C 3814.72 -2.05675 0.266954 0
M  V30 36514 C 3815.15 -1.53751 -1.08361 0
M  V30 36515 O 3814.51 -0.673942 -1.68308 0
M  V30 36516 C 3814.55 -3.59664 0.259669 0
M  V30 36517 O 3813.66 -4.05368 -0.758301 0
M  V30 36518 H 3813 -0.652167 0.124798 0
M  V30 36519 H 3815.53 -1.79644 0.979239 0
M  V30 36520 H 3815.54 -4.07882 0.0982067 0
M  V30 36521 H 3814.21 -3.96821 1.24524 0
M  V30 36522 H 3812.79 -3.68605 -0.56436 0
M  V30 36523 N 3814.98 -0.464428 -1.50602 0
M  V30 36524 C 3815.94 0.32181 -2.2693 0
M  V30 36525 C 3816.94 0.926266 -1.31442 0
M  V30 36526 O 3818.13 0.796484 -1.54925 0
M  V30 36527 C 3815.26 1.4578 -3.08158 0
M  V30 36528 H 3816.45 -0.347488 -2.9788 0
M  V30 36529 H 3814.01 -0.218305 -1.54768 0
M  V30 36530 H 3814.74 2.16235 -2.41688 0
M  V30 36531 H 3814.53 1.03024 -3.78323 0
M  V30 36532 H 3816.02 2.01259 -3.65902 0
M  V30 36533 N 3816.45 1.56367 -0.196777 0
M  V30 36534 C 3817.68 2.02455 0.450209 0
M  V30 36535 C 3818.1 1.07599 1.54285 0
M  V30 36536 O 3817.46 0.0597848 1.81201 0
M  V30 36537 C 3817.51 3.46971 0.982026 0
M  V30 36538 O 3816.61 3.55233 2.09483 0
M  V30 36539 H 3815.96 0.655644 0.10501 0
M  V30 36540 H 3818.49 2.02266 -0.308148 0
M  V30 36541 H 3818.5 3.86796 1.2982 0
M  V30 36542 H 3817.17 4.15501 0.182167 0
M  V30 36543 H 3815.75 3.27284 1.78717 0
M  V30 36544 N 3817.93 -0.0768128 1.57413 0
M  V30 36545 C 3819.17 -0.782317 1.88836 0
M  V30 36546 C 3819.54 -1.74996 0.789973 0
M  V30 36547 O 3820.74 -2.50018 0.987136 0
M  V30 36548 C 3819.01 -1.4761 3.25493 0
M  V30 36549 S 3820.57 -2.21737 3.78653 0
M  V30 36550 H 3817.39 -0.26026 0.661654 0
M  V30 36551 H 3819.99 -0.0386252 1.95462 0
M  V30 36552 H 3818.69 -0.757976 4.0334 0
M  V30 36553 H 3818.22 -2.25933 3.22053 0
M  V30 36554 H 3820.24 -3.48176 3.53537 0
M  V30 36555 N 3819.41 -1.53708 -0.348084 0
M  V30 36556 C 3820.83 -1.4387 -0.690901 0
M  V30 36557 C 3821.03 -0.591804 -1.92613 0
M  V30 36558 O 3820.08 -0.081024 -2.5237 0
M  V30 36559 C 3821.4 -2.87296 -0.887773 0
M  V30 36560 C 3822.94 -2.97041 -0.986679 0
M  V30 36561 C 3823.42 -4.41565 -1.2159 0
M  V30 36562 N 3824.91 -4.45071 -1.2832 0
M  V30 36563 C 3825.64 -5.54024 -1.47799 0
M  V30 36564 N 3825.14 -6.72992 -1.6448 0
M  V30 36565 N 3826.93 -5.4163 -1.5031 0
M  V30 36566 H 3819.08 -2.07267 0.464137 0
M  V30 36567 H 3821.35 -0.936737 0.145695 0
M  V30 36568 H 3821.05 -3.51662 -0.0517054 0
M  V30 36569 H 3820.93 -3.31978 -1.79083 0
M  V30 36570 H 3823.31 -2.32818 -1.81327 0
M  V30 36571 H 3823.4 -2.55728 -0.0606243 0
M  V30 36572 H 3823.04 -5.06368 -0.394252 0
M  V30 36573 H 3822.97 -4.80466 -2.15545 0
M  V30 36574 H 3825.46 -3.59341 -1.16973 0
M  V30 36575 H 3825.77 -7.51792 -1.78965 0
M  V30 36576 H 3824.12 -6.75946 -1.61625 0
M  V30 36577 H 3827.31 -4.47647 -1.36857 0
M  V30 36578 H 3827.48 -6.26602 -1.65149 0
M  V30 36579 N 3820.89 0.608851 -1.45364 0
M  V30 36580 C 3821.84 1.74078 -1.54272 0
M  V30 36581 C 3822.83 1.64294 -0.412781 0
M  V30 36582 O 3824.04 1.70103 -0.58864 0
M  V30 36583 H 3820.41 0.575088 -0.484538 0
M  V30 36584 H 3822.38 1.63691 -2.49495 0
M  V30 36585 C 3821.13 3.12455 -1.52536 0
M  V30 36586 H 3820.45 3.20642 -2.38807 0
M  V30 36587 H 3821.89 3.91489 -1.62826 0
M  V30 36588 C 3820.35 3.35974 -0.249584 0
M  V30 36589 O 3820.88 3.96055 0.67109 0
M  V30 36590 N 3819.09 2.90235 -0.145676 0
M  V30 36591 H 3818.64 2.41524 -0.895756 0
M  V30 36592 H 3818.59 3.06345 0.707113 0
M  V30 36593 N 3822.37 1.32633 0.851242 0
M  V30 36594 C 3823.59 1.26397 1.63803 0
M  V30 36595 C 3824.01 -0.167421 1.88056 0
M  V30 36596 O 3823.37 -1.10562 1.45198 0
M  V30 36597 C 3823.42 2.02386 2.99536 0
M  V30 36598 O 3823.14 3.3994 2.76355 0
M  V30 36599 C 3824.64 2.03214 3.93978 0
M  V30 36600 H 3821.86 0.435957 0.51008 0
M  V30 36601 H 3824.4 1.74811 1.0612 0
M  V30 36602 H 3822.56 1.57686 3.53856 0
M  V30 36603 H 3822.97 3.78877 3.62702 0
M  V30 36604 H 3824.45 2.6086 4.86473 0
M  V30 36605 H 3824.92 1.01926 4.27209 0
M  V30 36606 H 3825.53 2.47878 3.45596 0
M  V30 36607 N 3823.84 -1.06794 1.159 0
M  V30 36608 C 3824.77 -2.1612 0.883988 0
M  V30 36609 C 3825.76 -1.69272 -0.167679 0
M  V30 36610 O 3826.94 -1.94189 -0.0208504 0
M  V30 36611 C 3824.07 -3.45229 0.378717 0
M  V30 36612 C 3823.02 -4.05559 1.36771 0
M  V30 36613 C 3822.35 -5.29816 0.721049 0
M  V30 36614 C 3823.65 -4.44928 2.73562 0
M  V30 36615 H 3825.34 -2.39383 1.79822 0
M  V30 36616 H 3822.89 -1.15048 0.866029 0
M  V30 36617 H 3824.84 -4.21041 0.173834 0
M  V30 36618 H 3823.57 -3.2157 -0.571007 0
M  V30 36619 H 3822.23 -3.31797 1.55905 0
M  V30 36620 H 3821.87 -5.02451 -0.235 0
M  V30 36621 H 3821.57 -5.71138 1.38111 0
M  V30 36622 H 3823.1 -6.0833 0.52607 0
M  V30 36623 H 3824.51 -5.11845 2.5824 0
M  V30 36624 H 3822.91 -4.9722 3.35995 0
M  V30 36625 H 3823.98 -3.56029 3.29199 0
M  V30 36626 N 3825.32 -0.956681 -1.25241 0
M  V30 36627 C 3826.57 -0.611362 -1.92631 0
M  V30 36628 C 3826.89 0.854639 -1.75274 0
M  V30 36629 O 3826.16 1.60892 -1.11761 0
M  V30 36630 H 3824.74 -0.223121 -0.7129 0
M  V30 36631 H 3827.4 -1.21537 -1.52364 0
M  V30 36632 H 3826.5 -0.842449 -3.00515 0
M  V30 36633 N 3826.8 1.39908 -0.725493 0
M  V30 36634 C 3828.05 2.00305 -0.268754 0
M  V30 36635 C 3828.37 1.57838 1.14509 0
M  V30 36636 O 3827.64 0.822294 1.77806 0
M  V30 36637 H 3826.22 0.740757 -0.0963744 0
M  V30 36638 H 3828.88 1.71099 -0.933333 0
M  V30 36639 H 3827.98 3.1056 -0.309642 0
M  V30 36640 N 3828.28 0.472408 1.50353 0
M  V30 36641 C 3829.53 -0.0821273 2.02333 0
M  V30 36642 C 3829.85 -1.39603 1.3543 0
M  V30 36643 O 3829.11 -1.89987 0.469419 0
M  V30 36644 C 3829.41 -0.312568 3.56031 0
M  V30 36645 C 3829.07 0.919792 4.41419 0
M  V30 36646 C 3827.74 1.25767 4.64474 0
M  V30 36647 C 3830.09 1.74026 4.91289 0
M  V30 36648 C 3827.42 2.41605 5.34644 0
M  V30 36649 C 3829.77 2.88993 5.62731 0
M  V30 36650 C 3828.43 3.23194 5.84039 0
M  V30 36651 H 3827.7 -0.0300525 0.74039 0
M  V30 36652 H 3830.35 0.626757 1.80953 0
M  V30 36653 H 3828.65 -1.10371 3.75933 0
M  V30 36654 H 3830.35 -0.755622 3.93816 0
M  V30 36655 H 3826.94 0.646561 4.23695 0
M  V30 36656 H 3831.12 1.4924 4.7333 0
M  V30 36657 H 3826.38 2.68375 5.49349 0
M  V30 36658 H 3830.55 3.52914 6.00354 0
M  V30 36659 H 3828.18 4.13061 6.38189 0
M  V30 36660 N 3829.76 -1.5626 0.205067 0
M  V30 36661 C 3831.17 -1.58888 -0.150616 0
M  V30 36662 C 3831.37 -1.22151 -1.60254 0
M  V30 36663 O 3830.43 -0.948953 -2.3399 0
M  V30 36664 C 3831.74 -3.0027 0.160763 0
M  V30 36665 C 3833.29 -3.12835 0.101671 0
M  V30 36666 C 3833.77 -4.56366 0.386497 0
M  V30 36667 N 3835.26 -4.61984 0.335473 0
M  V30 36668 C 3835.99 -5.70949 0.529573 0
M  V30 36669 N 3835.49 -6.88343 0.784562 0
M  V30 36670 N 3837.28 -5.60189 0.463142 0
M  V30 36671 H 3829.43 -1.78419 1.15241 0
M  V30 36672 H 3831.69 -0.828521 0.460713 0
M  V30 36673 H 3831.4 -3.31744 1.16786 0
M  V30 36674 H 3831.27 -3.73429 -0.532002 0
M  V30 36675 H 3833.66 -2.81167 -0.896044 0
M  V30 36676 H 3833.74 -2.4204 0.827664 0
M  V30 36677 H 3833.39 -4.88748 1.38157 0
M  V30 36678 H 3833.32 -5.25365 -0.360499 0
M  V30 36679 H 3835.81 -3.7762 0.145412 0
M  V30 36680 H 3836.12 -7.6729 0.921211 0
M  V30 36681 H 3834.47 -6.90127 0.82157 0
M  V30 36682 H 3837.66 -4.67353 0.264282 0
M  V30 36683 H 3837.83 -6.45048 0.617826 0
M  V30 36684 N 3831.24 0.0684638 -1.57451 0
M  V30 36685 C 3832.48 0.772292 -1.89249 0
M  V30 36686 C 3832.84 1.74574 -0.799242 0
M  V30 36687 O 3834.04 2.49491 -1.00038 0
M  V30 36688 C 3832.31 1.45882 -3.26272 0
M  V30 36689 S 3833.87 2.19725 -3.79824 0
M  V30 36690 H 3830.69 0.256747 -0.663025 0
M  V30 36691 H 3833.29 0.0282588 -1.9548 0
M  V30 36692 H 3831.99 0.736575 -4.03736 0
M  V30 36693 H 3831.53 2.24222 -3.23246 0
M  V30 36694 H 3833.54 3.46296 -3.55378 0
M  V30 36695 N 3832.71 1.5389 0.339928 0
M  V30 36696 C 3833.96 1.71564 1.08136 0
M  V30 36697 C 3834.29 0.479325 1.88192 0
M  V30 36698 O 3833.57 -0.523669 1.87318 0
M  V30 36699 C 3833.85 2.98136 2.01958 0
M  V30 36700 C 3833.7 4.31983 1.25341 0
M  V30 36701 C 3835.02 3.20392 3.01723 0
M  V30 36702 H 3832.14 0.624271 0.391733 0
M  V30 36703 H 3834.78 1.86566 0.359576 0
M  V30 36704 H 3832.93 2.85477 2.63506 0
M  V30 36705 H 3834.61 4.56499 0.663799 0
M  V30 36706 H 3832.85 4.30229 0.555465 0
M  V30 36707 H 3833.52 5.16732 1.94145 0
M  V30 36708 H 3836 3.32406 2.50291 0
M  V30 36709 H 3834.87 4.10342 3.64569 0
M  V30 36710 H 3835.13 2.36856 3.73299 0
M  V30 36711 N 3834.19 -0.601133 1.45685 0
M  V30 36712 C 3835.43 -1.3712 1.51583 0
M  V30 36713 C 3835.8 -1.91363 0.156218 0
M  V30 36714 O 3837 -2.6865 0.0899071 0
M  V30 36715 C 3835.27 -2.48373 2.56993 0
M  V30 36716 S 3836.83 -3.36049 2.82163 0
M  V30 36717 H 3833.64 -0.4674 0.535778 0
M  V30 36718 H 3836.25 -0.69298 1.82806 0
M  V30 36719 H 3834.95 -2.06884 3.54439 0
M  V30 36720 H 3834.48 -3.20988 2.27442 0
M  V30 36721 H 3836.5 -4.46704 2.16033 0
M  V30 36722 N 3835.67 -1.33083 -0.844196 0
M  V30 36723 C 3837.08 -1.2177 -1.41524 0
M  V30 36724 C 3837.43 0.165572 -1.955 0
M  V30 36725 O 3836.56 1.06488 -1.88386 0
M  V30 36726 C 3837.15 -2.20458 -2.57262 0
M  V30 36727 C 3835.71 -2.13 -3.10335 0
M  V30 36728 C 3834.86 -2.0824 -1.83115 0
M  V30 36729 H 3837.81 -1.44759 -0.650427 0
M  V30 36730 H 3837.83 -1.8092 -3.34736 0
M  V30 36731 H 3837.34 -3.21124 -2.17947 0
M  V30 36732 H 3835.44 -1.15618 -3.54208 0
M  V30 36733 H 3835.56 -3.03303 -3.70869 0
M  V30 36734 H 3833.92 -1.53636 -2.03146 0
M  V30 36735 H 3834.7 -3.10706 -1.46003 0
M  V30 36736 N 3837.15 1.06178 -1.16464 0
M  V30 36737 C 3838.37 1.83233 -0.971622 0
M  V30 36738 C 3838.8 1.81997 0.475263 0
M  V30 36739 O 3838.16 1.22163 1.33962 0
M  V30 36740 C 3838.2 3.27688 -1.50509 0
M  V30 36741 O 3837.31 4.06204 -0.7122 0
M  V30 36742 H 3836.65 0.566919 -0.345686 0
M  V30 36743 H 3839.18 1.33866 -1.54729 0
M  V30 36744 H 3839.19 3.78506 -1.52307 0
M  V30 36745 H 3837.86 3.27902 -2.55838 0
M  V30 36746 H 3836.44 3.64972 -0.76482 0
M  V30 36747 N 3838.63 0.96331 1.24732 0
M  V30 36748 C 3839.87 0.621569 1.92304 0
M  V30 36749 C 3840.19 -0.845332 1.75725 0
M  V30 36750 O 3839.46 -1.60297 1.12613 0
M  V30 36751 H 3838.04 0.226899 0.711706 0
M  V30 36752 H 3840.71 1.22343 1.51718 0
M  V30 36753 H 3839.8 0.858374 3.00064 0
M  V30 36754 N 3840.1 -1.39522 0.732902 0
M  V30 36755 C 3841.35 -2.00556 0.279926 0
M  V30 36756 C 3841.68 -1.5815 -1.1322 0
M  V30 36757 O 3840.93 -0.800623 -1.78574 0
M  V30 36758 C 3841.23 -3.55899 0.327202 0
M  V30 36759 C 3840.9 -4.17948 1.69206 0
M  V30 36760 C 3839.56 -4.34609 2.06562 0
M  V30 36761 C 3841.91 -4.5239 2.58829 0
M  V30 36762 C 3839.24 -4.83002 3.33055 0
M  V30 36763 C 3841.59 -5.02191 3.84691 0
M  V30 36764 C 3840.26 -5.1706 4.22143 0
M  V30 36765 H 3839.53 -0.733886 0.102432 0
M  V30 36766 H 3842.17 -1.6688 0.939334 0
M  V30 36767 H 3840.48 -3.89588 -0.415781 0
M  V30 36768 H 3842.18 -4.00979 -0.041386 0
M  V30 36769 H 3838.77 -4.05379 1.3916 0
M  V30 36770 H 3842.95 -4.39138 2.31238 0
M  V30 36771 H 3838.21 -4.92699 3.62018 0
M  V30 36772 H 3842.38 -5.27815 4.54296 0
M  V30 36773 H 3840.01 -5.5432 5.20225 0
M  V30 36774 N 3841.58 -0.480375 -1.501 0
M  V30 36775 C 3842.86 0.133422 -1.95144 0
M  V30 36776 C 3843.24 1.561 -1.42113 0
M  V30 36777 O 3842.59 2.19756 -0.626051 0
M  V30 36778 C 3842.8 0.0672291 -3.48935 0
M  V30 36779 C 3844.14 0.25149 -4.23855 0
M  V30 36780 O 3845.17 0.143384 -3.55911 0
M  V30 36781 O 3844.03 0.470851 -5.44468 0
M  V30 36782 H 3841.12 0.106604 -0.8201 0
M  V30 36783 H 3843.67 -0.541442 -1.60831 0
M  V30 36784 H 3842.44 -0.929125 -3.80109 0
M  V30 36785 H 3842.06 0.783145 -3.89811 0
M  V30 36786 N 3843.06 1.56149 -0.213351 0
M  V30 36787 C 3844.31 1.98085 0.420563 0
M  V30 36788 C 3844.63 1.10078 1.60353 0
M  V30 36789 O 3843.89 0.143882 1.9517 0
M  V30 36790 C 3844.19 3.45734 0.905703 0
M  V30 36791 C 3843.85 4.50595 -0.165857 0
M  V30 36792 C 3842.52 4.78994 -0.460245 0
M  V30 36793 C 3844.87 5.13528 -0.890981 0
M  V30 36794 C 3842.2 5.67611 -1.48442 0
M  V30 36795 C 3844.55 6.03253 -1.90443 0
M  V30 36796 C 3843.21 6.3 -2.20583 0
M  V30 36797 H 3842.48 0.724843 0.153895 0
M  V30 36798 H 3845.13 1.88906 -0.31415 0
M  V30 36799 H 3843.43 3.52075 1.71903 0
M  V30 36800 H 3845.13 3.75547 1.40589 0
M  V30 36801 H 3841.72 4.28537 0.0737508 0
M  V30 36802 H 3845.91 4.91664 -0.676782 0
M  V30 36803 H 3841.16 5.86601 -1.72364 0
M  V30 36804 H 3845.34 6.51071 -2.47142 0
M  V30 36805 H 3842.96 6.98464 -3.00086 0
M  V30 36806 N 3844.54 -0.0601128 1.57485 0
M  V30 36807 C 3845.82 -0.790701 1.78906 0
M  V30 36808 C 3846.2 -1.95197 0.803836 0
M  V30 36809 O 3845.54 -2.27935 -0.16063 0
M  V30 36810 C 3845.75 -1.25277 3.2574 0
M  V30 36811 C 3847.1 -1.6814 3.8989 0
M  V30 36812 O 3848.13 -1.34814 3.29702 0
M  V30 36813 O 3846.98 -2.2988 4.958 0
M  V30 36814 H 3844.08 -0.379801 0.734629 0
M  V30 36815 H 3846.62 -0.0392852 1.69655 0
M  V30 36816 H 3845.4 -0.422374 3.89014 0
M  V30 36817 H 3845.02 -2.06515 3.39761 0
M  V30 36818 N 3846.02 -1.54068 -0.331762 0
M  V30 36819 C 3846.95 -1.7921 -1.42885 0
M  V30 36820 C 3847.96 -0.67378 -1.48203 0
M  V30 36821 O 3849.15 -0.950738 -1.51074 0
M  V30 36822 C 3846.25 -1.88748 -2.81474 0
M  V30 36823 C 3845.42 -3.18817 -2.99457 0
M  V30 36824 C 3844.48 -3.19161 -4.18357 0
M  V30 36825 O 3843.51 -3.92835 -4.11909 0
M  V30 36826 N 3844.71 -2.42363 -5.27485 0
M  V30 36827 H 3847.48 -2.73885 -1.21684 0
M  V30 36828 H 3845.04 -1.53264 -0.521708 0
M  V30 36829 H 3847.03 -1.86415 -3.59209 0
M  V30 36830 H 3845.6 -1.01207 -2.95763 0
M  V30 36831 H 3844.82 -3.34177 -2.09091 0
M  V30 36832 H 3846.11 -4.0471 -3.08362 0
M  V30 36833 H 3845.5 -1.8208 -5.35596 0
M  V30 36834 H 3844.06 -2.45817 -6.0367 0
M  V30 36835 N 3847.49 0.593399 -1.46002 0
M  V30 36836 C 3848.46 1.6852 -1.5535 0
M  V30 36837 C 3849.46 1.54899 -0.431627 0
M  V30 36838 O 3850.65 1.5971 -0.695587 0
M  V30 36839 C 3847.78 3.07882 -1.46361 0
M  V30 36840 H 3848.97 1.61593 -2.52641 0
M  V30 36841 H 3846.53 0.81034 -1.33653 0
M  V30 36842 H 3847.26 3.20374 -0.50308 0
M  V30 36843 H 3847.05 3.19177 -2.27746 0
M  V30 36844 H 3848.54 3.87382 -1.55965 0
M  V30 36845 N 3848.97 1.33529 0.837127 0
M  V30 36846 C 3849.9 1.26557 1.96229 0
M  V30 36847 C 3850.88 0.14579 1.69474 0
M  V30 36848 O 3852.07 0.335849 1.91274 0
M  V30 36849 C 3849.2 1.0058 3.32417 0
M  V30 36850 C 3848.15 2.0887 3.73574 0
M  V30 36851 C 3847.48 1.68104 5.07588 0
M  V30 36852 C 3848.78 3.50563 3.87173 0
M  V30 36853 H 3850.47 2.20697 2.0232 0
M  V30 36854 H 3848.02 1.06244 0.972019 0
M  V30 36855 H 3849.97 0.943511 4.10702 0
M  V30 36856 H 3848.7 0.0287842 3.26587 0
M  V30 36857 H 3847.35 2.14144 2.97553 0
M  V30 36858 H 3847 0.691009 4.98231 0
M  V30 36859 H 3846.7 2.40573 5.36096 0
M  V30 36860 H 3848.23 1.63345 5.88346 0
M  V30 36861 H 3849.64 3.4778 4.55765 0
M  V30 36862 H 3848.04 4.21531 4.2712 0
M  V30 36863 H 3849.11 3.88941 2.89573 0
M  V30 36864 N 3850.45 -1.05559 1.17026 0
M  V30 36865 C 3851.7 -1.78141 0.954467 0
M  V30 36866 C 3852.02 -1.8798 -0.518492 0
M  V30 36867 O 3851.29 -1.39388 -1.37651 0
M  V30 36868 H 3849.87 -0.65985 0.350153 0
M  V30 36869 H 3852.53 -1.27474 1.47432 0
M  V30 36870 H 3851.63 -2.79953 1.3796 0
M  V30 36871 N 3851.93 -0.969911 -1.2422 0
M  V30 36872 C 3853.18 -0.631759 -1.91972 0
M  V30 36873 C 3853.5 0.836001 -1.7617 0
M  V30 36874 O 3852.77 1.59698 -1.13461 0
M  V30 36875 H 3851.35 -0.23067 -0.710493 0
M  V30 36876 H 3854.01 -1.23146 -1.51067 0
M  V30 36877 H 3853.11 -0.874275 -2.99604 0
M  V30 36878 N 3853.41 1.39131 -0.740291 0
M  V30 36879 C 3854.65 2.02256 -0.295307 0
M  V30 36880 C 3855.01 1.5748 1.09836 0
M  V30 36881 O 3856.21 2.1284 1.64172 0
M  V30 36882 C 3854.48 3.55161 -0.399389 0
M  V30 36883 S 3856.04 4.38786 -0.0350264 0
M  V30 36884 H 3852.86 0.701578 -0.115368 0
M  V30 36885 H 3855.46 1.69854 -0.967976 0
M  V30 36886 H 3854.17 3.85239 -1.41489 0
M  V30 36887 H 3853.7 3.92323 0.290919 0
M  V30 36888 H 3855.71 4.81976 1.17957 0
M  V30 36889 N 3854.88 0.488329 1.49844 0
M  V30 36890 C 3855.82 -0.333357 2.26763 0
M  V30 36891 C 3856.83 -0.941895 1.32786 0
M  V30 36892 O 3858.02 -0.82738 1.58167 0
M  V30 36893 C 3855.12 -1.48313 3.04724 0
M  V30 36894 C 3854.29 -0.984228 4.26183 0
M  V30 36895 C 3853.35 -2.01009 4.86294 0
M  V30 36896 O 3852.38 -1.58374 5.46723 0
M  V30 36897 N 3853.58 -3.33957 4.74819 0
M  V30 36898 H 3856.34 0.326142 2.9792 0
M  V30 36899 H 3853.9 0.32012 1.58704 0
M  V30 36900 H 3855.9 -2.1667 3.41813 0
M  V30 36901 H 3854.47 -2.04701 2.36255 0
M  V30 36902 H 3853.69 -0.12597 3.93999 0
M  V30 36903 H 3854.97 -0.629101 5.04896 0
M  V30 36904 H 3854.37 -3.71293 4.268 0
M  V30 36905 H 3852.93 -3.98063 5.16129 0
M  V30 36906 N 3856.36 -1.56034 0.221629 0
M  V30 36907 C 3857.27 -2.2392 -0.699798 0
M  V30 36908 C 3858.29 -1.24685 -1.21365 0
M  V30 36909 O 3859.46 -1.57498 -1.25525 0
M  V30 36910 C 3856.53 -2.90588 -1.89101 0
M  V30 36911 C 3855.59 -4.05166 -1.41913 0
M  V30 36912 C 3854.82 -4.68646 -2.55356 0
M  V30 36913 O 3855.05 -4.31114 -3.73492 0
M  V30 36914 O 3853.98 -5.57635 -2.26554 0
M  V30 36915 H 3857.81 -3.03322 -0.151498 0
M  V30 36916 H 3855.39 -1.49397 -0.00882194 0
M  V30 36917 H 3857.27 -3.32669 -2.58669 0
M  V30 36918 H 3855.95 -2.14146 -2.42741 0
M  V30 36919 H 3854.86 -3.67654 -0.691471 0
M  V30 36920 H 3856.19 -4.83351 -0.929104 0
M  V30 36921 N 3857.84 0.0517601 -1.57515 0
M  V30 36922 C 3859.09 0.748173 -1.88495 0
M  V30 36923 C 3859.42 1.762 -0.816525 0
M  V30 36924 O 3858.69 1.93746 0.17104 0
M  V30 36925 C 3858.98 1.43819 -3.30133 0
M  V30 36926 C 3858.83 0.439421 -4.47648 0
M  V30 36927 C 3860.15 2.37806 -3.70319 0
M  V30 36928 H 3857.27 0.270525 -0.685555 0
M  V30 36929 H 3859.91 0.0111123 -1.89997 0
M  V30 36930 H 3858.06 2.06645 -3.28983 0
M  V30 36931 H 3859.73 -0.185169 -4.60928 0
M  V30 36932 H 3857.98 -0.243457 -4.33116 0
M  V30 36933 H 3858.65 0.960254 -5.43584 0
M  V30 36934 H 3861.12 1.85043 -3.72691 0
M  V30 36935 H 3860 2.83079 -4.70274 0
M  V30 36936 H 3860.26 3.23495 -3.01336 0
M  V30 36937 N 3859.32 1.54242 0.323587 0
M  V30 36938 C 3860.6 1.63097 1.07976 0
M  V30 36939 C 3860.98 0.46481 2.05919 0
M  V30 36940 O 3860.32 -0.540922 2.22005 0
M  V30 36941 C 3860.53 3.00093 1.78172 0
M  V30 36942 C 3861.88 3.56138 2.31194 0
M  V30 36943 O 3862.91 3.02398 1.88239 0
M  V30 36944 O 3861.77 4.50183 3.09835 0
M  V30 36945 H 3858.86 0.660461 0.497715 0
M  V30 36946 H 3861.41 1.66588 0.32348 0
M  V30 36947 H 3860.18 3.76406 1.06931 0
M  V30 36948 H 3859.8 3.00279 2.60611 0
M  V30 36949 N 3860.8 -0.585648 1.46314 0
M  V30 36950 C 3861.71 -1.72283 1.59235 0
M  V30 36951 C 3862.72 -1.67364 0.475941 0
M  V30 36952 O 3863.9 -1.87326 0.73966 0
M  V30 36953 C 3860.96 -3.08783 1.57652 0
M  V30 36954 C 3860.03 -3.24988 2.80502 0
M  V30 36955 C 3859.26 -4.54975 2.78986 0
M  V30 36956 O 3859.48 -5.3868 1.87562 0
M  V30 36957 O 3858.42 -4.74365 3.70488 0
M  V30 36958 H 3862.24 -1.6433 2.554 0
M  V30 36959 H 3859.83 -0.752346 1.29074 0
M  V30 36960 H 3861.71 -3.90067 1.59455 0
M  V30 36961 H 3860.38 -3.17179 0.646456 0
M  V30 36962 H 3859.29 -2.43208 2.84255 0
M  V30 36963 H 3860.62 -3.2148 3.72708 0
M  V30 36964 N 3862.28 -1.33971 -0.830033 0
M  V30 36965 C 3863.52 -1.27268 -1.59944 0
M  V30 36966 C 3863.88 0.15704 -1.91357 0
M  V30 36967 O 3865.08 0.348146 -2.66536 0
M  V30 36968 C 3863.35 -2.13184 -2.86857 0
M  V30 36969 S 3864.91 -2.23762 -3.7746 0
M  V30 36970 H 3861.73 -0.452642 -0.548303 0
M  V30 36971 H 3864.33 -1.69104 -0.981021 0
M  V30 36972 H 3863.03 -3.1608 -2.61766 0
M  V30 36973 H 3862.57 -1.72219 -3.53701 0
M  V30 36974 H 3864.58 -1.40518 -4.75888 0
M  V30 36975 N 3863.75 1.04937 -1.17584 0
M  V30 36976 C 3864.72 2.10913 -0.897132 0
M  V30 36977 C 3865.72 1.60397 0.113795 0
M  V30 36978 O 3866.91 1.73795 -0.118665 0
M  V30 36979 C 3864.04 3.39157 -0.344311 0
M  V30 36980 H 3865.23 2.37071 -1.83678 0
M  V30 36981 H 3862.78 1.21222 -0.986655 0
M  V30 36982 H 3863.52 3.18657 0.602361 0
M  V30 36983 H 3863.3 3.77135 -1.07293 0
M  V30 36984 H 3864.79 4.17263 -0.167717 0
M  V30 36985 N 3865.23 0.976485 1.23703 0
M  V30 36986 C 3866.48 0.641931 1.91634 0
M  V30 36987 C 3866.8 -0.826647 1.76611 0
M  V30 36988 O 3866.07 -1.59094 1.14307 0
M  V30 36989 H 3864.65 0.234435 0.70926 0
M  V30 36990 H 3867.31 1.23945 1.50411 0
M  V30 36991 H 3866.41 0.890152 2.99137 0
M  V30 36992 N 3866.71 -1.38737 0.747659 0
M  V30 36993 C 3868.13 -1.53848 0.424604 0
M  V30 36994 C 3868.33 -1.71179 -1.06301 0
M  V30 36995 O 3867.38 -1.71944 -1.84909 0
M  V30 36996 C 3868.69 -2.74898 1.21868 0
M  V30 36997 C 3870.24 -2.88743 1.20816 0
M  V30 36998 C 3870.72 -4.12746 1.98507 0
M  V30 36999 N 3872.21 -4.19811 1.95737 0
M  V30 37000 C 3872.94 -5.14738 2.5265 0
M  V30 37001 N 3872.44 -6.15376 3.18251 0
M  V30 37002 N 3874.23 -5.07046 2.42612 0
M  V30 37003 H 3866.38 -1.25736 1.71185 0
M  V30 37004 H 3868.65 -0.610363 0.725369 0
M  V30 37005 H 3868.35 -2.68476 2.27186 0
M  V30 37006 H 3868.23 -3.67919 0.831574 0
M  V30 37007 H 3870.61 -2.94649 0.163065 0
M  V30 37008 H 3870.69 -1.96749 1.63474 0
M  V30 37009 H 3870.34 -4.07601 3.03024 0
M  V30 37010 H 3870.27 -5.03808 1.53248 0
M  V30 37011 H 3872.76 -3.47732 1.47956 0
M  V30 37012 H 3873.07 -6.84293 3.59113 0
M  V30 37013 H 3871.42 -6.15726 3.22345 0
M  V30 37014 H 3874.61 -4.27362 1.90995 0
M  V30 37015 H 3874.78 -5.80847 2.87264 0
M  V30 37016 N 3868.19 -0.496268 -1.49583 0
M  V30 37017 C 3869.6 -0.151935 -1.58875 0
M  V30 37018 C 3869.8 1.34323 -1.50199 0
M  V30 37019 O 3868.86 2.11877 -1.37348 0
M  V30 37020 C 3870.17 -0.724529 -2.91841 0
M  V30 37021 C 3871.72 -0.690211 -3.05295 0
M  V30 37022 C 3872.2 -1.24078 -4.40872 0
M  V30 37023 N 3873.69 -1.20128 -4.47352 0
M  V30 37024 C 3874.42 -1.59752 -5.50697 0
M  V30 37025 N 3873.92 -2.06947 -6.61169 0
M  V30 37026 N 3875.71 -1.51198 -5.41383 0
M  V30 37027 H 3867.86 -1.46841 -1.53465 0
M  V30 37028 H 3870.12 -0.608789 -0.726691 0
M  V30 37029 H 3869.83 -1.77293 -3.03744 0
M  V30 37030 H 3869.7 -0.182275 -3.76759 0
M  V30 37031 H 3872.09 0.349339 -2.93025 0
M  V30 37032 H 3872.17 -1.26956 -2.22072 0
M  V30 37033 H 3871.82 -2.27909 -4.53894 0
M  V30 37034 H 3871.75 -0.63742 -5.22728 0
M  V30 37035 H 3874.24 -0.855425 -3.68091 0
M  V30 37036 H 3874.55 -2.35265 -7.36118 0
M  V30 37037 H 3872.9 -2.10918 -6.62222 0
M  V30 37038 H 3876.09 -1.1415 -4.53969 0
M  V30 37039 H 3876.26 -1.82403 -6.21798 0
M  V30 37040 N 3869.67 1.55914 -0.2299 0
M  V30 37041 C 3870.91 1.98127 0.398741 0
M  V30 37042 C 3871.23 1.119 1.59698 0
M  V30 37043 O 3870.5 0.197902 1.94898 0
M  V30 37044 H 3869.08 0.731721 0.15031 0
M  V30 37045 H 3871.75 1.92176 -0.324738 0
M  V30 37046 H 3870.84 3.03695 0.719421 0
M  V30 37047 N 3871.14 -0.043406 1.5754 0
M  V30 37048 C 3872.55 -0.591805 1.77072 0
M  V30 37049 C 3872.91 -1.76389 0.859141 0
M  V30 37050 O 3872.03 -2.16342 0.0503106 0
M  V30 37051 C 3872.63 -1.08036 3.21113 0
M  V30 37052 C 3871.18 -1.57439 3.41892 0
M  V30 37053 C 3870.33 -0.506118 2.72642 0
M  V30 37054 H 3873.28 0.18282 1.57643 0
M  V30 37055 H 3873.3 -1.94827 3.26837 0
M  V30 37056 H 3872.82 -0.227085 3.87435 0
M  V30 37057 H 3870.92 -2.44998 2.80725 0
M  V30 37058 H 3871.03 -1.63177 4.50455 0
M  V30 37059 H 3869.39 -0.957836 2.36003 0
M  V30 37060 H 3870.18 0.337449 3.41637 0
M  V30 37061 N 3872.62 -1.54412 -0.315402 0
M  V30 37062 C 3873.86 -1.74736 -1.0605 0
M  V30 37063 C 3874.23 -0.514543 -1.84977 0
M  V30 37064 O 3875.43 -0.595274 -2.62126 0
M  V30 37065 C 3873.7 -2.99247 -1.95412 0
M  V30 37066 S 3875.26 -3.40511 -2.76763 0
M  V30 37067 H 3872.07 -0.614356 -0.357893 0
M  V30 37068 H 3874.68 -1.92599 -0.335546 0
M  V30 37069 H 3873.38 -3.87113 -1.36278 0
M  V30 37070 H 3872.91 -2.83931 -2.72299 0
M  V30 37071 H 3874.93 -2.96451 -3.97909 0
M  V30 37072 N 3874.1 0.57788 -1.46623 0
M  V30 37073 C 3875.33 1.36668 -1.56002 0
M  V30 37074 C 3875.75 1.86997 -0.203433 0
M  V30 37075 O 3875.11 1.61835 0.81726 0
M  V30 37076 C 3875.16 2.52686 -2.57258 0
M  V30 37077 O 3874.26 3.54277 -2.11096 0
M  V30 37078 H 3873.6 0.406812 -0.524786 0
M  V30 37079 H 3876.13 0.700478 -1.92235 0
M  V30 37080 H 3876.14 2.99538 -2.77021 0
M  V30 37081 H 3874.82 2.15408 -3.5577 0
M  V30 37082 H 3873.39 3.13872 -2.01343 0
M  V30 37083 N 3875.58 1.34409 0.822917 0
M  V30 37084 C 3876.81 1.29655 1.60852 0
M  V30 37085 C 3877.22 -0.131539 1.88742 0
M  V30 37086 O 3876.56 -1.08905 1.47937 0
M  V30 37087 C 3876.62 2.01925 2.97433 0
M  V30 37088 C 3876.29 3.51183 2.92437 0
M  V30 37089 C 3877.28 4.46089 2.67021 0
M  V30 37090 C 3874.97 3.93596 3.12069 0
M  V30 37091 C 3876.96 5.81384 2.61289 0
M  V30 37092 C 3874.65 5.2899 3.05961 0
M  V30 37093 C 3875.65 6.22696 2.80604 0
M  V30 37094 O 3875.33 7.55608 2.74429 0
M  V30 37095 H 3875.07 0.44748 0.506693 0
M  V30 37096 H 3877.62 1.77596 1.03194 0
M  V30 37097 H 3875.85 1.48598 3.57009 0
M  V30 37098 H 3877.54 1.90461 3.5844 0
M  V30 37099 H 3878.31 4.14642 2.51589 0
M  V30 37100 H 3874.18 3.21057 3.30822 0
M  V30 37101 H 3877.73 6.54495 2.41417 0
M  V30 37102 H 3873.63 5.60057 3.20947 0
M  V30 37103 H 3874.39 7.65344 2.90156 0
M  V30 37104 N 3877.06 -1.04312 1.18139 0
M  V30 37105 C 3878.28 -1.81664 1.00065 0
M  V30 37106 C 3878.71 -1.8273 -0.446248 0
M  V30 37107 O 3878.06 -1.24279 -1.32002 0
M  V30 37108 C 3878.11 -3.25252 1.55703 0
M  V30 37109 O 3877.22 -4.05019 0.776733 0
M  V30 37110 H 3876.56 -0.561348 0.354661 0
M  V30 37111 H 3879.09 -1.31387 1.56839 0
M  V30 37112 H 3879.1 -3.76035 1.5831 0
M  V30 37113 H 3877.77 -3.23791 2.61022 0
M  V30 37114 H 3876.35 -3.6371 0.822787 0
M  V30 37115 N 3878.53 -0.983032 -1.23184 0
M  V30 37116 C 3879.77 -0.66144 -1.93402 0
M  V30 37117 C 3880.14 0.790724 -1.74962 0
M  V30 37118 O 3881.34 1.22327 -2.39352 0
M  V30 37119 C 3879.61 -1.04434 -3.41801 0
M  V30 37120 S 3881.17 -0.839623 -4.30692 0
M  V30 37121 H 3877.99 -0.242152 -0.668494 0
M  V30 37122 H 3880.59 -1.26323 -1.49207 0
M  V30 37123 H 3879.29 -2.0978 -3.52733 0
M  V30 37124 H 3878.82 -0.43395 -3.90999 0
M  V30 37125 H 3880.84 0.275088 -4.95437 0
M  V30 37126 N 3880.01 1.38338 -0.755006 0
M  V30 37127 C 3880.98 2.28793 -0.136497 0
M  V30 37128 C 3881.98 1.47254 0.64599 0
M  V30 37129 O 3883.17 1.67682 0.472047 0
M  V30 37130 C 3880.3 3.31014 0.815 0
M  V30 37131 H 3881.49 2.84996 -0.933669 0
M  V30 37132 H 3879.04 1.47322 -0.522108 0
M  V30 37133 H 3879.78 2.79905 1.6378 0
M  V30 37134 H 3879.56 3.91261 0.256294 0
M  V30 37135 H 3881.05 3.9865 1.24371 0
M  V30 37136 N 3881.49 0.504194 1.49317 0
M  V30 37137 C 3882.44 -0.286196 2.30833 0
M  V30 37138 C 3883.43 -0.959794 1.39586 0
M  V30 37139 O 3884.64 -0.887118 1.56621 0
M  V30 37140 H 3881.01 -0.111154 0.74374 0
M  V30 37141 H 3882.98 0.421258 2.95412 0
M  V30 37142 C 3881.73 -1.33591 3.21012 0
M  V30 37143 H 3881.06 -0.826988 3.91153 0
M  V30 37144 H 3882.5 -1.86086 3.80983 0
M  V30 37145 C 3880.96 -2.35579 2.40841 0
M  V30 37146 O 3881.49 -3.41523 2.11482 0
M  V30 37147 N 3879.69 -2.0813 2.02806 0
M  V30 37148 H 3879.24 -1.21995 2.26881 0
M  V30 37149 H 3879.2 -2.76596 1.49472 0
M  V30 37150 N 3882.97 -1.5579 0.238166 0
M  V30 37151 C 3884.2 -2.03126 -0.393387 0
M  V30 37152 C 3884.61 -1.11763 -1.52166 0
M  V30 37153 O 3883.97 -0.130373 -1.82034 0
M  V30 37154 C 3884.02 -3.49874 -0.909413 0
M  V30 37155 O 3883.74 -4.37755 0.173887 0
M  V30 37156 C 3885.24 -4.12931 -1.61254 0
M  V30 37157 H 3882.46 -0.664313 -0.0944961 0
M  V30 37158 H 3885.01 -2.01316 0.359477 0
M  V30 37159 H 3883.16 -3.52247 -1.61249 0
M  V30 37160 H 3883.57 -5.24053 -0.216549 0
M  V30 37161 H 3885.05 -5.17331 -1.92542 0
M  V30 37162 H 3885.53 -3.58905 -2.53148 0
M  V30 37163 H 3886.13 -4.14456 -0.954254 0
M  V30 37164 N 3884.45 0.0350506 -1.57561 0
M  V30 37165 C 3885.86 0.582406 -1.77384 0
M  V30 37166 C 3886.21 1.75931 -0.868484 0
M  V30 37167 O 3885.33 2.16312 -0.061783 0
M  V30 37168 C 3885.93 1.06331 -3.21682 0
M  V30 37169 C 3884.49 1.55623 -3.42722 0
M  V30 37170 C 3883.63 0.491652 -2.72907 0
M  V30 37171 H 3886.59 -0.191177 -1.57544 0
M  V30 37172 H 3886.61 1.93091 -3.27866 0
M  V30 37173 H 3886.12 0.206535 -3.8755 0
M  V30 37174 H 3884.22 2.43506 -2.8202 0
M  V30 37175 H 3884.33 1.60786 -4.51314 0
M  V30 37176 H 3882.7 0.945307 -2.36508 0
M  V30 37177 H 3883.48 -0.355562 -3.41454 0
M  V30 37178 N 3885.92 1.54577 0.307209 0
M  V30 37179 C 3887.17 1.7322 1.04112 0
M  V30 37180 C 3887.49 0.517515 1.88007 0
M  V30 37181 O 3886.76 -0.468303 1.9022 0
M  V30 37182 H 3885.34 0.638708 0.387377 0
M  V30 37183 H 3888.01 1.91917 0.339693 0
M  V30 37184 H 3887.1 2.6188 1.69779 0
M  V30 37185 N 3887.4 -0.570096 1.46927 0
M  V30 37186 C 3888.65 -1.3252 1.52587 0
M  V30 37187 C 3888.97 -1.94127 0.184325 0
M  V30 37188 O 3888.24 -1.79245 -0.790446 0
M  V30 37189 H 3886.82 -0.492071 0.562027 0
M  V30 37190 H 3889.48 -0.666714 1.83142 0
M  V30 37191 H 3888.58 -2.12541 2.28545 0
M  V30 37192 N 3888.88 -1.34844 -0.815777 0
M  V30 37193 C 3890.13 -1.27602 -1.57239 0
M  V30 37194 C 3890.46 0.152093 -1.93904 0
M  V30 37195 O 3889.71 1.11512 -1.60821 0
M  V30 37196 C 3890.01 -2.11922 -2.87791 0
M  V30 37197 C 3889.68 -3.60836 -2.70386 0
M  V30 37198 C 3888.34 -4.01428 -2.65346 0
M  V30 37199 C 3890.69 -4.55364 -2.53561 0
M  V30 37200 C 3888.02 -5.3473 -2.41413 0
M  V30 37201 C 3890.37 -5.88854 -2.31158 0
M  V30 37202 C 3889.03 -6.28602 -2.24535 0
M  V30 37203 H 3888.3 -0.466928 -0.575378 0
M  V30 37204 H 3890.95 -1.66654 -0.943326 0
M  V30 37205 H 3889.26 -1.65721 -3.55027 0
M  V30 37206 H 3890.95 -2.0366 -3.45432 0
M  V30 37207 H 3887.54 -3.28618 -2.75151 0
M  V30 37208 H 3891.73 -4.24895 -2.56473 0
M  V30 37209 H 3886.98 -5.64538 -2.34749 0
M  V30 37210 H 3891.16 -6.61686 -2.17128 0
M  V30 37211 H 3888.78 -7.31827 -2.05752 0
M  V30 37212 N 3890.36 1.03684 -1.1869 0
M  V30 37213 C 3891.29 2.137 -0.940977 0
M  V30 37214 C 3892.27 1.69657 0.12274 0
M  V30 37215 O 3893.46 1.94176 -0.0306426 0
M  V30 37216 C 3890.59 3.44103 -0.470115 0
M  V30 37217 C 3889.54 4.0179 -1.47475 0
M  V30 37218 C 3888.87 5.27718 -0.861267 0
M  V30 37219 C 3890.17 4.37519 -2.85262 0
M  V30 37220 H 3891.86 2.34531 -1.86106 0
M  V30 37221 H 3889.41 1.12711 -0.896227 0
M  V30 37222 H 3891.36 4.20432 -0.285404 0
M  V30 37223 H 3890.08 3.22971 0.485547 0
M  V30 37224 H 3888.74 3.27547 -1.64647 0
M  V30 37225 H 3888.39 5.02897 0.101702 0
M  V30 37226 H 3888.09 5.67276 -1.53206 0
M  V30 37227 H 3889.61 6.06721 -0.687173 0
M  V30 37228 H 3891.03 5.04818 -2.7172 0
M  V30 37229 H 3889.42 4.88137 -3.4906 0
M  V30 37230 H 3890.49 3.47175 -3.38522 0
M  V30 37231 N 3891.84 0.989551 1.22661 0
M  V30 37232 C 3893.08 0.671687 1.93048 0
M  V30 37233 C 3893.44 -0.781434 1.75378 0
M  V30 37234 O 3894.64 -1.21056 2.39998 0
M  V30 37235 C 3892.91 1.06246 3.41243 0
M  V30 37236 S 3894.47 0.862452 4.30241 0
M  V30 37237 H 3891.29 0.245693 0.6672 0
M  V30 37238 H 3893.89 1.27112 1.48535 0
M  V30 37239 H 3892.6 2.11647 3.51616 0
M  V30 37240 H 3892.13 0.45468 3.90764 0
M  V30 37241 H 3894.14 -0.24881 4.95576 0
M  V30 37242 N 3893.32 -1.37936 0.762332 0
M  V30 37243 C 3894.56 -1.99522 0.321767 0
M  V30 37244 C 3894.88 -1.60818 -1.10284 0
M  V30 37245 O 3894.15 -0.869148 -1.75564 0
M  V30 37246 H 3892.73 -0.737941 0.11598 0
M  V30 37247 H 3895.4 -1.68564 0.978368 0
M  V30 37248 H 3894.49 -3.0963 0.391873 0
M  V30 37249 N 3894.79 -0.512106 -1.49048 0
M  V30 37250 C 3896.03 0.0266765 -2.04383 0
M  V30 37251 C 3896.4 1.33251 -1.38232 0
M  V30 37252 O 3897.6 1.95622 -1.84351 0
M  V30 37253 C 3895.87 0.16453 -3.57021 0
M  V30 37254 S 3897.43 0.655958 -4.33869 0
M  V30 37255 H 3894.25 -0.00351839 -0.710991 0
M  V30 37256 H 3896.85 -0.688602 -1.82971 0
M  V30 37257 H 3895.55 -0.790984 -4.02705 0
M  V30 37258 H 3895.08 0.90472 -3.82856 0
M  V30 37259 H 3897.1 1.92338 -4.57406 0
M  V30 37260 N 3896.27 1.55662 -0.246424 0
M  V30 37261 C 3897.68 1.84925 0.25682 0
M  V30 37262 C 3898.03 1.16823 1.57628 0
M  V30 37263 O 3897.16 0.446452 2.11745 0
M  V30 37264 C 3897.75 3.35485 0.472756 0
M  V30 37265 C 3896.31 3.64977 0.920266 0
M  V30 37266 C 3895.46 2.773 -0.00278646 0
M  V30 37267 H 3898.41 1.51612 -0.468998 0
M  V30 37268 H 3898.43 3.57039 1.31543 0
M  V30 37269 H 3897.94 3.85023 -0.487732 0
M  V30 37270 H 3896.04 3.20916 1.89324 0
M  V30 37271 H 3896.16 4.7275 0.777457 0
M  V30 37272 H 3894.52 2.49572 0.508495 0
M  V30 37273 H 3895.3 3.29644 -0.958639 0
M  V30 37274 N 3897.75 -0.0266943 1.57577 0
M  V30 37275 C 3898.68 -1.05421 2.03517 0
M  V30 37276 C 3899.69 -1.32323 0.948385 0
M  V30 37277 O 3900.88 -1.29769 1.22565 0
M  V30 37278 C 3897.98 -2.39528 2.39749 0
M  V30 37279 C 3897.16 -2.31947 3.70836 0
M  V30 37280 C 3896.22 -3.48524 3.9423 0
M  V30 37281 O 3895.24 -3.27911 4.65256 0
M  V30 37282 N 3896.44 -4.70473 3.40053 0
M  V30 37283 H 3899.21 -0.662627 2.92283 0
M  V30 37284 H 3896.77 -0.214595 1.60471 0
M  V30 37285 H 3898.76 -3.16241 2.52535 0
M  V30 37286 H 3897.33 -2.70523 1.56641 0
M  V30 37287 H 3896.55 -1.40319 3.68381 0
M  V30 37288 H 3897.84 -2.24027 4.56825 0
M  V30 37289 H 3897.24 -4.9012 2.82487 0
M  V30 37290 H 3895.79 -5.44542 3.58214 0
M  V30 37291 N 3899.23 -1.54738 -0.299007 0
M  V30 37292 C 3900.48 -1.73769 -1.03192 0
M  V30 37293 C 3900.8 -0.527478 -1.8773 0
M  V30 37294 O 3900.07 0.458208 -1.90466 0
M  V30 37295 H 3898.65 -0.640754 -0.383984 0
M  V30 37296 H 3901.31 -1.92094 -0.329511 0
M  V30 37297 H 3900.4 -2.62777 -1.68388 0
M  V30 37298 N 3900.71 0.562296 -1.47228 0
M  V30 37299 C 3901.94 1.34328 -1.5697 0
M  V30 37300 C 3902.34 1.87951 -0.217045 0
M  V30 37301 O 3901.69 1.6541 0.799081 0
M  V30 37302 C 3901.75 2.55328 -2.53077 0
M  V30 37303 C 3901.41 2.23028 -3.98883 0
M  V30 37304 C 3902.41 1.80627 -4.87514 0
M  V30 37305 C 3900.09 2.34544 -4.44179 0
M  V30 37306 C 3902.09 1.50165 -6.19459 0
M  V30 37307 C 3899.78 2.03694 -5.76153 0
M  V30 37308 C 3900.77 1.61572 -6.63614 0
M  V30 37309 O 3900.46 1.31112 -7.93136 0
M  V30 37310 H 3900.19 0.415975 -0.532861 0
M  V30 37311 H 3902.75 0.688518 -1.93516 0
M  V30 37312 H 3900.98 3.23678 -2.11588 0
M  V30 37313 H 3902.67 3.17403 -2.53002 0
M  V30 37314 H 3903.43 1.71228 -4.53769 0
M  V30 37315 H 3899.31 2.66289 -3.76313 0
M  V30 37316 H 3902.86 1.17214 -6.87682 0
M  V30 37317 H 3898.75 2.12724 -6.09441 0
M  V30 37318 H 3899.52 1.44785 -8.05593 0
M  V30 37319 N 3902.18 1.35274 0.808615 0
M  V30 37320 C 3903.43 1.28434 1.5656 0
M  V30 37321 C 3903.76 -0.141808 1.93982 0
M  V30 37322 O 3903.01 -1.10658 1.61411 0
M  V30 37323 C 3903.31 2.13445 2.86663 0
M  V30 37324 C 3902.98 3.62265 2.68468 0
M  V30 37325 C 3901.64 4.0283 2.63214 0
M  V30 37326 C 3903.99 4.56702 2.51143 0
M  V30 37327 C 3901.32 5.36003 2.38574 0
M  V30 37328 C 3903.67 5.90071 2.28032 0
M  V30 37329 C 3902.34 6.29784 2.21199 0
M  V30 37330 H 3901.61 0.469973 0.572893 0
M  V30 37331 H 3904.25 1.67152 0.934475 0
M  V30 37332 H 3902.56 1.67601 3.54143 0
M  V30 37333 H 3904.26 2.05489 3.44347 0
M  V30 37334 H 3900.85 3.30073 2.73404 0
M  V30 37335 H 3905.03 4.26249 2.54216 0
M  V30 37336 H 3900.29 5.65775 2.31751 0
M  V30 37337 H 3904.46 6.62828 2.13616 0
M  V30 37338 H 3902.09 7.32908 2.01868 0
M  V30 37339 N 3903.66 -1.03053 1.19239 0
M  V30 37340 C 3905.08 -1.28671 0.944246 0
M  V30 37341 C 3905.28 -1.97801 -0.384344 0
M  V30 37342 O 3904.33 -2.26486 -1.11625 0
M  V30 37343 C 3905.65 -2.13543 2.11707 0
M  V30 37344 C 3907.2 -2.26856 2.15651 0
M  V30 37345 C 3907.67 -3.15099 3.32381 0
M  V30 37346 N 3909.16 -3.22687 3.32306 0
M  V30 37347 C 3909.9 -3.91151 4.19271 0
M  V30 37348 N 3909.39 -4.61859 5.16389 0
M  V30 37349 N 3911.19 -3.87533 4.07154 0
M  V30 37350 H 3903.34 -0.565951 2.04721 0
M  V30 37351 H 3905.6 -0.312312 0.895078 0
M  V30 37352 H 3905.31 -1.70067 3.07848 0
M  V30 37353 H 3905.18 -3.1425 2.0863 0
M  V30 37354 H 3907.57 -2.69563 1.20083 0
M  V30 37355 H 3907.65 -1.25704 2.22783 0
M  V30 37356 H 3907.29 -2.73101 4.28227 0
M  V30 37357 H 3907.22 -4.16306 3.22486 0
M  V30 37358 H 3909.71 -2.72327 2.62005 0
M  V30 37359 H 3910.03 -5.11726 5.79099 0
M  V30 37360 H 3908.37 -4.6073 5.20339 0
M  V30 37361 H 3911.56 -3.31432 3.30561 0
M  V30 37362 H 3911.73 -4.40617 4.75143 0
M  V30 37363 N 3905.14 -0.996042 -1.22134 0
M  V30 37364 C 3906.1 -0.554025 -2.22403 0
M  V30 37365 C 3907.1 0.364804 -1.56607 0
M  V30 37366 O 3908.29 0.156327 -1.73497 0
M  V30 37367 C 3905.43 0.193734 -3.40349 0
M  V30 37368 H 3906.62 -1.44079 -2.63023 0
M  V30 37369 H 3904.17 -0.783584 -1.35239 0
M  V30 37370 H 3904.91 1.09635 -3.05206 0
M  V30 37371 H 3904.69 -0.46604 -3.89321 0
M  V30 37372 H 3906.18 0.491048 -4.14703 0
M  V30 37373 N 3906.62 1.37529 -0.769636 0
M  V30 37374 C 3907.87 1.99349 -0.332344 0
M  V30 37375 C 3908.19 1.61401 1.09429 0
M  V30 37376 O 3907.46 0.878446 1.751 0
M  V30 37377 H 3906.04 0.737316 -0.119892 0
M  V30 37378 H 3908.7 1.68043 -0.987294 0
M  V30 37379 H 3907.8 3.09418 -0.408287 0
M  V30 37380 N 3908.1 0.520003 1.48774 0
M  V30 37381 C 3909.03 -0.285182 2.27419 0
M  V30 37382 C 3910.04 -0.913517 1.34754 0
M  V30 37383 O 3911.23 -0.793644 1.59886 0
M  V30 37384 C 3908.33 -1.41816 3.07801 0
M  V30 37385 C 3907.5 -0.893607 4.28175 0
M  V30 37386 C 3906.56 -1.90649 4.90448 0
M  V30 37387 O 3905.59 -1.46742 5.4996 0
M  V30 37388 N 3906.79 -3.2381 4.81796 0
M  V30 37389 H 3909.56 0.389262 2.97161 0
M  V30 37390 H 3907.12 0.353712 1.57989 0
M  V30 37391 H 3909.11 -2.0937 3.46332 0
M  V30 37392 H 3907.68 -1.99643 2.40544 0
M  V30 37393 H 3906.9 -0.0423686 3.94177 0
M  V30 37394 H 3908.19 -0.521863 5.06117 0
M  V30 37395 H 3907.58 -3.62157 4.34579 0
M  V30 37396 H 3906.14 -3.87026 5.24456 0
M  V30 37397 N 3909.57 -1.55529 0.254676 0
M  V30 37398 C 3910.82 -1.98737 -0.36717 0
M  V30 37399 C 3911.14 -1.14427 -1.57897 0
M  V30 37400 O 3910.41 -0.228884 -1.94558 0
M  V30 37401 H 3908.99 -0.73402 -0.13865 0
M  V30 37402 H 3911.66 -1.91635 0.35527 0
M  V30 37403 H 3910.75 -3.04801 -0.671015 0
M  V30 37404 N 3911.05 0.0183372 -1.57589 0
M  V30 37405 C 3912 1.0237 -2.03726 0
M  V30 37406 C 3912.99 1.31404 -0.928538 0
M  V30 37407 O 3914.18 1.30809 -1.19239 0
M  V30 37408 C 3911.31 2.3215 -2.52905 0
M  V30 37409 C 3910.39 2.0616 -3.70619 0
M  V30 37410 N 3910.78 1.50264 -4.82964 0
M  V30 37411 C 3909.08 2.36393 -3.78199 0
M  V30 37412 C 3909.78 1.40325 -5.64521 0
M  V30 37413 N 3908.76 1.88254 -5.09962 0
M  V30 37414 H 3912.56 0.58572 -2.88004 0
M  V30 37415 H 3910.08 0.224424 -1.60842 0
M  V30 37416 H 3912.07 3.04995 -2.84224 0
M  V30 37417 H 3910.73 2.76618 -1.70038 0
M  V30 37418 H 3911.74 1.1839 -5.04187 0
M  V30 37419 H 3908.42 2.83861 -3.06152 0
M  V30 37420 H 3909.81 0.97507 -6.64787 0
M  V30 37421 N 3912.53 1.54894 0.290797 0
M  V30 37422 C 3913.77 1.76401 1.03257 0
M  V30 37423 C 3914.13 0.543906 1.84135 0
M  V30 37424 O 3915.34 0.6369 2.61146 0
M  V30 37425 C 3913.61 3.02318 1.90626 0
M  V30 37426 S 3915.17 3.44871 2.71311 0
M  V30 37427 H 3911.98 0.619972 0.348074 0
M  V30 37428 H 3914.59 1.93108 0.304863 0
M  V30 37429 H 3913.29 3.89232 1.30102 0
M  V30 37430 H 3912.82 2.88227 2.67747 0
M  V30 37431 H 3914.84 3.02744 3.93142 0
M  V30 37432 N 3914.01 -0.55448 1.47524 0
M  V30 37433 C 3915.25 -1.31348 1.54518 0
M  V30 37434 C 3915.59 -1.93084 0.207926 0
M  V30 37435 O 3914.86 -1.78012 -0.783718 0
M  V30 37436 C 3915.15 -2.42152 2.66523 0
M  V30 37437 C 3915 -1.85266 4.09874 0
M  V30 37438 C 3916.32 -3.44063 2.74424 0
M  V30 37439 H 3913.44 -0.476209 0.562489 0
M  V30 37440 H 3916.08 -0.620215 1.79592 0
M  V30 37441 H 3914.23 -3.01286 2.45274 0
M  V30 37442 H 3915.9 -1.30372 4.42494 0
M  V30 37443 H 3914.14 -1.15927 4.18023 0
M  V30 37444 H 3914.81 -2.6538 4.84022 0
M  V30 37445 H 3917.29 -2.94852 2.93601 0
M  V30 37446 H 3916.17 -4.19017 3.54565 0
M  V30 37447 H 3916.43 -4.03084 1.81591 0
M  V30 37448 N 3915.49 -1.35701 -0.80143 0
M  V30 37449 C 3916.71 -1.3255 -1.59516 0
M  V30 37450 C 3917.14 0.0933913 -1.87868 0
M  V30 37451 O 3916.49 1.06177 -1.46956 0
M  V30 37452 C 3916.54 -2.14286 -2.90024 0
M  V30 37453 O 3915.65 -1.52711 -3.83084 0
M  V30 37454 H 3914.99 -0.454223 -0.484332 0
M  V30 37455 H 3917.52 -1.78816 -0.994284 0
M  V30 37456 H 3917.53 -2.26429 -3.39402 0
M  V30 37457 H 3916.2 -3.17436 -2.68714 0
M  V30 37458 H 3914.78 -1.49438 -3.41647 0
M  V30 37459 N 3916.96 1.02419 -1.19783 0
M  V30 37460 C 3918.21 1.75548 -1.00136 0
M  V30 37461 C 3918.53 1.89289 0.46847 0
M  V30 37462 O 3917.8 1.42988 1.33907 0
M  V30 37463 H 3916.38 0.650334 -0.367524 0
M  V30 37464 H 3919.05 1.23521 -1.5076 0
M  V30 37465 H 3918.14 2.76196 -1.45334 0
M  V30 37466 N 3918.44 1.0025 1.21604 0
M  V30 37467 C 3919.37 0.580951 2.26157 0
M  V30 37468 C 3920.35 -0.396988 1.65403 0
M  V30 37469 O 3921.54 -0.285518 1.9209 0
M  V30 37470 C 3918.67 -0.0956954 3.47168 0
M  V30 37471 C 3917.62 0.801769 4.20423 0
M  V30 37472 C 3916.95 -0.00832843 5.34699 0
M  V30 37473 C 3918.25 2.1032 4.78083 0
M  V30 37474 H 3919.94 1.45491 2.61673 0
M  V30 37475 H 3917.49 0.701017 1.25785 0
M  V30 37476 H 3919.44 -0.402067 4.19478 0
M  V30 37477 H 3918.17 -1.00427 3.10776 0
M  V30 37478 H 3916.83 1.09193 3.49961 0
M  V30 37479 H 3916.47 -0.918119 4.9455 0
M  V30 37480 H 3916.17 0.589208 5.84638 0
M  V30 37481 H 3917.7 -0.308573 6.0982 0
M  V30 37482 H 3919.11 1.86014 5.42284 0
M  V30 37483 H 3917.51 2.65037 5.38401 0
M  V30 37484 H 3918.58 2.77562 3.97602 0
M  V30 37485 N 3919.92 -1.37119 0.776919 0
M  V30 37486 C 3921.17 -1.9917 0.342911 0
M  V30 37487 C 3921.49 -1.61979 -1.08572 0
M  V30 37488 O 3920.76 -0.88772 -1.74632 0
M  V30 37489 H 3919.34 -0.73667 0.123801 0
M  V30 37490 H 3922 -1.67517 0.996192 0
M  V30 37491 H 3921.1 -3.09197 0.424691 0
M  V30 37492 N 3921.4 -0.527886 -1.48496 0
M  V30 37493 C 3922.65 0.00697598 -2.02499 0
M  V30 37494 C 3922.97 1.3448 -1.40518 0
M  V30 37495 O 3922.23 1.88114 -0.539608 0
M  V30 37496 C 3922.53 0.180214 -3.56945 0
M  V30 37497 C 3922.19 -1.08299 -4.37701 0
M  V30 37498 C 3920.86 -1.42919 -4.59486 0
M  V30 37499 C 3923.21 -1.9214 -4.84491 0
M  V30 37500 C 3920.54 -2.61282 -5.25308 0
M  V30 37501 C 3922.89 -3.09679 -5.51617 0
M  V30 37502 C 3921.55 -3.44647 -5.71642 0
M  V30 37503 H 3920.82 0.00255269 -0.740996 0
M  V30 37504 H 3923.47 -0.693484 -1.78502 0
M  V30 37505 H 3921.77 0.963424 -3.7977 0
M  V30 37506 H 3923.47 0.608939 -3.9635 0
M  V30 37507 H 3920.06 -0.803367 -4.21004 0
M  V30 37508 H 3924.25 -1.66705 -4.67465 0
M  V30 37509 H 3919.5 -2.88579 -5.3901 0
M  V30 37510 H 3923.68 -3.74952 -5.86842 0
M  V30 37511 H 3921.3 -4.36462 -6.22418 0
M  V30 37512 N 3922.88 1.55391 -0.26292 0
M  V30 37513 C 3924.1 2.04182 0.363936 0
M  V30 37514 C 3924.53 1.14046 1.49583 0
M  V30 37515 O 3923.89 0.136585 1.80785 0
M  V30 37516 C 3923.93 3.50824 0.83398 0
M  V30 37517 O 3923.04 3.63799 1.94228 0
M  V30 37518 H 3922.38 0.659508 0.0771077 0
M  V30 37519 H 3924.91 2.00777 -0.393659 0
M  V30 37520 H 3924.92 3.91954 1.13297 0
M  V30 37521 H 3923.59 4.159 0.00577522 0
M  V30 37522 H 3922.17 3.34569 1.64675 0
M  V30 37523 N 3924.36 -0.00997961 1.57597 0
M  V30 37524 C 3925.77 -0.554112 1.78288 0
M  V30 37525 C 3926.12 -1.74527 0.896363 0
M  V30 37526 O 3925.24 -2.16186 0.0961885 0
M  V30 37527 C 3925.84 -1.012 3.23333 0
M  V30 37528 C 3924.4 -1.50151 3.45154 0
M  V30 37529 C 3923.54 -0.448173 2.73654 0
M  V30 37530 H 3926.49 0.216217 1.5722 0
M  V30 37531 H 3926.52 -1.87851 3.30896 0
M  V30 37532 H 3926.03 -0.144853 3.8783 0
M  V30 37533 H 3924.13 -2.38989 2.85859 0
M  V30 37534 H 3924.24 -1.53586 4.53815 0
M  V30 37535 H 3922.61 -0.907561 2.37982 0
M  V30 37536 H 3923.39 0.409839 3.40845 0
M  V30 37537 N 3925.83 -1.55046 -0.282578 0
M  V30 37538 C 3927.08 -1.74854 -1.01343 0
M  V30 37539 C 3927.4 -0.547359 -1.8716 0
M  V30 37540 O 3926.67 0.437981 -1.90941 0
M  V30 37541 H 3925.25 -0.64479 -0.377167 0
M  V30 37542 H 3927.91 -1.92433 -0.309118 0
M  V30 37543 H 3927.01 -2.64548 -1.65592 0
M  V30 37544 N 3927.31 0.546649 -1.47816 0
M  V30 37545 C 3928.72 1.12872 -1.48717 0
M  V30 37546 C 3929.07 1.9463 -0.247681 0
M  V30 37547 O 3928.2 2.06515 0.646579 0
M  V30 37548 C 3928.79 2.05366 -2.69463 0
M  V30 37549 C 3927.35 2.58824 -2.7329 0
M  V30 37550 C 3926.5 1.35425 -2.41982 0
M  V30 37551 H 3929.45 0.332719 -1.55173 0
M  V30 37552 H 3929.47 2.89404 -2.47033 0
M  V30 37553 H 3928.98 1.45833 -3.59658 0
M  V30 37554 H 3927.08 3.22125 -1.8726 0
M  V30 37555 H 3927.2 2.99096 -3.7427 0
M  V30 37556 H 3925.56 1.6645 -1.92786 0
M  V30 37557 H 3926.34 0.776695 -3.34398 0
M  V30 37558 N 3928.79 1.36124 0.794222 0
M  V30 37559 C 3929.72 1.2592 1.91512 0
M  V30 37560 C 3930.73 0.179743 1.61805 0
M  V30 37561 O 3931.92 0.434059 1.73142 0
M  V30 37562 C 3929.02 0.919076 3.262 0
M  V30 37563 C 3928.2 2.09944 3.83722 0
M  V30 37564 C 3927.26 1.73313 4.96839 0
M  V30 37565 O 3926.28 2.45342 5.13611 0
M  V30 37566 N 3927.48 0.663988 5.7669 0
M  V30 37567 H 3930.25 2.22495 2.00789 0
M  V30 37568 H 3927.81 1.29456 0.972257 0
M  V30 37569 H 3929.8 0.655278 3.9936 0
M  V30 37570 H 3928.37 0.0426155 3.12571 0
M  V30 37571 H 3927.59 2.52632 3.02607 0
M  V30 37572 H 3928.88 2.88814 4.18884 0
M  V30 37573 H 3928.28 0.0658065 5.65662 0
M  V30 37574 H 3926.83 0.460003 6.50175 0
M  V30 37575 N 3930.27 -1.01782 1.20325 0
M  V30 37576 C 3931.54 -1.72521 0.921734 0
M  V30 37577 C 3931.92 -2.03265 -0.569803 0
M  V30 37578 O 3931.27 -1.69614 -1.53112 0
M  V30 37579 C 3931.48 -2.99396 1.7934 0
M  V30 37580 C 3932.83 -3.72685 2.03448 0
M  V30 37581 O 3933.85 -3.09349 1.76583 0
M  V30 37582 O 3932.71 -4.86575 2.48812 0
M  V30 37583 H 3929.81 -0.751822 0.344519 0
M  V30 37584 H 3932.35 -1.07641 1.31192 0
M  V30 37585 H 3931.13 -2.72989 2.80344 0
M  V30 37586 H 3930.75 -3.72016 1.40321 0
M  V30 37587 N 3931.75 -1.00894 -1.21071 0
M  V30 37588 C 3932.97 -0.712847 -1.94232 0
M  V30 37589 C 3933.39 0.725218 -1.74316 0
M  V30 37590 O 3932.75 1.49109 -1.05227 0
M  V30 37591 C 3932.8 -1.02937 -3.46535 0
M  V30 37592 O 3932.52 -2.41095 -3.65794 0
M  V30 37593 C 3934.02 -0.753243 -4.36854 0
M  V30 37594 H 3931.24 -0.262378 -0.617575 0
M  V30 37595 H 3933.78 -1.34805 -1.53779 0
M  V30 37596 H 3931.94 -0.439701 -3.84897 0
M  V30 37597 H 3932.35 -2.52262 -4.59852 0
M  V30 37598 H 3933.83 -1.02486 -5.42403 0
M  V30 37599 H 3934.3 0.312684 -4.38086 0
M  V30 37600 H 3934.91 -1.32471 -4.04143 0
M  V30 37601 N 3933.22 1.36705 -0.78418 0
M  V30 37602 C 3934.64 1.81961 -0.417999 0
M  V30 37603 C 3934.99 1.65266 1.05743 0
M  V30 37604 O 3934.11 1.17067 1.82 0
M  V30 37605 C 3934.71 3.30351 -0.751927 0
M  V30 37606 C 3933.27 3.73835 -0.438644 0
M  V30 37607 C 3932.41 2.59052 -0.989308 0
M  V30 37608 H 3935.36 1.25001 -0.977776 0
M  V30 37609 H 3935.38 3.80478 -0.0411008 0
M  V30 37610 H 3934.9 3.4247 -1.82582 0
M  V30 37611 H 3933 3.67279 0.627428 0
M  V30 37612 H 3933.11 4.69473 -0.95559 0
M  V30 37613 H 3931.47 2.51332 -0.412827 0
M  V30 37614 H 3932.26 2.73959 -2.06885 0
M  V30 37615 N 3934.7 0.535753 1.48214 0
M  V30 37616 C 3935.98 -0.0609033 1.95505 0
M  V30 37617 C 3936.36 -1.50718 1.47809 0
M  V30 37618 O 3935.71 -2.17281 0.70718 0
M  V30 37619 C 3935.92 0.0623223 3.48944 0
M  V30 37620 C 3937.27 -0.0940058 4.24496 0
M  V30 37621 O 3938.29 -0.0111906 3.56198 0
M  V30 37622 O 3937.15 -0.268451 5.4584 0
M  V30 37623 H 3934.24 -0.0760934 0.823492 0
M  V30 37624 H 3936.79 0.60076 1.5871 0
M  V30 37625 H 3935.56 1.06956 3.76399 0
M  V30 37626 H 3935.18 -0.63793 3.92449 0
M  V30 37627 N 3936.18 -1.5525 0.271158 0
M  V30 37628 C 3937.13 -2.22371 -0.61803 0
M  V30 37629 C 3938.1 -1.19581 -1.1528 0
M  V30 37630 O 3939.28 -1.4811 -1.20283 0
M  V30 37631 C 3936.42 -2.94551 -1.79816 0
M  V30 37632 C 3935.54 -4.12051 -1.29762 0
M  V30 37633 C 3934.67 -4.71885 -2.43923 0
M  V30 37634 C 3933.71 -5.81586 -1.90852 0
M  V30 37635 N 3932.85 -6.35499 -2.98471 0
M  V30 37636 H 3937.69 -2.97974 -0.0389932 0
M  V30 37637 H 3935.22 -1.47098 -0.0074805 0
M  V30 37638 H 3937.18 -3.34613 -2.49178 0
M  V30 37639 H 3935.81 -2.21378 -2.34929 0
M  V30 37640 H 3934.86 -3.77136 -0.497222 0
M  V30 37641 H 3936.18 -4.91174 -0.868871 0
M  V30 37642 H 3935.33 -5.14646 -3.21286 0
M  V30 37643 H 3934.07 -3.92029 -2.90111 0
M  V30 37644 H 3933.07 -5.38278 -1.11967 0
M  V30 37645 H 3934.3 -6.63307 -1.45604 0
M  V30 37646 H 3932.24 -5.5854 -3.44048 0
M  V30 37647 H 3932.16 -7.09884 -2.60001 0
M  V30 37648 H 3933.43 -6.82919 -3.75821 0
M  V30 37649 N 3937.66 0.00162173 -1.576 0
M  V30 37650 C 3938.57 1.00992 -2.1175 0
M  V30 37651 C 3939.58 1.37803 -1.06237 0
M  V30 37652 O 3940.76 1.46568 -1.3813 0
M  V30 37653 C 3937.83 2.28355 -2.60873 0
M  V30 37654 C 3936.89 1.97872 -3.80979 0
M  V30 37655 C 3936.12 3.19164 -4.2775 0
M  V30 37656 O 3936.34 4.30792 -3.73864 0
M  V30 37657 O 3935.28 3.03256 -5.19922 0
M  V30 37658 H 3939.1 0.579615 -2.98118 0
M  V30 37659 H 3936.69 0.220349 -1.47766 0
M  V30 37660 H 3938.57 3.03182 -2.92675 0
M  V30 37661 H 3937.24 2.70627 -1.77603 0
M  V30 37662 H 3936.15 1.20527 -3.54153 0
M  V30 37663 H 3937.48 1.60438 -4.65317 0
M  V30 37664 N 3939.14 1.55194 0.274352 0
M  V30 37665 C 3940.05 1.91076 1.36115 0
M  V30 37666 C 3941.06 0.80785 1.5411 0
M  V30 37667 O 3942.24 1.10679 1.68262 0
M  V30 37668 C 3939.3 2.17415 2.70058 0
M  V30 37669 C 3938.36 3.40985 2.60821 0
M  V30 37670 C 3937.6 3.66059 3.88377 0
M  V30 37671 O 3937.82 2.93666 4.88995 0
M  V30 37672 O 3936.75 4.59593 3.88662 0
M  V30 37673 H 3940.58 2.83588 1.08681 0
M  V30 37674 H 3938.17 1.41723 0.472759 0
M  V30 37675 H 3940.05 2.35788 3.49259 0
M  V30 37676 H 3938.72 1.28086 2.9728 0
M  V30 37677 H 3937.63 3.27949 1.8 0
M  V30 37678 H 3938.96 4.30529 2.38549 0
M  V30 37679 N 3940.61 -0.538802 1.48104 0
M  V30 37680 C 3941.54 -1.6536 1.64859 0
M  V30 37681 C 3942.53 -1.62659 0.497607 0
M  V30 37682 O 3943.71 -1.79993 0.72912 0
M  V30 37683 C 3940.84 -3.03968 1.6799 0
M  V30 37684 C 3939.79 -3.21524 2.825 0
M  V30 37685 C 3939.12 -4.61105 2.70715 0
M  V30 37686 C 3940.42 -3.05137 4.23897 0
M  V30 37687 H 3942.11 -1.51593 2.58186 0
M  V30 37688 H 3939.66 -0.727864 1.2425 0
M  V30 37689 H 3941.61 -3.81821 1.783 0
M  V30 37690 H 3940.34 -3.18737 0.712355 0
M  V30 37691 H 3939 -2.46086 2.7173 0
M  V30 37692 H 3938.64 -4.72697 1.71948 0
M  V30 37693 H 3938.34 -4.73798 3.47547 0
M  V30 37694 H 3939.87 -5.41068 2.8298 0
M  V30 37695 H 3941.28 -3.7279 4.35547 0
M  V30 37696 H 3939.68 -3.29329 5.0166 0
M  V30 37697 H 3940.75 -2.01663 4.40976 0
M  V30 37698 N 3942.09 -1.36544 -0.786992 0
M  V30 37699 C 3943.02 -1.33752 -1.91396 0
M  V30 37700 C 3944 -0.208588 -1.68816 0
M  V30 37701 O 3945.19 -0.406607 -1.89896 0
M  V30 37702 C 3942.32 -1.12848 -3.28455 0
M  V30 37703 C 3941.27 -2.22591 -3.65564 0
M  V30 37704 C 3940.6 -1.86827 -5.00999 0
M  V30 37705 C 3941.9 -3.64691 -3.73896 0
M  V30 37706 H 3943.59 -2.28054 -1.93989 0
M  V30 37707 H 3941.14 -1.09778 -0.931918 0
M  V30 37708 H 3943.09 -1.09529 -4.06917 0
M  V30 37709 H 3941.82 -0.149975 -3.26255 0
M  V30 37710 H 3940.47 -2.2504 -2.89401 0
M  V30 37711 H 3940.12 -0.875448 -4.95323 0
M  V30 37712 H 3939.82 -2.60304 -5.26798 0
M  V30 37713 H 3941.35 -1.85068 -5.81878 0
M  V30 37714 H 3942.76 -3.64456 -4.42543 0
M  V30 37715 H 3941.16 -4.37093 -4.11181 0
M  V30 37716 H 3942.23 -3.99421 -2.74939 0
M  V30 37717 N 3943.57 1.01143 -1.20863 0
M  V30 37718 C 3944.8 1.78947 -1.04846 0
M  V30 37719 C 3945.22 1.83849 0.397644 0
M  V30 37720 O 3944.58 1.27735 1.2866 0
M  V30 37721 C 3944.63 3.21009 -1.64272 0
M  V30 37722 O 3943.73 4.02818 -0.883844 0
M  V30 37723 H 3943.07 0.551747 -0.36942 0
M  V30 37724 H 3945.6 1.27183 -1.60268 0
M  V30 37725 H 3945.61 3.71705 -1.68224 0
M  V30 37726 H 3944.29 3.16756 -2.69515 0
M  V30 37727 H 3942.86 3.614 -0.918929 0
M  V30 37728 N 3945.05 1.01535 1.20534 0
M  V30 37729 C 3946.27 0.722942 1.94392 0
M  V30 37730 C 3946.7 -0.709827 1.74193 0
M  V30 37731 O 3946.06 -1.48826 1.0354 0
M  V30 37732 C 3946.1 1.06237 3.44596 0
M  V30 37733 O 3945.21 0.173359 4.12035 0
M  V30 37734 H 3944.55 0.268355 0.607356 0
M  V30 37735 H 3947.08 1.35838 1.53001 0
M  V30 37736 H 3947.09 1.01355 3.9521 0
M  V30 37737 H 3945.76 2.10628 3.58621 0
M  V30 37738 H 3944.34 0.279595 3.7185 0
M  V30 37739 N 3946.53 -1.36288 0.791419 0
M  V30 37740 C 3947.44 -2.3381 0.192403 0
M  V30 37741 C 3948.45 -1.61139 -0.656527 0
M  V30 37742 O 3949.63 -1.93111 -0.571844 0
M  V30 37743 C 3946.69 -3.40336 -0.661223 0
M  V30 37744 C 3945.75 -4.28803 0.206436 0
M  V30 37745 C 3944.99 -5.30242 -0.606543 0
M  V30 37746 O 3945.21 -5.39827 -1.84238 0
M  V30 37747 O 3944.14 -6.019 -0.00538536 0
M  V30 37748 H 3947.97 -2.86807 0.998774 0
M  V30 37749 H 3945.56 -1.38792 0.552914 0
M  V30 37750 H 3947.44 -4.05463 -1.14793 0
M  V30 37751 H 3946.11 -2.89635 -1.44545 0
M  V30 37752 H 3945.02 -3.66709 0.739941 0
M  V30 37753 H 3946.35 -4.82862 0.954227 0
M  V30 37754 N 3948.01 -0.543606 -1.47928 0
M  V30 37755 C 3948.97 0.201067 -2.28316 0
M  V30 37756 C 3949.97 0.855289 -1.36167 0
M  V30 37757 O 3951.16 0.713242 -1.58929 0
M  V30 37758 C 3948.29 1.2924 -3.15452 0
M  V30 37759 H 3949.48 -0.5049 -2.95619 0
M  V30 37760 H 3947.04 -0.300038 -1.53393 0
M  V30 37761 H 3947.77 2.03119 -2.5281 0
M  V30 37762 H 3947.56 0.828253 -3.83252 0
M  V30 37763 H 3949.05 1.81581 -3.76056 0
M  V30 37764 N 3949.48 1.55104 -0.279387 0
M  V30 37765 C 3950.72 2.01598 0.337309 0
M  V30 37766 C 3951.09 1.16351 1.5273 0
M  V30 37767 O 3952.29 1.52444 2.21392 0
M  V30 37768 C 3950.56 3.50362 0.705778 0
M  V30 37769 S 3952.12 4.18839 1.3084 0
M  V30 37770 H 3948.94 0.70325 0.104691 0
M  V30 37771 H 3951.54 1.91318 -0.402218 0
M  V30 37772 H 3950.24 4.10051 -0.16911 0
M  V30 37773 H 3949.77 3.64635 1.47666 0
M  V30 37774 H 3951.79 4.2282 2.59688 0
M  V30 37775 N 3950.96 0.0067362 1.57599 0
M  V30 37776 C 3952.19 -0.686502 1.94861 0
M  V30 37777 C 3952.6 -1.67462 0.88051 0
M  V30 37778 O 3951.94 -1.83099 -0.148505 0
M  V30 37779 C 3952 -1.46828 3.28149 0
M  V30 37780 C 3951.67 -0.640996 4.52482 0
M  V30 37781 C 3952.67 0.0742093 5.19847 0
M  V30 37782 C 3950.35 -0.584983 4.98882 0
M  V30 37783 C 3952.34 0.834341 6.31916 0
M  V30 37784 C 3950.03 0.178869 6.10838 0
M  V30 37785 C 3951.03 0.887259 6.77212 0
M  V30 37786 O 3950.72 1.63863 7.87022 0
M  V30 37787 H 3950.45 -0.195716 0.647048 0
M  V30 37788 H 3953 0.0560144 2.05324 0
M  V30 37789 H 3951.23 -2.25543 3.14113 0
M  V30 37790 H 3952.92 -2.0475 3.50475 0
M  V30 37791 H 3953.69 0.0401297 4.84983 0
M  V30 37792 H 3949.57 -1.1259 4.4704 0
M  V30 37793 H 3953.11 1.38779 6.83656 0
M  V30 37794 H 3949.01 0.214746 6.45143 0
M  V30 37795 H 3949.78 1.55605 8.03573 0
M  V30 37796 N 3952.44 -1.55337 -0.266118 0
M  V30 37797 C 3953.35 -1.91795 -1.35099 0
M  V30 37798 C 3954.37 -0.816012 -1.53679 0
M  V30 37799 O 3955.54 -1.1157 -1.67673 0
M  V30 37800 C 3952.61 -2.18844 -2.68901 0
M  V30 37801 C 3951.67 -3.42363 -2.59009 0
M  V30 37802 C 3950.9 -3.68113 -3.8643 0
M  V30 37803 O 3951.12 -2.96255 -4.87431 0
M  V30 37804 O 3950.06 -4.61647 -3.86219 0
M  V30 37805 H 3953.88 -2.8416 -1.07176 0
M  V30 37806 H 3951.47 -1.41972 -0.465237 0
M  V30 37807 H 3953.35 -2.37637 -3.48004 0
M  V30 37808 H 3952.03 -1.29661 -2.96597 0
M  V30 37809 H 3950.93 -3.28899 -1.78259 0
M  V30 37810 H 3952.27 -4.31788 -2.36262 0
M  V30 37811 N 3953.92 0.53094 -1.48387 0
M  V30 37812 C 3955.16 1.29732 -1.57953 0
M  V30 37813 C 3955.52 1.904 -0.247343 0
M  V30 37814 O 3956.72 2.67915 -0.217981 0
M  V30 37815 C 3954.99 2.35829 -2.68551 0
M  V30 37816 S 3956.55 3.22204 -2.97875 0
M  V30 37817 H 3953.37 0.441305 -0.557468 0
M  V30 37818 H 3955.97 0.604972 -1.85904 0
M  V30 37819 H 3954.68 1.89737 -3.63906 0
M  V30 37820 H 3954.21 3.09771 -2.42498 0
M  V30 37821 H 3956.22 4.35888 -2.37099 0
M  V30 37822 N 3955.4 1.36959 0.779739 0
M  V30 37823 C 3956.34 1.32074 1.89275 0
M  V30 37824 C 3957.31 0.187689 1.65036 0
M  V30 37825 O 3958.5 0.375769 1.87063 0
M  V30 37826 C 3955.64 1.12558 3.26228 0
M  V30 37827 C 3954.75 2.35023 3.62475 0
M  V30 37828 C 3953.89 2.08443 4.88595 0
M  V30 37829 C 3952.92 3.26817 5.17549 0
M  V30 37830 N 3952.06 2.99839 6.34855 0
M  V30 37831 H 3956.9 2.27239 1.92786 0
M  V30 37832 H 3954.44 1.12928 0.942636 0
M  V30 37833 H 3956.4 0.992666 4.05218 0
M  V30 37834 H 3955.03 0.210444 3.22113 0
M  V30 37835 H 3954.08 2.59084 2.78532 0
M  V30 37836 H 3955.39 3.2333 3.79814 0
M  V30 37837 H 3954.54 1.92137 5.75472 0
M  V30 37838 H 3953.28 1.17462 4.73343 0
M  V30 37839 H 3952.29 3.43671 4.2915 0
M  V30 37840 H 3953.51 4.18638 5.34714 0
M  V30 37841 H 3951.46 2.11479 6.20977 0
M  V30 37842 H 3951.38 3.81687 6.52573 0
M  V30 37843 H 3952.64 2.87133 7.24689 0
M  V30 37844 N 3956.87 -1.00501 1.21398 0
M  V30 37845 C 3958.12 -1.73691 1.02539 0
M  V30 37846 C 3958.44 -1.90551 -0.44155 0
M  V30 37847 O 3959.64 -2.60949 -0.749534 0
M  V30 37848 C 3958.1 -3.12454 1.78607 0
M  V30 37849 C 3957.71 -3.03567 3.29471 0
M  V30 37850 C 3959.45 -3.89774 1.68156 0
M  V30 37851 C 3957.36 -4.37409 3.98029 0
M  V30 37852 H 3956.29 -0.651205 0.380063 0
M  V30 37853 H 3958.94 -1.12289 1.45132 0
M  V30 37854 H 3957.32 -3.74466 1.28806 0
M  V30 37855 H 3958.49 -2.50793 3.86574 0
M  V30 37856 H 3956.81 -2.39735 3.40464 0
M  V30 37857 H 3959.41 -4.88816 2.16708 0
M  V30 37858 H 3959.75 -4.11354 0.639788 0
M  V30 37859 H 3960.28 -3.34414 2.15434 0
M  V30 37860 H 3957.02 -4.2103 5.02408 0
M  V30 37861 H 3956.54 -4.90144 3.45715 0
M  V30 37862 H 3958.22 -5.06209 4.02941 0
M  V30 37863 N 3958.35 -1.02172 -1.19994 0
M  V30 37864 C 3959.3 -0.589766 -2.24999 0
M  V30 37865 C 3960.29 0.374057 -1.65219 0
M  V30 37866 O 3961.5 0.243418 -1.78347 0
M  V30 37867 H 3957.87 -0.172429 -0.731965 0
M  V30 37868 H 3959.85 -1.48619 -2.58757 0
M  V30 37869 C 3958.59 0.0509285 -3.47663 0
M  V30 37870 H 3957.92 -0.681719 -3.93945 0
M  V30 37871 H 3959.36 0.316213 -4.22819 0
M  V30 37872 C 3957.82 1.29532 -3.11003 0
M  V30 37873 O 3958.35 2.38812 -3.23004 0
M  V30 37874 N 3956.55 1.18136 -2.65504 0
M  V30 37875 H 3956.1 0.292127 -2.55938 0
M  V30 37876 H 3956.06 2.01494 -2.41346 0
M  V30 37877 N 3959.83 1.35866 -0.798635 0
M  V30 37878 C 3961.08 1.98599 -0.374554 0
M  V30 37879 C 3961.4 1.63686 1.05981 0
M  V30 37880 O 3960.67 0.91539 1.73198 0
M  V30 37881 H 3959.25 0.734607 -0.135505 0
M  V30 37882 H 3961.91 1.65911 -1.02272 0
M  V30 37883 H 3961.01 3.08482 -0.473828 0
M  V30 37884 N 3961.31 0.551443 1.47638 0
M  V30 37885 C 3962.24 -0.187846 2.32743 0
M  V30 37886 C 3963.22 -0.914381 1.43433 0
M  V30 37887 O 3964.4 -0.895974 1.72296 0
M  V30 37888 C 3961.53 -1.22194 3.25094 0
M  V30 37889 C 3960.49 -0.612223 4.23599 0
M  V30 37890 C 3959.81 -1.75053 5.05233 0
M  V30 37891 C 3961.11 0.430226 5.20525 0
M  V30 37892 H 3962.81 0.52265 2.94803 0
M  V30 37893 H 3960.35 0.252793 1.41764 0
M  V30 37894 H 3962.31 -1.74725 3.8347 0
M  V30 37895 H 3961.03 -1.9623 2.61077 0
M  V30 37896 H 3959.69 -0.10826 3.6644 0
M  V30 37897 H 3959.34 -2.47979 4.37625 0
M  V30 37898 H 3959.04 -1.34838 5.7192 0
M  V30 37899 H 3960.56 -2.27921 5.66467 0
M  V30 37900 H 3961.98 -0.00880091 5.73299 0
M  V30 37901 H 3960.37 0.750941 5.95383 0
M  V30 37902 H 3961.44 1.32823 4.66354 0
M  V30 37903 N 3962.79 -1.54953 0.287609 0
M  V30 37904 C 3964.01 -2.04735 -0.331406 0
M  V30 37905 C 3964.44 -1.16412 -1.4775 0
M  V30 37906 O 3963.79 -0.165329 -1.80545 0
M  V30 37907 C 3963.84 -3.52106 -0.778061 0
M  V30 37908 O 3962.95 -3.66843 -1.88415 0
M  V30 37909 H 3962.29 -0.660651 -0.0666057 0
M  V30 37910 H 3964.82 -2.00126 0.425551 0
M  V30 37911 H 3964.83 -3.93707 -1.07048 0
M  V30 37912 H 3963.5 -4.15856 0.0603915 0
M  V30 37913 H 3962.08 -3.37147 -1.59332 0
M  V30 37914 N 3964.26 -0.0150939 -1.57593 0
M  V30 37915 C 3965.68 0.525678 -1.79147 0
M  V30 37916 C 3966.03 1.73079 -0.924015 0
M  V30 37917 O 3965.15 2.16006 -0.13057 0
M  V30 37918 C 3965.75 0.960435 -3.24902 0
M  V30 37919 C 3964.31 1.44641 -3.47499 0
M  V30 37920 C 3963.45 0.40458 -2.74333 0
M  V30 37921 H 3966.4 -0.241202 -1.56856 0
M  V30 37922 H 3966.42 1.82562 -3.33843 0
M  V30 37923 H 3965.94 0.0831343 -3.88011 0
M  V30 37924 H 3964.04 2.34411 -2.89625 0
M  V30 37925 H 3964.15 1.46346 -4.56201 0
M  V30 37926 H 3962.51 0.869585 -2.39396 0
M  V30 37927 H 3963.3 -0.464013 -3.4015 0
M  V30 37928 N 3965.74 1.55476 0.257876 0
M  V30 37929 C 3967.16 1.47654 0.605845 0
M  V30 37930 C 3967.36 0.703096 1.88835 0
M  V30 37931 O 3966.41 0.228025 2.51468 0
M  V30 37932 C 3967.73 2.91983 0.718761 0
M  V30 37933 C 3969.28 3.02289 0.811817 0
M  V30 37934 C 3969.75 4.47903 0.956386 0
M  V30 37935 N 3971.24 4.51795 1.02153 0
M  V30 37936 C 3971.98 5.61699 1.15246 0
M  V30 37937 N 3971.47 6.81437 1.24963 0
M  V30 37938 N 3973.27 5.49472 1.18476 0
M  V30 37939 H 3965.42 2.04208 -0.58419 0
M  V30 37940 H 3967.68 0.92665 -0.200061 0
M  V30 37941 H 3967.39 3.51365 -0.153412 0
M  V30 37942 H 3967.26 3.41854 1.59423 0
M  V30 37943 H 3969.65 2.42994 1.67445 0
M  V30 37944 H 3969.73 2.55647 -0.0885757 0
M  V30 37945 H 3969.37 5.07805 0.0983545 0
M  V30 37946 H 3969.3 4.92216 1.87166 0
M  V30 37947 H 3971.79 3.65549 0.95823 0
M  V30 37948 H 3972.11 7.60947 1.34829 0
M  V30 37949 H 3970.45 6.84219 1.2194 0
M  V30 37950 H 3973.64 4.54864 1.10526 0
M  V30 37951 H 3973.81 6.35165 1.28335 0
M  V30 37952 N 3967.22 -0.523064 1.48667 0
M  V30 37953 C 3968.5 -1.28432 1.47528 0
M  V30 37954 C 3968.88 -2.10236 0.190756 0
M  V30 37955 O 3968.23 -2.12994 -0.827385 0
M  V30 37956 C 3968.44 -2.15987 2.74136 0
M  V30 37957 C 3969.78 -2.75901 3.22744 0
M  V30 37958 O 3970.81 -2.2627 2.75101 0
M  V30 37959 O 3969.67 -3.66196 4.05663 0
M  V30 37960 H 3966.76 -0.580028 0.589488 0
M  V30 37961 H 3969.31 -0.539148 1.60908 0
M  V30 37962 H 3968.08 -1.55369 3.59132 0
M  V30 37963 H 3967.7 -2.97739 2.6351 0
M  V30 37964 N 3968.7 -1.37371 -0.772465 0
M  V30 37965 C 3970.11 -1.18155 -1.07292 0
M  V30 37966 C 3970.31 -0.0172136 -2.01493 0
M  V30 37967 O 3969.37 0.642921 -2.44178 0
M  V30 37968 C 3970.68 -2.49989 -1.67111 0
M  V30 37969 C 3972.23 -2.56504 -1.79373 0
M  V30 37970 C 3972.71 -3.88467 -2.42605 0
M  V30 37971 N 3974.2 -3.89905 -2.50056 0
M  V30 37972 C 3974.93 -4.88762 -2.99833 0
M  V30 37973 N 3974.43 -5.98014 -3.49787 0
M  V30 37974 N 3976.22 -4.76166 -2.987 0
M  V30 37975 H 3968.37 -2.11891 -0.146977 0
M  V30 37976 H 3970.64 -0.939342 -0.12783 0
M  V30 37977 H 3970.34 -3.35547 -1.05363 0
M  V30 37978 H 3970.22 -2.67026 -2.66415 0
M  V30 37979 H 3972.6 -1.71354 -2.40254 0
M  V30 37980 H 3972.68 -2.43352 -0.788262 0
M  V30 37981 H 3972.33 -4.74032 -1.82363 0
M  V30 37982 H 3972.26 -3.98923 -3.43756 0
M  V30 37983 H 3974.75 -3.10984 -2.14703 0
M  V30 37984 H 3975.06 -6.69398 -3.86169 0
M  V30 37985 H 3973.41 -6.0166 -3.47894 0
M  V30 37986 H 3976.6 -3.89936 -2.58974 0
M  V30 37987 H 3976.77 -5.53364 -3.37183 0
M  V30 37988 N 3970.18 0.998553 -1.21929 0
M  V30 37989 C 3971.59 1.55178 -1.0381 0
M  V30 37990 C 3971.94 1.92076 0.400169 0
M  V30 37991 O 3971.06 1.74166 1.28433 0
M  V30 37992 C 3971.66 2.81974 -1.87819 0
M  V30 37993 C 3970.22 3.33761 -1.74014 0
M  V30 37994 C 3969.36 2.06896 -1.84633 0
M  V30 37995 H 3972.32 0.820282 -1.35857 0
M  V30 37996 H 3972.34 3.54114 -1.39225 0
M  V30 37997 H 3971.85 2.55088 -2.92492 0
M  V30 37998 H 3969.95 3.65567 -0.720509 0
M  V30 37999 H 3970.06 4.04745 -2.56355 0
M  V30 38000 H 3968.43 2.20194 -1.28011 0
M  V30 38001 H 3969.21 1.82414 -2.90827 0
M  V30 38002 N 3971.65 1.02807 1.1945 0
M  V30 38003 C 3973.07 0.744994 1.41145 0
M  V30 38004 C 3973.27 -0.670731 1.90009 0
M  V30 38005 O 3972.33 -1.43684 2.07632 0
M  V30 38006 C 3973.64 1.78043 2.42325 0
M  V30 38007 C 3975.19 1.79988 2.56073 0
M  V30 38008 C 3975.66 2.82489 3.60505 0
M  V30 38009 N 3977.15 2.81301 3.68 0
M  V30 38010 C 3977.89 3.57266 4.48496 0
M  V30 38011 N 3977.38 4.42943 5.32704 0
M  V30 38012 N 3979.18 3.45811 4.43138 0
M  V30 38013 H 3971.33 1.94187 0.860535 0
M  V30 38014 H 3973.59 0.839492 0.440406 0
M  V30 38015 H 3973.3 2.79526 2.13443 0
M  V30 38016 H 3973.17 1.60205 3.41488 0
M  V30 38017 H 3975.56 0.791832 2.84278 0
M  V30 38018 H 3975.64 2.01901 1.57066 0
M  V30 38019 H 3975.28 3.83465 3.33042 0
M  V30 38020 H 3975.21 2.57835 4.59161 0
M  V30 38021 H 3977.7 2.19159 3.0786 0
M  V30 38022 H 3978.02 4.97648 5.91242 0
M  V30 38023 H 3976.36 4.47016 5.32167 0
M  V30 38024 H 3979.55 2.7829 3.76394 0
M  V30 38025 H 3979.73 4.05265 5.05633 0
M  V30 38026 N 3973.13 -1.35441 0.805829 0
M  V30 38027 C 3974.55 -1.51909 0.489475 0
M  V30 38028 C 3974.75 -1.75534 -0.989454 0
M  V30 38029 O 3973.8 -1.79632 -1.7745 0
M  V30 38030 C 3975.12 -2.69481 1.33418 0
M  V30 38031 C 3976.67 -2.83359 1.32954 0
M  V30 38032 C 3977.14 -4.03955 2.15834 0
M  V30 38033 N 3978.63 -4.11131 2.13367 0
M  V30 38034 C 3979.37 -5.0356 2.74254 0
M  V30 38035 N 3978.86 -6.01324 3.44065 0
M  V30 38036 N 3980.66 -4.963 2.639 0
M  V30 38037 H 3972.81 -1.18362 1.76364 0
M  V30 38038 H 3975.07 -0.579049 0.750604 0
M  V30 38039 H 3974.78 -2.58599 2.38368 0
M  V30 38040 H 3974.65 -3.64061 0.986873 0
M  V30 38041 H 3977.04 -2.93692 0.287889 0
M  V30 38042 H 3977.12 -1.89638 1.71671 0
M  V30 38043 H 3976.76 -3.94382 3.2004 0
M  V30 38044 H 3976.69 -4.96855 1.74478 0
M  V30 38045 H 3979.18 -3.41143 1.62572 0
M  V30 38046 H 3979.5 -6.68446 3.87813 0
M  V30 38047 H 3977.84 -6.01501 3.4817 0
M  V30 38048 H 3981.03 -4.18877 2.08949 0
M  V30 38049 H 3981.2 -5.68141 3.11641 0
M  V30 38050 N 3974.61 -0.559265 -1.47343 0
M  V30 38051 C 3975.84 -0.0389228 -2.07363 0
M  V30 38052 C 3976.26 1.24628 -1.40889 0
M  V30 38053 O 3975.62 1.74704 -0.48457 0
M  V30 38054 C 3975.67 0.137831 -3.60336 0
M  V30 38055 O 3974.77 1.19993 -3.94557 0
M  V30 38056 H 3974.11 -0.052248 -0.661941 0
M  V30 38057 H 3976.64 -0.775534 -1.89332 0
M  V30 38058 H 3976.65 0.35139 -4.06484 0
M  V30 38059 H 3975.33 -0.800848 -4.08117 0
M  V30 38060 H 3973.9 0.966694 -3.60152 0
M  V30 38061 N 3976.09 1.54799 -0.295822 0
M  V30 38062 C 3977.05 2.22008 0.56966 0
M  V30 38063 C 3978.05 1.20447 1.06533 0
M  V30 38064 O 3979.24 1.45216 0.962186 0
M  V30 38065 C 3976.37 2.90237 1.78816 0
M  V30 38066 H 3977.57 2.99895 -0.0174675 0
M  V30 38067 H 3975.12 1.5623 -0.0466087 0
M  V30 38068 H 3975.85 2.16416 2.41526 0
M  V30 38069 H 3975.64 3.64683 1.44044 0
M  V30 38070 H 3977.13 3.41524 2.40315 0
M  V30 38071 N 3977.57 0.0234513 1.57583 0
M  V30 38072 C 3978.52 -0.969325 2.06369 0
M  V30 38073 C 3979.5 -1.28896 0.963051 0
M  V30 38074 O 3980.69 -1.27602 1.22665 0
M  V30 38075 C 3977.82 -2.25363 2.58971 0
M  V30 38076 C 3976.91 -1.96261 3.75955 0
M  V30 38077 N 3977.3 -1.37406 4.86778 0
M  V30 38078 C 3975.6 -2.26283 3.84333 0
M  V30 38079 C 3976.3 -1.25308 5.68043 0
M  V30 38080 N 3975.27 -1.74668 5.14774 0
M  V30 38081 H 3979.08 -0.509155 2.89456 0
M  V30 38082 H 3976.59 -0.1817 1.6138 0
M  V30 38083 H 3978.59 -2.97352 2.92211 0
M  V30 38084 H 3977.25 -2.72012 1.77312 0
M  V30 38085 H 3978.26 -1.04981 5.07148 0
M  V30 38086 H 3974.94 -2.75644 3.13571 0
M  V30 38087 H 3976.33 -0.798471 6.67139 0
M  V30 38088 N 3979.05 -1.5561 -0.249627 0
M  V30 38089 C 3980.46 -1.47973 -0.598006 0
M  V30 38090 C 3980.66 -0.7131 -1.8846 0
M  V30 38091 O 3979.72 -0.241358 -2.51344 0
M  V30 38092 C 3981.03 -2.9236 -0.703267 0
M  V30 38093 C 3982.58 -3.02715 -0.795774 0
M  V30 38094 C 3983.05 -4.48404 -0.93262 0
M  V30 38095 N 3984.54 -4.52331 -0.997558 0
M  V30 38096 C 3985.28 -5.62302 -1.12266 0
M  V30 38097 N 3984.78 -6.8209 -1.21347 0
M  V30 38098 N 3986.57 -5.50093 -1.1556 0
M  V30 38099 H 3978.72 -2.03895 0.595012 0
M  V30 38100 H 3980.98 -0.925576 0.204973 0
M  V30 38101 H 3980.69 -3.51279 0.172043 0
M  V30 38102 H 3980.56 -3.42695 -1.57608 0
M  V30 38103 H 3982.95 -2.43879 -1.66154 0
M  V30 38104 H 3983.03 -2.55596 0.102132 0
M  V30 38105 H 3982.67 -5.0785 -0.071423 0
M  V30 38106 H 3982.6 -4.93202 -1.84553 0
M  V30 38107 H 3985.1 -3.66052 -0.938831 0
M  V30 38108 H 3985.41 -7.61652 -1.30792 0
M  V30 38109 H 3983.75 -6.84856 -1.1831 0
M  V30 38110 H 3986.94 -4.55444 -1.08112 0
M  V30 38111 H 3987.12 -6.35836 -1.24965 0
M  V30 38112 N 3980.52 0.515172 -1.48942 0
M  V30 38113 C 3981.8 1.27648 -1.48207 0
M  V30 38114 C 3982.18 2.10132 -0.201903 0
M  V30 38115 O 3981.53 2.1343 0.816078 0
M  V30 38116 C 3981.74 2.14531 -2.75277 0
M  V30 38117 C 3983.09 2.74186 -3.24202 0
M  V30 38118 O 3984.11 2.24808 -2.76297 0
M  V30 38119 O 3982.97 3.6404 -4.076 0
M  V30 38120 H 3980.06 0.576894 -0.592556 0
M  V30 38121 H 3982.61 0.530607 -1.61191 0
M  V30 38122 H 3981.38 1.53462 -3.59951 0
M  V30 38123 H 3981 2.96337 -2.65085 0
M  V30 38124 N 3982 1.37779 0.765169 0
M  V30 38125 C 3982.95 1.30585 1.869 0
M  V30 38126 C 3983.94 0.192371 1.59746 0
M  V30 38127 O 3985.13 0.427343 1.71764 0
M  V30 38128 C 3982.26 1.12168 3.24458 0
M  V30 38129 C 3981.34 2.28088 3.57542 0
M  V30 38130 N 3981.73 3.53499 3.61762 0
M  V30 38131 C 3980.03 2.20387 3.87744 0
M  V30 38132 C 3980.73 4.29979 3.91782 0
M  V30 38133 N 3979.71 3.59195 4.08019 0
M  V30 38134 H 3983.51 2.25552 1.88424 0
M  V30 38135 H 3981.02 1.30845 0.961947 0
M  V30 38136 H 3983.02 1.05099 4.03435 0
M  V30 38137 H 3981.68 0.181238 3.24194 0
M  V30 38138 H 3982.69 3.87321 3.43806 0
M  V30 38139 H 3979.37 1.34437 3.95263 0
M  V30 38140 H 3980.76 5.38547 4.01768 0
M  V30 38141 N 3983.48 -0.992073 1.22457 0
M  V30 38142 C 3984.41 -2.0844 0.953181 0
M  V30 38143 C 3985.42 -1.62656 -0.0685146 0
M  V30 38144 O 3986.61 -1.7773 0.165592 0
M  V30 38145 C 3983.71 -3.36385 0.412105 0
M  V30 38146 C 3982.89 -4.11195 1.49121 0
M  V30 38147 C 3981.95 -5.17423 0.957075 0
M  V30 38148 O 3980.97 -5.44958 1.64346 0
M  V30 38149 N 3982.17 -5.80079 -0.221103 0
M  V30 38150 H 3984.94 -2.32301 1.89357 0
M  V30 38151 H 3982.5 -1.15789 1.13157 0
M  V30 38152 H 3984.49 -4.0468 0.0400745 0
M  V30 38153 H 3983.06 -3.09581 -0.433418 0
M  V30 38154 H 3982.28 -3.37519 2.03653 0
M  V30 38155 H 3983.57 -4.57948 2.21724 0
M  V30 38156 H 3982.97 -5.60078 -0.795543 0
M  V30 38157 H 3981.52 -6.49605 -0.534511 0
M  V30 38158 N 3984.96 -1.03439 -1.18904 0
M  V30 38159 C 3986.2 -0.735169 -1.89006 0
M  V30 38160 C 3986.54 0.734806 -1.79762 0
M  V30 38161 O 3985.81 1.53563 -1.19367 0
M  V30 38162 C 3986.09 -1.19395 -3.3973 0
M  V30 38163 C 3985.95 -2.72556 -3.57817 0
M  V30 38164 C 3987.27 -0.779069 -4.3315 0
M  V30 38165 H 3984.39 -0.268542 -0.686334 0
M  V30 38166 H 3987.03 -1.28529 -1.39929 0
M  V30 38167 H 3985.18 -0.725928 -3.81658 0
M  V30 38168 H 3986.85 -3.27348 -3.25025 0
M  V30 38169 H 3985.09 -3.12684 -3.00685 0
M  V30 38170 H 3985.76 -2.99714 -4.63546 0
M  V30 38171 H 3988.24 -1.18171 -3.98967 0
M  V30 38172 H 3987.12 -1.1279 -5.37187 0
M  V30 38173 H 3987.38 0.318219 -4.40953 0
M  V30 38174 N 3986.44 1.35011 -0.813001 0
M  V30 38175 C 3987.38 2.31595 -0.216041 0
M  V30 38176 C 3988.38 1.56937 0.637743 0
M  V30 38177 O 3989.58 1.72014 0.530191 0
M  V30 38178 H 3985.96 0.750261 -0.0511079 0
M  V30 38179 H 3987.93 2.7948 -1.04564 0
M  V30 38180 C 3986.68 3.42207 0.615591 0
M  V30 38181 H 3986 3.99787 -0.0320439 0
M  V30 38182 H 3987.44 4.1205 0.999558 0
M  V30 38183 C 3985.9 2.858 1.78381 0
M  V30 38184 O 3986.43 2.79871 2.88158 0
M  V30 38185 N 3984.64 2.42759 1.59738 0
M  V30 38186 H 3984.18 2.47781 0.704425 0
M  V30 38187 H 3984.14 2.05368 2.38057 0
M  V30 38188 N 3987.91 0.567071 1.47044 0
M  V30 38189 C 3988.84 -0.16315 2.32929 0
M  V30 38190 C 3989.82 -0.899117 1.44395 0
M  V30 38191 O 3991.01 -0.87765 1.73237 0
M  V30 38192 C 3988.14 -1.18739 3.26372 0
M  V30 38193 C 3987.09 -0.56726 4.24224 0
M  V30 38194 C 3986.42 -1.69684 5.07061 0
M  V30 38195 C 3987.72 0.48541 5.20039 0
M  V30 38196 H 3989.41 0.553889 2.94232 0
M  V30 38197 H 3986.96 0.267814 1.41488 0
M  V30 38198 H 3988.91 -1.70648 3.85302 0
M  V30 38199 H 3987.64 -1.9345 2.63144 0
M  V30 38200 H 3986.3 -0.0693881 3.66534 0
M  V30 38201 H 3985.94 -2.43324 4.4023 0
M  V30 38202 H 3985.64 -1.28764 5.73318 0
M  V30 38203 H 3987.17 -2.219 5.68852 0
M  V30 38204 H 3988.58 0.0520056 5.73276 0
M  V30 38205 H 3986.98 0.814047 5.94553 0
M  V30 38206 H 3988.05 1.37762 4.64919 0
M  V30 38207 N 3989.39 -1.5464 0.304027 0
M  V30 38208 C 3990.35 -2.22307 -0.557878 0
M  V30 38209 C 3991.35 -1.2101 -1.05893 0
M  V30 38210 O 3992.54 -1.45724 -0.954472 0
M  V30 38211 C 3989.68 -2.91181 -1.77274 0
M  V30 38212 H 3990.87 -2.99881 0.0333714 0
M  V30 38213 H 3988.42 -1.56204 0.0548934 0
M  V30 38214 H 3989.16 -2.17694 -2.40375 0
M  V30 38215 H 3988.94 -3.65442 -1.42108 0
M  V30 38216 H 3990.43 -3.42793 -2.38501 0
M  V30 38217 N 3990.87 -0.0318079 -1.57568 0
M  V30 38218 C 3992.1 0.656366 -1.96213 0
M  V30 38219 C 3992.51 1.65508 -0.908435 0
M  V30 38220 O 3991.87 1.82171 0.10947 0
M  V30 38221 C 3991.92 1.36038 -3.34927 0
M  V30 38222 O 3991.64 0.401681 -4.36255 0
M  V30 38223 C 3993.14 2.14012 -3.88219 0
M  V30 38224 H 3990.36 0.180797 -0.646184 0
M  V30 38225 H 3992.91 -0.09237 -2.04291 0
M  V30 38226 H 3991.06 2.06049 -3.28059 0
M  V30 38227 H 3991.48 0.901915 -5.16687 0
M  V30 38228 H 3992.95 2.58721 -4.87614 0
M  V30 38229 H 3993.43 2.98029 -3.22608 0
M  V30 38230 H 3994.03 1.48953 -3.98363 0
M  V30 38231 N 3992.35 1.55741 0.241371 0
M  V30 38232 C 3993.28 1.93796 1.30252 0
M  V30 38233 C 3994.26 0.80359 1.49921 0
M  V30 38234 O 3995.44 1.06432 1.62437 0
M  V30 38235 C 3992.57 2.23747 2.65621 0
M  V30 38236 C 3991.53 3.39487 2.60639 0
M  V30 38237 C 3990.85 3.54993 3.99855 0
M  V30 38238 C 3992.15 4.75023 2.17143 0
M  V30 38239 H 3993.85 2.82682 0.986482 0
M  V30 38240 H 3991.39 1.36006 0.473101 0
M  V30 38241 H 3993.35 2.48959 3.39996 0
M  V30 38242 H 3992.07 1.31693 2.98872 0
M  V30 38243 H 3990.73 3.14293 1.88721 0
M  V30 38244 H 3990.38 2.6035 4.3038 0
M  V30 38245 H 3990.08 4.32829 3.97408 0
M  V30 38246 H 3991.6 3.82532 4.75922 0
M  V30 38247 H 3993.02 4.9957 2.81252 0
M  V30 38248 H 3991.41 5.56 2.25795 0
M  V30 38249 H 3992.48 4.71712 1.12321 0
M  V30 38250 N 3993.83 -0.507266 1.49213 0
M  V30 38251 C 3995.1 -1.2686 1.48882 0
M  V30 38252 C 3995.48 -2.10022 0.213044 0
M  V30 38253 O 3994.83 -2.1386 -0.804748 0
M  V30 38254 C 3995.04 -2.13068 2.76411 0
M  V30 38255 C 3996.39 -2.72463 3.25652 0
M  V30 38256 O 3997.41 -2.23339 2.77485 0
M  V30 38257 O 3996.27 -3.61873 4.09525 0
M  V30 38258 H 3993.37 -0.573743 0.595607 0
M  V30 38259 H 3995.91 -0.522051 1.6147 0
M  V30 38260 H 3994.68 -1.51551 3.6076 0
M  V30 38261 H 3994.31 -2.94927 2.66653 0
M  V30 38262 N 3995.3 -1.38182 -0.757851 0
M  V30 38263 C 3996.53 -1.37557 -1.55218 0
M  V30 38264 C 3996.95 0.0335753 -1.8807 0
M  V30 38265 O 3996.31 1.01448 -1.5026 0
M  V30 38266 C 3996.36 -2.23404 -2.8306 0
M  V30 38267 O 3995.46 -1.64821 -3.78031 0
M  V30 38268 H 3994.81 -0.469402 -0.469636 0
M  V30 38269 H 3997.34 -1.81889 -0.936891 0
M  V30 38270 H 3997.35 -2.37112 -3.32027 0
M  V30 38271 H 3996.02 -3.25824 -2.58479 0
M  V30 38272 H 3994.6 -1.60231 -3.3672 0
M  V30 38273 N 3996.78 0.985565 -1.22981 0
M  V30 38274 C 3997.69 2.11122 -1.02298 0
M  V30 38275 C 3998.71 1.73972 0.0309605 0
M  V30 38276 O 3999.88 2.00736 -0.163369 0
M  V30 38277 C 3996.95 3.41271 -0.611162 0
M  V30 38278 C 3996.01 3.92477 -1.73956 0
M  V30 38279 C 3995.24 5.16414 -1.3473 0
M  V30 38280 O 3995.47 5.69939 -0.229271 0
M  V30 38281 O 3994.4 5.61557 -2.16649 0
M  V30 38282 H 3998.23 2.31458 -1.96624 0
M  V30 38283 H 3995.81 1.09497 -1.01641 0
M  V30 38284 H 3997.69 4.19571 -0.3922 0
M  V30 38285 H 3996.37 3.22277 0.303167 0
M  V30 38286 H 3995.28 3.15317 -2.01311 0
M  V30 38287 H 3996.61 4.15916 -2.63201 0
M  V30 38288 N 3998.26 1.04068 1.18353 0
M  V30 38289 C 3999.22 0.636187 2.20194 0
M  V30 38290 C 4000.22 -0.306429 1.57853 0
M  V30 38291 O 4001.41 -0.091827 1.73958 0
M  V30 38292 C 3998.55 -0.0672824 3.40834 0
M  V30 38293 H 3999.74 1.53742 2.57494 0
M  V30 38294 H 3997.29 0.833237 1.32238 0
M  V30 38295 H 3998.03 -0.982317 3.09065 0
M  V30 38296 H 3997.81 0.610213 3.87323 0
M  V30 38297 H 3999.3 -0.336796 4.1624 0
M  V30 38298 N 3999.74 -1.34578 0.820149 0
M  V30 38299 C 4000.67 -2.32106 0.25475 0
M  V30 38300 C 4001.65 -1.58112 -0.627272 0
M  V30 38301 O 4002.83 -1.86109 -0.554727 0
M  V30 38302 C 3999.96 -3.42312 -0.586481 0
M  V30 38303 C 3998.92 -4.27541 0.198172 0
M  V30 38304 C 3998.24 -5.2919 -0.765625 0
M  V30 38305 C 3999.54 -5.03053 1.4048 0
M  V30 38306 H 4001.24 -2.79643 1.0696 0
M  V30 38307 H 3998.78 -1.34446 0.51578 0
M  V30 38308 H 4000.74 -4.09553 -0.992187 0
M  V30 38309 H 3999.46 -2.93418 -1.43435 0
M  V30 38310 H 3998.12 -3.61899 0.585213 0
M  V30 38311 H 3997.77 -4.76559 -1.60937 0
M  V30 38312 H 3997.47 -5.8709 -0.24485 0
M  V30 38313 H 3998.99 -5.993 -1.16925 0
M  V30 38314 H 4000.41 -5.63164 1.07326 0
M  V30 38315 H 3998.8 -5.70514 1.86102 0
M  V30 38316 H 3999.87 -4.32909 2.18444 0
M  V30 38317 N 4001.22 -0.574861 -1.46742 0
M  V30 38318 C 4002.15 0.150795 -2.33013 0
M  V30 38319 C 4003.13 0.891447 -1.4487 0
M  V30 38320 O 4004.31 0.86845 -1.737 0
M  V30 38321 C 4001.44 1.17006 -3.26997 0
M  V30 38322 C 4000.4 0.544755 -4.24519 0
M  V30 38323 C 3999.72 1.66993 -5.07954 0
M  V30 38324 C 4001.02 -0.512983 -5.19775 0
M  V30 38325 H 4002.72 -0.569485 -2.93934 0
M  V30 38326 H 4000.26 -0.275314 -1.41344 0
M  V30 38327 H 4002.22 1.68602 -3.86201 0
M  V30 38328 H 4000.94 1.92052 -2.64166 0
M  V30 38329 H 3999.6 0.0499489 -3.66566 0
M  V30 38330 H 3999.25 2.40986 -4.41514 0
M  V30 38331 H 3998.95 1.25722 -5.73993 0
M  V30 38332 H 4000.47 2.1888 -5.70021 0
M  V30 38333 H 4001.88 -0.0824072 -5.73241 0
M  V30 38334 H 4000.28 -0.845566 -5.94113 0
M  V30 38335 H 4001.35 -1.40225 -4.64182 0
M  V30 38336 N 4002.69 1.54476 -0.312224 0
M  V30 38337 C 4003.92 2.04771 0.296025 0
M  V30 38338 C 4004.34 1.18896 1.4666 0
M  V30 38339 O 4003.69 0.217075 1.81204 0
M  V30 38340 C 4003.75 3.53815 0.741448 0
M  V30 38341 O 4003.47 4.36427 -0.382547 0
M  V30 38342 C 4004.97 4.20155 1.41369 0
M  V30 38343 H 4002.19 0.668065 0.0626932 0
M  V30 38344 H 4004.73 1.99371 -0.455118 0
M  V30 38345 H 4002.89 3.59539 1.44259 0
M  V30 38346 H 4003.3 5.24489 -0.0337304 0
M  V30 38347 H 4004.77 5.25929 1.6764 0
M  V30 38348 H 4005.25 3.70574 2.35736 0
M  V30 38349 H 4005.86 4.18537 0.755424 0
M  V30 38350 N 4004.17 0.0401637 1.57549 0
M  V30 38351 C 4005.1 -0.936131 2.13913 0
M  V30 38352 C 4006.08 -1.33192 1.05801 0
M  V30 38353 O 4007.27 -1.40859 1.33688 0
M  V30 38354 C 4004.4 -2.21474 2.67519 0
M  V30 38355 C 4003.35 -1.95936 3.80517 0
M  V30 38356 C 4002.68 -3.30157 4.20595 0
M  V30 38357 C 4003.98 -1.28972 5.06126 0
M  V30 38358 H 4005.67 -0.466688 2.9574 0
M  V30 38359 H 4003.22 -0.223037 1.42262 0
M  V30 38360 H 4005.17 -2.90163 3.05587 0
M  V30 38361 H 4003.9 -2.70604 1.82868 0
M  V30 38362 H 4002.55 -1.29663 3.42904 0
M  V30 38363 H 4002.2 -3.77067 3.3291 0
M  V30 38364 H 4001.9 -3.13872 4.96748 0
M  V30 38365 H 4003.43 -4.00095 4.61255 0
M  V30 38366 H 4004.84 -1.87678 5.4171 0
M  V30 38367 H 4003.24 -1.23049 5.87349 0
M  V30 38368 H 4004.31 -0.264201 4.8418 0
M  V30 38369 N 4005.65 -1.55866 -0.233109 0
M  V30 38370 C 4006.9 -1.7799 -0.957293 0
M  V30 38371 C 4007.22 -0.606626 -1.85324 0
M  V30 38372 O 4006.49 0.377013 -1.92238 0
M  V30 38373 H 4005.07 -0.656463 -0.356462 0
M  V30 38374 H 4007.73 -1.93319 -0.24774 0
M  V30 38375 H 4006.83 -2.69683 -1.57091 0
M  V30 38376 N 4007.13 0.499346 -1.4948 0
M  V30 38377 C 4008.06 1.60931 -1.69185 0
M  V30 38378 C 4009.04 1.61282 -0.540558 0
M  V30 38379 O 4010.23 1.77997 -0.776585 0
M  V30 38380 C 4007.36 2.99407 -1.7599 0
M  V30 38381 C 4006.31 3.13921 -2.90925 0
M  V30 38382 C 4005.64 4.53765 -2.82845 0
M  V30 38383 C 4006.94 2.93791 -4.31838 0
M  V30 38384 H 4008.63 1.44695 -2.62114 0
M  V30 38385 H 4006.18 0.694665 -1.26136 0
M  V30 38386 H 4008.13 3.76959 -1.88361 0
M  V30 38387 H 4006.85 3.16736 -0.796612 0
M  V30 38388 H 4005.51 2.38795 -2.78159 0
M  V30 38389 H 4005.16 4.67972 -1.84421 0
M  V30 38390 H 4004.86 4.64417 -3.59987 0
M  V30 38391 H 4006.38 5.33375 -2.97226 0
M  V30 38392 H 4007.8 3.61111 -4.45277 0
M  V30 38393 H 4006.19 3.15913 -5.10215 0
M  V30 38394 H 4007.26 1.899 -4.46168 0
M  V30 38395 N 4008.61 1.38582 0.750513 0
M  V30 38396 C 4009.56 1.36179 1.88568 0
M  V30 38397 C 4010.55 0.247205 1.67587 0
M  V30 38398 O 4011.76 0.416408 1.75117 0
M  V30 38399 H 4008.13 0.424892 0.62046 0
M  V30 38400 H 4010.1 2.31963 1.87712 0
M  V30 38401 C 4008.85 1.20679 3.26086 0
M  V30 38402 H 4008.17 2.05707 3.42819 0
M  V30 38403 H 4009.61 1.23052 4.05752 0
M  V30 38404 C 4008.07 -0.0860597 3.3679 0
M  V30 38405 O 4008.6 -1.06196 3.87408 0
M  V30 38406 N 4006.81 -0.143926 2.90243 0
M  V30 38407 H 4006.36 0.650912 2.49241 0
M  V30 38408 H 4006.31 -1.00852 2.97786 0
M  V30 38409 N 4010.09 -0.979029 1.23502 0
M  V30 38410 C 4011.02 -2.08968 1.04187 0
M  V30 38411 C 4012 -1.70049 -0.0416551 0
M  V30 38412 O 4013.18 -1.93808 0.123252 0
M  V30 38413 C 4010.31 -3.41469 0.633756 0
M  V30 38414 C 4009.27 -3.94296 1.66477 0
M  V30 38415 C 4008.59 -5.23008 1.11207 0
M  V30 38416 C 4009.89 -4.2341 3.05812 0
M  V30 38417 H 4011.59 -2.25385 1.97084 0
M  V30 38418 H 4009.13 -1.08307 0.948982 0
M  V30 38419 H 4011.08 -4.18592 0.485673 0
M  V30 38420 H 4009.81 -3.24919 -0.330901 0
M  V30 38421 H 4008.47 -3.19318 1.80087 0
M  V30 38422 H 4008.12 -5.0281 0.138353 0
M  V30 38423 H 4007.82 -5.5932 1.80097 0
M  V30 38424 H 4009.34 -6.02751 0.975865 0
M  V30 38425 H 4010.75 -4.91279 2.95496 0
M  V30 38426 H 4009.15 -4.70927 3.71952 0
M  V30 38427 H 4010.22 -3.30629 3.54701 0
M  V30 38428 N 4011.56 -1.04695 -1.178 0
M  V30 38429 C 4012.79 -0.774227 -1.92407 0
M  V30 38430 C 4013.21 0.663393 -1.76013 0
M  V30 38431 O 4012.57 1.46028 -1.0745 0
M  V30 38432 C 4012.62 -1.15336 -3.41658 0
M  V30 38433 O 4011.72 -0.282542 -4.11431 0
M  V30 38434 H 4011.06 -0.284364 -0.600028 0
M  V30 38435 H 4013.59 -1.39847 -1.49345 0
M  V30 38436 H 4013.6 -1.11798 -3.92384 0
M  V30 38437 H 4012.28 -2.20062 -3.5291 0
M  V30 38438 H 4010.86 -0.378086 -3.70978 0
M  V30 38439 N 4013.04 1.34141 -0.827275 0
M  V30 38440 C 4013.99 2.26892 -0.224493 0
M  V30 38441 C 4014.98 1.48733 0.613774 0
M  V30 38442 O 4016.17 1.70711 0.467641 0
M  V30 38443 C 4013.3 3.37853 0.609131 0
M  V30 38444 C 4012.38 4.2342 -0.240004 0
M  V30 38445 N 4012.77 4.88457 -1.31312 0
M  V30 38446 C 4011.07 4.45993 -0.0250723 0
M  V30 38447 C 4011.77 5.52056 -1.83327 0
M  V30 38448 N 4010.75 5.31587 -1.13649 0
M  V30 38449 H 4014.55 2.74683 -1.04529 0
M  V30 38450 H 4012.06 1.47911 -0.670529 0
M  V30 38451 H 4014.06 4.03273 1.05717 0
M  V30 38452 H 4012.72 2.91611 1.42804 0
M  V30 38453 H 4013.73 4.89344 -1.69595 0
M  V30 38454 H 4010.41 4.105 0.761321 0
M  V30 38455 H 4011.8 6.13882 -2.73128 0
M  V30 38456 N 4014.52 0.582635 1.46435 0
M  V30 38457 C 4015.45 -0.138436 2.33089 0
M  V30 38458 C 4016.43 -0.883751 1.4534 0
M  V30 38459 O 4017.62 -0.859226 1.74158 0
M  V30 38460 C 4014.75 -1.15271 3.27613 0
M  V30 38461 C 4013.7 -0.522234 4.24802 0
M  V30 38462 C 4013.03 -1.64297 5.08833 0
M  V30 38463 C 4014.33 0.54054 5.19495 0
M  V30 38464 H 4016.02 0.585065 2.93628 0
M  V30 38465 H 4013.57 0.282806 1.41196 0
M  V30 38466 H 4015.52 -1.66551 3.8709 0
M  V30 38467 H 4014.24 -1.90648 2.65181 0
M  V30 38468 H 4012.9 -0.0305083 3.66587 0
M  V30 38469 H 4012.55 -2.38641 4.42786 0
M  V30 38470 H 4012.25 -1.22676 5.74651 0
M  V30 38471 H 4013.77 -2.15854 5.71174 0
M  V30 38472 H 4015.19 0.112806 5.73189 0
M  V30 38473 H 4013.58 0.877061 5.93656 0
M  V30 38474 H 4014.65 1.42685 4.63432 0
M  V30 38475 N 4016 -1.54309 0.320412 0
M  V30 38476 C 4017.25 -2.00115 -0.282548 0
M  V30 38477 C 4017.57 -1.21021 -1.52902 0
M  V30 38478 O 4016.84 -0.311197 -1.93412 0
M  V30 38479 H 4015.42 -0.73924 -0.107393 0
M  V30 38480 H 4018.08 -1.89955 0.436229 0
M  V30 38481 H 4017.17 -3.07373 -0.541135 0
M  V30 38482 N 4017.48 -0.0485183 -1.57525 0
M  V30 38483 C 4018.89 0.308013 -1.566 0
M  V30 38484 C 4019.09 1.71616 -1.05594 0
M  V30 38485 O 4018.15 2.42273 -0.711345 0
M  V30 38486 C 4019.46 0.138902 -3.00379 0
M  V30 38487 C 4021.01 0.210207 -3.12293 0
M  V30 38488 C 4021.48 0.0696564 -4.57947 0
M  V30 38489 N 4022.97 0.126018 -4.63029 0
M  V30 38490 C 4023.71 0.0413384 -5.73385 0
M  V30 38491 N 4023.21 -0.0955382 -6.92734 0
M  V30 38492 N 4025 0.0967293 -5.62017 0
M  V30 38493 H 4017.15 -0.969102 -1.89003 0
M  V30 38494 H 4019.41 -0.37596 -0.870263 0
M  V30 38495 H 4019.12 -0.831868 -3.4172 0
M  V30 38496 H 4018.99 0.901045 -3.6628 0
M  V30 38497 H 4021.38 1.17145 -2.70853 0
M  V30 38498 H 4021.46 -0.582645 -2.49076 0
M  V30 38499 H 4021.1 -0.888249 -5.00073 0
M  V30 38500 H 4021.03 0.881619 -5.19168 0
M  V30 38501 H 4023.53 0.231166 -3.77192 0
M  V30 38502 H 4023.84 -0.152932 -7.72649 0
M  V30 38503 H 4022.18 -0.130587 -6.94877 0
M  V30 38504 H 4025.37 0.2022 -4.67663 0
M  V30 38505 H 4025.55 0.0272769 -6.47994 0
M  V30 38506 N 4018.95 1.55988 0.224839 0
M  V30 38507 C 4019.92 1.9132 1.26211 0
M  V30 38508 C 4020.92 0.791497 1.39971 0
M  V30 38509 O 4022.11 1.05928 1.38293 0
M  V30 38510 C 4019.24 2.16112 2.63645 0
M  V30 38511 H 4020.43 2.8409 0.960883 0
M  V30 38512 H 4017.98 1.49219 0.465112 0
M  V30 38513 H 4018.72 1.25883 2.98871 0
M  V30 38514 H 4018.5 2.97825 2.55034 0
M  V30 38515 H 4019.99 2.44554 3.38501 0
M  V30 38516 N 4020.43 -0.491412 1.49743 0
M  V30 38517 C 4021.34 -1.61807 1.69869 0
M  V30 38518 C 4022.36 -1.63999 0.581415 0
M  V30 38519 O 4023.53 -1.82243 0.857295 0
M  V30 38520 C 4020.6 -2.98131 1.7697 0
M  V30 38521 C 4019.66 -3.06491 3.00603 0
M  V30 38522 C 4018.89 -4.36312 3.07356 0
M  V30 38523 O 4019.12 -5.25662 2.21441 0
M  V30 38524 O 4018.05 -4.49843 3.99906 0
M  V30 38525 H 4021.88 -1.47755 2.65334 0
M  V30 38526 H 4019.46 -0.668737 1.33597 0
M  V30 38527 H 4021.34 -3.79136 1.83939 0
M  V30 38528 H 4020.02 -3.12426 0.846862 0
M  V30 38529 H 4018.92 -2.24638 2.99146 0
M  V30 38530 H 4020.26 -2.97126 3.92399 0
M  V30 38531 N 4021.91 -1.38978 -0.743153 0
M  V30 38532 C 4023.33 -1.20404 -1.04762 0
M  V30 38533 C 4023.53 -0.0599493 -2.01411 0
M  V30 38534 O 4022.58 0.590983 -2.45487 0
M  V30 38535 C 4023.9 -2.53477 -1.61771 0
M  V30 38536 C 4025.44 -2.60251 -1.73891 0
M  V30 38537 C 4025.92 -3.93526 -2.34311 0
M  V30 38538 N 4027.41 -3.95121 -2.4173 0
M  V30 38539 C 4028.14 -4.95012 -2.89398 0
M  V30 38540 N 4027.64 -6.05299 -3.37024 0
M  V30 38541 N 4029.43 -4.82395 -2.88533 0
M  V30 38542 H 4021.58 -2.12155 -0.101999 0
M  V30 38543 H 4023.85 -0.941842 -0.107876 0
M  V30 38544 H 4023.55 -3.37706 -0.982215 0
M  V30 38545 H 4023.43 -2.72617 -2.60691 0
M  V30 38546 H 4025.81 -1.76411 -2.36565 0
M  V30 38547 H 4025.9 -2.44969 -0.736466 0
M  V30 38548 H 4025.54 -4.77793 -1.72267 0
M  V30 38549 H 4025.47 -4.06125 -3.35217 0
M  V30 38550 H 4027.96 -3.15468 -2.08058 0
M  V30 38551 H 4028.27 -6.77438 -3.71883 0
M  V30 38552 H 4026.62 -6.08904 -3.35054 0
M  V30 38553 H 4029.81 -3.95342 -2.50644 0
M  V30 38554 H 4029.98 -5.60392 -3.25369 0
M  V30 38555 N 4023.39 0.972465 -1.2402 0
M  V30 38556 C 4024.64 1.70911 -1.07108 0
M  V30 38557 C 4024.95 1.91655 0.390874 0
M  V30 38558 O 4026.16 2.62844 0.680084 0
M  V30 38559 C 4024.61 3.07609 -1.86829 0
M  V30 38560 C 4024.22 2.94725 -3.37404 0
M  V30 38561 C 4025.96 3.85179 -1.78431 0
M  V30 38562 C 4023.87 4.26702 -4.09486 0
M  V30 38563 H 4022.8 0.6409 -0.397195 0
M  V30 38564 H 4025.45 1.08402 -1.48058 0
M  V30 38565 H 4023.83 3.70919 -1.38689 0
M  V30 38566 H 4025.01 2.40455 -3.93088 0
M  V30 38567 H 4023.32 2.30624 -3.46701 0
M  V30 38568 H 4025.92 4.82899 -2.29592 0
M  V30 38569 H 4026.26 4.09513 -0.748627 0
M  V30 38570 H 4026.8 3.28585 -2.24225 0
M  V30 38571 H 4023.54 4.07562 -5.13394 0
M  V30 38572 H 4023.06 4.80806 -3.58588 0
M  V30 38573 H 4024.73 4.95348 -4.16221 0
M  V30 38574 N 4024.87 1.05318 1.17243 0
M  V30 38575 C 4025.8 0.676349 2.2349 0
M  V30 38576 C 4026.78 -0.326478 1.66938 0
M  V30 38577 O 4027.96 -0.203789 1.93128 0
M  V30 38578 C 4025.09 0.0516366 3.47262 0
M  V30 38579 C 4024.05 0.979363 4.16644 0
M  V30 38580 C 4023.37 0.218463 5.34254 0
M  V30 38581 C 4024.67 2.30407 4.68732 0
M  V30 38582 H 4026.37 1.56459 2.55266 0
M  V30 38583 H 4023.91 0.753736 1.22698 0
M  V30 38584 H 4025.87 -0.223791 4.20805 0
M  V30 38585 H 4024.59 -0.871559 3.14756 0
M  V30 38586 H 4023.25 1.23938 3.45015 0
M  V30 38587 H 4022.9 -0.707537 4.97999 0
M  V30 38588 H 4022.6 0.836643 5.81613 0
M  V30 38589 H 4024.12 -0.0496501 6.1058 0
M  V30 38590 H 4025.53 2.08847 5.33906 0
M  V30 38591 H 4023.93 2.87634 5.26675 0
M  V30 38592 H 4025 2.94176 3.85472 0
M  V30 38593 N 4026.34 -1.33701 0.834377 0
M  V30 38594 C 4027.25 -2.33079 0.26669 0
M  V30 38595 C 4028.27 -1.63146 -0.60493 0
M  V30 38596 O 4029.45 -1.94833 -0.510117 0
M  V30 38597 C 4026.51 -3.42268 -0.552613 0
M  V30 38598 C 4025.57 -4.2793 0.342752 0
M  V30 38599 C 4024.81 -5.31903 -0.437543 0
M  V30 38600 O 4025.03 -5.45415 -1.6697 0
M  V30 38601 O 4023.96 -6.01612 0.186107 0
M  V30 38602 H 4027.79 -2.83484 1.08951 0
M  V30 38603 H 4025.37 -1.36963 0.596789 0
M  V30 38604 H 4027.26 -4.0891 -1.01835 0
M  V30 38605 H 4025.93 -2.94087 -1.35257 0
M  V30 38606 H 4024.84 -3.6417 0.856232 0
M  V30 38607 H 4026.17 -4.79581 1.10736 0
M  V30 38608 N 4027.82 -0.590393 -1.46124 0
M  V30 38609 C 4028.75 0.126073 -2.33159 0
M  V30 38610 C 4029.73 0.876031 -1.45807 0
M  V30 38611 O 4030.92 0.849978 -1.74611 0
M  V30 38612 C 4028.05 1.13531 -3.28219 0
M  V30 38613 C 4027 0.499698 -4.25073 0
M  V30 38614 C 4026.33 1.61596 -5.09697 0
M  V30 38615 C 4027.63 -0.568083 -5.19201 0
M  V30 38616 H 4029.32 -0.600628 -2.93314 0
M  V30 38617 H 4026.87 -0.29029 -1.41044 0
M  V30 38618 H 4028.82 1.64496 -3.87968 0
M  V30 38619 H 4027.55 1.89239 -2.66188 0
M  V30 38620 H 4026.2 0.0110669 -3.66598 0
M  V30 38621 H 4025.85 2.36289 -4.44045 0
M  V30 38622 H 4025.55 1.19627 -5.75294 0
M  V30 38623 H 4027.08 2.12822 -5.7231 0
M  V30 38624 H 4028.49 -0.143202 -5.73121 0
M  V30 38625 H 4026.89 -0.908532 -5.93183 0
M  V30 38626 H 4027.96 -1.45141 -4.62668 0
M  V30 38627 N 4029.3 1.54136 -0.328591 0
M  V30 38628 C 4030.72 1.59582 0.0238792 0
M  V30 38629 C 4030.92 1.34499 1.50041 0
M  V30 38630 O 4029.97 1.13189 2.25709 0
M  V30 38631 C 4031.29 2.98043 -0.398865 0
M  V30 38632 C 4032.83 3.11038 -0.349944 0
M  V30 38633 C 4033.31 4.51852 -0.747927 0
M  V30 38634 N 4034.8 4.57857 -0.701528 0
M  V30 38635 C 4035.53 5.64935 -0.981604 0
M  V30 38636 N 4035.03 6.79932 -1.32907 0
M  V30 38637 N 4036.82 5.54737 -0.906832 0
M  V30 38638 H 4028.97 1.68697 -1.29055 0
M  V30 38639 H 4031.24 0.789291 -0.525094 0
M  V30 38640 H 4030.94 3.21414 -1.42779 0
M  V30 38641 H 4030.82 3.76476 0.233573 0
M  V30 38642 H 4033.2 2.87399 0.66978 0
M  V30 38643 H 4033.29 2.34698 -1.01738 0
M  V30 38644 H 4032.93 4.76224 -1.76559 0
M  V30 38645 H 4032.86 5.26568 -0.0581225 0
M  V30 38646 H 4035.35 3.7527 -0.445029 0
M  V30 38647 H 4035.66 7.57543 -1.52803 0
M  V30 38648 H 4034.01 6.81416 -1.36738 0
M  V30 38649 H 4037.2 4.63775 -0.634829 0
M  V30 38650 H 4037.37 6.38099 -1.12846 0
M  V30 38651 N 4030.78 0.0568716 1.57497 0
M  V30 38652 C 4032.19 -0.477996 1.80477 0
M  V30 38653 C 4032.54 -1.70568 0.969579 0
M  V30 38654 O 4031.67 -2.15584 0.187794 0
M  V30 38655 C 4032.26 -0.873955 3.27334 0
M  V30 38656 C 4030.82 -1.35377 3.51212 0
M  V30 38657 C 4029.97 -0.331704 2.75309 0
M  V30 38658 H 4032.92 0.282705 1.56162 0
M  V30 38659 H 4032.94 -1.73647 3.38566 0
M  V30 38660 H 4032.45 0.0197692 3.88095 0
M  V30 38661 H 4030.55 -2.26649 2.95738 0
M  V30 38662 H 4030.66 -1.342 4.59921 0
M  V30 38663 H 4029.03 -0.805808 2.41617 0
M  V30 38664 H 4029.81 0.554035 3.388 0
M  V30 38665 N 4032.26 -1.56105 -0.216564 0
M  V30 38666 C 4033.22 -1.91987 -1.25195 0
M  V30 38667 C 4034.22 -0.798909 -1.3955 0
M  V30 38668 O 4035.41 -1.0666 -1.37729 0
M  V30 38669 C 4032.54 -2.17507 -2.62495 0
M  V30 38670 H 4033.73 -2.84595 -0.945804 0
M  V30 38671 H 4031.29 -1.49464 -0.457192 0
M  V30 38672 H 4032.02 -1.27466 -2.98199 0
M  V30 38673 H 4031.81 -2.99174 -2.53451 0
M  V30 38674 H 4033.3 -2.46346 -3.37199 0
M  V30 38675 N 4033.73 0.483463 -1.50001 0
M  V30 38676 C 4034.66 1.59127 -1.70882 0
M  V30 38677 C 4035.65 1.607 -0.557634 0
M  V30 38678 O 4036.83 1.77163 -0.795421 0
M  V30 38679 C 4033.96 2.97524 -1.79156 0
M  V30 38680 C 4032.91 3.10818 -2.94238 0
M  V30 38681 C 4032.24 4.5074 -2.87642 0
M  V30 38682 C 4033.54 2.89194 -4.3493 0
M  V30 38683 H 4035.23 1.41907 -2.63634 0
M  V30 38684 H 4032.78 0.681248 -1.26866 0
M  V30 38685 H 4034.73 3.7494 -1.92349 0
M  V30 38686 H 4033.46 3.15873 -0.830162 0
M  V30 38687 H 4032.12 2.35832 -2.80676 0
M  V30 38688 H 4031.76 4.6599 -1.89374 0
M  V30 38689 H 4031.46 4.60573 -3.64893 0
M  V30 38690 H 4032.99 5.30193 -3.02866 0
M  V30 38691 H 4034.4 3.56368 -4.49082 0
M  V30 38692 H 4032.8 3.10483 -5.13537 0
M  V30 38693 H 4033.87 1.85157 -4.48157 0
M  V30 38694 N 4035.21 1.39371 0.735772 0
M  V30 38695 C 4036.12 1.40301 1.88023 0
M  V30 38696 C 4037.14 0.297908 1.71431 0
M  V30 38697 O 4038.31 0.539253 1.94046 0
M  V30 38698 C 4035.38 1.24421 3.23605 0
M  V30 38699 C 4034.44 2.44896 3.52597 0
M  V30 38700 C 4033.67 2.29764 4.8171 0
M  V30 38701 O 4033.9 1.30071 5.55372 0
M  V30 38702 O 4032.83 3.18731 5.10582 0
M  V30 38703 H 4036.66 2.36771 1.90193 0
M  V30 38704 H 4034.24 1.20478 0.883483 0
M  V30 38705 H 4036.12 1.17695 4.04631 0
M  V30 38706 H 4034.8 0.310466 3.22208 0
M  V30 38707 H 4033.71 2.57199 2.71661 0
M  V30 38708 H 4035.04 3.36962 3.58772 0
M  V30 38709 N 4036.69 -0.965875 1.24534 0
M  V30 38710 C 4037.94 -1.70571 1.08398 0
M  V30 38711 C 4038.26 -1.91309 -0.377624 0
M  V30 38712 O 4037.53 -1.49214 -1.26933 0
M  V30 38713 H 4036.11 -0.632059 0.398134 0
M  V30 38714 H 4038.77 -1.16187 1.56482 0
M  V30 38715 H 4037.87 -2.68948 1.58346 0
M  V30 38716 N 4038.17 -1.05938 -1.16683 0
M  V30 38717 C 4039.1 -0.688192 -2.23128 0
M  V30 38718 C 4040.08 0.31762 -1.67108 0
M  V30 38719 O 4041.27 0.193544 -1.93233 0
M  V30 38720 C 4038.4 -0.070052 -3.47229 0
M  V30 38721 C 4037.35 -1.00144 -4.16119 0
M  V30 38722 C 4036.68 -0.246793 -5.3413 0
M  V30 38723 C 4037.98 -2.3289 -4.67504 0
M  V30 38724 H 4039.67 -1.57811 -2.54433 0
M  V30 38725 H 4037.22 -0.760232 -1.22297 0
M  V30 38726 H 4039.17 0.201471 -4.20918 0
M  V30 38727 H 4037.89 0.854854 -3.15214 0
M  V30 38728 H 4036.55 -1.25766 -3.44352 0
M  V30 38729 H 4036.2 0.681117 -4.98367 0
M  V30 38730 H 4035.9 -0.867475 -5.81161 0
M  V30 38731 H 4037.42 0.0172688 -6.10598 0
M  V30 38732 H 4038.84 -2.11675 -5.32791 0
M  V30 38733 H 4037.23 -2.90423 -5.25142 0
M  V30 38734 H 4038.3 -2.96216 -3.83907 0
M  V30 38735 N 4039.65 1.33256 -0.841456 0
M  V30 38736 C 4040.56 2.32935 -0.279047 0
M  V30 38737 C 4041.57 1.63464 0.596269 0
M  V30 38738 O 4042.75 1.951 0.499778 0
M  V30 38739 C 4039.81 3.42556 0.534454 0
M  V30 38740 C 4038.88 4.27742 -0.365442 0
M  V30 38741 C 4038.11 5.32128 0.409329 0
M  V30 38742 O 4038.33 5.46292 1.64075 0
M  V30 38743 O 4037.27 6.01505 -0.21801 0
M  V30 38744 H 4041.09 2.82902 -1.10453 0
M  V30 38745 H 4038.68 1.36644 -0.604044 0
M  V30 38746 H 4040.56 4.09445 0.996651 0
M  V30 38747 H 4039.23 2.948 1.33696 0
M  V30 38748 H 4038.14 3.6371 -0.875533 0
M  V30 38749 H 4039.47 4.78987 -1.13278 0
M  V30 38750 N 4041.13 0.598134 1.45809 0
M  V30 38751 C 4042.37 0.0894697 2.01902 0
M  V30 38752 C 4042.69 -1.28098 1.47024 0
M  V30 38753 O 4041.96 -1.84418 0.660832 0
M  V30 38754 H 4040.54 0.0300844 0.746394 0
M  V30 38755 H 4043.21 0.777398 1.78725 0
M  V30 38756 H 4042.3 0.0320973 3.12083 0
M  V30 38757 N 4042.6 -1.5396 0.33676 0
M  V30 38758 C 4044.02 -1.59593 -0.0154158 0
M  V30 38759 C 4044.22 -1.35293 -1.49325 0
M  V30 38760 O 4043.28 -1.14385 -2.25105 0
M  V30 38761 C 4044.59 -2.97827 0.414665 0
M  V30 38762 C 4046.14 -3.10848 0.366434 0
M  V30 38763 C 4046.61 -4.51449 0.771879 0
M  V30 38764 N 4048.1 -4.57478 0.725799 0
M  V30 38765 C 4048.84 -5.64407 1.01155 0
M  V30 38766 N 4048.33 -6.79218 1.36511 0
M  V30 38767 N 4050.13 -5.54248 0.936239 0
M  V30 38768 H 4042.28 -1.6801 1.29947 0
M  V30 38769 H 4044.54 -0.786495 0.529273 0
M  V30 38770 H 4044.25 -3.20652 1.44481 0
M  V30 38771 H 4044.12 -3.76595 -0.213604 0
M  V30 38772 H 4046.51 -2.8775 -0.654529 0
M  V30 38773 H 4046.59 -2.34155 1.02982 0
M  V30 38774 H 4046.23 -4.75281 1.79082 0
M  V30 38775 H 4046.16 -5.2653 0.0860468 0
M  V30 38776 H 4048.65 -3.75029 0.464924 0
M  V30 38777 H 4048.97 -7.56722 1.56818 0
M  V30 38778 H 4047.31 -6.80681 1.4035 0
M  V30 38779 H 4050.5 -4.63432 0.659416 0
M  V30 38780 H 4050.68 -6.37491 1.16228 0
M  V30 38781 N 4044.08 -0.0652232 -1.57465 0
M  V30 38782 C 4045.33 0.604927 -1.92415 0
M  V30 38783 C 4045.64 1.71166 -0.946659 0
M  V30 38784 O 4046.85 2.44093 -1.18873 0
M  V30 38785 C 4045.31 1.12735 -3.41788 0
M  V30 38786 C 4044.91 0.0519797 -4.4797 0
M  V30 38787 C 4046.66 1.77194 -3.85749 0
M  V30 38788 C 4044.56 0.588078 -5.88469 0
M  V30 38789 H 4043.49 0.229729 -0.718151 0
M  V30 38790 H 4046.15 -0.136393 -1.82992 0
M  V30 38791 H 4044.53 1.92143 -3.46262 0
M  V30 38792 H 4045.7 -0.722295 -4.55104 0
M  V30 38793 H 4044.02 -0.495989 -4.13435 0
M  V30 38794 H 4046.61 2.18324 -4.88097 0
M  V30 38795 H 4046.96 2.62931 -3.22758 0
M  V30 38796 H 4047.49 1.04419 -3.83851 0
M  V30 38797 H 4044.23 -0.23198 -6.55089 0
M  V30 38798 H 4043.75 1.33002 -5.84868 0
M  V30 38799 H 4045.43 1.06656 -6.38148 0
M  V30 38800 N 4045.56 1.56218 0.208282 0
M  V30 38801 C 4046.98 1.49507 0.558563 0
M  V30 38802 C 4047.18 0.762817 1.86503 0
M  V30 38803 O 4046.23 0.307912 2.50616 0
M  V30 38804 C 4047.54 2.94122 0.625505 0
M  V30 38805 C 4049.09 3.04719 0.715235 0
M  V30 38806 C 4049.57 4.50719 0.813405 0
M  V30 38807 N 4051.06 4.54816 0.87728 0
M  V30 38808 C 4051.79 5.65081 0.97318 0
M  V30 38809 N 4051.29 6.85067 1.0322 0
M  V30 38810 N 4053.08 5.52963 1.00935 0
M  V30 38811 H 4045.23 2.02246 -0.648862 0
M  V30 38812 H 4047.5 0.919816 -0.229441 0
M  V30 38813 H 4047.2 3.50699 -0.265118 0
M  V30 38814 H 4047.08 3.46753 1.48467 0
M  V30 38815 H 4049.46 2.48198 1.59629 0
M  V30 38816 H 4049.54 2.55235 -0.169863 0
M  V30 38817 H 4049.19 5.07861 -0.0632495 0
M  V30 38818 H 4049.12 4.97921 1.71411 0
M  V30 38819 H 4051.61 3.68413 0.841448 0
M  V30 38820 H 4051.92 7.64852 1.10552 0
M  V30 38821 H 4050.27 6.87752 1.0011 0
M  V30 38822 H 4053.46 4.58151 0.959985 0
M  V30 38823 H 4053.63 6.38926 1.08063 0
M  V30 38824 N 4047.04 -0.475502 1.50256 0
M  V30 38825 C 4048.27 -1.24948 1.64535 0
M  V30 38826 C 4048.68 -1.86366 0.326256 0
M  V30 38827 O 4048.02 -1.69787 -0.701283 0
M  V30 38828 C 4048.08 -2.40139 2.67533 0
M  V30 38829 C 4047.74 -1.99392 4.11208 0
M  V30 38830 C 4048.74 -1.51897 4.97216 0
M  V30 38831 C 4046.43 -2.08248 4.57098 0
M  V30 38832 C 4048.42 -1.13794 6.2716 0
M  V30 38833 C 4046.11 -1.69756 5.87049 0
M  V30 38834 C 4047.11 -1.22607 6.71905 0
M  V30 38835 O 4046.79 -0.846464 7.99431 0
M  V30 38836 H 4046.53 -0.3842 0.556207 0
M  V30 38837 H 4049.08 -0.574521 1.97201 0
M  V30 38838 H 4047.31 -3.10791 2.30099 0
M  V30 38839 H 4049 -3.02112 2.71077 0
M  V30 38840 H 4049.76 -1.44481 4.6298 0
M  V30 38841 H 4045.64 -2.43896 3.91198 0
M  V30 38842 H 4049.19 -0.769212 6.93346 0
M  V30 38843 H 4045.08 -1.7683 6.20807 0
M  V30 38844 H 4045.85 -0.975702 8.12664 0
M  V30 38845 N 4048.52 -1.39759 -0.72837 0
M  V30 38846 C 4049.76 -1.37547 -1.49026 0
M  V30 38847 C 4050.09 0.0264833 -1.94182 0
M  V30 38848 O 4049.37 0.992707 -1.67259 0
M  V30 38849 C 4049.65 -2.3537 -2.72531 0
M  V30 38850 C 4049.51 -3.84535 -2.33351 0
M  V30 38851 C 4050.82 -2.3092 -3.74652 0
M  V30 38852 H 4047.94 -0.500944 -0.540578 0
M  V30 38853 H 4050.59 -1.708 -0.832304 0
M  V30 38854 H 4048.74 -2.07143 -3.2867 0
M  V30 38855 H 4050.41 -4.23538 -1.82792 0
M  V30 38856 H 4048.65 -4.00989 -1.65501 0
M  V30 38857 H 4049.32 -4.48479 -3.21824 0
M  V30 38858 H 4051.8 -2.55894 -3.28112 0
M  V30 38859 H 4050.67 -3.01436 -4.58724 0
M  V30 38860 H 4050.93 -1.31647 -4.22044 0
M  V30 38861 N 4049.99 0.959257 -1.25044 0
M  V30 38862 C 4051.24 1.69766 -1.08915 0
M  V30 38863 C 4051.56 1.92059 0.370524 0
M  V30 38864 O 4052.76 2.63551 0.652168 0
M  V30 38865 C 4051.22 3.0561 -1.90081 0
M  V30 38866 C 4050.83 2.9113 -3.40511 0
M  V30 38867 C 4052.57 3.83264 -1.82507 0
M  V30 38868 C 4050.48 4.22335 -4.13989 0
M  V30 38869 H 4049.41 0.636651 -0.40397 0
M  V30 38870 H 4052.06 1.06826 -1.492 0
M  V30 38871 H 4050.44 3.69428 -1.42616 0
M  V30 38872 H 4051.61 2.36272 -3.95616 0
M  V30 38873 H 4049.93 2.26934 -3.49127 0
M  V30 38874 H 4052.53 4.80437 -2.34701 0
M  V30 38875 H 4052.87 4.08696 -0.792019 0
M  V30 38876 H 4053.4 3.26188 -2.27697 0
M  V30 38877 H 4050.14 4.02094 -5.17688 0
M  V30 38878 H 4049.66 4.76976 -3.63668 0
M  V30 38879 H 4051.34 4.90905 -4.21451 0
M  V30 38880 N 4051.47 1.06556 1.16119 0
M  V30 38881 C 4052.72 0.785022 1.8699 0
M  V30 38882 C 4053.05 -0.686887 1.81647 0
M  V30 38883 O 4052.33 -1.50345 1.23397 0
M  V30 38884 C 4052.61 1.28361 3.36445 0
M  V30 38885 C 4052.46 2.81947 3.50465 0
M  V30 38886 C 4053.78 0.893637 4.30932 0
M  V30 38887 H 4050.9 0.286645 0.678973 0
M  V30 38888 H 4053.54 1.32194 1.36472 0
M  V30 38889 H 4051.69 0.826862 3.79599 0
M  V30 38890 H 4053.36 3.3585 3.16232 0
M  V30 38891 H 4051.61 3.20546 2.92289 0
M  V30 38892 H 4052.28 3.11899 4.55437 0
M  V30 38893 H 4054.75 1.28707 3.95694 0
M  V30 38894 H 4053.63 1.26993 5.34007 0
M  V30 38895 H 4053.89 -0.201196 4.41642 0
M  V30 38896 N 4052.95 -1.32808 0.848511 0
M  V30 38897 C 4054.37 -1.50275 0.537556 0
M  V30 38898 C 4054.57 -1.78593 -0.933109 0
M  V30 38899 O 4053.62 -1.85187 -1.71646 0
M  V30 38900 C 4054.94 -2.651 1.41923 0
M  V30 38901 C 4056.48 -2.78986 1.41902 0
M  V30 38902 C 4056.96 -3.96884 2.28577 0
M  V30 38903 N 4058.45 -4.04135 2.26338 0
M  V30 38904 C 4059.18 -4.94579 2.90136 0
M  V30 38905 N 4058.68 -5.90074 3.63022 0
M  V30 38906 N 4060.47 -4.87653 2.79556 0
M  V30 38907 H 4052.62 -1.12692 1.8004 0
M  V30 38908 H 4054.89 -0.554876 0.768646 0
M  V30 38909 H 4054.59 -2.50885 2.46475 0
M  V30 38910 H 4054.47 -3.60737 1.1022 0
M  V30 38911 H 4056.85 -2.92628 0.381179 0
M  V30 38912 H 4056.94 -1.84081 1.77618 0
M  V30 38913 H 4056.58 -3.84 3.32425 0
M  V30 38914 H 4056.51 -4.91053 1.90197 0
M  V30 38915 H 4059 -3.35799 1.73343 0
M  V30 38916 H 4059.31 -6.5577 4.08883 0
M  V30 38917 H 4057.66 -5.90119 3.6713 0
M  V30 38918 H 4060.85 -4.12018 2.22169 0
M  V30 38919 H 4061.02 -5.57939 3.29558 0
M  V30 38920 N 4054.43 -0.605858 -1.45489 0
M  V30 38921 C 4055.68 -0.100176 -2.01852 0
M  V30 38922 C 4056 1.27316 -1.47701 0
M  V30 38923 O 4055.27 1.84064 -0.670603 0
M  V30 38924 H 4053.85 -0.0340423 -0.746224 0
M  V30 38925 H 4056.51 -0.786865 -1.7831 0
M  V30 38926 H 4055.61 -0.0486474 -3.12062 0
M  V30 38927 N 4055.91 1.53779 -0.34492 0
M  V30 38928 C 4056.85 2.26562 0.526552 0
M  V30 38929 C 4057.85 1.28758 1.10081 0
M  V30 38930 O 4059.05 1.46461 1.04638 0
M  V30 38931 H 4055.43 0.727994 0.188492 0
M  V30 38932 H 4057.4 2.982 -0.109321 0
M  V30 38933 C 4056.15 3.05243 1.665 0
M  V30 38934 H 4055.47 3.80332 1.2324 0
M  V30 38935 H 4056.91 3.59381 2.24992 0
M  V30 38936 C 4055.37 2.14823 2.59524 0
M  V30 38937 O 4055.9 1.74523 3.61807 0
M  V30 38938 N 4054.11 1.79875 2.2824 0
M  V30 38939 H 4053.65 2.12845 1.45102 0
M  V30 38940 H 4053.61 1.19659 2.90739 0
M  V30 38941 N 4057.38 0.0735731 1.57428 0
M  V30 38942 C 4058.29 -0.907737 2.16327 0
M  V30 38943 C 4059.31 -1.32577 1.12691 0
M  V30 38944 O 4060.49 -1.39811 1.44965 0
M  V30 38945 C 4057.55 -2.15649 2.71471 0
M  V30 38946 C 4056.61 -1.7947 3.89986 0
M  V30 38947 C 4055.85 -2.98392 4.42491 0
M  V30 38948 O 4056.07 -4.12464 3.93992 0
M  V30 38949 O 4055 -2.78105 5.33799 0
M  V30 38950 H 4058.83 -0.436719 3.00544 0
M  V30 38951 H 4056.41 -0.149596 1.48649 0
M  V30 38952 H 4058.3 -2.88873 3.06807 0
M  V30 38953 H 4056.97 -2.61845 1.90313 0
M  V30 38954 H 4055.88 -1.03492 3.595 0
M  V30 38955 H 4057.21 -1.38055 4.72442 0
M  V30 38956 N 4058.86 -1.56326 -0.199995 0
M  V30 38957 C 4059.79 -1.90675 -1.27183 0
M  V30 38958 C 4060.81 -0.796958 -1.41959 0
M  V30 38959 O 4062 -1.07535 -1.42472 0
M  V30 38960 C 4059.1 -2.11924 -2.64464 0
M  V30 38961 C 4058.27 -3.43049 -2.7136 0
M  V30 38962 C 4057.33 -3.53469 -3.89803 0
M  V30 38963 O 4056.35 -4.26331 -3.77134 0
M  V30 38964 N 4057.56 -2.86196 -5.05047 0
M  V30 38965 H 4060.32 -2.83212 -0.980347 0
M  V30 38966 H 4057.88 -1.57134 -0.389939 0
M  V30 38967 H 4059.87 -2.16188 -3.42118 0
M  V30 38968 H 4058.44 -1.25909 -2.86122 0
M  V30 38969 H 4057.66 -3.50696 -1.80017 0
M  V30 38970 H 4058.95 -4.29388 -2.72954 0
M  V30 38971 H 4058.35 -2.26817 -5.18238 0
M  V30 38972 H 4056.91 -2.96093 -5.80665 0
M  V30 38973 N 4060.34 0.467527 -1.50506 0
M  V30 38974 C 4061.59 1.21694 -1.61354 0
M  V30 38975 C 4061.91 1.92396 -0.317617 0
M  V30 38976 O 4061.18 1.84264 0.66509 0
M  V30 38977 H 4059.76 0.452185 -0.59459 0
M  V30 38978 H 4062.42 0.538967 -1.873 0
M  V30 38979 H 4061.52 1.96292 -2.42644 0
M  V30 38980 N 4061.82 1.40143 0.720948 0
M  V30 38981 C 4063.07 1.3813 1.48075 0
M  V30 38982 C 4063.39 -0.0181549 1.94492 0
M  V30 38983 O 4062.65 -1.00169 1.68121 0
M  V30 38984 C 4062.95 2.31244 2.72509 0
M  V30 38985 C 4062.61 3.78605 2.44886 0
M  V30 38986 C 4061.28 4.18754 2.37062 0
M  V30 38987 C 4063.63 4.71749 2.2159 0
M  V30 38988 C 4060.96 5.50091 2.04003 0
M  V30 38989 C 4063.31 6.03379 1.90044 0
M  V30 38990 C 4061.97 6.42576 1.80699 0
M  V30 38991 H 4061.24 0.505455 0.541845 0
M  V30 38992 H 4063.89 1.72757 0.826281 0
M  V30 38993 H 4062.19 1.89784 3.42767 0
M  V30 38994 H 4063.89 2.26973 3.30582 0
M  V30 38995 H 4060.48 3.46792 2.5186 0
M  V30 38996 H 4064.66 4.41553 2.26593 0
M  V30 38997 H 4059.92 5.79368 1.95301 0
M  V30 38998 H 4064.09 6.75072 1.7103 0
M  V30 38999 H 4061.72 7.44262 1.54849 0
M  V30 39000 N 4063.3 -0.952612 1.25551 0
M  V30 39001 C 4064.54 -1.69747 1.10419 0
M  V30 39002 C 4064.87 -1.91242 -0.354483 0
M  V30 39003 O 4064.13 -1.48248 -1.27753 0
M  V30 39004 C 4064.43 -3.08417 1.80592 0
M  V30 39005 C 4064.09 -3.06715 3.3051 0
M  V30 39006 C 4062.75 -3.05958 3.71407 0
M  V30 39007 C 4065.11 -2.9989 4.26281 0
M  V30 39008 C 4062.43 -2.96128 5.06483 0
M  V30 39009 C 4064.79 -2.91602 5.61383 0
M  V30 39010 C 4063.45 -2.89182 6.01606 0
M  V30 39011 H 4062.72 -0.621147 0.404052 0
M  V30 39012 H 4065.37 -1.1128 1.55849 0
M  V30 39013 H 4063.67 -3.7044 1.27598 0
M  V30 39014 H 4065.37 -3.64875 1.66334 0
M  V30 39015 H 4061.96 -3.08078 2.9797 0
M  V30 39016 H 4066.14 -2.99593 3.95674 0
M  V30 39017 H 4061.4 -2.92624 5.36825 0
M  V30 39018 H 4065.57 -2.85283 6.35285 0
M  V30 39019 H 4063.2 -2.8132 7.06232 0
M  V30 39020 N 4064.77 -1.0717 -1.15553 0
M  V30 39021 C 4066.19 -0.796866 -1.38283 0
M  V30 39022 C 4066.39 0.599748 -1.92368 0
M  V30 39023 O 4065.45 1.35879 -2.12822 0
M  V30 39024 C 4066.76 -1.86914 -2.3555 0
M  V30 39025 C 4068.31 -1.89368 -2.49216 0
M  V30 39026 C 4068.78 -2.95674 -3.49772 0
M  V30 39027 N 4070.27 -2.94765 -3.57306 0
M  V30 39028 C 4071.01 -3.73665 -4.34928 0
M  V30 39029 N 4070.5 -4.62409 -5.15897 0
M  V30 39030 N 4072.3 -3.62019 -4.29998 0
M  V30 39031 H 4064.45 -1.97247 -0.787871 0
M  V30 39032 H 4066.71 -0.855259 -0.408945 0
M  V30 39033 H 4066.42 -2.87256 -2.02921 0
M  V30 39034 H 4066.29 -1.72769 -3.35307 0
M  V30 39035 H 4068.68 -0.896794 -2.81143 0
M  V30 39036 H 4068.76 -2.07591 -1.49464 0
M  V30 39037 H 4068.4 -3.95561 -3.18581 0
M  V30 39038 H 4068.33 -2.74698 -4.49275 0
M  V30 39039 H 4070.82 -2.30434 -2.99514 0
M  V30 39040 H 4071.14 -5.19248 -5.72364 0
M  V30 39041 H 4069.48 -4.66459 -5.15209 0
M  V30 39042 H 4072.67 -2.92068 -3.65806 0
M  V30 39043 H 4072.85 -4.23752 -4.90243 0
M  V30 39044 N 4066.25 1.32356 -0.855542 0
M  V30 39045 C 4067.19 2.26874 -0.245602 0
M  V30 39046 C 4068.16 1.50442 0.616931 0
M  V30 39047 O 4069.35 1.79563 0.573537 0
M  V30 39048 C 4066.48 3.32336 0.653514 0
M  V30 39049 C 4065.52 4.26284 -0.135752 0
M  V30 39050 S 4066.35 5.13924 -1.50475 0
M  V30 39051 C 4067.51 6.22907 -0.611371 0
M  V30 39052 H 4067.74 2.78259 -1.04685 0
M  V30 39053 H 4065.28 1.39901 -0.653226 0
M  V30 39054 H 4067.23 3.93574 1.16662 0
M  V30 39055 H 4065.9 2.79733 1.42858 0
M  V30 39056 H 4065.09 5.01 0.549101 0
M  V30 39057 H 4064.69 3.69468 -0.580466 0
M  V30 39058 H 4066.98 6.7725 0.184022 0
M  V30 39059 H 4067.93 6.95513 -1.32921 0
M  V30 39060 H 4068.33 5.64196 -0.185318 0
M  V30 39061 N 4067.73 0.613565 1.45166 0
M  V30 39062 C 4068.68 -0.123308 2.27666 0
M  V30 39063 C 4069.67 -0.832908 1.37664 0
M  V30 39064 O 4070.86 -0.721912 1.61609 0
M  V30 39065 C 4067.99 -1.11604 3.24653 0
M  V30 39066 C 4067.07 -0.406971 4.22143 0
M  V30 39067 N 4067.46 0.554711 5.02749 0
M  V30 39068 C 4065.76 -0.653742 4.41183 0
M  V30 39069 C 4066.46 0.97204 5.73521 0
M  V30 39070 N 4065.44 0.31452 5.42689 0
M  V30 39071 H 4069.24 0.615225 2.87389 0
M  V30 39072 H 4066.75 0.437695 1.56391 0
M  V30 39073 H 4068.75 -1.65839 3.82496 0
M  V30 39074 H 4067.41 -1.85506 2.66491 0
M  V30 39075 H 4068.42 0.931734 5.0945 0
M  V30 39076 H 4065.1 -1.37698 3.94139 0
M  V30 39077 H 4066.49 1.76555 6.48289 0
M  V30 39078 N 4069.21 -1.53594 0.353071 0
M  V30 39079 C 4070.16 -2.22097 -0.515465 0
M  V30 39080 C 4071.14 -1.21172 -1.05859 0
M  V30 39081 O 4072.34 -1.46676 -0.990711 0
M  V30 39082 C 4069.46 -3.00439 -1.66107 0
M  V30 39083 C 4068.55 -4.08729 -1.13142 0
M  V30 39084 N 4068.94 -5.04763 -0.323757 0
M  V30 39085 C 4067.24 -4.23211 -1.40742 0
M  V30 39086 C 4067.94 -5.81689 -0.0352081 0
M  V30 39087 N 4066.92 -5.39943 -0.629447 0
M  V30 39088 H 4070.72 -2.93699 0.108564 0
M  V30 39089 H 4068.23 -1.61606 0.160428 0
M  V30 39090 H 4070.23 -3.48022 -2.29535 0
M  V30 39091 H 4068.89 -2.30364 -2.28828 0
M  V30 39092 H 4069.9 -5.17888 0.03598 0
M  V30 39093 H 4066.58 -3.6436 -2.03833 0
M  V30 39094 H 4067.97 -6.69062 0.616924 0
M  V30 39095 N 4070.69 -0.0819208 -1.57387 0
M  V30 39096 C 4071.62 0.879086 -2.1632 0
M  V30 39097 C 4072.6 1.3034 -1.09295 0
M  V30 39098 O 4073.78 1.37265 -1.37375 0
M  V30 39099 C 4070.91 2.14304 -2.73297 0
M  V30 39100 C 4069.87 1.85778 -3.85578 0
M  V30 39101 C 4069.19 3.1889 -4.29201 0
M  V30 39102 C 4070.49 1.15508 -5.09367 0
M  V30 39103 H 4072.19 0.388114 -2.96874 0
M  V30 39104 H 4069.73 0.18524 -1.42804 0
M  V30 39105 H 4071.69 2.81958 -3.13173 0
M  V30 39106 H 4070.41 2.65661 -1.89979 0
M  V30 39107 H 4069.07 1.20526 -3.46221 0
M  V30 39108 H 4068.72 3.68108 -3.42791 0
M  V30 39109 H 4068.42 3.00591 -5.04895 0
M  V30 39110 H 4069.94 3.87725 -4.71701 0
M  V30 39111 H 4071.36 1.73249 -5.46496 0
M  V30 39112 H 4069.75 1.07433 -5.90405 0
M  V30 39113 H 4070.82 0.135736 -4.8471 0
M  V30 39114 N 4072.17 1.5643 0.191702 0
M  V30 39115 C 4073.58 1.50091 0.542675 0
M  V30 39116 C 4073.78 0.782555 1.85683 0
M  V30 39117 O 4072.84 0.334476 2.50275 0
M  V30 39118 C 4074.15 2.94769 0.594274 0
M  V30 39119 C 4075.7 3.0546 0.682875 0
M  V30 39120 C 4076.17 4.51556 0.765555 0
M  V30 39121 N 4077.66 4.55721 0.828992 0
M  V30 39122 C 4078.4 5.66082 0.913191 0
M  V30 39123 N 4077.9 6.86124 0.959482 0
M  V30 39124 N 4079.69 5.54003 0.950642 0
M  V30 39125 H 4071.84 2.01547 -0.670276 0
M  V30 39126 H 4074.1 0.91733 -0.239184 0
M  V30 39127 H 4073.81 3.50398 -0.3023 0
M  V30 39128 H 4073.68 3.48308 1.44781 0
M  V30 39129 H 4076.07 2.49878 1.56988 0
M  V30 39130 H 4076.15 2.55041 -0.196924 0
M  V30 39131 H 4075.79 5.07765 -0.117111 0
M  V30 39132 H 4075.72 4.99711 1.66121 0
M  V30 39133 H 4078.22 3.69285 0.802326 0
M  V30 39134 H 4078.53 7.65981 1.02434 0
M  V30 39135 H 4076.87 6.88775 0.928102 0
M  V30 39136 H 4080.06 4.59143 0.911338 0
M  V30 39137 H 4080.24 6.40036 1.0128 0
M  V30 39138 N 4073.64 -0.459538 1.50751 0
M  V30 39139 C 4074.89 -1.20836 1.61997 0
M  V30 39140 C 4075.21 -1.92225 0.327816 0
M  V30 39141 O 4074.48 -1.84614 -0.655309 0
M  V30 39142 H 4073.06 -0.449026 0.59698 0
M  V30 39143 H 4075.72 -0.529027 1.87583 0
M  V30 39144 H 4074.82 -1.95002 2.43681 0
M  V30 39145 N 4075.12 -1.40523 -0.713506 0
M  V30 39146 C 4076.37 -1.3912 -1.47559 0
M  V30 39147 C 4076.7 0.00588625 -1.94199 0
M  V30 39148 O 4075.98 0.974912 -1.68302 0
M  V30 39149 C 4076.26 -2.38247 -2.70019 0
M  V30 39150 C 4076.11 -3.86988 -2.2926 0
M  V30 39151 C 4077.43 -2.34881 -3.72181 0
M  V30 39152 H 4074.55 -0.506649 -0.535234 0
M  V30 39153 H 4077.19 -1.71673 -0.814142 0
M  V30 39154 H 4075.34 -2.10617 -3.26455 0
M  V30 39155 H 4077.01 -4.25453 -1.7829 0
M  V30 39156 H 4075.26 -4.02721 -1.61239 0
M  V30 39157 H 4075.93 -4.51867 -3.17049 0
M  V30 39158 H 4078.4 -2.59359 -3.2538 0
M  V30 39159 H 4077.28 -3.06284 -4.55501 0
M  V30 39160 H 4077.54 -1.36116 -4.20624 0
M  V30 39161 N 4076.6 0.94594 -1.26054 0
M  V30 39162 C 4077.82 1.73138 -1.14184 0
M  V30 39163 C 4078.25 1.85698 0.299631 0
M  V30 39164 O 4077.61 1.34375 1.21708 0
M  V30 39165 C 4077.66 3.1185 -1.81057 0
M  V30 39166 O 4076.76 3.97566 -1.09613 0
M  V30 39167 H 4076.1 0.53139 -0.398147 0
M  V30 39168 H 4078.63 1.18508 -1.66784 0
M  V30 39169 H 4078.64 3.62265 -1.87691 0
M  V30 39170 H 4077.32 3.02025 -2.85927 0
M  V30 39171 H 4075.89 3.56021 -1.10921 0
M  V30 39172 N 4078.08 1.07781 1.14983 0
M  V30 39173 C 4079.3 0.824969 1.90287 0
M  V30 39174 C 4079.73 -0.616493 1.7771 0
M  V30 39175 O 4079.09 -1.43128 1.11284 0
M  V30 39176 C 4079.13 1.24354 3.3848 0
M  V30 39177 O 4078.24 0.391526 4.10537 0
M  V30 39178 H 4077.58 0.300173 0.592277 0
M  V30 39179 H 4080.11 1.43757 1.45585 0
M  V30 39180 H 4080.12 1.22162 3.89282 0
M  V30 39181 H 4078.79 2.29341 3.46952 0
M  V30 39182 H 4077.37 0.476312 3.69845 0
M  V30 39183 N 4079.56 -1.31901 0.862549 0
M  V30 39184 C 4080.49 -2.31178 0.328464 0
M  V30 39185 C 4081.47 -1.60027 -0.576652 0
M  V30 39186 O 4082.65 -1.87779 -0.495237 0
M  V30 39187 C 4079.78 -3.44005 -0.47728 0
M  V30 39188 C 4078.74 -4.26694 0.33409 0
M  V30 39189 C 4078.06 -5.31358 -0.59688 0
M  V30 39190 C 4079.36 -4.98329 1.56414 0
M  V30 39191 H 4081.06 -2.76098 1.15802 0
M  V30 39192 H 4078.6 -1.32737 0.558292 0
M  V30 39193 H 4080.55 -4.12502 -0.861388 0
M  V30 39194 H 4079.28 -2.97832 -1.34028 0
M  V30 39195 H 4077.94 -3.59854 0.700052 0
M  V30 39196 H 4077.59 -4.81438 -1.45694 0
M  V30 39197 H 4077.29 -5.87571 -0.0579484 0
M  V30 39198 H 4078.81 -6.02717 -0.977993 0
M  V30 39199 H 4080.22 -5.59465 1.25188 0
M  V30 39200 H 4078.62 -5.64304 2.04159 0
M  V30 39201 H 4079.69 -4.2574 2.32107 0
M  V30 39202 N 4081.03 -0.621255 -1.44838 0
M  V30 39203 C 4081.97 0.12784 -2.28843 0
M  V30 39204 C 4082.98 0.818517 -1.40727 0
M  V30 39205 O 4084.17 0.681616 -1.64973 0
M  V30 39206 C 4081.27 1.20275 -3.16839 0
M  V30 39207 C 4080.44 0.596523 -4.33313 0
M  V30 39208 C 4079.5 1.5641 -5.02416 0
M  V30 39209 O 4078.53 1.08508 -5.58762 0
M  V30 39210 N 4079.73 2.89851 -5.02958 0
M  V30 39211 H 4082.49 -0.593045 -2.93774 0
M  V30 39212 H 4080.05 -0.461707 -1.55177 0
M  V30 39213 H 4082.05 1.85015 -3.59933 0
M  V30 39214 H 4080.62 1.82599 -2.53725 0
M  V30 39215 H 4079.84 -0.229272 -3.93533 0
M  V30 39216 H 4081.12 0.171971 -5.08509 0
M  V30 39217 H 4080.52 3.31359 -4.58495 0
M  V30 39218 H 4079.08 3.49978 -5.49872 0
M  V30 39219 N 4082.51 1.53405 -0.361211 0
M  V30 39220 C 4083.44 2.28527 0.479328 0
M  V30 39221 C 4084.42 1.30782 1.08766 0
M  V30 39222 O 4085.61 1.59647 1.10573 0
M  V30 39223 C 4082.74 3.07126 1.62144 0
M  V30 39224 C 4081.69 4.12523 1.14058 0
M  V30 39225 C 4081.02 4.79179 2.37259 0
M  V30 39226 C 4082.32 5.218 0.22843 0
M  V30 39227 H 4084.01 2.99037 -0.147397 0
M  V30 39228 H 4081.56 1.43818 -0.0723304 0
M  V30 39229 H 4083.51 3.58425 2.21606 0
M  V30 39230 H 4082.24 2.34299 2.27533 0
M  V30 39231 H 4080.89 3.62163 0.568672 0
M  V30 39232 H 4080.54 4.02928 3.01095 0
M  V30 39233 H 4080.24 5.50397 2.05758 0
M  V30 39234 H 4081.77 5.3327 2.97414 0
M  V30 39235 H 4083.18 5.68628 0.730397 0
M  V30 39236 H 4081.58 6.001 0.00449711 0
M  V30 39237 H 4082.65 4.79364 -0.730621 0
M  V30 39238 N 4083.99 0.0902663 1.57341 0
M  V30 39239 C 4085.24 -0.57344 1.93794 0
M  V30 39240 C 4085.56 -1.69021 0.972473 0
M  V30 39241 O 4084.83 -1.95886 0.0237097 0
M  V30 39242 H 4083.41 -0.214818 0.715445 0
M  V30 39243 H 4086.07 0.152464 1.94303 0
M  V30 39244 H 4085.17 -0.986777 2.9609 0
M  V30 39245 N 4085.47 -1.56529 -0.183403 0
M  V30 39246 C 4086.88 -1.50376 -0.534707 0
M  V30 39247 C 4087.08 -0.792391 -1.85266 0
M  V30 39248 O 4086.14 -0.347744 -2.50094 0
M  V30 39249 C 4087.45 -2.9508 -0.578634 0
M  V30 39250 C 4089 -3.05818 -0.666667 0
M  V30 39251 C 4089.48 -4.51956 -0.741597 0
M  V30 39252 N 4090.97 -4.56155 -0.804812 0
M  V30 39253 C 4091.7 -5.66558 -0.883157 0
M  V30 39254 N 4091.2 -6.86623 -0.923082 0
M  V30 39255 N 4092.99 -5.54499 -0.921248 0
M  V30 39256 H 4085.14 -2.01188 0.680955 0
M  V30 39257 H 4087.41 -0.916049 0.244045 0
M  V30 39258 H 4087.11 -3.50233 0.320878 0
M  V30 39259 H 4086.99 -3.49071 -1.42931 0
M  V30 39260 H 4089.37 -2.50707 -1.55661 0
M  V30 39261 H 4089.45 -2.54933 0.210447 0
M  V30 39262 H 4089.1 -5.07696 0.144038 0
M  V30 39263 H 4089.03 -5.00585 -1.63468 0
M  V30 39264 H 4091.52 -3.69705 -0.782731 0
M  V30 39265 H 4091.83 -7.66514 -0.983701 0
M  V30 39266 H 4090.18 -6.89258 -0.891562 0
M  V30 39267 H 4093.37 -4.5962 -0.886975 0
M  V30 39268 H 4093.54 -6.40564 -0.978845 0
M  V30 39269 N 4086.95 0.451537 -1.50993 0
M  V30 39270 C 4088.36 0.786892 -1.38853 0
M  V30 39271 C 4088.56 1.96184 -0.459798 0
M  V30 39272 O 4087.62 2.52338 0.0903355 0
M  V30 39273 C 4088.93 1.08059 -2.80613 0
M  V30 39274 C 4090.48 1.18588 -2.89665 0
M  V30 39275 C 4090.95 1.5126 -4.32301 0
M  V30 39276 N 4092.45 1.58212 -4.35342 0
M  V30 39277 C 4093.18 1.85036 -5.42724 0
M  V30 39278 N 4092.68 2.09748 -6.60286 0
M  V30 39279 N 4094.47 1.86701 -5.30188 0
M  V30 39280 H 4086.62 -0.322487 -2.09938 0
M  V30 39281 H 4088.88 -0.0818238 -0.944462 0
M  V30 39282 H 4088.59 0.290105 -3.50501 0
M  V30 39283 H 4088.46 2.01187 -3.19067 0
M  V30 39284 H 4090.85 1.96701 -2.19984 0
M  V30 39285 H 4090.93 0.233935 -2.54728 0
M  V30 39286 H 4090.58 0.736794 -5.02527 0
M  V30 39287 H 4090.51 2.47637 -4.6474 0
M  V30 39288 H 4093 1.41076 -3.50579 0
M  V30 39289 H 4093.31 2.29545 -7.37922 0
M  V30 39290 H 4091.65 2.07099 -6.63427 0
M  V30 39291 H 4094.85 1.66904 -4.37333 0
M  V30 39292 H 4095.02 2.07268 -6.13957 0
M  V30 39293 N 4088.42 1.409 0.706044 0
M  V30 39294 C 4089.84 1.23139 1.01533 0
M  V30 39295 C 4090.04 0.113329 2.01181 0
M  V30 39296 O 4089.1 -0.525689 2.46967 0
M  V30 39297 C 4090.41 2.57677 1.54994 0
M  V30 39298 C 4091.96 2.6477 1.6693 0
M  V30 39299 C 4092.43 3.996 2.23795 0
M  V30 39300 N 4093.92 4.01392 2.31169 0
M  V30 39301 C 4094.66 5.0251 2.76172 0
M  V30 39302 N 4094.15 6.14022 3.20857 0
M  V30 39303 N 4095.95 4.89876 2.75642 0
M  V30 39304 H 4088.1 2.12351 0.0457136 0
M  V30 39305 H 4090.36 0.944371 0.0828669 0
M  V30 39306 H 4090.07 3.40192 0.892333 0
M  V30 39307 H 4089.94 2.79433 2.53372 0
M  V30 39308 H 4092.33 1.82621 2.31805 0
M  V30 39309 H 4092.41 2.46836 0.671258 0
M  V30 39310 H 4092.05 4.82193 1.59539 0
M  V30 39311 H 4091.98 4.1487 3.24331 0
M  V30 39312 H 4094.47 3.20874 1.99621 0
M  V30 39313 H 4094.79 6.8706 3.53791 0
M  V30 39314 H 4093.13 6.17573 3.18792 0
M  V30 39315 H 4096.32 4.01848 2.40074 0
M  V30 39316 H 4096.5 5.68821 3.10397 0
M  V30 39317 N 4089.9 -0.939242 1.26554 0
M  V30 39318 C 4091.31 -1.50049 1.11096 0
M  V30 39319 C 4091.66 -1.93766 -0.308071 0
M  V30 39320 O 4090.79 -1.80095 -1.19977 0
M  V30 39321 C 4091.38 -2.72692 2.01058 0
M  V30 39322 C 4089.94 -3.25078 1.8974 0
M  V30 39323 C 4089.09 -1.97851 1.94294 0
M  V30 39324 H 4092.04 -0.754528 1.39616 0
M  V30 39325 H 4092.06 -3.47068 1.55961 0
M  V30 39326 H 4091.57 -2.40843 3.04329 0
M  V30 39327 H 4089.68 -3.61713 0.894105 0
M  V30 39328 H 4089.79 -3.92053 2.75374 0
M  V30 39329 H 4088.15 -2.13835 1.38371 0
M  V30 39330 H 4088.94 -1.6833 2.99199 0
M  V30 39331 N 4091.38 -1.08389 -1.14409 0
M  V30 39332 C 4092.63 -0.811859 -1.85076 0
M  V30 39333 C 4092.95 0.66428 -1.83337 0
M  V30 39334 O 4092.22 1.48156 -1.28166 0
M  V30 39335 H 4090.8 -0.29734 -0.685272 0
M  V30 39336 H 4093.46 -1.36984 -1.38641 0
M  V30 39337 H 4092.56 -1.15586 -2.89907 0
M  V30 39338 N 4092.86 1.31442 -0.869532 0
M  V30 39339 C 4094.27 1.78934 -0.532873 0
M  V30 39340 C 4094.62 1.71656 0.95019 0
M  V30 39341 O 4093.75 1.28405 1.74187 0
M  V30 39342 C 4094.34 3.249 -0.960496 0
M  V30 39343 C 4092.9 3.70289 -0.675501 0
M  V30 39344 C 4092.05 2.52236 -1.15205 0
M  V30 39345 H 4095 1.1853 -1.05529 0
M  V30 39346 H 4095.02 3.79446 -0.282987 0
M  V30 39347 H 4094.53 3.30165 -2.03992 0
M  V30 39348 H 4092.63 3.70526 0.392582 0
M  V30 39349 H 4092.74 4.62446 -1.25222 0
M  V30 39350 H 4091.11 2.48198 -0.57183 0
M  V30 39351 H 4091.89 2.60247 -2.23889 0
M  V30 39352 N 4094.34 0.628927 1.44507 0
M  V30 39353 C 4095.58 0.132276 2.01667 0
M  V30 39354 C 4095.91 -1.2495 1.49708 0
M  V30 39355 O 4095.18 -1.82974 0.699801 0
M  V30 39356 H 4093.76 0.0459097 0.745588 0
M  V30 39357 H 4096.42 0.815133 1.77036 0
M  V30 39358 H 4095.51 0.0982876 3.11945 0
M  V30 39359 N 4095.82 -1.53211 0.369342 0
M  V30 39360 C 4097.04 -2.05729 -0.219821 0
M  V30 39361 C 4097.46 -1.24257 -1.42146 0
M  V30 39362 O 4096.82 -0.284178 -1.80274 0
M  V30 39363 C 4096.87 -3.56323 -0.609621 0
M  V30 39364 O 4096.59 -4.34706 0.544261 0
M  V30 39365 C 4098.09 -4.25112 -1.25677 0
M  V30 39366 H 4095.31 -0.669931 -0.0378552 0
M  V30 39367 H 4097.85 -1.97545 0.5288 0
M  V30 39368 H 4096.01 -3.64645 -1.30815 0
M  V30 39369 H 4096.42 -5.24003 0.228368 0
M  V30 39370 H 4097.9 -5.31788 -1.48005 0
M  V30 39371 H 4098.37 -3.79068 -2.2182 0
M  V30 39372 H 4098.98 -4.21053 -0.599566 0
M  V30 39373 N 4097.29 -0.0986092 -1.57291 0
M  V30 39374 C 4098.52 0.571725 -1.98532 0
M  V30 39375 C 4098.93 1.62044 -0.976648 0
M  V30 39376 O 4098.27 1.83653 0.0415007 0
M  V30 39377 C 4098.34 1.27446 -3.36151 0
M  V30 39378 C 4098 0.376096 -4.5545 0
M  V30 39379 C 4099 -0.377169 -5.1853 0
M  V30 39380 C 4096.68 0.293125 -5.01444 0
M  V30 39381 C 4098.68 -1.20135 -6.25976 0
M  V30 39382 C 4096.36 -0.534701 -6.08756 0
M  V30 39383 C 4097.36 -1.28058 -6.70888 0
M  V30 39384 O 4097.05 -2.0947 -7.7613 0
M  V30 39385 H 4096.78 0.157658 -0.657358 0
M  V30 39386 H 4099.34 -0.175629 -2.04648 0
M  V30 39387 H 4097.57 2.06846 -3.26729 0
M  V30 39388 H 4099.25 1.83968 -3.61816 0
M  V30 39389 H 4100.02 -0.322821 -4.83924 0
M  V30 39390 H 4095.9 0.863349 -4.52844 0
M  V30 39391 H 4099.44 -1.78402 -6.74402 0
M  V30 39392 H 4095.34 -0.590517 -6.42793 0
M  V30 39393 H 4096.11 -2.02191 -7.93134 0
M  V30 39394 N 4098.77 1.56624 0.175099 0
M  V30 39395 C 4100.19 1.50658 0.526725 0
M  V30 39396 C 4100.39 0.802205 1.84843 0
M  V30 39397 O 4099.44 0.361002 2.49906 0
M  V30 39398 C 4100.76 2.95383 0.562977 0
M  V30 39399 C 4102.3 3.06167 0.650439 0
M  V30 39400 C 4102.78 4.52343 0.717618 0
M  V30 39401 N 4104.27 4.56575 0.78061 0
M  V30 39402 C 4105.01 5.67018 0.853099 0
M  V30 39403 N 4104.5 6.87103 0.886656 0
M  V30 39404 N 4106.29 5.5498 0.891829 0
M  V30 39405 H 4098.45 2.00824 -0.691615 0
M  V30 39406 H 4100.71 0.914742 -0.2489 0
M  V30 39407 H 4100.41 3.50058 -0.339447 0
M  V30 39408 H 4100.29 3.49824 1.41078 0
M  V30 39409 H 4102.68 2.51529 1.54329 0
M  V30 39410 H 4102.76 2.54818 -0.223964 0
M  V30 39411 H 4102.4 5.07612 -0.17096 0
M  V30 39412 H 4102.33 5.01445 1.60811 0
M  V30 39413 H 4104.82 3.70115 0.763113 0
M  V30 39414 H 4105.13 7.67025 0.943037 0
M  V30 39415 H 4103.48 6.89721 0.854996 0
M  V30 39416 H 4106.67 4.60084 0.862588 0
M  V30 39417 H 4106.84 6.41074 0.94486 0
M  V30 39418 N 4100.25 -0.443523 1.5123 0
M  V30 39419 C 4101.18 -1.54541 1.75041 0
M  V30 39420 C 4102.16 -1.59165 0.600045 0
M  V30 39421 O 4103.35 -1.74992 0.842113 0
M  V30 39422 C 4100.48 -2.92669 1.86981 0
M  V30 39423 C 4099.43 -3.02908 3.02376 0
M  V30 39424 C 4098.76 -4.42955 2.99491 0
M  V30 39425 C 4100.06 -2.77561 4.42444 0
M  V30 39426 H 4101.75 -1.34867 2.67304 0
M  V30 39427 H 4099.3 -0.647372 1.28628 0
M  V30 39428 H 4101.25 -3.69708 2.02222 0
M  V30 39429 H 4099.97 -3.13561 0.913618 0
M  V30 39430 H 4098.63 -2.28307 2.8683 0
M  V30 39431 H 4098.28 -4.60805 2.01662 0
M  V30 39432 H 4097.98 -4.50736 3.76976 0
M  V30 39433 H 4099.5 -5.21976 3.16817 0
M  V30 39434 H 4100.92 -3.44336 4.58373 0
M  V30 39435 H 4099.31 -2.96759 5.21588 0
M  V30 39436 H 4100.38 -1.7321 4.52909 0
M  V30 39437 N 4101.73 -1.41272 -0.698562 0
M  V30 39438 C 4102.64 -1.45237 -1.84237 0
M  V30 39439 C 4103.65 -0.343255 -1.70581 0
M  V30 39440 O 4104.83 -0.590511 -1.92549 0
M  V30 39441 C 4101.89 -1.32957 -3.20193 0
M  V30 39442 C 4100.96 -2.54159 -3.4598 0
M  V30 39443 C 4100.19 -2.42455 -4.75449 0
M  V30 39444 O 4100.41 -1.4475 -5.51728 0
M  V30 39445 O 4099.35 -3.32156 -5.01952 0
M  V30 39446 H 4103.17 -2.4173 -1.83848 0
M  V30 39447 H 4100.76 -1.22778 -0.85123 0
M  V30 39448 H 4102.64 -1.28381 -4.01368 0
M  V30 39449 H 4101.31 -0.395784 -3.21271 0
M  V30 39450 H 4100.22 -2.64311 -2.64746 0
M  V30 39451 H 4101.55 -3.46355 -3.49712 0
M  V30 39452 N 4103.21 0.932517 -1.27051 0
M  V30 39453 C 4104.45 1.68217 -1.13273 0
M  V30 39454 C 4104.78 1.91519 0.321599 0
M  V30 39455 O 4104.06 1.50209 1.23562 0
M  V30 39456 C 4104.34 3.05167 -1.91168 0
M  V30 39457 C 4104.2 2.89137 -3.44557 0
M  V30 39458 C 4105.51 4.05422 -1.71234 0
M  V30 39459 H 4102.63 0.610497 -0.41287 0
M  V30 39460 H 4105.28 1.08247 -1.56149 0
M  V30 39461 H 4103.43 3.56358 -1.54729 0
M  V30 39462 H 4105.1 2.451 -3.90798 0
M  V30 39463 H 4103.34 2.2458 -3.71142 0
M  V30 39464 H 4104.01 3.86308 -3.94297 0
M  V30 39465 H 4106.49 3.63224 -2.02997 0
M  V30 39466 H 4105.36 4.99244 -2.28138 0
M  V30 39467 H 4105.62 4.3716 -0.659057 0
M  V30 39468 N 4104.68 1.08995 1.13833 0
M  V30 39469 C 4105.93 0.824508 1.85283 0
M  V30 39470 C 4106.26 -0.648203 1.83063 0
M  V30 39471 O 4105.54 -1.47693 1.26558 0
M  V30 39472 C 4105.82 1.35468 3.33647 0
M  V30 39473 C 4105.67 2.89318 3.44406 0
M  V30 39474 C 4106.99 0.984843 4.28939 0
M  V30 39475 H 4104.11 0.300982 0.67274 0
M  V30 39476 H 4106.75 1.35059 1.33638 0
M  V30 39477 H 4104.9 0.907195 3.77759 0
M  V30 39478 H 4106.58 3.42482 3.09037 0
M  V30 39479 H 4104.82 3.26674 2.85424 0
M  V30 39480 H 4105.49 3.21489 4.48719 0
M  V30 39481 H 4107.97 1.37071 3.92875 0
M  V30 39482 H 4106.84 1.38292 5.31194 0
M  V30 39483 H 4107.1 -0.107472 4.41969 0
M  V30 39484 N 4106.16 -1.30979 0.87649 0
M  V30 39485 C 4107.39 -2.01169 0.50456 0
M  V30 39486 C 4107.81 -1.6532 -0.897266 0
M  V30 39487 O 4107.17 -0.865283 -1.59319 0
M  V30 39488 C 4107.22 -3.54196 0.676579 0
M  V30 39489 O 4106.32 -4.1144 -0.281267 0
M  V30 39490 H 4105.66 -0.633206 0.199866 0
M  V30 39491 H 4108.19 -1.67024 1.1817 0
M  V30 39492 H 4108.2 -4.03966 0.572344 0
M  V30 39493 H 4106.88 -3.79627 1.6987 0
M  V30 39494 H 4105.45 -3.72668 -0.131441 0
M  V30 39495 N 4107.64 -0.636582 -1.44171 0
M  V30 39496 C 4108.59 0.087073 -2.27834 0
M  V30 39497 C 4109.57 0.810902 -1.38972 0
M  V30 39498 O 4110.77 0.69611 -1.62737 0
M  V30 39499 C 4107.89 1.06425 -3.26387 0
M  V30 39500 C 4106.98 0.33976 -4.22737 0
M  V30 39501 N 4107.37 -0.634624 -5.01803 0
M  V30 39502 C 4105.67 0.583471 -4.42167 0
M  V30 39503 C 4106.37 -1.06316 -5.71902 0
M  V30 39504 N 4105.35 -0.400817 -5.4212 0
M  V30 39505 H 4109.15 -0.660868 -2.86373 0
M  V30 39506 H 4106.66 -0.46252 -1.55674 0
M  V30 39507 H 4108.66 1.59733 -3.85086 0
M  V30 39508 H 4107.32 1.81243 -2.69409 0
M  V30 39509 H 4108.33 -1.01266 -5.07903 0
M  V30 39510 H 4105.01 1.3141 -3.9628 0
M  V30 39511 H 4106.4 -1.86846 -6.45398 0
M  V30 39512 N 4109.12 1.53013 -0.377462 0
M  V30 39513 C 4110.05 2.22492 0.507222 0
M  V30 39514 C 4111.03 1.22121 1.07356 0
M  V30 39515 O 4112.21 1.51066 1.12744 0
M  V30 39516 C 4109.34 2.92891 1.70096 0
M  V30 39517 C 4108.39 4.07433 1.26098 0
M  V30 39518 S 4109.22 5.34905 0.252357 0
M  V30 39519 C 4110.37 6.08821 1.45215 0
M  V30 39520 H 4110.61 2.97185 -0.0828086 0
M  V30 39521 H 4108.14 1.53552 -0.161603 0
M  V30 39522 H 4110.1 3.34063 2.38563 0
M  V30 39523 H 4108.76 2.179 2.26226 0
M  V30 39524 H 4107.95 4.55749 2.15194 0
M  V30 39525 H 4107.55 3.68213 0.655373 0
M  V30 39526 H 4109.85 6.34274 2.38122 0
M  V30 39527 H 4110.79 7.00858 1.01014 0
M  V30 39528 H 4111.2 5.3943 1.66359 0
M  V30 39529 N 4110.6 0.106949 1.57237 0
M  V30 39530 C 4111.56 -0.833279 2.13516 0
M  V30 39531 C 4112.56 -1.20283 1.06718 0
M  V30 39532 O 4113.75 -1.13032 1.3255 0
M  V30 39533 C 4110.88 -2.12518 2.6655 0
M  V30 39534 H 4112.07 -0.344383 2.97916 0
M  V30 39535 H 4109.63 -0.142171 1.55652 0
M  V30 39536 H 4110.36 -2.65866 1.85704 0
M  V30 39537 H 4110.15 -1.86979 3.44646 0
M  V30 39538 H 4111.64 -2.79754 3.10044 0
M  V30 39539 N 4112.07 -1.56715 -0.166791 0
M  V30 39540 C 4113.32 -1.8189 -0.88094 0
M  V30 39541 C 4113.64 -0.684682 -1.82585 0
M  V30 39542 O 4112.91 0.295139 -1.93664 0
M  V30 39543 H 4111.49 -0.670991 -0.328299 0
M  V30 39544 H 4114.16 -1.94196 -0.165524 0
M  V30 39545 H 4113.25 -2.76103 -1.45512 0
M  V30 39546 N 4113.55 0.435497 -1.51463 0
M  V30 39547 C 4114.96 1.0153 -1.5668 0
M  V30 39548 C 4115.31 1.92257 -0.391371 0
M  V30 39549 O 4114.44 2.10742 0.49161 0
M  V30 39550 C 4115.03 1.84812 -2.83954 0
M  V30 39551 C 4113.59 2.37839 -2.91736 0
M  V30 39552 C 4112.74 1.17102 -2.51361 0
M  V30 39553 H 4115.69 0.216698 -1.57214 0
M  V30 39554 H 4115.71 2.70282 -2.6782 0
M  V30 39555 H 4115.22 1.18753 -3.69485 0
M  V30 39556 H 4113.33 3.07347 -2.10639 0
M  V30 39557 H 4113.44 2.7051 -3.95425 0
M  V30 39558 H 4111.8 1.51691 -2.04602 0
M  V30 39559 H 4112.59 0.526506 -3.39239 0
M  V30 39560 N 4115.03 1.41641 0.69106 0
M  V30 39561 C 4116.28 1.4245 1.45188 0
M  V30 39562 C 4116.63 0.0343969 1.92369 0
M  V30 39563 O 4115.92 -0.940562 1.66925 0
M  V30 39564 C 4116.12 2.36972 2.67542 0
M  V30 39565 C 4115.95 3.85035 2.32331 0
M  V30 39566 C 4114.72 4.53687 2.22477 0
M  V30 39567 C 4116.92 4.75892 1.95016 0
M  V30 39568 N 4114.9 5.86858 1.80198 0
M  V30 39569 C 4116.27 5.98045 1.63531 0
M  V30 39570 C 4118.32 4.63497 1.81865 0
M  V30 39571 C 4117.03 7.09183 1.20216 0
M  V30 39572 C 4119.05 5.74601 1.39955 0
M  V30 39573 C 4118.41 6.95855 1.09384 0
M  V30 39574 H 4114.51 0.57647 0.5284 0
M  V30 39575 H 4117.1 1.77546 0.799093 0
M  V30 39576 H 4115.27 2.03964 3.30535 0
M  V30 39577 H 4117 2.2847 3.34041 0
M  V30 39578 H 4113.76 4.07684 2.4102 0
M  V30 39579 H 4114.18 6.57448 1.61528 0
M  V30 39580 H 4118.82 3.70245 2.04153 0
M  V30 39581 H 4116.54 8.02297 0.966733 0
M  V30 39582 H 4120.13 5.67016 1.30324 0
M  V30 39583 H 4119.01 7.80367 0.774447 0
M  V30 39584 N 4116.51 -0.925766 1.27543 0
M  V30 39585 C 4117.76 -1.67036 1.1377 0
M  V30 39586 C 4118.08 -1.92413 -0.316569 0
M  V30 39587 O 4117.35 -1.53177 -1.22121 0
M  V30 39588 H 4115.93 -0.619072 0.418041 0
M  V30 39589 H 4118.59 -1.1115 1.60099 0
M  V30 39590 H 4117.69 -2.63774 1.66822 0
M  V30 39591 N 4117.99 -1.09597 -1.13253 0
M  V30 39592 C 4119.23 -0.834323 -1.84843 0
M  V30 39593 C 4119.57 0.638485 -1.83404 0
M  V30 39594 O 4118.84 1.4702 -1.27339 0
M  V30 39595 C 4119.12 -1.37236 -3.32924 0
M  V30 39596 C 4118.98 -2.9114 -3.42867 0
M  V30 39597 C 4120.3 -1.00758 -4.28411 0
M  V30 39598 H 4117.41 -0.304546 -0.671134 0
M  V30 39599 H 4120.06 -1.35766 -1.3292 0
M  V30 39600 H 4118.21 -0.927216 -3.77273 0
M  V30 39601 H 4119.88 -3.44116 -3.07216 0
M  V30 39602 H 4118.12 -3.28183 -2.83687 0
M  V30 39603 H 4118.79 -3.23865 -4.47008 0
M  V30 39604 H 4121.27 -1.39153 -3.92142 0
M  V30 39605 H 4120.14 -1.41107 -5.30453 0
M  V30 39606 H 4120.41 0.0840318 -4.4202 0
M  V30 39607 N 4119.46 1.30512 -0.883424 0
M  V30 39608 C 4120.4 2.27144 -0.306318 0
M  V30 39609 C 4121.41 1.53645 0.538237 0
M  V30 39610 O 4122.6 1.74872 0.358039 0
M  V30 39611 C 4119.7 3.33844 0.583217 0
M  V30 39612 C 4118.87 4.36785 -0.231922 0
M  V30 39613 C 4117.93 5.22906 0.587863 0
M  V30 39614 O 4116.96 5.69199 0.0111122 0
M  V30 39615 N 4118.16 5.4862 1.89727 0
M  V30 39616 H 4120.92 2.77304 -1.13678 0
M  V30 39617 H 4118.48 1.43676 -0.746253 0
M  V30 39618 H 4120.48 3.88381 1.13766 0
M  V30 39619 H 4119.05 2.83625 1.31436 0
M  V30 39620 H 4118.27 3.82135 -0.967808 0
M  V30 39621 H 4119.55 5.02618 -0.790753 0
M  V30 39622 H 4118.95 5.12789 2.3888 0
M  V30 39623 H 4117.51 6.06038 2.3992 0
M  V30 39624 N 4120.94 0.644219 1.43832 0
M  V30 39625 C 4122.35 0.234813 1.85217 0
M  V30 39626 C 4122.7 -1.21668 1.5392 0
M  V30 39627 O 4121.83 -1.92749 0.983711 0
M  V30 39628 C 4122.42 0.419386 3.36194 0
M  V30 39629 C 4120.98 0.0643766 3.76345 0
M  V30 39630 C 4120.13 0.726553 2.67613 0
M  V30 39631 H 4123.08 0.848504 1.34112 0
M  V30 39632 H 4123.1 -0.337804 3.78998 0
M  V30 39633 H 4122.61 1.47588 3.58942 0
M  V30 39634 H 4120.72 -0.989876 3.59211 0
M  V30 39635 H 4120.83 0.483565 4.76653 0
M  V30 39636 H 4119.19 0.160619 2.54193 0
M  V30 39637 H 4119.98 1.7859 2.9319 0
M  V30 39638 N 4122.42 -1.52811 0.385571 0
M  V30 39639 C 4123.33 -2.3007 -0.458809 0
M  V30 39640 C 4124.35 -1.36833 -1.07483 0
M  V30 39641 O 4125.52 -1.69901 -1.08145 0
M  V30 39642 C 4122.59 -3.08975 -1.57275 0
M  V30 39643 C 4121.65 -4.17913 -0.982217 0
M  V30 39644 C 4120.88 -4.93046 -2.04307 0
M  V30 39645 O 4121.1 -4.68232 -3.25753 0
M  V30 39646 O 4120.04 -5.78486 -1.66246 0
M  V30 39647 H 4123.86 -3.03221 0.17047 0
M  V30 39648 H 4121.45 -1.48651 0.14939 0
M  V30 39649 H 4123.33 -3.58184 -2.21996 0
M  V30 39650 H 4122.01 -2.3864 -2.18706 0
M  V30 39651 H 4120.91 -3.72908 -0.298363 0
M  V30 39652 H 4122.25 -4.90471 -0.412175 0
M  V30 39653 N 4123.9 -0.115287 -1.57178 0
M  V30 39654 C 4125.15 0.542537 -1.94682 0
M  V30 39655 C 4125.47 1.67452 -0.99924 0
M  V30 39656 O 4124.74 1.95823 -0.0548704 0
M  V30 39657 H 4123.32 0.203409 -0.718773 0
M  V30 39658 H 4125.98 -0.183357 -1.94036 0
M  V30 39659 H 4125.08 0.939546 -2.97622 0
M  V30 39660 N 4125.38 1.56801 0.158477 0
M  V30 39661 C 4126.31 1.9398 1.22083 0
M  V30 39662 C 4127.32 0.834316 1.39796 0
M  V30 39663 O 4128.51 1.11275 1.39571 0
M  V30 39664 C 4125.61 2.18861 2.58753 0
M  V30 39665 C 4124.78 3.50123 2.62169 0
M  V30 39666 C 4123.84 3.63679 3.80294 0
M  V30 39667 O 4122.87 4.36181 3.65698 0
M  V30 39668 N 4124.07 2.99486 4.97281 0
M  V30 39669 H 4126.84 2.85712 0.904914 0
M  V30 39670 H 4124.4 1.58113 0.348141 0
M  V30 39671 H 4126.39 2.25183 3.36266 0
M  V30 39672 H 4124.96 1.33451 2.82683 0
M  V30 39673 H 4124.18 3.55345 1.70656 0
M  V30 39674 H 4125.47 4.36474 2.61473 0
M  V30 39675 H 4124.87 2.40478 5.12042 0
M  V30 39676 H 4123.42 3.11385 5.72611 0
M  V30 39677 N 4126.86 -0.427458 1.51692 0
M  V30 39678 C 4128.27 -1.00698 1.57216 0
M  V30 39679 C 4128.62 -1.92047 0.401561 0
M  V30 39680 O 4127.74 -2.11 -0.480427 0
M  V30 39681 C 4128.34 -1.83304 2.8493 0
M  V30 39682 C 4126.9 -2.36288 2.92993 0
M  V30 39683 C 4126.04 -1.15767 2.51979 0
M  V30 39684 H 4128.99 -0.208358 1.57326 0
M  V30 39685 H 4129.02 -2.68858 2.6925 0
M  V30 39686 H 4128.53 -1.16792 3.7011 0
M  V30 39687 H 4126.63 -3.06226 2.12266 0
M  V30 39688 H 4126.74 -2.68409 3.96854 0
M  V30 39689 H 4125.11 -1.50604 2.05403 0
M  V30 39690 H 4125.89 -0.508508 3.39513 0
M  V30 39691 N 4128.33 -1.42005 -0.683539 0
M  V30 39692 C 4129.58 -1.41727 -1.44076 0
M  V30 39693 C 4129.9 -0.0315536 -1.94974 0
M  V30 39694 O 4129.17 0.928549 -1.72496 0
M  V30 39695 H 4127.75 -0.521717 -0.534622 0
M  V30 39696 H 4130.41 -1.77351 -0.808252 0
M  V30 39697 H 4129.51 -2.11178 -2.29805 0
M  V30 39698 N 4129.81 0.918989 -1.28033 0
M  V30 39699 C 4131.22 1.48262 -1.13469 0
M  V30 39700 C 4131.57 1.94232 0.277206 0
M  V30 39701 O 4130.7 1.81981 1.17097 0
M  V30 39702 C 4131.29 2.69459 -2.05371 0
M  V30 39703 C 4129.85 3.22018 -1.94887 0
M  V30 39704 C 4129 1.94735 -1.97417 0
M  V30 39705 H 4131.95 0.732221 -1.40798 0
M  V30 39706 H 4131.97 3.44543 -1.61463 0
M  V30 39707 H 4131.48 2.35971 -3.08123 0
M  V30 39708 H 4129.58 3.60245 -0.951537 0
M  V30 39709 H 4129.7 3.87623 -2.81577 0
M  V30 39710 H 4128.06 2.11607 -1.41756 0
M  V30 39711 H 4128.84 1.63549 -3.01839 0
M  V30 39712 N 4131.29 1.10196 1.12671 0
M  V30 39713 C 4132.54 0.854002 1.84603 0
M  V30 39714 C 4132.89 -0.613813 1.82346 0
M  V30 39715 O 4132.18 -1.44664 1.25629 0
M  V30 39716 C 4132.38 1.33328 3.316 0
M  V30 39717 C 4132.21 2.84616 3.48172 0
M  V30 39718 C 4130.98 3.52589 3.61952 0
M  V30 39719 C 4133.17 3.82728 3.43546 0
M  V30 39720 N 4131.16 4.92223 3.66865 0
M  V30 39721 C 4132.53 5.08359 3.54925 0
M  V30 39722 C 4134.58 3.7547 3.26996 0
M  V30 39723 C 4133.29 6.27589 3.51461 0
M  V30 39724 C 4135.31 4.94197 3.24844 0
M  V30 39725 C 4134.67 6.18674 3.36781 0
M  V30 39726 H 4130.77 0.36547 0.691343 0
M  V30 39727 H 4133.36 1.40385 1.34907 0
M  V30 39728 H 4131.53 0.810778 3.79843 0
M  V30 39729 H 4133.26 1.02982 3.91378 0
M  V30 39730 H 4130.01 3.0303 3.63964 0
M  V30 39731 H 4130.44 5.64983 3.72993 0
M  V30 39732 H 4135.08 2.8015 3.16663 0
M  V30 39733 H 4132.8 7.232 3.60565 0
M  V30 39734 H 4136.38 4.90288 3.13224 0
M  V30 39735 H 4135.26 7.09004 3.35087 0
M  V30 39736 N 4132.77 -1.30042 0.890333 0
M  V30 39737 C 4134.02 -1.95547 0.510474 0
M  V30 39738 C 4134.34 -1.70598 -0.944532 0
M  V30 39739 O 4133.61 -1.03253 -1.6648 0
M  V30 39740 H 4132.19 -0.723527 0.185788 0
M  V30 39741 H 4134.85 -1.58472 1.13458 0
M  V30 39742 H 4133.94 -3.04485 0.685209 0
M  V30 39743 N 4134.25 -0.651838 -1.43488 0
M  V30 39744 C 4135.18 0.0792705 -2.29063 0
M  V30 39745 C 4136.19 0.788483 -1.42432 0
M  V30 39746 O 4137.38 0.64647 -1.66382 0
M  V30 39747 C 4134.48 1.13527 -3.19319 0
M  V30 39748 C 4133.65 0.504477 -4.34481 0
M  V30 39749 C 4132.71 1.45718 -5.05621 0
M  V30 39750 O 4131.74 0.96631 -5.60938 0
M  V30 39751 N 4132.94 2.79118 -5.08993 0
M  V30 39752 H 4135.7 -0.655226 -2.9245 0
M  V30 39753 H 4133.27 -0.494518 -1.54163 0
M  V30 39754 H 4135.26 1.77339 -3.63776 0
M  V30 39755 H 4133.83 1.77176 -2.57541 0
M  V30 39756 H 4133.05 -0.312695 -3.92958 0
M  V30 39757 H 4134.34 0.0640697 -5.0876 0
M  V30 39758 H 4133.73 3.21559 -4.6542 0
M  V30 39759 H 4132.29 3.38235 -5.57172 0
M  V30 39760 N 4135.72 1.52604 -0.39367 0
M  V30 39761 C 4136.69 2.25181 0.427318 0
M  V30 39762 C 4137.69 1.26978 0.986573 0
M  V30 39763 O 4138.88 1.51041 0.867887 0
M  V30 39764 C 4136.01 3.01022 1.59996 0
M  V30 39765 H 4137.2 2.99177 -0.208154 0
M  V30 39766 H 4134.75 1.55618 -0.145871 0
M  V30 39767 H 4135.49 2.31338 2.27274 0
M  V30 39768 H 4135.27 3.73105 1.2056 0
M  V30 39769 H 4136.76 3.56115 2.18109 0
M  V30 39770 N 4137.2 0.12362 1.57114 0
M  V30 39771 C 4138.13 -0.821424 2.18575 0
M  V30 39772 C 4139.11 -1.27397 1.12712 0
M  V30 39773 O 4140.3 -1.33574 1.40966 0
M  V30 39774 C 4137.43 -2.06982 2.78883 0
M  V30 39775 C 4136.38 -1.7549 3.90368 0
M  V30 39776 C 4135.71 -3.07398 4.37505 0
M  V30 39777 C 4137.01 -1.01963 5.12251 0
M  V30 39778 H 4138.7 -0.309266 2.97798 0
M  V30 39779 H 4136.25 -0.147313 1.43245 0
M  V30 39780 H 4138.2 -2.73556 3.20539 0
M  V30 39781 H 4136.92 -2.6053 1.96955 0
M  V30 39782 H 4135.58 -1.11304 3.49295 0
M  V30 39783 H 4135.23 -3.5889 3.5243 0
M  V30 39784 H 4134.93 -2.87099 5.12687 0
M  V30 39785 H 4136.46 -3.75083 4.81815 0
M  V30 39786 H 4137.87 -1.58699 5.50897 0
M  V30 39787 H 4136.27 -0.917422 5.93046 0
M  V30 39788 H 4137.34 -0.00717649 4.84899 0
M  V30 39789 N 4138.68 -1.56883 -0.15016 0
M  V30 39790 C 4140.1 -1.51477 -0.50269 0
M  V30 39791 C 4140.3 -0.83151 -1.83543 0
M  V30 39792 O 4139.35 -0.400715 -2.493 0
M  V30 39793 C 4140.66 -2.96241 -0.515913 0
M  V30 39794 C 4142.21 -3.07163 -0.601648 0
M  V30 39795 C 4142.69 -4.53427 -0.645563 0
M  V30 39796 N 4144.18 -4.57759 -0.707874 0
M  V30 39797 C 4144.91 -5.68304 -0.762783 0
M  V30 39798 N 4144.41 -6.88426 -0.777232 0
M  V30 39799 N 4146.2 -5.56329 -0.803423 0
M  V30 39800 H 4138.35 -1.99699 0.723477 0
M  V30 39801 H 4140.62 -0.910666 0.263421 0
M  V30 39802 H 4140.32 -3.49474 0.395095 0
M  V30 39803 H 4140.2 -3.52024 -1.35495 0
M  V30 39804 H 4142.58 -2.53952 -1.50308 0
M  V30 39805 H 4142.66 -2.54429 0.264475 0
M  V30 39806 H 4142.31 -5.07276 0.251695 0
M  V30 39807 H 4142.24 -5.0394 -1.52813 0
M  V30 39808 H 4144.73 -3.71282 -0.704135 0
M  V30 39809 H 4145.04 -7.68428 -0.82089 0
M  V30 39810 H 4143.39 -6.90994 -0.745159 0
M  V30 39811 H 4146.58 -4.61398 -0.789284 0
M  V30 39812 H 4146.75 -6.42496 -0.842751 0
M  V30 39813 N 4140.16 0.419408 -1.51917 0
M  V30 39814 C 4141.09 1.51736 -1.77478 0
M  V30 39815 C 4142.07 1.5819 -0.625291 0
M  V30 39816 O 4143.25 1.7363 -0.869846 0
M  V30 39817 C 4140.38 2.89658 -1.91613 0
M  V30 39818 C 4139.34 2.98059 -3.07156 0
M  V30 39819 C 4138.66 4.38134 -3.065 0
M  V30 39820 C 4139.96 2.70487 -4.46804 0
M  V30 39821 H 4141.66 1.30597 -2.69416 0
M  V30 39822 H 4139.2 0.626827 -1.29641 0
M  V30 39823 H 4141.16 3.66444 -2.08078 0
M  V30 39824 H 4139.88 3.12068 -0.963387 0
M  V30 39825 H 4138.54 2.23715 -2.90426 0
M  V30 39826 H 4138.19 4.57539 -2.08967 0
M  V30 39827 H 4137.89 4.44682 -3.84099 0
M  V30 39828 H 4139.41 5.1687 -3.25081 0
M  V30 39829 H 4140.83 3.37 -4.63793 0
M  V30 39830 H 4139.22 2.88423 -5.26243 0
M  V30 39831 H 4140.29 1.65983 -4.55607 0
M  V30 39832 N 4141.64 1.42366 0.675998 0
M  V30 39833 C 4142.58 1.4575 1.78957 0
M  V30 39834 C 4143.55 0.309592 1.63189 0
M  V30 39835 O 4144.74 0.513492 1.8376 0
M  V30 39836 C 4141.88 1.36447 3.1698 0
M  V30 39837 C 4140.99 2.61263 3.44043 0
M  V30 39838 C 4140.13 2.44111 4.71787 0
M  V30 39839 C 4139.17 3.64308 4.9188 0
M  V30 39840 N 4138.3 3.46105 6.10865 0
M  V30 39841 H 4143.14 2.40913 1.75399 0
M  V30 39842 H 4140.68 1.19609 0.856272 0
M  V30 39843 H 4142.64 1.29051 3.96739 0
M  V30 39844 H 4141.27 0.4488 3.19665 0
M  V30 39845 H 4140.32 2.79031 2.58546 0
M  V30 39846 H 4141.63 3.50613 3.54784 0
M  V30 39847 H 4140.79 2.34295 5.59635 0
M  V30 39848 H 4139.52 1.52249 4.63326 0
M  V30 39849 H 4138.53 3.74558 4.02475 0
M  V30 39850 H 4139.75 4.57149 5.02187 0
M  V30 39851 H 4137.7 2.56959 6.03579 0
M  V30 39852 H 4137.62 4.29042 6.22462 0
M  V30 39853 H 4138.89 3.40098 7.01394 0
M  V30 39854 N 4143.11 -0.912187 1.28518 0
M  V30 39855 C 4144.36 -1.66394 1.15935 0
M  V30 39856 C 4144.69 -1.92006 -0.291089 0
M  V30 39857 O 4143.97 -1.52156 -1.21156 0
M  V30 39858 C 4144.25 -3.02087 1.95999 0
M  V30 39859 C 4144.1 -2.83619 3.49114 0
M  V30 39860 C 4145.42 -4.02647 1.77662 0
M  V30 39861 H 4142.54 -0.603852 0.42253 0
M  V30 39862 H 4145.18 -1.05749 1.57852 0
M  V30 39863 H 4143.33 -3.53852 1.60378 0
M  V30 39864 H 4145.01 -2.38852 3.94648 0
M  V30 39865 H 4143.25 -2.18647 3.74668 0
M  V30 39866 H 4143.92 -3.79986 4.00393 0
M  V30 39867 H 4146.4 -3.59948 2.0875 0
M  V30 39868 H 4145.27 -4.95551 2.36051 0
M  V30 39869 H 4145.53 -4.36056 0.728522 0
M  V30 39870 N 4144.59 -1.10792 -1.12085 0
M  V30 39871 C 4145.52 -0.717936 -2.17666 0
M  V30 39872 C 4146.54 0.247151 -1.60913 0
M  V30 39873 O 4147.73 0.0310611 -1.78473 0
M  V30 39874 C 4144.83 -0.0393046 -3.38877 0
M  V30 39875 C 4144 -1.0295 -4.25112 0
M  V30 39876 C 4143.06 -0.381675 -5.24814 0
M  V30 39877 O 4142.08 -1.03358 -5.59737 0
M  V30 39878 N 4143.29 0.858315 -5.74119 0
M  V30 39879 H 4146.05 -1.62635 -2.51734 0
M  V30 39880 H 4143.61 -0.997232 -1.27542 0
M  V30 39881 H 4145.6 0.405645 -4.02662 0
M  V30 39882 H 4144.17 0.771574 -3.02928 0
M  V30 39883 H 4143.39 -1.65261 -3.57886 0
M  V30 39884 H 4144.68 -1.69965 -4.79572 0
M  V30 39885 H 4144.08 1.40725 -5.47917 0
M  V30 39886 H 4142.64 1.24635 -6.39773 0
M  V30 39887 N 4146.07 1.29568 -0.897217 0
M  V30 39888 C 4147 2.30226 -0.389641 0
M  V30 39889 C 4147.98 1.615 0.534021 0
M  V30 39890 O 4149.17 1.89026 0.445276 0
M  V30 39891 C 4146.3 3.45149 0.385905 0
M  V30 39892 C 4145.25 4.25658 -0.447103 0
M  V30 39893 C 4144.58 5.32754 0.45579 0
M  V30 39894 C 4145.88 4.94007 -1.69571 0
M  V30 39895 H 4147.57 2.72931 -1.23082 0
M  V30 39896 H 4145.12 1.3121 -0.593288 0
M  V30 39897 H 4147.07 4.14641 0.751718 0
M  V30 39898 H 4145.79 3.01281 1.26084 0
M  V30 39899 H 4144.45 3.57871 -0.795215 0
M  V30 39900 H 4144.1 4.85131 1.32879 0
M  V30 39901 H 4143.8 5.87519 -0.0978561 0
M  V30 39902 H 4145.32 6.05098 0.81785 0
M  V30 39903 H 4146.74 5.55949 -1.39977 0
M  V30 39904 H 4145.14 5.58693 -2.19049 0
M  V30 39905 H 4146.21 4.19436 -2.43313 0
M  V30 39906 N 4147.55 0.659438 1.4314 0
M  V30 39907 C 4148.48 -0.0671217 2.29102 0
M  V30 39908 C 4149.49 -0.780918 1.42848 0
M  V30 39909 O 4150.68 -0.637637 1.66723 0
M  V30 39910 C 4147.78 -1.11832 3.19917 0
M  V30 39911 C 4146.96 -0.481428 4.34742 0
M  V30 39912 C 4146.01 -1.43035 5.06387 0
M  V30 39913 O 4145.04 -0.936549 5.61442 0
M  V30 39914 N 4146.24 -2.76414 5.10466 0
M  V30 39915 H 4149.01 0.670726 2.92098 0
M  V30 39916 H 4146.57 0.502687 1.53898 0
M  V30 39917 H 4148.56 -1.75407 3.64712 0
M  V30 39918 H 4147.13 -1.75807 2.58477 0
M  V30 39919 H 4146.35 0.33353 3.92786 0
M  V30 39920 H 4147.64 -0.037088 5.08786 0
M  V30 39921 H 4147.04 -3.19086 4.67119 0
M  V30 39922 H 4145.59 -3.35276 5.58958 0
M  V30 39923 N 4149.03 -1.52393 0.401757 0
M  V30 39924 C 4149.96 -2.29718 -0.418569 0
M  V30 39925 C 4150.94 -1.3362 -1.0526 0
M  V30 39926 O 4152.12 -1.62523 -1.06302 0
M  V30 39927 C 4149.25 -3.11317 -1.53944 0
M  V30 39928 C 4148.21 -4.15402 -1.0308 0
M  V30 39929 C 4147.53 -4.85301 -2.24471 0
M  V30 39930 C 4148.83 -5.22222 -0.0900038 0
M  V30 39931 H 4150.53 -2.98541 0.226629 0
M  V30 39932 H 4148.07 -1.43576 0.110436 0
M  V30 39933 H 4150.03 -3.64175 -2.12025 0
M  V30 39934 H 4148.75 -2.40249 -2.21241 0
M  V30 39935 H 4147.41 -3.63543 -0.472451 0
M  V30 39936 H 4147.06 -4.10769 -2.90306 0
M  V30 39937 H 4146.76 -5.55659 -1.91093 0
M  V30 39938 H 4148.28 -5.40968 -2.83171 0
M  V30 39939 H 4149.69 -5.70365 -0.579378 0
M  V30 39940 H 4148.09 -5.99901 0.15461 0
M  V30 39941 H 4149.16 -4.77258 0.857459 0
M  V30 39942 N 4150.5 -0.131951 -1.57047 0
M  V30 39943 C 4151.43 0.809821 -2.19007 0
M  V30 39944 C 4152.42 1.26797 -1.13386 0
M  V30 39945 O 4153.6 1.32825 -1.41673 0
M  V30 39946 C 4150.73 2.055 -2.79977 0
M  V30 39947 C 4149.68 1.73417 -3.91293 0
M  V30 39948 C 4149.01 3.05074 -4.39129 0
M  V30 39949 C 4150.31 0.992445 -5.12784 0
M  V30 39950 H 4152 0.293469 -2.97958 0
M  V30 39951 H 4149.55 0.139714 -1.43321 0
M  V30 39952 H 4151.5 2.71852 -3.21985 0
M  V30 39953 H 4150.23 2.59482 -1.98334 0
M  V30 39954 H 4148.89 1.0945 -3.4988 0
M  V30 39955 H 4148.53 3.57016 -3.54328 0
M  V30 39956 H 4148.23 2.84376 -5.14202 0
M  V30 39957 H 4149.76 3.72522 -4.83797 0
M  V30 39958 H 4151.17 1.55775 -5.51731 0
M  V30 39959 H 4149.57 0.885958 -5.93524 0
M  V30 39960 H 4150.64 -0.018539 -4.84896 0
M  V30 39961 O 4152.02 1.61498 0.00707432 0
M  V30 39962 H 4152.71 1.8335 0.624703 0
M  V30 END ATOM
M  V30 BEGIN BOND
M  V30 END BOND
M  V30 END CTAB
M  END
$$$$
