drugbank_target|Q75UV1 Diadenosine hexaphosphate hydrolase (DB02738)
 OpenBabel12092120253D

  0  0  0     0  0            999 V3000
M  V30 BEGIN CTAB
M  V30 COUNTS 1991 2018 0 0 0
M  V30 BEGIN ATOM
M  V30 1 H -0.908 1.98254 -0.117106 0
M  V30 2 N 0 1.576 0 0
M  V30 3 C 0.933 2.03868 1.02534 0
M  V30 4 C 1.911 0.928543 1.3348 0
M  V30 5 O 3.095 1.19667 1.45644 0
M  V30 6 C 0.222 2.43627 2.35294 0
M  V30 7 C -0.732 3.65373 2.2001 0
M  V30 8 S 0.101 5.13292 1.52614 0
M  V30 9 C 1.257 5.56322 2.86805 0
M  V30 10 H 1.49 2.90518 0.631377 0
M  V30 11 H -0.977 1.52953 0.210867 0
M  V30 12 H 0.981 2.67203 3.11629 0
M  V30 13 H -0.358 1.57376 2.7183 0
M  V30 14 H -1.165 3.90944 3.18086 0
M  V30 15 H -1.563 3.418 1.51819 0
M  V30 16 H 0.729 5.58782 3.83104 0
M  V30 17 H 1.672 6.56266 2.65933 0
M  V30 18 H 2.08 4.83886 2.90714 0
M  V30 19 N 1.4781 -0.272755 1.55222 0
M  V30 20 C 2.3881 -1.35918 1.91216 0
M  V30 21 C 3.4041 -1.54026 0.809436 0
M  V30 22 O 4.5801 -1.68148 1.10852 0
M  V30 23 C 1.6451 -2.69834 2.17693 0
M  V30 24 C 0.7061 -2.6047 3.41253 0
M  V30 25 C -0.0609 -3.88 3.66458 0
M  V30 26 O 0.1621 -4.88693 2.94169 0
M  V30 27 O -0.9039 -3.88189 4.59992 0
M  V30 28 H 2.9221 -1.0839 2.83699 0
M  V30 29 H 0.5071 -0.471301 1.41771 0
M  V30 30 H 2.3891 -3.49017 2.36147 0
M  V30 31 H 1.0641 -2.97148 1.28392 0
M  V30 32 H -0.0289 -1.79663 3.28134 0
M  V30 33 H 1.3041 -2.38106 4.30774 0
M  V30 34 N 2.9562 -1.48159 -0.537278 0
M  V30 35 C 3.8862 -1.65029 -1.6519 0
M  V30 36 C 4.8672 -0.499281 -1.62607 0
M  V30 37 O 6.0522 -0.730972 -1.79918 0
M  V30 38 C 3.1822 -1.68303 -3.03795 0
M  V30 39 C 2.1362 -2.8283 -3.21234 0
M  V30 40 C 1.4622 -2.71189 -4.60826 0
M  V30 41 C 2.7622 -4.24211 -3.04701 0
M  V30 42 H 4.4562 -2.58341 -1.51328 0
M  V30 43 H 2.0022 -1.24325 -0.726585 0
M  V30 44 H 3.9552 -1.78693 -3.81637 0
M  V30 45 H 2.6792 -0.715635 -3.18663 0
M  V30 46 H 1.3382 -2.71983 -2.45807 0
M  V30 47 H 0.9862 -1.72435 -4.7252 0
M  V30 48 H 0.6862 -3.48035 -4.7344 0
M  V30 49 H 2.2102 -2.83537 -5.40777 0
M  V30 50 H 3.6242 -4.3593 -3.72341 0
M  V30 51 H 2.0212 -5.01998 -3.28813 0
M  V30 52 H 3.0912 -4.41184 -2.01209 0
M  V30 53 N 4.4343 0.785586 -1.36625 0
M  V30 54 C 5.6823 1.54057 -1.30808 0
M  V30 55 C 6.0033 1.94683 0.111157 0
M  V30 56 O 5.2733 1.65241 1.05224 0
M  V30 57 H 3.8533 0.571354 -0.481211 0
M  V30 58 H 6.5153 0.935821 -1.70963 0
M  V30 59 H 5.6113 2.44637 -1.93801 0
M  V30 60 N 5.9124 1.20967 1.01018 0
M  V30 61 C 6.8754 0.965918 2.07853 0
M  V30 62 C 7.8754 -0.0610545 1.60684 0
M  V30 63 O 9.0654 0.175681 1.73312 0
M  V30 64 C 6.1974 0.455513 3.37843 0
M  V30 65 H 7.3904 1.91365 2.3091 0
M  V30 66 H 4.9434 1.02594 1.17916 0
M  V30 67 H 5.6784 -0.497381 3.20463 0
M  V30 68 H 5.4634 1.19622 3.73407 0
M  V30 69 H 6.9534 0.304667 4.16487 0
M  V30 70 N 7.3905 -1.2043 1.01659 0
M  V30 71 C 8.6385 -1.89423 0.704522 0
M  V30 72 C 8.9595 -1.79231 -0.768197 0
M  V30 73 O 8.2295 -1.1947 -1.55254 0
M  V30 74 H 6.8095 -0.701178 0.257602 0
M  V30 75 H 9.4715 -1.4626 1.28818 0
M  V30 76 H 8.5675 -2.96052 0.987916 0
M  V30 77 N 8.8686 -0.792821 -1.36206 0
M  V30 78 C 10.1166 -0.366062 -1.98757 0
M  V30 79 C 10.4376 1.0668 -1.63231 0
M  V30 80 O 9.7076 1.73587 -0.907978 0
M  V30 81 H 8.2876 -0.132364 -0.735179 0
M  V30 82 H 10.9496 -1.01562 -1.66347 0
M  V30 83 H 10.0456 -0.460638 -3.08682 0
M  V30 84 N 10.3467 1.47872 -0.545128 0
M  V30 85 C 11.5927 2.02793 -0.0166104 0
M  V30 86 C 11.9257 1.41987 1.32489 0
M  V30 87 O 11.2007 0.571045 1.85928 0
M  V30 88 C 11.4837 3.59989 0.0893294 0
M  V30 89 C 11.3367 4.3125 -1.27841 0
M  V30 90 C 12.6557 4.32606 0.808724 0
M  V30 91 H 9.7747 0.736962 -0.00751035 0
M  V30 92 H 12.4167 1.76433 -0.705085 0
M  V30 93 H 10.5667 3.82579 0.675681 0
M  V30 94 H 12.2387 4.20035 -1.90704 0
M  V30 95 H 10.4817 3.92076 -1.85632 0
M  V30 96 H 11.1527 5.39736 -1.15713 0
M  V30 97 H 13.6287 4.14936 0.310992 0
M  V30 98 H 12.5047 5.42251 0.851782 0
M  V30 99 H 12.7657 4.00963 1.86229 0
M  V30 100 N 11.8248 0.280983 1.55075 0
M  V30 101 C 13.0708 -0.33461 2.00021 0
M  V30 102 C 13.4038 -1.55063 1.16915 0
M  V30 103 O 12.6788 -1.93006 0.240646 0
M  V30 104 C 12.9618 -0.711007 3.53011 0
M  V30 105 C 12.8148 0.512766 4.46868 0
M  V30 106 C 14.1338 -1.54522 4.12081 0
M  V30 107 H 11.2528 -0.120147 0.727141 0
M  V30 108 H 13.8948 0.389097 1.85973 0
M  V30 109 H 12.0448 -1.32761 3.65112 0
M  V30 110 H 13.7168 1.15131 4.46702 0
M  V30 111 H 11.9598 1.14975 4.18286 0
M  V30 112 H 12.6308 0.205556 5.51617 0
M  V30 113 H 15.1068 -1.02442 4.03293 0
M  V30 114 H 13.9828 -1.77739 5.19327 0
M  V30 115 H 14.2438 -2.52813 3.62682 0
M  V30 116 N 13.3029 -1.57598 0.00835791 0
M  V30 117 C 14.5499 -1.90928 -0.674732 0
M  V30 118 C 14.8779 -0.88277 -1.73313 0
M  V30 119 O 14.1329 0.111294 -1.95383 0
M  V30 120 C 14.4319 -3.3101 -1.34787 0
M  V30 121 C 14.0979 -4.48922 -0.421861 0
M  V30 122 C 12.7599 -4.8091 -0.166927 0
M  V30 123 C 15.1119 -5.20755 0.215211 0
M  V30 124 C 12.4399 -5.821 0.733232 0
M  V30 125 C 14.7919 -6.22905 1.1033 0
M  V30 126 C 13.4559 -6.53346 1.36733 0
M  V30 127 H 12.7259 -0.698656 -0.246902 0
M  V30 128 H 15.3729 -1.91387 0.0656779 0
M  V30 129 H 13.6779 -3.26714 -2.16253 0
M  V30 130 H 15.3749 -3.54061 -1.8826 0
M  V30 131 H 11.9649 -4.23934 -0.630729 0
M  V30 132 H 16.1489 -4.9629 0.0312829 0
M  V30 133 H 11.4049 -6.04042 0.945712 0
M  V30 134 H 15.5789 -6.77694 1.60325 0
M  V30 135 H 13.2059 -7.31573 2.06652 0
M  V30 136 N 14.781 0.264519 -1.55364 0
M  V30 137 C 15.729 1.34702 -1.89626 0
M  V30 138 C 16.723 1.50712 -0.773459 0
M  V30 139 O 17.929 1.52395 -0.957897 0
M  V30 140 H 14.304 0.450682 -0.601988 0
M  V30 141 H 16.275 1.0306 -2.80038 0
M  V30 142 C 15.024 2.6989 -2.19214 0
M  V30 143 H 14.347 2.58365 -3.05103 0
M  V30 144 H 15.787 3.44553 -2.47102 0
M  V30 145 C 14.246 3.21637 -1.00254 0
M  V30 146 O 14.776 4.00973 -0.241501 0
M  V30 147 N 12.982 2.7943 -0.797938 0
M  V30 148 H 12.529 2.15026 -1.4185 0
M  V30 149 H 12.487 3.144 -0.00363422 0
M  V30 150 N 16.2591 1.48442 0.529413 0
M  V30 151 C 17.2221 1.62524 1.61612 0
M  V30 152 C 18.2221 0.498509 1.52877 0
M  V30 153 O 19.4121 0.76431 1.56537 0
M  V30 154 C 16.5441 1.59597 3.01233 0
M  V30 155 H 17.7371 2.59423 1.50465 0
M  V30 156 H 15.2901 1.37047 0.751514 0
M  V30 157 H 16.0251 0.641781 3.17886 0
M  V30 158 H 15.8101 2.41397 3.08982 0
M  V30 159 H 17.3001 1.72646 3.80241 0
M  V30 160 N 17.7372 -0.778329 1.37039 0
M  V30 161 C 18.6842 -1.89139 1.32269 0
M  V30 162 C 19.6542 -1.65017 0.189387 0
M  V30 163 O 20.8392 -1.87024 0.377693 0
M  V30 164 C 17.9792 -3.26112 1.12894 0
M  V30 165 C 17.0922 -3.62233 2.35396 0
M  V30 166 C 16.2272 -4.8838 2.08946 0
M  V30 167 C 15.2662 -5.17212 3.2735 0
M  V30 168 N 14.4032 -6.34546 3.00492 0
M  V30 169 H 19.2432 -1.92552 2.27437 0
M  V30 170 H 16.7802 -0.941473 1.13025 0
M  V30 171 H 18.7382 -4.05116 0.996835 0
M  V30 172 H 17.3682 -3.22091 0.213758 0
M  V30 173 H 16.4202 -2.78265 2.5937 0
M  V30 174 H 17.7322 -3.79481 3.23721 0
M  V30 175 H 16.8862 -5.75274 1.92729 0
M  V30 176 H 15.6252 -4.73222 1.17949 0
M  V30 177 H 14.6302 -4.28796 3.44113 0
M  V30 178 H 15.8552 -5.34283 4.19188 0
M  V30 179 H 13.8012 -6.20759 2.12118 0
M  V30 180 H 13.7182 -6.52179 3.82358 0
M  V30 181 H 14.9862 -7.24394 2.87879 0
M  V30 182 N 19.2153 -1.21501 -1.00376 0
M  V30 183 C 20.6313 -0.972629 -1.26539 0
M  V30 184 C 20.8313 0.340257 -1.98606 0
M  V30 185 O 19.8873 1.06561 -2.28913 0
M  V30 186 C 21.2003 -2.16404 -2.08781 0
M  V30 187 C 22.7483 -2.20643 -2.22004 0
M  V30 188 C 23.2233 -3.39306 -3.07629 0
M  V30 189 N 24.7143 -3.39401 -3.15217 0
M  V30 190 C 25.4493 -4.27867 -3.81729 0
M  V30 191 N 24.9453 -5.26533 -4.5026 0
M  V30 192 N 26.7383 -4.15672 -3.78382 0
M  V30 193 H 18.8893 -2.05929 -0.520281 0
M  V30 194 H 21.1523 -0.901803 -0.292328 0
M  V30 195 H 20.8583 -3.11554 -1.63178 0
M  V30 196 H 20.7323 -2.15567 -3.09533 0
M  V30 197 H 23.1193 -1.26048 -2.66825 0
M  V30 198 H 23.2003 -2.25523 -1.20718 0
M  V30 199 H 22.8443 -4.34195 -2.63509 0
M  V30 200 H 22.7743 -3.31665 -4.09031 0
M  V30 201 H 25.2653 -2.67997 -2.66432 0
M  V30 202 H 25.5783 -5.90337 -4.98721 0
M  V30 203 H 23.9233 -5.30457 -4.49044 0
M  V30 204 H 27.1143 -3.3785 -3.23998 0
M  V30 205 H 27.2873 -4.84825 -4.2994 0
M  V30 206 N 20.6934 1.19889 -1.02296 0
M  V30 207 C 21.6034 2.26571 -0.608508 0
M  V30 208 C 22.6194 1.70299 0.356964 0
M  V30 209 O 23.7954 2.00235 0.216326 0
M  V30 210 C 20.8604 3.46677 0.0402814 0
M  V30 211 C 19.9214 4.18153 -0.97194 0
M  V30 212 C 19.1544 5.32525 -0.354016 0
M  V30 213 O 19.3774 5.64112 0.844604 0
M  V30 214 O 18.3114 5.92242 -1.07391 0
M  V30 215 H 22.1374 2.64251 -1.49684 0
M  V30 216 H 19.7224 1.26629 -0.792809 0
M  V30 217 H 21.6044 4.19475 0.402324 0
M  V30 218 H 20.2794 3.10858 0.902707 0
M  V30 219 H 19.1864 3.47499 -1.38546 0
M  V30 220 H 20.5194 4.57927 -1.80454 0
M  V30 221 N 22.1715 0.800033 1.35784 0
M  V30 222 C 23.4175 0.377901 1.99248 0
M  V30 223 C 23.7505 -1.05052 1.63333 0
M  V30 224 O 23.0255 -1.72768 0.893385 0
M  V30 225 C 23.3085 0.553922 3.55814 0
M  V30 226 C 23.1615 2.0268 4.01548 0
M  V30 227 C 24.4805 -0.0244802 4.40093 0
M  V30 228 H 21.5995 0.138782 0.723815 0
M  V30 229 H 24.2415 1.00835 1.61035 0
M  V30 230 H 22.3915 0.0172398 3.88496 0
M  V30 231 H 24.0635 2.62536 3.79305 0
M  V30 232 H 22.3065 2.5256 3.52698 0
M  V30 233 H 22.9775 2.10087 5.10458 0
M  V30 234 H 25.4535 0.433775 4.13833 0
M  V30 235 H 24.3295 0.128637 5.48749 0
M  V30 236 H 24.5905 -1.11758 4.27741 0
M  V30 237 N 23.6496 -1.47581 0.552962 0
M  V30 238 C 24.5796 -2.32762 -0.185451 0
M  V30 239 C 25.5606 -1.43527 -0.912905 0
M  V30 240 O 26.7456 -1.72388 -0.894201 0
M  V30 241 C 23.8756 -3.25219 -1.21859 0
M  V30 242 C 22.8296 -4.23661 -0.607864 0
M  V30 243 C 22.1556 -5.05413 -1.74533 0
M  V30 244 C 23.4556 -5.20481 0.435582 0
M  V30 245 H 25.1496 -2.94749 0.525684 0
M  V30 246 H 22.6956 -1.41738 0.254251 0
M  V30 247 H 24.6486 -3.8365 -1.7433 0
M  V30 248 H 23.3726 -2.61279 -1.95961 0
M  V30 249 H 22.0316 -3.66451 -0.104489 0
M  V30 250 H 21.6796 -4.3788 -2.47529 0
M  V30 251 H 21.3796 -5.72059 -1.34249 0
M  V30 252 H 22.9036 -5.66701 -2.27338 0
M  V30 253 H 24.3176 -5.733 -0.00290157 0
M  V30 254 H 22.7146 -5.95305 0.757067 0
M  V30 255 H 23.7846 -4.66217 1.33303 0
M  V30 256 N 25.1277 -0.289203 -1.54924 0
M  V30 257 C 26.0577 0.58549 -2.2604 0
M  V30 258 C 27.0387 1.14753 -1.25562 0
M  V30 259 O 28.2237 1.17906 -1.54311 0
M  V30 260 C 25.3537 1.76305 -2.99222 0
M  V30 261 C 24.3077 1.33191 -4.06748 0
M  V30 262 C 23.6337 2.5937 -4.6758 0
M  V30 263 C 24.9337 0.471775 -5.20165 0
M  V30 264 H 26.6277 -0.00763532 -2.99399 0
M  V30 265 H 24.1737 -0.00511229 -1.43999 0
M  V30 266 H 26.1267 2.38097 -3.47689 0
M  V30 267 H 24.8507 2.38223 -2.23422 0
M  V30 268 H 23.5097 0.737121 -3.59113 0
M  V30 269 H 23.1577 3.19576 -3.88433 0
M  V30 270 H 22.8577 2.31228 -5.40192 0
M  V30 271 H 24.3817 3.21985 -5.18804 0
M  V30 272 H 25.7957 0.995056 -5.64599 0
M  V30 273 H 24.1927 0.284639 -5.99425 0
M  V30 274 H 25.2627 -0.506041 -4.82252 0
M  V30 275 N 26.6058 1.57591 -0.0167156 0
M  V30 276 C 27.5358 2.12496 0.967858 0
M  V30 277 C 28.5168 1.03807 1.34752 0
M  V30 278 O 29.7018 1.31577 1.42833 0
M  V30 279 C 26.8318 2.64194 2.25431 0
M  V30 280 C 25.7858 3.77559 2.01576 0
M  V30 281 C 25.1118 4.15636 3.36379 0
M  V30 282 C 26.4118 5.04151 1.36489 0
M  V30 283 H 28.1058 2.95013 0.510643 0
M  V30 284 H 25.6518 1.41915 0.244181 0
M  V30 285 H 27.6048 3.01236 2.94678 0
M  V30 286 H 26.3288 1.78821 2.73296 0
M  V30 287 H 24.9878 3.40937 1.34751 0
M  V30 288 H 24.6358 3.27263 3.81979 0
M  V30 289 H 24.3358 4.92022 3.21229 0
M  V30 290 H 25.8598 4.5525 4.06915 0
M  V30 291 H 27.2738 5.38857 1.95718 0
M  V30 292 H 25.6708 5.85453 1.31776 0
M  V30 293 H 26.7408 4.83733 0.336219 0
M  V30 294 N 28.0839 -0.256276 1.55502 0
M  V30 295 C 29.4999 -0.604325 1.47716 0
M  V30 296 C 29.6999 -1.88763 0.705039 0
M  V30 297 O 28.7559 -2.51445 0.230613 0
M  V30 298 C 30.0689 -0.715756 2.92057 0
M  V30 299 C 31.6169 -0.808706 3.02372 0
M  V30 300 C 32.0919 -0.951777 4.48001 0
M  V30 301 N 33.5829 -1.01688 4.519 0
M  V30 302 C 34.3179 -1.14668 5.61817 0
M  V30 303 N 33.8139 -1.24261 6.81565 0
M  V30 304 N 35.6069 -1.1791 5.49594 0
M  V30 305 H 27.7579 0.586291 2.04148 0
M  V30 306 H 30.0209 0.201015 0.926443 0
M  V30 307 H 29.7269 0.157027 3.51349 0
M  V30 308 H 29.6009 -1.59071 3.42018 0
M  V30 309 H 31.9879 -1.67195 2.43166 0
M  V30 310 H 32.0689 0.0912063 2.55637 0
M  V30 311 H 31.7129 -0.0931291 5.07815 0
M  V30 312 H 31.6429 -1.86659 4.92408 0
M  V30 313 H 34.1339 -0.954468 3.65648 0
M  V30 314 H 34.4469 -1.34046 7.61086 0
M  V30 315 H 32.7919 -1.21236 6.84344 0
M  V30 316 H 35.9829 -1.10057 4.54978 0
M  V30 317 H 36.1559 -1.27681 6.35296 0
M  V30 318 N 29.562 -1.4872 -0.521534 0
M  V30 319 C 30.839 -1.4766 -1.2828 0
M  V30 320 C 31.219 -0.19292 -2.10217 0
M  V30 321 O 30.567 0.825193 -2.13079 0
M  V30 322 C 30.777 -2.74358 -2.15705 0
M  V30 323 C 32.125 -3.23028 -2.75569 0
M  V30 324 O 33.149 -2.75333 -2.25987 0
M  V30 325 O 32.008 -4.0604 -3.65778 0
M  V30 326 H 29.102 -0.590085 -0.579421 0
M  V30 327 H 31.648 -1.60963 -0.537492 0
M  V30 328 H 30.42 -3.59292 -1.54999 0
M  V30 329 H 30.043 -2.63816 -2.97467 0
M  V30 330 N 31.0401 0.771051 -1.3745 0
M  V30 331 C 32.4561 1.07171 -1.18265 0
M  V30 332 C 32.6561 2.01491 -0.019287 0
M  V30 333 O 31.7121 2.44244 0.640408 0
M  V30 334 C 33.0251 1.66854 -2.50161 0
M  V30 335 C 34.5731 1.79109 -2.56689 0
M  V30 336 C 35.0481 2.42205 -3.88717 0
M  V30 337 N 36.5391 2.49655 -3.90162 0
M  V30 338 C 37.2741 2.9933 -4.8907 0
M  V30 339 N 36.7701 3.49172 -5.98374 0
M  V30 340 N 38.5631 2.9821 -4.76474 0
M  V30 341 H 30.7141 0.144796 -2.11906 0
M  V30 342 H 32.9771 0.126863 -0.939473 0
M  V30 343 H 32.6831 1.05017 -3.35655 0
M  V30 344 H 32.5571 2.6614 -2.673 0
M  V30 345 H 34.9441 2.40077 -1.71601 0
M  V30 346 H 35.0251 0.785757 -2.43433 0
M  V30 347 H 34.6691 1.81875 -4.74219 0
M  V30 348 H 34.5991 3.43345 -3.99276 0
M  V30 349 H 37.0901 2.14383 -3.11205 0
M  V30 350 H 37.4031 3.8548 -6.69795 0
M  V30 351 H 35.7481 3.47275 -6.02018 0
M  V30 352 H 38.9391 2.58572 -3.90203 0
M  V30 353 H 39.1121 3.36613 -5.53711 0
M  V30 354 N 32.5182 1.22032 0.997298 0
M  V30 355 C 33.4512 0.929735 2.08401 0
M  V30 356 C 34.4292 -0.125681 1.62114 0
M  V30 357 O 35.6132 0.00495409 1.88499 0
M  V30 358 C 32.7402 0.397488 3.3636 0
M  V30 359 C 31.7862 1.4369 4.01566 0
M  V30 360 S 32.6192 3.00874 4.42984 0
M  V30 361 C 33.7752 2.49276 5.74119 0
M  V30 362 H 34.0082 1.84998 2.32729 0
M  V30 363 H 31.5412 1.0509 1.13117 0
M  V30 364 H 33.4992 0.0969846 4.10385 0
M  V30 365 H 32.1602 -0.501571 3.10069 0
M  V30 366 H 31.3532 1.01427 4.93689 0
M  V30 367 H 30.9552 1.68588 3.33847 0
M  V30 368 H 33.2472 1.90242 6.50242 0
M  V30 369 H 34.1902 3.39872 6.21203 0
M  V30 370 H 34.5982 1.90714 5.31308 0
M  V30 371 N 33.9963 -1.19345 1.0293 0
M  V30 372 C 35.2443 -1.88665 0.724574 0
M  V30 373 C 35.5653 -1.80036 -0.749144 0
M  V30 374 O 34.8353 -1.2111 -1.53978 0
M  V30 375 H 33.4153 -0.698406 0.265025 0
M  V30 376 H 36.0773 -1.44885 1.30362 0
M  V30 377 H 35.1733 -2.94987 1.01926 0
M  V30 378 N 35.4744 -0.807222 -1.35358 0
M  V30 379 C 36.7214 -0.387888 -1.9875 0
M  V30 380 C 37.0494 1.04509 -1.64037 0
M  V30 381 O 36.3044 1.73986 -0.895946 0
M  V30 382 C 36.6034 -0.519036 -3.53611 0
M  V30 383 C 36.2694 -1.91542 -4.08194 0
M  V30 384 C 34.9314 -2.29745 -4.22813 0
M  V30 385 C 37.2834 -2.82896 -4.37744 0
M  V30 386 C 34.6114 -3.58668 -4.643 0
M  V30 387 C 36.9634 -4.11265 -4.8067 0
M  V30 388 C 35.6274 -4.49466 -4.93494 0
M  V30 389 H 34.8974 -0.141938 -0.727279 0
M  V30 390 H 37.5444 -1.02814 -1.6156 0
M  V30 391 H 35.8494 0.204658 -3.91265 0
M  V30 392 H 37.5464 -0.175345 -4.00616 0
M  V30 393 H 34.1364 -1.60862 -3.97268 0
M  V30 394 H 38.3204 -2.54629 -4.26002 0
M  V30 395 H 33.5764 -3.88113 -4.72418 0
M  V30 396 H 37.7504 -4.82153 -5.02496 0
M  V30 397 H 35.3774 -5.49418 -5.25399 0
M  V30 398 N 36.9525 1.47285 -0.560781 0
M  V30 399 C 38.1985 2.03347 -0.0463654 0
M  V30 400 C 38.5535 1.42702 1.2905 0
M  V30 401 O 37.8465 0.574619 1.8278 0
M  V30 402 C 38.0405 3.57258 0.100784 0
M  V30 403 C 37.8695 4.32827 -1.22027 0
M  V30 404 C 36.6395 4.72588 -1.78854 0
M  V30 405 C 38.8375 4.67739 -2.13834 0
M  V30 406 N 36.8195 5.32816 -3.04927 0
M  V30 407 C 38.1905 5.28307 -3.24487 0
M  V30 408 C 40.2455 4.49667 -2.13784 0
M  V30 409 C 38.9485 5.72711 -4.35194 0
M  V30 410 C 40.9745 4.95073 -3.23506 0
M  V30 411 C 40.3365 5.55693 -4.32879 0
M  V30 412 H 36.4355 0.779755 -0.0592166 0
M  V30 413 H 39.0195 1.79723 -0.748857 0
M  V30 414 H 37.1905 3.80642 0.772404 0
M  V30 415 H 38.9225 3.9996 0.617589 0
M  V30 416 H 35.6775 4.54656 -1.32609 0
M  V30 417 H 36.1015 5.67471 -3.69197 0
M  V30 418 H 40.7435 4.02154 -1.30507 0
M  V30 419 H 38.4615 6.19214 -5.1923 0
M  V30 420 H 42.0475 4.82859 -3.24559 0
M  V30 421 H 40.9275 5.90188 -5.1638 0
M  V30 422 N 38.4306 0.297415 1.54768 0
M  V30 423 C 39.6766 -0.313376 2.00364 0
M  V30 424 C 40.0096 -1.53815 1.18553 0
M  V30 425 O 39.2846 -1.92739 0.261103 0
M  V30 426 C 39.5676 -0.673525 3.53745 0
M  V30 427 C 39.4206 0.560133 4.46299 0
M  V30 428 C 40.7396 -1.50143 4.13697 0
M  V30 429 H 37.8586 -0.112428 0.728374 0
M  V30 430 H 40.5006 0.4088 1.8555 0
M  V30 431 H 38.6506 -1.28881 3.665 0
M  V30 432 H 40.3226 1.19863 4.45455 0
M  V30 433 H 38.5656 1.19405 4.17043 0
M  V30 434 H 39.2366 0.26405 5.51368 0
M  V30 435 H 41.7126 -0.981588 4.04356 0
M  V30 436 H 40.5886 -1.72221 5.21182 0
M  V30 437 H 40.8496 -2.48952 3.65343 0
M  V30 438 N 39.9087 -1.5758 0.0250728 0
M  V30 439 C 41.1557 -1.91633 -0.654444 0
M  V30 440 C 41.4837 -0.901103 -1.72367 0
M  V30 441 O 40.7387 0.0905647 -1.9549 0
M  V30 442 C 41.0377 -3.32421 -1.31268 0
M  V30 443 C 40.7037 -4.49344 -0.374223 0
M  V30 444 C 39.3657 -4.8106 -0.115911 0
M  V30 445 C 41.7177 -5.20498 0.270432 0
M  V30 446 C 39.0457 -5.8129 0.79493 0
M  V30 447 C 41.3977 -6.21699 1.1693 0
M  V30 448 C 40.0617 -6.51859 1.43655 0
M  V30 449 H 39.3317 -0.701236 -0.239478 0
M  V30 450 H 41.9787 -1.91307 0.0859734 0
M  V30 451 H 40.2837 -3.28989 -2.12775 0
M  V30 452 H 41.9807 -3.56038 -1.84494 0
M  V30 453 H 38.5707 -4.24579 -0.58573 0
M  V30 454 H 42.7547 -4.96229 0.0839194 0
M  V30 455 H 38.0107 -6.03005 1.00973 0
M  V30 456 H 42.1847 -6.75955 1.67504 0
M  V30 457 H 39.8117 -7.2934 2.144 0
M  V30 458 N 41.3868 0.248026 -1.55636 0
M  V30 459 C 42.7978 0.817177 -1.67866 0
M  V30 460 C 43.1488 1.86069 -0.622322 0
M  V30 461 O 42.2738 2.15157 0.231618 0
M  V30 462 C 42.8688 1.489 -3.04326 0
M  V30 463 C 41.4278 2.00587 -3.185 0
M  V30 464 C 40.5748 0.856573 -2.63739 0
M  V30 465 H 43.5258 0.0238579 -1.58682 0
M  V30 466 H 43.5468 2.35698 -2.98708 0
M  V30 467 H 43.0588 0.729279 -3.81186 0
M  V30 468 H 41.1598 2.79443 -2.4646 0
M  V30 469 H 41.2728 2.20402 -4.25393 0
M  V30 470 H 39.6368 1.25678 -2.21534 0
M  V30 471 H 40.4198 0.109953 -3.43124 0
M  V30 472 N 42.8649 1.48995 0.513639 0
M  V30 473 C 43.8119 1.6473 1.61656 0
M  V30 474 C 44.7819 0.488984 1.58739 0
M  V30 475 O 45.9669 0.714478 1.76918 0
M  V30 476 C 43.1069 1.7082 2.99858 0
M  V30 477 C 42.2199 2.9787 3.12885 0
M  V30 478 C 41.3549 2.95017 4.41744 0
M  V30 479 C 40.3939 4.16702 4.48359 0
M  V30 480 N 39.5309 4.11832 5.68629 0
M  V30 481 H 44.3709 2.58909 1.47547 0
M  V30 482 H 41.9079 1.28382 0.71808 0
M  V30 483 H 43.8659 1.72331 3.79944 0
M  V30 484 H 42.4959 0.801181 3.12699 0
M  V30 485 H 41.5479 3.06029 2.25944 0
M  V30 486 H 42.8599 3.8786 3.13633 0
M  V30 487 H 42.0139 2.95021 5.30139 0
M  V30 488 H 40.7529 2.02784 4.43542 0
M  V30 489 H 39.7579 4.16955 3.58369 0
M  V30 490 H 40.9829 5.10113 4.48287 0
M  V30 491 H 38.9289 3.22428 5.71293 0
M  V30 492 H 38.8459 4.95543 5.7094 0
M  V30 493 H 40.1139 4.1592 6.59266 0
M  V30 494 N 44.343 -0.763751 1.37857 0
M  V30 495 C 45.591 -1.51957 1.33243 0
M  V30 496 C 45.912 -1.94835 -0.0801709 0
M  V30 497 O 45.182 -1.66894 -1.02582 0
M  V30 498 H 43.762 -0.563626 0.49024 0
M  V30 499 H 46.424 -0.908504 1.7243 0
M  V30 500 H 45.52 -2.41523 1.97669 0
M  V30 501 N 45.8211 -1.22559 -0.990812 0
M  V30 502 C 46.7711 -0.964807 -2.0658 0
M  V30 503 C 47.7551 0.0853472 -1.60673 0
M  V30 504 O 48.9471 -0.125443 -1.76555 0
M  V30 505 C 46.0761 -0.546707 -3.38919 0
M  V30 506 C 45.1621 -1.6317 -3.91454 0
M  V30 507 N 45.5531 -2.85985 -4.17189 0
M  V30 508 C 43.8511 -1.50387 -4.19881 0
M  V30 509 C 44.5521 -3.56159 -4.59919 0
M  V30 510 N 43.5281 -2.83637 -4.63736 0
M  V30 511 H 47.3301 -1.89769 -2.24421 0
M  V30 512 H 44.8441 -1.12343 -1.17273 0
M  V30 513 H 46.8411 -0.34119 -4.15502 0
M  V30 514 H 45.5011 0.379254 -3.22478 0
M  V30 515 H 46.5121 -3.22392 -4.05319 0
M  V30 516 H 43.1891 -0.644254 -4.12499 0
M  V30 517 H 44.5791 -4.6139 -4.88435 0
M  V30 518 N 47.2992 1.18797 -1.03562 0
M  V30 519 C 48.7102 1.70322 -0.764676 0
M  V30 520 C 49.0612 1.82708 0.714996 0
M  V30 521 O 48.1862 1.50299 1.55689 0
M  V30 522 C 48.7812 3.09356 -1.38145 0
M  V30 523 C 47.3402 3.58114 -1.15895 0
M  V30 524 C 46.4872 2.34798 -1.4753 0
M  V30 525 H 49.4382 1.03543 -1.20268 0
M  V30 526 H 49.4592 3.72378 -0.781977 0
M  V30 527 H 48.9712 3.00309 -2.45837 0
M  V30 528 H 47.0722 3.72464 -0.100544 0
M  V30 529 H 47.1852 4.4184 -1.8524 0
M  V30 530 H 45.5492 2.38464 -0.894829 0
M  V30 531 H 46.3322 2.28375 -2.56319 0
M  V30 532 N 48.7773 0.814389 1.34928 0
M  V30 533 C 49.6873 0.231978 2.3345 0
M  V30 534 C 50.7033 -0.629139 1.62228 0
M  V30 535 O 51.8793 -0.539052 1.94052 0
M  V30 536 C 48.9443 -0.603482 3.41407 0
M  V30 537 C 48.0053 0.279037 4.28392 0
M  V30 538 C 47.2383 -0.516643 5.31193 0
M  V30 539 O 47.4613 -1.75068 5.4287 0
M  V30 540 O 46.3953 0.0965652 6.01823 0
M  V30 541 H 50.2213 1.04721 2.85074 0
M  V30 542 H 47.8063 0.576343 1.37836 0
M  V30 543 H 49.6883 -1.07908 4.0735 0
M  V30 544 H 48.3633 -1.39618 2.92042 0
M  V30 545 H 47.2703 0.801948 3.65403 0
M  V30 546 H 48.6033 1.03588 4.81176 0
M  V30 547 N 50.2554 -1.46986 0.568584 0
M  V30 548 C 51.6664 -1.86188 0.138219 0
M  V30 549 C 52.0174 -1.47388 -1.29504 0
M  V30 550 O 51.1424 -0.88219 -1.97602 0
M  V30 551 C 51.7374 -3.3792 0.244065 0
M  V30 552 C 50.2964 -3.76171 -0.131335 0
M  V30 553 C 49.4434 -2.71027 0.586465 0
M  V30 554 H 52.3944 -1.38342 0.777645 0
M  V30 555 H 52.4154 -3.76729 -0.534351 0
M  V30 556 H 51.9274 -3.66128 1.28731 0
M  V30 557 H 50.0284 -3.5358 -1.17526 0
M  V30 558 H 50.1414 -4.78523 0.235146 0
M  V30 559 H 48.5054 -2.54684 0.0282722 0
M  V30 560 H 49.2884 -3.02077 1.63109 0
M  V30 561 N 51.7335 -0.305618 -1.54608 0
M  V30 562 C 52.9815 0.301701 -1.99835 0
M  V30 563 C 53.3025 1.54054 -1.19551 0
M  V30 564 O 52.5725 1.93702 -0.292658 0
M  V30 565 H 51.1525 0.114468 -0.738178 0
M  V30 566 H 53.8145 -0.418016 -1.90364 0
M  V30 567 H 52.9105 0.570548 -3.06841 0
M  V30 568 N 53.2116 1.57565 -0.0334293 0
M  V30 569 C 54.1216 2.13943 0.962572 0
M  V30 570 C 55.1376 1.09276 1.35406 0
M  V30 571 O 56.3136 1.41355 1.4346 0
M  V30 572 C 53.3786 2.65887 2.22497 0
M  V30 573 C 52.4396 3.85286 1.8935 0
M  V30 574 C 51.6726 4.34743 3.09571 0
M  V30 575 O 51.8956 3.83352 4.22371 0
M  V30 576 O 50.8296 5.26538 2.91618 0
M  V30 577 H 54.6556 2.99333 0.513169 0
M  V30 578 H 52.2406 1.4822 0.18743 0
M  V30 579 H 54.1226 2.99346 2.96598 0
M  V30 580 H 52.7976 1.83578 2.6661 0
M  V30 581 H 51.7046 3.56746 1.1262 0
M  V30 582 H 53.0376 4.68771 1.5005 0
M  V30 583 N 54.6897 -0.239769 1.55765 0
M  V30 584 C 55.9147 -0.988373 1.82335 0
M  V30 585 C 56.3397 -1.77886 0.611421 0
M  V30 586 O 55.6977 -1.75889 -0.439639 0
M  V30 587 C 55.7457 -1.89627 3.06715 0
M  V30 588 O 54.8497 -2.98904 2.84131 0
M  V30 589 H 54.1907 -0.280858 0.601677 0
M  V30 590 H 56.7207 -0.258597 2.02959 0
M  V30 591 H 56.7307 -2.30957 3.36338 0
M  V30 592 H 55.4057 -1.31511 3.9456 0
M  V30 593 H 53.9827 -2.61651 2.65694 0
M  V30 594 N 56.1678 -1.49265 -0.50573 0
M  V30 595 C 57.0978 -1.68495 -1.61653 0
M  V30 596 C 58.0788 -0.53366 -1.61512 0
M  V30 597 O 59.2638 -0.76897 -1.78327 0
M  V30 598 C 56.3938 -1.74709 -3.00157 0
M  V30 599 C 55.3478 -2.89581 -3.15162 0
M  V30 600 C 54.6738 -2.80903 -4.5497 0
M  V30 601 C 55.9738 -4.30578 -2.95634 0
M  V30 602 H 57.6678 -2.61493 -1.45814 0
M  V30 603 H 55.2138 -1.25838 -0.70005 0
M  V30 604 H 57.1668 -1.86748 -3.77761 0
M  V30 605 H 55.8908 -0.783067 -3.17074 0
M  V30 606 H 54.5498 -2.77136 -2.39982 0
M  V30 607 H 54.1978 -1.82419 -4.68756 0
M  V30 608 H 53.8978 -3.57999 -4.65951 0
M  V30 609 H 55.4218 -2.94944 -5.34641 0
M  V30 610 H 56.8358 -4.4373 -3.63011 0
M  V30 611 H 55.2328 -5.0886 -3.18091 0
M  V30 612 H 56.3028 -4.45352 -1.91806 0
M  V30 613 N 57.6459 0.756429 -1.3826 0
M  V30 614 C 58.5559 1.9009 -1.37488 0
M  V30 615 C 59.5719 1.71855 -0.272366 0
M  V30 616 O 60.7479 1.94827 -0.510318 0
M  V30 617 C 57.8129 3.25421 -1.19592 0
M  V30 618 C 56.8739 3.56202 -2.39622 0
M  V30 619 C 56.1069 4.85075 -2.2257 0
M  V30 620 O 56.3299 5.57246 -1.21793 0
M  V30 621 O 55.2639 5.15269 -3.11098 0
M  V30 622 H 59.0899 1.93695 -2.33914 0
M  V30 623 H 56.6749 0.901313 -1.1915 0
M  V30 624 H 58.5569 4.06337 -1.11661 0
M  V30 625 H 57.2319 3.22634 -0.262486 0
M  V30 626 H 56.1389 2.75458 -2.53128 0
M  V30 627 H 57.4719 3.63747 -3.31586 0
M  V30 628 N 59.124 1.23083 0.984299 0
M  V30 629 C 60.034 1.02515 2.11016 0
M  V30 630 C 61.05 -0.0291702 1.73976 0
M  V30 631 O 62.226 0.165434 2.00719 0
M  V30 632 C 59.291 0.614673 3.41208 0
M  V30 633 C 58.352 1.74359 3.92297 0
M  V30 634 C 57.585 1.35261 5.16275 0
M  V30 635 O 57.808 0.235136 5.69915 0
M  V30 636 O 56.742 2.17227 5.61334 0
M  V30 637 H 60.568 1.96862 2.31255 0
M  V30 638 H 58.153 1.01753 1.09392 0
M  V30 639 H 60.035 0.396518 4.1953 0
M  V30 640 H 58.71 -0.299851 3.22308 0
M  V30 641 H 57.617 2.01635 3.1511 0
M  V30 642 H 58.95 2.63629 4.15645 0
M  V30 643 N 60.6021 -1.18246 1.0419 0
M  V30 644 C 61.5651 -2.20128 0.638452 0
M  V30 645 C 62.5651 -1.57885 -0.304805 0
M  V30 646 O 63.7551 -1.73967 -0.0900369 0
M  V30 647 C 60.8871 -3.4084 -0.0637751 0
M  V30 648 H 62.0801 -2.57336 1.54007 0
M  V30 649 H 59.6331 -1.32152 0.834598 0
M  V30 650 H 60.3681 -3.09166 -0.979136 0
M  V30 651 H 60.1531 -3.8726 0.614198 0
M  V30 652 H 61.6431 -4.16274 -0.332512 0
M  V30 653 N 62.0802 -0.821533 -1.34494 0
M  V30 654 C 63.0432 -0.247847 -2.27856 0
M  V30 655 C 64.0432 0.573453 -1.50227 0
M  V30 656 O 65.2332 0.389759 -1.69784 0
M  V30 657 C 62.3652 0.652698 -3.34593 0
M  V30 658 H 63.5582 -1.07146 -2.80107 0
M  V30 659 H 61.1112 -0.593291 -1.44602 0
M  V30 660 H 61.8462 1.49943 -2.87555 0
M  V30 661 H 61.6312 0.065292 -3.92046 0
M  V30 662 H 63.1212 1.04793 -4.04238 0
M  V30 663 N 63.5583 1.46682 -0.576371 0
M  V30 664 C 64.8043 2.02712 -0.0596221 0
M  V30 665 C 65.1373 1.44765 1.29448 0
M  V30 666 O 64.4123 0.610355 1.84675 0
M  V30 667 C 64.6953 3.60098 0.0129503 0
M  V30 668 C 64.5483 4.28441 -1.3696 0
M  V30 669 C 65.8673 4.34224 0.71678 0
M  V30 670 H 62.9863 0.736637 -0.0231407 0
M  V30 671 H 65.6283 1.74898 -0.742351 0
M  V30 672 H 63.7783 3.83926 0.594378 0
M  V30 673 H 65.4503 4.15896 -1.9957 0
M  V30 674 H 63.6933 3.8805 -1.93907 0
M  V30 675 H 64.3643 5.3716 -1.27135 0
M  V30 676 H 66.8403 4.15503 0.222908 0
M  V30 677 H 65.7163 5.43936 0.73657 0
M  V30 678 H 65.9773 4.04823 1.77682 0
M  V30 679 N 65.0364 0.313813 1.54444 0
M  V30 680 C 66.4524 -0.0391619 1.59552 0
M  V30 681 C 66.6524 -1.51322 1.33056 0
M  V30 682 O 65.7084 -2.26782 1.11022 0
M  V30 683 C 67.0214 0.370302 2.98411 0
M  V30 684 C 68.5694 0.320139 3.11358 0
M  V30 685 C 69.0444 0.704617 4.52547 0
M  V30 686 N 70.5354 0.657645 4.58508 0
M  V30 687 C 71.2704 0.927453 5.6585 0
M  V30 688 N 70.7664 1.26389 6.81174 0
M  V30 689 N 72.5594 0.853662 5.5558 0
M  V30 690 H 64.7104 1.27433 1.69925 0
M  V30 691 H 66.9734 0.517511 0.794284 0
M  V30 692 H 66.6794 1.39694 3.22767 0
M  V30 693 H 66.5534 -0.269619 3.76235 0
M  V30 694 H 68.9404 -0.697275 2.86744 0
M  V30 695 H 69.0214 0.99486 2.35661 0
M  V30 696 H 68.6654 1.7199 4.77893 0
M  V30 697 H 68.5954 0.00768843 5.26599 0
M  V30 698 H 71.0864 0.409067 3.75679 0
M  V30 699 H 71.3994 1.4554 7.58972 0
M  V30 700 H 69.7444 1.30206 6.82694 0
M  V30 701 H 72.9354 0.590383 4.64362 0
M  V30 702 H 73.1084 1.0673 6.3915 0
M  V30 703 N 66.5145 -1.57545 0.0417849 0
M  V30 704 C 67.4245 -2.14451 -0.951213 0
M  V30 705 C 68.4405 -1.09992 -1.34825 0
M  V30 706 O 69.6165 -1.42114 -1.42708 0
M  V30 707 C 66.6815 -2.67063 -2.21084 0
M  V30 708 C 65.7425 -3.86284 -1.87304 0
M  V30 709 C 64.9755 -4.36378 -3.07261 0
M  V30 710 O 65.1985 -3.85587 -4.20332 0
M  V30 711 O 64.1325 -5.28077 -2.88822 0
M  V30 712 H 67.9585 -2.99601 -0.497287 0
M  V30 713 H 65.5435 -1.48317 -0.179567 0
M  V30 714 H 67.4255 -3.00914 -2.95006 0
M  V30 715 H 66.1005 -1.84989 -2.65633 0
M  V30 716 H 65.0075 -3.57338 -1.10727 0
M  V30 717 H 66.3405 -4.6956 -1.47562 0
M  V30 718 N 67.9926 0.231505 -1.5589 0
M  V30 719 C 69.2386 0.95877 -1.78705 0
M  V30 720 C 69.5716 1.8438 -0.609725 0
M  V30 721 O 68.8466 1.90521 0.391426 0
M  V30 722 C 69.1296 1.8062 -3.11526 0
M  V30 723 C 68.9826 0.948328 -4.39689 0
M  V30 724 C 70.3016 2.78585 -3.40703 0
M  V30 725 H 67.4206 0.347129 -0.650131 0
M  V30 726 H 70.0626 0.228259 -1.88624 0
M  V30 727 H 68.2126 2.42902 -3.03201 0
M  V30 728 H 69.8846 0.343016 -4.60023 0
M  V30 729 H 68.1276 0.253314 -4.3306 0
M  V30 730 H 68.7986 1.57543 -5.29041 0
M  V30 731 H 71.2746 2.26439 -3.49091 0
M  V30 732 H 70.1506 3.34988 -4.34826 0
M  V30 733 H 70.4116 3.55825 -2.62375 0
M  V30 734 N 69.4707 1.49531 0.497807 0
M  V30 735 C 70.7167 1.60388 1.25089 0
M  V30 736 C 71.0717 0.288328 1.90227 0
M  V30 737 O 70.3647 -0.711706 1.77891 0
M  V30 738 C 70.5587 2.70252 2.33878 0
M  V30 739 C 70.3877 4.12363 1.79408 0
M  V30 740 C 69.1577 4.7911 1.60566 0
M  V30 741 C 71.3557 4.97491 1.30412 0
M  V30 742 N 69.3377 6.05525 1.01059 0
M  V30 743 C 70.7087 6.14411 0.830595 0
M  V30 744 C 72.7637 4.83466 1.19015 0
M  V30 745 C 71.4667 7.1885 0.254371 0
M  V30 746 C 73.4927 5.88057 0.627892 0
M  V30 747 C 72.8547 7.04208 0.16461 0
M  V30 748 H 68.9537 0.641246 0.447579 0
M  V30 749 H 71.5377 1.86549 0.557441 0
M  V30 750 H 69.7087 2.45858 3.0068 0
M  V30 751 H 71.4407 2.70613 3.00917 0
M  V30 752 H 68.1957 4.35961 1.85026 0
M  V30 753 H 68.6197 6.73028 0.732236 0
M  V30 754 H 73.2617 3.93978 1.53431 0
M  V30 755 H 70.9797 8.08036 -0.102052 0
M  V30 756 H 74.5657 5.79266 0.542444 0
M  V30 757 H 73.4457 7.83757 -0.263669 0
M  V30 758 N 70.9488 -0.749086 1.3866 0
M  V30 759 C 71.8588 -1.89358 1.38494 0
M  V30 760 C 72.8748 -1.71708 0.281476 0
M  V30 761 O 74.0508 -1.94554 0.520643 0
M  V30 762 C 71.1158 -3.24782 1.21316 0
M  V30 763 C 70.1768 -3.54926 2.41508 0
M  V30 764 C 69.4098 -4.83888 2.2514 0
M  V30 765 O 69.6328 -5.56592 1.24746 0
M  V30 766 O 68.5668 -5.13612 3.13826 0
M  V30 767 H 72.3928 -1.92452 2.34938 0
M  V30 768 H 69.9778 -0.894981 1.19626 0
M  V30 769 H 71.8598 -4.05739 1.13814 0
M  V30 770 H 70.5348 -3.2249 0.279592 0
M  V30 771 H 69.4418 -2.74112 2.54585 0
M  V30 772 H 70.7748 -3.61983 3.3351 0
M  V30 773 N 72.4269 -1.23603 -0.977757 0
M  V30 774 C 73.3369 -1.03632 -2.1047 0
M  V30 775 C 74.3529 0.0199435 -1.73989 0
M  V30 776 O 75.5289 -0.176076 -2.00629 0
M  V30 777 C 72.5939 -0.63276 -3.40877 0
M  V30 778 C 71.6549 -1.76437 -3.91367 0
M  V30 779 C 70.8879 -1.37997 -5.15551 0
M  V30 780 O 71.1109 -0.265357 -5.69782 0
M  V30 781 O 70.0449 -2.20201 -5.60174 0
M  V30 782 H 73.8709 -1.98086 -2.30208 0
M  V30 783 H 71.4559 -1.02332 -1.08851 0
M  V30 784 H 73.3379 -0.418761 -4.19314 0
M  V30 785 H 72.0129 0.282754 -3.22463 0
M  V30 786 H 70.9199 -2.03304 -3.14036 0
M  V30 787 H 72.2529 -2.6583 -4.14241 0
M  V30 788 N 73.905 1.17692 -1.04816 0
M  V30 789 C 75.133 1.91786 -0.776254 0
M  V30 790 C 75.548 1.76604 0.667577 0
M  V30 791 O 74.905 1.10067 1.45573 0
M  V30 792 C 74.956 3.42967 -1.14263 0
M  V30 793 O 74.677 3.57678 -2.52978 0
M  V30 794 C 76.178 4.34144 -0.896311 0
M  V30 795 H 73.398 0.608624 -0.282519 0
M  V30 796 H 75.942 1.49268 -1.39783 0
M  V30 797 H 74.097 3.83245 -0.565874 0
M  V30 798 H 74.511 4.51319 -2.67229 0
M  V30 799 H 75.985 5.38744 -1.20244 0
M  V30 800 H 76.462 4.38876 0.168636 0
M  V30 801 H 77.068 3.99574 -1.45672 0
M  V30 802 N 75.3831 0.828654 1.34056 0
M  V30 803 C 76.6311 0.41863 1.97717 0
M  V30 804 C 76.9521 -1.02314 1.66002 0
M  V30 805 O 76.2221 -1.71119 0.953683 0
M  V30 806 H 74.8021 0.151809 0.731412 0
M  V30 807 H 77.4641 1.05936 1.63596 0
M  V30 808 H 76.5601 0.542318 3.07352 0
M  V30 809 N 76.8612 -1.46375 0.584142 0
M  V30 810 C 78.1072 -2.02678 0.0703716 0
M  V30 811 C 78.4402 -1.4545 -1.28678 0
M  V30 812 O 77.7152 -0.62014 -1.84349 0
M  V30 813 C 77.9982 -3.60099 0.00614674 0
M  V30 814 C 77.8512 -4.27709 1.3923 0
M  V30 815 C 79.1702 -4.34598 -0.693742 0
M  V30 816 H 76.2892 -0.736504 0.027047 0
M  V30 817 H 78.9312 -1.74501 0.751615 0
M  V30 818 H 77.0812 -3.84236 -0.574009 0
M  V30 819 H 78.7532 -4.14832 2.01773 0
M  V30 820 H 76.9962 -3.87016 1.95962 0
M  V30 821 H 77.6672 -5.36478 1.29982 0
M  V30 822 H 80.1432 -4.15615 -0.200869 0
M  V30 823 H 79.0192 -5.44318 -0.707714 0
M  V30 824 H 79.2802 -4.05759 -1.75533 0
M  V30 825 N 78.3393 -0.321999 -1.54275 0
M  V30 826 C 79.7553 0.0306999 -1.5957 0
M  V30 827 C 79.9553 1.50614 -1.33857 0
M  V30 828 O 79.0113 2.2619 -1.12223 0
M  V30 829 C 80.3243 -0.386122 -2.98211 0
M  V30 830 C 81.8723 -0.336647 -3.11184 0
M  V30 831 C 82.3473 -0.728607 -4.52167 0
M  V30 832 N 83.8383 -0.681952 -4.58152 0
M  V30 833 C 84.5733 -0.957449 -5.6535 0
M  V30 834 N 84.0693 -1.3 -6.80494 0
M  V30 835 N 85.8623 -0.883113 -5.55119 0
M  V30 836 H 78.0133 -1.28332 -1.69247 0
M  V30 837 H 80.2763 -0.521716 -0.791528 0
M  V30 838 H 79.9823 -1.41404 -3.22022 0
M  V30 839 H 79.8563 0.249662 -3.76373 0
M  V30 840 H 82.2433 0.682058 -2.8711 0
M  V30 841 H 82.3243 -1.00734 -2.3513 0
M  V30 842 H 81.9683 -1.74522 -4.76974 0
M  V30 843 H 81.8983 -0.0356152 -5.26588 0
M  V30 844 H 84.3893 -0.428985 -3.75457 0
M  V30 845 H 84.7023 -1.49563 -7.58189 0
M  V30 846 H 83.0473 -1.33824 -6.81994 0
M  V30 847 H 86.2383 -0.615001 -4.64042 0
M  V30 848 H 86.4113 -1.10118 -6.38575 0
M  V30 849 N 79.8174 1.5752 -0.0501392 0
M  V30 850 C 80.7804 2.1037 0.909786 0
M  V30 851 C 81.7804 1.02308 1.24056 0
M  V30 852 O 82.9704 1.28385 1.17741 0
M  V30 853 C 80.1024 2.58708 2.21998 0
M  V30 854 H 81.2954 2.96479 0.451665 0
M  V30 855 H 78.8484 1.55038 0.198248 0
M  V30 856 H 79.5834 1.75989 2.72394 0
M  V30 857 H 79.3684 3.37675 1.99295 0
M  V30 858 H 80.8584 2.99747 2.9076 0
M  V30 859 N 81.2955 -0.223234 1.56011 0
M  V30 860 C 82.2055 -1.29766 1.95443 0
M  V30 861 C 83.2215 -1.51373 0.858028 0
M  V30 862 O 84.3975 -1.64536 1.16146 0
M  V30 863 C 81.4625 -2.62772 2.26167 0
M  V30 864 C 80.5235 -2.49482 3.49367 0
M  V30 865 C 79.7565 -3.76145 3.78616 0
M  V30 866 O 79.9795 -4.79087 3.09568 0
M  V30 867 O 78.9135 -3.73358 4.72109 0
M  V30 868 H 82.7395 -0.99309 2.87004 0
M  V30 869 H 80.3245 -0.425958 1.43199 0
M  V30 870 H 82.2065 -3.41327 2.47131 0
M  V30 871 H 80.8815 -2.92913 1.37781 0
M  V30 872 H 79.7885 -1.69133 3.33684 0
M  V30 873 H 81.1215 -2.2428 4.38131 0
M  V30 874 N 82.7736 -1.49793 -0.48987 0
M  V30 875 C 84.0196 -1.60078 -1.24511 0
M  V30 876 C 84.3526 -0.291608 -1.91998 0
M  V30 877 O 83.6276 0.705647 -1.81248 0
M  V30 878 C 83.9106 -2.76791 -2.30345 0
M  V30 879 C 83.7636 -4.17535 -1.67286 0
M  V30 880 C 85.0826 -2.89111 -3.31817 0
M  V30 881 H 82.2016 -0.582645 -0.451324 0
M  V30 882 H 84.8436 -1.82117 -0.541612 0
M  V30 883 H 82.9936 -2.5813 -2.90346 0
M  V30 884 H 84.6656 -4.4774 -1.11026 0
M  V30 885 H 82.9086 -4.22665 -0.976577 0
M  V30 886 H 83.5796 -4.95094 -2.44103 0
M  V30 887 H 86.0556 -3.06133 -2.81819 0
M  V30 888 H 84.9316 -3.72433 -4.03219 0
M  V30 889 H 85.1926 -1.9893 -3.94815 0
M  V30 890 N 84.2517 0.741722 -1.39055 0
M  V30 891 C 85.1817 1.869 -1.39966 0
M  V30 892 C 86.1627 1.6804 -0.26392 0
M  V30 893 O 87.3477 1.88458 -0.468755 0
M  V30 894 C 84.4777 3.24572 -1.23574 0
M  V30 895 C 83.4317 3.58056 -2.34477 0
M  V30 896 C 82.7577 4.94593 -2.0318 0
M  V30 897 C 84.0577 3.61716 -3.76774 0
M  V30 898 H 85.7517 1.86395 -2.34302 0
M  V30 899 H 83.2977 0.895361 -1.1278 0
M  V30 900 H 85.2507 4.031 -1.22834 0
M  V30 901 H 83.9747 3.25587 -0.257045 0
M  V30 902 H 82.6337 2.81854 -2.34423 0
M  V30 903 H 82.2817 4.92181 -1.03765 0
M  V30 904 H 81.9817 5.17964 -2.77465 0
M  V30 905 H 83.5057 5.75486 -2.04079 0
M  V30 906 H 84.9197 4.30335 -3.78794 0
M  V30 907 H 83.3167 3.96603 -4.50362 0
M  V30 908 H 84.3867 2.61672 -4.08235 0
M  V30 909 N 85.7298 1.2412 0.971189 0
M  V30 910 C 86.6598 1.05508 2.08304 0
M  V30 911 C 87.6408 -0.0308864 1.70072 0
M  V30 912 O 88.8258 0.135521 1.93727 0
M  V30 913 C 85.9558 0.655365 3.4106 0
M  V30 914 C 84.9098 1.68971 3.93234 0
M  V30 915 C 84.2358 1.14516 5.22293 0
M  V30 916 C 85.5358 3.08487 4.21465 0
M  V30 917 H 87.2298 1.98507 2.24132 0
M  V30 918 H 84.7758 0.955821 1.07704 0
M  V30 919 H 86.7288 0.51217 4.18276 0
M  V30 920 H 85.4528 -0.31032 3.25122 0
M  V30 921 H 84.1118 1.82106 3.18171 0
M  V30 922 H 83.7598 0.170189 5.02712 0
M  V30 923 H 83.4598 1.83635 5.58168 0
M  V30 924 H 84.9838 1.01401 6.02121 0
M  V30 925 H 86.3978 2.98601 4.89398 0
M  V30 926 H 84.7948 3.74926 4.68562 0
M  V30 927 H 85.8648 3.56787 3.28376 0
M  V30 928 N 87.2079 -1.17134 1.05439 0
M  V30 929 C 88.6189 -1.69084 0.791676 0
M  V30 930 C 88.9699 -1.83822 -0.685839 0
M  V30 931 O 88.0949 -1.52757 -1.53278 0
M  V30 932 C 88.6899 -3.07119 1.4305 0
M  V30 933 C 87.2489 -3.56225 1.21577 0
M  V30 934 C 86.3959 -2.32421 1.51247 0
M  V30 935 H 89.3469 -1.01617 1.219 0
M  V30 936 H 89.3679 -3.71087 0.84112 0
M  V30 937 H 88.8799 -2.9636 2.50584 0
M  V30 938 H 86.9809 -3.72257 0.159787 0
M  V30 939 H 87.0939 -4.38837 1.92246 0
M  V30 940 H 85.4579 -2.3701 0.932653 0
M  V30 941 H 86.2409 -2.24268 2.5992 0
M  V30 942 N 88.686 -0.835752 -1.33615 0
M  V30 943 C 89.616 -0.281739 -2.31794 0
M  V30 944 C 90.597 0.608833 -1.58831 0
M  V30 945 O 91.782 0.533035 -1.86741 0
M  V30 946 C 88.912 0.546612 -3.42971 0
M  V30 947 C 87.866 -0.247904 -4.27281 0
M  V30 948 C 87.192 0.704001 -5.30045 0
M  V30 949 C 88.492 -1.46324 -5.01385 0
M  V30 950 H 90.186 -1.10206 -2.78379 0
M  V30 951 H 87.732 -0.531388 -1.33837 0
M  V30 952 H 89.685 0.944467 -4.1068 0
M  V30 953 H 88.409 1.40011 -2.95067 0
M  V30 954 H 87.068 -0.627281 -3.61194 0
M  V30 955 H 86.716 1.55381 -4.78399 0
M  V30 956 H 86.416 0.176524 -5.87335 0
M  V30 957 H 87.94 1.09944 -6.0062 0
M  V30 958 H 89.354 -1.13871 -5.61877 0
M  V30 959 H 87.751 -1.92728 -5.6831 0
M  V30 960 H 88.821 -2.23467 -4.30338 0
M  V30 961 N 90.1641 1.46063 -0.591896 0
M  V30 962 C 91.3941 2.06418 -0.0867676 0
M  V30 963 C 91.8021 1.43975 1.22751 0
M  V30 964 O 91.1451 0.542531 1.75506 0
M  V30 965 C 91.2071 3.59213 0.143725 0
M  V30 966 C 90.8711 4.439 -1.08635 0
M  V30 967 C 91.8681 4.79864 -2.00067 0
M  V30 968 C 89.5531 4.84896 -1.31077 0
M  V30 969 C 91.5471 5.55661 -3.12282 0
M  V30 970 C 89.2341 5.6045 -2.43596 0
M  V30 971 C 90.2321 5.95747 -3.34027 0
M  V30 972 O 89.9201 6.69772 -4.4459 0
M  V30 973 H 89.6521 0.673443 -0.0587447 0
M  V30 974 H 92.2061 1.88539 -0.814994 0
M  V30 975 H 90.4361 3.75433 0.926668 0
M  V30 976 H 92.1251 4.01463 0.5985 0
M  V30 977 H 92.8911 4.48763 -1.83947 0
M  V30 978 H 88.7701 4.56867 -0.61594 0
M  V30 979 H 92.3141 5.8313 -3.82891 0
M  V30 980 H 88.2111 5.90965 -2.59674 0
M  V30 981 H 88.9791 6.88207 -4.43073 0
M  V30 982 N 91.6422 0.330177 1.54103 0
M  V30 983 C 93.0532 -0.15652 1.86043 0
M  V30 984 C 93.4042 -1.51086 1.2517 0
M  V30 985 O 92.5292 -2.09023 0.560217 0
M  V30 986 C 93.1242 -0.290784 3.3755 0
M  V30 987 C 91.6832 -0.721705 3.69416 0
M  V30 988 C 90.8302 0.152622 2.7688 0
M  V30 989 H 93.7812 0.550237 1.48856 0
M  V30 990 H 93.8022 -1.12058 3.63625 0
M  V30 991 H 93.3142 0.695068 3.81825 0
M  V30 992 H 91.4152 -1.71706 3.30678 0
M  V30 993 H 91.5282 -0.520869 4.7626 0
M  V30 994 H 89.8922 -0.372894 2.51956 0
M  V30 995 H 90.6752 1.13536 3.23982 0
M  V30 996 N 93.1203 -1.57491 0.0584922 0
M  V30 997 C 94.3483 -1.97296 -0.623037 0
M  V30 998 C 94.7633 -0.936338 -1.63946 0
M  V30 999 O 94.1203 0.0785981 -1.82331 0
M  V30 1000 C 94.1713 -3.37183 -1.30345 0
M  V30 1001 O 93.8923 -4.36872 -0.32773 0
M  V30 1002 C 95.3933 -3.91788 -2.07406 0
M  V30 1003 H 92.6133 -0.649153 -0.169826 0
M  V30 1004 H 95.1573 -2.04106 0.12696 0
M  V30 1005 H 93.3123 -3.31502 -2.00463 0
M  V30 1006 H 93.7263 -5.18141 -0.814269 0
M  V30 1007 H 95.2003 -4.91926 -2.50425 0
M  V30 1008 H 95.6773 -3.27609 -2.92521 0
M  V30 1009 H 96.2833 -4.00829 -1.42184 0
M  V30 1010 N 94.5984 0.214957 -1.56127 0
M  V30 1011 C 96.0144 0.564948 -1.49267 0
M  V30 1012 C 96.2144 1.86827 -0.754838 0
M  V30 1013 O 95.2704 2.50745 -0.297198 0
M  V30 1014 C 96.5834 0.638071 -2.93852 0
M  V30 1015 C 98.1314 0.728253 -3.0441 0
M  V30 1016 C 98.6064 0.832663 -4.50367 0
M  V30 1017 N 100.097 0.896712 -4.54437 0
M  V30 1018 C 100.832 0.997324 -5.6466 0
M  V30 1019 N 100.328 1.06147 -6.8462 0
M  V30 1020 N 102.121 1.03297 -5.52527 0
M  V30 1021 H 94.2724 -0.640211 -2.02522 0
M  V30 1022 H 96.5354 -0.225507 -0.920788 0
M  V30 1023 H 96.2414 -0.250126 -3.50809 0
M  V30 1024 H 96.1154 1.49947 -3.46115 0
M  V30 1025 H 98.5024 1.60689 -2.47514 0
M  V30 1026 H 98.5834 -0.158952 -2.55306 0
M  V30 1027 H 98.2274 -0.0415417 -5.07883 0
M  V30 1028 H 98.1574 1.73538 -4.97184 0
M  V30 1029 H 100.648 0.857188 -3.6805 0
M  V30 1030 H 100.961 1.1382 -7.64372 0
M  V30 1031 H 99.3064 1.03049 -6.87318 0
M  V30 1032 H 102.497 0.979558 -4.57736 0
M  V30 1033 H 102.67 1.10793 -6.38458 0
M  V30 1034 N 96.0765 1.50051 0.48192 0
M  V30 1035 C 97.3065 1.63999 1.2565 0
M  V30 1036 C 97.7145 0.318288 1.86504 0
M  V30 1037 O 97.0575 -0.708534 1.69486 0
M  V30 1038 C 97.1195 2.66504 2.4128 0
M  V30 1039 C 96.7835 4.10352 2.01148 0
M  V30 1040 C 97.7805 4.96562 1.54021 0
M  V30 1041 C 95.4655 4.56203 2.10199 0
M  V30 1042 C 97.4595 6.26668 1.16473 0
M  V30 1043 C 95.1465 5.86318 1.72264 0
M  V30 1044 C 96.1445 6.71375 1.25477 0
M  V30 1045 O 95.8325 7.99062 0.880626 0
M  V30 1046 H 95.5645 0.55456 0.386574 0
M  V30 1047 H 98.1185 1.96954 0.582944 0
M  V30 1048 H 96.3485 2.28769 3.11772 0
M  V30 1049 H 98.0375 2.69783 3.03268 0
M  V30 1050 H 98.8035 4.62358 1.46458 0
M  V30 1051 H 94.6825 3.90152 2.45566 0
M  V30 1052 H 98.2265 6.93011 0.798841 0
M  V30 1053 H 94.1235 6.20046 1.79482 0
M  V30 1054 H 94.8915 8.12239 1.01043 0
M  V30 1055 N 97.5546 -0.734337 1.39446 0
M  V30 1056 C 98.8006 -1.49613 1.36908 0
M  V30 1057 C 99.1336 -1.94169 -0.0347829 0
M  V30 1058 O 98.4086 -1.66833 -0.999847 0
M  V30 1059 C 98.6916 -2.73534 2.34203 0
M  V30 1060 C 98.5446 -2.34993 3.83534 0
M  V30 1061 C 99.8636 -3.75635 2.29317 0
M  V30 1062 H 96.9826 -0.542714 0.498629 0
M  V30 1063 H 99.6246 -0.839597 1.70443 0
M  V30 1064 H 97.7746 -3.29553 2.05736 0
M  V30 1065 H 99.4466 -1.84601 4.22753 0
M  V30 1066 H 97.6896 -1.67213 4.00278 0
M  V30 1067 H 98.3606 -3.23738 4.47099 0
M  V30 1068 H 100.837 -3.29203 2.54489 0
M  V30 1069 H 99.7126 -4.60008 2.99472 0
M  V30 1070 H 99.9736 -4.22603 1.29842 0
M  V30 1071 N 99.0327 -1.24633 -0.964593 0
M  V30 1072 C 99.9807 -1.03917 -2.08096 0
M  V30 1073 C 100.975 0.0268581 -1.69379 0
M  V30 1074 O 102.181 -0.127952 -1.79545 0
M  V30 1075 H 98.5557 -0.319044 -0.680966 0
M  V30 1076 H 100.527 -1.98581 -2.22729 0
M  V30 1077 C 99.2757 -0.663983 -3.41301 0
M  V30 1078 H 98.5987 -1.47605 -3.71555 0
M  V30 1079 H 100.039 -0.558663 -4.20303 0
M  V30 1080 C 98.4977 0.629169 -3.30973 0
M  V30 1081 O 99.0277 1.67404 -3.65156 0
M  V30 1082 N 97.2337 0.611057 -2.84103 0
M  V30 1083 H 96.7807 -0.239593 -2.56483 0
M  V30 1084 H 96.7387 1.47647 -2.77575 0
M  V30 1085 N 100.511 1.16574 -1.06058 0
M  V30 1086 C 101.922 1.68662 -0.800632 0
M  V30 1087 C 102.273 1.84184 0.67608 0
M  V30 1088 O 101.398 1.53568 1.52466 0
M  V30 1089 C 101.993 3.06356 -1.44676 0
M  V30 1090 C 100.552 3.55575 -1.23465 0
M  V30 1091 C 99.6988 2.31616 -1.52477 0
M  V30 1092 H 102.65 1.00969 -1.22438 0
M  V30 1093 H 102.671 3.70636 -0.860788 0
M  V30 1094 H 102.183 2.95027 -2.52152 0
M  V30 1095 H 100.284 3.72167 -0.179527 0
M  V30 1096 H 100.397 4.37812 -1.94571 0
M  V30 1097 H 98.7608 2.36512 -0.945209 0
M  V30 1098 H 99.5438 2.22887 -2.61106 0
M  V30 1099 N 101.989 0.842826 1.3317 0
M  V30 1100 C 102.936 0.276885 2.29133 0
M  V30 1101 C 103.906 -0.609527 1.54512 0
M  V30 1102 O 105.091 -0.546955 1.82792 0
M  V30 1103 C 102.231 -0.538707 3.40869 0
M  V30 1104 C 101.344 0.372169 4.30394 0
M  V30 1105 C 100.479 -0.454908 5.29249 0
M  V30 1106 C 99.5179 0.45411 6.10413 0
M  V30 1107 N 98.6549 -0.335075 7.013 0
M  V30 1108 H 103.495 1.10052 2.76934 0
M  V30 1109 H 101.032 0.554161 1.36262 0
M  V30 1110 H 102.99 -1.02709 4.0436 0
M  V30 1111 H 101.62 -1.32727 2.9425 0
M  V30 1112 H 100.672 0.97888 3.6759 0
M  V30 1113 H 101.984 1.0703 4.87182 0
M  V30 1114 H 101.138 -1.00695 5.98285 0
M  V30 1115 H 99.8769 -1.18646 4.73048 0
M  V30 1116 H 98.8819 1.01813 5.40291 0
M  V30 1117 H 100.107 1.18409 6.68697 0
M  V30 1118 H 98.0529 -1.04994 6.47543 0
M  V30 1119 H 97.9699 0.304262 7.55387 0
M  V30 1120 H 99.2379 -0.869224 7.74638 0
M  V30 1121 N 103.467 -1.45747 0.599634 0
M  V30 1122 C 104.715 -2.01893 0.0915472 0
M  V30 1123 C 105.036 -1.47155 -1.27946 0
M  V30 1124 O 104.306 -0.66273 -1.84349 0
M  V30 1125 H 102.886 -0.746363 0.0308524 0
M  V30 1126 H 105.548 -1.78645 0.779237 0
M  V30 1127 H 104.644 -3.1208 0.0353086 0
M  V30 1128 N 104.945 -0.338344 -1.53925 0
M  V30 1129 C 106.191 0.260143 -2.01125 0
M  V30 1130 C 106.524 1.50617 -1.22589 0
M  V30 1131 O 105.799 1.91979 -0.312113 0
M  V30 1132 C 106.082 0.579499 -3.55407 0
M  V30 1133 C 105.935 -0.678264 -4.44657 0
M  V30 1134 C 107.254 1.39122 -4.17532 0
M  V30 1135 H 104.373 0.0930772 -0.731099 0
M  V30 1136 H 107.015 -0.457852 -1.84401 0
M  V30 1137 H 105.165 1.19118 -3.69788 0
M  V30 1138 H 106.837 -1.31631 -4.42121 0
M  V30 1139 H 105.08 -1.3042 -4.13731 0
M  V30 1140 H 105.751 -0.410143 -5.50474 0
M  V30 1141 H 108.227 0.874035 -4.06817 0
M  V30 1142 H 107.103 1.58342 -5.25565 0
M  V30 1143 H 107.364 2.39178 -3.71815 0
M  V30 1144 N 106.423 1.57458 -0.0668435 0
M  V30 1145 C 107.333 2.15937 0.916975 0
M  V30 1146 C 108.349 1.12123 1.33058 0
M  V30 1147 O 109.525 1.44366 1.40429 0
M  V30 1148 C 106.59 2.70547 2.16807 0
M  V30 1149 C 105.651 3.89215 1.81135 0
M  V30 1150 C 104.884 4.41211 3.0028 0
M  V30 1151 O 105.107 3.92225 4.14144 0
M  V30 1152 O 104.041 5.32605 2.80384 0
M  V30 1153 H 107.867 3.00354 0.449561 0
M  V30 1154 H 105.452 1.48584 0.155949 0
M  V30 1155 H 107.334 3.0557 2.90181 0
M  V30 1156 H 106.009 1.89192 2.62656 0
M  V30 1157 H 104.916 3.59054 1.05028 0
M  V30 1158 H 106.249 4.71848 1.40073 0
M  V30 1159 N 107.901 -0.206675 1.56239 0
M  V30 1160 C 109.317 -0.557025 1.49564 0
M  V30 1161 C 109.517 -1.86424 0.764735 0
M  V30 1162 O 108.573 -2.50584 0.310491 0
M  V30 1163 C 109.886 -0.622478 2.94186 0
M  V30 1164 C 111.434 -0.712099 3.04792 0
M  V30 1165 C 111.909 -0.808767 4.50803 0
M  V30 1166 N 113.4 -0.8726 4.54907 0
M  V30 1167 C 114.135 -0.967365 5.65181 0
M  V30 1168 N 113.631 -1.02515 6.85173 0
M  V30 1169 N 115.424 -1.00366 5.53067 0
M  V30 1170 H 107.575 0.650943 2.02179 0
M  V30 1171 H 109.838 0.230387 0.919579 0
M  V30 1172 H 109.544 0.268727 3.50672 0
M  V30 1173 H 109.418 -1.4811 3.46905 0
M  V30 1174 H 111.805 -1.59374 2.48363 0
M  V30 1175 H 111.886 0.172489 2.55218 0
M  V30 1176 H 111.53 0.0684754 5.07854 0
M  V30 1177 H 111.46 -1.70899 4.98098 0
M  V30 1178 H 113.951 -0.837657 3.68499 0
M  V30 1179 H 114.264 -1.09765 7.64965 0
M  V30 1180 H 112.609 -0.994026 6.87855 0
M  V30 1181 H 115.8 -0.95527 4.58249 0
M  V30 1182 H 115.973 -1.07405 6.39037 0
M  V30 1183 N 109.379 -1.50304 -0.473955 0
M  V30 1184 C 110.289 -1.7174 -1.5982 0
M  V30 1185 C 111.305 -0.600457 -1.63311 0
M  V30 1186 O 112.481 -0.878441 -1.81233 0
M  V30 1187 C 109.546 -1.80427 -2.96052 0
M  V30 1188 C 108.607 -3.04148 -3.02972 0
M  V30 1189 C 107.84 -3.12411 -4.32706 0
M  V30 1190 O 108.063 -2.27542 -5.23049 0
M  V30 1191 O 106.997 -4.05113 -4.45159 0
M  V30 1192 H 110.823 -2.67035 -1.44657 0
M  V30 1193 H 108.408 -1.34366 -0.653148 0
M  V30 1194 H 110.29 -1.88338 -3.7697 0
M  V30 1195 H 108.965 -0.883156 -3.11419 0
M  V30 1196 H 107.872 -3.0174 -2.21142 0
M  V30 1197 H 109.205 -3.95829 -2.92541 0
M  V30 1198 N 110.857 0.726932 -1.39834 0
M  V30 1199 C 112.103 1.48884 -1.377 0
M  V30 1200 C 112.436 1.94185 0.0244852 0
M  V30 1201 O 111.711 1.67361 0.990986 0
M  V30 1202 C 111.994 2.72288 -2.3565 0
M  V30 1203 C 111.847 2.32956 -3.84775 0
M  V30 1204 C 113.166 3.74414 -2.31306 0
M  V30 1205 H 110.285 0.540062 -0.5015 0
M  V30 1206 H 112.927 0.830547 -1.70886 0
M  V30 1207 H 111.077 3.28457 -2.07481 0
M  V30 1208 H 112.749 1.82356 -4.23726 0
M  V30 1209 H 110.992 1.65088 -4.01159 0
M  V30 1210 H 111.663 3.21362 -4.4881 0
M  V30 1211 H 114.139 3.27849 -2.56231 0
M  V30 1212 H 113.015 4.58414 -3.01907 0
M  V30 1213 H 113.276 4.21909 -1.32081 0
M  V30 1214 N 112.336 1.25143 0.95797 0
M  V30 1215 C 113.286 1.01924 2.0395 0
M  V30 1216 C 114.27 -0.0427175 1.60843 0
M  V30 1217 O 115.462 0.17221 1.7616 0
M  V30 1218 C 112.591 0.636373 3.3735 0
M  V30 1219 C 111.677 1.73492 3.8699 0
M  V30 1220 N 112.068 2.96945 4.0946 0
M  V30 1221 C 110.366 1.61467 4.15746 0
M  V30 1222 C 111.067 3.68228 4.50315 0
M  V30 1223 N 110.043 2.95833 4.56053 0
M  V30 1224 H 113.845 1.95653 2.19311 0
M  V30 1225 H 111.359 1.15413 1.14253 0
M  V30 1226 H 113.356 0.451233 4.14451 0
M  V30 1227 H 112.016 -0.293621 3.2337 0
M  V30 1228 H 113.027 3.33025 3.96629 0
M  V30 1229 H 109.704 0.753394 4.10646 0
M  V30 1230 H 111.094 4.74178 4.76031 0
M  V30 1231 N 113.814 -1.1601 1.06675 0
M  V30 1232 C 115.06 -1.87145 0.796766 0
M  V30 1233 C 115.415 -1.8037 -0.669658 0
M  V30 1234 O 114.708 -1.21116 -1.48463 0
M  V30 1235 C 114.902 -3.35547 1.23057 0
M  V30 1236 C 114.731 -3.56769 2.73762 0
M  V30 1237 C 113.501 -3.72635 3.41279 0
M  V30 1238 C 115.699 -3.55166 3.7197 0
M  V30 1239 N 113.681 -3.81845 4.80695 0
M  V30 1240 C 115.052 -3.70406 4.97191 0
M  V30 1241 C 117.107 -3.384 3.65226 0
M  V30 1242 C 115.81 -3.70615 6.16471 0
M  V30 1243 C 117.836 -3.39904 4.83962 0
M  V30 1244 C 117.198 -3.55667 6.08013 0
M  V30 1245 H 113.297 -0.702267 0.344014 0
M  V30 1246 H 115.881 -1.39165 1.36166 0
M  V30 1247 H 114.052 -3.82159 0.693456 0
M  V30 1248 H 115.784 -3.94363 0.908844 0
M  V30 1249 H 112.539 -3.73121 2.91681 0
M  V30 1250 H 112.963 -3.90209 5.53232 0
M  V30 1251 H 117.605 -3.25138 2.70269 0
M  V30 1252 H 115.323 -3.82658 7.11757 0
M  V30 1253 H 118.909 -3.28169 4.80413 0
M  V30 1254 H 117.789 -3.56755 6.98352 0
M  V30 1255 N 115.292 -0.849877 -1.32721 0
M  V30 1256 C 116.539 -0.450923 -1.97416 0
M  V30 1257 C 116.867 0.992376 -1.67279 0
M  V30 1258 O 116.122 1.71048 -0.950845 0
M  V30 1259 C 116.421 -0.631272 -3.51781 0
M  V30 1260 C 116.087 -2.04432 -4.01894 0
M  V30 1261 C 114.749 -2.4308 -4.1529 0
M  V30 1262 C 117.101 -2.96679 -4.28522 0
M  V30 1263 C 114.429 -3.73257 -4.52654 0
M  V30 1264 C 116.781 -4.26349 -4.67343 0
M  V30 1265 C 115.445 -4.64939 -4.78945 0
M  V30 1266 H 114.715 -0.165004 -0.722395 0
M  V30 1267 H 117.362 -1.07901 -1.58207 0
M  V30 1268 H 115.667 0.0800767 -3.91718 0
M  V30 1269 H 117.364 -0.302709 -3.99856 0
M  V30 1270 H 113.954 -1.73419 -3.91949 0
M  V30 1271 H 118.138 -2.68054 -4.17685 0
M  V30 1272 H 113.394 -4.02946 -4.59831 0
M  V30 1273 H 117.568 -4.97895 -4.86902 0
M  V30 1274 H 115.195 -5.65855 -5.07654 0
M  V30 1275 N 116.77 1.45427 -0.607355 0
M  V30 1276 C 117.7 2.3329 0.0989352 0
M  V30 1277 C 118.681 1.46816 0.859007 0
M  V30 1278 O 119.866 1.75588 0.829604 0
M  V30 1279 C 116.996 3.29518 1.09705 0
M  V30 1280 C 115.95 4.25626 0.450206 0
M  V30 1281 C 115.276 5.11542 1.55655 0
M  V30 1282 C 116.576 5.18505 -0.628455 0
M  V30 1283 H 118.27 2.92595 -0.634716 0
M  V30 1284 H 115.816 1.40696 -0.306681 0
M  V30 1285 H 117.769 3.89855 1.59971 0
M  V30 1286 H 116.493 2.68372 1.86129 0
M  V30 1287 H 115.152 3.66586 -0.0315886 0
M  V30 1288 H 114.8 4.46765 2.31107 0
M  V30 1289 H 114.5 5.76647 1.12925 0
M  V30 1290 H 116.024 5.74748 2.06148 0
M  V30 1291 H 117.438 5.72916 -0.209877 0
M  V30 1292 H 115.835 5.92085 -0.977489 0
M  V30 1293 H 116.905 4.60948 -1.50514 0
M  V30 1294 N 118.248 0.346503 1.53744 0
M  V30 1295 C 119.181 -0.552023 2.21423 0
M  V30 1296 C 120.159 -1.09798 1.19929 0
M  V30 1297 O 121.343 -1.1577 1.4876 0
M  V30 1298 C 118.47 -1.75972 2.89398 0
M  V30 1299 C 117.516 -1.34295 4.04805 0
M  V30 1300 S 118.349 -0.360263 5.34287 0
M  V30 1301 C 119.505 -1.57473 6.05767 0
M  V30 1302 H 119.738 0.0228119 2.97291 0
M  V30 1303 H 117.271 0.130579 1.53847 0
M  V30 1304 H 119.229 -2.45256 3.2918 0
M  V30 1305 H 117.89 -2.30578 2.1329 0
M  V30 1306 H 117.083 -2.24349 4.51313 0
M  V30 1307 H 116.685 -0.729555 3.66815 0
M  V30 1308 H 118.977 -2.50875 6.29339 0
M  V30 1309 H 119.92 -1.15138 6.98676 0
M  V30 1310 H 120.328 -1.77212 5.35963 0
M  V30 1311 N 119.726 -1.57421 0.075193 0
M  V30 1312 C 121.142 -1.57099 -0.281444 0
M  V30 1313 C 121.342 -1.08486 -1.69803 0
M  V30 1314 O 120.398 -0.752279 -2.41033 0
M  V30 1315 C 121.711 -3.00571 -0.0880041 0
M  V30 1316 C 123.259 -3.12605 -0.157281 0
M  V30 1317 C 123.734 -4.57999 0.0079207 0
M  V30 1318 N 125.225 -4.63176 -0.0475725 0
M  V30 1319 C 125.96 -5.73373 0.0557876 0
M  V30 1320 N 125.456 -6.92473 0.21286 0
M  V30 1321 N 127.249 -5.621 -0.00152098 0
M  V30 1322 H 119.4 -1.87335 1.00098 0
M  V30 1323 H 121.663 -0.86377 0.390646 0
M  V30 1324 H 121.369 -3.40262 0.889629 0
M  V30 1325 H 121.243 -3.67754 -0.838875 0
M  V30 1326 H 123.63 -2.72798 -1.1254 0
M  V30 1327 H 123.711 -2.48053 0.62475 0
M  V30 1328 H 123.355 -4.98496 0.972824 0
M  V30 1329 H 123.285 -5.20586 -0.793556 0
M  V30 1330 H 125.776 -3.7753 -0.167244 0
M  V30 1331 H 126.089 -7.72279 0.283781 0
M  V30 1332 H 124.434 -6.94556 0.248267 0
M  V30 1333 H 127.625 -4.67938 -0.122958 0
M  V30 1334 H 127.798 -6.47948 0.0824844 0
M  V30 1335 N 121.204 0.198386 -1.56346 0
M  V30 1336 C 122.452 0.91747 -1.80075 0
M  V30 1337 C 122.773 1.83929 -0.647692 0
M  V30 1338 O 122.043 1.93029 0.334166 0
M  V30 1339 H 120.623 0.341774 -0.664228 0
M  V30 1340 H 123.285 0.204684 -1.93822 0
M  V30 1341 H 122.381 1.51055 -2.7311 0
M  V30 1342 N 122.682 1.50554 0.465978 0
M  V30 1343 C 123.592 1.72585 1.58907 0
M  V30 1344 C 124.608 0.60911 1.6299 0
M  V30 1345 O 125.784 0.88804 1.80765 0
M  V30 1346 C 122.849 1.81995 2.95091 0
M  V30 1347 C 121.91 3.05751 3.01355 0
M  V30 1348 C 121.143 3.14702 4.31043 0
M  V30 1349 O 121.366 2.30313 5.21835 0
M  V30 1350 O 120.3 4.07468 4.43005 0
M  V30 1351 H 124.126 2.67799 1.43239 0
M  V30 1352 H 121.711 1.34711 0.646013 0
M  V30 1353 H 123.593 1.90335 3.75966 0
M  V30 1354 H 122.268 0.899659 3.10947 0
M  V30 1355 H 121.175 3.02908 2.19539 0
M  V30 1356 H 122.508 3.97375 2.90437 0
M  V30 1357 N 124.16 -0.719506 1.40217 0
M  V30 1358 C 125.408 -1.47641 1.3801 0
M  V30 1359 C 125.729 -1.94992 -0.018145 0
M  V30 1360 O 124.999 -1.70073 -0.972207 0
M  V30 1361 H 123.579 -0.547744 0.507923 0
M  V30 1362 H 126.241 -0.853187 1.75233 0
M  V30 1363 H 125.337 -2.35112 2.05253 0
M  V30 1364 N 125.638 -1.25649 -0.95132 0
M  V30 1365 C 126.601 -1.06399 -2.03007 0
M  V30 1366 C 127.601 -0.0156794 -1.60792 0
M  V30 1367 O 128.791 -0.25817 -1.72276 0
M  V30 1368 C 125.923 -0.616184 -3.35285 0
M  V30 1369 H 127.116 -2.02164 -2.21517 0
M  V30 1370 H 124.669 -1.08103 -1.12887 0
M  V30 1371 H 125.404 0.343917 -3.22471 0
M  V30 1372 H 125.189 -1.37301 -3.67275 0
M  V30 1373 H 126.679 -0.503032 -4.14559 0
M  V30 1374 N 127.117 1.15442 -1.07289 0
M  V30 1375 C 128.528 1.67803 -0.818475 0
M  V30 1376 C 128.879 1.8489 0.656507 0
M  V30 1377 O 128.004 1.55176 1.50829 0
M  V30 1378 C 128.599 3.04805 -1.47917 0
M  V30 1379 C 127.158 3.54245 -1.27229 0
M  V30 1380 C 126.305 2.29986 -1.54925 0
M  V30 1381 H 129.256 0.996646 -1.23502 0
M  V30 1382 H 129.277 3.69702 -0.90005 0
M  V30 1383 H 128.789 2.92336 -2.55267 0
M  V30 1384 H 126.89 3.71956 -0.21899 0
M  V30 1385 H 127.003 4.35723 -1.99203 0
M  V30 1386 H 125.367 2.35496 -0.970242 0
M  V30 1387 H 126.15 2.20105 -2.63455 0
M  V30 1388 N 128.595 0.856903 1.32268 0
M  V30 1389 C 130.011 0.547061 1.49931 0
M  V30 1390 C 130.211 -0.921781 1.7918 0
M  V30 1391 O 129.267 -1.70469 1.8627 0
M  V30 1392 C 130.58 1.43599 2.64196 0
M  V30 1393 C 132.128 1.43665 2.78081 0
M  V30 1394 C 132.603 2.31085 3.95428 0
M  V30 1395 N 134.094 2.28893 4.02694 0
M  V30 1396 C 134.829 2.93262 4.92732 0
M  V30 1397 N 134.325 3.66751 5.87763 0
M  V30 1398 N 136.118 2.82638 4.85873 0
M  V30 1399 H 128.269 1.8075 1.11549 0
M  V30 1400 H 130.532 0.772144 0.549997 0
M  V30 1401 H 130.238 2.48058 2.49319 0
M  V30 1402 H 130.112 1.12502 3.60032 0
M  V30 1403 H 132.499 0.399701 2.92381 0
M  V30 1404 H 132.58 1.7878 1.82952 0
M  V30 1405 H 132.224 3.34849 3.81888 0
M  V30 1406 H 132.154 1.93302 4.89839 0
M  V30 1407 H 134.645 1.75466 3.34694 0
M  V30 1408 H 134.958 4.13027 6.53168 0
M  V30 1409 H 133.303 3.70859 5.87783 0
M  V30 1410 H 136.494 2.24774 4.10602 0
M  V30 1411 H 136.667 3.33084 5.55841 0
M  V30 1412 N 130.073 -1.45103 0.615059 0
M  V30 1413 C 131.003 -2.33339 -0.0865619 0
M  V30 1414 C 131.984 -1.4727 -0.851209 0
M  V30 1415 O 133.169 -1.76026 -0.820281 0
M  V30 1416 C 130.299 -3.30095 -1.07956 0
M  V30 1417 C 129.253 -4.25858 -0.427628 0
M  V30 1418 C 128.579 -5.12361 -1.5294 0
M  V30 1419 C 129.879 -5.18165 0.655944 0
M  V30 1420 H 131.573 -2.92254 0.650224 0
M  V30 1421 H 129.119 -1.40532 0.314138 0
M  V30 1422 H 131.072 -3.90698 -1.57901 0
M  V30 1423 H 129.796 -2.69355 -1.84703 0
M  V30 1424 H 128.455 -3.66564 0.0510292 0
M  V30 1425 H 128.103 -4.47984 -2.28734 0
M  V30 1426 H 127.803 -5.77238 -1.09865 0
M  V30 1427 H 129.327 -5.75833 -2.03098 0
M  V30 1428 H 130.741 -5.72796 0.240257 0
M  V30 1429 H 129.138 -5.91559 1.00888 0
M  V30 1430 H 130.208 -4.60144 1.52957 0
M  V30 1431 N 131.551 -0.354651 -1.53558 0
M  V30 1432 C 132.461 0.50515 -2.29097 0
M  V30 1433 C 133.477 1.10223 -1.34636 0
M  V30 1434 O 134.653 1.11553 -1.67684 0
M  V30 1435 C 131.718 1.63479 -3.05738 0
M  V30 1436 C 130.779 1.06636 -4.15845 0
M  V30 1437 C 130.012 2.14217 -4.88822 0
M  V30 1438 O 130.235 3.35137 -4.61562 0
M  V30 1439 O 129.169 1.77887 -5.75013 0
M  V30 1440 H 132.995 -0.109237 -3.03503 0
M  V30 1441 H 130.58 -0.119357 -1.48922 0
M  V30 1442 H 132.462 2.2918 -3.5363 0
M  V30 1443 H 131.137 2.23478 -2.34178 0
M  V30 1444 H 130.044 0.373565 -3.7223 0
M  V30 1445 H 131.377 0.511081 -4.89539 0
M  V30 1446 N 133.029 1.57378 -0.0835403 0
M  V30 1447 C 133.939 2.16897 0.894021 0
M  V30 1448 C 134.955 1.13528 1.31861 0
M  V30 1449 O 136.131 1.45848 1.3889 0
M  V30 1450 C 133.196 2.72831 2.13925 0
M  V30 1451 C 132.257 3.91115 1.76997 0
M  V30 1452 C 131.49 4.44371 2.95584 0
M  V30 1453 O 131.713 3.96596 4.09961 0
M  V30 1454 O 130.647 5.35549 2.74719 0
M  V30 1455 H 134.473 3.00814 0.417679 0
M  V30 1456 H 132.058 1.48741 0.140181 0
M  V30 1457 H 133.94 3.0863 2.86924 0
M  V30 1458 H 132.615 1.91967 2.60635 0
M  V30 1459 H 131.522 3.60148 1.01214 0
M  V30 1460 H 132.855 4.73307 1.3506 0
M  V30 1461 N 134.507 -0.190092 1.56449 0
M  V30 1462 C 135.755 -0.907908 1.80559 0
M  V30 1463 C 136.076 -1.83583 0.657438 0
M  V30 1464 O 135.346 -1.93203 -0.323924 0
M  V30 1465 H 133.926 -0.338247 0.666032 0
M  V30 1466 H 136.588 -0.194403 1.93928 0
M  V30 1467 H 135.684 -1.49604 2.73907 0
M  V30 1468 N 135.985 -1.50799 -0.457987 0
M  V30 1469 C 136.918 -1.65273 -1.57353 0
M  V30 1470 C 137.896 -0.500578 -1.54703 0
M  V30 1471 O 139.08 -0.721781 -1.74134 0
M  V30 1472 C 136.207 -1.64737 -2.95938 0
M  V30 1473 C 135.253 -2.8567 -3.16693 0
M  V30 1474 S 136.086 -4.46791 -2.95191 0
M  V30 1475 C 137.242 -4.48968 -4.36095 0
M  V30 1476 H 137.475 -2.59633 -1.44838 0
M  V30 1477 H 135.008 -1.40225 -0.64625 0
M  V30 1478 H 136.966 -1.65112 -3.7583 0
M  V30 1479 H 135.627 -0.715899 -3.05833 0
M  V30 1480 H 134.82 -2.81637 -4.17967 0
M  V30 1481 H 134.422 -2.8293 -2.44594 0
M  V30 1482 H 136.714 -4.23337 -5.28954 0
M  V30 1483 H 137.657 -5.50664 -4.45168 0
M  V30 1484 H 138.065 -3.78522 -4.18786 0
M  V30 1485 N 137.463 0.71206 -1.40597 0
M  V30 1486 C 138.691 1.50111 -1.42388 0
M  V30 1487 C 139.106 1.88784 -0.0245395 0
M  V30 1488 O 138.463 1.55681 0.952351 0
M  V30 1489 C 138.514 2.7742 -2.31776 0
M  V30 1490 O 138.235 2.40382 -3.66262 0
M  V30 1491 C 139.736 3.7129 -2.42196 0
M  V30 1492 H 136.956 0.46314 -0.485533 0
M  V30 1493 H 139.5 0.878068 -1.8469 0
M  V30 1494 H 137.655 3.36001 -1.92827 0
M  V30 1495 H 138.069 3.22324 -4.13772 0
M  V30 1496 H 139.543 4.57448 -3.08943 0
M  V30 1497 H 140.02 4.14641 -1.44809 0
M  V30 1498 H 140.626 3.18619 -2.81712 0
M  V30 1499 N 138.941 1.26152 0.944643 0
M  V30 1500 C 140.189 1.11271 1.6871 0
M  V30 1501 C 140.51 -0.345166 1.91921 0
M  V30 1502 O 139.78 -1.24387 1.51343 0
M  V30 1503 H 138.36 0.408783 0.625224 0
M  V30 1504 H 141.022 1.58427 1.1352 0
M  V30 1505 H 140.118 1.62879 2.66227 0
M  V30 1506 N 140.419 -1.14872 1.07899 0
M  V30 1507 C 141.382 -2.17986 0.708161 0
M  V30 1508 C 142.382 -1.58775 -0.25442 0
M  V30 1509 O 143.572 -1.74166 -0.034645 0
M  V30 1510 C 140.704 -3.40871 0.0446929 0
M  V30 1511 H 141.897 -2.52306 1.62116 0
M  V30 1512 H 139.45 -1.2943 0.876218 0
M  V30 1513 H 140.185 -3.12124 -0.880281 0
M  V30 1514 H 139.97 -3.8511 0.737091 0
M  V30 1515 H 141.46 -4.17121 -0.19991 0
M  V30 1516 N 141.898 -0.863906 -1.31812 0
M  V30 1517 C 143.146 -0.470904 -1.96537 0
M  V30 1518 C 143.467 0.978771 -1.68657 0
M  V30 1519 O 142.737 1.6853 -0.998717 0
M  V30 1520 H 141.317 -0.171148 -0.72713 0
M  V30 1521 H 143.979 -1.10236 -1.60729 0
M  V30 1522 H 143.075 -0.623616 -3.05806 0
M  V30 1523 N 143.376 1.44774 -0.622745 0
M  V30 1524 C 144.622 2.02968 -0.13257 0
M  V30 1525 C 144.977 1.48047 1.22881 0
M  V30 1526 O 144.27 0.651625 1.80179 0
M  V30 1527 C 144.464 3.57364 -0.0508323 0
M  V30 1528 C 144.293 4.27262 -1.40275 0
M  V30 1529 C 143.063 4.64577 -1.98737 0
M  V30 1530 C 145.261 4.58248 -2.3348 0
M  V30 1531 N 143.243 5.19404 -3.27251 0
M  V30 1532 C 144.614 5.14069 -3.46603 0
M  V30 1533 C 146.669 4.40195 -2.32664 0
M  V30 1534 C 145.372 5.53738 -4.59093 0
M  V30 1535 C 147.398 4.80907 -3.44213 0
M  V30 1536 C 146.76 5.36834 -4.56058 0
M  V30 1537 H 142.859 0.776541 -0.0922354 0
M  V30 1538 H 145.443 1.76385 -0.82441 0
M  V30 1539 H 143.614 3.83576 0.610265 0
M  V30 1540 H 145.346 4.02219 0.447397 0
M  V30 1541 H 142.101 4.48622 -1.51774 0
M  V30 1542 H 142.525 5.51301 -3.92933 0
M  V30 1543 H 147.167 3.96257 -1.47446 0
M  V30 1544 H 144.885 5.96635 -5.45025 0
M  V30 1545 H 148.471 4.68659 -3.44747 0
M  V30 1546 H 147.351 5.67755 -5.40947 0
M  V30 1547 N 144.854 0.36279 1.53368 0
M  V30 1548 C 146.101 -0.227776 2.01215 0
M  V30 1549 C 146.429 -1.49003 1.25014 0
M  V30 1550 O 145.684 -1.92876 0.331236 0
M  V30 1551 C 145.983 -0.568417 3.52851 0
M  V30 1552 C 145.649 0.59918 4.46901 0
M  V30 1553 C 144.311 0.919559 4.72332 0
M  V30 1554 C 146.663 1.38156 5.02556 0
M  V30 1555 C 143.991 2.02434 5.5067 0
M  V30 1556 C 146.343 2.47674 5.821 0
M  V30 1557 C 145.007 2.8025 6.05819 0
M  V30 1558 H 144.277 -0.083349 0.736297 0
M  V30 1559 H 146.924 0.494677 1.85001 0
M  V30 1560 H 145.229 -1.37185 3.66998 0
M  V30 1561 H 146.926 -1.03756 3.87344 0
M  V30 1562 H 143.516 0.339437 4.27254 0
M  V30 1563 H 147.7 1.14729 4.82857 0
M  V30 1564 H 142.956 2.28075 5.67267 0
M  V30 1565 H 147.13 3.08716 6.24234 0
M  V30 1566 H 144.757 3.65979 6.66306 0
M  V30 1567 N 146.332 -1.57332 0.0918853 0
M  V30 1568 C 147.557 -1.98995 -0.584442 0
M  V30 1569 C 147.982 -0.970528 -1.61128 0
M  V30 1570 O 147.34 0.0613904 -1.81196 0
M  V30 1571 C 147.388 -3.39636 -1.21161 0
M  V30 1572 O 146.492 -3.40447 -2.32744 0
M  V30 1573 H 145.833 -0.647165 -0.148572 0
M  V30 1574 H 148.363 -2.03873 0.172347 0
M  V30 1575 H 148.373 -3.7726 -1.55367 0
M  V30 1576 H 147.048 -4.13356 -0.459313 0
M  V30 1577 H 145.625 -3.14614 -2.0018 0
M  V30 1578 N 147.81 0.181792 -1.56548 0
M  V30 1579 C 149.221 0.745244 -1.71181 0
M  V30 1580 C 149.572 1.83262 -0.70068 0
M  V30 1581 O 148.697 2.15946 0.140154 0
M  V30 1582 C 149.292 1.35859 -3.10367 0
M  V30 1583 C 147.851 1.86898 -3.2672 0
M  V30 1584 C 146.998 0.743942 -2.67134 0
M  V30 1585 H 149.949 -0.0434661 -1.5864 0
M  V30 1586 H 149.97 2.22817 -3.08436 0
M  V30 1587 H 149.482 0.566948 -3.83937 0
M  V30 1588 H 147.583 2.68738 -2.5809 0
M  V30 1589 H 147.696 2.02162 -4.34359 0
M  V30 1590 H 146.06 1.16169 -2.26665 0
M  V30 1591 H 146.843 -0.035676 -3.43281 0
M  V30 1592 N 149.288 1.51039 0.449983 0
M  V30 1593 C 150.198 1.74261 1.57067 0
M  V30 1594 C 151.214 0.626363 1.62335 0
M  V30 1595 O 152.39 0.907162 1.79812 0
M  V30 1596 C 149.455 1.85114 2.93144 0
M  V30 1597 C 148.516 3.0893 2.98095 0
M  V30 1598 C 147.749 3.19256 4.27681 0
M  V30 1599 O 147.972 2.35835 5.19363 0
M  V30 1600 O 146.906 4.12144 4.38658 0
M  V30 1601 H 150.732 2.69303 1.40391 0
M  V30 1602 H 148.317 1.35389 0.631688 0
M  V30 1603 H 150.199 1.94311 3.73926 0
M  V30 1604 H 148.874 0.932588 3.09975 0
M  V30 1605 H 147.781 3.0522 2.16314 0
M  V30 1606 H 149.114 4.00433 2.86206 0
M  V30 1607 N 150.766 -0.704594 1.40972 0
M  V30 1608 C 151.676 -1.84856 1.44448 0
M  V30 1609 C 152.692 -1.70726 0.335961 0
M  V30 1610 O 153.868 -1.92799 0.582276 0
M  V30 1611 C 150.933 -3.20758 1.31587 0
M  V30 1612 C 149.994 -3.47063 2.52677 0
M  V30 1613 C 149.227 -4.76481 2.4042 0
M  V30 1614 O 149.45 -5.52341 1.42391 0
M  V30 1615 O 148.384 -5.03367 3.30007 0
M  V30 1616 H 152.21 -1.8488 2.40942 0
M  V30 1617 H 149.795 -0.85647 1.22413 0
M  V30 1618 H 151.677 -4.01913 1.26665 0
M  V30 1619 H 150.352 -3.21438 0.382049 0
M  V30 1620 H 149.259 -2.65873 2.63177 0
M  V30 1621 H 150.592 -3.5119 3.44858 0
M  V30 1622 N 152.244 -1.26651 -0.937939 0
M  V30 1623 C 153.207 -1.08546 -2.01867 0
M  V30 1624 C 154.207 -0.0327327 -1.60767 0
M  V30 1625 O 155.397 -0.276427 -1.71993 0
M  V30 1626 C 152.529 -0.651711 -3.34613 0
M  V30 1627 H 153.722 -2.04502 -2.1936 0
M  V30 1628 H 151.275 -1.09294 -1.11734 0
M  V30 1629 H 152.01 0.309696 -3.22818 0
M  V30 1630 H 151.795 -1.41189 -3.65798 0
M  V30 1631 H 153.285 -0.546973 -4.14002 0
M  V30 1632 N 153.722 1.14298 -1.08507 0
M  V30 1633 C 155.138 1.37347 -0.812901 0
M  V30 1634 C 155.338 1.93052 0.577325 0
M  V30 1635 O 154.394 2.14389 1.33393 0
M  V30 1636 C 155.707 2.33359 -1.89642 0
M  V30 1637 C 157.255 2.46996 -1.92255 0
M  V30 1638 C 157.73 3.46309 -2.99724 0
M  V30 1639 N 159.221 3.53853 -2.98902 0
M  V30 1640 C 159.956 4.3055 -3.787 0
M  V30 1641 N 159.452 5.10482 -4.6838 0
M  V30 1642 N 161.245 4.25757 -3.66998 0
M  V30 1643 H 153.396 0.764867 -1.9815 0
M  V30 1644 H 155.659 0.398966 -0.859959 0
M  V30 1645 H 155.365 1.99565 -2.89597 0
M  V30 1646 H 155.239 3.33274 -1.76659 0
M  V30 1647 H 157.626 2.80081 -0.929445 0
M  V30 1648 H 157.707 1.47039 -2.09316 0
M  V30 1649 H 157.351 3.13957 -3.99241 0
M  V30 1650 H 157.281 4.46049 -2.79907 0
M  V30 1651 H 159.772 2.96812 -2.33904 0
M  V30 1652 H 160.085 5.66284 -5.25873 0
M  V30 1653 H 158.43 5.09747 -4.72422 0
M  V30 1654 H 161.621 3.62383 -2.96304 0
M  V30 1655 H 161.794 4.85279 -4.29427 0
M  V30 1656 N 155.201 0.870884 1.31352 0
M  V30 1657 C 156.164 0.332243 2.26779 0
M  V30 1658 C 157.164 -0.517302 1.52252 0
M  V30 1659 O 158.354 -0.326477 1.71113 0
M  V30 1660 C 155.486 -0.528066 3.36785 0
M  V30 1661 H 156.679 1.17469 2.75937 0
M  V30 1662 H 154.232 0.64655 1.423 0
M  V30 1663 H 154.967 -1.39167 2.92922 0
M  V30 1664 H 154.752 0.0802582 3.92018 0
M  V30 1665 H 156.242 -0.897179 4.07849 0
M  V30 1666 N 156.679 -1.44442 0.630414 0
M  V30 1667 C 157.609 -2.33418 -0.0618083 0
M  V30 1668 C 158.59 -1.48165 -0.835541 0
M  V30 1669 O 159.775 -1.76886 -0.801564 0
M  V30 1670 C 156.905 -3.31222 -1.04449 0
M  V30 1671 C 155.859 -4.26288 -0.382436 0
M  V30 1672 C 155.185 -5.13954 -1.47497 0
M  V30 1673 C 156.485 -5.1744 0.710865 0
M  V30 1674 H 158.179 -2.91548 0.681184 0
M  V30 1675 H 155.725 -1.40191 0.329026 0
M  V30 1676 H 157.678 -3.92351 -1.53748 0
M  V30 1677 H 156.402 -2.71299 -1.81836 0
M  V30 1678 H 155.061 -3.6649 0.0899054 0
M  V30 1679 H 154.709 -4.50385 -2.2397 0
M  V30 1680 H 154.409 -5.7837 -1.03737 0
M  V30 1681 H 155.933 -5.77955 -1.96979 0
M  V30 1682 H 157.347 -5.72509 0.300996 0
M  V30 1683 H 155.744 -5.90455 1.07156 0
M  V30 1684 H 156.814 -4.58496 1.57829 0
M  V30 1685 N 158.157 -0.370918 -1.53173 0
M  V30 1686 C 159.087 0.464847 -2.28826 0
M  V30 1687 C 160.068 1.07936 -1.31468 0
M  V30 1688 O 161.253 1.0956 -1.60344 0
M  V30 1689 C 158.383 1.60196 -3.08147 0
M  V30 1690 C 157.337 1.11443 -4.13237 0
M  V30 1691 C 156.663 2.3422 -4.80672 0
M  V30 1692 C 157.963 0.195384 -5.21934 0
M  V30 1693 H 159.657 -0.166329 -2.98938 0
M  V30 1694 H 157.203 -0.0814359 -1.4377 0
M  V30 1695 H 159.156 2.19332 -3.59822 0
M  V30 1696 H 157.88 2.26045 -2.35735 0
M  V30 1697 H 156.539 0.545727 -3.62515 0
M  V30 1698 H 156.187 2.98537 -4.04827 0
M  V30 1699 H 155.887 2.02269 -5.51689 0
M  V30 1700 H 157.411 2.94032 -5.35143 0
M  V30 1701 H 158.825 0.694375 -5.69079 0
M  V30 1702 H 157.222 -0.0335027 -6.00091 0
M  V30 1703 H 158.292 -0.760961 -4.78892 0
M  V30 1704 N 159.635 1.57281 -0.100228 0
M  V30 1705 C 160.598 2.13158 0.842398 0
M  V30 1706 C 161.598 1.06202 1.20738 0
M  V30 1707 O 162.788 1.32066 1.13597 0
M  V30 1708 C 159.92 2.65639 2.13655 0
M  V30 1709 H 161.113 2.97766 0.357114 0
M  V30 1710 H 158.666 1.5559 0.148823 0
M  V30 1711 H 159.401 1.84566 2.66657 0
M  V30 1712 H 159.186 3.43844 1.88451 0
M  V30 1713 H 160.676 3.08846 2.81077 0
M  V30 1714 N 161.113 -0.173488 1.56642 0
M  V30 1715 C 162.36 -0.890465 1.81871 0
M  V30 1716 C 162.688 -1.82339 0.67696 0
M  V30 1717 O 161.943 -1.92795 -0.335926 0
M  V30 1718 C 162.242 -1.72069 3.13252 0
M  V30 1719 C 161.908 -0.936878 4.41059 0
M  V30 1720 C 160.57 -0.720545 4.75775 0
M  V30 1721 C 162.922 -0.386919 5.19762 0
M  V30 1722 C 160.25 0.0568829 5.86672 0
M  V30 1723 C 162.602 0.37741 6.31473 0
M  V30 1724 C 161.266 0.604563 6.64757 0
M  V30 1725 H 160.536 -0.325844 0.665512 0
M  V30 1726 H 163.183 -0.155527 1.90867 0
M  V30 1727 H 161.488 -2.52496 2.99588 0
M  V30 1728 H 163.185 -2.27844 3.29982 0
M  V30 1729 H 159.775 -1.11553 4.13828 0
M  V30 1730 H 163.959 -0.541398 4.93338 0
M  V30 1731 H 159.215 0.242635 6.10918 0
M  V30 1732 H 163.389 0.810825 6.91664 0
M  V30 1733 H 161.016 1.20885 7.50527 0
M  V30 1734 N 162.591 -1.51276 -0.441967 0
M  V30 1735 C 164.002 -1.56244 -1.02199 0
M  V30 1736 C 164.353 -0.383149 -1.92422 0
M  V30 1737 O 163.478 0.500613 -2.1053 0
M  V30 1738 C 164.073 -2.83162 -1.86024 0
M  V30 1739 C 162.632 -2.90716 -2.39084 0
M  V30 1740 C 161.779 -2.50858 -1.18175 0
M  V30 1741 H 164.73 -1.5712 -0.223416 0
M  V30 1742 H 164.751 -2.66663 -2.71425 0
M  V30 1743 H 164.263 -3.68974 -1.20331 0
M  V30 1744 H 162.364 -2.09323 -3.08244 0
M  V30 1745 H 162.477 -3.94266 -2.72198 0
M  V30 1746 H 160.841 -2.03951 -1.52565 0
M  V30 1747 H 161.624 -3.3901 -0.541001 0
M  V30 1748 N 164.069 0.697108 -1.41344 0
M  V30 1749 C 164.979 1.84088 -1.45427 0
M  V30 1750 C 165.995 1.70545 -0.34501 0
M  V30 1751 O 167.171 1.92488 -0.592492 0
M  V30 1752 C 164.236 3.20056 -1.33286 0
M  V30 1753 C 163.297 3.45718 -2.54514 0
M  V30 1754 C 162.53 4.75199 -2.42944 0
M  V30 1755 O 162.753 5.51579 -1.45318 0
M  V30 1756 O 161.687 5.0161 -3.32672 0
M  V30 1757 H 165.513 1.836 -2.41919 0
M  V30 1758 H 163.098 0.849966 -1.22866 0
M  V30 1759 H 164.98 4.01236 -1.28794 0
M  V30 1760 H 163.655 3.2123 -0.39909 0
M  V30 1761 H 162.562 2.64474 -2.64583 0
M  V30 1762 H 163.895 3.49356 -3.46715 0
M  V30 1763 N 165.547 1.27147 0.931209 0
M  V30 1764 C 166.824 1.0401 1.65654 0
M  V30 1765 C 167.204 -0.426297 2.06751 0
M  V30 1766 O 166.552 -1.40879 1.79904 0
M  V30 1767 C 166.762 1.99834 2.86125 0
M  V30 1768 C 168.11 2.29007 3.57549 0
M  V30 1769 O 169.134 1.97779 2.96246 0
M  V30 1770 O 167.993 2.82222 4.67989 0
M  V30 1771 H 165.087 0.396239 0.725895 0
M  V30 1772 H 167.633 1.38397 0.982056 0
M  V30 1773 H 166.405 2.98744 2.52721 0
M  V30 1774 H 166.028 1.65987 3.61295 0
M  V30 1775 N 167.025 -1.13721 1.09112 0
M  V30 1776 C 167.955 -2.21148 0.749385 0
M  V30 1777 C 168.936 -1.6792 -0.271475 0
M  V30 1778 O 170.121 -1.93693 -0.140251 0
M  V30 1779 C 167.251 -3.46905 0.165659 0
M  V30 1780 C 166.205 -4.13203 1.11567 0
M  V30 1781 C 165.531 -5.33248 0.393809 0
M  V30 1782 C 166.831 -4.60912 2.45678 0
M  V30 1783 H 168.525 -2.4999 1.64758 0
M  V30 1784 H 166.071 -1.20156 0.793626 0
M  V30 1785 H 168.024 -4.21313 -0.085466 0
M  V30 1786 H 166.748 -3.17449 -0.767714 0
M  V30 1787 H 165.407 -3.40758 1.35202 0
M  V30 1788 H 165.055 -5.00054 -0.543599 0
M  V30 1789 H 164.755 -5.78552 1.02721 0
M  V30 1790 H 166.279 -6.10413 0.150908 0
M  V30 1791 H 167.693 -5.26759 2.26269 0
M  V30 1792 H 166.09 -5.16944 3.04776 0
M  V30 1793 H 167.16 -3.75603 3.06677 0
M  V30 1794 N 168.503 -0.877838 -1.30888 0
M  V30 1795 C 169.751 -0.491723 -1.96027 0
M  V30 1796 C 170.072 0.960827 -1.69685 0
M  V30 1797 O 169.342 1.67462 -1.01654 0
M  V30 1798 H 167.922 -0.17885 -0.725273 0
M  V30 1799 H 170.584 -1.11935 -1.59551 0
M  V30 1800 H 169.68 -0.656016 -3.05128 0
M  V30 1801 N 169.982 1.44106 -0.638065 0
M  V30 1802 C 170.912 2.33448 0.0494287 0
M  V30 1803 C 171.893 1.48606 0.827672 0
M  V30 1804 O 173.078 1.77308 0.792173 0
M  V30 1805 C 170.208 3.31771 1.02691 0
M  V30 1806 C 169.162 4.26485 0.359823 0
M  V30 1807 C 168.488 5.14729 1.44769 0
M  V30 1808 C 169.788 5.17056 -0.738296 0
M  V30 1809 H 171.482 2.91183 -0.696636 0
M  V30 1810 H 169.028 1.40014 -0.336456 0
M  V30 1811 H 170.981 3.93161 1.51666 0
M  V30 1812 H 169.705 2.7226 1.80395 0
M  V30 1813 H 168.364 3.66437 -0.10934 0
M  V30 1814 H 168.012 4.51566 2.21578 0
M  V30 1815 H 167.712 5.78913 1.00668 0
M  V30 1816 H 169.236 5.78991 1.93911 0
M  V30 1817 H 170.65 5.72342 -0.331354 0
M  V30 1818 H 169.047 5.89879 -1.10286 0
M  V30 1819 H 170.117 4.57652 -1.60258 0
M  V30 1820 N 171.46 0.379036 1.52974 0
M  V30 1821 C 172.39 -0.452706 2.29069 0
M  V30 1822 C 173.371 -1.07237 1.32039 0
M  V30 1823 O 174.556 -1.08708 1.60923 0
M  V30 1824 C 171.686 -1.5856 3.08992 0
M  V30 1825 C 170.64 -1.0925 4.13822 0
M  V30 1826 C 169.966 -2.31668 4.81907 0
M  V30 1827 C 171.266 -0.167702 5.22031 0
M  V30 1828 H 172.96 0.182181 2.98845 0
M  V30 1829 H 170.506 0.0890592 1.43724 0
M  V30 1830 H 172.459 -2.1742 3.6098 0
M  V30 1831 H 171.183 -2.24792 2.36931 0
M  V30 1832 H 169.842 -0.526494 3.628 0
M  V30 1833 H 169.49 -2.96386 4.06404 0
M  V30 1834 H 169.19 -1.9934 5.52754 0
M  V30 1835 H 170.714 -2.91189 5.36695 0
M  V30 1836 H 172.128 -0.664186 5.6944 0
M  V30 1837 H 170.525 0.0653265 6.00064 0
M  V30 1838 H 171.595 0.786347 4.78482 0
M  V30 1839 N 172.938 -1.57226 0.108567 0
M  V30 1840 C 173.848 -2.18292 -0.859401 0
M  V30 1841 C 174.864 -1.15612 -1.30038 0
M  V30 1842 O 176.04 -1.48039 -1.36552 0
M  V30 1843 C 173.105 -2.762 -2.09558 0
M  V30 1844 C 172.166 -3.93881 -1.70752 0
M  V30 1845 C 171.399 -4.49018 -2.88477 0
M  V30 1846 O 171.622 -4.03068 -4.036 0
M  V30 1847 O 170.556 -5.39852 -2.66164 0
M  V30 1848 H 174.382 -3.01441 -0.369769 0
M  V30 1849 H 171.967 -1.48945 -0.1165 0
M  V30 1850 H 173.849 -3.13156 -2.81978 0
M  V30 1851 H 172.524 -1.96089 -2.57548 0
M  V30 1852 H 171.431 -3.61713 -0.954714 0
M  V30 1853 H 172.764 -4.75396 -1.27513 0
M  V30 1854 N 174.416 0.165178 -1.56732 0
M  V30 1855 C 175.662 0.882112 -1.82611 0
M  V30 1856 C 175.995 1.81628 -0.687378 0
M  V30 1857 O 175.27 1.92009 0.310267 0
M  V30 1858 C 175.553 1.67245 -3.18906 0
M  V30 1859 C 175.406 0.760987 -4.43316 0
M  V30 1860 C 176.725 2.63884 -3.52212 0
M  V30 1861 H 173.844 0.319242 -0.664269 0
M  V30 1862 H 176.486 0.148052 -1.89422 0
M  V30 1863 H 174.636 2.29824 -3.1323 0
M  V30 1864 H 176.308 0.147596 -4.61064 0
M  V30 1865 H 174.551 0.0694102 -4.33744 0
M  V30 1866 H 175.222 1.34962 -5.35247 0
M  V30 1867 H 177.698 2.11429 -3.58381 0
M  V30 1868 H 176.574 3.16245 -4.48643 0
M  V30 1869 H 176.835 3.44377 -2.77231 0
M  V30 1870 N 175.894 1.51508 0.433938 0
M  V30 1871 C 176.857 1.72473 1.50949 0
M  V30 1872 C 177.857 0.594725 1.49398 0
M  V30 1873 O 179.047 0.862315 1.5136 0
M  V30 1874 C 176.179 1.78431 2.90474 0
M  V30 1875 H 177.372 2.68467 1.33662 0
M  V30 1876 H 174.925 1.41549 0.662836 0
M  V30 1877 H 175.66 0.842645 3.13161 0
M  V30 1878 H 175.445 2.60558 2.93005 0
M  V30 1879 H 176.935 1.96479 3.68491 0
M  V30 1880 N 177.372 -0.689602 1.41712 0
M  V30 1881 C 178.302 -1.81577 1.46806 0
M  V30 1882 C 179.283 -1.66945 0.326105 0
M  V30 1883 O 180.468 -1.86588 0.538377 0
M  V30 1884 C 177.598 -3.19762 1.35535 0
M  V30 1885 C 176.552 -3.49107 2.47605 0
M  V30 1886 C 175.878 -4.86711 2.21397 0
M  V30 1887 C 177.178 -3.47483 3.89939 0
M  V30 1888 H 178.872 -1.7757 2.41058 0
M  V30 1889 H 176.418 -0.852887 1.16025 0
M  V30 1890 H 178.371 -3.98263 1.3771 0
M  V30 1891 H 177.095 -3.24409 0.377708 0
M  V30 1892 H 175.754 -2.72959 2.44722 0
M  V30 1893 H 175.402 -4.8799 1.21961 0
M  V30 1894 H 175.102 -5.0731 2.96497 0
M  V30 1895 H 176.626 -5.67515 2.25297 0
M  V30 1896 H 178.04 -4.1598 3.94505 0
M  V30 1897 H 176.437 -3.79615 4.64771 0
M  V30 1898 H 177.507 -2.46341 4.17665 0
M  V30 1899 N 178.85 -1.27639 -0.924453 0
M  V30 1900 C 179.76 -1.12466 -2.05885 0
M  V30 1901 C 180.776 -0.053869 -1.73917 0
M  V30 1902 O 181.952 -0.261012 -1.99702 0
M  V30 1903 C 179.017 -0.776768 -3.37886 0
M  V30 1904 C 178.078 -1.92878 -3.83532 0
M  V30 1905 C 177.311 -1.59739 -5.09234 0
M  V30 1906 O 177.534 -0.506782 -5.68144 0
M  V30 1907 O 176.468 -2.43761 -5.50331 0
M  V30 1908 H 180.294 -2.07671 -2.21599 0
M  V30 1909 H 177.879 -1.06857 -1.04413 0
M  V30 1910 H 179.761 -0.596229 -4.17161 0
M  V30 1911 H 178.436 0.145732 -3.23372 0
M  V30 1912 H 177.343 -2.1644 -3.0513 0
M  V30 1913 H 178.676 -2.8316 -4.02593 0
M  V30 1914 N 180.328 1.1314 -1.09713 0
M  V30 1915 C 181.744 1.36477 -0.827423 0
M  V30 1916 C 181.944 1.93654 0.556817 0
M  V30 1917 O 181 2.15791 1.31112 0
M  V30 1918 C 182.313 2.31334 -1.92106 0
M  V30 1919 C 183.861 2.44943 -1.94864 0
M  V30 1920 C 184.336 3.4311 -3.0338 0
M  V30 1921 N 185.827 3.50662 -3.02639 0
M  V30 1922 C 186.562 4.2651 -3.83246 0
M  V30 1923 N 186.058 5.05485 -4.73768 0
M  V30 1924 N 187.851 4.2184 -3.71493 0
M  V30 1925 H 180.002 0.743807 -1.9895 0
M  V30 1926 H 182.265 0.389823 -0.864143 0
M  V30 1927 H 181.971 1.96483 -2.91698 0
M  V30 1928 H 181.845 3.31381 -1.80184 0
M  V30 1929 H 184.232 2.79079 -0.959099 0
M  V30 1930 H 184.313 1.4481 -2.10864 0
M  V30 1931 H 183.957 3.09704 -4.02549 0
M  V30 1932 H 183.887 4.43055 -2.84622 0
M  V30 1933 H 186.378 2.94315 -2.37039 0
M  V30 1934 H 186.691 5.60675 -5.3185 0
M  V30 1935 H 185.036 5.04708 -4.77802 0
M  V30 1936 H 188.227 3.5922 -3.00131 0
M  V30 1937 H 188.4 4.80697 -4.3455 0
M  V30 1938 N 181.806 0.884767 1.30421 0
M  V30 1939 C 182.736 0.367574 2.30589 0
M  V30 1940 C 183.717 -0.549464 1.60981 0
M  V30 1941 O 184.902 -0.46336 1.88591 0
M  V30 1942 C 182.032 -0.418944 3.44764 0
M  V30 1943 C 180.986 0.406316 4.26067 0
M  V30 1944 C 180.312 -0.506793 5.32293 0
M  V30 1945 C 181.612 1.64832 4.95608 0
M  V30 1946 H 183.306 1.20462 2.74097 0
M  V30 1947 H 180.852 0.580695 1.31772 0
M  V30 1948 H 182.805 -0.791395 4.13902 0
M  V30 1949 H 181.529 -1.28964 3.0006 0
M  V30 1950 H 180.188 0.760903 3.58617 0
M  V30 1951 H 179.836 -1.37519 4.83836 0
M  V30 1952 H 179.536 0.0415828 5.87585 0
M  V30 1953 H 181.06 -0.875764 6.04287 0
M  V30 1954 H 182.474 1.34646 5.57264 0
M  V30 1955 H 180.871 2.13688 5.60765 0
M  V30 1956 H 181.941 2.39284 4.21748 0
M  V30 1957 N 183.284 -1.43765 0.645699 0
M  V30 1958 C 184.695 -1.85193 0.236719 0
M  V30 1959 C 185.046 -1.54045 -1.21509 0
M  V30 1960 O 184.171 -0.985694 -1.92647 0
M  V30 1961 C 184.766 -3.36151 0.422845 0
M  V30 1962 C 183.325 -3.76338 0.0682492 0
M  V30 1963 C 182.472 -2.67538 0.729306 0
M  V30 1964 H 185.423 -1.34025 0.849883 0
M  V30 1965 H 185.444 -3.79032 -0.333904 0
M  V30 1966 H 184.956 -3.5879 1.47958 0
M  V30 1967 H 183.057 -3.59312 -0.986179 0
M  V30 1968 H 183.17 -4.76603 0.488469 0
M  V30 1969 H 181.534 -2.54176 0.163235 0
M  V30 1970 H 182.317 -2.93006 1.78892 0
M  V30 1971 N 184.763 -0.387143 -1.52771 0
M  V30 1972 C 185.693 0.440551 -2.29306 0
M  V30 1973 C 186.674 1.06535 -1.32606 0
M  V30 1974 O 187.859 1.07853 -1.61497 0
M  V30 1975 C 184.989 1.56919 -3.09829 0
M  V30 1976 C 183.943 1.07054 -4.14395 0
M  V30 1977 C 183.269 2.29109 -4.83129 0
M  V30 1978 C 184.569 0.140015 -5.22112 0
M  V30 1979 H 186.263 -0.198026 -2.98744 0
M  V30 1980 H 183.809 -0.09668 -1.43675 0
M  V30 1981 H 185.762 2.15503 -3.62128 0
M  V30 1982 H 184.486 2.23532 -2.3812 0
M  V30 1983 H 183.145 0.507247 -3.63074 0
M  V30 1984 H 182.793 2.94227 -4.0797 0
M  V30 1985 H 182.493 1.96406 -5.53804 0
M  V30 1986 H 184.017 2.88339 -5.38231 0
M  V30 1987 H 185.431 0.633978 -5.69784 0
M  V30 1988 H 183.828 -0.0971485 -6.00021 0
M  V30 1989 H 184.898 -0.811711 -4.78058 0
M  V30 1990 O 186.28 1.59438 -0.257276 0
M  V30 1991 H 186.971 1.91101 0.316273 0
M  V30 END ATOM
M  V30 BEGIN BOND
M  V30 END BOND
M  V30 END CTAB
M  END
$$$$
