drugbank_target|Q75WK2 Aminotransferase (DB02024; DB02238)
 OpenBabel12092120243D

  0  0  0     0  0            999 V3000
M  V30 BEGIN CTAB
M  V30 COUNTS 5994 6065 0 0 0
M  V30 BEGIN ATOM
M  V30 1 H -0.908 1.98254 -0.117106 0
M  V30 2 N 0 1.576 0 0
M  V30 3 C 0.933 2.03868 1.02534 0
M  V30 4 C 1.911 0.928543 1.3348 0
M  V30 5 O 3.095 1.19667 1.45644 0
M  V30 6 C 0.222 2.43627 2.35294 0
M  V30 7 C -0.732 3.65373 2.2001 0
M  V30 8 S 0.101 5.13292 1.52614 0
M  V30 9 C 1.257 5.56322 2.86805 0
M  V30 10 H 1.49 2.90518 0.631377 0
M  V30 11 H -0.977 1.52953 0.210867 0
M  V30 12 H 0.981 2.67203 3.11629 0
M  V30 13 H -0.358 1.57376 2.7183 0
M  V30 14 H -1.165 3.90944 3.18086 0
M  V30 15 H -1.563 3.418 1.51819 0
M  V30 16 H 0.729 5.58782 3.83104 0
M  V30 17 H 1.672 6.56266 2.65933 0
M  V30 18 H 2.08 4.83886 2.90714 0
M  V30 19 N 1.4781 -0.272755 1.55222 0
M  V30 20 C 2.8941 -0.619959 1.47067 0
M  V30 21 C 3.0941 -1.895 0.684978 0
M  V30 22 O 2.1501 -2.51675 0.203931 0
M  V30 23 C 3.4631 -0.746693 2.91282 0
M  V30 24 C 5.0111 -0.840731 3.01497 0
M  V30 25 C 5.4861 -0.99924 4.46967 0
M  V30 26 N 6.9771 -1.06476 4.50796 0
M  V30 27 C 7.7121 -1.20621 5.6057 0
M  V30 28 N 7.2081 -1.31483 6.80209 0
M  V30 29 N 9.0011 -1.23733 5.48312 0
M  V30 30 H 1.1521 0.564606 2.04758 0
M  V30 31 H 3.4151 0.191177 0.928523 0
M  V30 32 H 3.1211 0.119753 3.51496 0
M  V30 33 H 2.9951 -1.6269 3.40311 0
M  V30 34 H 5.3821 -1.69764 2.41379 0
M  V30 35 H 5.4631 0.0640874 2.5572 0
M  V30 36 H 5.1071 -0.146984 5.07687 0
M  V30 37 H 5.0371 -1.91871 4.90401 0
M  V30 38 H 7.5281 -0.993196 3.64615 0
M  V30 39 H 7.8411 -1.42111 7.59621 0
M  V30 40 H 6.1861 -1.28487 6.8302 0
M  V30 41 H 9.3771 -1.14877 4.53785 0
M  V30 42 H 9.5501 -1.34412 6.33906 0
M  V30 43 N 2.9562 -1.48159 -0.537278 0
M  V30 44 C 3.8862 -1.65029 -1.6519 0
M  V30 45 C 4.8672 -0.499281 -1.62607 0
M  V30 46 O 6.0522 -0.730972 -1.79918 0
M  V30 47 C 3.1822 -1.68303 -3.03795 0
M  V30 48 C 2.1362 -2.8283 -3.21234 0
M  V30 49 C 1.4622 -2.71189 -4.60826 0
M  V30 50 C 2.7622 -4.24211 -3.04701 0
M  V30 51 H 4.4562 -2.58341 -1.51328 0
M  V30 52 H 2.0022 -1.24325 -0.726585 0
M  V30 53 H 3.9552 -1.78693 -3.81637 0
M  V30 54 H 2.6792 -0.715635 -3.18663 0
M  V30 55 H 1.3382 -2.71983 -2.45807 0
M  V30 56 H 0.9862 -1.72435 -4.7252 0
M  V30 57 H 0.6862 -3.48035 -4.7344 0
M  V30 58 H 2.2102 -2.83537 -5.40777 0
M  V30 59 H 3.6242 -4.3593 -3.72341 0
M  V30 60 H 2.0212 -5.01998 -3.28813 0
M  V30 61 H 3.0912 -4.41184 -2.01209 0
M  V30 62 N 4.4343 0.785586 -1.36625 0
M  V30 63 C 5.3843 1.88822 -1.27789 0
M  V30 64 C 6.3683 1.60014 -0.168579 0
M  V30 65 O 7.5603 1.72381 -0.401737 0
M  V30 66 C 4.6893 3.26092 -1.07327 0
M  V30 67 C 3.7753 3.60897 -2.22743 0
M  V30 68 N 4.1663 3.66982 -3.48077 0
M  V30 69 C 2.4643 3.90981 -2.14593 0
M  V30 70 C 3.1653 3.98137 -4.24101 0
M  V30 71 N 2.1413 4.13319 -3.53084 0
M  V30 72 H 5.9433 1.91759 -2.22723 0
M  V30 73 H 3.4573 0.981311 -1.29399 0
M  V30 74 H 5.4543 4.04954 -0.990842 0
M  V30 75 H 4.1143 3.24428 -0.132977 0
M  V30 76 H 5.1253 3.49531 -3.82163 0
M  V30 77 H 1.8023 3.9722 -1.2854 0
M  V30 78 H 3.1923 4.09737 -5.32509 0
M  V30 79 N 5.9124 1.20967 1.01018 0
M  V30 80 C 7.3234 1.02319 1.56165 0
M  V30 81 C 7.6744 -0.418546 1.91684 0
M  V30 82 O 6.7994 -1.30096 1.72928 0
M  V30 83 C 7.3944 1.85109 2.8376 0
M  V30 84 C 5.9534 1.70809 3.35412 0
M  V30 85 C 5.1004 1.82643 2.08655 0
M  V30 86 H 8.0514 1.35065 0.833255 0
M  V30 87 H 8.0724 1.35827 3.55431 0
M  V30 88 H 7.5844 2.90035 2.57878 0
M  V30 89 H 5.6854 0.685464 3.66241 0
M  V30 90 H 5.7984 2.52467 4.07182 0
M  V30 91 H 4.1624 1.25896 2.21409 0
M  V30 92 H 4.9454 2.89066 1.85191 0
M  V30 93 N 7.3905 -1.2043 1.01659 0
M  V30 94 C 8.8065 -1.41852 0.731442 0
M  V30 95 C 9.0065 -1.89358 -0.688898 0
M  V30 96 O 8.0625 -2.06247 -1.45666 0
M  V30 97 C 9.3755 -2.44019 1.75714 0
M  V30 98 C 10.9235 -2.57785 1.77527 0
M  V30 99 C 11.3985 -3.63194 2.79023 0
M  V30 100 N 12.8895 -3.70678 2.77763 0
M  V30 101 C 13.6245 -4.51897 3.52954 0
M  V30 102 N 13.1205 -5.36921 4.37821 0
M  V30 103 N 14.9135 -4.4643 3.41551 0
M  V30 104 H 7.0645 -0.879093 1.93354 0
M  V30 105 H 9.3275 -0.448425 0.835236 0
M  V30 106 H 9.0335 -2.1611 2.77469 0
M  V30 107 H 8.9075 -3.43007 1.56927 0
M  V30 108 H 11.2945 -2.85023 0.764569 0
M  V30 109 H 11.3755 -1.58992 2.00387 0
M  V30 110 H 11.0195 -3.36699 3.80258 0
M  V30 111 H 10.9495 -4.61609 2.53425 0
M  V30 112 H 13.4405 -3.09944 2.16201 0
M  V30 113 H 13.7535 -5.95981 4.91962 0
M  V30 114 H 12.0985 -5.36424 4.41899 0
M  V30 115 H 15.2895 -3.79042 2.74672 0
M  V30 116 H 15.4625 -5.09491 4.00404 0
M  V30 117 N 8.8686 -0.792821 -1.36206 0
M  V30 118 C 10.0966 -0.378825 -2.03402 0
M  V30 119 C 10.5116 1.00586 -1.59774 0
M  V30 120 O 9.8686 1.64574 -0.788764 0
M  V30 121 C 9.9196 -0.43683 -3.58851 0
M  V30 122 O 9.6406 -1.76691 -4.00889 0
M  V30 123 C 11.1416 -0.0138943 -4.43298 0
M  V30 124 H 8.3616 -0.155673 -0.652692 0
M  V30 125 H 10.9056 -1.07261 -1.74113 0
M  V30 126 H 9.0606 0.208575 -3.86838 0
M  V30 127 H 9.4746 -1.72011 -4.95492 0
M  V30 128 H 10.9486 -0.105615 -5.51899 0
M  V30 129 H 11.4256 1.03915 -4.2673 0
M  V30 130 H 12.0316 -0.63192 -4.20579 0
M  V30 131 N 10.3467 1.47872 -0.545128 0
M  V30 132 C 11.2567 2.33633 0.212746 0
M  V30 133 C 12.2727 1.4744 0.923983 0
M  V30 134 O 13.4487 1.80393 0.895572 0
M  V30 135 C 10.5137 3.23884 1.23693 0
M  V30 136 C 9.5747 4.25961 0.534417 0
M  V30 137 C 8.8077 5.11899 1.5098 0
M  V30 138 O 9.0307 5.00077 2.7437 0
M  V30 139 O 7.9647 5.92831 1.0409 0
M  V30 140 H 11.7907 2.99714 -0.490416 0
M  V30 141 H 9.3757 1.46235 -0.305871 0
M  V30 142 H 11.2577 3.79666 1.82843 0
M  V30 143 H 9.9327 2.60446 1.92222 0
M  V30 144 H 8.8397 3.73972 -0.0979679 0
M  V30 145 H 10.1727 4.92079 -0.109213 0
M  V30 146 N 11.8248 0.280983 1.55075 0
M  V30 147 C 12.7878 -0.590896 2.21452 0
M  V30 148 C 13.7878 -1.07682 1.19421 0
M  V30 149 O 14.9778 -0.97605 1.44288 0
M  V30 150 C 12.1098 -1.81587 2.88511 0
M  V30 151 H 13.3028 -0.0112554 2.99898 0
M  V30 152 H 10.8558 0.0316438 1.56268 0
M  V30 153 H 11.5908 -2.43587 2.14093 0
M  V30 154 H 11.3758 -1.4753 3.63287 0
M  V30 155 H 12.8658 -2.43575 3.39206 0
M  V30 156 N 13.3029 -1.57598 0.00835791 0
M  V30 157 C 14.2659 -2.07884 -0.965242 0
M  V30 158 C 15.2659 -0.989825 -1.26725 0
M  V30 159 O 16.4559 -1.25218 -1.21104 0
M  V30 160 C 13.5879 -2.52731 -2.28779 0
M  V30 161 H 14.7809 -2.95178 -0.530112 0
M  V30 162 H 12.3339 -1.54458 -0.239283 0
M  V30 163 H 13.0689 -1.68705 -2.76964 0
M  V30 164 H 12.8539 -3.32272 -2.08177 0
M  V30 165 H 14.3439 -2.91933 -2.98605 0
M  V30 166 N 14.781 0.264519 -1.55364 0
M  V30 167 C 15.728 1.32717 -1.88825 0
M  V30 168 C 16.698 1.48675 -0.740605 0
M  V30 169 O 17.883 1.62945 -0.992657 0
M  V30 170 C 15.023 2.68089 -2.17307 0
M  V30 171 C 14.136 2.60284 -3.44785 0
M  V30 172 C 13.271 3.87892 -3.62924 0
M  V30 173 C 12.31 3.74631 -4.84064 0
M  V30 174 N 11.447 4.94092 -4.98816 0
M  V30 175 H 16.287 1.03481 -2.79456 0
M  V30 176 H 13.824 0.499757 -1.3835 0
M  V30 177 H 15.782 3.46864 -2.31821 0
M  V30 178 H 14.412 2.95509 -1.299 0
M  V30 179 H 13.464 1.73173 -3.38697 0
M  V30 180 H 14.776 2.46388 -4.33698 0
M  V30 181 H 13.93 4.75109 -3.77302 0
M  V30 182 H 12.669 4.04664 -2.7221 0
M  V30 183 H 11.674 2.85797 -4.69681 0
M  V30 184 H 12.899 3.5937 -5.76221 0
M  V30 185 H 10.845 5.11259 -4.11036 0
M  V30 186 H 10.762 4.8276 -5.81789 0
M  V30 187 H 12.03 5.82857 -5.17588 0
M  V30 188 N 16.2591 1.48442 0.529413 0
M  V30 189 C 17.1691 1.6569 1.66084 0
M  V30 190 C 18.1851 0.539432 1.65427 0
M  V30 191 O 19.3611 0.810572 1.84368 0
M  V30 192 C 16.4261 1.69315 3.02545 0
M  V30 193 C 15.4871 2.92694 3.14052 0
M  V30 194 C 14.7201 2.96137 4.44003 0
M  V30 195 O 14.9431 2.07973 5.31134 0
M  V30 196 O 13.8771 3.88312 4.59888 0
M  V30 197 H 17.7031 2.61483 1.54469 0
M  V30 198 H 15.2881 1.3185 0.702567 0
M  V30 199 H 17.1701 1.74217 3.83701 0
M  V30 200 H 15.8451 0.766966 3.14483 0
M  V30 201 H 14.7521 2.93324 2.32189 0
M  V30 202 H 16.0851 3.84699 3.0703 0
M  V30 203 N 17.7372 -0.778329 1.37039 0
M  V30 204 C 18.9622 -1.57248 1.35233 0
M  V30 205 C 19.3872 -1.87999 -0.0615568 0
M  V30 206 O 18.7452 -1.48734 -1.03672 0
M  V30 207 C 18.7932 -2.86353 2.19167 0
M  V30 208 O 17.8972 -3.80442 1.59178 0
M  V30 209 H 17.2382 -0.476569 0.462362 0
M  V30 210 H 19.7682 -0.963853 1.80474 0
M  V30 211 H 19.7782 -3.35519 2.32145 0
M  V30 212 H 18.4532 -2.63299 3.21942 0
M  V30 213 H 17.0302 -3.39067 1.55203 0
M  V30 214 N 19.2153 -1.21501 -1.00376 0
M  V30 215 C 20.4643 -1.02718 -1.73586 0
M  V30 216 C 20.7773 0.439589 -1.90596 0
M  V30 217 O 21.9833 0.746848 -2.61026 0
M  V30 218 C 20.4393 -1.78929 -3.1227 0
M  V30 219 C 20.0473 -3.29783 -3.03228 0
M  V30 220 C 21.7913 -1.68557 -3.89601 0
M  V30 221 C 19.6983 -3.98479 -4.36999 0
M  V30 222 H 18.6283 -0.380733 -0.650814 0
M  V30 223 H 21.2793 -1.45248 -1.1214 0
M  V30 224 H 19.6613 -1.29192 -3.74333 0
M  V30 225 H 20.8353 -3.86832 -2.50395 0
M  V30 226 H 19.1503 -3.40711 -2.39385 0
M  V30 227 H 21.7473 -2.17211 -4.88593 0
M  V30 228 H 22.0903 -0.644021 -4.11288 0
M  V30 229 H 22.6233 -2.15778 -3.34193 0
M  V30 230 H 19.3623 -5.02841 -4.20513 0
M  V30 231 H 18.8823 -3.46219 -4.89788 0
M  V30 232 H 20.5613 -4.03462 -5.05794 0
M  V30 233 N 20.6934 1.19889 -1.02296 0
M  V30 234 C 21.9404 1.8942 -0.715972 0
M  V30 235 C 22.2684 1.79251 0.754944 0
M  V30 236 O 21.5234 1.17526 1.56481 0
M  V30 237 C 21.8224 3.39883 -1.10518 0
M  V30 238 C 21.4884 3.70254 -2.57337 0
M  V30 239 C 20.1504 3.78254 -2.97452 0
M  V30 240 C 22.5024 3.84052 -3.52354 0
M  V30 241 C 19.8304 3.97514 -4.31509 0
M  V30 242 C 22.1824 4.04824 -4.86108 0
M  V30 243 C 20.8464 4.11054 -5.25919 0
M  V30 244 H 20.1164 0.693138 -0.261993 0
M  V30 245 H 22.7634 1.42012 -1.28472 0
M  V30 246 H 21.0684 3.8915 -0.454953 0
M  V30 247 H 22.7654 3.9199 -0.845261 0
M  V30 248 H 19.3554 3.64632 -2.25258 0
M  V30 249 H 23.5394 3.77221 -3.22518 0
M  V30 250 H 18.7954 4.00574 -4.61898 0
M  V30 251 H 22.9694 4.14442 -5.59653 0
M  V30 252 H 20.5964 4.2573 -6.29808 0
M  V30 253 N 22.1715 0.800033 1.35784 0
M  V30 254 C 23.5825 0.439142 1.81462 0
M  V30 255 C 23.9335 -1.03813 1.66485 0
M  V30 256 O 23.0585 -1.80626 1.19177 0
M  V30 257 C 23.6535 0.790314 3.29453 0
M  V30 258 C 22.2125 0.482111 3.733 0
M  V30 259 C 21.3595 1.01938 2.57883 0
M  V30 260 H 24.3105 0.992254 1.23855 0
M  V30 261 H 24.3315 0.0853677 3.80404 0
M  V30 262 H 23.8435 1.86554 3.40322 0
M  V30 263 H 21.9445 -0.584652 3.67984 0
M  V30 264 H 22.0575 1.01015 4.6833 0
M  V30 265 H 20.4215 0.442043 2.50835 0
M  V30 266 H 21.2045 2.10059 2.71533 0
M  V30 267 N 23.6496 -1.47581 0.552962 0
M  V30 268 C 25.0656 -1.5818 0.212424 0
M  V30 269 C 25.2656 -1.55213 -1.28496 0
M  V30 270 O 24.3216 -1.45329 -2.06484 0
M  V30 271 C 25.6346 -2.88865 0.835318 0
M  V30 272 C 27.1826 -3.0244 0.806156 0
M  V30 273 C 27.6576 -4.35819 1.40804 0
M  V30 274 N 29.1486 -4.42444 1.37103 0
M  V30 275 C 29.8836 -5.44202 1.80641 0
M  V30 276 N 29.3796 -6.52795 2.32015 0
M  V30 277 N 31.1726 -5.35222 1.71738 0
M  V30 278 H 23.3236 -1.47753 1.52587 0
M  V30 279 H 25.5866 -0.702941 0.636064 0
M  V30 280 H 25.2926 -2.9676 1.88749 0
M  V30 281 H 25.1666 -3.7579 0.325848 0
M  V30 282 H 27.5536 -2.94144 -0.237317 0
M  V30 283 H 27.6346 -2.17068 1.35334 0
M  V30 284 H 27.2786 -4.44871 2.45056 0
M  V30 285 H 27.2086 -5.19916 0.836338 0
M  V30 286 H 29.6996 -3.6456 0.995202 0
M  V30 287 H 30.0126 -7.26609 2.63171 0
M  V30 288 H 28.3576 -6.53696 2.36023 0
M  V30 289 H 31.5486 -4.49284 1.31382 0
M  V30 290 H 31.7216 -6.14389 2.05987 0
M  V30 291 N 25.1277 -0.289203 -1.54924 0
M  V30 292 C 26.0607 0.633823 -2.19221 0
M  V30 293 C 27.0387 1.14174 -1.15772 0
M  V30 294 O 28.2227 1.21211 -1.44361 0
M  V30 295 C 25.3497 1.86592 -2.82668 0
M  V30 296 C 24.3957 1.49227 -3.99542 0
M  V30 297 S 25.2287 0.558312 -5.32582 0
M  V30 298 C 26.3847 1.79847 -5.99505 0
M  V30 299 H 26.6177 0.0875416 -2.97171 0
M  V30 300 H 24.1507 -0.0733899 -1.54225 0
M  V30 301 H 26.1087 2.57305 -3.19851 0
M  V30 302 H 24.7697 2.38335 -2.04585 0
M  V30 303 H 23.9627 2.40945 -4.42676 0
M  V30 304 H 23.5647 0.865193 -3.63855 0
M  V30 305 H 25.8567 2.7406 -6.19595 0
M  V30 306 H 26.7997 1.4099 -6.93922 0
M  V30 307 H 27.2077 1.96982 -5.29016 0
M  V30 308 N 26.6058 1.57591 -0.0167156 0
M  V30 309 C 27.8308 1.9598 0.67872 0
M  V30 310 C 28.2558 0.892546 1.65575 0
M  V30 311 O 27.6138 -0.147772 1.80697 0
M  V30 312 C 27.6618 3.33468 1.37227 0
M  V30 313 O 26.7658 3.28954 2.48722 0
M  V30 314 H 26.1068 0.639339 0.17928 0
M  V30 315 H 28.6368 2.04463 -0.0748802 0
M  V30 316 H 28.6468 3.69417 1.7319 0
M  V30 317 H 27.3218 4.10694 0.656007 0
M  V30 318 H 25.8988 3.04705 2.14963 0
M  V30 319 N 28.0839 -0.256276 1.55502 0
M  V30 320 C 29.3319 -0.983672 1.76545 0
M  V30 321 C 29.6529 -1.86206 0.578982 0
M  V30 322 O 28.9229 -1.91656 -0.405577 0
M  V30 323 H 27.5029 -0.366191 0.651086 0
M  V30 324 H 30.1649 -0.276479 1.92929 0
M  V30 325 H 29.2609 -1.61087 2.67315 0
M  V30 326 N 29.562 -1.4872 -0.521534 0
M  V30 327 C 30.492 -1.66771 -1.63431 0
M  V30 328 C 31.473 -0.516499 -1.62069 0
M  V30 329 O 32.658 -0.750013 -1.79132 0
M  V30 330 C 29.788 -1.71515 -3.01993 0
M  V30 331 C 28.742 -2.86222 -3.18216 0
M  V30 332 C 28.068 -2.76061 -4.57924 0
M  V30 333 C 29.368 -4.27419 -3.00184 0
M  V30 334 H 31.062 -2.59932 -1.48579 0
M  V30 335 H 28.608 -1.25089 -0.713358 0
M  V30 336 H 30.561 -1.82731 -3.7972 0
M  V30 337 H 29.285 -0.749393 -3.17886 0
M  V30 338 H 27.944 -2.74575 -2.42908 0
M  V30 339 H 27.592 -1.77437 -4.70665 0
M  V30 340 H 27.292 -3.53037 -4.69722 0
M  V30 341 H 28.816 -2.89256 -5.37739 0
M  V30 342 H 30.23 -4.39855 -3.67697 0
M  V30 343 H 28.627 -5.05458 -3.2347 0
M  V30 344 H 29.697 -4.43293 -1.96518 0
M  V30 345 N 31.0401 0.771051 -1.3745 0
M  V30 346 C 32.0031 1.86598 -1.33093 0
M  V30 347 C 33.0031 1.59076 -0.234845 0
M  V30 348 O 34.1931 1.67145 -0.490732 0
M  V30 349 C 31.3251 3.23747 -1.06773 0
M  V30 350 H 32.5181 1.91873 -2.30488 0
M  V30 351 H 30.0711 0.970876 -1.2249 0
M  V30 352 H 30.8061 3.24148 -0.099129 0
M  V30 353 H 30.5911 3.45115 -1.86112 0
M  V30 354 H 32.0811 4.03824 -1.06377 0
M  V30 355 N 32.5182 1.22032 0.997298 0
M  V30 356 C 33.4502 0.944263 2.08845 0
M  V30 357 C 34.4632 -0.0754663 1.62625 0
M  V30 358 O 35.6522 0.157994 1.77799 0
M  V30 359 C 32.7522 0.397723 3.36558 0
M  V30 360 C 31.9252 1.47362 4.11829 0
M  V30 361 C 30.9842 0.934951 5.17827 0
M  V30 362 O 30.0102 1.62016 5.45655 0
M  V30 363 N 31.2122 -0.245895 5.79979 0
M  V30 364 H 33.9772 1.88363 2.33109 0
M  V30 365 H 31.5382 1.12661 1.16272 0
M  V30 366 H 33.5302 0.0227771 4.04694 0
M  V30 367 H 32.1002 -0.446646 3.09393 0
M  V30 368 H 31.3202 2.02208 3.38386 0
M  V30 369 H 32.6082 2.19764 4.58891 0
M  V30 370 H 32.0062 -0.819475 5.59733 0
M  V30 371 H 30.5632 -0.562272 6.4937 0
M  V30 372 N 33.9963 -1.19345 1.0293 0
M  V30 373 C 35.4123 -1.41069 0.746446 0
M  V30 374 C 35.6123 -1.90078 -0.668776 0
M  V30 375 O 34.6683 -2.0778 -1.4347 0
M  V30 376 C 35.9813 -2.42141 1.78292 0
M  V30 377 C 37.5293 -2.55887 1.80252 0
M  V30 378 C 38.0043 -3.60214 2.8286 0
M  V30 379 N 39.4953 -3.67711 2.81679 0
M  V30 380 C 40.2303 -4.48128 3.57727 0
M  V30 381 N 39.7263 -5.32248 4.43491 0
M  V30 382 N 41.5193 -4.42782 3.46267 0
M  V30 383 H 33.6703 -0.858536 1.94275 0
M  V30 384 H 35.9333 -0.439541 0.839945 0
M  V30 385 H 35.6393 -2.13155 2.79746 0
M  V30 386 H 35.5133 -3.41323 1.60557 0
M  V30 387 H 37.9003 -2.84196 0.794757 0
M  V30 388 H 37.9813 -1.56858 2.02062 0
M  V30 389 H 37.6253 -3.32647 3.83807 0
M  V30 390 H 37.5553 -4.58895 2.58307 0
M  V30 391 H 40.0463 -3.07634 2.19476 0
M  V30 392 H 40.3593 -5.90729 4.98256 0
M  V30 393 H 38.7043 -5.31707 4.47564 0
M  V30 394 H 41.8953 -3.76107 2.78677 0
M  V30 395 H 42.0683 -5.05215 4.05785 0
M  V30 396 N 35.4744 -0.807222 -1.35358 0
M  V30 397 C 36.4044 -0.232509 -2.3234 0
M  V30 398 C 37.3854 0.642386 -1.57504 0
M  V30 399 O 38.5704 0.572526 -1.85569 0
M  V30 400 C 35.7004 0.619238 -3.41735 0
M  V30 401 C 34.6544 -0.157215 -4.27711 0
M  V30 402 C 33.9804 0.816273 -5.28433 0
M  V30 403 C 35.2804 -1.35656 -5.04376 0
M  V30 404 H 36.9744 -1.04276 -2.80654 0
M  V30 405 H 34.5204 -0.50288 -1.34934 0
M  V30 406 H 36.4734 1.03137 -4.08584 0
M  V30 407 H 35.1974 1.46239 -2.92031 0
M  V30 408 H 33.8564 -0.550525 -3.62443 0
M  V30 409 H 33.5044 1.65494 -4.74996 0
M  V30 410 H 33.2044 0.301067 -5.86828 0
M  V30 411 H 34.7284 1.22659 -5.98153 0
M  V30 412 H 36.1424 -1.01927 -5.64166 0
M  V30 413 H 34.5394 -1.8063 -5.7227 0
M  V30 414 H 35.6094 -2.14288 -4.34981 0
M  V30 415 N 36.9525 1.47285 -0.560781 0
M  V30 416 C 38.2005 2.02064 -0.0379868 0
M  V30 417 C 38.5215 1.43711 1.31803 0
M  V30 418 O 37.7915 0.61362 1.86042 0
M  V30 419 H 36.3715 0.746918 -0.0110531 0
M  V30 420 H 39.0335 1.80648 -0.731598 0
M  V30 421 H 38.1295 3.12064 0.0474463 0
M  V30 422 N 38.4306 0.297415 1.54768 0
M  V30 423 C 39.3936 -0.567375 2.22066 0
M  V30 424 C 40.3936 -1.06409 1.20556 0
M  V30 425 O 41.5836 -0.960691 1.45315 0
M  V30 426 C 38.7156 -1.78517 2.90421 0
M  V30 427 H 39.9086 0.0205534 2.99893 0
M  V30 428 H 37.4616 0.0482163 1.56226 0
M  V30 429 H 38.1966 -2.41303 2.16664 0
M  V30 430 H 37.9816 -1.43669 3.64831 0
M  V30 431 H 39.4716 -2.39964 3.41771 0
M  V30 432 N 39.9087 -1.5758 0.0250728 0
M  V30 433 C 41.1547 -1.91917 -0.655413 0
M  V30 434 C 41.4877 -0.901433 -1.72011 0
M  V30 435 O 40.7627 0.0764069 -1.9435 0
M  V30 436 C 41.0457 -3.36751 -1.27558 0
M  V30 437 C 40.8987 -4.49258 -0.220719 0
M  V30 438 C 42.2177 -3.81469 -2.19475 0
M  V30 439 H 39.3367 -0.697925 -0.23679 0
M  V30 440 H 41.9787 -1.89825 0.0815036 0
M  V30 441 H 40.1287 -3.38664 -1.90365 0
M  V30 442 H 41.8007 -4.59478 0.409601 0
M  V30 443 H 40.0437 -4.31415 0.454264 0
M  V30 444 H 40.7147 -5.47618 -0.694175 0
M  V30 445 H 43.1907 -3.81266 -1.66659 0
M  V30 446 H 42.0667 -4.83512 -2.59822 0
M  V30 447 H 42.3277 -3.16744 -3.08424 0
M  V30 448 N 41.3868 0.248026 -1.55636 0
M  V30 449 C 42.3348 1.32683 -1.91045 0
M  V30 450 C 43.3288 1.49883 -0.789401 0
M  V30 451 O 44.5348 1.51371 -0.974007 0
M  V30 452 H 40.9098 0.444272 -0.606734 0
M  V30 453 H 42.8808 1.00085 -2.81115 0
M  V30 454 C 41.6298 2.6755 -2.22064 0
M  V30 455 H 40.9528 2.55114 -3.07826 0
M  V30 456 H 42.3928 3.41912 -2.50743 0
M  V30 457 C 40.8518 3.20556 -1.0366 0
M  V30 458 O 41.3818 4.00695 -0.284016 0
M  V30 459 N 39.5878 2.78568 -0.82753 0
M  V30 460 H 39.1348 2.1351 -1.44123 0
M  V30 461 H 39.0928 3.14378 -0.0369803 0
M  V30 462 N 42.8649 1.48995 0.513639 0
M  V30 463 C 43.7949 1.67636 1.62544 0
M  V30 464 C 44.7759 0.525087 1.61793 0
M  V30 465 O 45.9609 0.759502 1.78732 0
M  V30 466 C 43.0909 1.73114 3.01079 0
M  V30 467 C 42.0449 2.87905 3.16693 0
M  V30 468 C 41.3709 2.78486 4.56453 0
M  V30 469 C 42.6709 4.29005 2.97913 0
M  V30 470 H 44.3649 2.60716 1.47198 0
M  V30 471 H 41.9109 1.25465 0.706714 0
M  V30 472 H 43.8639 1.84742 3.78746 0
M  V30 473 H 42.5879 0.766241 3.17484 0
M  V30 474 H 41.2469 2.75859 2.41448 0
M  V30 475 H 40.8949 1.7993 4.69717 0
M  V30 476 H 40.5949 3.55523 4.67843 0
M  V30 477 H 42.1189 2.92104 5.36197 0
M  V30 478 H 43.5329 4.41798 3.65359 0
M  V30 479 H 41.9299 5.07166 3.20785 0
M  V30 480 H 42.9999 4.44329 1.94165 0
M  V30 481 N 44.343 -0.763751 1.37857 0
M  V30 482 C 45.591 -1.51957 1.33243 0
M  V30 483 C 45.912 -1.94835 -0.0801709 0
M  V30 484 O 45.182 -1.66894 -1.02582 0
M  V30 485 H 43.762 -0.563626 0.49024 0
M  V30 486 H 46.424 -0.908504 1.7243 0
M  V30 487 H 45.52 -2.41523 1.97669 0
M  V30 488 N 45.8211 -1.22559 -0.990812 0
M  V30 489 C 46.7531 -0.955325 -2.08342 0
M  V30 490 C 47.7661 0.0668408 -1.62663 0
M  V30 491 O 48.9551 -0.167421 -1.77713 0
M  V30 492 C 46.0551 -0.415566 -3.36342 0
M  V30 493 C 45.2281 -1.49544 -4.11042 0
M  V30 494 C 44.2871 -0.962399 -5.17324 0
M  V30 495 O 43.3131 -1.64907 -5.44788 0
M  V30 496 N 44.5151 0.215134 -5.80101 0
M  V30 497 H 47.2801 -1.89596 -2.32106 0
M  V30 498 H 44.8411 -1.13276 -1.15673 0
M  V30 499 H 46.8331 -0.0442386 -4.04676 0
M  V30 500 H 45.4031 0.430232 -3.09625 0
M  V30 501 H 44.6231 -2.04 -3.37309 0
M  V30 502 H 45.9111 -2.22195 -4.57719 0
M  V30 503 H 45.3091 0.789779 -5.6016 0
M  V30 504 H 43.8661 0.527826 -6.49659 0
M  V30 505 N 47.2992 1.18797 -1.03562 0
M  V30 506 C 48.5472 1.88278 -0.734569 0
M  V30 507 C 48.8682 1.8043 0.739586 0
M  V30 508 O 48.1382 1.21925 1.53333 0
M  V30 509 H 46.7182 0.696991 -0.268725 0
M  V30 510 H 49.3802 1.44192 -1.31129 0
M  V30 511 H 48.4762 2.94443 -1.03489 0
M  V30 512 N 48.7773 0.814389 1.34928 0
M  V30 513 C 50.0243 0.398423 1.98542 0
M  V30 514 C 50.3523 -1.03638 1.64589 0
M  V30 515 O 49.6073 -1.73509 0.90516 0
M  V30 516 C 49.9063 0.537781 3.53331 0
M  V30 517 C 49.5723 1.93704 4.07172 0
M  V30 518 C 48.2343 2.31984 4.21589 0
M  V30 519 C 50.5863 2.85213 4.36237 0
M  V30 520 C 47.9143 3.61125 4.62391 0
M  V30 521 C 50.2663 4.13809 4.78482 0
M  V30 522 C 48.9303 4.52077 4.91104 0
M  V30 523 H 48.2003 0.145793 0.726516 0
M  V30 524 H 50.8473 1.03669 1.61012 0
M  V30 525 H 49.1523 -0.183906 3.91368 0
M  V30 526 H 50.8493 0.196588 4.00518 0
M  V30 527 H 47.4393 1.62966 3.96409 0
M  V30 528 H 51.6233 2.56885 4.24645 0
M  V30 529 H 46.8793 3.90612 4.70353 0
M  V30 530 H 51.0533 4.84811 4.99932 0
M  V30 531 H 48.6803 5.52196 5.22478 0
M  V30 532 N 50.2554 -1.46986 0.568584 0
M  V30 533 C 51.6664 -1.86188 0.138219 0
M  V30 534 C 52.0174 -1.47388 -1.29504 0
M  V30 535 O 51.1424 -0.88219 -1.97602 0
M  V30 536 C 51.7374 -3.3792 0.244065 0
M  V30 537 C 50.2964 -3.76171 -0.131335 0
M  V30 538 C 49.4434 -2.71027 0.586465 0
M  V30 539 H 52.3944 -1.38342 0.777645 0
M  V30 540 H 52.4154 -3.76729 -0.534351 0
M  V30 541 H 51.9274 -3.66128 1.28731 0
M  V30 542 H 50.0284 -3.5358 -1.17526 0
M  V30 543 H 50.1414 -4.78523 0.235146 0
M  V30 544 H 48.5054 -2.54684 0.0282722 0
M  V30 545 H 49.2884 -3.02077 1.63109 0
M  V30 546 N 51.7335 -0.305618 -1.54608 0
M  V30 547 C 52.9585 0.307562 -2.05107 0
M  V30 548 C 53.3835 1.46385 -1.18123 0
M  V30 549 O 52.7415 1.8034 -0.186324 0
M  V30 550 C 52.7895 0.73704 -3.52987 0
M  V30 551 O 51.8935 1.84134 -3.6901 0
M  V30 552 H 51.2345 0.0589143 -0.661381 0
M  V30 553 H 53.7645 -0.448807 -1.99617 0
M  V30 554 H 53.7745 1.02459 -3.94925 0
M  V30 555 H 52.4495 -0.108773 -4.15758 0
M  V30 556 H 51.0265 1.55398 -3.38978 0
M  V30 557 N 53.2116 1.57565 -0.0334293 0
M  V30 558 C 54.1596 2.1164 0.96496 0
M  V30 559 C 55.1536 1.04398 1.33407 0
M  V30 560 O 56.3596 1.22828 1.3158 0
M  V30 561 H 52.7346 0.676222 0.32898 0
M  V30 562 H 54.7056 2.94455 0.483614 0
M  V30 563 C 53.4546 2.66207 2.23672 0
M  V30 564 H 52.7776 3.48378 1.96145 0
M  V30 565 H 54.2176 3.07685 2.9173 0
M  V30 566 C 52.6766 1.59151 2.96939 0
M  V30 567 O 53.2066 0.993858 3.89211 0
M  V30 568 N 51.4126 1.31093 2.59351 0
M  V30 569 H 50.9596 1.7988 1.84393 0
M  V30 570 H 50.9176 0.596889 3.08682 0
M  V30 571 N 54.6897 -0.239769 1.55765 0
M  V30 572 C 56.1007 -0.808263 1.68297 0
M  V30 573 C 56.4517 -1.85736 0.632181 0
M  V30 574 O 55.5767 -2.15277 -0.220204 0
M  V30 575 C 56.1717 -1.47284 3.05111 0
M  V30 576 C 54.7307 -1.98895 3.19559 0
M  V30 577 C 53.8777 -0.842575 2.64189 0
M  V30 578 H 56.8287 -0.0154422 1.58692 0
M  V30 579 H 56.8497 -2.34111 2.99954 0
M  V30 580 H 56.3617 -0.709053 3.81568 0
M  V30 581 H 54.4627 -2.78132 2.47938 0
M  V30 582 H 54.5757 -2.18143 4.26556 0
M  V30 583 H 52.9397 -1.24501 2.22197 0
M  V30 584 H 53.7227 -0.0917552 3.43177 0
M  V30 585 N 56.1678 -1.49265 -0.50573 0
M  V30 586 C 57.5788 -1.51769 -1.08734 0
M  V30 587 C 57.9298 -0.301192 -1.93874 0
M  V30 588 O 57.0548 0.589456 -2.08217 0
M  V30 589 C 57.6498 -2.75017 -1.97867 0
M  V30 590 C 56.2088 -2.80314 -2.51199 0
M  V30 591 C 55.3558 -2.4562 -1.28709 0
M  V30 592 H 58.3068 -1.56031 -0.289855 0
M  V30 593 H 58.3278 -2.5491 -2.82491 0
M  V30 594 H 57.8398 -3.63539 -1.35873 0
M  V30 595 H 55.9408 -1.96061 -3.16845 0
M  V30 596 H 56.0538 -3.82366 -2.88675 0
M  V30 597 H 54.4178 -1.97297 -1.61078 0
M  V30 598 H 55.2008 -3.36411 -0.6843 0
M  V30 599 N 57.6459 0.756429 -1.3826 0
M  V30 600 C 59.0569 1.33359 -1.30661 0
M  V30 601 C 59.4079 1.96161 0.0388875 0
M  V30 602 O 58.5329 1.94874 0.940918 0
M  V30 603 C 59.1279 2.42477 -2.36622 0
M  V30 604 C 57.6869 2.95922 -2.3261 0
M  V30 605 C 56.8339 1.69275 -2.19639 0
M  V30 606 H 59.7849 0.55552 -1.4866 0
M  V30 607 H 59.8059 3.22345 -2.02174 0
M  V30 608 H 59.3179 1.96739 -3.34538 0
M  V30 609 H 57.4189 3.45996 -1.38267 0
M  V30 610 H 57.5319 3.50494 -3.26636 0
M  V30 611 H 55.8959 1.92793 -1.66442 0
M  V30 612 H 56.6789 1.25619 -3.19491 0
M  V30 613 N 59.124 1.23083 0.984299 0
M  V30 614 C 60.535 1.05609 1.5396 0
M  V30 615 C 60.886 -0.377793 1.92528 0
M  V30 616 O 60.011 -1.26398 1.75649 0
M  V30 617 C 60.606 1.91087 2.7977 0
M  V30 618 C 59.165 1.77885 3.31713 0
M  V30 619 C 58.312 1.87028 2.04733 0
M  V30 620 H 61.263 1.36802 0.804419 0
M  V30 621 H 61.284 1.43336 3.5247 0
M  V30 622 H 60.796 2.9544 2.51668 0
M  V30 623 H 58.897 0.762995 3.64704 0
M  V30 624 H 59.01 2.61047 4.01735 0
M  V30 625 H 57.374 1.30565 2.18689 0
M  V30 626 H 58.157 2.92929 1.79017 0
M  V30 627 N 60.6021 -1.18246 1.0419 0
M  V30 628 C 61.8491 -1.88257 0.746017 0
M  V30 629 C 62.1771 -1.80429 -0.726331 0
M  V30 630 O 61.4321 -1.2 -1.54591 0
M  V30 631 C 61.7311 -3.38082 1.15911 0
M  V30 632 C 61.3971 -3.66114 2.63195 0
M  V30 633 C 60.0591 -3.73474 3.03432 0
M  V30 634 C 62.4111 -3.78398 3.5842 0
M  V30 635 C 59.7391 -3.90599 4.37778 0
M  V30 636 C 62.0911 -3.97039 4.92487 0
M  V30 637 C 60.7551 -4.02635 5.32392 0
M  V30 638 H 60.0251 -0.688883 0.272987 0
M  V30 639 H 62.6721 -1.3995 1.30715 0
M  V30 640 H 60.9771 -3.88377 0.516806 0
M  V30 641 H 62.6741 -3.90596 0.907516 0
M  V30 642 H 59.2641 -3.61003 2.3103 0
M  V30 643 H 63.4481 -3.72042 3.28479 0
M  V30 644 H 58.7041 -3.93175 4.68213 0
M  V30 645 H 62.8781 -4.05486 5.66175 0
M  V30 646 H 60.5051 -4.15657 6.36501 0
M  V30 647 N 62.0802 -0.821533 -1.34494 0
M  V30 648 C 63.0102 -0.257138 -2.3208 0
M  V30 649 C 63.9912 0.625645 -1.58176 0
M  V30 650 O 65.1762 0.552811 -1.86166 0
M  V30 651 C 62.3062 0.582958 -3.42372 0
M  V30 652 C 61.2602 -0.202571 -4.2752 0
M  V30 653 C 60.5862 0.760179 -5.29269 0
M  V30 654 C 61.8862 -1.40998 -5.02908 0
M  V30 655 H 63.5802 -1.07247 -2.79532 0
M  V30 656 H 61.1262 -0.517163 -1.34393 0
M  V30 657 H 63.0792 0.987972 -4.09655 0
M  V30 658 H 61.8032 1.43133 -2.93565 0
M  V30 659 H 60.4622 -0.588936 -3.61838 0
M  V30 660 H 60.1102 1.60447 -4.76724 0
M  V30 661 H 59.8102 0.238809 -5.87115 0
M  V30 662 H 61.3342 1.16308 -5.9942 0
M  V30 663 H 62.7482 -1.07905 -5.63054 0
M  V30 664 H 61.1452 -1.86689 -5.70322 0
M  V30 665 H 62.2152 -2.1889 -4.32684 0
M  V30 666 N 63.5583 1.46682 -0.576371 0
M  V30 667 C 64.4883 2.33028 0.148397 0
M  V30 668 C 65.4693 1.44961 0.889956 0
M  V30 669 O 66.6543 1.73789 0.866662 0
M  V30 670 C 63.7843 3.27117 1.1667 0
M  V30 671 C 62.7383 4.24575 0.540386 0
M  V30 672 C 62.0643 5.08126 1.6647 0
M  V30 673 C 63.3643 5.19722 -0.518331 0
M  V30 674 H 65.0583 2.93875 -0.572509 0
M  V30 675 H 62.6043 1.41315 -0.276768 0
M  V30 676 H 64.5573 3.86374 1.68204 0
M  V30 677 H 63.2813 2.64364 1.9178 0
M  V30 678 H 61.9403 3.66571 0.0461769 0
M  V30 679 H 61.5883 4.41762 2.40531 0
M  V30 680 H 61.2883 5.74122 1.25131 0
M  V30 681 H 62.8123 5.70246 2.18293 0
M  V30 682 H 64.2263 5.73232 -0.0883058 0
M  V30 683 H 62.6233 5.94026 -0.851679 0
M  V30 684 H 63.6933 4.64037 -1.40703 0
M  V30 685 N 65.0364 0.313813 1.54444 0
M  V30 686 C 65.9464 -0.565714 2.27677 0
M  V30 687 C 66.9624 -1.13754 1.31666 0
M  V30 688 O 68.1384 -1.15959 1.64668 0
M  V30 689 C 65.2034 -1.71528 3.01296 0
M  V30 690 C 64.2644 -1.17624 4.12872 0
M  V30 691 C 63.4974 -2.27102 4.8297 0
M  V30 692 O 63.7204 -3.47256 4.52514 0
M  V30 693 O 62.6544 -1.9307 5.70094 0
M  V30 694 H 66.4804 0.0287296 3.03686 0
M  V30 695 H 64.0654 0.0798312 1.49187 0
M  V30 696 H 65.9474 -2.38476 3.4743 0
M  V30 697 H 64.6224 -2.29608 2.2817 0
M  V30 698 H 63.5294 -0.472124 3.71109 0
M  V30 699 H 64.8624 -0.640695 4.88012 0
M  V30 700 N 66.5145 -1.57545 0.0417849 0
M  V30 701 C 67.4775 -2.09885 -0.92093 0
M  V30 702 C 68.4775 -1.01648 -1.24596 0
M  V30 703 O 69.6675 -1.27759 -1.1842 0
M  V30 704 C 66.7995 -2.57527 -2.23367 0
M  V30 705 H 67.9925 -2.96236 -0.467382 0
M  V30 706 H 65.5455 -1.5493 -0.206467 0
M  V30 707 H 66.2805 -1.74542 -2.73323 0
M  V30 708 H 66.0655 -3.36613 -2.01083 0
M  V30 709 H 67.5555 -2.98201 -2.92346 0
M  V30 710 N 67.9926 0.231505 -1.5589 0
M  V30 711 C 69.2386 0.95877 -1.78705 0
M  V30 712 C 69.5716 1.8438 -0.609725 0
M  V30 713 O 68.8466 1.90521 0.391426 0
M  V30 714 C 69.1296 1.8062 -3.11526 0
M  V30 715 C 68.9826 0.948328 -4.39689 0
M  V30 716 C 70.3016 2.78585 -3.40703 0
M  V30 717 H 67.4206 0.347129 -0.650131 0
M  V30 718 H 70.0626 0.228259 -1.88624 0
M  V30 719 H 68.2126 2.42902 -3.03201 0
M  V30 720 H 69.8846 0.343016 -4.60023 0
M  V30 721 H 68.1276 0.253314 -4.3306 0
M  V30 722 H 68.7986 1.57543 -5.29041 0
M  V30 723 H 71.2746 2.26439 -3.49091 0
M  V30 724 H 70.1506 3.34988 -4.34826 0
M  V30 725 H 70.4116 3.55825 -2.62375 0
M  V30 726 N 69.4707 1.49531 0.497807 0
M  V30 727 C 70.8867 1.36365 0.829266 0
M  V30 728 C 71.0867 0.399184 1.97506 0
M  V30 729 O 70.1427 -0.167977 2.51941 0
M  V30 730 C 71.4557 2.77153 1.16647 0
M  V30 731 C 73.0037 2.85877 1.27449 0
M  V30 732 C 73.4787 4.2744 1.64497 0
M  V30 733 N 74.9697 4.30265 1.7154 0
M  V30 734 C 75.7047 5.3677 2.01656 0
M  V30 735 N 75.2007 6.53516 2.29976 0
M  V30 736 N 76.9937 5.24189 2.02934 0
M  V30 737 H 69.1447 2.10831 -0.257703 0
M  V30 738 H 71.4077 0.946534 -0.0527091 0
M  V30 739 H 71.1137 3.49442 0.397872 0
M  V30 740 H 70.9877 3.12722 2.10915 0
M  V30 741 H 73.3747 2.13824 2.0338 0
M  V30 742 H 73.4557 2.53887 0.312244 0
M  V30 743 H 73.0997 5.00021 0.891151 0
M  V30 744 H 73.0297 4.56896 2.61827 0
M  V30 745 H 75.5207 3.4607 1.51802 0
M  V30 746 H 75.8337 7.30506 2.52153 0
M  V30 747 H 74.1787 6.56737 2.27425 0
M  V30 748 H 77.3697 4.31988 1.80289 0
M  V30 749 H 77.5427 6.07286 2.26071 0
M  V30 750 N 70.9488 -0.749086 1.3866 0
M  V30 751 C 72.3648 -1.05276 1.19955 0
M  V30 752 C 72.5648 -2.01435 0.05134 0
M  V30 753 O 71.6208 -2.45232 -0.60147 0
M  V30 754 C 72.9338 -1.62853 2.52783 0
M  V30 755 C 74.4818 -1.75002 2.59506 0
M  V30 756 C 74.9568 -2.35991 3.92521 0
M  V30 757 N 76.4478 -2.43416 3.94085 0
M  V30 758 C 77.1828 -2.91511 4.9377 0
M  V30 759 N 76.6788 -3.39608 6.03853 0
M  V30 760 N 78.4718 -2.90592 4.81157 0
M  V30 761 H 70.6228 -0.111066 2.12109 0
M  V30 762 H 72.8858 -0.111901 0.941373 0
M  V30 763 H 72.5918 -0.99664 3.37283 0
M  V30 764 H 72.4658 -2.61854 2.715 0
M  V30 765 H 74.8528 -2.37317 1.75398 0
M  V30 766 H 74.9338 -0.74693 2.44652 0
M  V30 767 H 74.5778 -1.74308 4.77053 0
M  V30 768 H 74.5078 -3.3695 4.04688 0
M  V30 769 H 76.9988 -2.09405 3.14576 0
M  V30 770 H 77.3118 -3.74775 6.75843 0
M  V30 771 H 75.6568 -3.37653 6.07466 0
M  V30 772 H 78.8478 -2.52332 3.94267 0
M  V30 773 H 79.0208 -3.27762 5.58996 0
M  V30 774 N 72.4269 -1.23603 -0.977757 0
M  V30 775 C 73.3899 -1.02069 -2.05218 0
M  V30 776 C 74.3899 0.0184305 -1.60789 0
M  V30 777 O 75.5799 -0.221569 -1.72785 0
M  V30 778 C 72.7119 -0.544926 -3.36517 0
M  V30 779 H 73.9049 -1.9742 -2.25755 0
M  V30 780 H 71.4579 -1.05684 -1.15155 0
M  V30 781 H 72.1929 0.412241 -3.21669 0
M  V30 782 H 71.9779 -1.2948 -3.70105 0
M  V30 783 H 73.4679 -0.414985 -4.15533 0
M  V30 784 N 73.905 1.17692 -1.04816 0
M  V30 785 C 74.835 2.23777 -0.666791 0
M  V30 786 C 75.816 1.66796 0.33361 0
M  V30 787 O 77.001 1.93039 0.212042 0
M  V30 788 C 74.131 3.47281 -0.0367933 0
M  V30 789 C 73.085 4.17059 -0.961546 0
M  V30 790 C 72.411 5.34342 -0.195626 0
M  V30 791 C 73.711 4.69713 -2.28402 0
M  V30 792 H 75.405 2.55933 -1.55367 0
M  V30 793 H 72.951 1.23019 -0.748484 0
M  V30 794 H 74.904 4.20706 0.241775 0
M  V30 795 H 73.628 3.14381 0.885004 0
M  V30 796 H 72.287 3.45541 -1.22462 0
M  V30 797 H 71.935 4.97692 0.728816 0
M  V30 798 H 71.635 5.81966 -0.811775 0
M  V30 799 H 73.159 6.10553 0.0757473 0
M  V30 800 H 74.573 5.34794 -2.06563 0
M  V30 801 H 72.97 5.279 -2.8538 0
M  V30 802 H 74.04 3.86726 -2.92525 0
M  V30 803 N 75.3831 0.828654 1.34056 0
M  V30 804 C 76.6311 0.41863 1.97717 0
M  V30 805 C 76.9521 -1.02314 1.66002 0
M  V30 806 O 76.2221 -1.71119 0.953683 0
M  V30 807 H 74.8021 0.151809 0.731412 0
M  V30 808 H 77.4641 1.05936 1.63596 0
M  V30 809 H 76.5601 0.542318 3.07352 0
M  V30 810 N 76.8612 -1.46375 0.584142 0
M  V30 811 C 78.2772 -1.57694 0.245929 0
M  V30 812 C 78.4772 -1.57903 -1.25175 0
M  V30 813 O 77.5332 -1.49676 -2.03355 0
M  V30 814 C 78.8462 -2.87028 0.896402 0
M  V30 815 C 80.3942 -3.00662 0.870127 0
M  V30 816 C 80.8692 -4.32734 1.50017 0
M  V30 817 N 82.3602 -4.39436 1.46458 0
M  V30 818 C 83.0952 -5.40248 1.92144 0
M  V30 819 N 82.5912 -6.47726 2.4581 0
M  V30 820 N 84.3842 -5.31459 1.83052 0
M  V30 821 H 76.5352 -1.44483 1.55687 0
M  V30 822 H 78.7982 -0.689291 0.650831 0
M  V30 823 H 78.5042 -2.9269 1.95002 0
M  V30 824 H 78.3782 -3.75014 0.405486 0
M  V30 825 H 80.7652 -2.94581 -0.174871 0
M  V30 826 H 80.8462 -2.14148 1.39908 0
M  V30 827 H 80.4902 -4.39573 2.54437 0
M  V30 828 H 80.4202 -5.18025 0.946432 0
M  V30 829 H 82.9112 -3.62367 1.07231 0
M  V30 830 H 83.2242 -7.20863 2.78525 0
M  V30 831 H 81.5692 -6.48542 2.49836 0
M  V30 832 H 84.7602 -4.46396 1.40883 0
M  V30 833 H 84.9332 -6.09881 2.18973 0
M  V30 834 N 78.3393 -0.321999 -1.54275 0
M  V30 835 C 79.2713 0.578671 -2.21775 0
M  V30 836 C 80.2843 1.08109 -1.21722 0
M  V30 837 O 81.4733 0.994938 -1.482 0
M  V30 838 C 78.5733 1.80661 -2.86731 0
M  V30 839 C 77.7463 1.44314 -4.12907 0
M  V30 840 C 76.8053 2.52845 -4.61472 0
M  V30 841 O 75.8313 2.17054 -5.2619 0
M  V30 842 N 77.0333 3.83748 -4.35566 0
M  V30 843 H 79.7983 0.000709447 -2.997 0
M  V30 844 H 77.3593 -0.145132 -1.61248 0
M  V30 845 H 79.3513 2.52655 -3.16145 0
M  V30 846 H 77.9213 2.29245 -2.12521 0
M  V30 847 H 77.1413 0.554906 -3.90275 0
M  V30 848 H 78.4293 1.17598 -4.95023 0
M  V30 849 H 77.8273 4.15625 -3.83761 0
M  V30 850 H 76.3843 4.51977 -4.69638 0
M  V30 851 N 79.8174 1.5752 -0.0501392 0
M  V30 852 C 81.0944 1.83996 0.663685 0
M  V30 853 C 81.4744 0.938339 1.89099 0
M  V30 854 O 80.8224 -0.00087759 2.285 0
M  V30 855 C 81.0324 3.33702 1.02196 0
M  V30 856 C 82.3804 4.00691 1.40469 0
M  V30 857 O 83.4044 3.38321 1.11433 0
M  V30 858 O 82.2634 5.10658 1.94654 0
M  V30 859 H 79.3574 0.759385 0.32751 0
M  V30 860 H 81.9034 1.69514 -0.0794238 0
M  V30 861 H 80.6754 3.91015 0.149364 0
M  V30 862 H 80.2984 3.53368 1.82255 0
M  V30 863 N 81.2955 -0.223234 1.56011 0
M  V30 864 C 82.2275 -1.30006 1.88762 0
M  V30 865 C 83.2405 -1.43129 0.775746 0
M  V30 866 O 84.4295 -1.44057 1.05403 0
M  V30 867 C 81.5295 -2.67589 2.07965 0
M  V30 868 C 80.7025 -2.76434 3.38973 0
M  V30 869 C 79.7615 -3.95019 3.47629 0
M  V30 870 O 78.7875 -3.83436 4.20672 0
M  V30 871 N 79.9895 -5.09249 2.78649 0
M  V30 872 H 82.7545 -1.02238 2.81722 0
M  V30 873 H 80.3155 -0.413278 1.56536 0
M  V30 874 H 82.3075 -3.45297 2.11073 0
M  V30 875 H 80.8775 -2.87964 1.21638 0
M  V30 876 H 80.0975 -1.85216 3.47978 0
M  V30 877 H 81.3855 -2.79313 4.25278 0
M  V30 878 H 80.7835 -5.21556 2.19081 0
M  V30 879 H 79.3405 -5.85007 2.8742 0
M  V30 880 N 82.7736 -1.49793 -0.48987 0
M  V30 881 C 84.0036 -1.6333 -1.26518 0
M  V30 882 C 84.4116 -0.308392 -1.8667 0
M  V30 883 O 83.7546 0.717512 -1.69108 0
M  V30 884 C 83.8166 -2.6522 -2.4269 0
M  V30 885 C 83.4806 -4.09279 -2.03321 0
M  V30 886 C 84.4776 -4.95738 -1.56652 0
M  V30 887 C 82.1626 -4.55082 -2.12616 0
M  V30 888 C 84.1566 -6.26041 -1.19795 0
M  V30 889 C 81.8436 -5.85396 -1.75371 0
M  V30 890 C 82.8416 -6.707 -1.29036 0
M  V30 891 O 82.5296 -7.98584 -0.92299 0
M  V30 892 H 82.2616 -0.552502 -0.389509 0
M  V30 893 H 84.8156 -1.96642 -0.593381 0
M  V30 894 H 83.0456 -2.27112 -3.12981 0
M  V30 895 H 84.7346 -2.68171 -3.04695 0
M  V30 896 H 85.5006 -4.61575 -1.48908 0
M  V30 897 H 81.3796 -3.88844 -2.47631 0
M  V30 898 H 84.9236 -6.92578 -0.835582 0
M  V30 899 H 80.8206 -6.19085 -1.82768 0
M  V30 900 H 81.5886 -8.11692 -1.05349 0
M  V30 901 N 84.2517 0.741722 -1.39055 0
M  V30 902 C 85.2147 1.83733 -1.37021 0
M  V30 903 C 86.2147 1.58542 -0.268534 0
M  V30 904 O 87.4047 1.66067 -0.526076 0
M  V30 905 C 84.5367 3.2141 -1.13617 0
M  V30 906 H 85.7297 1.86941 -2.34506 0
M  V30 907 H 83.2827 0.944676 -1.24521 0
M  V30 908 H 84.0177 3.23865 -0.167863 0
M  V30 909 H 83.8027 3.4109 -1.93391 0
M  V30 910 H 85.2927 4.01477 -1.14918 0
M  V30 911 N 85.7298 1.2412 0.971189 0
M  V30 912 C 87.1408 1.07236 1.52831 0
M  V30 913 C 87.4918 -0.357352 1.92918 0
M  V30 914 O 86.6168 -1.24528 1.76979 0
M  V30 915 C 87.2118 1.94043 2.77728 0
M  V30 916 C 85.7708 1.81394 3.29808 0
M  V30 917 C 84.9178 1.89189 2.02738 0
M  V30 918 H 87.8688 1.37648 0.789864 0
M  V30 919 H 87.8898 1.47066 3.5093 0
M  V30 920 H 87.4018 2.98093 2.4852 0
M  V30 921 H 85.5028 0.801634 3.63874 0
M  V30 922 H 85.6158 2.65294 3.98944 0
M  V30 923 H 83.9798 1.32877 2.17292 0
M  V30 924 H 84.7628 2.94812 1.759 0
M  V30 925 N 87.2079 -1.17134 1.05439 0
M  V30 926 C 88.6189 -1.69084 0.791676 0
M  V30 927 C 88.9699 -1.83822 -0.685839 0
M  V30 928 O 88.0949 -1.52757 -1.53278 0
M  V30 929 C 88.6899 -3.07119 1.4305 0
M  V30 930 C 87.2489 -3.56225 1.21577 0
M  V30 931 C 86.3959 -2.32421 1.51247 0
M  V30 932 H 89.3469 -1.01617 1.219 0
M  V30 933 H 89.3679 -3.71087 0.84112 0
M  V30 934 H 88.8799 -2.9636 2.50584 0
M  V30 935 H 86.9809 -3.72257 0.159787 0
M  V30 936 H 87.0939 -4.38837 1.92246 0
M  V30 937 H 85.4579 -2.3701 0.932653 0
M  V30 938 H 86.2409 -2.24268 2.5992 0
M  V30 939 N 88.686 -0.835752 -1.33615 0
M  V30 940 C 89.649 -0.272 -2.2758 0
M  V30 941 C 90.649 0.557487 -1.50827 0
M  V30 942 O 91.839 0.37173 -1.70188 0
M  V30 943 C 88.971 0.617173 -3.35267 0
M  V30 944 H 90.164 -1.10111 -2.78954 0
M  V30 945 H 87.717 -0.608594 -1.43965 0
M  V30 946 H 88.452 1.46884 -2.89129 0
M  V30 947 H 88.237 0.0237066 -3.92093 0
M  V30 948 H 89.727 1.005 -4.05326 0
M  V30 949 N 90.1641 1.46063 -0.591896 0
M  V30 950 C 91.4121 2.01938 -0.0808391 0
M  V30 951 C 91.7331 1.46475 1.28725 0
M  V30 952 O 91.0031 0.652944 1.84698 0
M  V30 953 H 89.5831 0.746516 -0.0268938 0
M  V30 954 H 92.2451 1.79055 -0.769752 0
M  V30 955 H 91.3411 3.12094 -0.0187578 0
M  V30 956 N 91.6422 0.330177 1.54103 0
M  V30 957 C 92.5722 -0.525353 2.27513 0
M  V30 958 C 93.5532 -1.11383 1.2856 0
M  V30 959 O 94.7382 -1.13773 1.57383 0
M  V30 960 C 91.8682 -1.6831 3.03791 0
M  V30 961 C 90.8222 -1.2236 4.10137 0
M  V30 962 C 90.1482 -2.46882 4.74293 0
M  V30 963 C 91.4482 -0.333697 5.21233 0
M  V30 964 H 93.1422 0.087013 2.99274 0
M  V30 965 H 90.6882 0.0432893 1.43935 0
M  V30 966 H 92.6412 -2.28795 3.5388 0
M  V30 967 H 91.3652 -2.32216 2.29659 0
M  V30 968 H 90.0242 -0.64165 3.60941 0
M  V30 969 H 89.6722 -3.09165 3.96769 0
M  V30 970 H 89.3722 -2.16825 5.46133 0
M  V30 971 H 90.8962 -3.08117 5.27159 0
M  V30 972 H 92.3102 -0.845013 5.67038 0
M  V30 973 H 90.7072 -0.125612 5.99969 0
M  V30 974 H 91.7772 0.633724 4.80741 0
M  V30 975 N 93.1203 -1.57491 0.0584922 0
M  V30 976 C 94.5313 -1.80526 -0.476138 0
M  V30 977 C 94.8823 -0.971334 -1.70469 0
M  V30 978 O 94.0073 -0.190012 -2.15564 0
M  V30 979 C 94.6023 -3.27424 -0.870587 0
M  V30 980 C 93.1613 -3.51351 -1.35015 0
M  V30 981 C 92.3083 -2.75343 -0.32887 0
M  V30 982 H 95.2593 -1.56133 0.284312 0
M  V30 983 H 95.2803 -3.38745 -1.73299 0
M  V30 984 H 94.7923 -3.88093 0.0237627 0
M  V30 985 H 92.8933 -2.95971 -2.26345 0
M  V30 986 H 93.0063 -4.60059 -1.33726 0
M  V30 987 H 91.3703 -2.417 -0.803321 0
M  V30 988 H 92.1533 -3.38743 0.557521 0
M  V30 989 N 94.5984 0.214957 -1.56127 0
M  V30 990 C 95.5614 1.24997 -1.92116 0
M  V30 991 C 96.5614 1.39467 -0.800344 0
M  V30 992 O 97.7514 1.37619 -1.06802 0
M  V30 993 C 94.8834 2.62271 -2.17777 0
M  V30 994 H 96.0764 0.942875 -2.84693 0
M  V30 995 H 93.6294 0.455654 -1.49511 0
M  V30 996 H 94.3644 2.98068 -1.27773 0
M  V30 997 H 94.1494 2.53143 -2.99434 0
M  V30 998 H 95.6394 3.36946 -2.46693 0
M  V30 999 N 96.0765 1.50051 0.48192 0
M  V30 1000 C 97.0065 1.71046 1.58951 0
M  V30 1001 C 97.9875 0.559288 1.60642 0
M  V30 1002 O 99.1725 0.797243 1.77081 0
M  V30 1003 C 96.3025 1.79462 2.97339 0
M  V30 1004 C 95.2565 2.94558 3.10515 0
M  V30 1005 C 94.5825 2.88105 4.50444 0
M  V30 1006 C 95.8825 4.35227 2.88747 0
M  V30 1007 H 97.5765 2.6378 1.41635 0
M  V30 1008 H 95.1225 1.26936 0.679942 0
M  V30 1009 H 97.0755 1.92734 3.74742 0
M  V30 1010 H 95.7995 0.833412 3.15788 0
M  V30 1011 H 94.4585 2.80918 2.35543 0
M  V30 1012 H 94.1065 1.89853 4.65795 0
M  V30 1013 H 93.8065 3.65366 4.60197 0
M  V30 1014 H 95.3305 3.03412 5.29881 0
M  V30 1015 H 96.7445 4.49449 3.55905 0
M  V30 1016 H 95.1415 5.13856 3.09955 0
M  V30 1017 H 96.2115 4.48347 1.84696 0
M  V30 1018 N 97.5546 -0.734337 1.39446 0
M  V30 1019 C 98.9706 -1.03997 1.21065 0
M  V30 1020 C 99.1706 -2.01369 0.0727019 0
M  V30 1021 O 98.2266 -2.45856 -0.575426 0
M  V30 1022 C 99.5396 -1.60163 2.54496 0
M  V30 1023 C 101.088 -1.7224 2.61347 0
M  V30 1024 C 101.563 -2.31814 3.95002 0
M  V30 1025 N 103.054 -2.39223 3.96644 0
M  V30 1026 C 103.789 -2.86258 4.96834 0
M  V30 1027 N 103.285 -3.33184 6.07421 0
M  V30 1028 N 105.078 -2.85473 4.84213 0
M  V30 1029 H 97.2286 -0.0885624 2.12215 0
M  V30 1030 H 99.4916 -0.10191 0.942506 0
M  V30 1031 H 99.1976 -0.960811 3.38321 0
M  V30 1032 H 99.0716 -2.5896 2.74262 0
M  V30 1033 H 101.459 -2.35443 1.77906 0
M  V30 1034 H 101.54 -0.720939 2.4543 0
M  V30 1035 H 101.184 -1.69238 4.78875 0
M  V30 1036 H 101.114 -3.32638 4.08239 0
M  V30 1037 H 103.605 -2.06057 3.16779 0
M  V30 1038 H 103.918 -3.67586 6.7978 0
M  V30 1039 H 102.263 -3.31191 6.11013 0
M  V30 1040 H 105.454 -2.48136 3.96921 0
M  V30 1041 H 105.627 -3.21814 5.62441 0
M  V30 1042 N 99.0327 -1.24633 -0.964593 0
M  V30 1043 C 99.9427 -1.05859 -2.09359 0
M  V30 1044 C 100.959 0.00148855 -1.74 0
M  V30 1045 O 102.135 -0.197346 -2.00431 0
M  V30 1046 C 99.1997 -0.668879 -3.40187 0
M  V30 1047 C 98.2607 -1.80578 -3.89474 0
M  V30 1048 C 97.4937 -1.43457 -5.14058 0
M  V30 1049 O 97.7167 -0.325775 -5.69469 0
M  V30 1050 O 96.6507 -2.2613 -5.57807 0
M  V30 1051 H 100.477 -2.00516 -2.28094 0
M  V30 1052 H 98.0617 -1.03481 -1.0776 0
M  V30 1053 H 99.9437 -0.463211 -4.18846 0
M  V30 1054 H 98.6187 0.248536 -3.22744 0
M  V30 1055 H 97.5257 -2.06623 -3.11862 0
M  V30 1056 H 98.8587 -2.70208 -4.11398 0
M  V30 1057 N 100.511 1.16574 -1.06058 0
M  V30 1058 C 101.474 2.19085 -0.673392 0
M  V30 1059 C 102.474 1.5835 0.279648 0
M  V30 1060 O 103.664 1.74088 0.0623488 0
M  V30 1061 C 100.796 3.40899 0.00954234 0
M  V30 1062 H 101.989 2.54853 -1.58081 0
M  V30 1063 H 99.5418 1.30808 -0.855516 0
M  V30 1064 H 100.277 3.10684 0.929826 0
M  V30 1065 H 100.062 3.86233 -0.67573 0
M  V30 1066 H 101.552 4.1675 0.266245 0
M  V30 1067 N 101.989 0.842826 1.3317 0
M  V30 1068 C 102.919 0.294028 2.31641 0
M  V30 1069 C 103.9 -0.600401 1.59151 0
M  V30 1070 O 105.085 -0.523124 1.87022 0
M  V30 1071 C 102.215 -0.528416 3.43257 0
M  V30 1072 C 101.169 0.27056 4.27144 0
M  V30 1073 C 100.495 -0.675881 5.30411 0
M  V30 1074 C 101.795 1.48981 5.00602 0
M  V30 1075 H 103.489 1.11681 2.77791 0
M  V30 1076 H 101.035 0.538478 1.33553 0
M  V30 1077 H 102.988 -0.922674 4.11175 0
M  V30 1078 H 101.712 -1.38445 2.95805 0
M  V30 1079 H 100.371 0.646427 3.60856 0
M  V30 1080 H 100.019 -1.52842 4.79216 0
M  V30 1081 H 99.7189 -0.145374 5.8742 0
M  V30 1082 H 101.243 -1.06757 6.01195 0
M  V30 1083 H 102.657 1.16849 5.61266 0
M  V30 1084 H 101.054 1.95739 5.6728 0
M  V30 1085 H 102.124 2.25746 4.29147 0
M  V30 1086 N 103.467 -1.45747 0.599634 0
M  V30 1087 C 104.43 -2.28917 -0.113835 0
M  V30 1088 C 105.43 -1.3933 -0.802729 0
M  V30 1089 O 106.62 -1.61534 -0.652103 0
M  V30 1090 C 103.752 -3.20152 -1.17114 0
M  V30 1091 H 104.945 -2.93478 0.617289 0
M  V30 1092 H 102.498 -1.52137 0.358327 0
M  V30 1093 H 103.233 -2.60374 -1.93329 0
M  V30 1094 H 103.018 -3.86133 -0.681468 0
M  V30 1095 H 104.508 -3.82708 -1.67105 0
M  V30 1096 N 104.945 -0.338344 -1.53925 0
M  V30 1097 C 105.855 0.529421 -2.28548 0
M  V30 1098 C 106.871 1.11645 -1.3346 0
M  V30 1099 O 108.047 1.13325 -1.66492 0
M  V30 1100 C 105.112 1.66713 -3.03987 0
M  V30 1101 C 104.173 1.11041 -4.14691 0
M  V30 1102 C 103.406 2.19389 -4.86522 0
M  V30 1103 O 103.629 3.40013 -4.57982 0
M  V30 1104 O 102.563 1.83976 -5.73094 0
M  V30 1105 H 106.389 -0.0770399 -3.03602 0
M  V30 1106 H 103.974 -0.103555 -1.49041 0
M  V30 1107 H 105.856 2.32918 -3.5118 0
M  V30 1108 H 104.531 2.25949 -2.31794 0
M  V30 1109 H 103.438 0.413024 -3.71813 0
M  V30 1110 H 104.771 0.562975 -4.8897 0
M  V30 1111 N 106.423 1.57458 -0.0668435 0
M  V30 1112 C 107.333 2.15937 0.916975 0
M  V30 1113 C 108.349 1.12123 1.33058 0
M  V30 1114 O 109.525 1.44366 1.40429 0
M  V30 1115 C 106.59 2.70547 2.16807 0
M  V30 1116 C 105.651 3.89215 1.81135 0
M  V30 1117 C 104.884 4.41211 3.0028 0
M  V30 1118 O 105.107 3.92225 4.14144 0
M  V30 1119 O 104.041 5.32605 2.80384 0
M  V30 1120 H 107.867 3.00354 0.449561 0
M  V30 1121 H 105.452 1.48584 0.155949 0
M  V30 1122 H 107.334 3.0557 2.90181 0
M  V30 1123 H 106.009 1.89192 2.62656 0
M  V30 1124 H 104.916 3.59054 1.05028 0
M  V30 1125 H 106.249 4.71848 1.40073 0
M  V30 1126 N 107.901 -0.206675 1.56239 0
M  V30 1127 C 109.148 -0.928842 1.79941 0
M  V30 1128 C 109.476 -1.83734 0.638131 0
M  V30 1129 O 108.731 -1.92039 -0.376746 0
M  V30 1130 C 109.03 -1.78675 3.09532 0
M  V30 1131 C 108.696 -1.03022 4.38973 0
M  V30 1132 C 107.358 -0.821302 4.74139 0
M  V30 1133 C 109.71 -0.497081 5.18824 0
M  V30 1134 C 107.038 -0.0675719 5.86661 0
M  V30 1135 C 109.39 0.24338 6.32132 0
M  V30 1136 C 108.054 0.463422 6.65889 0
M  V30 1137 H 107.324 -0.339887 0.658451 0
M  V30 1138 H 109.971 -0.195977 1.90495 0
M  V30 1139 H 108.276 -2.58794 2.94165 0
M  V30 1140 H 109.973 -2.34792 3.25075 0
M  V30 1141 H 106.563 -1.20306 4.11369 0
M  V30 1142 H 110.747 -0.645921 4.92079 0
M  V30 1143 H 106.003 0.112995 6.11296 0
M  V30 1144 H 110.177 0.66393 6.93228 0
M  V30 1145 H 107.804 1.04938 7.52922 0
M  V30 1146 N 109.379 -1.50304 -0.473955 0
M  V30 1147 C 110.342 -1.6841 -1.55469 0
M  V30 1148 C 111.342 -0.554905 -1.50922 0
M  V30 1149 O 112.532 -0.821882 -1.53593 0
M  V30 1150 C 109.664 -1.70667 -2.95102 0
M  V30 1151 H 110.857 -2.64828 -1.40733 0
M  V30 1152 H 108.41 -1.39742 -0.700132 0
M  V30 1153 H 109.145 -0.75932 -3.15285 0
M  V30 1154 H 108.93 -2.52698 -2.9981 0
M  V30 1155 H 110.42 -1.8664 -3.73571 0
M  V30 1156 N 110.857 0.726932 -1.39834 0
M  V30 1157 C 112.103 1.48884 -1.377 0
M  V30 1158 C 112.436 1.94185 0.0244852 0
M  V30 1159 O 111.711 1.67361 0.990986 0
M  V30 1160 C 111.994 2.72288 -2.3565 0
M  V30 1161 C 111.847 2.32956 -3.84775 0
M  V30 1162 C 113.166 3.74414 -2.31306 0
M  V30 1163 H 110.285 0.540062 -0.5015 0
M  V30 1164 H 112.927 0.830547 -1.70886 0
M  V30 1165 H 111.077 3.28457 -2.07481 0
M  V30 1166 H 112.749 1.82356 -4.23726 0
M  V30 1167 H 110.992 1.65088 -4.01159 0
M  V30 1168 H 111.663 3.21362 -4.4881 0
M  V30 1169 H 114.139 3.27849 -2.56231 0
M  V30 1170 H 113.015 4.58414 -3.01907 0
M  V30 1171 H 113.276 4.21909 -1.32081 0
M  V30 1172 N 112.336 1.25143 0.95797 0
M  V30 1173 C 113.246 1.06968 2.08794 0
M  V30 1174 C 114.262 0.00773911 1.73998 0
M  V30 1175 O 115.438 0.207972 2.00323 0
M  V30 1176 C 112.503 0.68691 3.39827 0
M  V30 1177 C 111.564 1.82641 3.88511 0
M  V30 1178 C 110.797 1.46181 5.1329 0
M  V30 1179 O 111.02 0.355971 5.69288 0
M  V30 1180 O 109.954 2.29085 5.566 0
M  V30 1181 H 113.78 2.01723 2.27027 0
M  V30 1182 H 111.365 1.04051 1.07209 0
M  V30 1183 H 113.247 0.485417 4.18595 0
M  V30 1184 H 111.922 -0.231417 3.22872 0
M  V30 1185 H 110.829 2.08274 3.10762 0
M  V30 1186 H 112.162 2.72386 4.09959 0
M  V30 1187 N 113.814 -1.1601 1.06675 0
M  V30 1188 C 115.225 -1.68235 0.809565 0
M  V30 1189 C 115.576 -1.8454 -0.666303 0
M  V30 1190 O 114.701 -1.54374 -1.5165 0
M  V30 1191 C 115.296 -3.05585 1.46299 0
M  V30 1192 C 113.855 -3.54915 1.25349 0
M  V30 1193 C 113.002 -2.30804 1.53703 0
M  V30 1194 H 115.953 -1.00318 1.22971 0
M  V30 1195 H 115.974 -3.70174 0.880431 0
M  V30 1196 H 115.486 -2.93686 2.53713 0
M  V30 1197 H 113.587 -3.72067 0.199261 0
M  V30 1198 H 113.7 -4.36774 1.9689 0
M  V30 1199 H 112.064 -2.36007 0.957739 0
M  V30 1200 H 112.847 -2.21499 2.62284 0
M  V30 1201 N 115.292 -0.849877 -1.32721 0
M  V30 1202 C 116.202 -0.293791 -2.32753 0
M  V30 1203 C 117.218 0.585906 -1.63839 0
M  V30 1204 O 118.394 0.487413 -1.95413 0
M  V30 1205 C 115.459 0.512752 -3.42887 0
M  V30 1206 C 114.52 -0.39252 -4.27502 0
M  V30 1207 C 113.753 0.375625 -5.32377 0
M  V30 1208 O 113.976 1.60613 -5.4732 0
M  V30 1209 O 112.91 -0.256094 -6.01355 0
M  V30 1210 H 116.736 -1.12242 -2.82197 0
M  V30 1211 H 114.321 -0.612685 -1.36259 0
M  V30 1212 H 116.203 0.970704 -4.10067 0
M  V30 1213 H 114.878 1.31826 -2.95641 0
M  V30 1214 H 113.785 -0.898547 -3.63149 0
M  V30 1215 H 115.118 -1.16309 -4.7826 0
M  V30 1216 N 116.77 1.45427 -0.607355 0
M  V30 1217 C 117.995 2.07124 -0.107006 0
M  V30 1218 C 118.42 1.44906 1.19933 0
M  V30 1219 O 117.778 0.541687 1.73019 0
M  V30 1220 C 117.826 3.60595 0.0194119 0
M  V30 1221 O 116.93 3.98285 1.0697 0
M  V30 1222 H 116.271 0.659868 -0.0739597 0
M  V30 1223 H 118.801 1.86683 -0.837297 0
M  V30 1224 H 118.811 4.07419 0.2177 0
M  V30 1225 H 117.486 4.05266 -0.934453 0
M  V30 1226 H 116.063 3.63133 0.847889 0
M  V30 1227 N 118.248 0.346503 1.53744 0
M  V30 1228 C 119.494 -0.249473 2.0126 0
M  V30 1229 C 119.827 -1.49965 1.23386 0
M  V30 1230 O 119.102 -1.91811 0.32229 0
M  V30 1231 C 119.385 -0.560643 3.55709 0
M  V30 1232 C 119.238 0.701836 4.44291 0
M  V30 1233 C 120.557 -1.36905 4.18264 0
M  V30 1234 H 117.676 -0.0891987 0.731582 0
M  V30 1235 H 120.318 0.467624 1.84156 0
M  V30 1236 H 118.468 -1.17156 3.70414 0
M  V30 1237 H 120.14 1.33974 4.41417 0
M  V30 1238 H 118.383 1.32612 4.13033 0
M  V30 1239 H 119.054 0.43933 5.50249 0
M  V30 1240 H 121.53 -0.852448 4.07275 0
M  V30 1241 H 120.406 -1.55553 5.26398 0
M  V30 1242 H 120.667 -2.37203 3.73078 0
M  V30 1243 N 119.726 -1.57421 0.075193 0
M  V30 1244 C 120.972 -1.93905 -0.594025 0
M  V30 1245 C 121.305 -0.955701 -1.69056 0
M  V30 1246 O 120.58 0.0145373 -1.94495 0
M  V30 1247 C 120.863 -3.40638 -1.1678 0
M  V30 1248 C 120.716 -4.49733 -0.0776792 0
M  V30 1249 C 122.035 -3.88259 -2.07228 0
M  V30 1250 H 119.154 -0.705105 -0.214466 0
M  V30 1251 H 121.796 -1.8947 0.141854 0
M  V30 1252 H 119.946 -3.44549 -1.79494 0
M  V30 1253 H 121.618 -4.57942 0.555573 0
M  V30 1254 H 119.861 -4.29751 0.591286 0
M  V30 1255 H 120.532 -5.49549 -0.519603 0
M  V30 1256 H 123.008 -3.86376 -1.54445 0
M  V30 1257 H 121.884 -4.91533 -2.44308 0
M  V30 1258 H 122.145 -3.26396 -2.98191 0
M  V30 1259 N 121.204 0.198386 -1.56346 0
M  V30 1260 C 122.45 0.920648 -1.80698 0
M  V30 1261 C 122.783 1.83045 -0.648697 0
M  V30 1262 O 122.058 1.91308 0.350925 0
M  V30 1263 C 122.341 1.73971 -3.15287 0
M  V30 1264 C 122.194 0.85485 -4.41602 0
M  V30 1265 C 123.513 2.71296 -3.46535 0
M  V30 1266 H 120.632 0.333261 -0.657348 0
M  V30 1267 H 123.274 0.188198 -1.89066 0
M  V30 1268 H 121.424 2.36416 -3.08285 0
M  V30 1269 H 123.096 0.245362 -4.60647 0
M  V30 1270 H 121.339 0.161398 -4.335 0
M  V30 1271 H 122.01 1.46286 -5.32264 0
M  V30 1272 H 124.486 2.18983 -3.53816 0
M  V30 1273 H 123.362 3.2569 -4.41834 0
M  V30 1274 H 123.623 3.5018 -2.69864 0
M  V30 1275 N 122.682 1.50554 0.465978 0
M  V30 1276 C 123.91 1.65563 1.24083 0
M  V30 1277 C 124.325 0.341051 1.85694 0
M  V30 1278 O 123.682 -0.677543 1.69457 0
M  V30 1279 C 123.733 2.75051 2.34583 0
M  V30 1280 O 123.454 4.01413 1.75497 0
M  V30 1281 C 124.955 3.01078 3.25372 0
M  V30 1282 H 122.175 0.55638 0.375077 0
M  V30 1283 H 124.719 1.96807 0.555624 0
M  V30 1284 H 122.874 2.46486 2.9887 0
M  V30 1285 H 123.288 4.62002 2.48303 0
M  V30 1286 H 124.762 3.81339 3.99105 0
M  V30 1287 H 125.239 2.12349 3.84453 0
M  V30 1288 H 125.845 3.31194 2.66816 0
M  V30 1289 N 124.16 -0.719506 1.40217 0
M  V30 1290 C 125.385 -1.51371 1.4178 0
M  V30 1291 C 125.81 -1.88091 0.0182355 0
M  V30 1292 O 125.168 -1.52997 -0.972707 0
M  V30 1293 C 125.216 -2.768 2.31115 0
M  V30 1294 O 124.32 -3.73349 1.7517 0
M  V30 1295 H 123.661 -0.456529 0.482159 0
M  V30 1296 H 126.191 -0.88644 1.844 0
M  V30 1297 H 126.201 -3.25371 2.46167 0
M  V30 1298 H 124.876 -2.49407 3.3282 0
M  V30 1299 H 123.453 -3.32179 1.69444 0
M  V30 1300 N 125.638 -1.25649 -0.95132 0
M  V30 1301 C 126.886 -1.10375 -1.69298 0
M  V30 1302 C 127.207 0.355339 -1.91735 0
M  V30 1303 O 126.477 1.25188 -1.50681 0
M  V30 1304 H 125.057 -0.405461 -0.627384 0
M  V30 1305 H 127.719 -1.57823 -1.14358 0
M  V30 1306 H 126.815 -1.61465 -2.67087 0
M  V30 1307 N 127.117 1.15442 -1.07289 0
M  V30 1308 C 128.08 2.18358 -0.696591 0
M  V30 1309 C 129.08 1.58637 0.262837 0
M  V30 1310 O 130.27 1.74145 0.0438809 0
M  V30 1311 C 127.402 3.4089 -0.0266151 0
M  V30 1312 H 128.595 2.53162 -1.60776 0
M  V30 1313 H 126.148 1.29893 -0.869342 0
M  V30 1314 H 126.883 3.11653 0.896822 0
M  V30 1315 H 126.668 3.85495 -0.716657 0
M  V30 1316 H 128.158 4.17009 0.222028 0
M  V30 1317 N 128.595 0.856903 1.32268 0
M  V30 1318 C 129.823 0.475439 2.01363 0
M  V30 1319 C 130.238 -0.928486 1.64392 0
M  V30 1320 O 129.595 -1.60624 0.866387 0
M  V30 1321 C 129.646 0.607545 3.56358 0
M  V30 1322 O 129.367 1.95617 3.92002 0
M  V30 1323 C 130.868 0.225382 4.42727 0
M  V30 1324 H 128.088 0.186636 0.644521 0
M  V30 1325 H 130.632 1.15446 1.68797 0
M  V30 1326 H 128.787 -0.0237719 3.87393 0
M  V30 1327 H 129.201 1.95455 4.86721 0
M  V30 1328 H 130.675 0.368813 5.50767 0
M  V30 1329 H 131.152 -0.834369 4.31202 0
M  V30 1330 H 131.758 0.831864 4.17085 0
M  V30 1331 N 130.073 -1.45103 0.615059 0
M  V30 1332 C 130.983 -2.34382 -0.101034 0
M  V30 1333 C 131.999 -1.51681 -0.852585 0
M  V30 1334 O 133.175 -1.8446 -0.808484 0
M  V30 1335 C 130.24 -3.29417 -1.08099 0
M  V30 1336 C 129.301 -4.28025 -0.330577 0
M  V30 1337 C 128.534 -5.1852 -1.26385 0
M  V30 1338 O 128.757 -5.12598 -2.50198 0
M  V30 1339 O 127.691 -5.97122 -0.756866 0
M  V30 1340 H 131.517 -2.97033 0.632855 0
M  V30 1341 H 129.102 -1.4461 0.375293 0
M  V30 1342 H 130.984 -3.87958 -1.6452 0
M  V30 1343 H 129.659 -2.69321 -1.79577 0
M  V30 1344 H 128.566 -3.73078 0.276283 0
M  V30 1345 H 129.899 -4.90997 0.343866 0
M  V30 1346 N 131.551 -0.354651 -1.53558 0
M  V30 1347 C 132.514 0.484566 -2.24019 0
M  V30 1348 C 133.514 1.01861 -1.24422 0
M  V30 1349 O 134.704 0.906097 -1.4878 0
M  V30 1350 C 131.836 1.67615 -2.96847 0
M  V30 1351 H 133.029 -0.131843 -2.9961 0
M  V30 1352 H 130.582 -0.106165 -1.55939 0
M  V30 1353 H 131.317 2.33095 -2.25471 0
M  V30 1354 H 131.102 1.30029 -3.69912 0
M  V30 1355 H 132.592 2.27114 -3.50441 0
M  V30 1356 N 133.029 1.57378 -0.0835403 0
M  V30 1357 C 133.959 2.1641 0.87686 0
M  V30 1358 C 134.94 1.09429 1.30228 0
M  V30 1359 O 136.125 1.37516 1.37124 0
M  V30 1360 C 133.255 2.73517 2.14022 0
M  V30 1361 C 132.209 3.85769 1.85381 0
M  V30 1362 C 131.535 4.29529 3.18448 0
M  V30 1363 C 132.835 5.09486 1.14984 0
M  V30 1364 H 134.529 2.96914 0.385059 0
M  V30 1365 H 132.075 1.42823 0.18377 0
M  V30 1366 H 134.028 3.13463 2.81636 0
M  V30 1367 H 132.752 1.90252 2.65465 0
M  V30 1368 H 131.411 3.46345 1.20169 0
M  V30 1369 H 131.059 3.43169 3.67755 0
M  V30 1370 H 130.759 5.05204 3.00071 0
M  V30 1371 H 132.283 4.72099 3.8724 0
M  V30 1372 H 133.697 5.46674 1.72687 0
M  V30 1373 H 132.094 5.90515 1.06826 0
M  V30 1374 H 133.164 4.84724 0.130749 0
M  V30 1375 N 134.507 -0.190092 1.56449 0
M  V30 1376 C 135.737 -0.92443 1.84764 0
M  V30 1377 C 136.145 -1.77146 0.664529 0
M  V30 1378 O 135.488 -1.79812 -0.375957 0
M  V30 1379 C 135.55 -1.86651 3.07248 0
M  V30 1380 C 135.214 -1.20094 4.40938 0
M  V30 1381 C 136.211 -0.575445 5.16706 0
M  V30 1382 C 133.896 -1.2033 4.87674 0
M  V30 1383 C 135.89 0.0388111 6.37388 0
M  V30 1384 C 133.577 -0.585214 6.08291 0
M  V30 1385 C 134.575 0.0347578 6.82991 0
M  V30 1386 O 134.263 0.643147 8.01323 0
M  V30 1387 H 133.995 -0.274974 0.617548 0
M  V30 1388 H 136.549 -0.200788 2.04416 0
M  V30 1389 H 134.779 -2.62998 2.83494 0
M  V30 1390 H 136.468 -2.46907 3.22167 0
M  V30 1391 H 137.234 -0.565728 4.81689 0
M  V30 1392 H 133.113 -1.67526 4.29484 0
M  V30 1393 H 136.657 0.523329 6.95634 0
M  V30 1394 H 132.554 -0.592451 6.42775 0
M  V30 1395 H 133.322 0.540545 8.16713 0
M  V30 1396 N 135.985 -1.50799 -0.457987 0
M  V30 1397 C 137.231 -1.62683 -1.21088 0
M  V30 1398 C 137.564 -0.332268 -1.91336 0
M  V30 1399 O 136.839 0.667043 -1.82704 0
M  V30 1400 C 137.122 -2.81615 -2.24422 0
M  V30 1401 C 136.975 -4.20989 -1.58392 0
M  V30 1402 C 138.294 -2.96085 -3.2561 0
M  V30 1403 H 135.413 -0.592087 -0.438864 0
M  V30 1404 H 138.055 -1.83225 -0.50286 0
M  V30 1405 H 136.205 -2.64231 -2.84806 0
M  V30 1406 H 137.877 -4.49994 -1.01504 0
M  V30 1407 H 136.12 -4.24641 -0.886704 0
M  V30 1408 H 136.791 -5.0016 -2.33547 0
M  V30 1409 H 139.267 -3.12042 -2.75262 0
M  V30 1410 H 138.143 -3.80902 -3.95228 0
M  V30 1411 H 138.404 -2.0726 -3.90507 0
M  V30 1412 N 137.463 0.71206 -1.40597 0
M  V30 1413 C 138.393 1.83889 -1.43899 0
M  V30 1414 C 139.374 1.67442 -0.299504 0
M  V30 1415 O 140.559 1.87421 -0.508624 0
M  V30 1416 C 137.689 3.21877 -1.30431 0
M  V30 1417 C 136.643 3.53002 -2.42019 0
M  V30 1418 C 135.969 4.90172 -2.13626 0
M  V30 1419 C 137.269 3.53643 -3.84362 0
M  V30 1420 H 138.963 1.81383 -2.38203 0
M  V30 1421 H 136.509 0.871237 -1.14654 0
M  V30 1422 H 138.462 4.00404 -1.31357 0
M  V30 1423 H 137.186 3.24968 -0.326049 0
M  V30 1424 H 135.845 2.76818 -2.40349 0
M  V30 1425 H 135.493 4.89869 -1.14182 0
M  V30 1426 H 135.193 5.11962 -2.88389 0
M  V30 1427 H 136.717 5.71028 -2.1624 0
M  V30 1428 H 138.131 4.22203 -3.87837 0
M  V30 1429 H 136.528 3.86961 -4.58673 0
M  V30 1430 H 137.598 2.52954 -4.13693 0
M  V30 1431 N 138.941 1.26152 0.944643 0
M  V30 1432 C 139.871 1.09902 2.06019 0
M  V30 1433 C 140.852 0.00519538 1.70099 0
M  V30 1434 O 142.037 0.176583 1.93396 0
M  V30 1435 C 139.167 0.727562 3.39594 0
M  V30 1436 C 138.121 1.77274 3.89561 0
M  V30 1437 C 137.447 1.25569 5.19747 0
M  V30 1438 C 138.747 3.17357 4.14827 0
M  V30 1439 H 140.441 2.03217 2.19871 0
M  V30 1440 H 137.987 0.978452 1.05652 0
M  V30 1441 H 139.94 0.600777 4.17095 0
M  V30 1442 H 138.664 -0.241287 3.25707 0
M  V30 1443 H 137.323 1.88814 3.14237 0
M  V30 1444 H 136.971 0.276783 5.02238 0
M  V30 1445 H 136.671 1.95433 5.54148 0
M  V30 1446 H 138.195 1.1415 5.99835 0
M  V30 1447 H 139.609 3.08914 4.82954 0
M  V30 1448 H 138.006 3.84781 4.60504 0
M  V30 1449 H 139.076 3.63673 3.20734 0
M  V30 1450 N 140.419 -1.14872 1.07899 0
M  V30 1451 C 141.351 -2.19425 0.662231 0
M  V30 1452 C 142.364 -1.60231 -0.288079 0
M  V30 1453 O 143.553 -1.78336 -0.076534 0
M  V30 1454 C 140.653 -3.38867 -0.0470695 0
M  V30 1455 C 139.826 -4.27597 0.920831 0
M  V30 1456 C 138.885 -5.25616 0.247805 0
M  V30 1457 O 137.911 -5.62189 0.890599 0
M  V30 1458 N 139.113 -5.71746 -1.00435 0
M  V30 1459 H 141.878 -2.55797 1.56166 0
M  V30 1460 H 139.439 -1.30042 0.964404 0
M  V30 1461 H 141.431 -4.01497 -0.50813 0
M  V30 1462 H 140.001 -3.00864 -0.848523 0
M  V30 1463 H 139.221 -3.61982 1.56087 0
M  V30 1464 H 140.509 -4.83748 1.57688 0
M  V30 1465 H 139.907 -5.44153 -1.54642 0
M  V30 1466 H 138.464 -6.36389 -1.40899 0
M  V30 1467 N 141.898 -0.863906 -1.31812 0
M  V30 1468 C 143.123 -0.48527 -2.01643 0
M  V30 1469 C 143.548 0.913058 -1.64453 0
M  V30 1470 O 142.906 1.6014 -0.849985 0
M  V30 1471 C 142.954 -0.642625 -3.54828 0
M  V30 1472 O 142.058 0.320659 -4.11151 0
M  V30 1473 H 141.399 -0.193793 -0.635091 0
M  V30 1474 H 143.929 -1.16565 -1.68148 0
M  V30 1475 H 143.939 -0.533628 -4.04495 0
M  V30 1476 H 142.614 -1.66227 -3.81237 0
M  V30 1477 H 141.191 0.167126 -3.72525 0
M  V30 1478 N 143.376 1.44774 -0.622745 0
M  V30 1479 C 144.306 2.33382 0.0741861 0
M  V30 1480 C 145.287 1.47719 0.843387 0
M  V30 1481 O 146.472 1.76458 0.810934 0
M  V30 1482 C 143.602 3.30663 1.06204 0
M  V30 1483 C 142.556 4.26079 0.405037 0
M  V30 1484 C 141.882 5.13165 1.5022 0
M  V30 1485 C 143.182 5.1781 -0.683414 0
M  V30 1486 H 144.876 2.91905 -0.665713 0
M  V30 1487 H 142.422 1.40363 -0.321587 0
M  V30 1488 H 144.375 3.9153 1.55827 0
M  V30 1489 H 143.099 2.70331 1.83272 0
M  V30 1490 H 141.758 3.66532 -0.0704683 0
M  V30 1491 H 141.406 4.49191 2.26355 0
M  V30 1492 H 141.106 5.77812 1.06803 0
M  V30 1493 H 142.63 5.76902 2.00041 0
M  V30 1494 H 144.044 5.72661 -0.270631 0
M  V30 1495 H 142.441 5.91015 -1.04023 0
M  V30 1496 H 143.511 4.59326 -1.55395 0
M  V30 1497 N 144.854 0.36279 1.53368 0
M  V30 1498 C 146.1 -0.228113 2.01513 0
M  V30 1499 C 146.433 -1.48648 1.2497 0
M  V30 1500 O 145.708 -1.91459 0.342616 0
M  V30 1501 C 145.991 -0.522884 3.56284 0
M  V30 1502 C 145.844 0.74892 4.43521 0
M  V30 1503 C 147.163 -1.32461 4.19693 0
M  V30 1504 H 144.282 -0.0814343 0.732487 0
M  V30 1505 H 146.924 0.48713 1.83649 0
M  V30 1506 H 145.074 -1.1322 3.71636 0
M  V30 1507 H 146.746 1.38648 4.39971 0
M  V30 1508 H 144.989 1.36986 4.11603 0
M  V30 1509 H 145.66 0.497667 5.49752 0
M  V30 1510 H 148.136 -0.809203 4.08156 0
M  V30 1511 H 147.012 -1.49961 5.28018 0
M  V30 1512 H 147.273 -2.33232 3.75573 0
M  V30 1513 N 146.332 -1.57332 0.0918853 0
M  V30 1514 C 147.58 -1.93853 -0.571446 0
M  V30 1515 C 147.901 -0.974212 -1.6892 0
M  V30 1516 O 147.171 -0.0257254 -1.95883 0
M  V30 1517 H 145.751 -0.715666 -0.214082 0
M  V30 1518 H 148.413 -1.94287 0.154464 0
M  V30 1519 H 147.509 -2.96191 -0.983729 0
M  V30 1520 N 147.81 0.181792 -1.56548 0
M  V30 1521 C 149.221 0.745244 -1.71181 0
M  V30 1522 C 149.572 1.83262 -0.70068 0
M  V30 1523 O 148.697 2.15946 0.140154 0
M  V30 1524 C 149.292 1.35859 -3.10367 0
M  V30 1525 C 147.851 1.86898 -3.2672 0
M  V30 1526 C 146.998 0.743942 -2.67134 0
M  V30 1527 H 149.949 -0.0434661 -1.5864 0
M  V30 1528 H 149.97 2.22817 -3.08436 0
M  V30 1529 H 149.482 0.566948 -3.83937 0
M  V30 1530 H 147.583 2.68738 -2.5809 0
M  V30 1531 H 147.696 2.02162 -4.34359 0
M  V30 1532 H 146.06 1.16169 -2.26665 0
M  V30 1533 H 146.843 -0.035676 -3.43281 0
M  V30 1534 N 149.288 1.51039 0.449983 0
M  V30 1535 C 150.536 1.62759 1.19808 0
M  V30 1536 C 150.857 0.339981 1.92013 0
M  V30 1537 O 150.127 -0.643606 1.85026 0
M  V30 1538 H 148.707 0.599811 0.445237 0
M  V30 1539 H 151.369 1.87914 0.517138 0
M  V30 1540 H 150.465 2.44911 1.93455 0
M  V30 1541 N 150.766 -0.704594 1.40972 0
M  V30 1542 C 152.043 -1.45847 1.30338 0
M  V30 1543 C 152.423 -2.10973 -0.0732344 0
M  V30 1544 O 151.771 -2.00997 -1.08685 0
M  V30 1545 C 151.981 -2.48525 2.45023 0
M  V30 1546 C 153.329 -3.1404 2.8577 0
M  V30 1547 O 154.353 -2.58848 2.44696 0
M  V30 1548 O 153.212 -4.13981 3.56766 0
M  V30 1549 H 150.306 -0.649092 0.512454 0
M  V30 1550 H 152.852 -0.735836 1.52917 0
M  V30 1551 H 151.624 -1.98994 3.36923 0
M  V30 1552 H 151.247 -3.2831 2.24272 0
M  V30 1553 N 152.244 -1.26651 -0.937939 0
M  V30 1554 C 153.154 -1.10276 -2.07066 0
M  V30 1555 C 154.17 -0.0354197 -1.73964 0
M  V30 1556 O 155.346 -0.239816 -1.99967 0
M  V30 1557 C 152.411 -0.740887 -3.38691 0
M  V30 1558 C 151.472 -1.88799 -3.85556 0
M  V30 1559 C 150.705 -1.54329 -5.10899 0
M  V30 1560 O 150.928 -0.446494 -5.6865 0
M  V30 1561 O 149.862 -2.37911 -5.52885 0
M  V30 1562 H 153.688 -2.05309 -2.23789 0
M  V30 1563 H 151.273 -1.05743 -1.0554 0
M  V30 1564 H 153.155 -0.55195 -4.1777 0
M  V30 1565 H 151.83 0.180022 -3.23199 0
M  V30 1566 H 150.737 -2.13191 -3.07409 0
M  V30 1567 H 152.07 -2.78874 -4.05574 0
M  V30 1568 N 153.722 1.14298 -1.08507 0
M  V30 1569 C 154.968 1.85633 -0.816581 0
M  V30 1570 C 155.301 1.82784 0.656021 0
M  V30 1571 O 154.576 1.25926 1.48233 0
M  V30 1572 C 154.859 3.34223 -1.34041 0
M  V30 1573 C 154.712 3.45639 -2.87843 0
M  V30 1574 C 156.031 4.29356 -0.9665 0
M  V30 1575 H 153.15 0.67402 -0.298104 0
M  V30 1576 H 155.792 1.34214 -1.34487 0
M  V30 1577 H 153.942 3.78144 -0.89104 0
M  V30 1578 H 155.614 3.10498 -3.41158 0
M  V30 1579 H 153.857 2.86817 -3.25451 0
M  V30 1580 H 154.528 4.50089 -3.19569 0
M  V30 1581 H 157.004 3.93457 -1.35391 0
M  V30 1582 H 155.88 5.3178 -1.3602 0
M  V30 1583 H 156.141 4.41919 0.126362 0
M  V30 1584 N 155.201 0.870884 1.31352 0
M  V30 1585 C 156.447 0.482987 1.96965 0
M  V30 1586 C 156.78 -0.962462 1.68672 0
M  V30 1587 O 156.055 -1.6779 0.98371 0
M  V30 1588 C 156.338 0.741752 3.52378 0
M  V30 1589 C 156.191 2.2368 3.9024 0
M  V30 1590 C 157.51 0.208838 4.39604 0
M  V30 1591 H 154.629 0.176955 0.715441 0
M  V30 1592 H 157.271 1.09229 1.55464 0
M  V30 1593 H 155.421 0.223149 3.87859 0
M  V30 1594 H 157.093 2.82273 3.64856 0
M  V30 1595 H 155.336 2.70901 3.38814 0
M  V30 1596 H 156.007 2.3685 4.98604 0
M  V30 1597 H 158.483 0.652529 4.10952 0
M  V30 1598 H 157.359 0.419336 5.47296 0
M  V30 1599 H 157.62 -0.889275 4.33064 0
M  V30 1600 N 156.679 -1.44442 0.630414 0
M  V30 1601 C 157.925 -2.02351 0.134816 0
M  V30 1602 C 158.258 -1.4947 -1.23986 0
M  V30 1603 O 157.533 -0.678475 -1.82283 0
M  V30 1604 C 157.816 -3.59898 0.120707 0
M  V30 1605 C 157.669 -4.23063 1.52767 0
M  V30 1606 C 158.988 -4.36585 -0.555127 0
M  V30 1607 H 156.107 -0.73527 0.0504646 0
M  V30 1608 H 158.749 -1.72022 0.806751 0
M  V30 1609 H 156.899 -3.85868 -0.451477 0
M  V30 1610 H 158.571 -4.08202 2.14869 0
M  V30 1611 H 156.814 -3.80586 2.08175 0
M  V30 1612 H 157.485 -5.32071 1.46984 0
M  V30 1613 H 159.961 -4.16044 -0.0685429 0
M  V30 1614 H 158.837 -5.46294 -0.534185 0
M  V30 1615 H 159.098 -4.11138 -1.62535 0
M  V30 1616 N 158.157 -0.370918 -1.53173 0
M  V30 1617 C 159.087 0.464847 -2.28826 0
M  V30 1618 C 160.068 1.07936 -1.31468 0
M  V30 1619 O 161.253 1.0956 -1.60344 0
M  V30 1620 C 158.383 1.60196 -3.08147 0
M  V30 1621 C 157.337 1.11443 -4.13237 0
M  V30 1622 C 156.663 2.3422 -4.80672 0
M  V30 1623 C 157.963 0.195384 -5.21934 0
M  V30 1624 H 159.657 -0.166329 -2.98938 0
M  V30 1625 H 157.203 -0.0814359 -1.4377 0
M  V30 1626 H 159.156 2.19332 -3.59822 0
M  V30 1627 H 157.88 2.26045 -2.35735 0
M  V30 1628 H 156.539 0.545727 -3.62515 0
M  V30 1629 H 156.187 2.98537 -4.04827 0
M  V30 1630 H 155.887 2.02269 -5.51689 0
M  V30 1631 H 157.411 2.94032 -5.35143 0
M  V30 1632 H 158.825 0.694375 -5.69079 0
M  V30 1633 H 157.222 -0.0335027 -6.00091 0
M  V30 1634 H 158.292 -0.760961 -4.78892 0
M  V30 1635 N 159.635 1.57281 -0.100228 0
M  V30 1636 C 160.545 2.17833 0.870965 0
M  V30 1637 C 161.561 1.14921 1.30649 0
M  V30 1638 O 162.737 1.47313 1.37335 0
M  V30 1639 C 159.802 2.75085 2.1102 0
M  V30 1640 C 158.863 3.9297 1.72838 0
M  V30 1641 C 158.096 4.47482 2.90854 0
M  V30 1642 O 158.319 4.00922 4.05731 0
M  V30 1643 O 157.253 5.38433 2.69023 0
M  V30 1644 H 161.079 3.0124 0.38575 0
M  V30 1645 H 158.664 1.48881 0.124397 0
M  V30 1646 H 160.546 3.11656 2.83634 0
M  V30 1647 H 159.221 1.94721 2.58584 0
M  V30 1648 H 158.128 3.61201 0.973883 0
M  V30 1649 H 159.461 4.74713 1.30033 0
M  V30 1650 N 161.113 -0.173488 1.56642 0
M  V30 1651 C 162.524 -0.736155 1.71574 0
M  V30 1652 C 162.875 -1.82888 0.710389 0
M  V30 1653 O 162 -2.16017 -0.1287 0
M  V30 1654 C 162.595 -1.34211 3.11083 0
M  V30 1655 C 161.154 -1.85162 3.27707 0
M  V30 1656 C 160.301 -0.729765 2.67525 0
M  V30 1657 H 163.252 0.0518786 1.58615 0
M  V30 1658 H 163.273 -2.21178 3.09613 0
M  V30 1659 H 162.785 -0.546579 3.84232 0
M  V30 1660 H 160.886 -2.67366 2.59512 0
M  V30 1661 H 160.999 -1.99855 4.35425 0
M  V30 1662 H 159.363 -1.14965 2.27278 0
M  V30 1663 H 160.146 0.0538806 3.43258 0
M  V30 1664 N 162.591 -1.51276 -0.441967 0
M  V30 1665 C 163.838 -1.63715 -1.19179 0
M  V30 1666 C 164.166 -0.351175 -1.91303 0
M  V30 1667 O 163.421 0.664524 -1.84072 0
M  V30 1668 C 163.72 -2.78746 -2.23686 0
M  V30 1669 C 163.386 -4.18189 -1.68607 0
M  V30 1670 C 162.048 -4.56125 -1.53308 0
M  V30 1671 C 164.4 -5.05222 -1.28062 0
M  V30 1672 C 161.728 -5.78804 -0.959317 0
M  V30 1673 C 164.08 -6.28476 -0.721162 0
M  V30 1674 C 162.744 -6.65188 -0.55504 0
M  V30 1675 H 162.014 -0.599076 -0.436106 0
M  V30 1676 H 164.661 -1.85296 -0.48351 0
M  V30 1677 H 162.966 -2.51369 -3.00535 0
M  V30 1678 H 164.663 -2.8557 -2.81515 0
M  V30 1679 H 161.253 -3.88277 -1.8149 0
M  V30 1680 H 165.437 -4.76524 -1.38704 0
M  V30 1681 H 160.693 -6.05899 -0.81833 0
M  V30 1682 H 164.867 -6.95259 -0.398458 0
M  V30 1683 H 162.494 -7.60123 -0.108311 0
M  V30 1684 N 164.069 0.697108 -1.41344 0
M  V30 1685 C 165.316 1.45714 -1.40619 0
M  V30 1686 C 165.644 1.94494 -0.0147907 0
M  V30 1687 O 164.899 1.69794 0.973066 0
M  V30 1688 C 165.198 2.68553 -2.35826 0
M  V30 1689 C 164.864 2.38438 -3.82698 0
M  V30 1690 C 163.526 2.29936 -4.22709 0
M  V30 1691 C 165.878 2.13567 -4.75435 0
M  V30 1692 C 163.206 1.94656 -5.53467 0
M  V30 1693 C 165.558 1.79797 -6.06511 0
M  V30 1694 C 164.222 1.69789 -6.45545 0
M  V30 1695 H 163.492 0.533206 -0.51456 0
M  V30 1696 H 166.139 0.796901 -1.74131 0
M  V30 1697 H 164.444 3.39503 -1.95563 0
M  V30 1698 H 166.141 3.2669 -2.32539 0
M  V30 1699 H 162.731 2.4595 -3.51008 0
M  V30 1700 H 166.915 2.19082 -4.45328 0
M  V30 1701 H 162.171 1.8546 -5.82593 0
M  V30 1702 H 166.345 1.59572 -6.77872 0
M  V30 1703 H 163.972 1.4222 -7.46778 0
M  V30 1704 N 165.547 1.27147 0.931209 0
M  V30 1705 C 166.824 1.0401 1.65654 0
M  V30 1706 C 167.204 -0.426297 2.06751 0
M  V30 1707 O 166.552 -1.40879 1.79904 0
M  V30 1708 C 166.762 1.99834 2.86125 0
M  V30 1709 C 168.11 2.29007 3.57549 0
M  V30 1710 O 169.134 1.97779 2.96246 0
M  V30 1711 O 167.993 2.82222 4.67989 0
M  V30 1712 H 165.087 0.396239 0.725895 0
M  V30 1713 H 167.633 1.38397 0.982056 0
M  V30 1714 H 166.405 2.98744 2.52721 0
M  V30 1715 H 166.028 1.65987 3.61295 0
M  V30 1716 N 167.025 -1.13721 1.09112 0
M  V30 1717 C 168.271 -1.85198 0.826414 0
M  V30 1718 C 168.604 -1.83129 -0.646319 0
M  V30 1719 O 167.879 -1.2671 -1.47563 0
M  V30 1720 C 168.162 -3.33507 1.35812 0
M  V30 1721 C 168.015 -3.44108 2.89672 0
M  V30 1722 C 169.334 -4.28838 0.989256 0
M  V30 1723 H 166.453 -0.67243 0.301675 0
M  V30 1724 H 169.095 -1.33499 1.35197 0
M  V30 1725 H 167.245 -3.77666 0.911082 0
M  V30 1726 H 168.917 -3.08684 3.428 0
M  V30 1727 H 167.16 -2.85087 3.26967 0
M  V30 1728 H 167.831 -4.48388 3.21951 0
M  V30 1729 H 170.307 -3.92734 1.37475 0
M  V30 1730 H 169.183 -5.31051 1.38838 0
M  V30 1731 H 169.444 -4.4198 -0.102924 0
M  V30 1732 N 168.503 -0.877838 -1.30888 0
M  V30 1733 C 169.733 -0.506678 -2.00291 0
M  V30 1734 C 170.141 0.907449 -1.66018 0
M  V30 1735 O 169.484 1.60719 -0.88967 0
M  V30 1736 C 169.546 -0.59323 -3.54572 0
M  V30 1737 C 169.21 -1.97038 -4.12341 0
M  V30 1738 C 170.207 -2.93889 -4.28865 0
M  V30 1739 C 167.892 -2.27383 -4.47886 0
M  V30 1740 C 169.886 -4.19224 -4.80136 0
M  V30 1741 C 167.573 -3.52965 -4.98857 0
M  V30 1742 C 168.571 -4.48701 -5.14934 0
M  V30 1743 O 168.259 -5.72056 -5.64808 0
M  V30 1744 H 167.991 -0.1951 -0.647234 0
M  V30 1745 H 170.545 -1.18301 -1.6791 0
M  V30 1746 H 168.775 0.140057 -3.86446 0
M  V30 1747 H 170.464 -0.234372 -4.05223 0
M  V30 1748 H 171.23 -2.71756 -4.01714 0
M  V30 1749 H 167.109 -1.53639 -4.34645 0
M  V30 1750 H 170.653 -4.93956 -4.92599 0
M  V30 1751 H 166.55 -3.74939 -5.25443 0
M  V30 1752 H 167.318 -5.74337 -5.83163 0
M  V30 1753 N 169.982 1.44106 -0.638065 0
M  V30 1754 C 170.912 2.33448 0.0494287 0
M  V30 1755 C 171.893 1.48606 0.827672 0
M  V30 1756 O 173.078 1.77308 0.792173 0
M  V30 1757 C 170.208 3.31771 1.02691 0
M  V30 1758 C 169.162 4.26485 0.359823 0
M  V30 1759 C 168.488 5.14729 1.44769 0
M  V30 1760 C 169.788 5.17056 -0.738296 0
M  V30 1761 H 171.482 2.91183 -0.696636 0
M  V30 1762 H 169.028 1.40014 -0.336456 0
M  V30 1763 H 170.981 3.93161 1.51666 0
M  V30 1764 H 169.705 2.7226 1.80395 0
M  V30 1765 H 168.364 3.66437 -0.10934 0
M  V30 1766 H 168.012 4.51566 2.21578 0
M  V30 1767 H 167.712 5.78913 1.00668 0
M  V30 1768 H 169.236 5.78991 1.93911 0
M  V30 1769 H 170.65 5.72342 -0.331354 0
M  V30 1770 H 169.047 5.89879 -1.10286 0
M  V30 1771 H 170.117 4.57652 -1.60258 0
M  V30 1772 N 171.46 0.379036 1.52974 0
M  V30 1773 C 172.871 -0.0972525 1.86447 0
M  V30 1774 C 173.222 -1.47027 1.29914 0
M  V30 1775 O 172.347 -2.07135 0.626433 0
M  V30 1776 C 172.942 -0.183248 3.38304 0
M  V30 1777 C 171.501 -0.603812 3.71525 0
M  V30 1778 C 170.648 0.240632 2.76254 0
M  V30 1779 H 173.599 0.597316 1.4703 0
M  V30 1780 H 173.62 -1.00432 3.67006 0
M  V30 1781 H 173.132 0.816191 3.79421 0
M  V30 1782 H 171.233 -1.61099 3.35973 0
M  V30 1783 H 171.346 -0.369086 4.77676 0
M  V30 1784 H 169.71 -0.292548 2.53014 0
M  V30 1785 H 170.493 1.23786 3.20206 0
M  V30 1786 N 172.938 -1.57226 0.108567 0
M  V30 1787 C 174.215 -1.86333 -0.594939 0
M  V30 1788 C 174.595 -1.00788 -1.85486 0
M  V30 1789 O 173.943 -0.0839293 -2.28346 0
M  V30 1790 C 174.153 -3.37265 -0.897405 0
M  V30 1791 C 175.501 -4.05629 -1.25501 0
M  V30 1792 O 176.525 -3.42224 -0.987998 0
M  V30 1793 O 175.384 -5.17531 -1.75567 0
M  V30 1794 H 172.478 -0.771018 -0.2991 0
M  V30 1795 H 175.024 -1.69102 0.142283 0
M  V30 1796 H 173.796 -3.913 -0.00413806 0
M  V30 1797 H 173.419 -3.59889 -1.69014 0
M  V30 1798 N 174.416 0.165178 -1.56732 0
M  V30 1799 C 175.379 1.18822 -1.95995 0
M  V30 1800 C 176.379 1.3685 -0.84431 0
M  V30 1801 O 177.569 1.34152 -1.11126 0
M  V30 1802 C 174.701 2.5521 -2.26011 0
M  V30 1803 H 175.894 0.851825 -2.87548 0
M  V30 1804 H 173.447 0.407857 -1.50885 0
M  V30 1805 H 174.182 2.93852 -1.37191 0
M  V30 1806 H 173.967 2.43489 -3.07336 0
M  V30 1807 H 175.457 3.28927 -2.57288 0
M  V30 1808 N 175.894 1.51508 0.433938 0
M  V30 1809 C 177.141 1.64345 1.18309 0
M  V30 1810 C 177.469 0.361315 1.91115 0
M  V30 1811 O 176.724 -0.654753 1.84422 0
M  V30 1812 C 177.023 2.79928 2.22205 0
M  V30 1813 C 176.689 4.19078 1.66387 0
M  V30 1814 C 175.351 4.56932 1.50887 0
M  V30 1815 C 177.703 5.05894 1.25381 0
M  V30 1816 C 175.031 5.79305 0.928608 0
M  V30 1817 C 177.383 6.2885 0.687823 0
M  V30 1818 C 176.047 6.65473 0.519755 0
M  V30 1819 H 175.317 0.601381 0.432923 0
M  V30 1820 H 177.964 1.85549 0.473676 0
M  V30 1821 H 176.269 2.52959 2.99197 0
M  V30 1822 H 177.966 2.87059 2.79997 0
M  V30 1823 H 174.556 3.89234 1.79428 0
M  V30 1824 H 178.74 4.77253 1.36175 0
M  V30 1825 H 173.996 6.06324 0.786186 0
M  V30 1826 H 178.17 6.95461 0.361581 0
M  V30 1827 H 175.797 7.6017 0.0679979 0
M  V30 1828 N 177.372 -0.689602 1.41712 0
M  V30 1829 C 178.302 -1.81577 1.46806 0
M  V30 1830 C 179.283 -1.66945 0.326105 0
M  V30 1831 O 180.468 -1.86588 0.538377 0
M  V30 1832 C 177.598 -3.19762 1.35535 0
M  V30 1833 C 176.552 -3.49107 2.47605 0
M  V30 1834 C 175.878 -4.86711 2.21397 0
M  V30 1835 C 177.178 -3.47483 3.89939 0
M  V30 1836 H 178.872 -1.7757 2.41058 0
M  V30 1837 H 176.418 -0.852887 1.16025 0
M  V30 1838 H 178.371 -3.98263 1.3771 0
M  V30 1839 H 177.095 -3.24409 0.377708 0
M  V30 1840 H 175.754 -2.72959 2.44722 0
M  V30 1841 H 175.402 -4.8799 1.21961 0
M  V30 1842 H 175.102 -5.0731 2.96497 0
M  V30 1843 H 176.626 -5.67515 2.25297 0
M  V30 1844 H 178.04 -4.1598 3.94505 0
M  V30 1845 H 176.437 -3.79615 4.64771 0
M  V30 1846 H 177.507 -2.46341 4.17665 0
M  V30 1847 N 178.85 -1.27639 -0.924453 0
M  V30 1848 C 179.813 -1.10681 -2.00705 0
M  V30 1849 C 180.813 -0.0497823 -1.60723 0
M  V30 1850 O 182.003 -0.294654 -1.7169 0
M  V30 1851 C 179.135 -0.687164 -3.33902 0
M  V30 1852 H 180.328 -2.06817 -2.17179 0
M  V30 1853 H 177.881 -1.10473 -1.10569 0
M  V30 1854 H 178.616 0.275439 -3.23128 0
M  V30 1855 H 178.401 -1.45061 -3.6428 0
M  V30 1856 H 179.891 -0.590853 -4.13399 0
M  V30 1857 N 180.328 1.1314 -1.09713 0
M  V30 1858 C 181.576 1.84119 -0.833338 0
M  V30 1859 C 181.897 1.84097 0.642904 0
M  V30 1860 O 181.167 1.29881 1.46655 0
M  V30 1861 H 179.747 0.681766 -0.305293 0
M  V30 1862 H 182.409 1.37038 -1.38588 0
M  V30 1863 H 181.505 2.88543 -1.18951 0
M  V30 1864 N 181.806 0.884767 1.30421 0
M  V30 1865 C 182.769 0.356277 2.26414 0
M  V30 1866 C 183.769 -0.501124 1.52792 0
M  V30 1867 O 184.959 -0.30831 1.7145 0
M  V30 1868 C 182.091 -0.492316 3.37326 0
M  V30 1869 H 183.284 1.20389 2.74675 0
M  V30 1870 H 180.837 0.661607 1.41607 0
M  V30 1871 H 181.572 -1.36052 2.94381 0
M  V30 1872 H 181.357 0.121832 3.91911 0
M  V30 1873 H 182.847 -0.853871 4.08777 0
M  V30 1874 N 183.284 -1.43765 0.645699 0
M  V30 1875 C 184.231 -2.30745 -0.0504648 0
M  V30 1876 C 185.201 -1.4432 -0.822241 0
M  V30 1877 O 186.386 -1.73202 -0.800358 0
M  V30 1878 C 183.526 -3.29802 -1.0161 0
M  V30 1879 C 182.639 -4.31326 -0.241219 0
M  V30 1880 C 181.774 -5.17469 -1.19998 0
M  V30 1881 C 180.813 -6.10691 -0.415094 0
M  V30 1882 N 179.95 -6.89483 -1.32506 0
M  V30 1883 H 184.79 -2.8973 0.697155 0
M  V30 1884 H 182.327 -1.42738 0.355563 0
M  V30 1885 H 184.285 -3.85734 -1.58949 0
M  V30 1886 H 182.915 -2.72483 -1.73069 0
M  V30 1887 H 181.967 -3.77749 0.448334 0
M  V30 1888 H 183.279 -4.9743 0.369437 0
M  V30 1889 H 182.433 -5.7799 -1.84424 0
M  V30 1890 H 181.172 -4.51473 -1.84455 0
M  V30 1891 H 180.177 -5.49265 0.242565 0
M  V30 1892 H 181.402 -6.78727 0.224966 0
M  V30 1893 H 179.348 -6.26142 -1.95657 0
M  V30 1894 H 179.265 -7.52081 -0.768783 0
M  V30 1895 H 180.533 -7.54516 -1.9577 0
M  V30 1896 N 184.763 -0.387143 -1.52771 0
M  V30 1897 C 185.726 0.436939 -2.24997 0
M  V30 1898 C 186.726 0.991991 -1.26555 0
M  V30 1899 O 187.916 0.874335 -1.50669 0
M  V30 1900 C 185.048 1.61281 -3.00335 0
M  V30 1901 H 186.241 -0.195365 -2.99263 0
M  V30 1902 H 183.794 -0.139218 -1.55679 0
M  V30 1903 H 184.529 2.2826 -2.30364 0
M  V30 1904 H 184.314 1.22154 -3.72587 0
M  V30 1905 H 185.804 2.19629 -3.5518 0
M  V30 1906 N 186.241 1.57166 -0.116904 0
M  V30 1907 C 187.657 1.5779 0.239693 0
M  V30 1908 C 187.857 1.1295 1.66867 0
M  V30 1909 O 186.913 0.81592 2.38954 0
M  V30 1910 C 188.226 3.00699 0.00828202 0
M  V30 1911 C 189.774 3.12912 0.0743438 0
M  V30 1912 C 190.249 4.57817 -0.129348 0
M  V30 1913 N 191.74 4.63139 -0.075247 0
M  V30 1914 C 192.475 5.73023 -0.207788 0
M  V30 1915 N 191.971 6.91665 -0.396382 0
M  V30 1916 N 193.764 5.61906 -0.14751 0
M  V30 1917 H 185.915 1.84615 -1.05029 0
M  V30 1918 H 188.178 0.85311 -0.41341 0
M  V30 1919 H 187.884 3.37784 -0.979531 0
M  V30 1920 H 187.758 3.69848 0.741077 0
M  V30 1921 H 190.145 2.75686 1.05268 0
M  V30 1922 H 190.226 2.4631 -0.690297 0
M  V30 1923 H 189.87 4.95742 -1.10465 0
M  V30 1924 H 189.8 5.22507 0.655253 0
M  V30 1925 H 192.291 3.7784 0.0670898 0
M  V30 1926 H 192.604 7.71255 -0.488437 0
M  V30 1927 H 190.949 6.93654 -0.432329 0
M  V30 1928 H 194.14 4.681 -0.00115036 0
M  V30 1929 H 194.313 6.47501 -0.254247 0
M  V30 1930 N 187.719 -0.156864 1.56817 0
M  V30 1931 C 188.649 -1.19589 2.00551 0
M  V30 1932 C 189.63 -1.4536 0.883426 0
M  V30 1933 O 190.815 -1.56449 1.15054 0
M  V30 1934 C 187.945 -2.53143 2.37773 0
M  V30 1935 C 186.899 -2.41913 3.53075 0
M  V30 1936 C 186.225 -3.80088 3.76081 0
M  V30 1937 C 187.525 -1.91157 4.86062 0
M  V30 1938 H 189.219 -0.832293 2.87599 0
M  V30 1939 H 186.765 -0.398918 1.38364 0
M  V30 1940 H 188.718 -3.26047 2.66967 0
M  V30 1941 H 187.442 -2.91319 1.4765 0
M  V30 1942 H 186.101 -1.71462 3.24031 0
M  V30 1943 H 185.749 -4.15683 2.83225 0
M  V30 1944 H 185.449 -3.73439 4.53671 0
M  V30 1945 H 186.973 -4.54556 4.0769 0
M  V30 1946 H 188.387 -2.53846 5.14038 0
M  V30 1947 H 186.784 -1.95422 5.67389 0
M  V30 1948 H 187.854 -0.866673 4.77092 0
M  V30 1949 N 189.197 -1.51736 -0.425897 0
M  V30 1950 C 190.443 -1.65214 -1.1761 0
M  V30 1951 C 190.776 -0.372778 -1.90589 0
M  V30 1952 O 190.051 0.628139 -1.84078 0
M  V30 1953 C 190.334 -2.86312 -2.18398 0
M  V30 1954 C 190.187 -4.24254 -1.49426 0
M  V30 1955 C 191.506 -3.02925 -3.19256 0
M  V30 1956 H 188.625 -0.601263 -0.426206 0
M  V30 1957 H 191.267 -1.8425 -0.463882 0
M  V30 1958 H 189.417 -2.70213 -2.79137 0
M  V30 1959 H 191.089 -4.52046 -0.919362 0
M  V30 1960 H 189.332 -4.26426 -0.796432 0
M  V30 1961 H 190.003 -5.05001 -2.22885 0
M  V30 1962 H 192.479 -3.1781 -2.68581 0
M  V30 1963 H 191.355 -3.89199 -3.8706 0
M  V30 1964 H 191.616 -2.15497 -3.86023 0
M  V30 1965 N 190.675 0.682077 -1.42076 0
M  V30 1966 C 192.091 0.994324 -1.24841 0
M  V30 1967 C 192.291 2.0096 -0.147389 0
M  V30 1968 O 191.347 2.47822 0.483782 0
M  V30 1969 C 192.66 1.50607 -2.60265 0
M  V30 1970 C 194.208 1.62421 -2.6756 0
M  V30 1971 C 194.683 2.16994 -4.03333 0
M  V30 1972 N 196.174 2.24337 -4.0525 0
M  V30 1973 C 196.909 2.67621 -5.07116 0
M  V30 1974 N 196.405 3.1041 -6.19368 0
M  V30 1975 N 198.198 2.67305 -4.94474 0
M  V30 1976 H 190.349 0.00973908 -2.12398 0
M  V30 1977 H 192.612 0.0668593 -0.945639 0
M  V30 1978 H 192.318 0.834583 -3.41654 0
M  V30 1979 H 192.192 2.48602 -2.83684 0
M  V30 1980 H 194.579 2.28678 -1.86521 0
M  V30 1981 H 194.66 0.629352 -2.47937 0
M  V30 1982 H 194.304 1.51349 -4.84826 0
M  V30 1983 H 194.234 3.17258 -4.20304 0
M  V30 1984 H 196.725 1.94158 -3.24209 0
M  V30 1985 H 197.038 3.42103 -6.92954 0
M  V30 1986 H 195.383 3.08286 -6.22884 0
M  V30 1987 H 198.574 2.33233 -4.05857 0
M  V30 1988 H 198.747 3.00718 -5.73997 0
M  V30 1989 N 192.153 1.28127 0.917671 0
M  V30 1990 C 193.083 1.14248 2.03641 0
M  V30 1991 C 194.064 0.0412748 1.7005 0
M  V30 1992 O 195.249 0.217566 1.92977 0
M  V30 1993 C 192.379 0.799431 3.37974 0
M  V30 1994 C 191.333 1.85497 3.85713 0
M  V30 1995 C 190.659 1.36565 5.16966 0
M  V30 1996 C 191.959 3.26085 4.08002 0
M  V30 1997 H 193.653 2.07835 2.15511 0
M  V30 1998 H 191.199 1.00064 1.03553 0
M  V30 1999 H 193.152 0.689114 4.15727 0
M  V30 2000 H 191.876 -0.172145 3.26146 0
M  V30 2001 H 190.535 1.95437 3.10161 0
M  V30 2002 H 190.183 0.383253 5.01538 0
M  V30 2003 H 189.883 2.07143 5.49878 0
M  V30 2004 H 191.407 1.26848 5.97279 0
M  V30 2005 H 192.821 3.19089 4.76293 0
M  V30 2006 H 191.218 3.94462 4.52238 0
M  V30 2007 H 192.288 3.70394 3.12948 0
M  V30 2008 N 193.631 -1.12557 1.10312 0
M  V30 2009 C 194.908 -1.80363 0.756878 0
M  V30 2010 C 195.288 -1.97067 -0.756824 0
M  V30 2011 O 194.636 -1.54601 -1.68259 0
M  V30 2012 C 194.846 -3.14812 1.50647 0
M  V30 2013 C 196.194 -3.90029 1.67817 0
M  V30 2014 O 197.218 -3.24464 1.46974 0
M  V30 2015 O 196.077 -5.07652 2.02365 0
M  V30 2016 H 193.171 -0.780667 0.272926 0
M  V30 2017 H 195.717 -1.19404 1.20586 0
M  V30 2018 H 194.489 -2.97936 2.53672 0
M  V30 2019 H 194.112 -3.83478 1.05026 0
M  V30 2020 N 195.109 -0.891671 -1.2995 0
M  V30 2021 C 196.039 -0.379797 -2.30391 0
M  V30 2022 C 197.02 0.540919 -1.6127 0
M  V30 2023 O 198.205 0.453352 -1.88834 0
M  V30 2024 C 195.335 0.400654 -3.44981 0
M  V30 2025 C 194.289 -0.428905 -4.25846 0
M  V30 2026 C 193.615 0.478557 -5.32554 0
M  V30 2027 C 194.915 -1.67458 -4.94727 0
M  V30 2028 H 196.609 -1.21914 -2.73454 0
M  V30 2029 H 194.155 -0.587675 -1.31462 0
M  V30 2030 H 196.108 0.769434 -4.14316 0
M  V30 2031 H 194.832 1.27371 -3.0074 0
M  V30 2032 H 193.491 -0.779911 -3.58208 0
M  V30 2033 H 193.139 1.34951 -4.84559 0
M  V30 2034 H 192.839 -0.0727433 -5.87555 0
M  V30 2035 H 194.363 0.843705 -6.04743 0
M  V30 2036 H 195.777 -1.376 -5.56542 0
M  V30 2037 H 194.174 -2.16659 -5.59624 0
M  V30 2038 H 195.244 -2.41518 -4.20473 0
M  V30 2039 N 196.587 1.43421 -0.653314 0
M  V30 2040 C 197.815 2.06163 -0.174491 0
M  V30 2041 C 198.23 1.48969 1.1599 0
M  V30 2042 O 197.587 0.621042 1.71608 0
M  V30 2043 C 197.638 3.61417 -0.0774865 0
M  V30 2044 O 197.359 4.16485 -1.35912 0
M  V30 2045 C 198.86 4.41235 0.427402 0
M  V30 2046 H 196.08 0.664946 -0.0899353 0
M  V30 2047 H 198.624 1.83924 -0.893988 0
M  V30 2048 H 196.779 3.82841 0.59257 0
M  V30 2049 H 197.193 5.10153 -1.21839 0
M  V30 2050 H 198.667 5.5021 0.44423 0
M  V30 2051 H 199.144 4.14268 1.45873 0
M  V30 2052 H 199.75 4.2478 -0.210167 0
M  V30 2053 N 198.065 0.39524 1.52563 0
M  V30 2054 C 199.476 -0.0774719 1.86539 0
M  V30 2055 C 199.827 -1.45641 1.31466 0
M  V30 2056 O 198.952 -2.06459 0.648367 0
M  V30 2057 C 199.547 -0.147356 3.38479 0
M  V30 2058 C 198.106 -0.564373 3.72145 0
M  V30 2059 C 197.253 0.269919 2.75983 0
M  V30 2060 H 200.204 0.612876 1.46388 0
M  V30 2061 H 200.225 -0.965343 3.68051 0
M  V30 2062 H 199.737 0.856387 3.78534 0
M  V30 2063 H 197.838 -1.57527 3.37663 0
M  V30 2064 H 197.951 -0.318402 4.78041 0
M  V30 2065 H 196.315 -0.265696 2.5331 0
M  V30 2066 H 197.098 1.27175 3.18875 0
M  V30 2067 N 199.544 -1.57102 0.125237 0
M  V30 2068 C 200.454 -2.19191 -0.8362 0
M  V30 2069 C 201.47 -1.16985 -1.28805 0
M  V30 2070 O 202.646 -1.49479 -1.34974 0
M  V30 2071 C 199.711 -2.78407 -2.06617 0
M  V30 2072 C 198.772 -3.9567 -1.66565 0
M  V30 2073 C 198.005 -4.52052 -2.83698 0
M  V30 2074 O 198.228 -4.07326 -3.99302 0
M  V30 2075 O 197.162 -5.42645 -2.60423 0
M  V30 2076 H 200.988 -3.01816 -0.337776 0
M  V30 2077 H 198.573 -1.4906 -0.100695 0
M  V30 2078 H 200.455 -3.16129 -2.7864 0
M  V30 2079 H 199.13 -1.9881 -2.55453 0
M  V30 2080 H 198.037 -3.62705 -0.916296 0
M  V30 2081 H 199.37 -4.76722 -1.22464 0
M  V30 2082 N 201.022 0.148545 -1.56898 0
M  V30 2083 C 202.27 0.859717 -1.82902 0
M  V30 2084 C 202.591 1.81775 -0.70588 0
M  V30 2085 O 201.861 1.93994 0.272586 0
M  V30 2086 H 200.441 0.320469 -0.674766 0
M  V30 2087 H 203.103 0.142918 -1.94375 0
M  V30 2088 H 202.199 1.4229 -2.77777 0
M  V30 2089 N 202.5 1.5196 0.417844 0
M  V30 2090 C 203.747 1.65591 1.16559 0
M  V30 2091 C 204.075 0.381565 1.90721 0
M  V30 2092 O 203.33 -0.635156 1.85106 0
M  V30 2093 C 203.629 2.82269 2.19223 0
M  V30 2094 C 203.295 4.20819 1.61933 0
M  V30 2095 C 201.957 4.58506 1.46033 0
M  V30 2096 C 204.309 5.07196 1.20008 0
M  V30 2097 C 201.637 5.80257 0.867113 0
M  V30 2098 C 203.989 6.29544 0.621086 0
M  V30 2099 C 202.653 6.65987 0.449144 0
M  V30 2100 H 201.923 0.605939 0.42652 0
M  V30 2101 H 204.57 1.86041 0.45397 0
M  V30 2102 H 202.875 2.56118 2.96498 0
M  V30 2103 H 204.572 2.90012 2.76936 0
M  V30 2104 H 201.162 3.91116 1.7529 0
M  V30 2105 H 205.346 4.7867 1.31105 0
M  V30 2106 H 200.602 6.07124 0.721833 0
M  V30 2107 H 204.776 6.95805 0.287798 0
M  V30 2108 H 202.403 7.60199 -0.012632 0
M  V30 2109 N 203.978 -0.674533 1.42435 0
M  V30 2110 C 205.394 -0.98769 1.25367 0
M  V30 2111 C 205.594 -2.00879 0.158044 0
M  V30 2112 O 204.65 -2.48075 -0.470633 0
M  V30 2113 C 205.963 -1.49224 2.6106 0
M  V30 2114 C 207.511 -1.61 2.68417 0
M  V30 2115 C 207.986 -2.14852 4.04478 0
M  V30 2116 N 209.477 -2.22185 4.06434 0
M  V30 2117 C 210.212 -2.64928 5.08528 0
M  V30 2118 N 209.708 -3.07121 6.21006 0
M  V30 2119 N 211.501 -2.64679 4.95885 0
M  V30 2120 H 203.652 0.00152503 2.124 0
M  V30 2121 H 205.915 -0.0618434 0.945981 0
M  V30 2122 H 205.621 -0.816453 3.42092 0
M  V30 2123 H 205.495 -2.47094 2.84999 0
M  V30 2124 H 207.882 -2.27686 1.87732 0
M  V30 2125 H 207.963 -0.616195 2.48267 0
M  V30 2126 H 207.607 -1.48775 4.85622 0
M  V30 2127 H 207.537 -3.15024 4.2198 0
M  V30 2128 H 210.028 -1.92435 3.25234 0
M  V30 2129 H 210.341 -3.38423 6.94759 0
M  V30 2130 H 208.686 -3.04978 6.24511 0
M  V30 2131 H 211.877 -2.31078 4.07088 0
M  V30 2132 H 212.05 -2.9767 5.75584 0
M  V30 2133 N 205.456 -1.28612 -0.910864 0
M  V30 2134 C 206.386 -1.15326 -2.03032 0
M  V30 2135 C 207.367 -0.0502924 -1.70026 0
M  V30 2136 O 208.552 -0.227797 -1.92859 0
M  V30 2137 C 205.682 -0.817343 -3.37545 0
M  V30 2138 C 204.636 -1.8754 -3.84724 0
M  V30 2139 C 203.962 -1.39305 -5.16235 0
M  V30 2140 C 205.262 -3.28244 -4.06267 0
M  V30 2141 H 206.956 -2.08975 -2.14406 0
M  V30 2142 H 204.502 -1.00612 -1.03021 0
M  V30 2143 H 206.455 -0.711151 -4.15356 0
M  V30 2144 H 205.179 0.154846 -3.26233 0
M  V30 2145 H 203.838 -1.97079 -3.09121 0
M  V30 2146 H 203.486 -0.409846 -5.01328 0
M  V30 2147 H 203.186 -2.10057 -5.48771 0
M  V30 2148 H 204.71 -1.30014 -5.96598 0
M  V30 2149 H 206.124 -3.21611 -4.74594 0
M  V30 2150 H 204.521 -3.96855 -4.5014 0
M  V30 2151 H 205.591 -3.72048 -3.10979 0
M  V30 2152 N 206.934 1.1197 -1.10907 0
M  V30 2153 C 208.211 1.79959 -0.766432 0
M  V30 2154 C 208.591 1.97466 0.746363 0
M  V30 2155 O 207.939 1.55491 1.67436 0
M  V30 2156 C 208.149 3.14009 -1.52314 0
M  V30 2157 C 209.497 3.89134 -1.69883 0
M  V30 2158 O 210.521 3.2368 -1.48692 0
M  V30 2159 O 209.38 5.06572 -2.05054 0
M  V30 2160 H 206.474 0.779208 -0.277062 0
M  V30 2161 H 209.02 1.18762 -1.21217 0
M  V30 2162 H 207.792 2.96587 -2.55249 0
M  V30 2163 H 207.415 3.82915 -1.07059 0
M  V30 2164 N 208.412 0.89855 1.29475 0
M  V30 2165 C 209.342 0.39201 2.30186 0
M  V30 2166 C 210.323 -0.532359 1.61555 0
M  V30 2167 O 211.508 -0.443331 1.89072 0
M  V30 2168 C 208.638 -0.382353 3.45189 0
M  V30 2169 C 207.592 0.451483 4.25612 0
M  V30 2170 C 206.918 -0.450307 5.328 0
M  V30 2171 C 208.218 1.70079 4.93832 0
M  V30 2172 H 209.912 1.23362 2.72804 0
M  V30 2173 H 207.458 0.594638 1.31149 0
M  V30 2174 H 209.411 -0.747451 4.14718 0
M  V30 2175 H 208.135 -1.25774 3.01411 0
M  V30 2176 H 206.794 0.798897 3.57789 0
M  V30 2177 H 206.442 -1.32379 4.85268 0
M  V30 2178 H 206.142 0.103902 5.87508 0
M  V30 2179 H 207.666 -0.811623 6.05182 0
M  V30 2180 H 209.08 1.40549 5.55805 0
M  V30 2181 H 207.477 2.19623 5.58467 0
M  V30 2182 H 208.547 2.43744 4.19186 0
M  V30 2183 N 209.89 -1.43072 0.660911 0
M  V30 2184 C 211.115 -2.06584 0.183805 0
M  V30 2185 C 211.54 -1.49257 -1.14472 0
M  V30 2186 O 210.898 -0.605528 -1.70889 0
M  V30 2187 C 210.946 -3.60418 0.114434 0
M  V30 2188 O 210.05 -4.01981 -0.921137 0
M  V30 2189 H 209.391 -0.656669 0.0983994 0
M  V30 2190 H 211.921 -1.83447 0.906006 0
M  V30 2191 H 211.931 -4.07946 -0.0663394 0
M  V30 2192 H 210.606 -4.01519 1.08422 0
M  V30 2193 H 209.183 -3.66029 -0.71253 0
M  V30 2194 N 211.368 -0.403325 -1.52352 0
M  V30 2195 C 212.331 0.413051 -2.25447 0
M  V30 2196 C 213.331 0.978513 -1.276 0
M  V30 2197 O 214.521 0.858305 -1.51587 0
M  V30 2198 C 211.653 1.58087 -3.02029 0
M  V30 2199 H 212.846 -0.227094 -2.99039 0
M  V30 2200 H 210.399 -0.155722 -1.55522 0
M  V30 2201 H 211.134 2.25804 -2.32772 0
M  V30 2202 H 210.919 1.18195 -3.73861 0
M  V30 2203 H 212.409 2.1585 -3.57489 0
M  V30 2204 N 212.846 1.57033 -0.133567 0
M  V30 2205 C 213.776 2.1909 0.807567 0
M  V30 2206 C 214.757 1.13517 1.26681 0
M  V30 2207 O 215.942 1.41809 1.32679 0
M  V30 2208 C 213.072 2.80188 2.05212 0
M  V30 2209 C 212.026 3.91471 1.73015 0
M  V30 2210 C 211.352 4.39443 3.04622 0
M  V30 2211 C 212.652 5.12886 0.987168 0
M  V30 2212 H 214.346 2.97988 0.290403 0
M  V30 2213 H 211.892 1.43335 0.138239 0
M  V30 2214 H 213.845 3.22264 2.71521 0
M  V30 2215 H 212.569 1.98601 2.59278 0
M  V30 2216 H 211.228 3.49993 1.0909 0
M  V30 2217 H 210.876 3.54695 3.56651 0
M  V30 2218 H 210.576 5.14495 2.83847 0
M  V30 2219 H 212.1 4.8418 3.72024 0
M  V30 2220 H 213.514 5.51891 1.55208 0
M  V30 2221 H 211.911 5.93615 0.87985 0
M  V30 2222 H 212.981 4.84894 -0.0235286 0
M  V30 2223 N 214.325 -0.140222 1.56975 0
M  V30 2224 C 215.235 -1.19223 2.02047 0
M  V30 2225 C 216.251 -1.46612 0.937062 0
M  V30 2226 O 217.427 -1.58148 1.24704 0
M  V30 2227 C 214.492 -2.50414 2.39778 0
M  V30 2228 C 213.553 -2.30612 3.621 0
M  V30 2229 C 212.786 -3.55547 3.98023 0
M  V30 2230 O 213.009 -4.62004 3.34528 0
M  V30 2231 O 211.943 -3.47808 4.91237 0
M  V30 2232 H 215.769 -0.839559 2.91865 0
M  V30 2233 H 213.354 -0.349453 1.45256 0
M  V30 2234 H 215.236 -3.27747 2.64877 0
M  V30 2235 H 213.911 -2.85198 1.53114 0
M  V30 2236 H 212.818 -1.51207 3.4218 0
M  V30 2237 H 214.151 -2.00741 4.49404 0
M  V30 2238 N 215.803 -1.52179 -0.40978 0
M  V30 2239 C 216.75 -1.75475 -1.49924 0
M  V30 2240 C 217.72 -0.597175 -1.54994 0
M  V30 2241 O 218.905 -0.834655 -1.71575 0
M  V30 2242 C 216.045 -1.9107 -2.87378 0
M  V30 2243 C 215.158 -3.18717 -2.91622 0
M  V30 2244 C 214.293 -3.24747 -4.20372 0
M  V30 2245 C 213.332 -4.46598 -4.18588 0
M  V30 2246 N 212.469 -4.50025 -5.38908 0
M  V30 2247 H 217.309 -2.68458 -1.29361 0
M  V30 2248 H 214.846 -1.33024 -0.627934 0
M  V30 2249 H 216.804 -1.98096 -3.6717 0
M  V30 2250 H 215.434 -1.01469 -3.06437 0
M  V30 2251 H 214.486 -3.20866 -2.04326 0
M  V30 2252 H 215.798 -4.08544 -2.86169 0
M  V30 2253 H 214.952 -3.30841 -5.08556 0
M  V30 2254 H 213.691 -2.32857 -4.28519 0
M  V30 2255 H 212.696 -4.40652 -3.28794 0
M  V30 2256 H 213.921 -5.39783 -4.12081 0
M  V30 2257 H 211.867 -3.61017 -5.47725 0
M  V30 2258 H 211.784 -5.33697 -5.35447 0
M  V30 2259 H 213.052 -4.60347 -6.29048 0
M  V30 2260 N 217.281 0.66697 -1.42791 0
M  V30 2261 C 218.244 1.76211 -1.46568 0
M  V30 2262 C 219.244 1.56896 -0.352196 0
M  V30 2263 O 220.434 1.63044 -0.613364 0
M  V30 2264 C 217.566 3.14935 -1.30494 0
M  V30 2265 H 218.759 1.74247 -2.44086 0
M  V30 2266 H 216.312 0.877342 -1.29354 0
M  V30 2267 H 217.047 3.2252 -0.339301 0
M  V30 2268 H 216.832 3.30359 -2.11199 0
M  V30 2269 H 218.322 3.94821 -1.36038 0
M  V30 2270 N 218.759 1.29093 0.90403 0
M  V30 2271 C 219.689 1.16401 2.02418 0
M  V30 2272 C 220.67 0.0593085 1.69997 0
M  V30 2273 O 221.855 0.238021 1.92736 0
M  V30 2274 C 218.985 0.835233 3.37107 0
M  V30 2275 C 217.939 1.89578 3.83724 0
M  V30 2276 C 217.265 1.42041 5.15489 0
M  V30 2277 C 218.565 3.30394 4.04521 0
M  V30 2278 H 220.259 2.10109 2.13295 0
M  V30 2279 H 217.805 1.01157 1.02486 0
M  V30 2280 H 219.758 0.733169 4.14973 0
M  V30 2281 H 218.482 -0.137543 3.2631 0
M  V30 2282 H 217.141 1.98715 3.08071 0
M  V30 2283 H 216.789 0.436426 5.01103 0
M  V30 2284 H 216.489 2.12964 5.4765 0
M  V30 2285 H 218.013 1.33176 5.959 0
M  V30 2286 H 219.427 3.24123 4.72882 0
M  V30 2287 H 217.824 3.99237 4.48029 0
M  V30 2288 H 218.894 3.73692 3.09002 0
M  V30 2289 N 220.237 -1.11381 1.11499 0
M  V30 2290 C 221.465 -1.86934 0.88675 0
M  V30 2291 C 221.88 -1.80195 -0.563476 0
M  V30 2292 O 221.237 -1.18367 -1.38908 0
M  V30 2293 C 221.288 -3.35722 1.34064 0
M  V30 2294 O 221.009 -3.4232 2.73401 0
M  V30 2295 C 222.51 -4.2818 1.14791 0
M  V30 2296 H 219.73 -0.591117 0.317523 0
M  V30 2297 H 222.274 -1.40865 1.48248 0
M  V30 2298 H 220.429 -3.79294 0.788355 0
M  V30 2299 H 220.843 -4.34971 2.93087 0
M  V30 2300 H 222.317 -5.30817 1.5145 0
M  V30 2301 H 222.794 -4.39113 0.0875279 0
M  V30 2302 H 223.4 -3.90402 1.68721 0
M  V30 2303 N 221.715 -0.905404 -1.28997 0
M  V30 2304 C 223.126 -0.581953 -1.77398 0
M  V30 2305 C 223.477 0.902552 -1.74208 0
M  V30 2306 O 222.602 1.70584 -1.33154 0
M  V30 2307 C 223.197 -1.04961 -3.22131 0
M  V30 2308 C 221.756 -0.777229 -3.68288 0
M  V30 2309 C 220.903 -1.22109 -2.48967 0
M  V30 2310 H 223.854 -1.08754 -1.15578 0
M  V30 2311 H 223.875 -0.387387 -3.78523 0
M  V30 2312 H 223.387 -2.13008 -3.24421 0
M  V30 2313 H 221.488 0.290383 -3.71467 0
M  V30 2314 H 221.601 -1.37911 -4.58822 0
M  V30 2315 H 219.965 -0.639971 -2.46529 0
M  V30 2316 H 220.748 -2.30972 -2.53982 0
M  V30 2317 N 223.193 1.4272 -0.668489 0
M  V30 2318 C 224.609 1.55992 -0.33745 0
M  V30 2319 C 224.809 1.64933 1.15756 0
M  V30 2320 O 223.865 1.61278 1.94282 0
M  V30 2321 C 225.178 2.81314 -1.06222 0
M  V30 2322 C 226.726 2.95078 -1.04394 0
M  V30 2323 C 227.201 4.23252 -1.74991 0
M  V30 2324 N 228.692 4.3015 -1.71829 0
M  V30 2325 C 229.427 5.28127 -2.23315 0
M  V30 2326 N 228.923 6.32293 -2.83156 0
M  V30 2327 N 230.716 5.19882 -2.13726 0
M  V30 2328 H 222.867 1.3516 -1.63846 0
M  V30 2329 H 225.13 0.650174 -0.689912 0
M  V30 2330 H 224.836 2.80823 -2.11734 0
M  V30 2331 H 224.71 3.72012 -0.62344 0
M  V30 2332 H 227.097 2.951 0.0028244 0
M  V30 2333 H 227.178 2.05627 -1.52155 0
M  V30 2334 H 226.822 4.2399 -2.79633 0
M  V30 2335 H 226.752 5.11626 -1.24685 0
M  V30 2336 H 229.243 3.55499 -1.28175 0
M  V30 2337 H 229.556 7.03398 -3.20079 0
M  V30 2338 H 227.901 6.32873 -2.87223 0
M  V30 2339 H 231.092 4.37423 -1.66669 0
M  V30 2340 H 231.265 5.96077 -2.54158 0
M  V30 2341 N 224.671 0.411399 1.52136 0
M  V30 2342 C 225.899 -0.163076 2.06256 0
M  V30 2343 C 226.314 -1.3867 1.28125 0
M  V30 2344 O 225.671 -1.79423 0.333721 0
M  V30 2345 C 225.722 -0.511252 3.57867 0
M  V30 2346 O 225.443 0.66378 4.33042 0
M  V30 2347 C 226.944 -1.13921 4.28412 0
M  V30 2348 H 224.164 -0.0193897 0.67072 0
M  V30 2349 H 226.708 0.583007 1.96013 0
M  V30 2350 H 224.863 -1.20723 3.6811 0
M  V30 2351 H 225.277 0.372601 5.23175 0
M  V30 2352 H 226.751 -1.33302 5.35663 0
M  V30 2353 H 227.228 -2.11296 3.85033 0
M  V30 2354 H 227.834 -0.483373 4.22544 0
M  V30 2355 N 226.149 -1.5696 0.141893 0
M  V30 2356 C 227.565 -1.58151 -0.21456 0
M  V30 2357 C 227.765 -1.1559 -1.65049 0
M  V30 2358 O 226.821 -0.853832 -2.37626 0
M  V30 2359 C 228.134 -3.00674 0.0395576 0
M  V30 2360 C 229.682 -3.1299 -0.0245529 0
M  V30 2361 C 230.157 -4.57554 0.202167 0
M  V30 2362 N 231.648 -4.62961 0.148919 0
M  V30 2363 C 232.383 -5.7262 0.298924 0
M  V30 2364 N 231.879 -6.90947 0.50637 0
M  V30 2365 N 233.672 -5.61601 0.236886 0
M  V30 2366 H 225.823 -1.8292 1.07953 0
M  V30 2367 H 228.086 -0.846425 0.42693 0
M  V30 2368 H 227.792 -3.36183 1.03315 0
M  V30 2369 H 227.666 -3.70981 -0.682143 0
M  V30 2370 H 230.053 -2.77326 -1.00869 0
M  V30 2371 H 230.134 -2.4518 0.729396 0
M  V30 2372 H 229.778 -4.93922 1.18338 0
M  V30 2373 H 229.708 -5.23484 -0.572044 0
M  V30 2374 H 232.199 -3.77899 -0.00697015 0
M  V30 2375 H 232.512 -7.7038 0.611076 0
M  V30 2376 H 230.857 -6.92878 0.542628 0
M  V30 2377 H 234.048 -4.68039 0.0756209 0
M  V30 2378 H 234.221 -6.47015 0.357227 0
M  V30 2379 N 227.627 0.131896 -1.57047 0
M  V30 2380 C 228.59 1.14638 -1.98471 0
M  V30 2381 C 229.59 1.35029 -0.873148 0
M  V30 2382 O 230.78 1.31764 -1.13946 0
M  V30 2383 C 227.912 2.50358 -2.31373 0
M  V30 2384 H 229.105 0.79064 -2.8929 0
M  V30 2385 H 226.658 0.375761 -1.51716 0
M  V30 2386 H 227.393 2.90876 -1.43393 0
M  V30 2387 H 227.178 2.36915 -3.12432 0
M  V30 2388 H 228.668 3.23395 -2.64207 0
M  V30 2389 N 229.106 1.52395 0.401703 0
M  V30 2390 C 230.036 1.79231 1.49661 0
M  V30 2391 C 231.017 0.643654 1.57452 0
M  V30 2392 O 232.202 0.889989 1.72606 0
M  V30 2393 C 229.332 1.94971 2.87409 0
M  V30 2394 C 228.286 3.10604 2.94465 0
M  V30 2395 C 227.612 3.11577 4.34538 0
M  V30 2396 C 228.912 4.49921 2.6527 0
M  V30 2397 H 230.606 2.70917 1.27454 0
M  V30 2398 H 228.152 1.30362 0.6117 0
M  V30 2399 H 230.105 2.12328 3.63999 0
M  V30 2400 H 228.829 0.999632 3.10926 0
M  V30 2401 H 227.488 2.93009 2.20321 0
M  V30 2402 H 227.136 2.14277 4.55076 0
M  V30 2403 H 226.836 3.89247 4.40183 0
M  V30 2404 H 228.36 3.31073 5.13053 0
M  V30 2405 H 229.774 4.67683 3.31581 0
M  V30 2406 H 228.171 5.29564 2.82281 0
M  V30 2407 H 229.241 4.57507 1.60671 0
M  V30 2408 N 230.584 -0.659388 1.43143 0
M  V30 2409 C 231.514 -1.78422 1.50625 0
M  V30 2410 C 232.495 -1.66216 0.361443 0
M  V30 2411 O 233.68 -1.85404 0.577834 0
M  V30 2412 C 230.81 -3.16815 1.42287 0
M  V30 2413 C 229.764 -3.43777 2.54954 0
M  V30 2414 C 229.09 -4.81905 2.31671 0
M  V30 2415 C 230.39 -3.39134 3.97222 0
M  V30 2416 H 232.084 -1.72417 2.44771 0
M  V30 2417 H 229.63 -0.828084 1.17808 0
M  V30 2418 H 231.583 -3.95253 1.46127 0
M  V30 2419 H 230.307 -3.23534 0.446435 0
M  V30 2420 H 228.966 -2.67707 2.50457 0
M  V30 2421 H 228.614 -4.85294 1.32284 0
M  V30 2422 H 228.314 -5.00906 3.07192 0
M  V30 2423 H 229.838 -5.62609 2.37284 0
M  V30 2424 H 231.252 -4.07518 4.03239 0
M  V30 2425 H 229.649 -3.69671 4.72719 0
M  V30 2426 H 230.719 -2.37426 4.22797 0
M  V30 2427 N 232.062 -1.29571 -0.897171 0
M  V30 2428 C 232.992 -1.17473 -2.01798 0
M  V30 2429 C 233.973 -0.068323 -1.69963 0
M  V30 2430 O 235.158 -0.248239 -1.92607 0
M  V30 2431 C 232.288 -0.853099 -3.36659 0
M  V30 2432 C 231.242 -1.9161 -3.82713 0
M  V30 2433 C 230.568 -1.44773 -5.14728 0
M  V30 2434 C 231.868 -3.32535 -4.02763 0
M  V30 2435 H 233.562 -2.11237 -2.12177 0
M  V30 2436 H 231.108 -1.01699 -1.01948 0
M  V30 2437 H 233.061 -0.755165 -4.14578 0
M  V30 2438 H 231.785 0.120236 -3.26379 0
M  V30 2439 H 230.444 -2.00346 -3.07013 0
M  V30 2440 H 230.092 -0.462995 -5.00865 0
M  V30 2441 H 229.792 -2.15865 -5.46513 0
M  V30 2442 H 231.316 -1.36334 -5.95185 0
M  V30 2443 H 232.73 -3.26626 -4.71156 0
M  V30 2444 H 231.127 -4.01607 -4.45905 0
M  V30 2445 H 232.197 -3.75326 -3.07016 0
M  V30 2446 N 233.54 1.10788 -1.12088 0
M  V30 2447 C 234.488 2.19111 -0.780587 0
M  V30 2448 C 235.482 1.67818 0.230961 0
M  V30 2449 O 236.688 1.79777 0.0895427 0
M  V30 2450 H 233.063 0.714477 -0.234578 0
M  V30 2451 H 235.034 2.45055 -1.70266 0
M  V30 2452 C 233.783 3.46818 -0.24747 0
M  V30 2453 H 233.106 3.86646 -1.01712 0
M  V30 2454 H 234.546 4.23973 -0.0476291 0
M  V30 2455 C 233.005 3.20968 1.02378 0
M  V30 2456 O 233.535 3.42298 2.10226 0
M  V30 2457 N 231.741 2.74658 0.949271 0
M  V30 2458 H 231.288 2.57501 0.0715173 0
M  V30 2459 H 231.246 2.57739 1.80049 0
M  V30 2460 N 235.018 0.912232 1.28515 0
M  V30 2461 C 236.246 0.560416 1.99166 0
M  V30 2462 C 236.661 -0.857927 1.68182 0
M  V30 2463 O 236.018 -1.56805 0.933733 0
M  V30 2464 C 236.069 0.758142 3.53461 0
M  V30 2465 O 235.79 2.12067 3.83352 0
M  V30 2466 C 237.291 0.412954 4.41372 0
M  V30 2467 H 234.511 0.213805 0.636026 0
M  V30 2468 H 237.055 1.22502 1.63749 0
M  V30 2469 H 235.21 0.140556 3.87145 0
M  V30 2470 H 235.624 2.15923 4.77993 0
M  V30 2471 H 237.098 0.60208 5.48707 0
M  V30 2472 H 237.575 -0.65073 4.34353 0
M  V30 2473 H 238.181 1.00802 4.13182 0
M  V30 2474 N 236.496 -1.42363 0.676048 0
M  V30 2475 C 237.907 -1.84649 0.275948 0
M  V30 2476 C 238.258 -1.56588 -1.18214 0
M  V30 2477 O 237.383 -1.02634 -1.90513 0
M  V30 2478 C 237.978 -3.35178 0.494053 0
M  V30 2479 C 236.537 -3.76109 0.148061 0
M  V30 2480 C 235.684 -2.65931 0.785891 0
M  V30 2481 H 238.635 -1.32192 0.878121 0
M  V30 2482 H 238.656 -3.79655 -0.25343 0
M  V30 2483 H 238.168 -3.55571 1.55535 0
M  V30 2484 H 236.269 -3.61323 -0.909742 0
M  V30 2485 H 236.382 -4.7546 0.589454 0
M  V30 2486 H 234.746 -2.53773 0.217113 0
M  V30 2487 H 235.529 -2.89146 1.85067 0
M  V30 2488 N 237.974 -0.419461 -1.51915 0
M  V30 2489 C 238.907 0.445751 -2.23804 0
M  V30 2490 C 239.885 1.03951 -1.25031 0
M  V30 2491 O 241.069 1.08541 -1.54114 0
M  V30 2492 C 238.196 1.61964 -2.97465 0
M  V30 2493 C 237.242 1.14828 -4.10751 0
M  V30 2494 S 238.075 0.104938 -5.35397 0
M  V30 2495 C 239.231 1.28391 -6.1259 0
M  V30 2496 H 239.464 -0.164627 -2.96844 0
M  V30 2497 H 236.997 -0.203833 -1.53049 0
M  V30 2498 H 238.955 2.29271 -3.40507 0
M  V30 2499 H 237.616 2.20139 -2.24048 0
M  V30 2500 H 236.809 2.02561 -4.61503 0
M  V30 2501 H 236.411 0.553712 -3.69878 0
M  V30 2502 H 238.703 2.20563 -6.40592 0
M  V30 2503 H 239.646 0.816724 -7.03374 0
M  V30 2504 H 240.054 1.51439 -5.43807 0
M  V30 2505 N 239.452 1.56882 -0.150215 0
M  V30 2506 C 240.4 2.18214 0.805313 0
M  V30 2507 C 241.394 1.14006 1.25296 0
M  V30 2508 O 242.6 1.3225 1.22107 0
M  V30 2509 H 238.975 0.698762 0.277913 0
M  V30 2510 H 240.946 2.97231 0.263862 0
M  V30 2511 C 239.695 2.82065 2.03309 0
M  V30 2512 H 239.018 3.61968 1.69763 0
M  V30 2513 H 240.458 3.28477 2.68103 0
M  V30 2514 C 238.917 1.80739 2.84315 0
M  V30 2515 O 239.447 1.27983 3.80767 0
M  V30 2516 N 237.653 1.4997 2.48913 0
M  V30 2517 H 237.2 1.93062 1.70542 0
M  V30 2518 H 237.158 0.824217 3.03404 0
M  V30 2519 N 240.93 -0.123565 1.57115 0
M  V30 2520 C 242.341 -0.681198 1.73829 0
M  V30 2521 C 242.692 -1.80535 0.768214 0
M  V30 2522 O 241.817 -2.16317 -0.0599103 0
M  V30 2523 C 242.412 -1.24246 3.15196 0
M  V30 2524 C 240.971 -1.74643 3.33432 0
M  V30 2525 C 240.118 -0.644284 2.69711 0
M  V30 2526 H 243.069 0.102315 1.5837 0
M  V30 2527 H 243.09 -2.11216 3.16493 0
M  V30 2528 H 242.602 -0.424062 3.85776 0
M  V30 2529 H 240.703 -2.58974 2.67886 0
M  V30 2530 H 240.816 -1.85902 4.41562 0
M  V30 2531 H 239.18 -1.07676 2.3082 0
M  V30 2532 H 239.963 0.163058 3.42913 0
M  V30 2533 N 242.408 -1.52605 -0.393616 0
M  V30 2534 C 243.636 -1.71294 -1.16043 0
M  V30 2535 C 244.051 -0.429259 -1.83855 0
M  V30 2536 O 243.408 0.595921 -1.72496 0
M  V30 2537 C 243.459 -2.8593 -2.21193 0
M  V30 2538 O 243.18 -4.09329 -1.56146 0
M  V30 2539 C 244.681 -3.16259 -3.10636 0
M  V30 2540 H 241.901 -0.573641 -0.348104 0
M  V30 2541 H 244.445 -1.99234 -0.461092 0
M  V30 2542 H 242.6 -2.60465 -2.86769 0
M  V30 2543 H 243.014 -4.73323 -2.25978 0
M  V30 2544 H 244.488 -3.99946 -3.80456 0
M  V30 2545 H 244.965 -2.3045 -3.73884 0
M  V30 2546 H 245.571 -3.43547 -2.50711 0
M  V30 2547 N 243.887 0.651787 -1.4349 0
M  V30 2548 C 245.135 1.40888 -1.44897 0
M  V30 2549 C 245.456 1.94856 -0.0749086 0
M  V30 2550 O 244.726 1.74518 0.889956 0
M  V30 2551 H 243.306 0.522887 -0.533478 0
M  V30 2552 H 245.968 0.768609 -1.79104 0
M  V30 2553 H 245.064 2.25052 -2.16236 0
M  V30 2554 N 245.365 1.30045 0.890287 0
M  V30 2555 C 246.295 1.18541 2.01172 0
M  V30 2556 C 247.276 0.0773356 1.69924 0
M  V30 2557 O 248.461 0.25845 1.92473 0
M  V30 2558 C 245.591 0.870941 3.36202 0
M  V30 2559 C 244.545 1.93637 3.81692 0
M  V30 2560 C 243.871 1.475 5.13953 0
M  V30 2561 C 245.171 3.34666 4.00994 0
M  V30 2562 H 246.865 2.12359 2.11054 0
M  V30 2563 H 244.411 1.02238 1.01407 0
M  V30 2564 H 246.364 0.777141 4.14172 0
M  V30 2565 H 245.088 -0.102926 3.26438 0
M  V30 2566 H 243.747 2.01972 3.05946 0
M  V30 2567 H 243.395 0.489551 5.00612 0
M  V30 2568 H 243.095 2.1876 5.4536 0
M  V30 2569 H 244.619 1.39489 5.94454 0
M  V30 2570 H 246.033 3.2912 4.69417 0
M  V30 2571 H 244.43 4.03966 4.43769 0
M  V30 2572 H 245.5 3.76949 3.05021 0
M  V30 2573 N 246.843 -1.10192 1.12674 0
M  V30 2574 C 248.089 -1.82475 0.884915 0
M  V30 2575 C 248.422 -1.85093 -0.58773 0
M  V30 2576 O 247.697 -1.3134 -1.43457 0
M  V30 2577 C 247.98 -3.29018 1.46353 0
M  V30 2578 C 247.833 -3.34718 3.00473 0
M  V30 2579 C 249.152 -4.25473 1.12519 0
M  V30 2580 H 246.271 -0.662492 0.322915 0
M  V30 2581 H 248.913 -1.2913 1.39375 0
M  V30 2582 H 247.063 -3.74576 1.03077 0
M  V30 2583 H 248.735 -2.97622 3.52447 0
M  V30 2584 H 246.978 -2.74541 3.35872 0
M  V30 2585 H 247.649 -4.37918 3.36053 0
M  V30 2586 H 250.125 -3.88161 1.499 0
M  V30 2587 H 249.001 -5.26365 1.55663 0
M  V30 2588 H 249.262 -4.42084 0.0377407 0
M  V30 2589 N 248.321 -0.919034 -1.28029 0
M  V30 2590 C 249.568 -0.554934 -1.94748 0
M  V30 2591 C 249.896 0.90231 -1.72304 0
M  V30 2592 O 249.151 1.65767 -1.04018 0
M  V30 2593 C 249.45 -0.816855 -3.4794 0
M  V30 2594 C 249.116 -2.25448 -3.90492 0
M  V30 2595 C 247.778 -2.64752 -4.01821 0
M  V30 2596 C 250.13 -3.18977 -4.12193 0
M  V30 2597 C 247.458 -3.96727 -4.32232 0
M  V30 2598 C 249.81 -4.50523 -4.44086 0
M  V30 2599 C 248.474 -4.89673 -4.53626 0
M  V30 2600 H 247.744 -0.203065 -0.712633 0
M  V30 2601 H 250.391 -1.16136 -1.52265 0
M  V30 2602 H 248.696 -0.127677 -3.91592 0
M  V30 2603 H 250.393 -0.514238 -3.97689 0
M  V30 2604 H 246.983 -1.93952 -3.82205 0
M  V30 2605 H 251.167 -2.89817 -4.02889 0
M  V30 2606 H 246.423 -4.26754 -4.37825 0
M  V30 2607 H 250.597 -5.23005 -4.59825 0
M  V30 2608 H 248.224 -5.91969 -4.76946 0
M  V30 2609 N 249.799 1.42003 -0.683588 0
M  V30 2610 C 251.047 2.01015 -0.209101 0
M  V30 2611 C 251.368 1.54365 1.19149 0
M  V30 2612 O 250.638 0.769083 1.80172 0
M  V30 2613 H 249.218 0.743294 -0.074315 0
M  V30 2614 H 251.88 1.73798 -0.882066 0
M  V30 2615 H 250.976 3.11343 -0.2172 0
M  V30 2616 N 251.277 0.427512 1.51691 0
M  V30 2617 C 252.187 -0.39527 2.31246 0
M  V30 2618 C 253.203 -1.03674 1.39742 0
M  V30 2619 O 254.379 -1.03425 1.72816 0
M  V30 2620 C 251.444 -1.48706 3.13189 0
M  V30 2621 C 250.505 -0.866743 4.20459 0
M  V30 2622 C 249.738 -1.90651 4.98486 0
M  V30 2623 O 249.961 -3.12733 4.77026 0
M  V30 2624 O 248.895 -1.5025 5.82845 0
M  V30 2625 H 252.721 0.253918 3.02637 0
M  V30 2626 H 250.306 0.190274 1.48183 0
M  V30 2627 H 252.188 -2.12047 3.64162 0
M  V30 2628 H 250.863 -2.12051 2.44573 0
M  V30 2629 H 249.77 -0.195544 3.73589 0
M  V30 2630 H 251.103 -0.276934 4.9142 0
M  V30 2631 N 252.755 -1.56801 0.158532 0
M  V30 2632 C 254.171 -1.5837 -0.197774 0
M  V30 2633 C 254.371 -1.17334 -1.63814 0
M  V30 2634 O 253.427 -0.878988 -2.36707 0
M  V30 2635 C 254.74 -3.00615 0.0714459 0
M  V30 2636 C 256.288 -3.12999 0.00864533 0
M  V30 2637 C 256.763 -4.57313 0.250685 0
M  V30 2638 N 258.254 -4.62777 0.198014 0
M  V30 2639 C 258.989 -5.72271 0.359642 0
M  V30 2640 N 258.485 -6.90371 0.579625 0
M  V30 2641 N 260.278 -5.61318 0.296438 0
M  V30 2642 H 252.429 -1.81765 1.09887 0
M  V30 2643 H 254.692 -0.841849 0.435884 0
M  V30 2644 H 254.398 -3.35068 1.06874 0
M  V30 2645 H 254.272 -3.71683 -0.642757 0
M  V30 2646 H 256.659 -2.7838 -0.979217 0
M  V30 2647 H 256.74 -2.44393 0.755359 0
M  V30 2648 H 256.384 -4.92639 1.2357 0
M  V30 2649 H 256.314 -5.24061 -0.516489 0
M  V30 2650 H 258.805 -3.77885 0.0331115 0
M  V30 2651 H 259.118 -7.69689 0.69275 0
M  V30 2652 H 257.463 -6.92264 0.616087 0
M  V30 2653 H 260.654 -4.67932 0.125258 0
M  V30 2654 H 260.827 -6.46599 0.425831 0
M  V30 2655 N 254.233 0.115231 -1.57178 0
M  V30 2656 C 255.143 1.15994 -2.03918 0
M  V30 2657 C 256.159 1.45103 -0.960268 0
M  V30 2658 O 257.335 1.56144 -1.27204 0
M  V30 2659 C 254.4 2.46568 -2.43732 0
M  V30 2660 C 253.461 2.24822 -3.65723 0
M  V30 2661 C 252.694 3.4917 -4.03629 0
M  V30 2662 O 252.917 4.56623 -3.41835 0
M  V30 2663 O 251.851 3.39949 -4.96708 0
M  V30 2664 H 255.677 0.793019 -2.93164 0
M  V30 2665 H 253.262 0.3263 -1.45793 0
M  V30 2666 H 255.144 3.23492 -2.70057 0
M  V30 2667 H 253.819 2.82726 -1.57631 0
M  V30 2668 H 252.726 1.45744 -3.44542 0
M  V30 2669 H 254.059 1.93566 -4.52541 0
M  V30 2670 N 255.711 1.52812 0.385517 0
M  V30 2671 C 256.641 1.80808 1.47752 0
M  V30 2672 C 257.622 0.660318 1.5676 0
M  V30 2673 O 258.807 0.908246 1.71652 0
M  V30 2674 C 255.937 1.98008 2.85324 0
M  V30 2675 C 254.891 3.13709 2.91154 0
M  V30 2676 C 254.217 3.16169 4.31209 0
M  V30 2677 C 255.517 4.52709 2.60483 0
M  V30 2678 H 257.211 2.72253 1.24573 0
M  V30 2679 H 254.757 1.31003 0.597839 0
M  V30 2680 H 256.71 2.16176 3.61726 0
M  V30 2681 H 255.434 1.03255 3.09848 0
M  V30 2682 H 254.093 2.95329 2.17201 0
M  V30 2683 H 253.741 2.19092 4.52778 0
M  V30 2684 H 253.441 3.93894 4.36029 0
M  V30 2685 H 254.965 3.36496 5.09512 0
M  V30 2686 H 256.379 4.71173 3.26602 0
M  V30 2687 H 254.776 5.32528 2.76648 0
M  V30 2688 H 255.846 4.59186 1.55809 0
M  V30 2689 N 257.189 -0.644168 1.43834 0
M  V30 2690 C 258.099 -1.78563 1.52159 0
M  V30 2691 C 259.115 -1.69147 0.408069 0
M  V30 2692 O 260.291 -1.90156 0.663524 0
M  V30 2693 C 257.356 -3.14888 1.45073 0
M  V30 2694 C 256.417 -3.36034 2.6717 0
M  V30 2695 C 255.65 -4.65855 2.60413 0
M  V30 2696 O 255.873 -5.45805 1.65689 0
M  V30 2697 O 254.807 -4.88918 3.5106 0
M  V30 2698 H 258.633 -1.74494 2.48567 0
M  V30 2699 H 256.218 -0.80378 1.25935 0
M  V30 2700 H 258.1 -3.96179 1.43597 0
M  V30 2701 H 256.775 -3.19528 0.518037 0
M  V30 2702 H 255.682 -2.54472 2.74217 0
M  V30 2703 H 257.015 -3.36247 3.59442 0
M  V30 2704 N 258.668 -1.30515 -0.883378 0
M  V30 2705 C 259.631 -1.1701 -1.97082 0
M  V30 2706 C 260.631 -0.10089 -1.60483 0
M  V30 2707 O 261.821 -0.349127 -1.70666 0
M  V30 2708 C 258.953 -0.793045 -3.31547 0
M  V30 2709 H 260.146 -2.13622 -2.10489 0
M  V30 2710 H 257.699 -1.13935 -1.06998 0
M  V30 2711 H 258.434 0.172499 -3.23841 0
M  V30 2712 H 258.219 -1.56576 -3.5948 0
M  V30 2713 H 259.709 -0.722073 -4.1131 0
M  V30 2714 N 260.146 1.09593 -1.13257 0
M  V30 2715 C 261.395 1.81105 -0.887917 0
M  V30 2716 C 261.708 1.86563 0.587672 0
M  V30 2717 O 262.914 2.54367 0.949204 0
M  V30 2718 C 261.37 3.25338 -1.53895 0
M  V30 2719 C 260.978 3.28151 -3.04994 0
M  V30 2720 C 262.722 4.01617 -1.37492 0
M  V30 2721 C 260.629 4.66897 -3.6299 0
M  V30 2722 H 259.559 0.678661 -0.328534 0
M  V30 2723 H 262.21 1.23183 -1.36008 0
M  V30 2724 H 260.592 3.8331 -0.994446 0
M  V30 2725 H 261.766 2.79953 -3.66009 0
M  V30 2726 H 260.081 2.65361 -3.20893 0
M  V30 2727 H 262.678 5.04119 -1.78235 0
M  V30 2728 H 263.021 4.15072 -0.31957 0
M  V30 2729 H 263.554 3.50082 -1.88912 0
M  V30 2730 H 260.293 4.58643 -4.68323 0
M  V30 2731 H 259.813 5.15426 -3.06752 0
M  V30 2732 H 261.492 5.3587 -3.62563 0
M  V30 2733 N 261.624 0.925811 1.2754 0
M  V30 2734 C 262.587 0.428129 2.25166 0
M  V30 2735 C 263.587 -0.452261 1.54309 0
M  V30 2736 O 264.777 -0.253608 1.72344 0
M  V30 2737 C 261.909 -0.384749 3.38722 0
M  V30 2738 H 263.102 1.29066 2.70706 0
M  V30 2739 H 260.655 0.706323 1.3943 0
M  V30 2740 H 261.39 -1.26618 2.98561 0
M  V30 2741 H 261.175 0.246454 3.91325 0
M  V30 2742 H 262.665 -0.723389 4.11287 0
M  V30 2743 N 263.102 -1.41638 0.69111 0
M  V30 2744 C 264.518 -1.55435 0.362224 0
M  V30 2745 C 264.718 -1.66754 -1.13117 0
M  V30 2746 O 263.774 -1.64348 -1.91692 0
M  V30 2747 C 265.087 -2.79588 1.10684 0
M  V30 2748 C 266.635 -2.9338 1.09075 0
M  V30 2749 C 267.11 -4.20414 1.81703 0
M  V30 2750 N 268.601 -4.27362 1.7865 0
M  V30 2751 C 269.336 -5.24507 2.31689 0
M  V30 2752 N 268.832 -6.27708 2.93179 0
M  V30 2753 N 270.625 -5.16416 2.2197 0
M  V30 2754 H 262.776 -1.32536 1.65976 0
M  V30 2755 H 265.039 -0.639115 0.700168 0
M  V30 2756 H 264.745 -2.77419 2.16175 0
M  V30 2757 H 264.619 -3.70973 0.682545 0
M  V30 2758 H 267.006 -2.95067 0.0441238 0
M  V30 2759 H 267.087 -2.0318 1.55407 0
M  V30 2760 H 266.731 -4.19488 2.86343 0
M  V30 2761 H 266.661 -5.09578 1.32808 0
M  V30 2762 H 269.152 -3.53415 1.33815 0
M  V30 2763 H 269.465 -6.98217 3.31229 0
M  V30 2764 H 267.81 -6.28223 2.97255 0
M  V30 2765 H 271.001 -4.34716 1.73607 0
M  V30 2766 H 271.174 -5.91958 2.63609 0
M  V30 2767 N 264.58 -0.43555 -1.51462 0
M  V30 2768 C 265.51 0.367376 -2.30592 0
M  V30 2769 C 266.491 1.02263 -1.35928 0
M  V30 2770 O 267.676 1.02661 -1.64847 0
M  V30 2771 C 264.806 1.46983 -3.14664 0
M  V30 2772 C 263.76 0.938161 -4.17591 0
M  V30 2773 C 263.086 2.13622 -4.90173 0
M  V30 2774 C 264.386 -0.0261621 -5.22293 0
M  V30 2775 H 266.08 -0.292969 -2.97963 0
M  V30 2776 H 263.626 -0.14234 -1.43295 0
M  V30 2777 H 265.579 2.03873 -3.688 0
M  V30 2778 H 264.303 2.15843 -2.4511 0
M  V30 2779 H 262.962 0.391481 -3.64504 0
M  V30 2780 H 262.61 2.81098 -4.17124 0
M  V30 2781 H 262.31 1.78688 -5.59772 0
M  V30 2782 H 263.834 2.7107 -5.47132 0
M  V30 2783 H 265.248 0.452384 -5.71512 0
M  V30 2784 H 263.645 -0.287992 -5.99409 0
M  V30 2785 H 264.715 -0.963391 -4.75233 0
M  V30 2786 N 266.058 1.56714 -0.166846 0
M  V30 2787 C 267.021 2.16539 0.751232 0
M  V30 2788 C 268.021 1.11228 1.16125 0
M  V30 2789 O 269.211 1.36765 1.07894 0
M  V30 2790 C 266.343 2.74462 2.02196 0
M  V30 2791 H 267.536 2.99013 0.230499 0
M  V30 2792 H 265.089 1.56081 0.0826982 0
M  V30 2793 H 265.824 1.95709 2.58589 0
M  V30 2794 H 265.609 3.51527 1.73698 0
M  V30 2795 H 267.099 3.20489 2.67725 0
M  V30 2796 N 267.536 -0.106894 1.57237 0
M  V30 2797 C 268.952 -0.46078 1.52804 0
M  V30 2798 C 269.152 -1.81184 0.881746 0
M  V30 2799 O 268.208 -2.48102 0.469224 0
M  V30 2800 C 269.521 -0.434127 2.9755 0
M  V30 2801 C 271.069 -0.516821 3.08704 0
M  V30 2802 C 271.544 -0.520436 4.55033 0
M  V30 2803 N 273.035 -0.58153 4.59535 0
M  V30 2804 C 273.77 -0.605973 5.70189 0
M  V30 2805 N 273.266 -0.587331 6.90306 0
M  V30 2806 N 275.059 -0.649895 5.5833 0
M  V30 2807 H 267.21 0.778203 1.9763 0
M  V30 2808 H 269.473 0.288403 0.903066 0
M  V30 2809 H 269.179 0.491197 3.48253 0
M  V30 2810 H 269.053 -1.25748 3.55622 0
M  V30 2811 H 271.44 -1.43256 2.57995 0
M  V30 2812 H 271.521 0.334449 2.53604 0
M  V30 2813 H 271.165 0.391313 5.0639 0
M  V30 2814 H 271.095 -1.38876 5.07958 0
M  V30 2815 H 273.586 -0.60161 3.73081 0
M  V30 2816 H 273.899 -0.60894 7.70397 0
M  V30 2817 H 272.244 -0.554564 6.92784 0
M  V30 2818 H 275.435 -0.661907 4.63397 0
M  V30 2819 H 275.608 -0.665476 6.44574 0
M  V30 2820 N 269.014 -1.53014 -0.377408 0
M  V30 2821 C 269.977 -1.77957 -1.44444 0
M  V30 2822 C 270.977 -0.649763 -1.47087 0
M  V30 2823 O 272.167 -0.917897 -1.48055 0
M  V30 2824 C 269.299 -1.89089 -2.83651 0
M  V30 2825 H 270.492 -2.73243 -1.23606 0
M  V30 2826 H 268.045 -1.43912 -0.609844 0
M  V30 2827 H 268.78 -0.958293 -3.09818 0
M  V30 2828 H 268.565 -2.71254 -2.83132 0
M  V30 2829 H 270.055 -2.1002 -3.60945 0
M  V30 2830 N 270.492 0.636531 -1.44174 0
M  V30 2831 C 271.442 1.74233 -1.47061 0
M  V30 2832 C 272.426 1.57331 -0.337034 0
M  V30 2833 O 273.618 1.67159 -0.581973 0
M  V30 2834 C 270.747 3.12897 -1.41246 0
M  V30 2835 C 269.833 3.35288 -2.59698 0
M  V30 2836 N 270.224 3.2807 -3.84972 0
M  V30 2837 C 268.522 3.66065 -2.54778 0
M  V30 2838 C 269.223 3.51001 -4.63867 0
M  V30 2839 N 268.199 3.73616 -3.94857 0
M  V30 2840 H 272.001 1.67103 -2.41773 0
M  V30 2841 H 269.515 0.838806 -1.3906 0
M  V30 2842 H 271.512 3.92189 -1.41398 0
M  V30 2843 H 270.172 3.21197 -0.47569 0
M  V30 2844 H 271.183 3.07109 -4.17019 0
M  V30 2845 H 267.86 3.81379 -1.6987 0
M  V30 2846 H 269.25 3.51059 -5.72894 0
M  V30 2847 N 271.97 1.30982 0.876444 0
M  V30 2848 C 273.247 1.10942 1.61094 0
M  V30 2849 C 273.627 -0.338223 2.08373 0
M  V30 2850 O 272.975 -1.33122 1.85717 0
M  V30 2851 C 273.185 2.11789 2.77392 0
M  V30 2852 C 274.533 2.43965 3.47514 0
M  V30 2853 O 275.557 2.10166 2.87591 0
M  V30 2854 O 274.416 3.01817 4.55597 0
M  V30 2855 H 271.51 0.42667 0.708436 0
M  V30 2856 H 274.056 1.42438 0.922474 0
M  V30 2857 H 272.828 3.09194 2.39823 0
M  V30 2858 H 272.451 1.81161 3.5393 0
M  V30 2859 N 273.449 -1.08991 1.13837 0
M  V30 2860 C 274.379 -2.17771 0.842507 0
M  V30 2861 C 275.36 -1.6892 -0.20001 0
M  V30 2862 O 276.545 -1.94113 -0.0579731 0
M  V30 2863 C 273.675 -3.4589 0.312644 0
M  V30 2864 C 272.629 -4.08099 1.28992 0
M  V30 2865 C 271.955 -5.31098 0.619623 0
M  V30 2866 C 273.255 -4.50077 2.65005 0
M  V30 2867 H 274.949 -2.42777 1.75213 0
M  V30 2868 H 272.495 -1.16682 0.843875 0
M  V30 2869 H 274.448 -4.21297 0.0933043 0
M  V30 2870 H 273.172 -3.20419 -0.632382 0
M  V30 2871 H 271.831 -3.34717 1.49533 0
M  V30 2872 H 271.479 -5.0191 -0.33102 0
M  V30 2873 H 271.179 -5.73674 1.27167 0
M  V30 2874 H 272.703 -6.09224 0.409669 0
M  V30 2875 H 274.117 -5.16688 2.48407 0
M  V30 2876 H 272.514 -5.03553 3.26427 0
M  V30 2877 H 273.584 -3.62257 3.22332 0
M  V30 2878 N 274.927 -0.932562 -1.27047 0
M  V30 2879 C 276.174 -0.575559 -1.94148 0
M  V30 2880 C 276.502 0.883984 -1.73251 0
M  V30 2881 O 275.757 1.64655 -1.0577 0
M  V30 2882 C 276.056 -0.853713 -3.47054 0
M  V30 2883 C 275.722 -2.29577 -3.88079 0
M  V30 2884 C 274.384 -2.68999 -3.9899 0
M  V30 2885 C 276.736 -3.23331 -4.08787 0
M  V30 2886 C 274.064 -4.01289 -4.28 0
M  V30 2887 C 276.416 -4.55207 -4.39282 0
M  V30 2888 C 275.08 -4.94457 -4.48407 0
M  V30 2889 H 274.35 -0.210612 -0.710439 0
M  V30 2890 H 276.997 -1.17744 -1.51025 0
M  V30 2891 H 275.302 -0.169204 -3.91434 0
M  V30 2892 H 276.999 -0.55639 -3.97121 0
M  V30 2893 H 273.589 -1.97994 -3.80127 0
M  V30 2894 H 277.773 -2.94074 -3.99793 0
M  V30 2895 H 273.029 -4.31374 -4.33275 0
M  V30 2896 H 277.203 -5.27852 -4.54252 0
M  V30 2897 H 274.83 -5.96994 -4.7064 0
M  V30 2898 N 276.405 1.4127 -0.698611 0
M  V30 2899 C 277.335 2.33447 -0.049629 0
M  V30 2900 C 278.316 1.51982 0.763898 0
M  V30 2901 O 279.501 1.80509 0.716257 0
M  V30 2902 C 276.631 3.35828 0.885267 0
M  V30 2903 C 275.585 4.27627 0.178613 0
M  V30 2904 C 274.911 5.20406 1.22807 0
M  V30 2905 C 276.211 5.13459 -0.956933 0
M  V30 2906 H 277.905 2.87966 -0.81951 0
M  V30 2907 H 275.451 1.38461 -0.395538 0
M  V30 2908 H 277.404 3.9924 1.34854 0
M  V30 2909 H 276.128 2.79666 1.68685 0
M  V30 2910 H 274.787 3.65643 -0.26466 0
M  V30 2911 H 274.435 4.60558 2.02226 0
M  V30 2912 H 274.135 5.82661 0.760239 0
M  V30 2913 H 275.659 5.86695 1.69179 0
M  V30 2914 H 277.073 5.70421 -0.573805 0
M  V30 2915 H 275.47 5.8467 -1.35205 0
M  V30 2916 H 276.54 4.50443 -1.79524 0
M  V30 2917 N 277.883 0.443576 1.51229 0
M  V30 2918 C 279.132 -0.122332 2.01329 0
M  V30 2919 C 279.445 -1.43237 1.33201 0
M  V30 2920 O 280.651 -2.0816 1.74304 0
M  V30 2921 C 279.107 -0.268551 3.58897 0
M  V30 2922 C 278.715 1.03142 4.35965 0
M  V30 2923 C 280.459 -0.787894 4.17124 0
M  V30 2924 C 278.366 0.850504 5.85252 0
M  V30 2925 H 277.296 -0.0494929 0.752374 0
M  V30 2926 H 279.947 0.574289 1.74282 0
M  V30 2927 H 278.329 -1.02832 3.82415 0
M  V30 2928 H 279.503 1.80001 4.24189 0
M  V30 2929 H 277.818 1.47977 3.89219 0
M  V30 2930 H 280.415 -0.939841 5.26375 0
M  V30 2931 H 280.758 -1.77201 3.76703 0
M  V30 2932 H 281.291 -0.0862669 3.97706 0
M  V30 2933 H 278.03 1.80718 6.30096 0
M  V30 2934 H 277.55 0.121825 5.99676 0
M  V30 2935 H 279.229 0.506163 6.45017 0
M  V30 2936 N 279.361 -1.56624 0.175154 0
M  V30 2937 C 280.586 -2.01813 -0.478137 0
M  V30 2938 C 281.011 -1.05457 -1.55757 0
M  V30 2939 O 280.369 -0.0347439 -1.81267 0
M  V30 2940 C 280.417 -3.45581 -1.02987 0
M  V30 2941 O 279.521 -3.52305 -2.14371 0
M  V30 2942 H 278.862 -0.65413 -0.114059 0
M  V30 2943 H 281.392 -2.02673 0.280173 0
M  V30 2944 H 281.402 -3.84965 -1.35151 0
M  V30 2945 H 280.077 -4.1521 -0.239556 0
M  V30 2946 H 278.654 -3.24783 -1.83222 0
M  V30 2947 N 280.839 0.0985539 -1.57292 0
M  V30 2948 C 282.116 0.834155 -1.76921 0
M  V30 2949 C 282.496 1.97101 -0.755928 0
M  V30 2950 O 281.844 2.27474 0.216245 0
M  V30 2951 C 282.054 1.33194 -3.22584 0
M  V30 2952 C 283.402 1.77611 -3.85668 0
M  V30 2953 O 284.426 1.42825 -3.26312 0
M  V30 2954 O 283.285 2.4192 -4.90038 0
M  V30 2955 H 280.379 0.397628 -0.725135 0
M  V30 2956 H 282.925 0.0807044 -1.69508 0
M  V30 2957 H 281.697 0.517248 -3.87866 0
M  V30 2958 H 281.32 2.1475 -3.34616 0
M  V30 2959 N 282.317 1.53212 0.369288 0
M  V30 2960 C 283.227 1.82342 1.47609 0
M  V30 2961 C 284.243 0.711532 1.58787 0
M  V30 2962 O 285.419 1.0012 1.74751 0
M  V30 2963 C 282.484 2.00393 2.8292 0
M  V30 2964 C 281.545 3.24297 2.81301 0
M  V30 2965 C 280.778 3.41478 4.10157 0
M  V30 2966 O 281.001 2.63033 5.06132 0
M  V30 2967 O 279.935 4.34817 4.16194 0
M  V30 2968 H 283.761 2.76366 1.25918 0
M  V30 2969 H 281.346 1.38547 0.559034 0
M  V30 2970 H 283.228 2.13859 3.63101 0
M  V30 2971 H 281.903 1.09559 3.04596 0
M  V30 2972 H 280.81 3.16257 1.99831 0
M  V30 2973 H 282.143 4.15041 2.64578 0
M  V30 2974 N 283.795 -0.628877 1.44509 0
M  V30 2975 C 285.041 -1.39045 1.47629 0
M  V30 2976 C 285.374 -1.93892 0.109343 0
M  V30 2977 O 284.649 -1.7379 -0.87334 0
M  V30 2978 C 284.932 -2.55408 2.53848 0
M  V30 2979 C 284.785 -2.05896 3.99909 0
M  V30 2980 C 286.104 -3.5759 2.56549 0
M  V30 2981 H 283.223 -0.504232 0.537512 0
M  V30 2982 H 285.865 -0.710854 1.76201 0
M  V30 2983 H 284.015 -3.13384 2.29615 0
M  V30 2984 H 285.687 -1.52734 4.35282 0
M  V30 2985 H 283.93 -1.37061 4.11578 0
M  V30 2986 H 284.601 -2.89681 4.69882 0
M  V30 2987 H 287.077 -3.09419 2.78207 0
M  V30 2988 H 285.953 -4.36527 3.32769 0
M  V30 2989 H 286.214 -4.11808 1.60832 0
M  V30 2990 N 285.273 -1.31445 -0.869486 0
M  V30 2991 C 286.503 -1.23942 -1.65294 0
M  V30 2992 C 286.911 0.197561 -1.88166 0
M  V30 2993 O 286.254 1.14019 -1.44033 0
M  V30 2994 C 286.316 -1.91385 -3.04322 0
M  V30 2995 C 285.98 -3.40726 -3.04557 0
M  V30 2996 C 286.977 -4.36464 -2.82481 0
M  V30 2997 C 284.662 -3.82425 -3.25663 0
M  V30 2998 C 286.656 -5.71876 -2.8149 0
M  V30 2999 C 284.343 -5.1795 -3.243 0
M  V30 3000 C 285.341 -6.12486 -3.02241 0
M  V30 3001 O 285.029 -7.45534 -3.00724 0
M  V30 3002 H 284.761 -0.429459 -0.522054 0
M  V30 3003 H 287.315 -1.73873 -1.0935 0
M  V30 3004 H 285.545 -1.36004 -3.61994 0
M  V30 3005 H 287.234 -1.77791 -3.64891 0
M  V30 3006 H 288 -4.05576 -2.65956 0
M  V30 3007 H 283.879 -3.09274 -3.41863 0
M  V30 3008 H 287.423 -6.45638 -2.64191 0
M  V30 3009 H 283.32 -5.48473 -3.40365 0
M  V30 3010 H 284.088 -7.54713 -3.16782 0
M  V30 3011 N 286.751 1.08385 -1.14413 0
M  V30 3012 C 288.028 1.77429 -0.823297 0
M  V30 3013 C 288.408 1.9974 0.683163 0
M  V30 3014 O 287.756 1.60739 1.62405 0
M  V30 3015 C 287.966 3.09004 -1.62227 0
M  V30 3016 C 289.314 3.83532 -1.82177 0
M  V30 3017 O 290.338 3.18786 -1.58915 0
M  V30 3018 O 289.197 4.99792 -2.21067 0
M  V30 3019 H 286.291 0.769999 -0.301712 0
M  V30 3020 H 288.837 1.14846 -1.24934 0
M  V30 3021 H 287.609 2.88316 -2.64555 0
M  V30 3022 H 287.232 3.79316 -1.19187 0
M  V30 3023 N 288.23 0.939286 1.26551 0
M  V30 3024 C 289.14 0.453432 2.30176 0
M  V30 3025 C 290.156 -0.471649 1.67486 0
M  V30 3026 O 291.332 -0.35164 1.98306 0
M  V30 3027 C 288.397 -0.275326 3.45605 0
M  V30 3028 C 287.458 0.686084 4.23782 0
M  V30 3029 C 286.691 -0.00798994 5.33699 0
M  V30 3030 O 286.914 -1.22528 5.57085 0
M  V30 3031 O 285.848 0.669746 5.98162 0
M  V30 3032 H 289.674 1.31416 2.73795 0
M  V30 3033 H 287.259 0.705095 1.31715 0
M  V30 3034 H 289.141 -0.685911 4.1578 0
M  V30 3035 H 287.816 -1.11147 3.0402 0
M  V30 3036 H 286.723 1.14658 3.56096 0
M  V30 3037 H 288.056 1.48979 4.69112 0
M  V30 3038 N 289.708 -1.40897 0.706093 0
M  V30 3039 C 290.638 -2.33418 0.0620085 0
M  V30 3040 C 291.619 -1.52385 -0.755827 0
M  V30 3041 O 292.804 -1.80886 -0.706674 0
M  V30 3042 C 289.934 -3.36293 -0.867445 0
M  V30 3043 C 288.888 -4.27716 -0.155932 0
M  V30 3044 C 288.214 -5.2105 -1.20046 0
M  V30 3045 C 289.514 -5.12944 0.984149 0
M  V30 3046 H 291.208 -2.87527 0.83477 0
M  V30 3047 H 288.754 -1.38249 0.402875 0
M  V30 3048 H 290.707 -3.99949 -1.32735 0
M  V30 3049 H 289.431 -2.80556 -1.67199 0
M  V30 3050 H 288.09 -3.65498 0.284047 0
M  V30 3051 H 287.738 -4.61624 -1.99781 0
M  V30 3052 H 287.438 -5.83056 -0.729328 0
M  V30 3053 H 288.962 -5.87584 -1.66066 0
M  V30 3054 H 290.376 -5.70109 0.604048 0
M  V30 3055 H 288.773 -5.83945 1.38304 0
M  V30 3056 H 289.843 -4.49485 1.81911 0
M  V30 3057 N 291.186 -0.45159 -1.50991 0
M  V30 3058 C 292.416 0.108177 -2.06317 0
M  V30 3059 C 292.824 1.35774 -1.31765 0
M  V30 3060 O 292.167 1.79838 -0.374694 0
M  V30 3061 C 292.229 0.481659 -3.56259 0
M  V30 3062 C 291.893 -0.663114 -4.52163 0
M  V30 3063 C 292.89 -1.53947 -4.96585 0
M  V30 3064 C 290.575 -0.8479 -4.95092 0
M  V30 3065 C 292.569 -2.58518 -5.82621 0
M  V30 3066 C 290.256 -1.89686 -5.80915 0
M  V30 3067 C 291.254 -2.76388 -6.24579 0
M  V30 3068 O 290.942 -3.79482 -7.08695 0
M  V30 3069 H 290.674 0.00499183 -0.675982 0
M  V30 3070 H 293.228 -0.633659 -1.95381 0
M  V30 3071 H 291.458 1.27641 -3.65027 0
M  V30 3072 H 293.147 0.974233 -3.94035 0
M  V30 3073 H 293.913 -1.4083 -4.64103 0
M  V30 3074 H 289.792 -0.18258 -4.60638 0
M  V30 3075 H 293.336 -3.26224 -6.16623 0
M  V30 3076 H 289.233 -2.02817 -6.12809 0
M  V30 3077 H 290.001 -3.76234 -7.26905 0
M  V30 3078 N 292.664 1.56529 -0.183458 0
M  V30 3079 C 293.894 2.01331 0.463612 0
M  V30 3080 C 294.302 1.06278 1.5653 0
M  V30 3081 O 293.645 0.0577976 1.83609 0
M  V30 3082 C 293.707 3.42547 1.09096 0
M  V30 3083 C 293.371 4.56817 0.129442 0
M  V30 3084 C 294.368 5.15734 -0.656807 0
M  V30 3085 C 292.053 5.02295 0.02174 0
M  V30 3086 C 294.047 6.1857 -1.53784 0
M  V30 3087 C 291.734 6.04978 -0.862864 0
M  V30 3088 C 292.732 6.62988 -1.64123 0
M  V30 3089 O 292.42 7.63677 -2.51103 0
M  V30 3090 H 292.152 0.664917 0.121907 0
M  V30 3091 H 294.706 2.034 -0.285954 0
M  V30 3092 H 292.936 3.37428 1.88889 0
M  V30 3093 H 294.625 3.71228 1.64148 0
M  V30 3094 H 295.391 4.81473 -0.583839 0
M  V30 3095 H 291.27 4.56847 0.617392 0
M  V30 3096 H 294.814 6.63777 -2.14583 0
M  V30 3097 H 290.711 6.38663 -0.93699 0
M  V30 3098 H 291.479 7.81049 -2.44753 0
M  V30 3099 N 294.142 -0.090211 1.57342 0
M  V30 3100 C 295.39 -0.791241 1.85967 0
M  V30 3101 C 295.711 -1.7903 0.772859 0
M  V30 3102 O 294.981 -1.94872 -0.200398 0
M  V30 3103 H 293.561 -0.295205 0.686195 0
M  V30 3104 H 296.223 -0.0706782 1.94772 0
M  V30 3105 H 295.319 -1.31882 2.82867 0
M  V30 3106 N 295.62 -1.53406 -0.361157 0
M  V30 3107 C 296.53 -1.83122 -1.4664 0
M  V30 3108 C 297.546 -0.719943 -1.58407 0
M  V30 3109 O 298.722 -1.01046 -1.74218 0
M  V30 3110 C 295.787 -2.01891 -2.81853 0
M  V30 3111 C 294.848 -3.25784 -2.79577 0
M  V30 3112 C 294.081 -3.43648 -4.0834 0
M  V30 3113 O 294.304 -2.65714 -5.0473 0
M  V30 3114 O 293.238 -4.37018 -4.13883 0
M  V30 3115 H 297.064 -2.7703 -1.24451 0
M  V30 3116 H 294.649 -1.38841 -0.551678 0
M  V30 3117 H 296.531 -2.15782 -3.61962 0
M  V30 3118 H 295.206 -1.11173 -3.0401 0
M  V30 3119 H 294.113 -3.17312 -1.98151 0
M  V30 3120 H 295.446 -4.16439 -2.62373 0
M  V30 3121 N 297.098 0.621204 -1.44841 0
M  V30 3122 C 298.514 0.94048 -1.28946 0
M  V30 3123 C 298.714 2.00154 -0.23249 0
M  V30 3124 O 297.77 2.49651 0.378237 0
M  V30 3125 C 299.083 1.39433 -2.66419 0
M  V30 3126 C 300.631 1.50927 -2.74208 0
M  V30 3127 C 301.106 1.99692 -4.12174 0
M  V30 3128 N 302.597 2.06947 -4.144 0
M  V30 3129 C 303.332 2.45871 -5.1801 0
M  V30 3130 N 302.828 2.83862 -6.31977 0
M  V30 3131 N 304.621 2.46092 -5.05366 0
M  V30 3132 H 296.772 -0.0803548 -2.12248 0
M  V30 3133 H 299.035 0.0266913 -0.947624 0
M  V30 3134 H 298.741 0.688925 -3.44887 0
M  V30 3135 H 298.615 2.36347 -2.93973 0
M  V30 3136 H 301.002 2.20561 -1.96053 0
M  V30 3137 H 301.083 0.523627 -2.50383 0
M  V30 3138 H 300.727 1.30649 -4.90809 0
M  V30 3139 H 300.657 2.99146 -4.33381 0
M  V30 3140 H 303.148 1.80232 -3.32152 0
M  V30 3141 H 303.461 3.12405 -7.0684 0
M  V30 3142 H 301.806 2.8159 -6.35399 0
M  V30 3143 H 304.997 2.1581 -4.15384 0
M  V30 3144 H 305.17 2.76102 -5.86235 0
M  V30 3145 N 298.576 1.31904 0.862503 0
M  V30 3146 C 299.987 1.19803 1.43193 0
M  V30 3147 C 300.338 -0.192567 1.95253 0
M  V30 3148 O 299.463 -1.09081 1.86896 0
M  V30 3149 C 300.058 2.16883 2.60283 0
M  V30 3150 C 298.617 2.08692 3.13248 0
M  V30 3151 C 297.764 2.05691 1.85975 0
M  V30 3152 H 300.715 1.43846 0.670365 0
M  V30 3153 H 300.736 1.76278 3.37204 0
M  V30 3154 H 300.248 3.18083 2.22363 0
M  V30 3155 H 298.349 1.10713 3.55771 0
M  V30 3156 H 298.462 2.9815 3.75025 0
M  V30 3157 H 296.826 1.50814 2.05249 0
M  V30 3158 H 297.609 3.08659 1.50282 0
M  V30 3159 N 300.054 -1.07777 1.14986 0
M  V30 3160 C 301.47 -1.32373 0.891596 0
M  V30 3161 C 301.67 -1.9609 -0.463788 0
M  V30 3162 O 300.726 -2.21801 -1.20667 0
M  V30 3163 C 302.039 -2.21905 2.02925 0
M  V30 3164 C 303.587 -2.35367 2.06329 0
M  V30 3165 C 304.062 -3.28245 3.19405 0
M  V30 3166 N 305.553 -3.35824 3.19024 0
M  V30 3167 C 306.288 -4.07739 4.03158 0
M  V30 3168 N 305.784 -4.82306 4.97346 0
M  V30 3169 N 307.577 -4.03635 3.91197 0
M  V30 3170 H 299.728 -0.648039 2.02273 0
M  V30 3171 H 301.991 -0.348149 0.881757 0
M  V30 3172 H 301.697 -1.82342 3.0074 0
M  V30 3173 H 301.571 -3.22407 1.95789 0
M  V30 3174 H 303.958 -2.74186 1.09116 0
M  V30 3175 H 304.039 -1.34585 2.17533 0
M  V30 3176 H 303.683 -2.90146 4.16867 0
M  V30 3177 H 303.613 -4.28971 3.05437 0
M  V30 3178 H 306.104 -2.8267 2.50811 0
M  V30 3179 H 306.417 -5.34661 5.57994 0
M  V30 3180 H 304.762 -4.81337 5.01338 0
M  V30 3181 H 307.953 -3.44491 3.16928 0
M  V30 3182 H 308.126 -4.59417 4.5699 0
M  V30 3183 N 301.532 -0.945985 -1.26051 0
M  V30 3184 C 302.948 -0.649045 -1.45807 0
M  V30 3185 C 303.148 0.796158 -1.85104 0
M  V30 3186 O 302.204 1.57233 -1.97571 0
M  V30 3187 C 303.517 -1.61458 -2.53677 0
M  V30 3188 C 305.065 -1.62481 -2.67524 0
M  V30 3189 C 305.54 -2.57776 -3.7857 0
M  V30 3190 N 307.031 -2.5609 -3.85969 0
M  V30 3191 C 307.766 -3.26508 -4.7136 0
M  V30 3192 N 307.262 -4.0637 -5.61102 0
M  V30 3193 N 309.055 -3.15437 -4.65248 0
M  V30 3194 H 301.206 -1.88005 -0.988328 0
M  V30 3195 H 303.469 -0.808198 -0.4955 0
M  V30 3196 H 303.175 -2.64644 -2.31638 0
M  V30 3197 H 303.049 -1.37036 -3.51427 0
M  V30 3198 H 305.436 -0.600167 -2.88933 0
M  V30 3199 H 305.517 -1.90958 -1.70202 0
M  V30 3200 H 305.161 -3.60361 -3.57913 0
M  V30 3201 H 305.091 -2.26587 -4.75359 0
M  V30 3202 H 307.582 -1.98105 -3.21812 0
M  V30 3203 H 307.895 -4.57042 -6.23164 0
M  V30 3204 H 306.24 -4.10469 -5.60839 0
M  V30 3205 H 309.431 -2.52525 -3.94143 0
M  V30 3206 H 309.604 -3.70584 -5.31575 0
M  V30 3207 N 303.011 1.40521 -0.713556 0
M  V30 3208 C 303.941 2.33381 -0.0743864 0
M  V30 3209 C 304.922 1.52784 0.747735 0
M  V30 3210 O 306.107 1.81258 0.697071 0
M  V30 3211 C 303.237 3.36748 0.849598 0
M  V30 3212 C 302.191 4.27793 0.133247 0
M  V30 3213 C 301.517 5.21679 1.17281 0
M  V30 3214 C 302.817 5.12415 -1.01134 0
M  V30 3215 H 304.511 2.87081 -0.850007 0
M  V30 3216 H 302.057 1.38034 -0.410201 0
M  V30 3217 H 304.01 4.00648 1.30612 0
M  V30 3218 H 302.734 2.81439 1.65709 0
M  V30 3219 H 301.393 3.65342 -0.303426 0
M  V30 3220 H 301.041 4.62677 1.9733 0
M  V30 3221 H 300.741 5.83435 0.698397 0
M  V30 3222 H 302.265 5.88456 1.62947 0
M  V30 3223 H 303.679 5.69781 -0.634274 0
M  V30 3224 H 302.076 5.83203 -1.41399 0
M  V30 3225 H 303.146 4.48514 -1.84292 0
M  V30 3226 N 304.489 0.459591 1.5075 0
M  V30 3227 C 305.905 0.113092 1.59199 0
M  V30 3228 C 306.105 -1.37951 1.46874 0
M  V30 3229 O 305.161 -2.15168 1.32132 0
M  V30 3230 C 306.474 0.653043 2.93523 0
M  V30 3231 C 308.022 0.615449 3.0689 0
M  V30 3232 C 308.497 1.13275 4.43771 0
M  V30 3233 N 309.988 1.09167 4.50152 0
M  V30 3234 C 310.723 1.46256 5.54434 0
M  V30 3235 N 310.219 1.90739 6.66026 0
M  V30 3236 N 312.012 1.37932 5.44914 0
M  V30 3237 H 304.163 1.43049 1.57005 0
M  V30 3238 H 306.426 0.590861 0.741341 0
M  V30 3239 H 306.132 1.69822 3.07983 0
M  V30 3240 H 306.006 0.0902132 3.77092 0
M  V30 3241 H 308.393 -0.420793 2.92084 0
M  V30 3242 H 308.474 1.21495 2.25106 0
M  V30 3243 H 308.118 2.16757 4.59324 0
M  V30 3244 H 308.048 0.509576 5.24129 0
M  V30 3245 H 310.539 0.76528 3.7007 0
M  V30 3246 H 310.852 2.17218 7.41644 0
M  V30 3247 H 309.197 1.94683 6.67176 0
M  V30 3248 H 312.388 1.0303 4.56621 0
M  V30 3249 H 312.561 1.67164 6.26067 0
M  V30 3250 N 305.967 -1.56429 0.191757 0
M  V30 3251 C 306.877 -2.22541 -0.742481 0
M  V30 3252 C 307.893 -1.22342 -1.23727 0
M  V30 3253 O 309.069 -1.55069 -1.28513 0
M  V30 3254 C 306.134 -2.8692 -1.94623 0
M  V30 3255 C 305.195 -4.02378 -1.49633 0
M  V30 3256 C 304.428 -4.63678 -2.6427 0
M  V30 3257 O 304.651 -4.23895 -3.81666 0
M  V30 3258 O 303.585 -5.53202 -2.37174 0
M  V30 3259 H 307.411 -3.02977 -0.209462 0
M  V30 3260 H 304.996 -1.49353 -0.0373832 0
M  V30 3261 H 306.878 -3.27663 -2.64982 0
M  V30 3262 H 305.553 -2.09466 -2.46791 0
M  V30 3263 H 304.46 -3.66265 -0.761636 0
M  V30 3264 H 305.793 -4.81487 -1.02134 0
M  V30 3265 N 307.445 0.0818655 -1.57387 0
M  V30 3266 C 308.692 0.782914 -1.86753 0
M  V30 3267 C 309.02 1.78082 -0.782118 0
M  V30 3268 O 308.275 1.94426 0.22295 0
M  V30 3269 C 308.574 1.53513 -3.22752 0
M  V30 3270 C 308.24 0.678134 -4.45771 0
M  V30 3271 C 306.902 0.441929 -4.79166 0
M  V30 3272 C 309.254 0.0832243 -5.21134 0
M  V30 3273 C 306.582 -0.398833 -5.85343 0
M  V30 3274 C 308.934 -0.744935 -6.28199 0
M  V30 3275 C 307.598 -0.991107 -6.60101 0
M  V30 3276 H 306.868 0.286489 -0.683378 0
M  V30 3277 H 309.515 0.0439808 -1.91449 0
M  V30 3278 H 307.82 2.34599 -3.138 0
M  V30 3279 H 309.517 2.08218 -3.42705 0
M  V30 3280 H 306.107 0.872357 -4.19628 0
M  V30 3281 H 310.291 0.252847 -4.95655 0
M  V30 3282 H 305.547 -0.598405 -6.08465 0
M  V30 3283 H 309.721 -1.21271 -6.8576 0
M  V30 3284 H 307.348 -1.64437 -7.42202 0
M  V30 3285 N 308.923 1.53595 0.353017 0
M  V30 3286 C 309.886 1.80232 1.41594 0
M  V30 3287 C 310.886 0.673081 1.46035 0
M  V30 3288 O 312.076 0.941335 1.46576 0
M  V30 3289 C 309.208 1.93578 2.80607 0
M  V30 3290 H 310.401 2.75174 1.19244 0
M  V30 3291 H 307.954 1.44864 0.586872 0
M  V30 3292 H 308.689 1.00746 3.08254 0
M  V30 3293 H 308.474 2.75724 2.78781 0
M  V30 3294 H 309.964 2.15735 3.57558 0
M  V30 3295 N 310.401 -0.613514 1.45168 0
M  V30 3296 C 311.812 -1.19539 1.43413 0
M  V30 3297 C 312.163 -1.95558 0.158632 0
M  V30 3298 O 311.288 -2.0335 -0.740119 0
M  V30 3299 C 311.883 -2.17445 2.59813 0
M  V30 3300 C 310.442 -2.71022 2.61197 0
M  V30 3301 C 309.589 -1.46323 2.35552 0
M  V30 3302 H 312.54 -0.403163 1.53494 0
M  V30 3303 H 312.561 -3.00373 2.33574 0
M  V30 3304 H 312.073 -1.62089 3.52631 0
M  V30 3305 H 310.174 -3.30332 1.7237 0
M  V30 3306 H 310.287 -3.15859 3.60236 0
M  V30 3307 H 308.651 -1.75072 1.84992 0
M  V30 3308 H 309.434 -0.92844 3.30507 0
M  V30 3309 N 311.879 -1.3236 -0.855495 0
M  V30 3310 C 312.789 -1.23221 -1.99634 0
M  V30 3311 C 313.805 -0.145983 -1.73387 0
M  V30 3312 O 314.981 -0.366502 -1.98037 0
M  V30 3313 C 312.046 -0.954782 -3.33294 0
M  V30 3314 C 311.107 -2.12937 -3.72769 0
M  V30 3315 C 310.34 -1.86508 -5.00051 0
M  V30 3316 O 310.563 -0.807231 -5.64659 0
M  V30 3317 O 309.497 -2.72591 -5.36636 0
M  V30 3318 H 313.323 -2.19126 -2.1028 0
M  V30 3319 H 310.908 -1.12241 -0.986018 0
M  V30 3320 H 312.79 -0.816519 -4.13414 0
M  V30 3321 H 311.465 -0.0258854 -3.2369 0
M  V30 3322 H 310.372 -2.3231 -2.93228 0
M  V30 3323 H 311.705 -3.04102 -3.87018 0
M  V30 3324 N 313.357 1.07166 -1.15556 0
M  V30 3325 C 314.773 1.31899 -0.898603 0
M  V30 3326 C 314.973 1.96333 0.453383 0
M  V30 3327 O 314.029 2.22438 1.19489 0
M  V30 3328 C 315.342 2.20826 -2.04099 0
M  V30 3329 C 316.89 2.34269 -2.07574 0
M  V30 3330 C 317.365 3.26546 -3.21141 0
M  V30 3331 N 318.856 3.34127 -3.20801 0
M  V30 3332 C 319.591 4.05595 -4.05315 0
M  V30 3333 N 319.087 4.79661 -4.99897 0
M  V30 3334 N 320.88 4.01555 -3.93332 0
M  V30 3335 H 313.031 0.637302 -2.02613 0
M  V30 3336 H 315.294 0.343468 -0.883591 0
M  V30 3337 H 315 1.80744 -3.01703 0
M  V30 3338 H 314.874 3.21364 -1.97496 0
M  V30 3339 H 317.261 2.73603 -1.10568 0
M  V30 3340 H 317.342 1.33429 -2.18244 0
M  V30 3341 H 316.986 2.87931 -4.184 0
M  V30 3342 H 316.916 4.27345 -3.07708 0
M  V30 3343 H 319.407 2.81336 -2.52306 0
M  V30 3344 H 319.72 5.31694 -5.60822 0
M  V30 3345 H 318.065 4.78671 -5.03884 0
M  V30 3346 H 321.256 3.42806 -3.18751 0
M  V30 3347 H 321.429 4.56987 -4.5942 0
M  V30 3348 N 314.835 0.952656 1.25548 0
M  V30 3349 C 316.063 0.623496 1.97282 0
M  V30 3350 C 316.478 -0.803987 1.70826 0
M  V30 3351 O 315.835 -1.53755 0.983147 0
M  V30 3352 C 315.886 0.870209 3.5087 0
M  V30 3353 O 315.607 2.24156 3.76412 0
M  V30 3354 C 317.108 0.553164 4.39835 0
M  V30 3355 H 314.328 0.233931 0.628902 0
M  V30 3356 H 316.872 1.27649 1.59768 0
M  V30 3357 H 315.027 0.263652 3.86502 0
M  V30 3358 H 315.441 2.31021 4.70882 0
M  V30 3359 H 316.915 0.776342 5.46513 0
M  V30 3360 H 317.392 -0.512215 4.36203 0
M  V30 3361 H 317.998 1.13896 4.09766 0
M  V30 3362 N 316.313 -1.40141 0.720998 0
M  V30 3363 C 317.56 -2.00787 0.262842 0
M  V30 3364 C 317.888 -1.5718 -1.14563 0
M  V30 3365 O 317.143 -0.785391 -1.79249 0
M  V30 3366 C 317.442 -3.56165 0.296892 0
M  V30 3367 C 317.108 -4.19373 1.65641 0
M  V30 3368 C 315.77 -4.36352 2.02855 0
M  V30 3369 C 318.122 -4.54578 2.54968 0
M  V30 3370 C 315.45 -4.8582 3.28931 0
M  V30 3371 C 317.802 -5.05447 3.80402 0
M  V30 3372 C 316.466 -5.20635 4.17726 0
M  V30 3373 H 315.736 -0.734731 0.0961807 0
M  V30 3374 H 318.383 -1.67673 0.925093 0
M  V30 3375 H 316.688 -3.8922 -0.448932 0
M  V30 3376 H 318.385 -4.00929 -0.0755208 0
M  V30 3377 H 314.975 -4.06549 1.35704 0
M  V30 3378 H 319.159 -4.41091 2.27491 0
M  V30 3379 H 314.415 -4.95764 3.57811 0
M  V30 3380 H 318.589 -5.31663 4.49786 0
M  V30 3381 H 316.216 -5.58728 5.15487 0
M  V30 3382 N 317.792 -0.46758 -1.50504 0
M  V30 3383 C 319.02 0.0864133 -2.06719 0
M  V30 3384 C 319.435 1.33819 -1.33184 0
M  V30 3385 O 318.792 1.78061 -0.400083 0
M  V30 3386 C 318.843 0.378079 -3.59517 0
M  V30 3387 O 318.564 -0.824044 -4.3028 0
M  V30 3388 C 320.065 0.979426 -4.32345 0
M  V30 3389 H 317.285 -0.00551697 -0.670977 0
M  V30 3390 H 319.829 -0.655354 -1.93715 0
M  V30 3391 H 317.984 1.06977 -3.72337 0
M  V30 3392 H 318.398 -0.566518 -5.21432 0
M  V30 3393 H 319.872 1.1333 -5.40241 0
M  V30 3394 H 320.349 1.9686 -3.9261 0
M  V30 3395 H 320.955 0.326216 -4.24047 0
M  V30 3396 N 319.27 1.56325 -0.20005 0
M  V30 3397 C 320.516 1.98012 0.438059 0
M  V30 3398 C 320.849 1.08702 1.60927 0
M  V30 3399 O 320.124 0.140064 1.93995 0
M  V30 3400 C 320.407 3.48841 0.893419 0
M  V30 3401 C 320.26 4.48928 -0.279947 0
M  V30 3402 C 321.579 4.03498 1.75719 0
M  V30 3403 H 318.698 0.719918 0.157757 0
M  V30 3404 H 321.34 1.87743 -0.291968 0
M  V30 3405 H 319.49 3.57723 1.51547 0
M  V30 3406 H 321.162 4.52079 -0.91772 0
M  V30 3407 H 319.405 4.23694 -0.930919 0
M  V30 3408 H 320.076 5.5194 0.0812601 0
M  V30 3409 H 322.552 3.97427 1.23253 0
M  V30 3410 H 321.428 5.09393 2.04476 0
M  V30 3411 H 321.689 3.4906 2.71311 0
M  V30 3412 N 320.748 -0.0735177 1.57428 0
M  V30 3413 C 321.996 -0.771472 1.86796 0
M  V30 3414 C 322.317 -1.78201 0.791804 0
M  V30 3415 O 321.587 -1.95074 -0.179718 0
M  V30 3416 H 320.167 -0.28791 0.689287 0
M  V30 3417 H 322.829 -0.0500161 1.94836 0
M  V30 3418 H 321.925 -1.28874 2.8425 0
M  V30 3419 N 322.226 -1.5378 -0.344866 0
M  V30 3420 C 323.451 -1.75211 -1.10977 0
M  V30 3421 C 323.876 -0.48936 -1.81623 0
M  V30 3422 O 323.234 0.557925 -1.72502 0
M  V30 3423 C 323.282 -2.93147 -2.09993 0
M  V30 3424 O 322.386 -2.63203 -3.17487 0
M  V30 3425 H 321.727 -0.581241 -0.321021 0
M  V30 3426 H 324.257 -2.00738 -0.395661 0
M  V30 3427 H 324.267 -3.19898 -2.53237 0
M  V30 3428 H 322.942 -3.84731 -1.5797 0
M  V30 3429 H 321.519 -2.47336 -2.79069 0
M  V30 3430 N 323.704 0.605807 -1.45491 0
M  V30 3431 C 324.667 1.69836 -1.5391 0
M  V30 3432 C 325.667 1.55261 -0.418424 0
M  V30 3433 O 326.857 1.60296 -0.681965 0
M  V30 3434 C 323.989 3.09117 -1.43734 0
M  V30 3435 H 325.182 1.63738 -2.51257 0
M  V30 3436 H 322.735 0.821689 -1.32959 0
M  V30 3437 H 323.47 3.20791 -0.475788 0
M  V30 3438 H 323.255 3.21104 -2.25021 0
M  V30 3439 H 324.745 3.88696 -1.52661 0
M  V30 3440 N 325.182 1.32811 0.848464 0
M  V30 3441 C 326.43 1.23479 1.59991 0
M  V30 3442 C 326.751 -0.201853 1.93952 0
M  V30 3443 O 326.021 -1.12818 1.60153 0
M  V30 3444 H 324.601 0.454034 0.593179 0
M  V30 3445 H 327.263 1.66412 1.01455 0
M  V30 3446 H 326.359 1.82178 2.53412 0
M  V30 3447 N 326.66 -1.06551 1.16123 0
M  V30 3448 C 327.607 -2.13961 0.865414 0
M  V30 3449 C 328.577 -1.65066 -0.185055 0
M  V30 3450 O 329.762 -1.90732 -0.05083 0
M  V30 3451 C 326.902 -3.43113 0.369776 0
M  V30 3452 C 326.015 -4.05756 1.48276 0
M  V30 3453 C 325.15 -5.22773 0.942414 0
M  V30 3454 C 324.189 -5.77395 2.03179 0
M  V30 3455 N 323.326 -6.85731 1.50721 0
M  V30 3456 H 328.166 -2.38605 1.78527 0
M  V30 3457 H 325.703 -1.17072 0.890646 0
M  V30 3458 H 327.661 -4.17151 0.0640643 0
M  V30 3459 H 326.291 -3.18695 -0.513143 0
M  V30 3460 H 325.343 -3.29292 1.9045 0
M  V30 3461 H 326.655 -4.42351 2.30493 0
M  V30 3462 H 325.809 -6.03827 0.589729 0
M  V30 3463 H 324.548 -4.87618 0.0895191 0
M  V30 3464 H 323.553 -4.94981 2.3932 0
M  V30 3465 H 324.778 -6.14603 2.8886 0
M  V30 3466 H 322.724 -6.52499 0.676811 0
M  V30 3467 H 322.641 -7.21254 2.26557 0
M  V30 3468 H 323.909 -7.7047 1.18303 0
M  V30 3469 N 328.138 -0.959301 -1.25041 0
M  V30 3470 C 329.554 -0.664474 -1.4511 0
M  V30 3471 C 329.754 0.776481 -1.85938 0
M  V30 3472 O 328.81 1.55128 -1.99227 0
M  V30 3473 C 330.123 -1.64139 -2.5195 0
M  V30 3474 C 331.671 -1.65309 -2.65786 0
M  V30 3475 C 332.146 -2.61777 -3.75815 0
M  V30 3476 N 333.637 -2.60169 -3.83231 0
M  V30 3477 C 334.372 -3.31489 -4.6787 0
M  V30 3478 N 333.868 -4.12298 -5.56761 0
M  V30 3479 N 335.661 -3.20354 -4.61876 0
M  V30 3480 H 327.812 -1.89043 -0.968332 0
M  V30 3481 H 330.075 -0.813408 -0.4869 0
M  V30 3482 H 329.781 -2.67086 -2.28819 0
M  V30 3483 H 329.655 -1.40756 -3.49954 0
M  V30 3484 H 332.042 -0.630778 -2.8828 0
M  V30 3485 H 332.123 -1.92753 -1.68167 0
M  V30 3486 H 331.767 -3.64137 -3.54071 0
M  V30 3487 H 331.697 -2.31616 -4.72929 0
M  V30 3488 H 334.188 -2.01507 -3.19692 0
M  V30 3489 H 334.501 -4.63625 -6.18281 0
M  V30 3490 H 332.846 -4.16395 -5.56454 0
M  V30 3491 H 336.037 -2.56692 -3.91442 0
M  V30 3492 H 336.21 -3.76201 -5.27614 0
M  V30 3493 N 329.616 1.39756 -0.72842 0
M  V30 3494 C 330.546 2.33289 -0.0991354 0
M  V30 3495 C 331.527 1.53568 0.731489 0
M  V30 3496 O 332.712 1.81987 0.677807 0
M  V30 3497 C 329.842 3.3763 0.813834 0
M  V30 3498 C 328.796 4.2791 0.0878663 0
M  V30 3499 C 328.122 5.22894 1.11741 0
M  V30 3500 C 329.422 5.11314 -1.06563 0
M  V30 3501 H 331.116 2.86163 -0.880408 0
M  V30 3502 H 328.662 1.37591 -0.424819 0
M  V30 3503 H 330.615 4.0201 1.26355 0
M  V30 3504 H 329.339 2.83181 1.62715 0
M  V30 3505 H 327.998 3.65 -0.342159 0
M  V30 3506 H 327.646 4.64744 1.92412 0
M  V30 3507 H 327.346 5.84143 0.636477 0
M  V30 3508 H 328.87 5.90151 1.56697 0
M  V30 3509 H 330.284 5.69076 -0.694671 0
M  V30 3510 H 328.681 5.81671 -1.47577 0
M  V30 3511 H 329.751 4.46534 -1.89038 0
M  V30 3512 N 331.094 0.475555 1.50254 0
M  V30 3513 C 332.004 -0.321501 2.32387 0
M  V30 3514 C 333.02 -0.991755 1.42969 0
M  V30 3515 O 334.196 -0.978747 1.76018 0
M  V30 3516 C 331.261 -1.38667 3.17762 0
M  V30 3517 C 330.322 -0.732538 4.23004 0
M  V30 3518 C 329.555 -1.74695 5.04299 0
M  V30 3519 O 329.778 -2.97399 4.86734 0
M  V30 3520 O 328.712 -1.31631 5.8733 0
M  V30 3521 H 332.538 0.350071 3.01676 0
M  V30 3522 H 330.123 0.237321 1.47503 0
M  V30 3523 H 332.005 -2.00354 3.70724 0
M  V30 3524 H 330.68 -2.04163 2.51196 0
M  V30 3525 H 329.587 -0.0765902 3.74022 0
M  V30 3526 H 330.92 -0.120452 4.92053 0
M  V30 3527 N 332.573 -1.56217 0.208337 0
M  V30 3528 C 333.536 -2.18455 -0.693557 0
M  V30 3529 C 334.536 -1.14268 -1.13135 0
M  V30 3530 O 335.726 -1.39577 -1.0423 0
M  V30 3531 C 332.858 -2.79727 -1.94848 0
M  V30 3532 H 334.051 -2.99519 -0.15114 0
M  V30 3533 H 331.604 -1.56245 -0.041287 0
M  V30 3534 H 332.339 -2.02497 -2.53309 0
M  V30 3535 H 332.124 -3.56009 -1.64316 0
M  V30 3536 H 333.614 -3.27475 -2.59133 0
M  V30 3537 N 334.051 0.0651679 -1.57465 0
M  V30 3538 C 335.279 0.775808 -1.91804 0
M  V30 3539 C 335.694 1.70782 -0.804916 0
M  V30 3540 O 335.051 1.81153 0.221311 0
M  V30 3541 C 335.102 1.56381 -3.25925 0
M  V30 3542 O 334.823 0.669248 -4.32958 0
M  V30 3543 C 336.324 2.37485 -3.7432 0
M  V30 3544 H 333.544 0.2202 -0.63384 0
M  V30 3545 H 336.088 0.0334587 -2.04473 0
M  V30 3546 H 334.243 2.25837 -3.14764 0
M  V30 3547 H 334.657 1.21801 -5.10162 0
M  V30 3548 H 336.131 2.88223 -4.70778 0
M  V30 3549 H 336.608 3.17307 -3.03666 0
M  V30 3550 H 337.214 1.73173 -3.88447 0
M  V30 3551 N 335.529 1.53961 0.336706 0
M  V30 3552 C 336.777 1.71197 1.07405 0
M  V30 3553 C 337.098 0.481475 1.88962 0
M  V30 3554 O 336.368 -0.504585 1.8929 0
M  V30 3555 H 334.948 0.631185 0.399517 0
M  V30 3556 H 337.61 1.91232 0.376323 0
M  V30 3557 H 336.706 2.58587 1.74755 0
M  V30 3558 N 337.007 -0.598083 1.45811 0
M  V30 3559 C 338.237 -1.38121 1.53643 0
M  V30 3560 C 338.645 -1.88425 0.171081 0
M  V30 3561 O 337.988 -1.63409 -0.839237 0
M  V30 3562 C 338.05 -2.61432 2.46766 0
M  V30 3563 C 337.714 -2.32702 3.93318 0
M  V30 3564 C 338.711 -1.92479 4.82957 0
M  V30 3565 C 336.396 -2.45321 4.38318 0
M  V30 3566 C 338.39 -1.65248 6.15607 0
M  V30 3567 C 336.077 -2.17703 5.71007 0
M  V30 3568 C 337.075 -1.7773 6.5947 0
M  V30 3569 O 336.763 -1.50441 7.89698 0
M  V30 3570 H 336.495 -0.428863 0.522544 0
M  V30 3571 H 339.049 -0.73557 1.91777 0
M  V30 3572 H 337.279 -3.28749 2.0362 0
M  V30 3573 H 338.968 -3.23487 2.45175 0
M  V30 3574 H 339.734 -1.82258 4.49452 0
M  V30 3575 H 335.613 -2.75399 3.69697 0
M  V30 3576 H 339.157 -1.33973 6.84614 0
M  V30 3577 H 335.054 -2.27544 6.04065 0
M  V30 3578 H 335.822 -1.64415 8.01817 0
M  V30 3579 N 338.485 -1.33259 -0.841409 0
M  V30 3580 C 339.901 -1.12538 -1.13169 0
M  V30 3581 C 340.101 0.0854037 -2.01319 0
M  V30 3582 O 339.157 0.766417 -2.40587 0
M  V30 3583 C 340.47 -2.41156 -1.79623 0
M  V30 3584 C 342.018 -2.47038 -1.922 0
M  V30 3585 C 342.493 -3.7561 -2.6207 0
M  V30 3586 N 343.984 -3.76667 -2.69585 0
M  V30 3587 C 344.719 -4.72861 -3.2433 0
M  V30 3588 N 344.215 -5.79428 -3.79783 0
M  V30 3589 N 346.008 -4.6034 -3.22558 0
M  V30 3590 H 338.159 -2.10868 -0.254676 0
M  V30 3591 H 340.422 -0.931615 -0.175493 0
M  V30 3592 H 340.128 -3.29747 -1.22311 0
M  V30 3593 H 340.002 -2.53114 -2.79666 0
M  V30 3594 H 342.389 -1.58898 -2.48667 0
M  V30 3595 H 342.47 -2.39022 -0.911148 0
M  V30 3596 H 342.114 -4.64131 -2.06263 0
M  V30 3597 H 342.044 -3.80902 -3.63622 0
M  V30 3598 H 344.535 -2.99648 -2.30259 0
M  V30 3599 H 344.848 -6.48867 -4.19752 0
M  V30 3600 H 343.193 -5.83166 -3.78078 0
M  V30 3601 H 346.384 -3.76244 -2.78492 0
M  V30 3602 H 346.557 -5.35478 -3.64921 0
M  V30 3603 N 339.963 1.05934 -1.16686 0
M  V30 3604 C 341.209 1.79065 -0.95203 0
M  V30 3605 C 341.542 1.87147 0.518629 0
M  V30 3606 O 340.817 1.36574 1.38484 0
M  V30 3607 C 341.1 3.23359 -1.58464 0
M  V30 3608 C 340.953 3.23336 -3.12689 0
M  V30 3609 C 342.272 4.21004 -1.28232 0
M  V30 3610 H 339.391 0.65005 -0.34728 0
M  V30 3611 H 342.033 1.23868 -1.44072 0
M  V30 3612 H 340.183 3.70493 -1.16908 0
M  V30 3613 H 341.855 2.84336 -3.6325 0
M  V30 3614 H 340.098 2.61886 -3.4583 0
M  V30 3615 H 340.769 4.25144 -3.52075 0
M  V30 3616 H 343.245 3.8233 -1.64203 0
M  V30 3617 H 342.121 5.20225 -1.75092 0
M  V30 3618 H 342.382 4.41639 -0.201791 0
M  V30 3619 N 341.441 0.965919 1.2453 0
M  V30 3620 C 342.689 0.625593 1.92174 0
M  V30 3621 C 343.01 -0.841652 1.75901 0
M  V30 3622 O 342.28 -1.60061 1.12948 0
M  V30 3623 H 340.86 0.228388 0.71123 0
M  V30 3624 H 343.522 1.2266 1.51461 0
M  V30 3625 H 342.618 0.864653 2.99884 0
M  V30 3626 N 342.919 -1.39368 0.735821 0
M  V30 3627 C 344.165 -2.01272 0.293439 0
M  V30 3628 C 344.52 -1.57344 -1.10728 0
M  V30 3629 O 343.813 -0.792744 -1.74431 0
M  V30 3630 C 344.007 -3.5583 0.334651 0
M  V30 3631 C 343.836 -4.14764 1.73784 0
M  V30 3632 C 342.606 -4.47315 2.35026 0
M  V30 3633 C 344.804 -4.38246 2.69157 0
M  V30 3634 N 342.786 -4.91756 3.6749 0
M  V30 3635 C 344.157 -4.849 3.86357 0
M  V30 3636 C 346.212 -4.20315 2.66908 0
M  V30 3637 C 344.915 -5.15505 5.01645 0
M  V30 3638 C 346.941 -4.52033 3.8134 0
M  V30 3639 C 346.303 -4.98895 4.97276 0
M  V30 3640 H 342.402 -0.766756 0.153652 0
M  V30 3641 H 344.986 -1.69276 0.961967 0
M  V30 3642 H 343.157 -3.87212 -0.303527 0
M  V30 3643 H 344.889 -4.04503 -0.126358 0
M  V30 3644 H 341.644 -4.35143 1.86943 0
M  V30 3645 H 342.068 -5.18333 4.35499 0
M  V30 3646 H 346.71 -3.83287 1.78468 0
M  V30 3647 H 344.428 -5.51437 5.90713 0
M  V30 3648 H 348.014 -4.39781 3.80899 0
M  V30 3649 H 346.894 -5.22973 5.84353 0
M  V30 3650 N 344.397 -0.483516 -1.5 0
M  V30 3651 C 345.646 0.0689102 -2.01582 0
M  V30 3652 C 345.959 1.39655 -1.36952 0
M  V30 3653 O 347.165 2.03465 -1.79762 0
M  V30 3654 C 345.621 0.173302 -3.59483 0
M  V30 3655 C 345.229 -1.14665 -4.33077 0
M  V30 3656 C 346.973 0.677024 -4.19066 0
M  V30 3657 C 344.88 -1.00537 -5.82792 0
M  V30 3658 H 343.81 0.0295277 -0.753422 0
M  V30 3659 H 346.461 -0.620295 -1.72698 0
M  V30 3660 H 344.843 0.926569 -3.85007 0
M  V30 3661 H 346.017 -1.91184 -4.19268 0
M  V30 3662 H 344.332 -1.58244 -3.85159 0
M  V30 3663 H 346.929 0.799952 -5.28682 0
M  V30 3664 H 347.272 1.67151 -3.81269 0
M  V30 3665 H 347.805 -0.0192083 -3.97795 0
M  V30 3666 H 344.544 -1.9736 -6.25083 0
M  V30 3667 H 344.064 -0.280776 -5.99142 0
M  V30 3668 H 345.743 -0.677 -6.43448 0
M  V30 3669 N 345.875 1.56104 -0.216619 0
M  V30 3670 C 347.121 1.98466 0.417033 0
M  V30 3671 C 347.454 1.10403 1.59765 0
M  V30 3672 O 346.729 0.160632 1.93836 0
M  V30 3673 C 347.012 3.49769 0.85637 0
M  V30 3674 C 346.865 4.48606 -0.327546 0
M  V30 3675 C 348.184 4.05339 1.7143 0
M  V30 3676 H 345.303 0.721551 0.150112 0
M  V30 3677 H 347.945 1.87423 -0.311864 0
M  V30 3678 H 346.095 3.5931 1.47745 0
M  V30 3679 H 347.767 4.5108 -0.965618 0
M  V30 3680 H 346.01 4.22682 -0.975805 0
M  V30 3681 H 346.681 5.51995 0.0227149 0
M  V30 3682 H 349.157 3.98712 1.19031 0
M  V30 3683 H 348.033 5.11533 1.99061 0
M  V30 3684 H 348.294 3.51918 2.67593 0
M  V30 3685 N 347.353 -0.0568162 1.57498 0
M  V30 3686 C 348.601 -0.751617 1.87604 0
M  V30 3687 C 348.922 -1.77351 0.81066 0
M  V30 3688 O 348.192 -1.95254 -0.159018 0
M  V30 3689 H 346.772 -0.280583 0.692302 0
M  V30 3690 H 349.434 -0.0293483 1.94878 0
M  V30 3691 H 348.53 -1.25852 2.856 0
M  V30 3692 N 348.832 -1.54138 -0.328536 0
M  V30 3693 C 350.243 -1.63395 -0.903272 0
M  V30 3694 C 350.594 -0.524828 -1.8905 0
M  V30 3695 O 349.719 0.343068 -2.13663 0
M  V30 3696 C 350.314 -2.9618 -1.64507 0
M  V30 3697 C 348.873 -3.0765 -2.1686 0
M  V30 3698 C 348.02 -2.58933 -0.992416 0
M  V30 3699 H 350.971 -1.58344 -0.106253 0
M  V30 3700 H 350.992 -2.86061 -2.50897 0
M  V30 3701 H 350.504 -3.76884 -0.926302 0
M  V30 3702 H 348.605 -2.31611 -2.91868 0
M  V30 3703 H 348.718 -4.1337 -2.42202 0
M  V30 3704 H 347.082 -2.14706 -1.37016 0
M  V30 3705 H 347.865 -3.42089 -0.288041 0
M  V30 3706 N 350.31 0.590341 -1.46126 0
M  V30 3707 C 351.257 1.69994 -1.56111 0
M  V30 3708 C 352.227 1.61065 -0.405867 0
M  V30 3709 O 353.412 1.8039 -0.621613 0
M  V30 3710 C 350.552 3.08326 -1.55013 0
M  V30 3711 C 349.665 3.27936 -2.81215 0
M  V30 3712 C 348.8 4.56473 -2.71673 0
M  V30 3713 C 347.839 4.694 -3.92849 0
M  V30 3714 N 346.976 5.89254 -3.81738 0
M  V30 3715 H 351.816 1.60797 -2.50895 0
M  V30 3716 H 349.353 0.783799 -1.24479 0
M  V30 3717 H 351.311 3.88383 -1.52362 0
M  V30 3718 H 349.941 3.16439 -0.637667 0
M  V30 3719 H 348.993 2.41536 -2.93879 0
M  V30 3720 H 350.305 3.33357 -3.71045 0
M  V30 3721 H 349.459 5.44748 -2.67085 0
M  V30 3722 H 348.198 4.53477 -1.7947 0
M  V30 3723 H 347.203 3.79544 -3.97777 0
M  V30 3724 H 348.428 4.7418 -4.86138 0
M  V30 3725 H 346.374 5.87271 -2.92317 0
M  V30 3726 H 346.291 5.95911 -4.65217 0
M  V30 3727 H 347.559 6.79981 -3.81112 0
M  V30 3728 N 351.788 1.33704 0.83433 0
M  V30 3729 C 352.698 1.26382 1.97648 0
M  V30 3730 C 353.714 0.173548 1.73132 0
M  V30 3731 O 354.89 0.397962 1.97429 0
M  V30 3732 C 351.955 1.00769 3.31733 0
M  V30 3733 C 351.016 2.1884 3.69334 0
M  V30 3734 C 350.249 1.9444 4.9702 0
M  V30 3735 O 350.472 0.896961 5.63303 0
M  V30 3736 O 349.406 2.81093 5.32231 0
M  V30 3737 H 353.232 2.22444 2.06767 0
M  V30 3738 H 350.817 1.13795 0.968037 0
M  V30 3739 H 352.699 0.882186 4.12062 0
M  V30 3740 H 351.374 0.0773783 3.23608 0
M  V30 3741 H 350.281 2.36946 2.89495 0
M  V30 3742 H 351.614 3.10221 3.82131 0
M  V30 3743 N 353.266 -1.05314 1.17247 0
M  V30 3744 C 354.513 -1.78293 0.960091 0
M  V30 3745 C 354.841 -1.87658 -0.51136 0
M  V30 3746 O 354.096 -1.3718 -1.39571 0
M  V30 3747 C 354.395 -3.2229 1.54479 0
M  V30 3748 C 354.061 -3.32987 3.04024 0
M  V30 3749 C 352.723 -3.35613 3.44844 0
M  V30 3750 C 355.075 -3.34102 4.00031 0
M  V30 3751 C 352.403 -3.36982 4.8027 0
M  V30 3752 C 354.755 -3.3701 5.35357 0
M  V30 3753 C 353.419 -3.37923 5.75642 0
M  V30 3754 H 352.689 -0.652422 0.351322 0
M  V30 3755 H 355.336 -1.23782 1.46117 0
M  V30 3756 H 353.641 -3.7972 0.965391 0
M  V30 3757 H 355.338 -3.77376 1.35603 0
M  V30 3758 H 351.928 -3.31655 2.71483 0
M  V30 3759 H 356.112 -3.31276 3.69554 0
M  V30 3760 H 351.368 -3.35999 5.10798 0
M  V30 3761 H 355.542 -3.36822 6.09528 0
M  V30 3762 H 353.169 -3.38738 6.80559 0
M  V30 3763 N 354.744 -0.972509 -1.24016 0
M  V30 3764 C 355.677 -0.45117 -2.23696 0
M  V30 3765 C 356.655 0.477378 -1.55434 0
M  V30 3766 O 357.839 0.407647 -1.84039 0
M  V30 3767 C 354.966 0.34818 -3.36906 0
M  V30 3768 C 354.012 -0.523355 -4.23277 0
M  V30 3769 S 354.845 -1.96647 -4.98087 0
M  V30 3770 C 356.001 -1.17604 -6.14752 0
M  V30 3771 H 356.234 -1.29588 -2.67571 0
M  V30 3772 H 353.767 -0.777903 -1.33372 0
M  V30 3773 H 355.725 0.803387 -4.02562 0
M  V30 3774 H 354.386 1.16792 -2.91579 0
M  V30 3775 H 353.579 0.0906181 -5.03919 0
M  V30 3776 H 353.181 -0.914485 -3.62647 0
M  V30 3777 H 355.473 -0.433434 -6.76112 0
M  V30 3778 H 356.416 -1.95701 -6.8052 0
M  V30 3779 H 356.824 -0.698295 -5.60164 0
M  V30 3780 N 356.222 1.38976 -0.743202 0
M  V30 3781 C 357.633 1.83123 -0.363732 0
M  V30 3782 C 357.984 1.6205 1.10609 0
M  V30 3783 O 357.109 1.11606 1.854 0
M  V30 3784 C 357.704 3.32439 -0.653408 0
M  V30 3785 C 356.263 3.74974 -0.327338 0
M  V30 3786 C 355.41 2.61878 -0.911875 0
M  V30 3787 H 358.361 1.27852 -0.940191 0
M  V30 3788 H 358.382 3.80432 0.0720031 0
M  V30 3789 H 357.894 3.47745 -1.72323 0
M  V30 3790 H 355.995 3.65252 0.736314 0
M  V30 3791 H 356.108 4.72106 -0.815631 0
M  V30 3792 H 354.472 2.52448 -0.337944 0
M  V30 3793 H 355.255 2.79987 -1.98651 0
M  V30 3794 N 357.7 0.491464 1.49741 0
M  V30 3795 C 359.116 0.146835 1.58923 0
M  V30 3796 C 359.316 -1.34804 1.49767 0
M  V30 3797 O 358.372 -2.12317 1.36667 0
M  V30 3798 C 359.685 0.715157 2.92072 0
M  V30 3799 C 361.233 0.680407 3.05515 0
M  V30 3800 C 361.708 1.22663 4.41269 0
M  V30 3801 N 363.199 1.18691 4.47735 0
M  V30 3802 C 363.934 1.57984 5.51207 0
M  V30 3803 N 363.43 2.04824 6.6183 0
M  V30 3804 N 365.223 1.49459 5.41866 0
M  V30 3805 H 357.374 1.46347 1.53936 0
M  V30 3806 H 359.637 0.606453 0.728642 0
M  V30 3807 H 359.343 1.76317 3.04311 0
M  V30 3808 H 359.217 0.17018 3.76816 0
M  V30 3809 H 361.604 -0.358743 2.92911 0
M  V30 3810 H 361.685 1.26242 2.22478 0
M  V30 3811 H 361.329 2.26451 4.54623 0
M  V30 3812 H 361.259 0.620637 5.2293 0
M  V30 3813 H 363.75 0.843605 3.68364 0
M  V30 3814 H 364.063 2.32901 7.3687 0
M  V30 3815 H 362.408 2.08791 6.62896 0
M  V30 3816 H 365.599 1.12692 4.54333 0
M  V30 3817 H 365.772 1.80406 6.22381 0
M  V30 3818 N 359.178 -1.55987 0.224894 0
M  V30 3819 C 360.108 -2.23426 -0.678457 0
M  V30 3820 C 361.089 -1.20709 -1.19847 0
M  V30 3821 O 362.274 -1.49304 -1.24186 0
M  V30 3822 C 359.404 -2.91676 -1.88527 0
M  V30 3823 C 358.358 -4.00893 -1.49896 0
M  V30 3824 C 357.684 -4.56455 -2.78483 0
M  V30 3825 C 358.984 -5.17769 -0.686461 0
M  V30 3826 H 360.678 -2.99175 -0.116173 0
M  V30 3827 H 358.224 -1.43897 -0.054436 0
M  V30 3828 H 360.177 -3.37547 -2.5227 0
M  V30 3829 H 358.901 -2.1338 -2.47258 0
M  V30 3830 H 357.56 -3.55758 -0.884985 0
M  V30 3831 H 357.208 -3.74886 -3.35365 0
M  V30 3832 H 356.908 -5.30169 -2.53368 0
M  V30 3833 H 358.432 -5.05047 -3.43162 0
M  V30 3834 H 359.846 -5.60001 -1.22767 0
M  V30 3835 H 358.243 -5.97735 -0.532259 0
M  V30 3836 H 359.313 -4.83932 0.306196 0
M  V30 3837 N 360.656 0.0484629 -1.57525 0
M  V30 3838 C 361.619 1.03956 -2.04269 0
M  V30 3839 C 362.619 1.30211 -0.943496 0
M  V30 3840 O 363.809 1.25539 -1.20771 0
M  V30 3841 C 360.941 2.37742 -2.44319 0
M  V30 3842 H 362.134 0.636182 -2.93075 0
M  V30 3843 H 359.687 0.294811 -1.53494 0
M  V30 3844 H 360.422 2.82866 -1.5861 0
M  V30 3845 H 360.207 2.20021 -3.24551 0
M  V30 3846 H 361.697 3.08936 -2.80978 0
M  V30 3847 N 362.134 1.5431 0.320358 0
M  V30 3848 C 363.382 1.72327 1.05583 0
M  V30 3849 C 363.703 0.50149 1.88441 0
M  V30 3850 O 362.973 -0.48448 1.89815 0
M  V30 3851 H 361.553 0.635387 0.3928 0
M  V30 3852 H 364.215 1.91621 0.356019 0
M  V30 3853 H 363.311 2.60426 1.72003 0
M  V30 3854 N 363.613 -0.582584 1.46437 0
M  V30 3855 C 364.546 -1.70633 1.51524 0
M  V30 3856 C 365.524 -1.58349 0.369351 0
M  V30 3857 O 366.708 -1.79563 0.573516 0
M  V30 3858 C 363.835 -3.08687 1.39392 0
M  V30 3859 C 362.881 -3.3949 2.58164 0
M  V30 3860 S 363.714 -3.31548 4.20519 0
M  V30 3861 C 364.87 -4.72139 4.10896 0
M  V30 3862 H 365.103 -1.66058 2.46601 0
M  V30 3863 H 362.636 -0.761337 1.34324 0
M  V30 3864 H 364.594 -3.8833 1.33079 0
M  V30 3865 H 363.255 -3.10751 0.457436 0
M  V30 3866 H 362.448 -4.40071 2.45669 0
M  V30 3867 H 362.05 -2.67415 2.61468 0
M  V30 3868 H 364.342 -5.62527 3.77584 0
M  V30 3869 H 365.285 -4.89692 5.11476 0
M  V30 3870 H 365.693 -4.48995 3.42146 0
M  V30 3871 N 365.091 -1.34144 -0.827227 0
M  V30 3872 C 366.507 -1.13732 -1.11969 0
M  V30 3873 C 366.707 0.0640463 -2.01398 0
M  V30 3874 O 365.763 0.740856 -2.41387 0
M  V30 3875 C 367.076 -2.43047 -1.77055 0
M  V30 3876 C 368.624 -2.49063 -1.89569 0
M  V30 3877 C 369.099 -3.78369 -2.58072 0
M  V30 3878 N 370.59 -3.79505 -2.65575 0
M  V30 3879 C 371.325 -4.76274 -3.19297 0
M  V30 3880 N 370.821 -5.83424 -3.73616 0
M  V30 3881 N 372.614 -4.63735 -3.17658 0
M  V30 3882 H 364.765 -2.11126 -0.232296 0
M  V30 3883 H 367.028 -0.933424 -0.165602 0
M  V30 3884 H 366.734 -3.31025 -1.18807 0
M  V30 3885 H 366.608 -2.56066 -2.76966 0
M  V30 3886 H 368.995 -1.61527 -2.46968 0
M  V30 3887 H 369.076 -2.39975 -0.885745 0
M  V30 3888 H 368.72 -4.66293 -2.01329 0
M  V30 3889 H 368.65 -3.84737 -3.59562 0
M  V30 3890 H 371.141 -3.02074 -2.27068 0
M  V30 3891 H 371.454 -6.53282 -4.12846 0
M  V30 3892 H 369.799 -5.87143 -3.71871 0
M  V30 3893 H 372.99 -3.79177 -2.74486 0
M  V30 3894 H 373.163 -5.39318 -3.59221 0
M  V30 3895 N 366.569 1.04691 -1.17803 0
M  V30 3896 C 367.501 2.12571 -0.857097 0
M  V30 3897 C 368.514 1.62174 0.142647 0
M  V30 3898 O 369.703 1.78301 -0.0843387 0
M  V30 3899 C 366.803 3.37915 -0.258216 0
M  V30 3900 C 365.976 4.1757 -1.30207 0
M  V30 3901 C 365.035 5.2125 -0.720029 0
M  V30 3902 O 364.061 5.51888 -1.39314 0
M  V30 3903 N 365.263 5.78466 0.485507 0
M  V30 3904 H 368.028 2.40698 -1.78562 0
M  V30 3905 H 365.589 1.20831 -1.07757 0
M  V30 3906 H 367.581 4.04442 0.144584 0
M  V30 3907 H 366.151 3.07281 0.574199 0
M  V30 3908 H 365.371 3.46458 -1.88043 0
M  V30 3909 H 366.659 4.67586 -2.00601 0
M  V30 3910 H 366.057 5.55866 1.05022 0
M  V30 3911 H 364.614 6.4649 0.830307 0
M  V30 3912 N 368.047 0.979072 1.23499 0
M  V30 3913 C 369.293 0.6578 1.9247 0
M  V30 3914 C 369.648 -0.799746 1.74991 0
M  V30 3915 O 368.941 -1.56922 1.09937 0
M  V30 3916 C 369.135 0.981932 3.43646 0
M  V30 3917 C 368.964 2.46944 3.75831 0
M  V30 3918 C 367.734 3.13119 3.96591 0
M  V30 3919 C 369.932 3.45006 3.81412 0
M  V30 3920 N 367.914 4.51489 4.15969 0
M  V30 3921 C 369.285 4.68778 4.05768 0
M  V30 3922 C 371.34 3.39505 3.64198 0
M  V30 3923 C 370.043 5.87723 4.14697 0
M  V30 3924 C 372.069 4.57814 3.7438 0
M  V30 3925 C 371.431 5.80381 3.99171 0
M  V30 3926 H 367.53 0.291746 0.72554 0
M  V30 3927 H 370.114 1.25626 1.48749 0
M  V30 3928 H 368.285 0.412179 3.86207 0
M  V30 3929 H 370.017 0.618068 3.99953 0
M  V30 3930 H 366.772 2.63619 3.93449 0
M  V30 3931 H 367.196 5.23221 4.29615 0
M  V30 3932 H 371.838 2.45773 3.44029 0
M  V30 3933 H 369.556 6.81874 4.33675 0
M  V30 3934 H 373.142 4.55132 3.62417 0
M  V30 3935 H 372.022 6.70398 4.06861 0
M  V30 3936 N 369.525 -1.3858 0.750561 0
M  V30 3937 C 370.753 -2.04471 0.316098 0
M  V30 3938 C 371.168 -1.56606 -1.05452 0
M  V30 3939 O 370.525 -0.737784 -1.66922 0
M  V30 3940 C 370.576 -3.60025 0.326275 0
M  V30 3941 O 370.297 -4.06133 1.6428 0
M  V30 3942 C 371.798 -4.43131 -0.122429 0
M  V30 3943 H 369.018 -0.65717 0.135528 0
M  V30 3944 H 371.562 -1.77329 1.01857 0
M  V30 3945 H 369.717 -3.86014 -0.327431 0
M  V30 3946 H 370.131 -5.00547 1.56693 0
M  V30 3947 H 371.605 -5.51963 -0.0641473 0
M  V30 3948 H 372.082 -4.23333 -1.16988 0
M  V30 3949 H 372.688 -4.22323 0.50229 0
M  V30 3950 N 371.003 -0.499398 -1.49478 0
M  V30 3951 C 372.228 0.044722 -2.07352 0
M  V30 3952 C 372.653 1.30207 -1.35749 0
M  V30 3953 O 372.011 1.76516 -0.413732 0
M  V30 3954 C 372.059 0.283013 -3.59488 0
M  V30 3955 O 371.163 1.35804 -3.89398 0
M  V30 3956 H 370.504 -0.0255147 -0.66351 0
M  V30 3957 H 373.034 -0.698561 -1.92305 0
M  V30 3958 H 373.044 0.515007 -4.04737 0
M  V30 3959 H 371.719 -0.635636 -4.11014 0
M  V30 3960 H 370.296 1.11113 -3.55961 0
M  V30 3961 N 372.481 1.55866 -0.233164 0
M  V30 3962 C 373.728 1.98603 0.395374 0
M  V30 3963 C 374.056 1.12105 1.58942 0
M  V30 3964 O 373.311 0.168656 1.94972 0
M  V30 3965 C 373.61 3.46856 0.861724 0
M  V30 3966 C 373.276 4.50348 -0.223066 0
M  V30 3967 C 371.938 4.78371 -0.521038 0
M  V30 3968 C 374.29 5.12355 -0.956124 0
M  V30 3969 C 371.618 5.6568 -1.55638 0
M  V30 3970 C 373.97 6.00786 -1.98089 0
M  V30 3971 C 372.634 6.27148 -2.28565 0
M  V30 3972 H 371.904 0.726739 0.144677 0
M  V30 3973 H 374.551 1.88491 -0.338114 0
M  V30 3974 H 372.856 3.5423 1.67418 0
M  V30 3975 H 374.553 3.77302 1.35809 0
M  V30 3976 H 371.143 4.28596 0.0193234 0
M  V30 3977 H 375.327 4.90765 -0.739166 0
M  V30 3978 H 370.583 5.84365 -1.798 0
M  V30 3979 H 374.757 6.4788 -2.55391 0
M  V30 3980 H 372.384 6.94597 -3.08932 0
M  V30 3981 N 373.959 -0.0401083 1.57549 0
M  V30 3982 C 375.184 -0.748931 1.93406 0
M  V30 3983 C 375.609 -1.68686 0.832274 0
M  V30 3984 O 374.967 -1.80047 -0.212818 0
M  V30 3985 C 375.015 -1.4916 3.28304 0
M  V30 3986 O 374.119 -2.6042 3.19774 0
M  V30 3987 H 373.46 -0.202212 0.63246 0
M  V30 3988 H 375.99 0.00112086 2.046 0
M  V30 3989 H 376 -1.86395 3.62934 0
M  V30 3990 H 374.675 -0.80364 4.08062 0
M  V30 3991 H 373.252 -2.25808 2.96758 0
M  V30 3992 N 375.437 -1.54477 -0.31217 0
M  V30 3993 C 376.4 -1.83923 -1.36766 0
M  V30 3994 C 377.4 -0.711563 -1.44199 0
M  V30 3995 O 378.59 -0.979866 -1.44029 0
M  V30 3996 C 375.722 -2.0095 -2.75376 0
M  V30 3997 H 376.915 -2.78239 -1.11906 0
M  V30 3998 H 374.468 -1.46369 -0.548257 0
M  V30 3999 H 375.203 -1.08883 -3.05475 0
M  V30 4000 H 374.988 -2.83018 -2.71373 0
M  V30 4001 H 376.478 -2.2514 -3.51713 0
M  V30 4002 N 376.915 0.57481 -1.46744 0
M  V30 4003 C 378.326 1.15695 -1.46532 0
M  V30 4004 C 378.677 1.95068 -0.210425 0
M  V30 4005 O 377.802 2.05241 0.685944 0
M  V30 4006 C 378.397 2.1048 -2.65487 0
M  V30 4007 C 376.956 2.64002 -2.68291 0
M  V30 4008 C 376.103 1.40026 -2.39349 0
M  V30 4009 H 379.054 0.362325 -1.54509 0
M  V30 4010 H 379.075 2.94074 -2.41455 0
M  V30 4011 H 378.587 1.52683 -3.56805 0
M  V30 4012 H 376.688 3.25646 -1.81067 0
M  V30 4013 H 376.801 3.06197 -3.68483 0
M  V30 4014 H 375.165 1.70106 -1.89568 0
M  V30 4015 H 375.948 0.840485 -3.32852 0
M  V30 4016 N 378.394 1.34581 0.820102 0
M  V30 4017 C 379.622 1.3018 1.60813 0
M  V30 4018 C 380.037 -0.123551 1.88395 0
M  V30 4019 O 379.394 -1.07148 1.47735 0
M  V30 4020 C 379.445 2.09312 2.94739 0
M  V30 4021 O 379.166 3.46288 2.68358 0
M  V30 4022 C 380.667 2.1234 3.89136 0
M  V30 4023 H 377.887 0.447726 0.499782 0
M  V30 4024 H 380.431 1.77237 1.02017 0
M  V30 4025 H 378.586 1.65889 3.50085 0
M  V30 4026 H 379 3.87227 3.53774 0
M  V30 4027 H 380.474 2.72126 4.80262 0
M  V30 4028 H 380.951 1.11854 4.24718 0
M  V30 4029 H 381.557 2.55864 3.39726 0
M  V30 4030 N 379.872 -1.04064 1.18357 0
M  V30 4031 C 381.283 -1.58719 0.98312 0
M  V30 4032 C 381.634 -1.90556 -0.467193 0
M  V30 4033 O 380.759 -1.69561 -1.34454 0
M  V30 4034 C 381.354 -2.88379 1.77828 0
M  V30 4035 C 379.913 -3.3965 1.62218 0
M  V30 4036 C 379.06 -2.13235 1.77274 0
M  V30 4037 H 382.011 -0.867359 1.32901 0
M  V30 4038 H 382.032 -3.58773 1.26737 0
M  V30 4039 H 381.544 -2.65176 2.83379 0
M  V30 4040 H 379.645 -3.67866 0.592036 0
M  V30 4041 H 379.758 -4.13475 2.42023 0
M  V30 4042 H 378.122 -2.24542 1.20221 0
M  V30 4043 H 378.905 -1.92487 2.8426 0
M  V30 4044 N 381.35 -0.985608 -1.22978 0
M  V30 4045 C 382.28 -0.549649 -2.26939 0
M  V30 4046 C 383.261 0.419803 -1.64838 0
M  V30 4047 O 384.446 0.31203 -1.91677 0
M  V30 4048 C 381.576 0.143652 -3.47003 0
M  V30 4049 C 380.53 -0.743606 -4.21491 0
M  V30 4050 C 379.856 0.0822027 -5.34637 0
M  V30 4051 C 381.156 -2.03694 -4.80943 0
M  V30 4052 H 382.85 -1.41862 -2.63658 0
M  V30 4053 H 380.396 -0.683571 -1.26741 0
M  V30 4054 H 382.349 0.459985 -4.18882 0
M  V30 4055 H 381.073 1.04711 -3.09359 0
M  V30 4056 H 379.732 -1.04347 -3.51436 0
M  V30 4057 H 379.38 0.986359 -4.93234 0
M  V30 4058 H 379.08 -0.508377 -5.85397 0
M  V30 4059 H 380.604 0.392797 -6.09335 0
M  V30 4060 H 382.018 -1.78504 -5.44802 0
M  V30 4061 H 380.415 -2.57573 -5.42011 0
M  V30 4062 H 381.485 -2.72042 -4.01399 0
M  V30 4063 N 382.828 1.3818 -0.7579 0
M  V30 4064 C 383.76 2.2901 -0.0932177 0
M  V30 4065 C 384.773 1.47958 0.679136 0
M  V30 4066 O 385.962 1.70773 0.519514 0
M  V30 4067 C 383.062 3.26953 0.89192 0
M  V30 4068 C 382.235 4.37045 0.176303 0
M  V30 4069 C 381.294 5.15148 1.07281 0
M  V30 4070 O 380.32 5.66616 0.541728 0
M  V30 4071 N 381.522 5.28542 2.40049 0
M  V30 4072 H 384.287 2.86694 -0.873303 0
M  V30 4073 H 381.848 1.50007 -0.609054 0
M  V30 4074 H 383.84 3.76083 1.49479 0
M  V30 4075 H 382.41 2.70136 1.57306 0
M  V30 4076 H 381.63 3.89493 -0.607328 0
M  V30 4077 H 382.918 5.07801 -0.318718 0
M  V30 4078 H 382.316 4.88285 2.85647 0
M  V30 4079 H 380.873 5.8103 2.95376 0
M  V30 4080 N 384.306 0.507319 1.49211 0
M  V30 4081 C 385.269 -0.256763 2.27757 0
M  V30 4082 C 386.269 -0.888287 1.34038 0
M  V30 4083 O 387.459 -0.751841 1.5714 0
M  V30 4084 C 384.591 -1.36905 3.12202 0
M  V30 4085 H 385.784 0.432557 2.96764 0
M  V30 4086 H 383.337 0.262488 1.5408 0
M  V30 4087 H 384.072 -2.09233 2.47775 0
M  V30 4088 H 383.857 -0.921599 3.81115 0
M  V30 4089 H 385.347 -1.9071 3.7151 0
M  V30 4090 N 385.784 -1.5574 0.241426 0
M  V30 4091 C 387.032 -1.98417 -0.384075 0
M  V30 4092 C 387.353 -1.13078 -1.58866 0
M  V30 4093 O 386.623 -0.212312 -1.94746 0
M  V30 4094 H 385.203 -0.732813 -0.144894 0
M  V30 4095 H 387.865 -1.9193 0.338943 0
M  V30 4096 H 386.961 -3.04219 -0.696939 0
M  V30 4097 N 387.262 0.0317525 -1.57568 0
M  V30 4098 C 388.508 0.724175 -1.8943 0
M  V30 4099 C 388.841 1.75149 -0.838836 0
M  V30 4100 O 388.116 1.93948 0.146422 0
M  V30 4101 C 388.399 1.39615 -3.31933 0
M  V30 4102 C 388.252 0.382537 -4.4817 0
M  V30 4103 C 389.571 2.33084 -3.73309 0
M  V30 4104 H 386.69 0.261797 -0.688935 0
M  V30 4105 H 389.332 -0.013017 -1.89996 0
M  V30 4106 H 387.482 2.02451 -3.31581 0
M  V30 4107 H 389.154 -0.243689 -4.60656 0
M  V30 4108 H 387.397 -0.29844 -4.32772 0
M  V30 4109 H 388.068 0.891145 -5.44759 0
M  V30 4110 H 390.544 1.80295 -3.7501 0
M  V30 4111 H 389.42 2.77084 -4.73831 0
M  V30 4112 H 389.681 3.19643 -3.05419 0
M  V30 4113 N 388.74 1.54641 0.303973 0
M  V30 4114 C 389.703 1.84646 1.35789 0
M  V30 4115 C 390.703 0.7192 1.4382 0
M  V30 4116 O 391.893 0.987491 1.43507 0
M  V30 4117 C 389.025 2.02407 2.74307 0
M  V30 4118 H 390.218 2.78829 1.10429 0
M  V30 4119 H 387.771 1.46658 0.540487 0
M  V30 4120 H 388.506 1.10502 3.04893 0
M  V30 4121 H 388.291 2.84453 2.69868 0
M  V30 4122 H 389.781 2.27002 3.50514 0
M  V30 4123 N 390.218 -0.567019 1.47046 0
M  V30 4124 C 391.128 -1.70247 1.6141 0
M  V30 4125 C 392.144 -1.66746 0.497157 0
M  V30 4126 O 393.32 -1.86371 0.763389 0
M  V30 4127 C 390.385 -3.06756 1.61561 0
M  V30 4128 C 389.446 -3.21399 2.84607 0
M  V30 4129 C 388.679 -4.51396 2.84741 0
M  V30 4130 O 388.902 -5.36255 1.94388 0
M  V30 4131 O 387.836 -4.69621 3.76483 0
M  V30 4132 H 391.662 -1.61073 2.57467 0
M  V30 4133 H 389.247 -0.735894 1.30019 0
M  V30 4134 H 391.129 -3.8801 1.64396 0
M  V30 4135 H 389.804 -3.16333 0.686684 0
M  V30 4136 H 388.711 -2.39579 2.8732 0
M  V30 4137 H 390.044 -3.16721 3.76761 0
M  V30 4138 N 391.696 -1.35014 -0.812953 0
M  V30 4139 C 392.659 -1.27292 -1.90602 0
M  V30 4140 C 393.659 -0.185817 -1.59723 0
M  V30 4141 O 394.849 -0.439102 -1.68575 0
M  V30 4142 C 391.981 -0.967676 -3.26877 0
M  V30 4143 H 393.174 -2.24479 -1.9887 0
M  V30 4144 H 390.727 -1.19446 -1.00808 0
M  V30 4145 H 391.462 0.0005954 -3.243 0
M  V30 4146 H 391.247 -1.75412 -3.50675 0
M  V30 4147 H 392.737 -0.939085 -4.06904 0
M  V30 4148 N 393.175 1.03435 -1.18907 0
M  V30 4149 C 394.105 2.13503 -0.945448 0
M  V30 4150 C 395.086 1.69682 0.119189 0
M  V30 4151 O 396.271 1.94169 -0.034707 0
M  V30 4152 C 393.401 3.44004 -0.477316 0
M  V30 4153 C 392.355 4.0148 -1.48316 0
M  V30 4154 C 391.681 5.27537 -0.872311 0
M  V30 4155 C 392.981 4.36921 -2.86177 0
M  V30 4156 H 394.675 2.34141 -1.86597 0
M  V30 4157 H 392.221 1.12523 -0.898584 0
M  V30 4158 H 394.174 4.20372 -0.294204 0
M  V30 4159 H 392.898 3.23072 0.478786 0
M  V30 4160 H 391.557 3.27201 -1.65332 0
M  V30 4161 H 391.205 5.02917 0.0911752 0
M  V30 4162 H 390.905 5.66954 -1.54393 0
M  V30 4163 H 392.429 6.06576 -0.699871 0
M  V30 4164 H 393.843 5.04248 -2.72776 0
M  V30 4165 H 392.24 4.87405 -3.50081 0
M  V30 4166 H 393.31 3.46466 -3.39248 0
M  V30 4167 N 394.653 0.992116 1.22453 0
M  V30 4168 C 395.6 0.541731 2.24352 0
M  V30 4169 C 396.57 -0.425519 1.60557 0
M  V30 4170 O 397.755 -0.330453 1.87917 0
M  V30 4171 C 394.895 -0.138248 3.44823 0
M  V30 4172 C 394.008 0.870649 4.23136 0
M  V30 4173 C 393.143 0.164269 5.30946 0
M  V30 4174 C 392.182 1.16159 6.00977 0
M  V30 4175 N 391.319 0.483568 7.00433 0
M  V30 4176 H 396.159 1.41541 2.62241 0
M  V30 4177 H 393.696 0.709013 1.28885 0
M  V30 4178 H 395.654 -0.5494 4.13567 0
M  V30 4179 H 394.284 -0.975721 3.077 0
M  V30 4180 H 393.336 1.40013 3.53696 0
M  V30 4181 H 394.648 1.63014 4.7141 0
M  V30 4182 H 393.802 -0.303653 6.0594 0
M  V30 4183 H 392.541 -0.627733 4.83643 0
M  V30 4184 H 391.546 1.64015 5.24766 0
M  V30 4185 H 392.771 1.95445 6.50368 0
M  V30 4186 H 390.717 -0.289012 6.55363 0
M  V30 4187 H 390.634 1.18152 7.4671 0
M  V30 4188 H 391.902 0.0384219 7.79491 0
M  V30 4189 N 396.131 -1.37776 0.765217 0
M  V30 4190 C 397.061 -2.32945 0.160953 0
M  V30 4191 C 398.042 -1.55454 -0.690516 0
M  V30 4192 O 399.227 -1.83721 -0.629318 0
M  V30 4193 C 396.357 -3.39669 -0.724031 0
M  V30 4194 C 395.311 -4.27992 0.0256173 0
M  V30 4195 C 394.637 -5.25673 -0.978383 0
M  V30 4196 C 395.937 -5.08309 1.20082 0
M  V30 4197 H 397.631 -2.83728 0.955969 0
M  V30 4198 H 395.177 -1.36416 0.461149 0
M  V30 4199 H 397.13 -4.05219 -1.15652 0
M  V30 4200 H 395.854 -2.87396 -1.5515 0
M  V30 4201 H 394.513 -3.63964 0.438812 0
M  V30 4202 H 394.161 -4.69682 -1.80022 0
M  V30 4203 H 393.861 -5.85625 -0.481378 0
M  V30 4204 H 395.385 -5.94098 -1.40995 0
M  V30 4205 H 396.799 -5.67034 0.845307 0
M  V30 4206 H 395.196 -5.77554 1.62947 0
M  V30 4207 H 396.266 -4.41365 2.00811 0
M  V30 4208 N 397.609 -0.515225 -1.4894 0
M  V30 4209 C 398.572 0.244681 -2.2789 0
M  V30 4210 C 399.572 0.881166 -1.34507 0
M  V30 4211 O 400.762 0.743497 -1.57537 0
M  V30 4212 C 397.894 1.35247 -3.12923 0
M  V30 4213 H 399.087 -0.448289 -2.96531 0
M  V30 4214 H 396.64 -0.270656 -1.53939 0
M  V30 4215 H 397.375 2.07916 -2.48881 0
M  V30 4216 H 397.16 0.901374 -3.81599 0
M  V30 4217 H 398.65 1.88737 -3.72516 0
M  V30 4218 N 399.087 1.5561 -0.249682 0
M  V30 4219 C 400.503 1.59254 0.105103 0
M  V30 4220 C 400.703 1.26685 1.56694 0
M  V30 4221 O 399.759 1.0155 2.31179 0
M  V30 4222 C 401.072 2.99687 -0.246592 0
M  V30 4223 C 402.62 3.12416 -0.191118 0
M  V30 4224 C 403.095 4.55074 -0.516885 0
M  V30 4225 N 404.586 4.60835 -0.467489 0
M  V30 4226 C 405.321 5.69201 -0.69268 0
M  V30 4227 N 404.817 6.85817 -0.981146 0
M  V30 4228 N 406.61 5.58635 -0.623198 0
M  V30 4229 H 398.761 1.75049 -1.20298 0
M  V30 4230 H 401.024 0.815003 -0.484225 0
M  V30 4231 H 400.73 3.28267 -1.26228 0
M  V30 4232 H 400.604 3.74798 0.424962 0
M  V30 4233 H 402.991 2.83615 0.815247 0
M  V30 4234 H 403.072 2.39573 -0.896563 0
M  V30 4235 H 402.716 4.84596 -1.52082 0
M  V30 4236 H 402.646 5.26181 0.210068 0
M  V30 4237 H 405.137 3.7705 -0.253373 0
M  V30 4238 H 405.45 7.64341 -1.14032 0
M  V30 4239 H 403.795 6.87494 -1.01865 0
M  V30 4240 H 406.986 4.66406 -0.397863 0
M  V30 4241 H 407.159 6.43017 -0.802093 0
M  V30 4242 N 400.565 -0.0233959 1.57583 0
M  V30 4243 C 401.981 -0.379134 1.55031 0
M  V30 4244 C 402.181 -1.76255 0.976548 0
M  V30 4245 O 401.237 -2.45266 0.600078 0
M  V30 4246 C 402.55 -0.275792 2.99433 0
M  V30 4247 C 404.098 -0.352458 3.11009 0
M  V30 4248 C 404.573 -0.278501 4.57152 0
M  V30 4249 N 406.064 -0.337123 4.61972 0
M  V30 4250 C 406.799 -0.302876 5.726 0
M  V30 4251 N 406.295 -0.220589 6.92449 0
M  V30 4252 N 408.088 -0.353023 5.6099 0
M  V30 4253 H 400.239 0.881869 1.93227 0
M  V30 4254 H 402.502 0.335867 0.886509 0
M  V30 4255 H 402.208 0.675108 3.4516 0
M  V30 4256 H 402.082 -1.06721 3.61788 0
M  V30 4257 H 404.469 -1.29379 2.65226 0
M  V30 4258 H 404.55 0.468409 2.51475 0
M  V30 4259 H 404.194 0.659189 5.03604 0
M  V30 4260 H 404.124 -1.11755 5.14605 0
M  V30 4261 H 406.615 -0.403002 3.75745 0
M  V30 4262 H 406.928 -0.199713 7.72542 0
M  V30 4263 H 405.273 -0.186555 6.9475 0
M  V30 4264 H 408.464 -0.415339 4.66254 0
M  V30 4265 H 408.637 -0.322866 6.47195 0
M  V30 4266 N 402.043 -1.548 -0.295768 0
M  V30 4267 C 402.953 -1.89177 -1.38742 0
M  V30 4268 C 403.969 -0.786481 -1.55211 0
M  V30 4269 O 405.145 -1.08344 -1.69775 0
M  V30 4270 C 402.21 -2.13663 -2.73036 0
M  V30 4271 C 401.271 -3.37349 -2.65508 0
M  V30 4272 C 400.504 -3.60658 -3.93398 0
M  V30 4273 O 400.727 -2.86882 -4.93006 0
M  V30 4274 O 399.661 -4.54179 -3.94975 0
M  V30 4275 H 403.487 -2.82059 -1.12589 0
M  V30 4276 H 401.072 -1.41056 -0.492295 0
M  V30 4277 H 402.954 -2.3094 -3.52484 0
M  V30 4278 H 401.629 -1.23967 -2.99022 0
M  V30 4279 H 400.536 -3.25431 -1.84514 0
M  V30 4280 H 401.869 -4.27192 -2.44474 0
M  V30 4281 N 403.521 0.559213 -1.47345 0
M  V30 4282 C 404.769 1.31388 -1.53563 0
M  V30 4283 C 405.09 1.93985 -0.198678 0
M  V30 4284 O 404.36 1.79825 0.777167 0
M  V30 4285 H 402.94 0.487901 -0.565652 0
M  V30 4286 H 405.602 0.65315 -1.8363 0
M  V30 4287 H 404.698 2.10844 -2.30111 0
M  V30 4288 N 404.999 1.35443 0.805782 0
M  V30 4289 C 406.246 1.28761 1.56291 0
M  V30 4290 C 406.574 -0.137747 1.94012 0
M  V30 4291 O 405.829 -1.1032 1.61642 0
M  V30 4292 C 406.128 2.14045 2.86216 0
M  V30 4293 C 405.794 3.62826 2.67709 0
M  V30 4294 C 404.456 4.0338 2.6237 0
M  V30 4295 C 406.808 4.57227 2.50186 0
M  V30 4296 C 404.136 5.36501 2.37451 0
M  V30 4297 C 406.488 5.90547 2.26797 0
M  V30 4298 C 405.152 6.30245 2.1988 0
M  V30 4299 H 404.422 0.471171 0.571908 0
M  V30 4300 H 407.069 1.67347 0.930974 0
M  V30 4301 H 405.374 1.68342 3.53791 0
M  V30 4302 H 407.071 2.0621 3.43917 0
M  V30 4303 H 403.661 3.30644 2.72713 0
M  V30 4304 H 407.845 4.2678 2.53323 0
M  V30 4305 H 403.101 5.66259 2.30567 0
M  V30 4306 H 407.275 6.63274 2.12228 0
M  V30 4307 H 404.902 7.33328 2.00333 0
M  V30 4308 N 406.477 -1.02803 1.19454 0
M  V30 4309 C 407.707 -1.79581 1.02149 0
M  V30 4310 C 408.115 -1.84182 -0.432851 0
M  V30 4311 O 407.458 -1.28534 -1.31243 0
M  V30 4312 C 407.52 -3.25993 1.51554 0
M  V30 4313 C 407.184 -3.45025 2.99678 0
M  V30 4314 C 408.181 -3.35175 3.97434 0
M  V30 4315 C 405.866 -3.71212 3.38389 0
M  V30 4316 C 407.86 -3.51238 5.31893 0
M  V30 4317 C 405.547 -3.8692 4.73008 0
M  V30 4318 C 406.545 -3.76936 5.69569 0
M  V30 4319 O 406.233 -3.92179 7.01748 0
M  V30 4320 H 405.965 -0.571962 0.360327 0
M  V30 4321 H 408.519 -1.30367 1.58725 0
M  V30 4322 H 406.749 -3.76235 0.893543 0
M  V30 4323 H 408.438 -3.84368 1.30444 0
M  V30 4324 H 409.204 -3.14895 3.68872 0
M  V30 4325 H 405.083 -3.78075 2.6378 0
M  V30 4326 H 408.627 -3.43362 6.07247 0
M  V30 4327 H 404.524 -4.06699 5.01265 0
M  V30 4328 H 405.292 -4.09265 7.08833 0
M  V30 4329 N 407.956 -0.998596 -1.21925 0
M  V30 4330 C 408.866 -0.562736 -2.27751 0
M  V30 4331 C 409.882 0.391203 -1.69545 0
M  V30 4332 O 411.058 0.256625 -1.99758 0
M  V30 4333 C 408.123 0.11012 -3.46525 0
M  V30 4334 C 407.184 -0.887495 -4.20026 0
M  V30 4335 C 406.417 -0.246654 -5.3313 0
M  V30 4336 O 406.64 0.958088 -5.62296 0
M  V30 4337 O 405.574 -0.954374 -5.94286 0
M  V30 4338 H 409.4 -1.44329 -2.67213 0
M  V30 4339 H 406.985 -0.767135 -1.28201 0
M  V30 4340 H 408.867 0.486756 -4.18579 0
M  V30 4341 H 407.542 0.965154 -3.08976 0
M  V30 4342 H 406.449 -1.31517 -3.5022 0
M  V30 4343 H 407.782 -1.71191 -4.6147 0
M  V30 4344 N 409.434 1.37368 -0.772513 0
M  V30 4345 C 410.397 2.28601 -0.165541 0
M  V30 4346 C 411.397 1.48062 0.627238 0
M  V30 4347 O 412.587 1.68268 0.450715 0
M  V30 4348 C 409.719 3.32023 0.772897 0
M  V30 4349 H 410.912 2.83787 -0.969787 0
M  V30 4350 H 408.465 1.46647 -0.540775 0
M  V30 4351 H 409.2 2.81962 1.60212 0
M  V30 4352 H 408.985 3.91555 0.206585 0
M  V30 4353 H 410.475 4.00197 1.19298 0
M  V30 4354 N 410.912 0.523116 1.48665 0
M  V30 4355 C 411.842 -0.23231 2.32342 0
M  V30 4356 C 412.823 -0.941637 1.41659 0
M  V30 4357 O 414.008 -0.928751 1.70552 0
M  V30 4358 C 411.138 -1.28387 3.22698 0
M  V30 4359 C 410.092 -0.693098 4.22351 0
M  V30 4360 C 409.418 -1.8468 5.01794 0
M  V30 4361 C 410.718 0.33063 5.21252 0
M  V30 4362 H 412.412 0.466192 2.95748 0
M  V30 4363 H 409.958 0.225643 1.42221 0
M  V30 4364 H 411.911 -1.82024 3.80059 0
M  V30 4365 H 410.635 -2.01186 2.57278 0
M  V30 4366 H 409.294 -0.178299 3.66166 0
M  V30 4367 H 408.942 -2.56301 4.32804 0
M  V30 4368 H 408.642 -1.45747 5.69238 0
M  V30 4369 H 410.166 -2.38709 5.62006 0
M  V30 4370 H 411.58 -0.118407 5.73178 0
M  V30 4371 H 409.977 0.636974 5.9671 0
M  V30 4372 H 411.047 1.23883 4.68808 0
M  V30 4373 N 412.39 -1.55475 0.257931 0
M  V30 4374 C 413.806 -1.59307 -0.0966563 0
M  V30 4375 C 414.006 -1.27514 -1.5602 0
M  V30 4376 O 413.062 -1.02774 -2.30637 0
M  V30 4377 C 414.375 -2.99552 0.262481 0
M  V30 4378 C 415.923 -3.1231 0.207683 0
M  V30 4379 C 416.398 -4.54793 0.541012 0
M  V30 4380 N 417.889 -4.6058 0.491921 0
M  V30 4381 C 418.624 -5.68825 0.722857 0
M  V30 4382 N 418.12 -6.85287 1.0175 0
M  V30 4383 N 419.913 -5.58296 0.652815 0
M  V30 4384 H 412.064 -1.74409 1.21224 0
M  V30 4385 H 414.327 -0.812424 0.48854 0
M  V30 4386 H 414.033 -3.27593 1.27967 0
M  V30 4387 H 413.907 -3.75019 -0.40508 0
M  V30 4388 H 416.294 -2.84044 -0.800195 0
M  V30 4389 H 416.375 -2.39095 0.909255 0
M  V30 4390 H 416.019 -4.83783 1.5465 0
M  V30 4391 H 415.949 -5.26285 -0.18216 0
M  V30 4392 H 418.44 -3.7691 0.273366 0
M  V30 4393 H 418.753 -7.63725 1.18084 0
M  V30 4394 H 417.098 -6.86945 1.05509 0
M  V30 4395 H 420.289 -4.66189 0.422592 0
M  V30 4396 H 420.462 -6.42582 0.836182 0
M  V30 4397 N 413.868 0.0150385 -1.57593 0
M  V30 4398 C 414.778 1.02791 -2.10882 0
M  V30 4399 C 415.794 1.38702 -1.0506 0
M  V30 4400 O 416.97 1.47739 -1.36877 0
M  V30 4401 C 414.035 2.30568 -2.58919 0
M  V30 4402 C 413.096 2.01108 -3.79281 0
M  V30 4403 C 412.329 3.22794 -4.25018 0
M  V30 4404 O 412.552 4.33959 -3.70183 0
M  V30 4405 O 411.486 3.07672 -5.17322 0
M  V30 4406 H 415.312 0.604973 -2.97613 0
M  V30 4407 H 412.897 0.23292 -1.47573 0
M  V30 4408 H 414.779 3.05662 -2.90084 0
M  V30 4409 H 413.454 2.72129 -1.75293 0
M  V30 4410 H 412.361 1.23537 -3.53114 0
M  V30 4411 H 413.694 1.64394 -4.63935 0
M  V30 4412 N 415.346 1.54954 0.287554 0
M  V30 4413 C 416.594 1.74528 1.01904 0
M  V30 4414 C 416.915 0.541349 1.87335 0
M  V30 4415 O 416.185 -0.444108 1.908 0
M  V30 4416 H 414.765 0.643576 0.379235 0
M  V30 4417 H 417.427 1.92333 0.315294 0
M  V30 4418 H 416.523 2.64015 1.6644 0
M  V30 4419 N 416.824 -0.551391 1.4764 0
M  V30 4420 C 418.054 -1.33163 1.57959 0
M  V30 4421 C 418.462 -1.87785 0.23094 0
M  V30 4422 O 417.805 -1.65996 -0.786825 0
M  V30 4423 C 417.867 -2.53449 2.54958 0
M  V30 4424 C 417.531 -2.20071 4.00522 0
M  V30 4425 C 418.528 -1.77017 4.88836 0
M  V30 4426 C 416.213 -2.31252 4.45901 0
M  V30 4427 C 418.207 -1.4558 6.20552 0
M  V30 4428 C 415.894 -1.99427 5.77644 0
M  V30 4429 C 416.892 -1.56659 6.64791 0
M  V30 4430 O 416.58 -1.25242 7.94084 0
M  V30 4431 H 416.312 -0.412022 0.535923 0
M  V30 4432 H 418.866 -0.674186 1.9402 0
M  V30 4433 H 417.096 -3.22104 2.13976 0
M  V30 4434 H 418.785 -3.15523 2.55343 0
M  V30 4435 H 419.551 -1.67867 4.55023 0
M  V30 4436 H 415.43 -2.63498 3.78272 0
M  V30 4437 H 418.974 -1.12125 6.8853 0
M  V30 4438 H 414.871 -2.08211 6.10998 0
M  V30 4439 H 415.639 -1.38822 8.06642 0
M  V30 4440 N 418.302 -1.35869 -0.798587 0
M  V30 4441 C 419.718 -1.16082 -1.09532 0
M  V30 4442 C 419.918 0.0213124 -2.01489 0
M  V30 4443 O 418.974 0.689488 -2.42904 0
M  V30 4444 C 420.287 -2.46748 -1.7186 0
M  V30 4445 C 421.835 -2.53028 -1.84244 0
M  V30 4446 C 422.31 -3.83758 -2.49988 0
M  V30 4447 N 423.801 -3.85053 -2.57465 0
M  V30 4448 C 424.536 -4.8294 -3.09122 0
M  V30 4449 N 424.032 -5.91217 -3.61157 0
M  V30 4450 N 425.825 -4.70369 -3.0775 0
M  V30 4451 H 417.976 -2.11571 -0.187461 0
M  V30 4452 H 420.239 -0.936726 -0.145765 0
M  V30 4453 H 419.945 -3.33471 -1.11759 0
M  V30 4454 H 419.819 -2.61883 -2.71472 0
M  V30 4455 H 422.206 -1.66729 -2.43486 0
M  V30 4456 H 422.287 -2.418 -0.834643 0
M  V30 4457 H 421.931 -4.70459 -1.91393 0
M  V30 4458 H 421.861 -3.92278 -3.5132 0
M  V30 4459 H 424.352 -3.06822 -2.20609 0
M  V30 4460 H 424.665 -6.61892 -3.98896 0
M  V30 4461 H 423.01 -5.94899 -3.59333 0
M  V30 4462 H 426.201 -3.84914 -2.66381 0
M  V30 4463 H 426.374 -5.46816 -3.47701 0
M  V30 4464 N 419.78 1.02168 -1.19998 0
M  V30 4465 C 421.196 1.27969 -0.953737 0
M  V30 4466 C 421.396 1.98079 0.369703 0
M  V30 4467 O 420.452 2.27306 1.09947 0
M  V30 4468 C 421.765 2.11971 -2.13281 0
M  V30 4469 C 423.313 2.25255 -2.17323 0
M  V30 4470 C 423.788 3.12632 -3.34702 0
M  V30 4471 N 425.279 3.2022 -3.34684 0
M  V30 4472 C 426.014 3.88039 -4.22153 0
M  V30 4473 N 425.51 4.58027 -5.19791 0
M  V30 4474 N 427.303 3.84511 -4.10009 0
M  V30 4475 H 419.454 0.550794 -2.05134 0
M  V30 4476 H 421.717 0.305683 -0.897364 0
M  V30 4477 H 421.423 1.67785 -3.09097 0
M  V30 4478 H 421.297 3.12699 -2.10949 0
M  V30 4479 H 423.684 2.68667 -1.22073 0
M  V30 4480 H 423.765 1.24053 -2.23706 0
M  V30 4481 H 423.409 2.69926 -4.30235 0
M  V30 4482 H 423.339 4.13909 -3.25556 0
M  V30 4483 H 425.83 2.70382 -2.64012 0
M  V30 4484 H 426.143 5.07429 -5.82868 0
M  V30 4485 H 424.488 4.56869 -5.23733 0
M  V30 4486 H 427.679 3.28978 -3.33003 0
M  V30 4487 H 427.852 4.3709 -4.78389 0
M  V30 4488 N 421.258 1.00505 1.21394 0
M  V30 4489 C 422.674 0.717873 1.42544 0
M  V30 4490 C 422.874 -0.706936 1.88692 0
M  V30 4491 O 421.93 -1.47627 2.04847 0
M  V30 4492 C 423.243 1.73377 2.45684 0
M  V30 4493 C 424.791 1.75059 2.59467 0
M  V30 4494 C 425.266 2.75545 3.6584 0
M  V30 4495 N 426.757 2.74213 3.73311 0
M  V30 4496 C 427.492 3.48626 4.55245 0
M  V30 4497 N 426.988 4.32678 5.41075 0
M  V30 4498 N 428.781 3.37276 4.49668 0
M  V30 4499 H 420.932 1.92506 0.897503 0
M  V30 4500 H 423.195 0.830919 0.456375 0
M  V30 4501 H 422.901 2.75395 2.18748 0
M  V30 4502 H 422.775 1.53647 3.44489 0
M  V30 4503 H 425.162 0.737337 2.8574 0
M  V30 4504 H 425.243 1.98861 1.60897 0
M  V30 4505 H 424.887 3.77028 3.40313 0
M  V30 4506 H 424.817 2.49009 4.64007 0
M  V30 4507 H 427.308 2.13234 3.11993 0
M  V30 4508 H 427.621 4.86253 6.00648 0
M  V30 4509 H 425.966 4.3676 5.40616 0
M  V30 4510 H 429.157 2.71043 3.81646 0
M  V30 4511 H 429.33 3.95524 5.13288 0
M  V30 4512 N 422.737 -1.36956 0.779787 0
M  V30 4513 C 424.153 -1.52817 0.460342 0
M  V30 4514 C 424.353 -1.7361 -1.02283 0
M  V30 4515 O 423.409 -1.76207 -1.80852 0
M  V30 4516 C 424.722 -2.71983 1.28241 0
M  V30 4517 C 426.27 -2.85849 1.27512 0
M  V30 4518 C 426.745 -4.08008 2.08072 0
M  V30 4519 N 428.236 -4.15135 2.05467 0
M  V30 4520 C 428.971 -5.08711 2.64577 0
M  V30 4521 N 428.467 -6.07792 3.32506 0
M  V30 4522 N 430.26 -5.01254 2.54363 0
M  V30 4523 H 422.411 -1.21713 1.74068 0
M  V30 4524 H 424.674 -0.593294 0.739396 0
M  V30 4525 H 424.38 -2.63109 2.33381 0
M  V30 4526 H 424.254 -3.65882 0.917088 0
M  V30 4527 H 426.641 -2.94189 0.231686 0
M  V30 4528 H 426.722 -1.92886 1.68014 0
M  V30 4529 H 426.366 -4.00429 3.12441 0
M  V30 4530 H 426.296 -5.001 1.64947 0
M  V30 4531 H 428.787 -3.44189 1.5602 0
M  V30 4532 H 429.1 -6.75739 3.74963 0
M  V30 4533 H 427.445 -6.08047 3.36606 0
M  V30 4534 H 430.636 -4.22795 2.00902 0
M  V30 4535 H 430.809 -5.73995 3.00722 0
M  V30 4536 N 424.215 -0.530993 -1.48385 0
M  V30 4537 C 425.492 0.0671788 -1.95485 0
M  V30 4538 C 425.872 1.51191 -1.47324 0
M  V30 4539 O 425.22 2.17507 -0.700202 0
M  V30 4540 C 425.43 -0.0511206 -3.48963 0
M  V30 4541 C 426.778 0.107632 -4.24464 0
M  V30 4542 O 427.802 0.0226248 -3.56193 0
M  V30 4543 O 426.661 0.285972 -5.45751 0
M  V30 4544 H 423.755 0.0787365 -0.823243 0
M  V30 4545 H 426.301 -0.595662 -1.58902 0
M  V30 4546 H 425.073 -1.05747 -3.7674 0
M  V30 4547 H 424.696 0.650525 -3.92242 0
M  V30 4548 N 425.693 1.55336 -0.266172 0
M  V30 4549 C 426.623 2.25146 0.618981 0
M  V30 4550 C 427.604 1.23845 1.16604 0
M  V30 4551 O 428.789 1.52544 1.20183 0
M  V30 4552 C 425.919 2.96572 1.80728 0
M  V30 4553 C 424.873 4.04726 1.39215 0
M  V30 4554 C 424.199 4.63678 2.66283 0
M  V30 4555 C 425.499 5.19407 0.548942 0
M  V30 4556 H 427.193 2.99377 0.0368116 0
M  V30 4557 H 424.739 1.43991 0.0162651 0
M  V30 4558 H 426.692 3.44116 2.43232 0
M  V30 4559 H 425.416 2.19861 2.41514 0
M  V30 4560 H 424.075 3.57979 0.790351 0
M  V30 4561 H 423.723 3.83646 3.25308 0
M  V30 4562 H 423.423 5.367 2.39222 0
M  V30 4563 H 424.947 5.13967 3.29651 0
M  V30 4564 H 426.361 5.63059 1.07876 0
M  V30 4565 H 424.758 5.98936 0.373593 0
M  V30 4566 H 425.828 4.8295 -0.434394 0
M  V30 4567 N 427.171 -0.0066808 1.57599 0
M  V30 4568 C 428.101 -0.999296 2.11036 0
M  V30 4569 C 429.082 -1.36278 1.01795 0
M  V30 4570 O 430.267 -1.4477 1.29442 0
M  V30 4571 C 427.397 -2.29328 2.60818 0
M  V30 4572 C 426.351 -2.07159 3.74525 0
M  V30 4573 C 425.677 -3.42512 4.10596 0
M  V30 4574 C 426.977 -1.43959 5.02069 0
M  V30 4575 H 428.671 -0.554382 2.94223 0
M  V30 4576 H 426.217 -0.265221 1.41536 0
M  V30 4577 H 428.17 -2.99117 2.96828 0
M  V30 4578 H 426.894 -2.7592 1.74745 0
M  V30 4579 H 425.553 -1.39797 3.38899 0
M  V30 4580 H 425.201 -3.86795 3.21556 0
M  V30 4581 H 424.901 -3.28498 4.87199 0
M  V30 4582 H 426.425 -4.13628 4.4916 0
M  V30 4583 H 427.839 -2.03696 5.35893 0
M  V30 4584 H 426.236 -1.40452 5.83432 0
M  V30 4585 H 427.306 -0.407992 4.83181 0
M  V30 4586 N 428.649 -1.55105 -0.279332 0
M  V30 4587 C 429.612 -1.86783 -1.32834 0
M  V30 4588 C 430.612 -0.74199 -1.42657 0
M  V30 4589 O 431.802 -1.0102 -1.41918 0
M  V30 4590 C 428.934 -2.06746 -2.71052 0
M  V30 4591 H 430.127 -2.8055 -1.05979 0
M  V30 4592 H 427.68 -1.47499 -0.517087 0
M  V30 4593 H 428.415 -1.15339 -3.03097 0
M  V30 4594 H 428.2 -2.88711 -2.65309 0
M  V30 4595 H 429.69 -2.32549 -3.46858 0
M  V30 4596 N 430.127 0.543554 -1.4793 0
M  V30 4597 C 431.375 1.29752 -1.54948 0
M  V30 4598 C 431.696 1.93764 -0.219242 0
M  V30 4599 O 430.966 1.80639 0.75805 0
M  V30 4600 H 429.546 0.481874 -0.570795 0
M  V30 4601 H 432.208 0.633636 -1.84312 0
M  V30 4602 H 431.304 2.08392 -2.32334 0
M  V30 4603 N 431.605 1.3629 0.791371 0
M  V30 4604 C 432.853 1.30154 1.5461 0
M  V30 4605 C 433.174 -0.119409 1.94634 0
M  V30 4606 O 432.444 -1.05924 1.64794 0
M  V30 4607 H 431.024 0.478784 0.573389 0
M  V30 4608 H 433.686 1.70565 0.94306 0
M  V30 4609 H 432.782 1.92762 2.45457 0
M  V30 4610 N 433.083 -1.0153 1.20538 0
M  V30 4611 C 434.013 -2.11972 0.979295 0
M  V30 4612 C 434.994 -1.6985 -0.0921787 0
M  V30 4613 O 436.179 -1.94089 0.0655932 0
M  V30 4614 C 433.309 -3.43201 0.531984 0
M  V30 4615 C 432.263 -3.9907 1.54685 0
M  V30 4616 C 431.589 -5.26082 0.956127 0
M  V30 4617 C 432.889 -4.32313 2.93092 0
M  V30 4618 H 434.583 -2.31143 1.90298 0
M  V30 4619 H 432.129 -1.11079 0.916372 0
M  V30 4620 H 434.082 -4.1985 0.361044 0
M  V30 4621 H 432.806 -3.23792 -0.427327 0
M  V30 4622 H 431.465 -3.2453 1.70517 0
M  V30 4623 H 431.113 -5.02999 -0.0111538 0
M  V30 4624 H 430.813 -5.64426 1.63393 0
M  V30 4625 H 432.337 -6.05386 0.796284 0
M  V30 4626 H 433.751 -4.99845 2.80763 0
M  V30 4627 H 432.148 -4.81774 3.57791 0
M  V30 4628 H 433.218 -3.41025 3.44717 0
M  V30 4629 N 434.561 -1.01147 -1.20859 0
M  V30 4630 C 435.977 -0.725422 -1.42161 0
M  V30 4631 C 436.177 0.696919 -1.89064 0
M  V30 4632 O 435.233 1.46539 -2.05627 0
M  V30 4633 C 436.546 -1.74678 -2.44761 0
M  V30 4634 C 438.094 -1.76433 -2.58535 0
M  V30 4635 C 438.569 -2.77481 -3.64374 0
M  V30 4636 N 440.06 -2.76189 -3.71852 0
M  V30 4637 C 440.795 -3.51035 -4.53389 0
M  V30 4638 N 440.291 -4.35541 -5.38773 0
M  V30 4639 N 442.084 -3.39655 -4.47873 0
M  V30 4640 H 434.235 -1.92979 -0.887282 0
M  V30 4641 H 436.498 -0.833327 -0.451962 0
M  V30 4642 H 436.204 -2.76551 -2.17285 0
M  V30 4643 H 436.078 -1.55472 -3.43669 0
M  V30 4644 H 438.465 -0.75248 -2.85345 0
M  V30 4645 H 438.546 -1.99712 -1.5984 0
M  V30 4646 H 438.19 -3.78827 -3.38308 0
M  V30 4647 H 438.12 -2.51466 -4.6268 0
M  V30 4648 H 440.611 -2.14885 -3.10858 0
M  V30 4649 H 440.924 -4.89432 -5.98061 0
M  V30 4650 H 439.269 -4.39621 -5.38292 0
M  V30 4651 H 442.46 -2.73063 -3.80203 0
M  V30 4652 H 442.633 -3.9824 -5.11184 0
M  V30 4653 N 436.039 1.36541 -0.78704 0
M  V30 4654 C 437.002 2.28413 -0.189778 0
M  V30 4655 C 438.002 1.48719 0.611499 0
M  V30 4656 O 439.192 1.68737 0.432842 0
M  V30 4657 C 436.324 3.32824 0.737638 0
M  V30 4658 H 437.517 2.82743 -0.999831 0
M  V30 4659 H 435.07 1.46065 -0.556298 0
M  V30 4660 H 435.805 2.83646 1.57212 0
M  V30 4661 H 435.59 3.91752 0.165044 0
M  V30 4662 H 437.08 4.0144 1.15047 0
M  V30 4663 N 437.518 0.538854 1.48102 0
M  V30 4664 C 438.451 -0.266495 2.26639 0
M  V30 4665 C 439.429 -0.93687 1.32897 0
M  V30 4666 O 440.613 -0.959507 1.62252 0
M  V30 4667 C 437.74 -1.37814 3.09394 0
M  V30 4668 C 436.786 -0.818247 4.18577 0
M  V30 4669 S 437.619 0.320848 5.34538 0
M  V30 4670 C 438.775 -0.793059 6.20855 0
M  V30 4671 H 439.008 0.399994 2.94597 0
M  V30 4672 H 436.541 0.324808 1.50945 0
M  V30 4673 H 438.499 -2.01488 3.57649 0
M  V30 4674 H 437.16 -2.01639 2.40833 0
M  V30 4675 H 436.353 -1.65247 4.7614 0
M  V30 4676 H 435.955 -0.258036 3.73109 0
M  V30 4677 H 438.247 -1.68961 6.56093 0
M  V30 4678 H 439.19 -0.255204 7.0764 0
M  V30 4679 H 439.598 -1.07746 5.54122 0
M  V30 4680 N 438.996 -1.55193 0.274407 0
M  V30 4681 C 440.244 -1.99187 -0.341902 0
M  V30 4682 C 440.565 -1.16422 -1.56431 0
M  V30 4683 O 439.835 -0.253573 -1.94252 0
M  V30 4684 H 438.415 -0.735721 -0.129317 0
M  V30 4685 H 441.077 -1.91168 0.379578 0
M  V30 4686 H 440.173 -3.05629 -0.632253 0
M  V30 4687 N 440.474 -0.00167713 -1.576 0
M  V30 4688 C 441.404 0.988091 -2.11563 0
M  V30 4689 C 442.385 1.35736 -1.02517 0
M  V30 4690 O 443.57 1.44082 -1.30208 0
M  V30 4691 C 440.7 2.27941 -2.62031 0
M  V30 4692 C 439.654 2.0517 -3.75619 0
M  V30 4693 C 438.98 3.4033 -4.12407 0
M  V30 4694 C 440.28 1.41294 -5.02825 0
M  V30 4695 H 441.974 0.538771 -2.94513 0
M  V30 4696 H 439.52 0.257712 -1.41675 0
M  V30 4697 H 441.473 2.97539 -2.9841 0
M  V30 4698 H 440.197 2.74989 -1.76205 0
M  V30 4699 H 438.856 1.37998 -3.39635 0
M  V30 4700 H 438.504 3.85085 -3.23603 0
M  V30 4701 H 438.204 3.25909 -4.88935 0
M  V30 4702 H 439.728 4.1124 -4.51347 0
M  V30 4703 H 441.142 2.00851 -5.36965 0
M  V30 4704 H 439.539 1.37356 -5.84169 0
M  V30 4705 H 440.609 0.382362 -4.8339 0
M  V30 4706 N 441.952 1.55251 0.271103 0
M  V30 4707 C 443.368 1.47133 0.618393 0
M  V30 4708 C 443.568 0.686994 1.89427 0
M  V30 4709 O 442.624 0.206609 2.51653 0
M  V30 4710 C 443.937 2.91361 0.743593 0
M  V30 4711 C 445.485 3.01587 0.837522 0
M  V30 4712 C 445.96 4.47073 0.994483 0
M  V30 4713 N 447.451 4.50909 1.05996 0
M  V30 4714 C 448.186 5.60698 1.20024 0
M  V30 4715 N 447.682 6.80348 1.30759 0
M  V30 4716 N 449.475 5.48444 1.23149 0
M  V30 4717 H 441.626 2.04698 -0.566784 0
M  V30 4718 H 443.889 0.928319 -0.192165 0
M  V30 4719 H 443.595 3.51483 -0.123493 0
M  V30 4720 H 443.469 3.40484 1.62328 0
M  V30 4721 H 445.856 2.4156 1.69507 0
M  V30 4722 H 445.937 2.55713 -0.0668086 0
M  V30 4723 H 445.581 5.07703 0.141582 0
M  V30 4724 H 445.511 4.90605 1.91349 0
M  V30 4725 H 448.002 3.6472 0.989316 0
M  V30 4726 H 448.315 7.59772 1.41303 0
M  V30 4727 H 446.66 6.83156 1.27761 0
M  V30 4728 H 449.851 4.53907 1.14394 0
M  V30 4729 H 450.024 6.34049 1.33738 0
M  V30 4730 N 443.43 -0.535701 1.48216 0
M  V30 4731 C 444.676 -1.29375 1.56173 0
M  V30 4732 C 445.009 -1.92804 0.232429 0
M  V30 4733 O 444.284 -1.78992 -0.761048 0
M  V30 4734 C 444.567 -2.38747 2.69577 0
M  V30 4735 C 444.42 -1.80046 4.12193 0
M  V30 4736 C 445.739 -3.40551 2.78771 0
M  V30 4737 H 442.858 -0.469027 0.568491 0
M  V30 4738 H 445.5 -0.597358 1.80365 0
M  V30 4739 H 443.65 -2.98147 2.4908 0
M  V30 4740 H 445.322 -1.24742 4.44114 0
M  V30 4741 H 443.565 -1.10609 4.19462 0
M  V30 4742 H 444.236 -2.59212 4.87353 0
M  V30 4743 H 446.712 -2.91099 2.97322 0
M  V30 4744 H 445.588 -4.1448 3.59857 0
M  V30 4745 H 445.849 -4.00746 1.86696 0
M  V30 4746 N 444.908 -1.36708 -0.784132 0
M  V30 4747 C 446.138 -1.34203 -1.57077 0
M  V30 4748 C 446.546 0.0774945 -1.89041 0
M  V30 4749 O 445.889 1.04628 -1.50992 0
M  V30 4750 C 445.951 -2.10351 -2.91535 0
M  V30 4751 C 445.615 -3.59405 -2.82272 0
M  V30 4752 C 446.612 -4.53545 -2.54151 0
M  V30 4753 C 444.297 -4.02362 -3.00683 0
M  V30 4754 C 446.291 -5.8862 -2.44551 0
M  V30 4755 C 443.978 -5.37526 -2.90704 0
M  V30 4756 C 444.976 -6.30468 -2.62677 0
M  V30 4757 O 444.664 -7.63149 -2.52702 0
M  V30 4758 H 444.396 -0.461791 -0.493685 0
M  V30 4759 H 446.95 -1.80475 -0.980712 0
M  V30 4760 H 445.18 -1.5875 -3.52612 0
M  V30 4761 H 446.869 -2.00636 -3.52845 0
M  V30 4762 H 447.635 -4.21669 -2.39625 0
M  V30 4763 H 443.514 -3.30389 -3.21503 0
M  V30 4764 H 447.058 -6.61133 -2.22596 0
M  V30 4765 H 442.955 -5.69008 -3.04795 0
M  V30 4766 H 443.723 -7.73331 -2.68144 0
M  V30 4767 N 446.386 1.0089 -1.21074 0
M  V30 4768 C 447.632 1.74866 -1.02712 0
M  V30 4769 C 447.965 1.89178 0.438787 0
M  V30 4770 O 447.24 1.42325 1.32567 0
M  V30 4771 C 447.523 3.16347 -1.72036 0
M  V30 4772 C 447.376 3.09782 -3.26121 0
M  V30 4773 C 448.695 4.15187 -1.45973 0
M  V30 4774 H 445.814 0.634736 -0.374539 0
M  V30 4775 H 448.456 1.17646 -1.49196 0
M  V30 4776 H 446.606 3.65201 -1.32517 0
M  V30 4777 H 448.278 2.68673 -3.74983 0
M  V30 4778 H 446.521 2.46982 -3.56626 0
M  V30 4779 H 447.192 4.09829 -3.6979 0
M  V30 4780 H 449.668 3.75022 -1.80272 0
M  V30 4781 H 448.544 5.12331 -1.96999 0
M  V30 4782 H 448.805 4.40386 -0.388924 0
M  V30 4783 N 447.864 1.01787 1.20321 0
M  V30 4784 C 449.275 0.739307 1.71438 0
M  V30 4785 C 449.626 -0.742041 1.81627 0
M  V30 4786 O 448.751 -1.57903 1.47971 0
M  V30 4787 C 449.346 1.33538 3.11373 0
M  V30 4788 C 447.905 1.10566 3.59795 0
M  V30 4789 C 447.052 1.44028 2.36962 0
M  V30 4790 H 450.003 1.18718 1.05317 0
M  V30 4791 H 450.024 0.726611 3.73498 0
M  V30 4792 H 449.536 2.41352 3.03926 0
M  V30 4793 H 447.637 0.0452405 3.72573 0
M  V30 4794 H 447.75 1.78661 4.44542 0
M  V30 4795 H 446.114 0.85933 2.39766 0
M  V30 4796 H 446.897 2.52901 2.32155 0
M  V30 4797 N 449.342 -1.36122 0.79427 0
M  V30 4798 C 450.252 -2.33769 0.197296 0
M  V30 4799 C 451.268 -1.61276 -0.653153 0
M  V30 4800 O 452.444 -1.9323 -0.5678 0
M  V30 4801 C 449.509 -3.40474 -0.654098 0
M  V30 4802 C 448.57 -4.28759 0.215411 0
M  V30 4803 C 447.803 -5.30368 -0.595443 0
M  V30 4804 O 448.026 -5.40211 -1.83107 0
M  V30 4805 O 446.96 -6.019 0.00721351 0
M  V30 4806 H 450.786 -2.86597 1.00478 0
M  V30 4807 H 448.371 -1.38676 0.555818 0
M  V30 4808 H 450.253 -4.05703 -1.13944 0
M  V30 4809 H 448.928 -2.89937 -1.43938 0
M  V30 4810 H 447.835 -3.66554 0.747615 0
M  V30 4811 H 449.168 -4.82661 0.964332 0
M  V30 4812 N 450.82 -0.546701 -1.47814 0
M  V30 4813 C 452.068 -0.0187037 -2.02091 0
M  V30 4814 C 452.389 1.33168 -1.42447 0
M  V30 4815 O 451.659 1.86619 -0.595839 0
M  V30 4816 H 450.239 -0.00392531 -0.74699 0
M  V30 4817 H 452.901 -0.714327 -1.81338 0
M  V30 4818 H 451.997 0.0772219 -3.12004 0
M  V30 4819 N 452.299 1.55045 -0.282633 0
M  V30 4820 C 453.527 2.04168 0.33512 0
M  V30 4821 C 453.942 1.16071 1.48906 0
M  V30 4822 O 453.299 0.182391 1.81586 0
M  V30 4823 C 453.35 3.52332 0.808957 0
M  V30 4824 O 453.071 4.37078 -0.299038 0
M  V30 4825 C 454.572 4.17375 1.49375 0
M  V30 4826 H 451.792 0.666744 0.0754543 0
M  V30 4827 H 454.336 2.00205 -0.416918 0
M  V30 4828 H 452.491 3.56715 1.51106 0
M  V30 4829 H 452.905 5.24458 0.0665514 0
M  V30 4830 H 454.379 5.22627 1.77664 0
M  V30 4831 H 454.856 3.65999 2.42778 0
M  V30 4832 H 455.462 4.17016 0.835305 0
M  V30 4833 N 453.777 0.010035 1.57597 0
M  V30 4834 C 455.007 -0.682422 1.95004 0
M  V30 4835 C 455.415 -1.67278 0.884014 0
M  V30 4836 O 454.758 -1.83129 -0.144672 0
M  V30 4837 C 454.82 -1.46141 3.28456 0
M  V30 4838 C 454.484 -0.631523 4.52615 0
M  V30 4839 C 455.481 0.0850905 5.1983 0
M  V30 4840 C 453.166 -0.574539 4.99003 0
M  V30 4841 C 455.16 0.847566 6.3174 0
M  V30 4842 C 452.847 0.191655 6.10799 0
M  V30 4843 C 453.845 0.901432 6.77025 0
M  V30 4844 O 453.533 1.65511 7.86677 0
M  V30 4845 H 453.265 -0.194361 0.647456 0
M  V30 4846 H 455.819 0.060312 2.05311 0
M  V30 4847 H 454.049 -2.24885 3.14585 0
M  V30 4848 H 455.738 -2.04016 3.50902 0
M  V30 4849 H 456.504 0.0502812 4.84974 0
M  V30 4850 H 452.383 -1.11654 4.47274 0
M  V30 4851 H 455.927 1.4021 6.83364 0
M  V30 4852 H 451.824 0.228249 6.45096 0
M  V30 4853 H 452.592 1.57287 8.03245 0
M  V30 4854 N 455.255 -1.55392 -0.262866 0
M  V30 4855 C 456.502 -1.76476 -0.993109 0
M  V30 4856 C 456.83 -0.571479 -1.85915 0
M  V30 4857 O 456.085 0.445733 -1.90556 0
M  V30 4858 C 456.384 -3.02889 -1.89718 0
M  V30 4859 C 456.05 -4.34974 -1.18781 0
M  V30 4860 C 454.712 -4.7087 -0.991699 0
M  V30 4861 C 457.064 -5.16695 -0.683798 0
M  V30 4862 C 454.392 -5.86036 -0.279024 0
M  V30 4863 C 456.744 -6.32598 0.0153327 0
M  V30 4864 C 455.408 -6.67127 0.223062 0
M  V30 4865 H 454.678 -0.64577 -0.363404 0
M  V30 4866 H 457.325 -1.89664 -0.264525 0
M  V30 4867 H 455.63 -2.84644 -2.6923 0
M  V30 4868 H 457.327 -3.16399 -2.46359 0
M  V30 4869 H 453.917 -4.06765 -1.35058 0
M  V30 4870 H 458.101 -4.8943 -0.8229 0
M  V30 4871 H 453.357 -6.11306 -0.107456 0
M  V30 4872 H 457.531 -6.95171 0.413584 0
M  V30 4873 H 455.158 -7.56216 0.777265 0
M  V30 4874 N 456.733 0.527833 -1.48498 0
M  V30 4875 C 457.663 1.64136 -1.66077 0
M  V30 4876 C 458.644 1.62286 -0.509625 0
M  V30 4877 O 459.829 1.79449 -0.742413 0
M  V30 4878 C 456.959 3.02717 -1.70234 0
M  V30 4879 C 455.913 3.19426 -2.8487 0
M  V30 4880 C 455.239 4.5909 -2.74118 0
M  V30 4881 C 456.539 3.01993 -4.26142 0
M  V30 4882 H 458.233 1.4968 -2.593 0
M  V30 4883 H 455.779 0.718654 -1.24785 0
M  V30 4884 H 457.732 3.80491 -1.8112 0
M  V30 4885 H 456.456 3.18201 -0.735911 0
M  V30 4886 H 455.115 2.4407 -2.73542 0
M  V30 4887 H 454.763 4.71413 -1.7544 0
M  V30 4888 H 454.463 4.71214 -3.51042 0
M  V30 4889 H 455.987 5.3896 -2.86974 0
M  V30 4890 H 457.401 3.69558 -4.38292 0
M  V30 4891 H 455.798 3.2561 -5.04082 0
M  V30 4892 H 456.868 1.98396 -4.42456 0
M  V30 4893 N 458.211 1.37122 0.776871 0
M  V30 4894 C 459.144 1.26835 1.89705 0
M  V30 4895 C 460.122 0.14992 1.61907 0
M  V30 4896 O 461.306 0.323242 1.85708 0
M  V30 4897 C 458.433 0.95986 3.24814 0
M  V30 4898 C 457.479 2.09447 3.7153 0
M  V30 4899 S 458.312 3.71368 3.85806 0
M  V30 4900 C 459.468 3.42659 5.23771 0
M  V30 4901 H 459.701 2.21647 1.98141 0
M  V30 4902 H 457.234 1.22685 0.937433 0
M  V30 4903 H 459.192 0.788696 4.02852 0
M  V30 4904 H 457.853 0.0293137 3.14086 0
M  V30 4905 H 457.046 1.8335 4.69467 0
M  V30 4906 H 456.648 2.2255 3.00578 0
M  V30 4907 H 458.94 2.9733 6.0877 0
M  V30 4908 H 459.883 4.39905 5.54878 0
M  V30 4909 H 460.291 2.77708 4.91466 0
M  V30 4910 N 459.689 -1.00246 1.21608 0
M  V30 4911 C 460.652 -2.07233 0.979133 0
M  V30 4912 C 461.652 -1.6072 -0.0508219 0
M  V30 4913 O 462.842 -1.73196 0.186712 0
M  V30 4914 C 459.974 -3.37546 0.477016 0
M  V30 4915 H 461.167 -2.29687 1.92831 0
M  V30 4916 H 458.72 -1.17261 1.03342 0
M  V30 4917 H 459.455 -3.20773 -0.476966 0
M  V30 4918 H 459.24 -3.72638 1.21997 0
M  V30 4919 H 460.73 -4.16285 0.331181 0
M  V30 4920 N 461.167 -1.02423 -1.1978 0
M  V30 4921 C 462.077 -0.610919 -2.26506 0
M  V30 4922 C 463.093 0.355152 -1.70337 0
M  V30 4923 O 464.269 0.214195 -2.00258 0
M  V30 4924 C 461.334 0.0365921 -3.46681 0
M  V30 4925 C 460.395 -0.976389 -4.18049 0
M  V30 4926 C 459.628 -0.359683 -5.32487 0
M  V30 4927 O 459.851 0.838601 -5.64202 0
M  V30 4928 O 458.785 -1.08022 -5.92127 0
M  V30 4929 H 462.611 -1.49965 -2.64091 0
M  V30 4930 H 460.196 -0.794156 -1.26545 0
M  V30 4931 H 462.078 0.39786 -4.19518 0
M  V30 4932 H 460.753 0.899398 -3.10954 0
M  V30 4933 H 459.66 -1.38916 -3.47352 0
M  V30 4934 H 460.993 -1.80941 -4.57735 0
M  V30 4935 N 462.645 1.35699 -0.801477 0
M  V30 4936 C 463.575 2.32436 -0.222658 0
M  V30 4937 C 464.556 1.5723 0.649057 0
M  V30 4938 O 465.741 1.85324 0.580387 0
M  V30 4939 C 462.871 3.41469 0.633719 0
M  V30 4940 C 461.825 4.27774 -0.139083 0
M  V30 4941 C 461.151 5.28082 0.838666 0
M  V30 4942 C 462.451 5.04946 -1.33517 0
M  V30 4943 H 464.145 2.81094 -1.03086 0
M  V30 4944 H 461.691 1.35146 -0.497155 0
M  V30 4945 H 463.644 4.08143 1.04868 0
M  V30 4946 H 462.368 2.91408 1.47475 0
M  V30 4947 H 461.027 3.62673 -0.535156 0
M  V30 4948 H 460.675 4.7429 1.67506 0
M  V30 4949 H 460.375 5.86695 0.32594 0
M  V30 4950 H 461.899 5.97628 1.25194 0
M  V30 4951 H 463.313 5.64593 -0.995349 0
M  V30 4952 H 461.71 5.7303 -1.78202 0
M  V30 4953 H 462.78 4.35886 -2.12442 0
M  V30 4954 N 464.123 0.554532 1.47522 0
M  V30 4955 C 465.534 0.120446 1.86311 0
M  V30 4956 C 465.885 -1.30904 1.46145 0
M  V30 4957 O 465.01 -1.98434 0.863294 0
M  V30 4958 C 465.605 0.211808 3.38137 0
M  V30 4959 C 464.164 -0.167224 3.76028 0
M  V30 4960 C 463.311 0.560576 2.71575 0
M  V30 4961 H 466.262 0.764408 1.39077 0
M  V30 4962 H 466.283 -0.570275 3.76202 0
M  V30 4963 H 465.795 1.25232 3.6734 0
M  V30 4964 H 463.896 -1.20894 3.52442 0
M  V30 4965 H 464.009 0.189473 4.78725 0
M  V30 4966 H 462.373 0.00396836 2.547 0
M  V30 4967 H 463.156 1.60219 3.0362 0
M  V30 4968 N 465.601 -1.54893 0.290851 0
M  V30 4969 C 466.849 -1.99538 -0.320756 0
M  V30 4970 C 467.17 -1.18075 -1.55188 0
M  V30 4971 O 466.44 -0.274162 -1.93972 0
M  V30 4972 H 465.02 -0.737052 -0.121507 0
M  V30 4973 H 467.682 -1.90755 0.399832 0
M  V30 4974 H 466.778 -3.06282 -0.599802 0
M  V30 4975 N 467.08 -0.0183926 -1.57589 0
M  V30 4976 C 468.326 0.657813 -1.92469 0
M  V30 4977 C 468.681 1.70349 -0.894375 0
M  V30 4978 O 467.974 1.91384 0.0910389 0
M  V30 4979 C 468.168 1.32676 -3.31861 0
M  V30 4980 C 467.997 0.347403 -4.48356 0
M  V30 4981 C 466.767 -0.0488653 -5.05276 0
M  V30 4982 C 468.965 -0.393931 -5.12789 0
M  V30 4983 N 466.947 -1.02451 -6.05291 0
M  V30 4984 C 468.318 -1.22367 -6.07804 0
M  V30 4985 C 470.373 -0.455789 -4.95809 0
M  V30 4986 C 469.076 -2.10966 -6.87667 0
M  V30 4987 C 471.102 -1.32908 -5.76272 0
M  V30 4988 C 470.464 -2.14662 -6.70894 0
M  V30 4989 H 466.563 0.21335 -0.752334 0
M  V30 4990 H 469.147 -0.0830547 -1.94523 0
M  V30 4991 H 467.318 2.03782 -3.30647 0
M  V30 4992 H 469.05 1.95913 -3.54119 0
M  V30 4993 H 465.805 0.323356 -4.72495 0
M  V30 4994 H 466.229 -1.50826 -6.59985 0
M  V30 4995 H 470.871 0.162017 -4.22489 0
M  V30 4996 H 468.589 -2.73807 -7.603 0
M  V30 4997 H 472.175 -1.38109 -5.6517 0
M  V30 4998 H 471.055 -2.81143 -7.32071 0
M  V30 4999 N 468.558 1.5553 0.254621 0
M  V30 5000 C 469.835 1.6774 1.00611 0
M  V30 5001 C 470.215 0.555993 2.03647 0
M  V30 5002 O 469.563 -0.441583 2.24193 0
M  V30 5003 C 469.773 3.07725 1.6464 0
M  V30 5004 C 471.121 3.66074 2.15116 0
M  V30 5005 O 472.145 3.10476 1.74595 0
M  V30 5006 O 471.004 4.63526 2.89493 0
M  V30 5007 H 468.098 0.681958 0.467828 0
M  V30 5008 H 470.644 1.67863 0.24902 0
M  V30 5009 H 469.416 3.80792 0.900734 0
M  V30 5010 H 469.039 3.1158 2.46989 0
M  V30 5011 N 470.036 -0.519951 1.48776 0
M  V30 5012 C 470.999 -1.60574 1.6355 0
M  V30 5013 C 471.999 -1.52557 0.508234 0
M  V30 5014 O 473.189 -1.56047 0.774262 0
M  V30 5015 C 470.321 -3.00211 1.61512 0
M  V30 5016 H 471.514 -1.4881 2.60376 0
M  V30 5017 H 469.067 -0.742772 1.37523 0
M  V30 5018 H 469.802 -3.17471 0.662009 0
M  V30 5019 H 469.587 -3.07439 2.43359 0
M  V30 5020 H 471.077 -3.79134 1.75064 0
M  V30 5021 N 471.514 -1.37532 -0.769588 0
M  V30 5022 C 472.761 -1.3286 -1.52822 0
M  V30 5023 C 473.089 0.0862597 -1.94309 0
M  V30 5024 O 472.344 1.05995 -1.6451 0
M  V30 5025 C 472.643 -2.21558 -2.8044 0
M  V30 5026 C 472.309 -3.69796 -2.57996 0
M  V30 5027 C 470.971 -4.10194 -2.51583 0
M  V30 5028 C 473.323 -4.63699 -2.37976 0
M  V30 5029 C 470.651 -5.42608 -2.23144 0
M  V30 5030 C 473.003 -5.96353 -2.1106 0
M  V30 5031 C 471.667 -6.35853 -2.03093 0
M  V30 5032 H 470.937 -0.486168 -0.559215 0
M  V30 5033 H 473.584 -1.69757 -0.886277 0
M  V30 5034 H 471.889 -1.77663 -3.49204 0
M  V30 5035 H 473.586 -2.15256 -3.38328 0
M  V30 5036 H 470.176 -3.37759 -2.63851 0
M  V30 5037 H 474.36 -4.33346 -2.41919 0
M  V30 5038 H 469.616 -5.72173 -2.15472 0
M  V30 5039 H 473.79 -6.68667 -1.94568 0
M  V30 5040 H 471.417 -7.38382 -1.8082 0
M  V30 5041 N 472.992 0.995999 -1.22138 0
M  V30 5042 C 474.408 1.25917 -0.980667 0
M  V30 5043 C 474.608 1.98819 0.327604 0
M  V30 5044 O 473.664 2.29587 1.05101 0
M  V30 5045 C 474.977 2.07399 -2.17729 0
M  V30 5046 C 476.525 2.20594 -2.22052 0
M  V30 5047 C 477 3.05462 -3.41258 0
M  V30 5048 N 478.491 3.13049 -3.41401 0
M  V30 5049 C 479.226 3.78997 -4.30289 0
M  V30 5050 N 478.722 4.46899 -5.2939 0
M  V30 5051 N 480.515 3.75728 -4.18073 0
M  V30 5052 H 472.666 0.507158 -2.06256 0
M  V30 5053 H 474.929 0.28658 -0.903646 0
M  V30 5054 H 474.635 1.61191 -3.12586 0
M  V30 5055 H 474.509 3.08154 -2.17534 0
M  V30 5056 H 476.896 2.66017 -1.27745 0
M  V30 5057 H 476.977 1.1928 -2.26287 0
M  V30 5058 H 476.621 2.60739 -4.35864 0
M  V30 5059 H 476.551 4.06911 -3.34262 0
M  V30 5060 H 479.042 2.64721 -2.69688 0
M  V30 5061 H 479.355 4.94952 -5.935 0
M  V30 5062 H 477.7 4.45657 -5.33306 0
M  V30 5063 H 480.891 3.2184 -3.39907 0
M  V30 5064 H 481.064 4.26845 -4.87553 0
M  V30 5065 N 474.47 1.03057 1.19235 0
M  V30 5066 C 475.4 0.633497 2.24742 0
M  V30 5067 C 476.381 -0.358335 1.66283 0
M  V30 5068 O 477.566 -0.240676 1.92703 0
M  V30 5069 C 474.696 -0.0147648 3.47297 0
M  V30 5070 C 473.65 0.899527 4.18441 0
M  V30 5071 C 472.976 0.116281 5.34574 0
M  V30 5072 C 474.276 2.21404 4.73051 0
M  V30 5073 H 475.97 1.5155 2.58211 0
M  V30 5074 H 473.516 0.73014 1.24117 0
M  V30 5075 H 475.469 -0.304202 4.20301 0
M  V30 5076 H 474.193 -0.931577 3.13032 0
M  V30 5077 H 472.852 1.17319 3.47321 0
M  V30 5078 H 472.5 -0.802619 4.96555 0
M  V30 5079 H 472.2 0.725293 5.83107 0
M  V30 5080 H 473.724 -0.166376 6.10373 0
M  V30 5081 H 475.138 1.98601 5.37802 0
M  V30 5082 H 473.535 2.77512 5.32078 0
M  V30 5083 H 474.605 2.86752 3.91026 0
M  V30 5084 N 475.948 -1.35272 0.808662 0
M  V30 5085 C 477.194 -1.99003 0.390581 0
M  V30 5086 C 477.527 -1.63999 -1.0401 0
M  V30 5087 O 476.802 -0.904368 -1.72196 0
M  V30 5088 C 477.085 -3.55454 0.576566 0
M  V30 5089 C 476.938 -4.00249 2.05233 0
M  V30 5090 C 478.257 -4.401 0.00354277 0
M  V30 5091 H 475.376 -0.722917 0.143388 0
M  V30 5092 H 478.018 -1.6039 1.01858 0
M  V30 5093 H 476.168 -3.88477 0.0419766 0
M  V30 5094 H 477.84 -3.77626 2.64946 0
M  V30 5095 H 476.083 -3.51082 2.54801 0
M  V30 5096 H 476.754 -5.0911 2.13333 0
M  V30 5097 H 479.23 -4.13548 0.460117 0
M  V30 5098 H 478.106 -5.48656 0.163575 0
M  V30 5099 H 478.367 -4.28444 -1.09032 0
M  V30 5100 N 477.426 -0.562348 -1.47226 0
M  V30 5101 C 478.336 0.185466 -2.33866 0
M  V30 5102 C 479.352 0.906713 -1.48508 0
M  V30 5103 O 480.528 0.874458 -1.81425 0
M  V30 5104 C 477.593 1.19904 -3.25306 0
M  V30 5105 C 476.654 0.484669 -4.26555 0
M  V30 5106 C 475.887 1.44996 -5.13626 0
M  V30 5107 O 476.11 2.68515 -5.03245 0
M  V30 5108 O 475.044 0.971642 -5.94006 0
M  V30 5109 H 478.87 -0.525361 -2.99121 0
M  V30 5110 H 476.455 -0.322916 -1.45868 0
M  V30 5111 H 478.337 1.78399 -3.81774 0
M  V30 5112 H 477.012 1.8917 -2.62672 0
M  V30 5113 H 475.919 -0.141605 -3.73832 0
M  V30 5114 H 477.252 -0.166634 -4.91918 0
M  V30 5115 N 478.904 1.54736 -0.299062 0
M  V30 5116 C 479.814 2.27127 0.587413 0
M  V30 5117 C 480.83 1.30575 1.15005 0
M  V30 5118 O 482.006 1.63554 1.17525 0
M  V30 5119 C 479.071 2.99645 1.74395 0
M  V30 5120 C 478.132 4.11731 1.21559 0
M  V30 5121 C 477.365 4.80781 2.317 0
M  V30 5122 O 477.588 4.4918 3.51558 0
M  V30 5123 O 476.522 5.68226 1.98501 0
M  V30 5124 H 480.348 3.037 0.000250109 0
M  V30 5125 H 477.933 1.49256 -0.0655919 0
M  V30 5126 H 479.815 3.45138 2.4178 0
M  V30 5127 H 478.49 2.25969 2.31775 0
M  V30 5128 H 477.397 3.70641 0.507514 0
M  V30 5129 H 478.73 4.87379 0.687233 0
M  V30 5130 N 480.382 0.0267497 1.57577 0
M  V30 5131 C 481.345 -0.940916 2.08996 0
M  V30 5132 C 482.345 -1.25561 1.00455 0
M  V30 5133 O 483.535 -1.19634 1.26623 0
M  V30 5134 C 480.667 -2.25814 2.55384 0
M  V30 5135 H 481.86 -0.495628 2.95776 0
M  V30 5136 H 479.413 -0.221241 1.54726 0
M  V30 5137 H 480.148 -2.74976 1.71926 0
M  V30 5138 H 479.933 -2.04285 3.34679 0
M  V30 5139 H 481.423 -2.95178 2.95398 0
M  V30 5140 N 481.861 -1.55662 -0.24637 0
M  V30 5141 C 483.277 -1.48098 -0.594907 0
M  V30 5142 C 483.477 -0.717044 -1.8831 0
M  V30 5143 O 482.533 -0.246618 -2.51293 0
M  V30 5144 C 483.846 -2.92507 -0.697146 0
M  V30 5145 C 485.394 -3.02881 -0.789436 0
M  V30 5146 C 485.869 -4.48598 -0.923232 0
M  V30 5147 N 487.36 -4.52538 -0.988088 0
M  V30 5148 C 488.095 -5.62536 -1.11089 0
M  V30 5149 N 487.591 -6.82342 -1.19919 0
M  V30 5150 N 489.384 -5.50334 -1.14408 0
M  V30 5151 H 481.535 -2.0377 0.599278 0
M  V30 5152 H 483.798 -0.925145 0.20691 0
M  V30 5153 H 483.504 -3.51242 0.179396 0
M  V30 5154 H 483.378 -3.43024 -1.5689 0
M  V30 5155 H 485.765 -2.44226 -1.65643 0
M  V30 5156 H 485.846 -2.55574 0.107482 0
M  V30 5157 H 485.49 -5.07864 -0.0607927 0
M  V30 5158 H 485.42 -4.93587 -1.8352 0
M  V30 5159 H 487.911 -3.66248 -0.931167 0
M  V30 5160 H 488.224 -7.61924 -1.29197 0
M  V30 5161 H 486.569 -6.85102 -1.16876 0
M  V30 5162 H 489.76 -4.5567 -1.07158 0
M  V30 5163 H 489.933 -6.36096 -1.23634 0
M  V30 5164 N 483.339 0.512053 -1.4905 0
M  V30 5165 C 484.585 1.26874 -1.58212 0
M  V30 5166 C 484.918 1.9241 -0.263073 0
M  V30 5167 O 484.193 1.80181 0.732476 0
M  V30 5168 C 484.476 2.34428 -2.73341 0
M  V30 5169 C 484.329 1.73466 -4.15006 0
M  V30 5170 C 485.648 3.36073 -2.84154 0
M  V30 5171 H 482.767 0.459924 -0.575881 0
M  V30 5172 H 485.409 0.568587 -1.81293 0
M  V30 5173 H 483.559 2.94146 -2.53792 0
M  V30 5174 H 485.231 1.17661 -4.46042 0
M  V30 5175 H 483.474 1.03921 -4.21168 0
M  V30 5176 H 484.145 2.51426 -4.91415 0
M  V30 5177 H 486.621 2.86332 -3.01916 0
M  V30 5178 H 485.497 4.08703 -3.66406 0
M  V30 5179 H 485.758 3.97725 -1.93048 0
M  V30 5180 N 484.817 1.37938 0.762283 0
M  V30 5181 C 485.78 1.34279 1.85747 0
M  V30 5182 C 486.78 0.244969 1.58923 0
M  V30 5183 O 487.97 0.501365 1.66829 0
M  V30 5184 C 485.102 1.08833 3.23061 0
M  V30 5185 H 486.295 2.31705 1.90401 0
M  V30 5186 H 483.848 1.23105 0.963057 0
M  V30 5187 H 484.583 0.119767 3.24079 0
M  V30 5188 H 484.368 1.88306 3.43923 0
M  V30 5189 H 485.858 1.08946 4.03138 0
M  V30 5190 N 486.295 -0.989507 1.22664 0
M  V30 5191 C 487.225 -2.09847 1.02404 0
M  V30 5192 C 488.206 -1.70007 -0.0561303 0
M  V30 5193 O 489.391 -1.93906 0.106748 0
M  V30 5194 C 486.521 -3.41996 0.604663 0
M  V30 5195 C 485.475 -3.95699 1.63115 0
M  V30 5196 C 484.801 -5.23936 1.0675 0
M  V30 5197 C 486.101 -4.25999 3.02196 0
M  V30 5198 H 487.795 -2.27054 1.95158 0
M  V30 5199 H 485.341 -1.09111 0.939727 0
M  V30 5200 H 487.294 -4.1899 0.45002 0
M  V30 5201 H 486.018 -3.24626 -0.35855 0
M  V30 5202 H 484.677 -3.2084 1.77362 0
M  V30 5203 H 484.325 -5.02909 0.0955422 0
M  V30 5204 H 484.025 -5.60833 1.75328 0
M  V30 5205 H 485.549 -6.0356 0.924516 0
M  V30 5206 H 486.963 -4.93777 2.91303 0
M  V30 5207 H 485.36 -4.74076 3.67929 0
M  V30 5208 H 486.43 -3.33636 3.51873 0
M  V30 5209 N 487.773 -1.03688 -1.18687 0
M  V30 5210 C 489.022 -0.733235 -1.879 0
M  V30 5211 C 489.335 0.741745 -1.8099 0
M  V30 5212 O 490.541 1.15875 -2.4553 0
M  V30 5213 C 488.997 -1.26127 -3.37076 0
M  V30 5214 C 488.605 -2.76461 -3.52524 0
M  V30 5215 C 490.349 -1.03398 -4.11715 0
M  V30 5216 C 488.256 -3.22642 -4.95637 0
M  V30 5217 H 487.186 -0.270584 -0.703776 0
M  V30 5218 H 489.837 -1.25222 -1.34133 0
M  V30 5219 H 488.219 -0.670165 -3.90288 0
M  V30 5220 H 489.393 -3.41296 -3.09602 0
M  V30 5221 H 487.708 -2.97559 -2.91286 0
M  V30 5222 H 490.305 -1.3542 -5.17267 0
M  V30 5223 H 490.648 0.0289246 -4.1629 0
M  V30 5224 H 491.181 -1.5895 -3.64664 0
M  V30 5225 H 487.92 -4.28296 -4.96228 0
M  V30 5226 H 487.44 -2.62539 -5.39289 0
M  V30 5227 H 489.119 -3.16444 -5.64333 0
M  V30 5228 N 489.251 1.34841 -0.815825 0
M  V30 5229 C 490.662 1.80937 -0.46029 0
M  V30 5230 C 491.013 1.67685 1.01863 0
M  V30 5231 O 490.138 1.21277 1.79223 0
M  V30 5232 C 490.733 3.28509 -0.828708 0
M  V30 5233 C 489.292 3.72712 -0.525644 0
M  V30 5234 C 488.439 2.56676 -1.04941 0
M  V30 5235 H 491.39 1.22688 -1.00664 0
M  V30 5236 H 491.411 3.80279 -0.129757 0
M  V30 5237 H 490.923 3.38122 -1.90513 0
M  V30 5238 H 489.024 3.68642 0.541666 0
M  V30 5239 H 489.137 4.67119 -1.06474 0
M  V30 5240 H 487.501 2.50302 -0.471286 0
M  V30 5241 H 488.284 2.69063 -2.13214 0
M  V30 5242 N 490.729 0.570148 1.46925 0
M  V30 5243 C 491.692 -0.159933 2.28641 0
M  V30 5244 C 492.692 -0.830638 1.37685 0
M  V30 5245 O 493.882 -0.684516 1.60187 0
M  V30 5246 C 491.014 -1.2354 3.17727 0
M  V30 5247 H 492.207 0.558035 2.94662 0
M  V30 5248 H 489.76 0.327603 1.52828 0
M  V30 5249 H 490.495 -1.98535 2.56426 0
M  V30 5250 H 490.28 -0.759125 3.84681 0
M  V30 5251 H 491.77 -1.74782 3.79264 0
M  V30 5252 N 492.207 -1.54576 0.307264 0
M  V30 5253 C 493.432 -2.05139 -0.305379 0
M  V30 5254 C 493.857 -1.18278 -1.46259 0
M  V30 5255 O 493.215 -0.188243 -1.8032 0
M  V30 5256 C 493.263 -3.53066 -0.733283 0
M  V30 5257 O 492.367 -3.69206 -1.83741 0
M  V30 5258 H 491.708 -0.661444 -0.0582105 0
M  V30 5259 H 494.238 -1.99569 0.450931 0
M  V30 5260 H 494.248 -3.95034 -1.02039 0
M  V30 5261 H 492.923 -4.15746 0.113198 0
M  V30 5262 H 491.5 -3.39143 -1.55037 0
M  V30 5263 N 493.685 -0.035106 -1.57561 0
M  V30 5264 C 494.648 0.929819 -2.09492 0
M  V30 5265 C 495.648 1.25026 -1.01119 0
M  V30 5266 O 496.838 1.18961 -1.27255 0
M  V30 5267 C 493.97 2.24457 -2.56577 0
M  V30 5268 H 495.163 0.479935 -2.96035 0
M  V30 5269 H 492.716 0.213033 -1.54841 0
M  V30 5270 H 493.451 2.74061 -1.73382 0
M  V30 5271 H 493.236 2.02508 -3.35757 0
M  V30 5272 H 494.726 2.93607 -2.96959 0
M  V30 5273 N 495.163 1.55791 0.238111 0
M  V30 5274 C 496.41 1.78033 0.964907 0
M  V30 5275 C 496.738 0.600984 1.84982 0
M  V30 5276 O 495.993 -0.41536 1.91241 0
M  V30 5277 C 496.292 3.05869 1.84875 0
M  V30 5278 C 495.958 4.36808 1.11846 0
M  V30 5279 C 494.62 4.72388 0.916662 0
M  V30 5280 C 496.972 5.17717 0.60151 0
M  V30 5281 C 494.3 5.86406 0.185756 0
M  V30 5282 C 496.652 6.32494 -0.115972 0
M  V30 5283 C 495.316 6.66688 -0.329168 0
M  V30 5284 H 494.586 0.651469 0.353085 0
M  V30 5285 H 497.233 1.90061 0.234318 0
M  V30 5286 H 495.538 2.88891 2.64668 0
M  V30 5287 H 497.235 3.20278 2.41294 0
M  V30 5288 H 493.825 4.08862 1.28569 0
M  V30 5289 H 498.009 4.90678 0.744932 0
M  V30 5290 H 493.265 6.11399 0.0101886 0
M  V30 5291 H 497.439 6.94425 -0.524127 0
M  V30 5292 H 495.066 7.54884 -0.897474 0
M  V30 5293 N 496.642 -0.504142 1.49319 0
M  V30 5294 C 497.872 -1.28071 1.62116 0
M  V30 5295 C 498.28 -1.86955 0.290566 0
M  V30 5296 O 497.623 -1.68415 -0.733616 0
M  V30 5297 C 497.685 -2.4521 2.62893 0
M  V30 5298 C 497.349 -2.07218 4.0732 0
M  V30 5299 C 498.346 -1.61375 4.94221 0
M  V30 5300 C 496.031 -2.16949 4.53033 0
M  V30 5301 C 498.025 -1.25763 6.2487 0
M  V30 5302 C 495.712 -1.80949 5.83696 0
M  V30 5303 C 496.71 -1.3543 6.69438 0
M  V30 5304 O 496.398 -0.99915 7.97667 0
M  V30 5305 H 496.13 -0.394763 0.54876 0
M  V30 5306 H 498.684 -0.612118 1.96067 0
M  V30 5307 H 496.914 -3.15134 2.24115 0
M  V30 5308 H 498.603 -3.0724 2.65252 0
M  V30 5309 H 499.369 -1.53306 4.60133 0
M  V30 5310 H 495.248 -2.5133 3.86463 0
M  V30 5311 H 498.792 -0.901631 6.91749 0
M  V30 5312 H 494.689 -1.88667 6.17313 0
M  V30 5313 H 495.457 -1.13089 8.1065 0
M  V30 5314 N 498.12 -1.38341 -0.754957 0
M  V30 5315 C 499.05 -1.38176 -1.88227 0
M  V30 5316 C 500.031 -0.247873 -1.68284 0
M  V30 5317 O 501.216 -0.45075 -1.88896 0
M  V30 5318 C 498.346 -1.20471 -3.25736 0
M  V30 5319 C 497.3 -2.3105 -3.60278 0
M  V30 5320 C 496.626 -1.98452 -4.96509 0
M  V30 5321 C 497.926 -3.73305 -3.65295 0
M  V30 5322 H 499.62 -2.32512 -1.88622 0
M  V30 5323 H 497.166 -1.1192 -0.906082 0
M  V30 5324 H 499.119 -1.18982 -4.04254 0
M  V30 5325 H 497.843 -0.225965 -3.25817 0
M  V30 5326 H 496.502 -2.31723 -2.84078 0
M  V30 5327 H 496.15 -0.990641 -4.93148 0
M  V30 5328 H 495.85 -2.7251 -5.20588 0
M  V30 5329 H 497.374 -1.98578 -5.77407 0
M  V30 5330 H 498.788 -3.7467 -4.3393 0
M  V30 5331 H 497.185 -4.46557 -4.00883 0
M  V30 5332 H 498.255 -4.05719 -2.65556 0
M  V30 5333 N 499.598 0.982988 -1.23187 0
M  V30 5334 C 500.508 2.10907 -1.02739 0
M  V30 5335 C 501.524 1.73979 0.0273188 0
M  V30 5336 O 502.7 2.00702 -0.16757 0
M  V30 5337 C 499.765 3.41142 -0.618304 0
M  V30 5338 C 498.826 3.92112 -1.74777 0
M  V30 5339 C 498.059 5.16131 -1.3581 0
M  V30 5340 O 498.282 5.6989 -0.241201 0
M  V30 5341 O 497.216 5.61103 -2.17824 0
M  V30 5342 H 501.042 2.31046 -1.97108 0
M  V30 5343 H 498.627 1.09284 -1.01869 0
M  V30 5344 H 500.509 4.19488 -0.400982 0
M  V30 5345 H 499.184 3.2234 0.296421 0
M  V30 5346 H 498.091 3.14895 -2.0197 0
M  V30 5347 H 499.424 4.15364 -2.64071 0
M  V30 5348 N 501.076 1.04316 1.18135 0
M  V30 5349 C 502.353 0.662166 1.84051 0
M  V30 5350 C 502.733 -0.858169 1.9287 0
M  V30 5351 O 502.081 -1.76062 1.45652 0
M  V30 5352 C 502.291 1.3409 3.22212 0
M  V30 5353 C 503.639 1.4733 3.9822 0
M  V30 5354 O 504.663 1.29921 3.31661 0
M  V30 5355 O 503.522 1.75722 5.17479 0
M  V30 5356 H 500.616 0.232005 0.79379 0
M  V30 5357 H 503.162 1.1422 1.25506 0
M  V30 5358 H 501.934 2.37853 3.10711 0
M  V30 5359 H 501.557 0.849649 3.88416 0
M  V30 5360 N 502.554 -1.34406 0.822964 0
M  V30 5361 C 503.965 -1.8069 0.469879 0
M  V30 5362 C 504.316 -1.68223 -1.00972 0
M  V30 5363 O 503.441 -1.22226 -1.78577 0
M  V30 5364 C 504.036 -3.28064 0.846118 0
M  V30 5365 C 502.595 -3.72428 0.545402 0
M  V30 5366 C 501.742 -2.56116 1.06301 0
M  V30 5367 H 504.693 -1.22153 1.01313 0
M  V30 5368 H 504.714 -3.80205 0.149922 0
M  V30 5369 H 504.226 -3.37107 1.92304 0
M  V30 5370 H 502.327 -3.68924 -0.522109 0
M  V30 5371 H 502.44 -4.66548 1.0895 0
M  V30 5372 H 500.804 -2.50048 0.484554 0
M  V30 5373 H 501.587 -2.67928 2.14638 0
M  V30 5374 N 504.032 -0.577932 -1.46621 0
M  V30 5375 C 505.443 -0.150071 -1.86096 0
M  V30 5376 C 505.794 1.28563 -1.48209 0
M  V30 5377 O 504.919 1.97036 -0.894754 0
M  V30 5378 C 505.514 -0.265576 -3.37758 0
M  V30 5379 C 504.073 0.10738 -3.76247 0
M  V30 5380 C 503.22 -0.603711 -2.70649 0
M  V30 5381 H 506.171 -0.786438 -1.37844 0
M  V30 5382 H 506.192 0.510352 -3.77062 0
M  V30 5383 H 505.704 -1.3106 -3.65301 0
M  V30 5384 H 503.805 1.15272 -3.54321 0
M  V30 5385 H 503.918 -0.26561 -4.78363 0
M  V30 5386 H 502.282 -0.0444884 -2.54661 0
M  V30 5387 H 503.065 -1.65029 -3.01032 0
M  V30 5388 N 505.51 1.54411 -0.315457 0
M  V30 5389 C 506.457 2.24048 0.554166 0
M  V30 5390 C 507.427 1.2283 1.11812 0
M  V30 5391 O 508.612 1.51491 1.15997 0
M  V30 5392 C 505.752 2.99574 1.71316 0
M  V30 5393 C 504.865 4.15594 1.17922 0
M  V30 5394 C 504 4.78669 2.30324 0
M  V30 5395 C 503.039 5.86807 1.74137 0
M  V30 5396 N 502.176 6.43777 2.8017 0
M  V30 5397 H 507.016 2.97964 -0.0462602 0
M  V30 5398 H 504.553 1.47059 -0.0346009 0
M  V30 5399 H 506.511 3.41604 2.39505 0
M  V30 5400 H 505.141 2.28008 2.285 0
M  V30 5401 H 504.193 3.78404 0.389136 0
M  V30 5402 H 505.505 4.93459 0.728012 0
M  V30 5403 H 504.659 5.23626 3.06433 0
M  V30 5404 H 503.398 4.00168 2.78778 0
M  V30 5405 H 502.403 5.41261 0.965236 0
M  V30 5406 H 503.628 6.67201 1.2657 0
M  V30 5407 H 501.574 5.68153 3.2793 0
M  V30 5408 H 501.491 7.17031 2.39588 0
M  V30 5409 H 502.759 6.9339 3.56132 0
M  V30 5410 N 506.988 0.0434614 1.5754 0
M  V30 5411 C 508.265 -0.671479 1.83713 0
M  V30 5412 C 508.645 -1.89495 0.930315 0
M  V30 5413 O 507.993 -2.28498 -0.0105639 0
M  V30 5414 C 508.203 -1.0361 3.33266 0
M  V30 5415 C 509.551 -1.42167 4.00092 0
M  V30 5416 O 510.575 -1.12866 3.37846 0
M  V30 5417 O 509.434 -1.96817 5.09829 0
M  V30 5418 H 506.528 -0.330726 0.75799 0
M  V30 5419 H 509.074 0.0722373 1.69546 0
M  V30 5420 H 507.846 -0.165938 3.90948 0
M  V30 5421 H 507.469 -1.83751 3.52592 0
M  V30 5422 N 508.466 -1.55915 -0.229846 0
M  V30 5423 C 509.396 -1.94754 -1.28815 0
M  V30 5424 C 510.377 -0.814657 -1.49323 0
M  V30 5425 O 511.562 -1.07631 -1.61645 0
M  V30 5426 C 508.692 -2.25705 -2.63959 0
M  V30 5427 C 507.646 -3.41406 -2.5812 0
M  V30 5428 C 506.972 -3.57941 -3.97218 0
M  V30 5429 C 508.272 -4.76616 -2.13623 0
M  V30 5430 H 509.966 -2.83404 -0.965547 0
M  V30 5431 H 507.512 -1.36353 -0.463028 0
M  V30 5432 H 509.465 -2.51467 -3.38146 0
M  V30 5433 H 508.189 -1.339 -2.9789 0
M  V30 5434 H 506.848 -3.1568 -1.86391 0
M  V30 5435 H 506.496 -2.63526 -4.28443 0
M  V30 5436 H 506.196 -4.35757 -3.94195 0
M  V30 5437 H 507.72 -3.86042 -4.73079 0
M  V30 5438 H 509.134 -5.01637 -2.77549 0
M  V30 5439 H 507.531 -5.57655 -2.21677 0
M  V30 5440 H 508.601 -4.7253 -1.08829 0
M  V30 5441 N 509.944 0.496216 -1.49584 0
M  V30 5442 C 511.191 1.25003 -1.59312 0
M  V30 5443 C 511.519 1.92445 -0.28198 0
M  V30 5444 O 510.774 1.81557 0.730452 0
M  V30 5445 C 511.073 2.3359 -2.705 0
M  V30 5446 C 510.739 1.83574 -4.11839 0
M  V30 5447 C 509.401 1.69653 -4.50302 0
M  V30 5448 C 511.753 1.46193 -5.00277 0
M  V30 5449 C 509.081 1.16736 -5.74969 0
M  V30 5450 C 511.433 0.947265 -6.25468 0
M  V30 5451 C 510.097 0.794485 -6.62755 0
M  V30 5452 H 509.367 0.45742 -0.582965 0
M  V30 5453 H 512.014 0.549996 -1.83432 0
M  V30 5454 H 510.319 3.09401 -2.40371 0
M  V30 5455 H 512.016 2.91627 -2.75235 0
M  V30 5456 H 508.606 1.9537 -3.81482 0
M  V30 5457 H 512.79 1.55793 -4.71214 0
M  V30 5458 H 508.046 1.03623 -6.02555 0
M  V30 5459 H 512.22 0.648846 -6.93371 0
M  V30 5460 H 509.847 0.382271 -7.59238 0
M  V30 5461 N 511.423 1.38739 0.74761 0
M  V30 5462 C 512.839 1.20067 1.05148 0
M  V30 5463 C 513.039 0.0534835 2.01429 0
M  V30 5464 O 512.095 -0.59886 2.45296 0
M  V30 5465 C 513.408 2.52957 1.62584 0
M  V30 5466 C 514.956 2.59692 1.74726 0
M  V30 5467 C 515.431 3.92772 2.35573 0
M  V30 5468 N 516.922 3.94343 2.42997 0
M  V30 5469 C 517.657 4.9408 2.90985 0
M  V30 5470 N 517.153 6.04214 3.38965 0
M  V30 5471 N 518.946 4.81466 2.9008 0
M  V30 5472 H 511.097 2.12121 0.108808 0
M  V30 5473 H 513.36 0.941491 0.110899 0
M  V30 5474 H 513.066 3.37389 0.993051 0
M  V30 5475 H 512.94 2.71779 2.61565 0
M  V30 5476 H 515.327 1.75651 2.3713 0
M  V30 5477 H 515.408 2.44731 0.744326 0
M  V30 5478 H 515.052 4.77238 1.738 0
M  V30 5479 H 514.982 4.05046 3.36519 0
M  V30 5480 H 517.473 3.14799 2.0907 0
M  V30 5481 H 517.786 6.76241 3.74056 0
M  V30 5482 H 516.131 6.07825 3.37007 0
M  V30 5483 H 519.322 3.94535 2.51912 0
M  V30 5484 H 519.495 5.59344 3.27166 0
M  V30 5485 N 512.901 -0.976442 1.23707 0
M  V30 5486 C 514.148 -1.71827 1.07153 0
M  V30 5487 C 514.476 -1.9053 -0.390982 0
M  V30 5488 O 513.731 -1.45779 -1.30564 0
M  V30 5489 C 514.03 -3.11814 1.74662 0
M  V30 5490 C 513.696 -3.12978 3.24585 0
M  V30 5491 C 512.358 -3.13003 3.6549 0
M  V30 5492 C 514.71 -3.07986 4.20469 0
M  V30 5493 C 512.038 -3.05757 5.00729 0
M  V30 5494 C 514.39 -3.02282 5.55705 0
M  V30 5495 C 513.054 -3.00631 5.95968 0
M  V30 5496 H 512.324 -0.628758 0.392102 0
M  V30 5497 H 514.971 -1.14239 1.53693 0
M  V30 5498 H 513.276 -3.72812 1.20492 0
M  V30 5499 H 514.973 -3.67989 1.59328 0
M  V30 5500 H 511.563 -3.13718 2.92026 0
M  V30 5501 H 515.747 -3.07103 3.89874 0
M  V30 5502 H 511.003 -3.02834 5.31132 0
M  V30 5503 H 515.177 -2.97376 6.29714 0
M  V30 5504 H 512.804 -2.94771 7.00724 0
M  V30 5505 N 514.379 -1.04941 -1.1758 0
M  V30 5506 C 515.342 -0.652456 -2.19717 0
M  V30 5507 C 516.342 0.294745 -1.58076 0
M  V30 5508 O 517.532 0.0789579 -1.74021 0
M  V30 5509 C 514.664 0.0420712 -3.40874 0
M  V30 5510 H 515.857 -1.55642 -2.5635 0
M  V30 5511 H 513.41 -0.842995 -1.31618 0
M  V30 5512 H 514.145 0.95943 -3.09783 0
M  V30 5513 H 513.93 -0.638844 -3.86861 0
M  V30 5514 H 515.42 0.306 -4.16477 0
M  V30 5515 N 515.857 1.33968 -0.830081 0
M  V30 5516 C 517.104 1.98063 -0.421566 0
M  V30 5517 C 517.432 1.65787 1.0171 0
M  V30 5518 O 516.687 0.925348 1.72441 0
M  V30 5519 C 516.986 3.52679 -0.57898 0
M  V30 5520 C 516.652 4.04884 -1.98443 0
M  V30 5521 C 515.314 4.18852 -2.36888 0
M  V30 5522 C 517.666 4.32879 -2.90285 0
M  V30 5523 C 514.994 4.58145 -3.66497 0
M  V30 5524 C 517.346 4.7362 -4.19364 0
M  V30 5525 C 516.01 4.85794 -4.57778 0
M  V30 5526 H 515.28 0.724765 -0.154262 0
M  V30 5527 H 517.927 1.59792 -1.05541 0
M  V30 5528 H 516.232 3.91556 0.138219 0
M  V30 5529 H 517.929 4.00261 -0.243317 0
M  V30 5530 H 514.519 3.9448 -1.67581 0
M  V30 5531 H 518.703 4.21619 -2.61823 0
M  V30 5532 H 513.959 4.65762 -3.96075 0
M  V30 5533 H 518.133 4.9424 -4.90612 0
M  V30 5534 H 515.76 5.15998 -5.58256 0
M  V30 5535 N 517.335 0.585699 1.46312 0
M  V30 5536 C 518.575 0.0751432 2.04262 0
M  V30 5537 C 518.939 -1.26201 1.44697 0
M  V30 5538 O 520.14 -1.86198 1.93865 0
M  V30 5539 C 518.411 0.013478 3.57397 0
M  V30 5540 S 519.97 -0.439068 4.36598 0
M  V30 5541 H 516.788 0.0389228 0.709934 0
M  V30 5542 H 519.39 0.778871 1.79315 0
M  V30 5543 H 518.094 0.990558 3.98266 0
M  V30 5544 H 517.625 -0.712927 3.86886 0
M  V30 5545 H 519.64 -1.6932 4.66417 0
M  V30 5546 N 518.813 -1.54241 0.323641 0
M  V30 5547 C 519.76 -2.24339 -0.542277 0
M  V30 5548 C 520.73 -1.23421 -1.11159 0
M  V30 5549 O 521.915 -1.52104 -1.15192 0
M  V30 5550 C 519.055 -3.00479 -1.69725 0
M  V30 5551 C 518.168 -4.16214 -1.15716 0
M  V30 5552 C 517.303 -4.79884 -2.27783 0
M  V30 5553 C 516.342 -5.87722 -1.71023 0
M  V30 5554 N 515.479 -6.45254 -2.76752 0
M  V30 5555 H 520.319 -2.97935 0.0620613 0
M  V30 5556 H 517.856 -1.47039 0.0423993 0
M  V30 5557 H 519.814 -3.42869 -2.3769 0
M  V30 5558 H 518.444 -2.29217 -2.27288 0
M  V30 5559 H 517.496 -3.78605 -0.369063 0
M  V30 5560 H 518.808 -4.93838 -0.701832 0
M  V30 5561 H 517.962 -5.25243 -3.03651 0
M  V30 5562 H 516.701 -4.01641 -2.76652 0
M  V30 5563 H 515.706 -5.41765 -0.936518 0
M  V30 5564 H 516.931 -6.67863 -1.2303 0
M  V30 5565 H 514.877 -5.69884 -3.24912 0
M  V30 5566 H 514.794 -7.18292 -2.35782 0
M  V30 5567 H 516.062 -6.95269 -3.5245 0
M  V30 5568 N 520.291 -0.0518155 -1.57515 0
M  V30 5569 C 521.519 0.631395 -1.9703 0
M  V30 5570 C 521.934 1.64341 -0.92938 0
M  V30 5571 O 521.291 1.82296 0.0863266 0
M  V30 5572 C 521.342 1.31774 -3.36627 0
M  V30 5573 O 521.063 0.346247 -4.3673 0
M  V30 5574 C 522.564 2.09065 -3.90905 0
M  V30 5575 H 519.784 0.172576 -0.648428 0
M  V30 5576 H 522.328 -0.118306 -2.04158 0
M  V30 5577 H 520.483 2.01867 -3.30649 0
M  V30 5578 H 520.897 0.836226 -5.17791 0
M  V30 5579 H 522.371 2.52508 -4.9086 0
M  V30 5580 H 522.848 2.93908 -3.26366 0
M  V30 5581 H 523.454 1.43882 -4.00223 0
M  V30 5582 N 521.769 1.56035 0.221574 0
M  V30 5583 C 522.679 1.95581 1.29558 0
M  V30 5584 C 523.695 0.859639 1.51282 0
M  V30 5585 O 524.871 1.16321 1.64413 0
M  V30 5586 C 521.936 2.26447 2.62531 0
M  V30 5587 C 520.997 3.49632 2.4911 0
M  V30 5588 C 520.23 3.79017 3.75742 0
M  V30 5589 O 520.453 3.10077 4.78757 0
M  V30 5590 O 519.387 4.72507 3.72855 0
M  V30 5591 H 523.213 2.8711 0.990035 0
M  V30 5592 H 520.798 1.43244 0.424434 0
M  V30 5593 H 522.68 2.47494 3.41064 0
M  V30 5594 H 521.355 1.38092 2.92766 0
M  V30 5595 H 520.262 3.33864 1.68777 0
M  V30 5596 H 521.595 4.3837 2.23814 0
M  V30 5597 N 523.247 -0.488276 1.49845 0
M  V30 5598 C 524.157 -1.61451 1.70207 0
M  V30 5599 C 525.173 -1.63877 0.584846 0
M  V30 5600 O 526.349 -1.82063 0.861107 0
M  V30 5601 C 523.414 -2.9776 1.77594 0
M  V30 5602 C 522.475 -3.05861 3.01243 0
M  V30 5603 C 521.708 -4.35668 3.08268 0
M  V30 5604 O 521.931 -5.25197 2.22541 0
M  V30 5605 O 520.865 -4.49005 4.00847 0
M  V30 5606 H 524.691 -1.47199 2.65643 0
M  V30 5607 H 522.276 -0.665939 1.33737 0
M  V30 5608 H 524.158 -3.7875 1.84732 0
M  V30 5609 H 522.833 -3.12248 0.8534 0
M  V30 5610 H 521.74 -2.24012 2.99616 0
M  V30 5611 H 523.073 -2.96304 3.9302 0
M  V30 5612 N 524.725 -1.39134 -0.740242 0
M  V30 5613 C 525.635 -1.39697 -1.88473 0
M  V30 5614 C 526.651 -0.292403 -1.71526 0
M  V30 5615 O 527.827 -0.533021 -1.94219 0
M  V30 5616 C 524.892 -1.23382 -3.24003 0
M  V30 5617 C 523.953 -2.43763 -3.53381 0
M  V30 5618 C 523.186 -2.28216 -4.82445 0
M  V30 5619 O 523.409 -1.28288 -5.55786 0
M  V30 5620 O 522.343 -3.1709 -5.11603 0
M  V30 5621 H 526.169 -2.36159 -1.90952 0
M  V30 5622 H 523.754 -1.20194 -0.887346 0
M  V30 5623 H 525.636 -1.16395 -4.05006 0
M  V30 5624 H 524.311 -0.300121 -3.22306 0
M  V30 5625 H 523.218 -2.56325 -2.72485 0
M  V30 5626 H 524.551 -3.35808 -3.59852 0
M  V30 5627 N 526.204 0.969867 -1.24223 0
M  V30 5628 C 527.134 2.08191 -1.05729 0
M  V30 5629 C 528.115 1.70075 0.0290765 0
M  V30 5630 O 529.3 1.93712 -0.137583 0
M  V30 5631 C 526.43 3.40991 -0.658995 0
M  V30 5632 C 525.384 3.93054 -1.69389 0
M  V30 5633 C 524.71 5.22171 -1.15072 0
M  V30 5634 C 526.01 4.21137 -3.08935 0
M  V30 5635 H 527.704 2.23921 -1.98746 0
M  V30 5636 H 525.25 1.07602 -0.956967 0
M  V30 5637 H 527.203 4.18221 -0.51662 0
M  V30 5638 H 525.927 3.25155 0.30686 0
M  V30 5639 H 524.586 3.17977 -1.82444 0
M  V30 5640 H 524.234 5.02694 -0.175539 0
M  V30 5641 H 523.934 5.57973 -1.84229 0
M  V30 5642 H 525.458 6.02013 -1.02042 0
M  V30 5643 H 526.872 4.8908 -2.99121 0
M  V30 5644 H 525.269 4.68163 -3.75425 0
M  V30 5645 H 526.339 3.27996 -3.57137 0
M  V30 5646 N 527.682 1.05563 1.17022 0
M  V30 5647 C 528.632 0.630007 2.19123 0
M  V30 5648 C 529.616 -0.335472 1.57364 0
M  V30 5649 O 530.808 -0.1521 1.76345 0
M  V30 5650 C 527.937 0.0101676 3.43298 0
M  V30 5651 C 527.023 0.999698 4.12149 0
M  V30 5652 N 527.414 2.17251 4.56766 0
M  V30 5653 C 525.712 0.829 4.38228 0
M  V30 5654 C 526.413 2.79883 5.09942 0
M  V30 5655 N 525.389 2.07656 5.02374 0
M  V30 5656 H 529.191 1.52353 2.51328 0
M  V30 5657 H 526.705 0.926288 1.33393 0
M  V30 5658 H 528.702 -0.312541 4.15727 0
M  V30 5659 H 527.362 -0.878707 3.12584 0
M  V30 5660 H 528.373 2.55067 4.50734 0
M  V30 5661 H 525.05 -0.00850974 4.17499 0
M  V30 5662 H 526.44 3.79362 5.54558 0
M  V30 5663 N 529.16 -1.33526 0.837174 0
M  V30 5664 C 530.09 -2.31764 0.284206 0
M  V30 5665 C 531.071 -1.58896 -0.607142 0
M  V30 5666 O 532.256 -1.86798 -0.531047 0
M  V30 5667 C 529.386 -3.43029 -0.542962 0
M  V30 5668 C 528.34 -4.27255 0.252451 0
M  V30 5669 C 527.666 -5.3012 -0.69836 0
M  V30 5670 C 528.966 -5.01229 1.46858 0
M  V30 5671 H 530.66 -2.78262 1.10502 0
M  V30 5672 H 528.206 -1.3378 0.532812 0
M  V30 5673 H 530.159 -4.1078 -0.940096 0
M  V30 5674 H 528.883 -2.95216 -1.39697 0
M  V30 5675 H 527.542 -3.61127 0.631124 0
M  V30 5676 H 527.19 -4.78564 -1.54872 0
M  V30 5677 H 526.89 -5.87353 -0.170274 0
M  V30 5678 H 528.414 -6.00737 -1.09305 0
M  V30 5679 H 529.828 -5.61756 1.14469 0
M  V30 5680 H 528.225 -5.68104 1.93333 0
M  V30 5681 H 529.295 -4.301 2.23924 0
M  V30 5682 N 530.638 -0.59345 -1.46 0
M  V30 5683 C 531.601 0.123538 -2.28867 0
M  V30 5684 C 532.601 0.808628 -1.38989 0
M  V30 5685 O 533.791 0.658945 -1.61256 0
M  V30 5686 C 530.923 1.1847 -3.19653 0
M  V30 5687 H 532.116 -0.604843 -2.93737 0
M  V30 5688 H 529.669 -0.351875 -1.52288 0
M  V30 5689 H 530.404 1.94431 -2.59552 0
M  V30 5690 H 530.189 0.69783 -3.8584 0
M  V30 5691 H 531.679 1.68726 -3.81997 0
M  V30 5692 N 532.116 1.54067 -0.331816 0
M  V30 5693 C 533.046 2.27569 0.522932 0
M  V30 5694 C 534.027 1.28679 1.11247 0
M  V30 5695 O 535.212 1.57504 1.13605 0
M  V30 5696 C 532.342 3.0397 1.67987 0
M  V30 5697 C 531.296 4.10267 1.21924 0
M  V30 5698 C 530.622 4.74555 2.46377 0
M  V30 5699 C 531.922 5.21268 0.32815 0
M  V30 5700 H 533.616 2.99264 -0.0901977 0
M  V30 5701 H 531.162 1.4393 -0.044821 0
M  V30 5702 H 533.115 3.54123 2.28418 0
M  V30 5703 H 531.839 2.29906 2.31971 0
M  V30 5704 H 530.498 3.61009 0.637809 0
M  V30 5705 H 530.146 3.97098 3.08743 0
M  V30 5706 H 529.846 5.46363 2.16243 0
M  V30 5707 H 531.37 5.27487 3.07555 0
M  V30 5708 H 532.784 5.67128 0.838978 0
M  V30 5709 H 531.181 5.99982 0.119228 0
M  V30 5710 H 532.251 4.80673 -0.638839 0
M  V30 5711 N 533.594 0.0601682 1.57485 0
M  V30 5712 C 534.504 -0.926121 2.15546 0
M  V30 5713 C 535.52 -1.33532 1.11558 0
M  V30 5714 O 536.696 -1.4104 1.4377 0
M  V30 5715 C 533.761 -2.17952 2.69625 0
M  V30 5716 C 532.822 -1.82783 3.88444 0
M  V30 5717 C 532.055 -3.02148 4.39935 0
M  V30 5718 O 532.278 -4.15803 3.90466 0
M  V30 5719 O 531.212 -2.82639 5.31412 0
M  V30 5720 H 535.038 -0.462289 3.00161 0
M  V30 5721 H 532.623 -0.162246 1.48516 0
M  V30 5722 H 534.505 -2.91474 3.04337 0
M  V30 5723 H 533.18 -2.63456 1.88077 0
M  V30 5724 H 532.087 -1.06549 3.58606 0
M  V30 5725 H 533.42 -1.42072 4.7125 0
M  V30 5726 N 535.072 -1.5615 -0.213296 0
M  V30 5727 C 536.488 -1.49327 -0.56336 0
M  V30 5728 C 536.688 -0.756826 -1.86747 0
M  V30 5729 O 535.744 -0.299866 -2.50713 0
M  V30 5730 C 537.057 -2.9392 -0.634944 0
M  V30 5731 C 538.605 -3.04487 -0.725013 0
M  V30 5732 C 539.08 -4.50456 -0.82787 0
M  V30 5733 N 540.571 -4.54533 -0.891876 0
M  V30 5734 C 541.306 -5.64766 -0.991315 0
M  V30 5735 N 540.802 -6.84733 -1.05419 0
M  V30 5736 N 542.595 -5.52637 -1.02709 0
M  V30 5737 H 534.746 -2.02453 0.642366 0
M  V30 5738 H 537.009 -0.920548 0.226487 0
M  V30 5739 H 536.715 -3.50783 0.253859 0
M  V30 5740 H 536.589 -3.46274 -1.49579 0
M  V30 5741 H 538.976 -2.47685 -1.60425 0
M  V30 5742 H 539.057 -2.55289 0.161669 0
M  V30 5743 H 538.701 -5.07878 0.0469464 0
M  V30 5744 H 538.631 -4.97369 -1.73009 0
M  V30 5745 H 541.122 -3.68141 -0.85327 0
M  V30 5746 H 541.435 -7.64493 -1.13007 0
M  V30 5747 H 539.78 -6.87427 -1.02318 0
M  V30 5748 H 542.971 -4.5784 -0.974687 0
M  V30 5749 H 543.144 -6.38576 -1.10113 0
M  V30 5750 N 536.55 0.480323 -1.50102 0
M  V30 5751 C 537.48 1.58769 -1.71215 0
M  V30 5752 C 538.461 1.60583 -0.560997 0
M  V30 5753 O 539.646 1.76996 -0.799127 0
M  V30 5754 C 536.776 2.97148 -1.79778 0
M  V30 5755 C 535.73 3.10201 -2.94888 0
M  V30 5756 C 535.056 4.50137 -2.88584 0
M  V30 5757 C 536.356 2.88283 -4.35534 0
M  V30 5758 H 538.05 1.41354 -2.6393 0
M  V30 5759 H 535.596 0.678591 -1.27008 0
M  V30 5760 H 537.549 3.74536 -1.93133 0
M  V30 5761 H 536.273 3.15699 -0.836772 0
M  V30 5762 H 534.932 2.35244 -2.81169 0
M  V30 5763 H 534.58 4.65593 -1.90349 0
M  V30 5764 H 534.28 4.59808 -3.65856 0
M  V30 5765 H 535.804 5.29558 -3.03976 0
M  V30 5766 H 537.218 3.55427 -4.49827 0
M  V30 5767 H 535.615 3.09408 -5.14186 0
M  V30 5768 H 536.685 1.84219 -4.48544 0
M  V30 5769 N 538.028 1.39524 0.732853 0
M  V30 5770 C 539.276 1.36594 1.48951 0
M  V30 5771 C 539.597 -0.0367507 1.94965 0
M  V30 5772 O 538.867 -0.988391 1.69138 0
M  V30 5773 H 537.447 0.502673 0.552566 0
M  V30 5774 H 540.109 1.74411 0.869869 0
M  V30 5775 H 539.205 2.03 2.3706 0
M  V30 5776 N 539.506 -0.963266 1.24736 0
M  V30 5777 C 540.922 -1.23273 1.01371 0
M  V30 5778 C 541.122 -1.99618 -0.274776 0
M  V30 5779 O 540.178 -2.32293 -0.989769 0
M  V30 5780 C 541.491 -2.01554 2.23152 0
M  V30 5781 C 543.039 -2.14629 2.27823 0
M  V30 5782 C 543.514 -2.96307 3.49237 0
M  V30 5783 N 545.005 -3.03887 3.49581 0
M  V30 5784 C 545.74 -3.67456 4.40186 0
M  V30 5785 N 545.236 -4.32706 5.41052 0
M  V30 5786 N 547.029 -3.64511 4.27888 0
M  V30 5787 H 539.18 -0.452294 2.07528 0
M  V30 5788 H 541.443 -0.262521 0.910926 0
M  V30 5789 H 541.149 -1.52847 3.1675 0
M  V30 5790 H 541.023 -3.02278 2.25628 0
M  V30 5791 H 543.41 -2.62537 1.34753 0
M  V30 5792 H 543.491 -1.13238 2.2937 0
M  V30 5793 H 543.135 -2.49091 4.42624 0
M  V30 5794 H 543.065 -3.97905 3.44933 0
M  V30 5795 H 545.556 -2.57477 2.76611 0
M  V30 5796 H 545.869 -4.79042 6.06415 0
M  V30 5797 H 544.214 -4.31361 5.44934 0
M  V30 5798 H 547.405 -3.12715 3.4832 0
M  V30 5799 H 547.578 -4.13768 4.98698 0
M  V30 5800 N 540.985 -1.06182 -1.16461 0
M  V30 5801 C 542.231 -0.779015 -1.87241 0
M  V30 5802 C 542.564 0.692715 -1.81425 0
M  V30 5803 O 541.839 1.5074 -1.22913 0
M  V30 5804 C 542.122 -1.2728 -3.36856 0
M  V30 5805 C 541.975 -2.80821 -3.51368 0
M  V30 5806 C 543.294 -0.879799 -4.31216 0
M  V30 5807 H 540.413 -0.284464 -0.679889 0
M  V30 5808 H 543.055 -1.31755 -1.36896 0
M  V30 5809 H 541.205 -0.814673 -3.79862 0
M  V30 5810 H 542.877 -3.34833 -3.17308 0
M  V30 5811 H 541.12 -3.19606 -2.93316 0
M  V30 5812 H 541.791 -3.10435 -4.56436 0
M  V30 5813 H 544.267 -1.27436 -3.96105 0
M  V30 5814 H 543.143 -1.25278 -5.34412 0
M  V30 5815 H 543.404 0.215372 -4.41575 0
M  V30 5816 N 542.463 1.3308 -0.844243 0
M  V30 5817 C 543.709 1.97898 -0.443206 0
M  V30 5818 C 544.042 1.66699 0.99625 0
M  V30 5819 O 543.317 0.949704 1.69738 0
M  V30 5820 C 543.6 3.53801 -0.670606 0
M  V30 5821 C 543.453 3.94667 -2.15772 0
M  V30 5822 C 544.772 4.39936 -0.120226 0
M  V30 5823 H 541.891 0.718861 -0.162504 0
M  V30 5824 H 544.533 1.57633 -1.06075 0
M  V30 5825 H 542.683 3.88229 -0.14496 0
M  V30 5826 H 544.355 3.70469 -2.74865 0
M  V30 5827 H 542.598 3.44203 -2.6402 0
M  V30 5828 H 543.269 5.03275 -2.26757 0
M  V30 5829 H 545.745 4.12183 -0.5696 0
M  V30 5830 H 544.621 5.4803 -0.308984 0
M  V30 5831 H 544.882 4.31184 0.976347 0
M  V30 5832 N 543.941 0.601185 1.45683 0
M  V30 5833 C 544.889 -0.133955 2.32214 0
M  V30 5834 C 545.883 -0.866034 1.45589 0
M  V30 5835 O 547.089 -0.782326 1.6211 0
M  V30 5836 H 543.464 -0.0620613 0.749435 0
M  V30 5837 H 545.435 0.614389 2.92007 0
M  V30 5838 C 544.184 -1.12216 3.29094 0
M  V30 5839 H 543.507 -0.568273 3.95741 0
M  V30 5840 H 544.947 -1.60659 3.92383 0
M  V30 5841 C 543.406 -2.19251 2.55794 0
M  V30 5842 O 543.936 -3.26894 2.33459 0
M  V30 5843 N 542.142 -1.9436 2.16039 0
M  V30 5844 H 541.689 -1.06829 2.34404 0
M  V30 5845 H 541.647 -2.66181 1.67318 0
M  V30 5846 N 545.419 -1.53889 0.339982 0
M  V30 5847 C 546.644 -2.05741 -0.261798 0
M  V30 5848 C 547.069 -1.21354 -1.43718 0
M  V30 5849 O 546.427 -0.22645 -1.7988 0
M  V30 5850 C 546.475 -3.54542 -0.658228 0
M  V30 5851 O 545.579 -3.7302 -1.75869 0
M  V30 5852 H 544.92 -0.662529 -0.0441672 0
M  V30 5853 H 547.45 -1.98568 0.493161 0
M  V30 5854 H 547.46 -3.9711 -0.936368 0
M  V30 5855 H 546.135 -4.15412 0.201358 0
M  V30 5856 H 544.712 -3.42355 -1.47809 0
M  V30 5857 N 546.897 -0.0685191 -1.57451 0
M  V30 5858 C 548.308 0.464634 -1.80826 0
M  V30 5859 C 548.659 1.69847 -0.982169 0
M  V30 5860 O 547.784 2.15439 -0.203734 0
M  V30 5861 C 548.379 0.849721 -3.27971 0
M  V30 5862 C 546.938 1.32776 -3.52204 0
M  V30 5863 C 546.085 0.311332 -2.75547 0
M  V30 5864 H 549.036 -0.294248 -1.55948 0
M  V30 5865 H 549.057 1.71138 -3.39841 0
M  V30 5866 H 548.569 -0.0484736 -3.8807 0
M  V30 5867 H 546.67 2.24456 -2.97406 0
M  V30 5868 H 546.783 1.30794 -4.60901 0
M  V30 5869 H 545.147 0.787915 -2.42206 0
M  V30 5870 H 545.93 -0.579078 -3.38381 0
M  V30 5871 N 548.375 1.56261 0.205012 0
M  V30 5872 C 549.791 1.49623 0.555433 0
M  V30 5873 C 549.991 0.766719 1.86343 0
M  V30 5874 O 549.047 0.313158 2.50551 0
M  V30 5875 C 550.36 2.94253 0.619347 0
M  V30 5876 C 551.908 3.04868 0.708855 0
M  V30 5877 C 552.383 4.50888 0.803969 0
M  V30 5878 N 553.874 4.54999 0.867758 0
M  V30 5879 C 554.609 5.65284 0.96135 0
M  V30 5880 N 554.105 6.85282 1.01786 0
M  V30 5881 N 555.898 5.53174 0.997771 0
M  V30 5882 H 548.049 2.0211 -0.653094 0
M  V30 5883 H 550.312 0.919333 -0.231366 0
M  V30 5884 H 550.018 3.50643 -0.272458 0
M  V30 5885 H 549.892 3.47063 1.47741 0
M  V30 5886 H 552.279 2.48532 1.5911 0
M  V30 5887 H 552.36 2.55199 -0.175205 0
M  V30 5888 H 552.004 5.07846 -0.0738798 0
M  V30 5889 H 551.934 4.98279 1.70369 0
M  V30 5890 H 554.425 3.68588 0.833735 0
M  V30 5891 H 554.738 7.65081 1.08951 0
M  V30 5892 H 553.083 6.8796 0.986706 0
M  V30 5893 H 556.274 4.5835 0.950392 0
M  V30 5894 H 556.447 6.39151 1.06725 0
M  V30 5895 N 549.853 -0.472356 1.50355 0
M  V30 5896 C 550.763 -1.59637 1.7191 0
M  V30 5897 C 551.779 -1.63247 0.602195 0
M  V30 5898 O 552.955 -1.81139 0.880369 0
M  V30 5899 C 550.02 -2.9586 1.80742 0
M  V30 5900 C 549.081 -3.02649 3.04471 0
M  V30 5901 C 548.314 -4.32374 3.12872 0
M  V30 5902 O 548.537 -5.22807 2.28099 0
M  V30 5903 O 547.471 -4.44728 4.05587 0
M  V30 5904 H 551.297 -1.44373 2.67189 0
M  V30 5905 H 548.882 -0.651717 1.34436 0
M  V30 5906 H 550.764 -3.7677 1.88739 0
M  V30 5907 H 549.439 -3.11325 0.88647 0
M  V30 5908 H 548.346 -2.20821 3.01975 0
M  V30 5909 H 549.679 -2.92119 3.9614 0
M  V30 5910 N 551.331 -1.39911 -0.725443 0
M  V30 5911 C 552.294 -1.39156 -1.82121 0
M  V30 5912 C 553.294 -0.287018 -1.58218 0
M  V30 5913 O 554.484 -0.545421 -1.65441 0
M  V30 5914 C 551.616 -1.1736 -3.20062 0
M  V30 5915 H 552.809 -2.36672 -1.84191 0
M  V30 5916 H 550.362 -1.25615 -0.930079 0
M  V30 5917 H 551.097 -0.205648 -3.23647 0
M  V30 5918 H 550.882 -1.97358 -3.3881 0
M  V30 5919 H 552.372 -1.19596 -4.00108 0
M  V30 5920 N 552.809 0.956637 -1.25245 0
M  V30 5921 C 553.719 2.0868 -1.0719 0
M  V30 5922 C 554.735 1.73997 -0.00959074 0
M  V30 5923 O 555.911 2.00301 -0.210104 0
M  V30 5924 C 552.976 3.39754 -0.690526 0
M  V30 5925 C 552.037 3.88316 -1.83055 0
M  V30 5926 C 551.27 5.13134 -1.46728 0
M  V30 5927 O 551.493 5.6925 -0.362029 0
M  V30 5928 O 550.427 5.56356 -2.29677 0
M  V30 5929 H 554.253 2.26813 -2.01965 0
M  V30 5930 H 551.838 1.07098 -1.04165 0
M  V30 5931 H 553.72 4.18543 -0.489871 0
M  V30 5932 H 552.395 3.22896 0.227981 0
M  V30 5933 H 551.302 3.1054 -2.08604 0
M  V30 5934 H 552.635 4.09669 -2.72822 0
M  V30 5935 N 554.287 1.06798 1.15896 0
M  V30 5936 C 555.535 0.786211 1.8618 0
M  V30 5937 C 555.856 -0.689547 1.82401 0
M  V30 5938 O 555.126 -1.49913 1.26107 0
M  V30 5939 H 553.706 0.287843 0.689315 0
M  V30 5940 H 556.368 1.35055 1.40521 0
M  V30 5941 H 555.464 1.1157 2.91477 0
M  V30 5942 N 555.766 -1.3263 0.851289 0
M  V30 5943 C 557.014 -1.96978 0.452128 0
M  V30 5944 C 557.335 -1.67715 -0.99482 0
M  V30 5945 O 556.605 -0.98259 -1.69476 0
M  V30 5946 H 555.185 -0.72873 0.164202 0
M  V30 5947 H 557.847 -1.61774 1.08698 0
M  V30 5948 H 556.943 -3.06387 0.594407 0
M  V30 5949 N 557.244 -0.608902 -1.45362 0
M  V30 5950 C 558.207 0.0992563 -2.28985 0
M  V30 5951 C 559.207 0.793841 -1.39838 0
M  V30 5952 O 560.397 0.641804 -1.61946 0
M  V30 5953 C 557.529 1.15073 -3.20891 0
M  V30 5954 H 558.722 -0.635964 -2.93079 0
M  V30 5955 H 556.275 -0.368007 -1.51906 0
M  V30 5956 H 557.01 1.91667 -2.616 0
M  V30 5957 H 556.795 0.656867 -3.86559 0
M  V30 5958 H 558.285 1.64665 -3.83765 0
M  V30 5959 N 558.722 1.53707 -0.348139 0
M  V30 5960 C 559.968 2.01286 0.247332 0
M  V30 5961 C 560.301 1.23546 1.49834 0
M  V30 5962 O 559.576 0.324331 1.91777 0
M  V30 5963 C 559.859 3.55768 0.556858 0
M  V30 5964 C 559.712 4.44216 -0.706564 0
M  V30 5965 C 561.031 4.1841 1.3646 0
M  V30 5966 H 558.15 0.731677 0.0884201 0
M  V30 5967 H 560.792 1.84106 -0.469584 0
M  V30 5968 H 558.942 3.70539 1.16761 0
M  V30 5969 H 560.614 4.41274 -1.34444 0
M  V30 5970 H 558.857 4.12892 -1.33052 0
M  V30 5971 H 559.528 5.50202 -0.445186 0
M  V30 5972 H 562.004 4.07365 0.848113 0
M  V30 5973 H 560.88 5.26563 1.54992 0
M  V30 5974 H 561.141 3.7333 2.36805 0
M  V30 5975 N 560.2 0.0768682 1.57412 0
M  V30 5976 C 561.425 -0.603404 1.98428 0
M  V30 5977 C 561.85 -1.62047 0.955108 0
M  V30 5978 O 561.208 -1.81129 -0.0786778 0
M  V30 5979 C 561.256 -1.24396 3.38464 0
M  V30 5980 O 560.36 -2.35982 3.3821 0
M  V30 5981 H 559.701 -0.154741 0.645718 0
M  V30 5982 H 562.231 0.152885 2.04028 0
M  V30 5983 H 562.241 -1.5896 3.7576 0
M  V30 5984 H 560.916 -0.498735 4.12899 0
M  V30 5985 H 559.493 -2.03173 3.1269 0
M  V30 5986 N 561.678 -1.56367 -0.196722 0
M  V30 5987 C 562.926 -1.80172 -0.915554 0
M  V30 5988 C 563.247 -0.649649 -1.8386 0
M  V30 5989 O 562.517 0.332111 -1.93064 0
M  V30 5990 H 561.097 -0.664592 -0.341067 0
M  V30 5991 H 563.759 -1.93844 -0.202622 0
M  V30 5992 H 562.855 -2.7327 -1.50764 0
M  V30 5993 O 563.195 0.341958 -1.57838 0
M  V30 5994 H 563.886 0.991482 -1.66401 0
M  V30 END ATOM
M  V30 BEGIN BOND
M  V30 END BOND
M  V30 END CTAB
M  END
$$$$
