drugbank_target|Q76NM6 V-type proton ATPase catalytic subunit A (DB11638)
 OpenBabel12092121103D

  0  0  0     0  0            999 V3000
M  V30 BEGIN CTAB
M  V30 COUNTS 9602 9699 0 0 0
M  V30 BEGIN ATOM
M  V30 1 H -0.908 1.98254 -0.117106 0
M  V30 2 N 0 1.576 0 0
M  V30 3 C 0.933 2.03868 1.02534 0
M  V30 4 C 1.911 0.928543 1.3348 0
M  V30 5 O 3.095 1.19667 1.45644 0
M  V30 6 C 0.222 2.43627 2.35294 0
M  V30 7 C -0.732 3.65373 2.2001 0
M  V30 8 S 0.101 5.13292 1.52614 0
M  V30 9 C 1.257 5.56322 2.86805 0
M  V30 10 H 1.49 2.90518 0.631377 0
M  V30 11 H -0.977 1.52953 0.210867 0
M  V30 12 H 0.981 2.67203 3.11629 0
M  V30 13 H -0.358 1.57376 2.7183 0
M  V30 14 H -1.165 3.90944 3.18086 0
M  V30 15 H -1.563 3.418 1.51819 0
M  V30 16 H 0.729 5.58782 3.83104 0
M  V30 17 H 1.672 6.56266 2.65933 0
M  V30 18 H 2.08 4.83886 2.90714 0
M  V30 19 N 1.4781 -0.272755 1.55222 0
M  V30 20 C 2.7061 -1.02255 1.79865 0
M  V30 21 C 3.1211 -1.79924 0.572088 0
M  V30 22 O 2.4781 -1.76638 -0.458842 0
M  V30 23 C 2.5291 -1.98094 3.02392 0
M  V30 24 O 2.2501 -1.23572 4.20311 0
M  V30 25 C 3.7511 -2.84884 3.39641 0
M  V30 26 H 0.9711 -0.302057 0.599168 0
M  V30 27 H 3.5151 -0.303465 2.02236 0
M  V30 28 H 1.6701 -2.65465 2.82147 0
M  V30 29 H 2.0841 -1.88172 4.89583 0
M  V30 30 H 3.5581 -3.47927 4.28545 0
M  V30 31 H 4.0351 -3.54665 2.59055 0
M  V30 32 H 4.6411 -2.23003 3.62146 0
M  V30 33 N 2.9562 -1.48159 -0.537278 0
M  V30 34 C 3.9032 -1.62138 -1.64256 0
M  V30 35 C 4.8732 -0.463668 -1.59497 0
M  V30 36 O 6.0582 -0.686241 -1.78032 0
M  V30 37 C 3.1982 -1.66028 -3.02537 0
M  V30 38 C 2.3112 -2.92855 -3.17585 0
M  V30 39 C 1.4462 -2.87952 -4.46382 0
M  V30 40 C 0.4852 -4.09516 -4.54932 0
M  V30 41 N -0.3778 -4.02733 -5.75109 0
M  V30 42 H 4.4622 -2.56529 -1.51647 0
M  V30 43 H 1.9992 -1.27224 -0.738414 0
M  V30 44 H 3.9572 -1.66265 -3.82638 0
M  V30 45 H 2.5872 -0.751331 -3.13934 0
M  V30 46 H 1.6392 -3.02395 -2.30784 0
M  V30 47 H 2.9512 -3.82822 -3.19764 0
M  V30 48 H 2.1052 -2.8655 -5.34765 0
M  V30 49 H 0.8442 -1.95702 -4.46712 0
M  V30 50 H -0.1508 -4.11201 -3.64957 0
M  V30 51 H 1.0742 -5.02917 -4.56346 0
M  V30 52 H -0.9798 -3.13299 -5.76351 0
M  V30 53 H -1.0628 -4.86397 -5.78752 0
M  V30 54 H 0.2052 -4.05379 -6.65799 0
M  V30 55 N 4.4343 0.785586 -1.36625 0
M  V30 56 C 5.6803 1.54591 -1.31261 0
M  V30 57 C 6.0133 1.93906 0.106823 0
M  V30 58 O 5.2883 1.63007 1.06108 0
M  V30 59 C 5.5713 2.82038 -2.23889 0
M  V30 60 C 5.4243 2.49066 -3.74548 0
M  V30 61 C 6.7433 3.83887 -2.15217 0
M  V30 62 H 3.8623 0.560846 -0.478143 0
M  V30 63 H 6.5043 0.902278 -1.67209 0
M  V30 64 H 4.6543 3.36961 -1.93363 0
M  V30 65 H 6.3263 2.00164 -4.15611 0
M  V30 66 H 4.5693 1.81954 -3.93796 0
M  V30 67 H 5.2403 3.40109 -4.34776 0
M  V30 68 H 7.7163 3.38421 -2.42096 0
M  V30 69 H 6.5923 4.70806 -2.82193 0
M  V30 70 H 6.8533 4.27131 -1.14068 0
M  V30 71 N 5.9124 1.20967 1.01018 0
M  V30 72 C 6.8754 0.965918 2.07853 0
M  V30 73 C 7.8754 -0.0610545 1.60684 0
M  V30 74 O 9.0654 0.175681 1.73312 0
M  V30 75 C 6.1974 0.455513 3.37843 0
M  V30 76 H 7.3904 1.91365 2.3091 0
M  V30 77 H 4.9434 1.02594 1.17916 0
M  V30 78 H 5.6784 -0.497381 3.20463 0
M  V30 79 H 5.4634 1.19622 3.73407 0
M  V30 80 H 6.9534 0.304667 4.16487 0
M  V30 81 N 7.3905 -1.2043 1.01659 0
M  V30 82 C 8.6365 -1.90079 0.706963 0
M  V30 83 C 8.9695 -1.78648 -0.761474 0
M  V30 84 O 8.2445 -1.17069 -1.55323 0
M  V30 85 C 8.5275 -3.41469 1.14327 0
M  V30 86 C 8.3805 -3.61833 2.67201 0
M  V30 87 C 9.6995 -4.34261 0.714529 0
M  V30 88 H 6.8185 -0.690254 0.2583 0
M  V30 89 H 9.4605 -1.41826 1.26433 0
M  V30 90 H 7.6105 -3.82696 0.669056 0
M  V30 91 H 9.2825 -3.2986 3.22475 0
M  V30 92 H 7.5255 -3.05304 3.08175 0
M  V30 93 H 8.1965 -4.67955 2.92783 0
M  V30 94 H 10.6725 -4.00682 1.12221 0
M  V30 95 H 9.5485 -5.38806 1.04784 0
M  V30 96 H 9.8095 -4.40431 -0.383799 0
M  V30 97 N 8.8686 -0.792821 -1.36206 0
M  V30 98 C 9.7786 -0.194808 -2.3379 0
M  V30 99 C 10.7946 0.654869 -1.61206 0
M  V30 100 O 11.9706 0.569856 -1.9317 0
M  V30 101 C 9.0356 0.657721 -3.40404 0
M  V30 102 C 8.0966 -0.210849 -4.28782 0
M  V30 103 C 7.3296 0.601086 -5.30304 0
M  V30 104 O 7.5526 1.83682 -5.40016 0
M  V30 105 O 6.4866 -0.000808277 -6.019 0
M  V30 106 H 10.3126 -1.00172 -2.86704 0
M  V30 107 H 7.8976 -0.554341 -1.38735 0
M  V30 108 H 9.7796 1.14375 -4.05581 0
M  V30 109 H 8.4546 1.44247 -2.89784 0
M  V30 110 H 7.3616 -0.743714 -3.66633 0
M  V30 111 H 8.6946 -0.959195 -4.82763 0
M  V30 112 N 10.3467 1.47872 -0.545128 0
M  V30 113 C 11.2937 2.29849 0.2093 0
M  V30 114 C 12.2637 1.38313 0.919707 0
M  V30 115 O 13.4487 1.67277 0.917772 0
M  V30 116 C 10.5887 3.22019 1.24088 0
M  V30 117 C 9.7017 4.2864 0.537778 0
M  V30 118 C 8.8367 5.07973 1.5536 0
M  V30 119 C 7.8757 6.06381 0.8348 0
M  V30 120 N 7.0127 6.78717 1.79688 0
M  V30 121 H 11.8527 2.93845 -0.49591 0
M  V30 122 H 9.3897 1.44848 -0.256389 0
M  V30 123 H 11.3477 3.73868 1.85144 0
M  V30 124 H 9.9777 2.59914 1.91428 0
M  V30 125 H 9.0297 3.7994 -0.187046 0
M  V30 126 H 10.3417 4.98793 -0.0258907 0
M  V30 127 H 9.4957 5.63912 2.23803 0
M  V30 128 H 8.2347 4.37693 2.15118 0
M  V30 129 H 7.2397 5.49631 0.136388 0
M  V30 130 H 8.4647 6.78665 0.24313 0
M  V30 131 H 6.4107 6.11177 2.38326 0
M  V30 132 H 6.3277 7.44998 1.28505 0
M  V30 133 H 7.5957 7.39237 2.47282 0
M  V30 134 N 11.8248 0.280983 1.55075 0
M  V30 135 C 12.7348 -0.61388 2.26426 0
M  V30 136 C 13.7508 -1.16521 1.29224 0
M  V30 137 O 14.9268 -1.19426 1.62171 0
M  V30 138 C 11.9918 -1.7788 2.9759 0
M  V30 139 C 11.0528 -1.26355 4.10284 0
M  V30 140 C 10.2858 -2.37295 4.78045 0
M  V30 141 O 10.5088 -3.56777 4.45047 0
M  V30 142 O 9.4428 -2.05119 5.65871 0
M  V30 143 H 13.2688 -0.0356932 3.03679 0
M  V30 144 H 10.8538 0.0481686 1.49322 0
M  V30 145 H 12.7358 -2.45791 3.42293 0
M  V30 146 H 11.4108 -2.34397 2.23249 0
M  V30 147 H 10.3178 -0.550735 3.70024 0
M  V30 148 H 11.6508 -0.744065 4.86543 0
M  V30 149 N 13.3029 -1.57598 0.00835791 0
M  V30 150 C 14.2129 -2.12385 -0.996487 0
M  V30 151 C 15.2289 -1.07108 -1.37127 0
M  V30 152 O 16.4049 -1.39055 -1.4569 0
M  V30 153 C 13.4699 -2.62314 -2.26699 0
M  V30 154 C 12.5309 -3.82225 -1.95456 0
M  V30 155 C 11.7639 -4.29763 -3.16449 0
M  V30 156 O 11.9869 -3.76584 -4.28416 0
M  V30 157 O 10.9209 -5.21832 -2.99958 0
M  V30 158 H 14.7469 -2.98479 -0.560725 0
M  V30 159 H 12.3319 -1.47903 -0.210987 0
M  V30 160 H 14.2139 -2.94589 -3.01322 0
M  V30 161 H 12.8889 -1.79313 -2.69497 0
M  V30 162 H 11.7959 -3.54909 -1.18282 0
M  V30 163 H 13.1289 -4.66324 -1.57489 0
M  V30 164 N 14.781 0.264519 -1.55364 0
M  V30 165 C 16.192 0.834936 -1.6699 0
M  V30 166 C 16.543 1.86718 -0.602552 0
M  V30 167 O 15.668 2.14899 0.254425 0
M  V30 168 C 16.263 1.5212 -3.02729 0
M  V30 169 C 14.822 2.03954 -3.16354 0
M  V30 170 C 13.969 0.884498 -2.62815 0
M  V30 171 H 16.92 0.0406869 -1.58648 0
M  V30 172 H 16.941 2.38853 -2.96191 0
M  V30 173 H 16.453 0.769668 -3.80392 0
M  V30 174 H 14.554 2.82041 -2.43482 0
M  V30 175 H 14.667 2.24902 -4.23032 0
M  V30 176 H 13.031 1.2802 -2.20188 0
M  V30 177 H 13.814 0.14634 -3.42988 0
M  V30 178 N 16.2591 1.48442 0.529413 0
M  V30 179 C 17.5071 1.56179 1.28267 0
M  V30 180 C 17.8281 0.237721 1.93546 0
M  V30 181 O 17.0981 -0.740779 1.81354 0
M  V30 182 H 15.6781 0.575367 0.476405 0
M  V30 183 H 18.3401 1.84909 0.61602 0
M  V30 184 H 17.4361 2.34312 2.06165 0
M  V30 185 N 17.7372 -0.778329 1.37039 0
M  V30 186 C 18.9832 -1.53892 1.32079 0
M  V30 187 C 19.3162 -1.9396 -0.0965386 0
M  V30 188 O 18.5912 -1.63568 -1.05242 0
M  V30 189 C 18.8742 -2.80847 2.25382 0
M  V30 190 C 18.7272 -2.47076 3.75864 0
M  V30 191 C 20.0462 -3.82741 2.1725 0
M  V30 192 H 17.1652 -0.558303 0.48111 0
M  V30 193 H 19.8072 -0.893397 1.67685 0
M  V30 194 H 17.9572 -3.35931 1.95148 0
M  V30 195 H 19.6292 -1.97957 4.16666 0
M  V30 196 H 17.8722 -1.79863 3.94755 0
M  V30 197 H 18.5432 -3.37798 4.36574 0
M  V30 198 H 21.0192 -3.37133 2.43887 0
M  V30 199 H 19.8952 -4.69303 2.84686 0
M  V30 200 H 20.1562 -4.2652 1.16331 0
M  V30 201 N 19.2153 -1.21501 -1.00376 0
M  V30 202 C 20.4613 -1.03452 -1.74429 0
M  V30 203 C 20.7943 0.430764 -1.89362 0
M  V30 204 O 20.0693 1.31962 -1.42886 0
M  V30 205 C 20.3523 -1.73375 -3.15615 0
M  V30 206 C 20.2053 -3.27431 -3.08397 0
M  V30 207 C 21.5243 -1.47732 -4.14564 0
M  V30 208 H 18.6433 -0.377226 -0.633143 0
M  V30 209 H 21.2853 -1.49693 -1.17013 0
M  V30 210 H 19.4353 -1.34064 -3.64636 0
M  V30 211 H 21.1073 -3.76119 -2.67081 0
M  V30 212 H 19.3503 -3.5767 -2.45468 0
M  V30 213 H 20.0213 -3.71524 -4.08258 0
M  V30 214 H 22.4973 -1.8186 -3.74254 0
M  V30 215 H 21.3733 -1.99169 -5.11491 0
M  V30 216 H 21.6343 -0.407589 -4.40217 0
M  V30 217 N 20.6934 1.19889 -1.02296 0
M  V30 218 C 21.9234 1.93109 -0.734332 0
M  V30 219 C 22.3314 1.75377 0.709889 0
M  V30 220 O 21.6744 1.06912 1.49384 0
M  V30 221 C 21.7364 3.45362 -0.99827 0
M  V30 222 C 21.4004 3.8686 -2.43287 0
M  V30 223 C 22.3974 3.92102 -3.41397 0
M  V30 224 C 20.0824 4.18668 -2.77529 0
M  V30 225 C 22.0764 4.28573 -4.71809 0
M  V30 226 C 19.7634 4.54813 -4.08153 0
M  V30 227 C 20.7614 4.59739 -5.05103 0
M  V30 228 O 20.4494 4.95051 -6.33388 0
M  V30 229 H 20.1814 0.620409 -0.268456 0
M  V30 230 H 22.7354 1.53144 -1.3688 0
M  V30 231 H 20.9654 3.85482 -0.306645 0
M  V30 232 H 22.6544 3.99814 -0.700234 0
M  V30 233 H 23.4204 3.67685 -3.1628 0
M  V30 234 H 19.2994 4.14021 -2.0275 0
M  V30 235 H 22.8434 4.32333 -5.4748 0
M  V30 236 H 18.7404 4.78687 -4.33047 0
M  V30 237 H 19.5084 5.1302 -6.37772 0
M  V30 238 N 22.1715 0.800033 1.35784 0
M  V30 239 C 23.1185 0.203848 2.29898 0
M  V30 240 C 24.0885 -0.658375 1.52495 0
M  V30 241 O 25.2735 -0.604832 1.8096 0
M  V30 242 C 22.4135 -0.64688 3.38983 0
M  V30 243 C 21.5265 0.235054 4.3136 0
M  V30 244 C 20.6615 -0.623054 5.27533 0
M  V30 245 C 19.7005 0.259682 6.11549 0
M  V30 246 N 18.8375 -0.558019 6.99879 0
M  V30 247 H 23.6775 1.01186 2.80295 0
M  V30 248 H 21.2145 0.51053 1.37957 0
M  V30 249 H 23.1725 -1.15521 4.00887 0
M  V30 250 H 21.8025 -1.42021 2.89879 0
M  V30 251 H 20.8545 0.861438 3.70518 0
M  V30 252 H 22.1665 0.914768 4.9034 0
M  V30 253 H 21.3205 -1.19678 5.94779 0
M  V30 254 H 20.0595 -1.33636 4.69034 0
M  V30 255 H 19.0645 0.845726 5.43256 0
M  V30 256 H 20.2895 0.970748 6.72126 0
M  V30 257 H 18.2355 -1.25542 6.43875 0
M  V30 258 H 18.1525 0.0637872 7.55973 0
M  V30 259 H 19.4205 -1.11523 7.71481 0
M  V30 260 N 23.6496 -1.47581 0.552962 0
M  V30 261 C 24.8956 -2.02782 0.0273648 0
M  V30 262 C 25.2286 -1.42687 -1.31734 0
M  V30 263 O 24.5036 -0.580897 -1.85623 0
M  V30 264 C 24.7866 -3.60031 -0.0702371 0
M  V30 265 C 24.6396 -4.30566 1.30126 0
M  V30 266 C 25.9586 -4.33028 -0.785771 0
M  V30 267 H 23.0776 -0.736912 0.0114185 0
M  V30 268 H 25.7196 -1.76056 0.714432 0
M  V30 269 H 23.8696 -3.82932 -0.655382 0
M  V30 270 H 25.5416 -4.19018 1.92929 0
M  V30 271 H 23.7846 -3.91086 1.87709 0
M  V30 272 H 24.4556 -5.39114 1.18573 0
M  V30 273 H 26.9316 -4.15095 -0.288982 0
M  V30 274 H 25.8076 -5.42695 -0.823013 0
M  V30 275 H 26.0686 -4.01945 -1.841 0
M  V30 276 N 25.1277 -0.289203 -1.54924 0
M  V30 277 C 26.0907 0.579144 -2.21762 0
M  V30 278 C 27.0907 1.07047 -1.1999 0
M  V30 279 O 28.2807 0.968384 -1.44803 0
M  V30 280 C 25.4127 1.80055 -2.8947 0
M  V30 281 H 26.6057 -0.00464908 -2.999 0
M  V30 282 H 24.1587 -0.0399306 -1.56249 0
M  V30 283 H 24.8937 2.42449 -2.15381 0
M  V30 284 H 24.6787 1.45602 -3.64064 0
M  V30 285 H 26.1687 2.41773 -3.40493 0
M  V30 286 N 26.6058 1.57591 -0.0167156 0
M  V30 287 C 27.8538 1.90906 0.663285 0
M  V30 288 C 28.1748 0.892509 1.73376 0
M  V30 289 O 27.4448 -0.0677623 1.95783 0
M  V30 290 H 26.0248 0.704637 0.247983 0
M  V30 291 H 28.6868 1.94803 -0.0615909 0
M  V30 292 H 27.7828 2.9116 1.12393 0
M  V30 293 N 28.0839 -0.256276 1.55502 0
M  V30 294 C 29.3089 -1.00766 1.81276 0
M  V30 295 C 29.7339 -1.78524 0.59252 0
M  V30 296 O 29.0919 -1.75413 -0.45827 0
M  V30 297 C 29.1399 -1.92869 3.04687 0
M  V30 298 O 28.2439 -3.019 2.80945 0
M  V30 299 H 27.5849 -0.287224 0.598664 0
M  V30 300 H 30.1149 -0.280109 2.02674 0
M  V30 301 H 30.1249 -2.34511 3.33869 0
M  V30 302 H 28.7999 -1.35689 3.93143 0
M  V30 303 H 27.3769 -2.64454 2.62904 0
M  V30 304 N 29.562 -1.4872 -0.521534 0
M  V30 305 C 30.492 -1.66771 -1.63431 0
M  V30 306 C 31.473 -0.516499 -1.62069 0
M  V30 307 O 32.658 -0.750013 -1.79132 0
M  V30 308 C 29.788 -1.71515 -3.01993 0
M  V30 309 C 28.742 -2.86222 -3.18216 0
M  V30 310 C 28.068 -2.76061 -4.57924 0
M  V30 311 C 29.368 -4.27419 -3.00184 0
M  V30 312 H 31.062 -2.59932 -1.48579 0
M  V30 313 H 28.608 -1.25089 -0.713358 0
M  V30 314 H 30.561 -1.82731 -3.7972 0
M  V30 315 H 29.285 -0.749393 -3.17886 0
M  V30 316 H 27.944 -2.74575 -2.42908 0
M  V30 317 H 27.592 -1.77437 -4.70665 0
M  V30 318 H 27.292 -3.53037 -4.69722 0
M  V30 319 H 28.816 -2.89256 -5.37739 0
M  V30 320 H 30.23 -4.39855 -3.67697 0
M  V30 321 H 28.627 -5.05458 -3.2347 0
M  V30 322 H 29.697 -4.43293 -1.96518 0
M  V30 323 N 31.0401 0.771051 -1.3745 0
M  V30 324 C 32.2861 1.5319 -1.32894 0
M  V30 325 C 32.6191 1.94008 0.0862511 0
M  V30 326 O 31.8941 1.64124 1.04373 0
M  V30 327 C 32.1771 2.79648 -2.26868 0
M  V30 328 C 32.0301 2.45079 -3.77169 0
M  V30 329 C 33.3491 3.81583 -2.19277 0
M  V30 330 H 30.4681 0.555744 -0.484064 0
M  V30 331 H 33.1101 0.884492 -1.68157 0
M  V30 332 H 31.2601 3.34891 -1.96926 0
M  V30 333 H 32.9321 1.95745 -4.1771 0
M  V30 334 H 31.1751 1.77767 -3.95704 0
M  V30 335 H 31.8461 3.35478 -4.38359 0
M  V30 336 H 34.3221 3.35835 -2.45671 0
M  V30 337 H 33.1981 4.67787 -2.87171 0
M  V30 338 H 33.4591 4.25897 -1.18592 0
M  V30 339 N 32.5182 1.22032 0.997298 0
M  V30 340 C 33.7672 1.03637 1.73038 0
M  V30 341 C 34.0802 -0.429475 1.90827 0
M  V30 342 O 35.2862 -0.732995 2.61418 0
M  V30 343 C 33.7422 1.80582 3.11317 0
M  V30 344 C 33.3502 3.31387 3.01474 0
M  V30 345 C 35.0942 1.70621 3.88701 0
M  V30 346 C 33.0012 4.00791 4.3488 0
M  V30 347 H 31.9312 0.384179 0.648785 0
M  V30 348 H 34.5822 1.4584 1.11368 0
M  V30 349 H 32.9642 1.31175 3.73643 0
M  V30 350 H 34.1382 3.88155 2.4834 0
M  V30 351 H 32.4532 3.41976 2.37575 0
M  V30 352 H 35.0502 2.19799 4.87434 0
M  V30 353 H 35.3932 0.665823 4.10941 0
M  V30 354 H 35.9262 2.17547 3.33044 0
M  V30 355 H 32.6652 5.05064 4.1784 0
M  V30 356 H 32.1852 3.48811 4.87945 0
M  V30 357 H 33.8642 4.06139 5.03647 0
M  V30 358 N 33.9963 -1.19345 1.0293 0
M  V30 359 C 34.9593 -2.20793 0.615069 0
M  V30 360 C 35.9593 -1.57553 -0.321533 0
M  V30 361 O 37.1493 -1.73862 -0.108483 0
M  V30 362 C 34.2813 -3.40754 -0.0999222 0
M  V30 363 H 35.4743 -2.58955 1.51269 0
M  V30 364 H 33.0273 -1.3303 0.820534 0
M  V30 365 H 33.7623 -3.0811 -1.01187 0
M  V30 366 H 33.5473 -3.87889 0.57309 0
M  V30 367 H 35.0373 -4.15898 -0.376645 0
M  V30 368 N 35.4744 -0.807222 -1.35358 0
M  V30 369 C 36.3844 -0.219594 -2.3357 0
M  V30 370 C 37.4004 0.637734 -1.61892 0
M  V30 371 O 38.5764 0.549336 -1.93763 0
M  V30 372 C 35.6414 0.62158 -3.41083 0
M  V30 373 C 34.7024 -0.256315 -4.28534 0
M  V30 374 C 33.9354 0.544807 -5.30912 0
M  V30 375 O 34.1584 1.77944 -5.41934 0
M  V30 376 O 33.0924 -0.0646478 -6.01865 0
M  V30 377 H 36.9184 -1.03208 -2.85625 0
M  V30 378 H 34.5034 -0.569025 -1.38139 0
M  V30 379 H 36.3854 1.10067 -4.06772 0
M  V30 380 H 35.0604 1.41165 -2.91297 0
M  V30 381 H 33.9674 -0.782559 -3.65823 0
M  V30 382 H 35.3004 -1.01034 -4.81719 0
M  V30 383 N 36.9525 1.47285 -0.560781 0
M  V30 384 C 37.9005 2.31756 0.197942 0
M  V30 385 C 38.8945 1.43146 0.905854 0
M  V30 386 O 40.1005 1.59891 0.826733 0
M  V30 387 H 36.4755 0.747438 0.0827049 0
M  V30 388 H 38.4465 2.9359 -0.533629 0
M  V30 389 C 37.1955 3.25874 1.21249 0
M  V30 390 H 36.5185 3.94023 0.67719 0
M  V30 391 H 37.9585 3.87803 1.71419 0
M  V30 392 C 36.4175 2.49651 2.26221 0
M  V30 393 O 36.9475 2.24355 3.33208 0
M  V30 394 N 35.1535 2.10597 2.00243 0
M  V30 395 H 34.7005 2.31369 1.13252 0
M  V30 396 H 34.6585 1.59913 2.70694 0
M  V30 397 N 38.4306 0.297415 1.54768 0
M  V30 398 C 39.3636 -0.622188 2.19554 0
M  V30 399 C 40.3416 -1.13558 1.16376 0
M  V30 400 O 41.5256 -1.20444 1.45002 0
M  V30 401 C 38.6526 -1.8509 2.83653 0
M  V30 402 C 37.6986 -1.47106 4.00328 0
M  V30 403 S 38.5316 -0.53006 5.3287 0
M  V30 404 C 39.6876 -1.76665 6.0045 0
M  V30 405 H 39.9206 -0.0717806 2.97213 0
M  V30 406 H 37.4536 0.0815678 1.54184 0
M  V30 407 H 39.4116 -2.55605 3.21211 0
M  V30 408 H 38.0726 -2.37247 2.05846 0
M  V30 409 H 37.2656 -2.38594 4.43947 0
M  V30 410 H 36.8676 -0.845885 3.64309 0
M  V30 411 H 39.1596 -2.7077 6.21039 0
M  V30 412 H 40.1026 -1.37308 6.9466 0
M  V30 413 H 40.5106 -1.94174 5.30054 0
M  V30 414 N 39.9087 -1.5758 0.0250728 0
M  V30 415 C 41.1337 -1.96337 -0.668317 0
M  V30 416 C 41.5587 -0.901314 -1.651 0
M  V30 417 O 40.9167 0.138187 -1.80773 0
M  V30 418 C 40.9647 -3.34191 -1.35457 0
M  V30 419 O 40.0687 -3.30269 -2.46974 0
M  V30 420 H 39.4097 -0.640281 -0.175887 0
M  V30 421 H 41.9397 -2.0442 0.0857224 0
M  V30 422 H 41.9497 -3.70331 -1.71228 0
M  V30 423 H 40.6247 -4.11036 -0.634218 0
M  V30 424 H 39.2017 -3.05841 -2.13344 0
M  V30 425 N 41.3868 0.248026 -1.55636 0
M  V30 426 C 42.6348 0.974295 -1.77065 0
M  V30 427 C 42.9558 1.85897 -0.588849 0
M  V30 428 O 42.2258 1.91868 0.395407 0
M  V30 429 H 40.8058 0.362733 -0.653019 0
M  V30 430 H 43.4678 0.266244 -1.93073 0
M  V30 431 H 42.5638 1.59667 -2.68166 0
M  V30 432 N 42.8649 1.48995 0.513639 0
M  V30 433 C 44.0929 1.61531 1.29288 0
M  V30 434 C 44.5079 0.281801 1.86685 0
M  V30 435 O 43.8649 -0.731111 1.67215 0
M  V30 436 C 43.9159 2.67449 2.43215 0
M  V30 437 O 43.6369 3.95626 1.88179 0
M  V30 438 C 45.1379 2.90575 3.34785 0
M  V30 439 H 42.3579 0.544165 0.392588 0
M  V30 440 H 44.9019 1.9494 0.617956 0
M  V30 441 H 43.0569 2.36853 3.0656 0
M  V30 442 H 43.4709 4.53868 2.62876 0
M  V30 443 H 44.9449 3.68449 4.11035 0
M  V30 444 H 45.4219 2.00011 3.91015 0
M  V30 445 H 46.0279 3.22538 2.77218 0
M  V30 446 N 44.343 -0.763751 1.37857 0
M  V30 447 C 45.759 -1.06542 1.18832 0
M  V30 448 C 45.959 -2.01478 0.0299722 0
M  V30 449 O 45.015 -2.4458 -0.627447 0
M  V30 450 C 46.328 -1.65525 2.51042 0
M  V30 451 C 47.876 -1.77745 2.57635 0
M  V30 452 C 48.351 -2.4014 3.89996 0
M  V30 453 N 49.842 -2.47582 3.91481 0
M  V30 454 C 50.577 -2.96732 4.9065 0
M  V30 455 N 50.073 -3.45993 6.00217 0
M  V30 456 N 51.866 -2.95679 4.78048 0
M  V30 457 H 44.017 -0.133556 2.1198 0
M  V30 458 H 46.28 -0.121879 0.940133 0
M  V30 459 H 45.986 -1.03236 3.36207 0
M  V30 460 H 45.86 -2.64719 2.68707 0
M  V30 461 H 48.247 -2.39164 1.72872 0
M  V30 462 H 48.328 -0.772836 2.43846 0
M  V30 463 H 47.972 -1.79358 4.75177 0
M  V30 464 H 47.902 -3.41223 4.01092 0
M  V30 465 H 50.393 -2.1273 3.12337 0
M  V30 466 H 50.706 -3.81922 6.7183 0
M  V30 467 H 49.051 -3.44077 6.03851 0
M  V30 468 H 52.242 -2.56499 3.91568 0
M  V30 469 H 52.415 -3.33672 5.55488 0
M  V30 470 N 45.8211 -1.22559 -0.990812 0
M  V30 471 C 46.7541 -0.940773 -2.07905 0
M  V30 472 C 47.7321 0.117082 -1.62178 0
M  V30 473 O 48.9161 -0.0149506 -1.88494 0
M  V30 474 C 46.0431 -0.415321 -3.36144 0
M  V30 475 C 45.0891 -1.45818 -4.00799 0
M  V30 476 S 45.9221 -3.03219 -4.41382 0
M  V30 477 C 47.0781 -2.52317 -5.72789 0
M  V30 478 H 47.3111 -1.8623 -2.31745 0
M  V30 479 H 44.8441 -1.05688 -1.12558 0
M  V30 480 H 46.8021 -0.118747 -4.10328 0
M  V30 481 H 45.4631 0.485121 -3.10331 0
M  V30 482 H 44.6561 -1.04044 -4.93144 0
M  V30 483 H 44.2581 -1.70356 -3.32949 0
M  V30 484 H 46.5501 -1.93688 -6.49224 0
M  V30 485 H 47.4931 -3.43161 -6.19392 0
M  V30 486 H 47.9011 -1.93529 -5.30289 0
M  V30 487 N 47.2992 1.18797 -1.03562 0
M  V30 488 C 48.5292 1.92319 -0.754773 0
M  V30 489 C 48.9372 1.7612 0.691248 0
M  V30 490 O 48.2802 1.08491 1.48241 0
M  V30 491 C 48.3422 3.44284 -1.03484 0
M  V30 492 C 48.0062 3.84258 -2.47376 0
M  V30 493 C 49.0032 3.88459 -3.45537 0
M  V30 494 C 46.6882 4.15701 -2.81954 0
M  V30 495 C 48.6822 4.23545 -4.76328 0
M  V30 496 C 46.3692 4.50458 -4.12954 0
M  V30 497 C 47.3672 4.54356 -5.09951 0
M  V30 498 O 47.0552 4.88305 -6.38603 0
M  V30 499 H 46.7872 0.617527 -0.275021 0
M  V30 500 H 49.3412 1.51683 -1.38497 0
M  V30 501 H 47.5712 3.85135 -0.347513 0
M  V30 502 H 49.2602 3.99049 -0.7426 0
M  V30 503 H 50.0262 3.6431 -3.20162 0
M  V30 504 H 45.9052 4.11847 -2.0713 0
M  V30 505 H 49.4492 4.26502 -5.52035 0
M  V30 506 H 45.3462 4.74067 -4.38099 0
M  V30 507 H 46.1142 5.06227 -6.43177 0
M  V30 508 N 48.7773 0.814389 1.34928 0
M  V30 509 C 49.6873 0.231978 2.3345 0
M  V30 510 C 50.7033 -0.629139 1.62228 0
M  V30 511 O 51.8793 -0.539052 1.94052 0
M  V30 512 C 48.9443 -0.603482 3.41407 0
M  V30 513 C 48.0053 0.279037 4.28392 0
M  V30 514 C 47.2383 -0.516643 5.31193 0
M  V30 515 O 47.4613 -1.75068 5.4287 0
M  V30 516 O 46.3953 0.0965652 6.01823 0
M  V30 517 H 50.2213 1.04721 2.85074 0
M  V30 518 H 47.8063 0.576343 1.37836 0
M  V30 519 H 49.6883 -1.07908 4.0735 0
M  V30 520 H 48.3633 -1.39618 2.92042 0
M  V30 521 H 47.2703 0.801948 3.65403 0
M  V30 522 H 48.6033 1.03588 4.81176 0
M  V30 523 N 50.2554 -1.46986 0.568584 0
M  V30 524 C 51.1854 -2.32946 -0.160753 0
M  V30 525 C 52.1664 -1.44487 -0.897631 0
M  V30 526 O 53.3514 -1.73327 -0.875867 0
M  V30 527 C 50.4814 -3.26494 -1.18403 0
M  V30 528 C 49.4354 -4.24282 -0.562895 0
M  V30 529 C 48.7614 -5.07236 -1.69163 0
M  V30 530 C 50.0614 -5.19989 0.490761 0
M  V30 531 H 51.7554 -2.94175 0.556916 0
M  V30 532 H 49.3014 -1.4146 0.26927 0
M  V30 533 H 51.2544 -3.85477 -1.70251 0
M  V30 534 H 49.9784 -2.63343 -1.93179 0
M  V30 535 H 48.6374 -3.66541 -0.0656164 0
M  V30 536 H 48.2854 -4.4048 -2.42871 0
M  V30 537 H 47.9854 -5.7345 -1.28174 0
M  V30 538 H 49.5094 -5.6908 -2.21314 0
M  V30 539 H 50.9234 -5.73271 0.0579047 0
M  V30 540 H 49.3204 -5.94469 0.820165 0
M  V30 541 H 50.3904 -4.64777 1.3824 0
M  V30 542 N 51.7335 -0.305618 -1.54608 0
M  V30 543 C 52.6965 0.555591 -2.22364 0
M  V30 544 C 53.6965 1.05768 -1.21119 0
M  V30 545 O 54.8865 0.952972 -1.45822 0
M  V30 546 C 52.0185 1.76974 -2.91364 0
M  V30 547 H 53.2115 -0.0364572 -2.99878 0
M  V30 548 H 50.7645 -0.0565007 -1.56198 0
M  V30 549 H 51.4995 2.40151 -2.17941 0
M  V30 550 H 51.2845 1.41732 -3.65588 0
M  V30 551 H 52.7745 2.38148 -3.43038 0
M  V30 552 N 53.2116 1.57565 -0.0334293 0
M  V30 553 C 54.1586 2.10478 0.946981 0
M  V30 554 C 55.1286 1.00787 1.32027 0
M  V30 555 O 56.3136 1.28232 1.41284 0
M  V30 556 C 53.4536 2.63994 2.22263 0
M  V30 557 C 52.5666 3.87709 1.90541 0
M  V30 558 C 51.7016 4.29604 3.12433 0
M  V30 559 C 50.7406 5.46065 2.76549 0
M  V30 560 N 49.8776 5.83096 3.9108 0
M  V30 561 H 54.7176 2.93963 0.488846 0
M  V30 562 H 52.2546 1.45296 0.22969 0
M  V30 563 H 54.2126 2.93114 2.96884 0
M  V30 564 H 52.8426 1.83333 2.65685 0
M  V30 565 H 51.8946 3.65291 1.06144 0
M  V30 566 H 53.2066 4.72403 1.60116 0
M  V30 567 H 52.3606 4.60182 3.9537 0
M  V30 568 H 51.0996 3.43685 3.46023 0
M  V30 569 H 50.1046 5.15176 1.92026 0
M  V30 570 H 51.3296 6.33685 2.44171 0
M  V30 571 H 49.2756 5.00132 4.24504 0
M  V30 572 H 49.1926 6.6244 3.64293 0
M  V30 573 H 50.4606 6.18282 4.74708 0
M  V30 574 N 54.6897 -0.239769 1.55765 0
M  V30 575 C 55.9357 -0.968234 1.78194 0
M  V30 576 C 56.2687 -1.84701 0.599938 0
M  V30 577 O 55.5437 -1.9031 -0.401524 0
M  V30 578 C 55.8267 -1.8227 3.10564 0
M  V30 579 C 55.6797 -0.971633 4.3918 0
M  V30 580 C 56.9987 -2.80388 3.39221 0
M  V30 581 H 54.1177 -0.350572 0.648281 0
M  V30 582 H 56.7597 -0.238259 1.885 0
M  V30 583 H 54.9097 -2.44507 3.01908 0
M  V30 584 H 56.5817 -0.367408 4.59835 0
M  V30 585 H 54.8247 -0.276276 4.32919 0
M  V30 586 H 55.4957 -1.60346 5.28198 0
M  V30 587 H 57.9717 -2.28287 3.47885 0
M  V30 588 H 56.8477 -3.3729 4.33044 0
M  V30 589 H 57.1087 -3.57212 2.60484 0
M  V30 590 N 56.1678 -1.49265 -0.50573 0
M  V30 591 C 57.4158 -1.582 -1.25766 0
M  V30 592 C 57.7368 -0.268482 -1.93143 0
M  V30 593 O 57.0068 0.711833 -1.8251 0
M  V30 594 H 55.5868 -0.582873 -0.467191 0
M  V30 595 H 58.2488 -1.85865 -0.586525 0
M  V30 596 H 57.3448 -2.37563 -2.02412 0
M  V30 597 N 57.6459 0.756429 -1.3826 0
M  V30 598 C 58.8919 1.5168 -1.35517 0
M  V30 599 C 59.2469 1.9232 0.0554451 0
M  V30 600 O 58.5399 1.62352 1.01746 0
M  V30 601 C 58.7339 2.78313 -2.24224 0
M  V30 602 C 58.5629 2.50053 -3.7377 0
M  V30 603 C 57.3329 2.43414 -4.42807 0
M  V30 604 C 59.5309 2.1702 -4.66269 0
M  V30 605 N 57.5129 2.07398 -5.77805 0
M  V30 606 C 58.8839 1.91271 -5.89759 0
M  V30 607 C 60.9389 2.03305 -4.54501 0
M  V30 608 C 59.6419 1.53192 -7.02798 0
M  V30 609 C 61.6679 1.66627 -5.67441 0
M  V30 610 C 61.0299 1.4175 -6.8999 0
M  V30 611 H 57.1289 0.554735 -0.551174 0
M  V30 612 H 59.7129 0.881106 -1.73622 0
M  V30 613 H 57.8839 3.39696 -1.88311 0
M  V30 614 H 59.6159 3.44343 -2.12627 0
M  V30 615 H 56.3709 2.59789 -3.95988 0
M  V30 616 H 56.7949 1.92044 -6.4919 0
M  V30 617 H 61.4369 2.21215 -3.60311 0
M  V30 618 H 59.1549 1.34022 -7.96909 0
M  V30 619 H 62.7409 1.56652 -5.60314 0
M  V30 620 H 61.6209 1.1379 -7.759 0
M  V30 621 N 59.124 1.23083 0.984299 0
M  V30 622 C 60.072 1.00593 2.09723 0
M  V30 623 C 61.066 -0.0538014 1.69315 0
M  V30 624 O 62.272 0.0993719 1.79725 0
M  V30 625 H 58.647 0.30817 0.685956 0
M  V30 626 H 60.618 1.95012 2.2586 0
M  V30 627 C 59.367 0.609601 3.42314 0
M  V30 628 H 58.69 1.41675 3.73856 0
M  V30 629 H 60.13 0.491726 4.21139 0
M  V30 630 C 58.589 -0.681745 3.2993 0
M  V30 631 O 59.119 -1.73192 3.62446 0
M  V30 632 N 57.325 -0.656178 2.83095 0
M  V30 633 H 56.872 0.198759 2.56832 0
M  V30 634 H 56.83 -1.52044 2.75191 0
M  V30 635 N 60.6021 -1.18246 1.0419 0
M  V30 636 C 61.5491 -2.2192 0.634037 0
M  V30 637 C 62.5191 -1.62179 -0.358765 0
M  V30 638 O 63.7041 -1.89122 -0.252466 0
M  V30 639 C 60.8441 -3.451 0.00445535 0
M  V30 640 C 59.9571 -4.19174 1.04487 0
M  V30 641 C 59.0921 -5.29813 0.383676 0
M  V30 642 C 58.1311 -5.9566 1.4091 0
M  V30 643 N 57.2681 -6.97834 0.772784 0
M  V30 644 H 62.1081 -2.56164 1.52263 0
M  V30 645 H 59.6451 -1.25843 0.761701 0
M  V30 646 H 61.6031 -4.15485 -0.377919 0
M  V30 647 H 60.2331 -3.11472 -0.847652 0
M  V30 648 H 59.2851 -3.47604 1.54518 0
M  V30 649 H 60.5971 -4.64267 1.82368 0
M  V30 650 H 59.7511 -6.06677 -0.0528366 0
M  V30 651 H 58.4901 -4.85825 -0.427208 0
M  V30 652 H 57.4951 -5.17535 1.85574 0
M  V30 653 H 58.7201 -6.4173 2.22171 0
M  V30 654 H 56.6661 -6.55998 -0.0177708 0
M  V30 655 H 56.5831 -7.41186 1.48928 0
M  V30 656 H 57.8511 -7.78665 0.36071 0
M  V30 657 N 62.0802 -0.821533 -1.34494 0
M  V30 658 C 63.0102 -0.257138 -2.3208 0
M  V30 659 C 63.9912 0.625645 -1.58176 0
M  V30 660 O 65.1762 0.552811 -1.86166 0
M  V30 661 C 62.3062 0.582958 -3.42372 0
M  V30 662 C 61.2602 -0.202571 -4.2752 0
M  V30 663 C 60.5862 0.760179 -5.29269 0
M  V30 664 C 61.8862 -1.40998 -5.02908 0
M  V30 665 H 63.5802 -1.07247 -2.79532 0
M  V30 666 H 61.1262 -0.517163 -1.34393 0
M  V30 667 H 63.0792 0.987972 -4.09655 0
M  V30 668 H 61.8032 1.43133 -2.93565 0
M  V30 669 H 60.4622 -0.588936 -3.61838 0
M  V30 670 H 60.1102 1.60447 -4.76724 0
M  V30 671 H 59.8102 0.238809 -5.87115 0
M  V30 672 H 61.3342 1.16308 -5.9942 0
M  V30 673 H 62.7482 -1.07905 -5.63054 0
M  V30 674 H 61.1452 -1.86689 -5.70322 0
M  V30 675 H 62.2152 -2.1889 -4.32684 0
M  V30 676 N 63.5583 1.46682 -0.576371 0
M  V30 677 C 64.8043 2.02712 -0.0596221 0
M  V30 678 C 65.1373 1.44765 1.29448 0
M  V30 679 O 64.4123 0.610355 1.84675 0
M  V30 680 C 64.6953 3.60098 0.0129503 0
M  V30 681 C 64.5483 4.28441 -1.3696 0
M  V30 682 C 65.8673 4.34224 0.71678 0
M  V30 683 H 62.9863 0.736637 -0.0231407 0
M  V30 684 H 65.6283 1.74898 -0.742351 0
M  V30 685 H 63.7783 3.83926 0.594378 0
M  V30 686 H 65.4503 4.15896 -1.9957 0
M  V30 687 H 63.6933 3.8805 -1.93907 0
M  V30 688 H 64.3643 5.3716 -1.27135 0
M  V30 689 H 66.8403 4.15503 0.222908 0
M  V30 690 H 65.7163 5.43936 0.73657 0
M  V30 691 H 65.9773 4.04823 1.77682 0
M  V30 692 N 65.0364 0.313813 1.54444 0
M  V30 693 C 66.2844 -0.291099 1.99993 0
M  V30 694 C 66.6054 -1.53418 1.20366 0
M  V30 695 O 65.8754 -1.93544 0.302927 0
M  V30 696 H 64.4554 -0.110552 0.738774 0
M  V30 697 H 67.1174 0.428106 1.9014 0
M  V30 698 H 66.2134 -0.554268 3.07139 0
M  V30 699 N 66.5145 -1.57545 0.0417849 0
M  V30 700 C 67.4245 -2.14451 -0.951213 0
M  V30 701 C 68.4405 -1.09992 -1.34825 0
M  V30 702 O 69.6165 -1.42114 -1.42708 0
M  V30 703 C 66.6815 -2.67063 -2.21084 0
M  V30 704 C 65.7425 -3.86284 -1.87304 0
M  V30 705 C 64.9755 -4.36378 -3.07261 0
M  V30 706 O 65.1985 -3.85587 -4.20332 0
M  V30 707 O 64.1325 -5.28077 -2.88822 0
M  V30 708 H 67.9585 -2.99601 -0.497287 0
M  V30 709 H 65.5435 -1.48317 -0.179567 0
M  V30 710 H 67.4255 -3.00914 -2.95006 0
M  V30 711 H 66.1005 -1.84989 -2.65633 0
M  V30 712 H 65.0075 -3.57338 -1.10727 0
M  V30 713 H 66.3405 -4.6956 -1.47562 0
M  V30 714 N 67.9926 0.231505 -1.5589 0
M  V30 715 C 69.2416 0.955346 -1.7764 0
M  V30 716 C 69.5546 1.85893 -0.608546 0
M  V30 717 O 70.7606 2.62067 -0.70943 0
M  V30 718 C 69.2166 1.74886 -3.14552 0
M  V30 719 C 68.8246 0.891915 -4.39032 0
M  V30 720 C 70.5686 2.46452 -3.45633 0
M  V30 721 C 68.4756 1.68221 -5.66971 0
M  V30 722 H 67.4056 0.360446 -0.662265 0
M  V30 723 H 70.0566 0.209516 -1.823 0
M  V30 724 H 68.4386 2.53723 -3.04041 0
M  V30 725 H 69.6126 0.144793 -4.60572 0
M  V30 726 H 67.9276 0.288863 -4.15397 0
M  V30 727 H 70.5246 3.06061 -4.38441 0
M  V30 728 H 70.8676 3.18841 -2.67668 0
M  V30 729 H 71.4006 1.74613 -3.57428 0
M  V30 730 H 68.1396 1.00178 -6.478 0
M  V30 731 H 67.6596 2.4042 -5.49507 0
M  V30 732 H 69.3386 2.24544 -6.06786 0
M  V30 733 N 69.4707 1.49531 0.497807 0
M  V30 734 C 70.7197 1.58426 1.24837 0
M  V30 735 C 71.0327 0.277643 1.93619 0
M  V30 736 O 72.2387 0.24517 2.70391 0
M  V30 737 C 70.6947 2.79538 2.26686 0
M  V30 738 C 70.3027 4.16971 1.63828 0
M  V30 739 C 72.0467 2.97764 3.0255 0
M  V30 740 C 69.9537 5.29301 2.63807 0
M  V30 741 H 68.8837 0.58989 0.469623 0
M  V30 742 H 71.5347 1.75923 0.521857 0
M  V30 743 H 69.9167 2.55542 3.02514 0
M  V30 744 H 71.0907 4.51116 0.939711 0
M  V30 745 H 69.4057 4.04129 1.00342 0
M  V30 746 H 72.0027 3.78856 3.77323 0
M  V30 747 H 72.3457 2.08448 3.60354 0
M  V30 748 H 72.8787 3.21815 2.33838 0
M  V30 749 H 69.6177 6.20687 2.10779 0
M  V30 750 H 69.1377 4.99606 3.31894 0
M  V30 751 H 70.8167 5.58768 3.2617 0
M  V30 752 N 70.9488 -0.749086 1.3866 0
M  V30 753 C 72.3648 -1.05276 1.19955 0
M  V30 754 C 72.5648 -2.01435 0.05134 0
M  V30 755 O 71.6208 -2.45232 -0.60147 0
M  V30 756 C 72.9338 -1.62853 2.52783 0
M  V30 757 C 74.4818 -1.75002 2.59506 0
M  V30 758 C 74.9568 -2.35991 3.92521 0
M  V30 759 N 76.4478 -2.43416 3.94085 0
M  V30 760 C 77.1828 -2.91511 4.9377 0
M  V30 761 N 76.6788 -3.39608 6.03853 0
M  V30 762 N 78.4718 -2.90592 4.81157 0
M  V30 763 H 70.6228 -0.111066 2.12109 0
M  V30 764 H 72.8858 -0.111901 0.941373 0
M  V30 765 H 72.5918 -0.99664 3.37283 0
M  V30 766 H 72.4658 -2.61854 2.715 0
M  V30 767 H 74.8528 -2.37317 1.75398 0
M  V30 768 H 74.9338 -0.74693 2.44652 0
M  V30 769 H 74.5778 -1.74308 4.77053 0
M  V30 770 H 74.5078 -3.3695 4.04688 0
M  V30 771 H 76.9988 -2.09405 3.14576 0
M  V30 772 H 77.3118 -3.74775 6.75843 0
M  V30 773 H 75.6568 -3.37653 6.07466 0
M  V30 774 H 78.8478 -2.52332 3.94267 0
M  V30 775 H 79.0208 -3.27762 5.58996 0
M  V30 776 N 72.4269 -1.23603 -0.977757 0
M  V30 777 C 73.3569 -1.04401 -2.0886 0
M  V30 778 C 74.3379 0.0399052 -1.70053 0
M  V30 779 O 75.5229 -0.125246 -1.93796 0
M  V30 780 C 72.6529 -0.637269 -3.41403 0
M  V30 781 C 71.6069 -1.66883 -3.94124 0
M  V30 782 C 70.9329 -1.11745 -5.22893 0
M  V30 783 C 72.2329 -3.06247 -4.23096 0
M  V30 784 H 73.9269 -1.97316 -2.25182 0
M  V30 785 H 71.4729 -0.950096 -1.08209 0
M  V30 786 H 73.4259 -0.48998 -4.18542 0
M  V30 787 H 72.1499 0.327557 -3.24953 0
M  V30 788 H 70.8089 -1.80416 -3.19133 0
M  V30 789 H 70.4569 -0.143527 -5.02795 0
M  V30 790 H 70.1569 -1.80672 -5.59134 0
M  V30 791 H 71.6809 -0.982067 -6.02651 0
M  V30 792 H 73.0949 -2.96001 -4.90975 0
M  V30 793 H 71.4919 -3.72436 -4.70544 0
M  V30 794 H 72.5619 -3.55041 -3.30263 0
M  V30 795 N 73.905 1.17692 -1.04816 0
M  V30 796 C 74.815 2.25229 -0.65643 0
M  V30 797 C 75.831 1.71018 0.320761 0
M  V30 798 O 77.007 2.00649 0.173805 0
M  V30 799 C 74.072 3.46684 -0.0332629 0
M  V30 800 C 73.133 4.15997 -1.06042 0
M  V30 801 C 72.366 5.31654 -0.466893 0
M  V30 802 O 72.589 5.65777 0.724758 0
M  V30 803 O 71.523 5.89831 -1.1993 0
M  V30 804 H 75.349 2.61016 -1.55255 0
M  V30 805 H 72.934 1.24919 -0.81949 0
M  V30 806 H 74.816 4.20234 0.313256 0
M  V30 807 H 73.491 3.12703 0.836566 0
M  V30 808 H 72.398 3.44482 -1.45886 0
M  V30 809 H 73.731 4.53996 -1.90127 0
M  V30 810 N 75.3831 0.828654 1.34056 0
M  V30 811 C 76.6311 0.41863 1.97717 0
M  V30 812 C 76.9521 -1.02314 1.66002 0
M  V30 813 O 76.2221 -1.71119 0.953683 0
M  V30 814 H 74.8021 0.151809 0.731412 0
M  V30 815 H 77.4641 1.05936 1.63596 0
M  V30 816 H 76.5601 0.542318 3.07352 0
M  V30 817 N 76.8612 -1.46375 0.584142 0
M  V30 818 C 77.8092 -2.32042 -0.161047 0
M  V30 819 C 78.8032 -1.44569 -0.882966 0
M  V30 820 O 80.0092 -1.61186 -0.801191 0
M  V30 821 H 76.3842 -0.748659 -0.0708033 0
M  V30 822 H 78.3552 -2.92704 0.580269 0
M  V30 823 C 77.1042 -3.27762 -1.1605 0
M  V30 824 H 76.4272 -3.95051 -0.614419 0
M  V30 825 H 77.8672 -3.90481 -1.65228 0
M  V30 826 C 76.3262 -2.53218 -2.22221 0
M  V30 827 O 76.8562 -2.29628 -3.29597 0
M  V30 828 N 75.0622 -2.13756 -1.96868 0
M  V30 829 H 74.6092 -2.33142 -1.09557 0
M  V30 830 H 74.5672 -1.642 -2.68115 0
M  V30 831 N 78.3393 -0.321999 -1.54275 0
M  V30 832 C 79.5693 0.282642 -2.04658 0
M  V30 833 C 79.9773 1.46453 -1.19784 0
M  V30 834 O 79.3203 1.82367 -0.220932 0
M  V30 835 C 79.3823 0.781857 -3.50895 0
M  V30 836 C 79.0463 -0.277517 -4.56157 0
M  V30 837 C 80.0433 -1.11307 -5.07845 0
M  V30 838 C 77.7283 -0.425256 -5.00497 0
M  V30 839 C 79.7223 -2.08211 -6.02434 0
M  V30 840 C 77.4093 -1.39771 -5.94901 0
M  V30 841 C 78.4073 -2.2246 -6.45756 0
M  V30 842 O 78.0953 -3.18054 -7.38307 0
M  V30 843 H 77.8273 0.0622636 -0.673126 0
M  V30 844 H 80.3813 -0.465792 -2.00049 0
M  V30 845 H 78.6113 1.58118 -3.52896 0
M  V30 846 H 80.3003 1.30467 -3.84361 0
M  V30 847 H 81.0663 -1.00991 -4.74369 0
M  V30 848 H 76.9453 0.20847 -4.60528 0
M  V30 849 H 80.4893 -2.72791 -6.42052 0
M  V30 850 H 76.3863 -1.50152 -6.27794 0
M  V30 851 H 77.1543 -3.13275 -7.56175 0
M  V30 852 N 79.8174 1.5752 -0.0501392 0
M  V30 853 C 80.7804 2.1037 0.909786 0
M  V30 854 C 81.7804 1.02308 1.24056 0
M  V30 855 O 82.9704 1.28385 1.17741 0
M  V30 856 C 80.1024 2.58708 2.21998 0
M  V30 857 H 81.2954 2.96479 0.451665 0
M  V30 858 H 78.8484 1.55038 0.198248 0
M  V30 859 H 79.5834 1.75989 2.72394 0
M  V30 860 H 79.3684 3.37675 1.99295 0
M  V30 861 H 80.8584 2.99747 2.9076 0
M  V30 862 N 81.2955 -0.223234 1.56011 0
M  V30 863 C 82.5255 -0.963413 1.82762 0
M  V30 864 C 82.9335 -1.78516 0.626804 0
M  V30 865 O 82.2765 -1.78974 -0.414014 0
M  V30 866 C 82.3385 -1.93126 3.0322 0
M  V30 867 C 82.0025 -1.2942 4.38291 0
M  V30 868 C 82.9995 -0.684916 5.15369 0
M  V30 869 C 80.6845 -1.30647 4.85012 0
M  V30 870 C 82.6785 -0.0963971 6.37327 0
M  V30 871 C 80.3655 -0.71411 6.06913 0
M  V30 872 C 81.3635 -0.110123 6.82911 0
M  V30 873 O 81.0515 0.47303 8.02507 0
M  V30 874 H 80.7835 -0.288011 0.611576 0
M  V30 875 H 83.3375 -0.244103 2.03944 0
M  V30 876 H 81.5675 -2.68952 2.77852 0
M  V30 877 H 83.2565 -2.53685 3.16857 0
M  V30 878 H 84.0225 -0.667774 4.80381 0
M  V30 879 H 79.9015 -1.76598 4.25833 0
M  V30 880 H 83.4455 0.375657 6.96588 0
M  V30 881 H 79.3425 -0.728659 6.41374 0
M  V30 882 H 80.1105 0.367186 8.17676 0
M  V30 883 N 82.7736 -1.49793 -0.48987 0
M  V30 884 C 84.0226 -1.59085 -1.23995 0
M  V30 885 C 84.3356 -0.287907 -1.9347 0
M  V30 886 O 85.5416 -0.259506 -2.70257 0
M  V30 887 C 83.9976 -2.80736 -2.252 0
M  V30 888 C 83.6056 -4.17833 -1.61614 0
M  V30 889 C 85.3496 -2.99364 -3.00967 0
M  V30 890 C 83.2566 -5.30693 -2.60996 0
M  V30 891 H 82.1866 -0.592372 -0.466488 0
M  V30 892 H 84.8376 -1.76197 -0.51252 0
M  V30 893 H 83.2196 -2.57142 -3.01154 0
M  V30 894 H 84.3936 -4.51608 -0.915774 0
M  V30 895 H 82.7086 -4.04656 -0.981977 0
M  V30 896 H 85.3056 -3.80851 -3.75308 0
M  V30 897 H 85.6486 -2.10356 -3.59244 0
M  V30 898 H 86.1816 -3.2305 -2.32128 0
M  V30 899 H 82.9206 -6.21796 -2.07485 0
M  V30 900 H 82.4406 -5.01359 -3.2924 0
M  V30 901 H 84.1196 -5.6049 -3.23202 0
M  V30 902 N 84.2517 0.741722 -1.39055 0
M  V30 903 C 85.1837 1.8657 -1.33133 0
M  V30 904 C 86.1967 1.61001 -0.241329 0
M  V30 905 O 87.3857 1.7136 -0.499784 0
M  V30 906 C 84.4857 3.22457 -1.04283 0
M  V30 907 C 83.6587 3.75435 -2.24427 0
M  V30 908 C 82.7177 4.89867 -1.92138 0
M  V30 909 O 81.7437 5.03879 -2.64754 0
M  V30 910 N 82.9457 5.73738 -0.88347 0
M  V30 911 H 85.7107 1.92156 -2.29991 0
M  V30 912 H 83.2717 0.922172 -1.3307 0
M  V30 913 H 85.2637 3.9657 -0.807128 0
M  V30 914 H 83.8337 3.12181 -0.161807 0
M  V30 915 H 83.0537 2.92751 -2.6399 0
M  V30 916 H 84.3417 4.07563 -3.04581 0
M  V30 917 H 83.7397 5.64999 -0.281517 0
M  V30 918 H 82.2967 6.47947 -0.707662 0
M  V30 919 N 85.7298 1.2412 0.971189 0
M  V30 920 C 86.9758 1.08041 1.71625 0
M  V30 921 C 87.3088 -0.380407 1.90438 0
M  V30 922 O 86.5838 -1.28127 1.46334 0
M  V30 923 C 86.8668 1.81682 3.10908 0
M  V30 924 C 86.7198 3.35493 2.99608 0
M  V30 925 C 88.0388 1.58671 4.10501 0
M  V30 926 H 85.1578 0.39388 0.622919 0
M  V30 927 H 87.7998 1.52743 1.13003 0
M  V30 928 H 85.9498 1.43684 3.60953 0
M  V30 929 H 87.6218 3.83068 2.57015 0
M  V30 930 H 85.8648 3.64052 2.35899 0
M  V30 931 H 86.5358 3.82217 3.98264 0
M  V30 932 H 89.0118 1.91719 3.69301 0
M  V30 933 H 87.8878 2.1266 5.06031 0
M  V30 934 H 88.1488 0.524161 4.38982 0
M  V30 935 N 87.2079 -1.17134 1.05439 0
M  V30 936 C 88.4379 -1.91094 0.785274 0
M  V30 937 C 88.8459 -1.77198 -0.663142 0
M  V30 938 O 88.1889 -1.10835 -1.46497 0
M  V30 939 C 88.2509 -3.42594 1.08949 0
M  V30 940 C 87.9149 -3.80274 2.53458 0
M  V30 941 C 88.9119 -3.82912 3.51673 0
M  V30 942 C 86.5969 -4.11162 2.88532 0
M  V30 943 C 88.5909 -4.15913 4.83006 0
M  V30 944 C 86.2779 -4.43831 4.20068 0
M  V30 945 C 87.2759 -4.46185 5.17115 0
M  V30 946 O 86.9639 -4.78083 6.46291 0
M  V30 947 H 86.6959 -0.613073 0.284811 0
M  V30 948 H 89.2499 -1.49461 1.40893 0
M  V30 949 H 87.4799 -3.84534 0.408741 0
M  V30 950 H 89.1689 -3.97817 0.805991 0
M  V30 951 H 89.9349 -3.5917 3.25917 0
M  V30 952 H 85.8139 -4.085 2.13656 0
M  V30 953 H 89.3579 -4.17665 5.5875 0
M  V30 954 H 85.2549 -4.67037 4.45586 0
M  V30 955 H 86.0229 -4.9593 6.51149 0
M  V30 956 N 88.686 -0.835752 -1.33615 0
M  V30 957 C 89.596 -0.269088 -2.33052 0
M  V30 958 C 90.612 0.603251 -1.63208 0
M  V30 959 O 91.788 0.508112 -1.94885 0
M  V30 960 C 88.853 0.549091 -3.42324 0
M  V30 961 C 87.914 -0.347156 -4.27894 0
M  V30 962 C 87.147 0.43207 -5.31948 0
M  V30 963 O 87.37 1.66409 -5.45586 0
M  V30 964 O 86.304 -0.192298 -6.01593 0
M  V30 965 H 90.13 -1.09243 -2.83372 0
M  V30 966 H 87.715 -0.598198 -1.36901 0
M  V30 967 H 89.597 1.01414 -4.09015 0
M  V30 968 H 88.272 1.34955 -2.94226 0
M  V30 969 H 87.179 -0.859979 -3.64081 0
M  V30 970 H 88.512 -1.1123 -4.79467 0
M  V30 971 N 90.1641 1.46063 -0.591896 0
M  V30 972 C 91.4411 1.95595 -0.0137119 0
M  V30 973 C 91.8211 1.5345 1.4497 0
M  V30 974 O 91.1691 0.789543 2.14426 0
M  V30 975 C 91.3791 3.48453 -0.195373 0
M  V30 976 C 92.7271 4.24546 -0.0679765 0
M  V30 977 O 93.7511 3.55982 -0.124681 0
M  V30 978 O 92.6101 5.46467 0.0600579 0
M  V30 979 H 89.7041 0.825795 0.0446279 0
M  V30 980 H 92.2501 1.56303 -0.660859 0
M  V30 981 H 91.0221 3.72045 -1.21235 0
M  V30 982 H 90.6451 3.94597 0.487775 0
M  V30 983 N 91.6422 0.330177 1.54103 0
M  V30 984 C 92.8702 -0.272179 2.05102 0
M  V30 985 C 93.2852 -1.45267 1.20595 0
M  V30 986 O 92.6422 -1.8094 0.238144 0
M  V30 987 C 92.6932 -0.70023 3.54653 0
M  V30 988 O 92.4142 0.433301 4.35952 0
M  V30 989 C 93.9152 -1.3647 4.21771 0
M  V30 990 H 91.1352 -0.0549159 0.668749 0
M  V30 991 H 93.6792 0.478285 1.98828 0
M  V30 992 H 91.8342 -1.40066 3.61193 0
M  V30 993 H 92.2482 0.0947539 5.24414 0
M  V30 994 H 93.7222 -1.61509 5.27843 0
M  V30 995 H 94.1992 -2.31409 3.73292 0
M  V30 996 H 94.8052 -0.706675 4.19388 0
M  V30 997 N 93.1203 -1.57491 0.0584922 0
M  V30 998 C 94.3453 -1.97711 -0.62652 0
M  V30 999 C 94.7703 -0.936132 -1.63151 0
M  V30 1000 O 94.1283 0.099811 -1.81025 0
M  V30 1001 C 94.1763 -3.36989 -1.28338 0
M  V30 1002 O 93.2803 -3.35433 -2.39913 0
M  V30 1003 H 92.6213 -0.643868 -0.162266 0
M  V30 1004 H 95.1513 -2.04193 0.129064 0
M  V30 1005 H 95.1613 -3.73879 -1.63335 0
M  V30 1006 H 93.8363 -4.12289 -0.546889 0
M  V30 1007 H 92.4133 -3.10298 -2.06809 0
M  V30 1008 N 94.5984 0.214957 -1.56127 0
M  V30 1009 C 95.8464 0.936518 -1.79091 0
M  V30 1010 C 96.1674 1.84606 -0.628148 0
M  V30 1011 O 95.4374 1.92664 0.35462 0
M  V30 1012 H 94.0174 0.3488 -0.660566 0
M  V30 1013 H 96.6794 0.22523 -1.93594 0
M  V30 1014 H 95.7754 1.53943 -2.71492 0
M  V30 1015 N 96.0765 1.50051 0.48192 0
M  V30 1016 C 97.0065 1.71046 1.58951 0
M  V30 1017 C 97.9875 0.559288 1.60642 0
M  V30 1018 O 99.1725 0.797243 1.77081 0
M  V30 1019 C 96.3025 1.79462 2.97339 0
M  V30 1020 C 95.2565 2.94558 3.10515 0
M  V30 1021 C 94.5825 2.88105 4.50444 0
M  V30 1022 C 95.8825 4.35227 2.88747 0
M  V30 1023 H 97.5765 2.6378 1.41635 0
M  V30 1024 H 95.1225 1.26936 0.679942 0
M  V30 1025 H 97.0755 1.92734 3.74742 0
M  V30 1026 H 95.7995 0.833412 3.15788 0
M  V30 1027 H 94.4585 2.80918 2.35543 0
M  V30 1028 H 94.1065 1.89853 4.65795 0
M  V30 1029 H 93.8065 3.65366 4.60197 0
M  V30 1030 H 95.3305 3.03412 5.29881 0
M  V30 1031 H 96.7445 4.49449 3.55905 0
M  V30 1032 H 95.1415 5.13856 3.09955 0
M  V30 1033 H 96.2115 4.48347 1.84696 0
M  V30 1034 N 97.5546 -0.734337 1.39446 0
M  V30 1035 C 98.7796 -1.52866 1.40167 0
M  V30 1036 C 99.2046 -1.881 -0.00171513 0
M  V30 1037 O 98.5626 -1.51957 -0.988879 0
M  V30 1038 C 98.6106 -2.79235 2.28167 0
M  V30 1039 O 97.7146 -3.75185 1.71201 0
M  V30 1040 H 97.0556 -0.461618 0.477289 0
M  V30 1041 H 99.5856 -0.905949 1.8345 0
M  V30 1042 H 99.5956 -3.27963 2.42702 0
M  V30 1043 H 98.2706 -2.52923 3.30156 0
M  V30 1044 H 96.8476 -3.33958 1.65912 0
M  V30 1045 N 99.0327 -1.24633 -0.964593 0
M  V30 1046 C 100.279 -1.08949 -1.71049 0
M  V30 1047 C 100.612 0.370302 -1.90637 0
M  V30 1048 O 99.8867 1.27349 -1.47011 0
M  V30 1049 C 100.17 -1.83329 -3.0994 0
M  V30 1050 C 100.023 -3.37077 -2.97824 0
M  V30 1051 C 101.342 -1.60846 -4.09654 0
M  V30 1052 H 98.4607 -0.397178 -0.620821 0
M  V30 1053 H 101.103 -1.5334 -1.12191 0
M  V30 1054 H 99.2527 -1.45597 -3.60186 0
M  V30 1055 H 100.925 -3.84425 -2.5498 0
M  V30 1056 H 99.1677 -3.65298 -2.33965 0
M  V30 1057 H 99.8387 -3.84324 -3.96231 0
M  V30 1058 H 102.315 -1.93674 -3.68279 0
M  V30 1059 H 101.191 -2.1534 -5.04896 0
M  V30 1060 H 101.452 -0.547434 -4.38698 0
M  V30 1061 N 100.511 1.16574 -1.06058 0
M  V30 1062 C 101.759 1.86677 -0.77434 0
M  V30 1063 C 102.08 1.81959 0.701147 0
M  V30 1064 O 101.35 1.2515 1.50713 0
M  V30 1065 H 99.9298 0.691134 -0.283449 0
M  V30 1066 H 102.592 1.41378 -1.34158 0
M  V30 1067 H 101.688 2.92181 -1.09711 0
M  V30 1068 N 101.989 0.842826 1.3317 0
M  V30 1069 C 103.266 0.362216 1.92217 0
M  V30 1070 C 103.646 -1.15289 1.76838 0
M  V30 1071 O 102.994 -1.96914 1.15919 0
M  V30 1072 C 103.204 0.813495 3.39387 0
M  V30 1073 C 104.552 0.823804 4.16532 0
M  V30 1074 O 105.576 0.757358 3.48055 0
M  V30 1075 O 104.435 0.915193 5.38782 0
M  V30 1076 H 101.529 0.103317 0.820521 0
M  V30 1077 H 104.075 0.928942 1.42017 0
M  V30 1078 H 102.847 1.85624 3.4447 0
M  V30 1079 H 102.47 0.223561 3.96971 0
M  V30 1080 N 103.467 -1.45747 0.599634 0
M  V30 1081 C 104.878 -1.85853 0.177681 0
M  V30 1082 C 105.229 -1.50102 -1.26348 0
M  V30 1083 O 104.354 -0.923905 -1.95686 0
M  V30 1084 C 104.949 -3.37326 0.315688 0
M  V30 1085 C 103.508 -3.76365 -0.0515144 0
M  V30 1086 C 102.655 -2.69722 0.643822 0
M  V30 1087 H 105.606 -1.36661 0.806814 0
M  V30 1088 H 105.627 -3.77778 -0.454321 0
M  V30 1089 H 105.139 -3.63315 1.36468 0
M  V30 1090 H 103.24 -3.55993 -1.09999 0
M  V30 1091 H 103.353 -4.77916 0.336594 0
M  V30 1092 H 101.717 -2.54567 0.0822881 0
M  V30 1093 H 102.5 -2.98549 1.6948 0
M  V30 1094 N 104.945 -0.338344 -1.53925 0
M  V30 1095 C 106.191 0.260143 -2.01125 0
M  V30 1096 C 106.524 1.50617 -1.22589 0
M  V30 1097 O 105.799 1.91979 -0.312113 0
M  V30 1098 C 106.082 0.579499 -3.55407 0
M  V30 1099 C 105.935 -0.678264 -4.44657 0
M  V30 1100 C 107.254 1.39122 -4.17532 0
M  V30 1101 H 104.373 0.0930772 -0.731099 0
M  V30 1102 H 107.015 -0.457852 -1.84401 0
M  V30 1103 H 105.165 1.19118 -3.69788 0
M  V30 1104 H 106.837 -1.31631 -4.42121 0
M  V30 1105 H 105.08 -1.3042 -4.13731 0
M  V30 1106 H 105.751 -0.410143 -5.50474 0
M  V30 1107 H 108.227 0.874035 -4.06817 0
M  V30 1108 H 107.103 1.58342 -5.25565 0
M  V30 1109 H 107.364 2.39178 -3.71815 0
M  V30 1110 N 106.423 1.57458 -0.0668435 0
M  V30 1111 C 107.672 1.92477 0.602947 0
M  V30 1112 C 107.985 0.948419 1.71068 0
M  V30 1113 O 109.191 1.19124 2.43971 0
M  V30 1114 C 107.647 3.41903 1.12383 0
M  V30 1115 C 107.255 4.47975 0.04737 0
M  V30 1116 C 108.999 3.85931 1.76797 0
M  V30 1117 C 106.906 5.88529 0.582022 0
M  V30 1118 H 105.836 0.718387 0.22899 0
M  V30 1119 H 108.487 1.82978 -0.138276 0
M  V30 1120 H 106.869 3.46459 1.91787 0
M  V30 1121 H 108.043 4.55029 -0.726978 0
M  V30 1122 H 106.358 4.13384 -0.500243 0
M  V30 1123 H 108.955 4.88322 2.17821 0
M  V30 1124 H 109.298 3.23029 2.62599 0
M  V30 1125 H 109.831 3.83958 1.04024 0
M  V30 1126 H 106.57 6.55065 -0.238721 0
M  V30 1127 H 106.09 5.85004 1.324 0
M  V30 1128 H 107.769 6.38258 1.05999 0
M  V30 1129 N 107.901 -0.206675 1.56239 0
M  V30 1130 C 108.848 -1.25617 1.93621 0
M  V30 1131 C 109.818 -1.45824 0.795274 0
M  V30 1132 O 111.003 -1.59148 1.05245 0
M  V30 1133 C 108.143 -2.59839 2.27107 0
M  V30 1134 C 107.256 -2.47308 3.54207 0
M  V30 1135 C 106.391 -3.74155 3.7707 0
M  V30 1136 C 105.43 -3.56407 4.97635 0
M  V30 1137 N 104.567 -4.75238 5.1681 0
M  V30 1138 H 109.407 -0.930383 2.83104 0
M  V30 1139 H 106.944 -0.448065 1.4011 0
M  V30 1140 H 108.902 -3.38021 2.44535 0
M  V30 1141 H 107.532 -2.90485 1.40778 0
M  V30 1142 H 106.584 -1.60483 3.4489 0
M  V30 1143 H 107.896 -2.30122 4.42544 0
M  V30 1144 H 107.05 -4.60778 3.94675 0
M  V30 1145 H 105.789 -3.94282 2.87042 0
M  V30 1146 H 104.794 -2.68168 4.79964 0
M  V30 1147 H 106.019 -3.37736 5.89161 0
M  V30 1148 H 103.965 -4.95651 4.29728 0
M  V30 1149 H 103.882 -4.60835 5.99306 0
M  V30 1150 H 105.15 -5.63246 5.38864 0
M  V30 1151 N 109.379 -1.50304 -0.473955 0
M  V30 1152 C 110.607 -1.64902 -1.24959 0
M  V30 1153 C 111.022 -0.331198 -1.85872 0
M  V30 1154 O 110.379 0.68652 -1.69095 0
M  V30 1155 C 110.43 -2.73803 -2.36038 0
M  V30 1156 O 110.151 -4.00477 -1.77624 0
M  V30 1157 C 111.652 -2.99349 -3.26964 0
M  V30 1158 H 108.872 -0.554383 -0.378022 0
M  V30 1159 H 111.416 -1.9651 -0.566054 0
M  V30 1160 H 109.571 -2.44898 -3.00173 0
M  V30 1161 H 109.985 -4.60678 -2.5075 0
M  V30 1162 H 111.459 -3.79217 -4.01121 0
M  V30 1163 H 111.936 -2.10307 -3.85574 0
M  V30 1164 H 112.542 -3.29774 -2.68569 0
M  V30 1165 N 110.857 0.726932 -1.39834 0
M  V30 1166 C 112.105 1.4837 -1.37225 0
M  V30 1167 C 112.426 1.94979 0.0284857 0
M  V30 1168 O 111.696 1.69555 0.981213 0
M  V30 1169 H 110.276 0.55043 -0.505011 0
M  V30 1170 H 112.938 0.862468 -1.74778 0
M  V30 1171 H 112.034 2.36198 -2.04003 0
M  V30 1172 N 112.336 1.25143 0.95797 0
M  V30 1173 C 113.284 1.05019 2.07542 0
M  V30 1174 C 114.278 -0.0178751 1.69391 0
M  V30 1175 O 115.484 0.137472 1.79474 0
M  V30 1176 H 111.859 0.32265 0.679265 0
M  V30 1177 H 113.83 1.99759 2.21673 0
M  V30 1178 C 112.579 0.682074 3.40944 0
M  V30 1179 H 111.902 1.49573 3.70767 0
M  V30 1180 H 113.342 0.580945 4.20001 0
M  V30 1181 C 111.801 -0.611608 3.31302 0
M  V30 1182 O 112.331 -1.65465 3.66038 0
M  V30 1183 N 110.537 -0.595982 2.84423 0
M  V30 1184 H 110.084 0.253192 2.56353 0
M  V30 1185 H 110.042 -1.46173 2.78354 0
M  V30 1186 N 113.814 -1.1601 1.06675 0
M  V30 1187 C 114.777 -2.18724 0.685001 0
M  V30 1188 C 115.777 -1.58496 -0.271246 0
M  V30 1189 O 116.967 -1.74119 -0.0531156 0
M  V30 1190 C 114.099 -3.40899 0.00853648 0
M  V30 1191 H 115.292 -2.54011 1.59431 0
M  V30 1192 H 112.845 -1.30352 0.862441 0
M  V30 1193 H 113.58 -3.11173 -0.913337 0
M  V30 1194 H 113.365 -3.8587 0.696204 0
M  V30 1195 H 114.855 -4.16886 -0.24414 0
M  V30 1196 N 115.292 -0.849877 -1.32721 0
M  V30 1197 C 116.222 -0.306308 -2.31482 0
M  V30 1198 C 117.203 0.591952 -1.59468 0
M  V30 1199 O 118.388 0.513199 -1.87296 0
M  V30 1200 C 115.518 0.510204 -3.43532 0
M  V30 1201 C 114.472 -0.293209 -4.26994 0
M  V30 1202 C 113.798 0.647743 -5.30762 0
M  V30 1203 C 115.098 -1.51634 -4.99804 0
M  V30 1204 H 116.792 -1.13153 -2.77195 0
M  V30 1205 H 114.338 -0.545553 -1.33266 0
M  V30 1206 H 116.291 0.900856 -4.11658 0
M  V30 1207 H 115.015 1.36874 -2.96535 0
M  V30 1208 H 113.674 -0.665555 -3.60508 0
M  V30 1209 H 113.322 1.50299 -4.8002 0
M  V30 1210 H 113.022 0.11422 -5.87489 0
M  V30 1211 H 114.546 1.03567 -6.01753 0
M  V30 1212 H 115.96 -1.19824 -5.60638 0
M  V30 1213 H 114.357 -1.98745 -5.66234 0
M  V30 1214 H 115.427 -2.28018 -4.27943 0
M  V30 1215 N 116.77 1.45427 -0.607355 0
M  V30 1216 C 117.995 2.07124 -0.107006 0
M  V30 1217 C 118.42 1.44906 1.19933 0
M  V30 1218 O 117.778 0.541687 1.73019 0
M  V30 1219 C 117.826 3.60595 0.0194119 0
M  V30 1220 O 116.93 3.98285 1.0697 0
M  V30 1221 H 116.271 0.659868 -0.0739597 0
M  V30 1222 H 118.801 1.86683 -0.837297 0
M  V30 1223 H 118.811 4.07419 0.2177 0
M  V30 1224 H 117.486 4.05266 -0.934453 0
M  V30 1225 H 116.063 3.63133 0.847889 0
M  V30 1226 N 118.248 0.346503 1.53744 0
M  V30 1227 C 119.494 -0.249473 2.0126 0
M  V30 1228 C 119.827 -1.49965 1.23386 0
M  V30 1229 O 119.102 -1.91811 0.32229 0
M  V30 1230 C 119.385 -0.560643 3.55709 0
M  V30 1231 C 119.238 0.701836 4.44291 0
M  V30 1232 C 120.557 -1.36905 4.18264 0
M  V30 1233 H 117.676 -0.0891987 0.731582 0
M  V30 1234 H 120.318 0.467624 1.84156 0
M  V30 1235 H 118.468 -1.17156 3.70414 0
M  V30 1236 H 120.14 1.33974 4.41417 0
M  V30 1237 H 118.383 1.32612 4.13033 0
M  V30 1238 H 119.054 0.43933 5.50249 0
M  V30 1239 H 121.53 -0.852448 4.07275 0
M  V30 1240 H 120.406 -1.55553 5.26398 0
M  V30 1241 H 120.667 -2.37203 3.73078 0
M  V30 1242 N 119.726 -1.57421 0.075193 0
M  V30 1243 C 120.636 -2.1642 -0.905511 0
M  V30 1244 C 121.652 -1.12828 -1.32461 0
M  V30 1245 O 122.828 -1.45109 -1.39661 0
M  V30 1246 C 119.893 -2.71693 -2.15369 0
M  V30 1247 C 118.954 -3.90171 -1.79068 0
M  V30 1248 C 118.187 -4.42798 -2.97936 0
M  V30 1249 O 118.41 -3.94416 -4.12058 0
M  V30 1250 O 117.344 -5.34085 -2.77555 0
M  V30 1251 H 121.17 -3.00588 -0.433626 0
M  V30 1252 H 118.755 -1.48664 -0.148067 0
M  V30 1253 H 120.637 -3.07104 -2.88557 0
M  V30 1254 H 119.312 -1.90582 -2.61649 0
M  V30 1255 H 118.219 -3.59606 -1.03122 0
M  V30 1256 H 119.552 -4.72584 -1.37569 0
M  V30 1257 N 121.204 0.198386 -1.56346 0
M  V30 1258 C 122.134 1.24865 -1.9731 0
M  V30 1259 C 123.115 1.47651 -0.844576 0
M  V30 1260 O 124.3 1.59444 -1.10866 0
M  V30 1261 C 121.43 2.59358 -2.30977 0
M  V30 1262 C 120.384 2.5119 -3.46537 0
M  V30 1263 C 119.71 3.89926 -3.65871 0
M  V30 1264 C 121.01 2.03977 -4.80823 0
M  V30 1265 H 122.704 0.908252 -2.85291 0
M  V30 1266 H 120.25 0.435462 -1.37258 0
M  V30 1267 H 122.203 3.33011 -2.58228 0
M  V30 1268 H 120.927 2.95132 -1.39874 0
M  V30 1269 H 119.586 1.79993 -3.19371 0
M  V30 1270 H 119.234 4.23046 -2.72105 0
M  V30 1271 H 118.934 3.85336 -4.4361 0
M  V30 1272 H 120.458 4.65205 -3.95495 0
M  V30 1273 H 121.872 2.67386 -5.07127 0
M  V30 1274 H 120.269 2.10397 -5.62008 0
M  V30 1275 H 121.339 0.992861 -4.74626 0
M  V30 1276 N 122.682 1.50554 0.465978 0
M  V30 1277 C 123.93 1.61479 1.21528 0
M  V30 1278 C 124.251 0.319596 1.92363 0
M  V30 1279 O 123.521 -0.663194 1.84333 0
M  V30 1280 H 122.101 0.595055 0.451573 0
M  V30 1281 H 124.763 1.87355 0.53704 0
M  V30 1282 H 123.859 2.42846 1.96042 0
M  V30 1283 N 124.16 -0.719506 1.40217 0
M  V30 1284 C 125.571 -1.29848 1.34151 0
M  V30 1285 C 125.922 -1.96196 0.0131349 0
M  V30 1286 O 125.047 -1.973 -0.88892 0
M  V30 1287 C 125.642 -2.36118 2.42968 0
M  V30 1288 C 124.201 -2.8965 2.40374 0
M  V30 1289 C 123.348 -1.63393 2.24049 0
M  V30 1290 H 126.299 -0.51591 1.5008 0
M  V30 1291 H 126.32 -3.16871 2.10649 0
M  V30 1292 H 125.832 -1.878 3.39636 0
M  V30 1293 H 123.933 -3.42208 1.47392 0
M  V30 1294 H 124.046 -3.4171 3.35814 0
M  V30 1295 H 122.41 -1.88312 1.71495 0
M  V30 1296 H 123.193 -1.17104 3.2271 0
M  V30 1297 N 125.638 -1.25649 -0.95132 0
M  V30 1298 C 126.886 -1.10375 -1.69298 0
M  V30 1299 C 127.207 0.355339 -1.91735 0
M  V30 1300 O 126.477 1.25188 -1.50681 0
M  V30 1301 H 125.057 -0.405461 -0.627384 0
M  V30 1302 H 127.719 -1.57823 -1.14358 0
M  V30 1303 H 126.815 -1.61465 -2.67087 0
M  V30 1304 N 127.117 1.15442 -1.07289 0
M  V30 1305 C 128.366 1.85557 -0.790669 0
M  V30 1306 C 128.679 1.83186 0.685739 0
M  V30 1307 O 129.885 2.48977 1.0827 0
M  V30 1308 C 128.341 3.33038 -1.36433 0
M  V30 1309 C 127.949 3.43856 -2.8717 0
M  V30 1310 C 129.693 4.0834 -1.1601 0
M  V30 1311 C 127.6 4.85482 -3.3773 0
M  V30 1312 H 126.53 0.695122 -0.292098 0
M  V30 1313 H 129.181 1.30219 -1.29287 0
M  V30 1314 H 127.563 3.88043 -0.789864 0
M  V30 1315 H 128.737 2.98961 -3.50655 0
M  V30 1316 H 127.052 2.81998 -3.06376 0
M  V30 1317 H 129.649 5.12859 -1.51262 0
M  V30 1318 H 129.992 4.16182 -0.0991007 0
M  V30 1319 H 130.525 3.59603 -1.70089 0
M  V30 1320 H 127.264 4.82823 -4.43353 0
M  V30 1321 H 126.784 5.30961 -2.78999 0
M  V30 1322 H 128.463 5.54335 -3.33648 0
M  V30 1323 N 128.595 0.856903 1.32268 0
M  V30 1324 C 129.525 0.31858 2.31316 0
M  V30 1325 C 130.506 -0.583487 1.59779 0
M  V30 1326 O 131.691 -0.503259 1.87566 0
M  V30 1327 C 128.821 -0.491979 3.43798 0
M  V30 1328 C 127.775 0.315849 4.26833 0
M  V30 1329 C 127.101 -0.619586 5.31098 0
M  V30 1330 C 128.401 1.54282 4.98993 0
M  V30 1331 H 130.095 1.14621 2.76591 0
M  V30 1332 H 127.641 0.552613 1.32974 0
M  V30 1333 H 129.594 -0.879012 4.1213 0
M  V30 1334 H 128.318 -1.35299 2.97257 0
M  V30 1335 H 126.977 0.684664 3.6015 0
M  V30 1336 H 126.625 -1.47751 4.8081 0
M  V30 1337 H 126.325 -0.0830621 5.87541 0
M  V30 1338 H 127.849 -1.00375 6.02293 0
M  V30 1339 H 129.263 1.22796 5.59995 0
M  V30 1340 H 127.66 2.01745 5.65172 0
M  V30 1341 H 128.73 2.30285 4.26728 0
M  V30 1342 N 130.073 -1.45103 0.615059 0
M  V30 1343 C 131.35 -1.95549 0.0448276 0
M  V30 1344 C 131.73 -1.55737 -1.4251 0
M  V30 1345 O 131.078 -0.823556 -2.13143 0
M  V30 1346 C 131.288 -3.48098 0.250785 0
M  V30 1347 C 132.636 -4.24384 0.135509 0
M  V30 1348 O 133.66 -3.55738 0.181299 0
M  V30 1349 O 132.519 -5.46493 0.0268878 0
M  V30 1350 H 129.613 -0.8264 -0.0314845 0
M  V30 1351 H 132.159 -1.55232 0.685642 0
M  V30 1352 H 130.931 -3.7007 1.27139 0
M  V30 1353 H 130.554 -3.95323 -0.424937 0
M  V30 1354 N 131.551 -0.354651 -1.53558 0
M  V30 1355 C 132.499 0.512195 -2.26891 0
M  V30 1356 C 133.493 1.09263 -1.29452 0
M  V30 1357 O 134.699 1.03709 -1.47121 0
M  V30 1358 H 131.074 0.183878 -0.729173 0
M  V30 1359 H 133.045 -0.128202 -2.98124 0
M  V30 1360 C 131.794 1.64563 -3.06291 0
M  V30 1361 H 131.117 1.20829 -3.81104 0
M  V30 1362 H 132.557 2.22711 -3.60799 0
M  V30 1363 C 131.016 2.58158 -2.16462 0
M  V30 1364 O 131.546 3.60695 -1.76811 0
M  V30 1365 N 129.752 2.27096 -1.81317 0
M  V30 1366 H 129.299 1.43751 -2.1376 0
M  V30 1367 H 129.257 2.89975 -1.21498 0
M  V30 1368 N 133.029 1.57378 -0.0835403 0
M  V30 1369 C 134.278 1.93106 0.582498 0
M  V30 1370 C 134.591 0.96651 1.70053 0
M  V30 1371 O 135.797 1.21705 2.42693 0
M  V30 1372 C 134.253 3.43076 1.08751 0
M  V30 1373 C 133.861 4.48 -0.000146404 0
M  V30 1374 C 135.605 3.87785 1.72694 0
M  V30 1375 C 133.512 5.89113 0.519568 0
M  V30 1376 H 132.442 0.720775 0.221358 0
M  V30 1377 H 135.093 1.82821 -0.157675 0
M  V30 1378 H 133.475 3.48474 1.88101 0
M  V30 1379 H 134.649 4.54233 -0.775199 0
M  V30 1380 H 132.964 4.1283 -0.54406 0
M  V30 1381 H 135.561 4.90604 2.1263 0
M  V30 1382 H 135.904 3.25796 2.59158 0
M  V30 1383 H 136.437 3.8504 0.999457 0
M  V30 1384 H 133.176 6.54775 -0.308186 0
M  V30 1385 H 132.696 5.86376 1.26188 0
M  V30 1386 H 134.375 6.39346 0.992237 0
M  V30 1387 N 134.507 -0.190092 1.56449 0
M  V30 1388 C 135.737 -0.92443 1.84764 0
M  V30 1389 C 136.145 -1.77146 0.664529 0
M  V30 1390 O 135.488 -1.79812 -0.375957 0
M  V30 1391 C 135.55 -1.86651 3.07248 0
M  V30 1392 C 135.214 -1.20094 4.40938 0
M  V30 1393 C 136.211 -0.575445 5.16706 0
M  V30 1394 C 133.896 -1.2033 4.87674 0
M  V30 1395 C 135.89 0.0388111 6.37388 0
M  V30 1396 C 133.577 -0.585214 6.08291 0
M  V30 1397 C 134.575 0.0347578 6.82991 0
M  V30 1398 O 134.263 0.643147 8.01323 0
M  V30 1399 H 133.995 -0.274974 0.617548 0
M  V30 1400 H 136.549 -0.200788 2.04416 0
M  V30 1401 H 134.779 -2.62998 2.83494 0
M  V30 1402 H 136.468 -2.46907 3.22167 0
M  V30 1403 H 137.234 -0.565728 4.81689 0
M  V30 1404 H 133.113 -1.67526 4.29484 0
M  V30 1405 H 136.657 0.523329 6.95634 0
M  V30 1406 H 132.554 -0.592451 6.42775 0
M  V30 1407 H 133.322 0.540545 8.16713 0
M  V30 1408 N 135.985 -1.50799 -0.457987 0
M  V30 1409 C 137.262 -1.52968 -1.21902 0
M  V30 1410 C 137.642 -0.281906 -2.09209 0
M  V30 1411 O 136.99 0.734076 -2.16388 0
M  V30 1412 C 137.2 -2.8326 -2.03875 0
M  V30 1413 C 138.548 -3.34425 -2.6162 0
M  V30 1414 O 139.572 -2.8467 -2.14106 0
M  V30 1415 O 138.431 -4.21188 -3.48228 0
M  V30 1416 H 135.525 -0.614129 -0.553873 0
M  V30 1417 H 138.071 -1.63098 -0.468739 0
M  V30 1418 H 136.843 -3.65543 -1.39621 0
M  V30 1419 H 136.466 -2.76195 -2.8601 0
M  V30 1420 N 137.463 0.71206 -1.40597 0
M  V30 1421 C 138.711 1.46907 -1.38791 0
M  V30 1422 C 139.032 1.94998 0.00780391 0
M  V30 1423 O 138.302 1.70587 0.963174 0
M  V30 1424 H 136.882 0.545043 -0.51082 0
M  V30 1425 H 139.544 0.843882 -1.75683 0
M  V30 1426 H 138.64 2.34021 -2.06496 0
M  V30 1427 N 138.941 1.26152 0.944643 0
M  V30 1428 C 140.19 1.10883 1.68487 0
M  V30 1429 C 140.503 -0.348153 1.92477 0
M  V30 1430 O 141.709 -0.621459 2.64292 0
M  V30 1431 C 140.165 1.93624 3.03377 0
M  V30 1432 C 139.773 3.43875 2.87148 0
M  V30 1433 C 141.517 1.86954 3.81115 0
M  V30 1434 C 139.424 4.18875 4.1749 0
M  V30 1435 H 138.354 0.41135 0.631907 0
M  V30 1436 H 141.005 1.50433 1.05082 0
M  V30 1437 H 139.387 1.46904 3.67743 0
M  V30 1438 H 140.561 3.98338 2.31653 0
M  V30 1439 H 138.876 3.51744 2.22856 0
M  V30 1440 H 141.473 2.40275 4.77673 0
M  V30 1441 H 141.816 0.839518 4.07747 0
M  V30 1442 H 142.349 2.31477 3.23517 0
M  V30 1443 H 139.088 5.22332 3.96043 0
M  V30 1444 H 138.608 3.69193 4.72712 0
M  V30 1445 H 140.287 4.27134 4.85968 0
M  V30 1446 N 140.419 -1.14872 1.07899 0
M  V30 1447 C 141.351 -2.19425 0.662231 0
M  V30 1448 C 142.364 -1.60231 -0.288079 0
M  V30 1449 O 143.553 -1.78336 -0.076534 0
M  V30 1450 C 140.653 -3.38867 -0.0470695 0
M  V30 1451 C 139.826 -4.27597 0.920831 0
M  V30 1452 C 138.885 -5.25616 0.247805 0
M  V30 1453 O 137.911 -5.62189 0.890599 0
M  V30 1454 N 139.113 -5.71746 -1.00435 0
M  V30 1455 H 141.878 -2.55797 1.56166 0
M  V30 1456 H 139.439 -1.30042 0.964404 0
M  V30 1457 H 141.431 -4.01497 -0.50813 0
M  V30 1458 H 140.001 -3.00864 -0.848523 0
M  V30 1459 H 139.221 -3.61982 1.56087 0
M  V30 1460 H 140.509 -4.83748 1.57688 0
M  V30 1461 H 139.907 -5.44153 -1.54642 0
M  V30 1462 H 138.464 -6.36389 -1.40899 0
M  V30 1463 N 141.898 -0.863906 -1.31812 0
M  V30 1464 C 143.314 -0.555004 -1.49639 0
M  V30 1465 C 143.514 0.912266 -1.79666 0
M  V30 1466 O 142.57 1.69479 -1.87171 0
M  V30 1467 C 143.883 -1.44998 -2.63431 0
M  V30 1468 C 145.431 -1.45138 -2.77316 0
M  V30 1469 C 145.906 -2.33179 -3.94197 0
M  V30 1470 N 147.397 -2.31025 -4.01474 0
M  V30 1471 C 148.132 -2.95871 -4.9117 0
M  V30 1472 N 147.628 -3.69863 -5.8581 0
M  V30 1473 N 149.421 -2.85211 -4.84367 0
M  V30 1474 H 141.572 -1.81339 -1.10589 0
M  V30 1475 H 143.835 -0.77505 -0.545895 0
M  V30 1476 H 143.541 -2.49377 -2.48 0
M  V30 1477 H 143.415 -1.14409 -3.59431 0
M  V30 1478 H 145.802 -0.415201 -2.92164 0
M  V30 1479 H 145.883 -1.79747 -1.82001 0
M  V30 1480 H 145.527 -3.3687 -3.80107 0
M  V30 1481 H 145.457 -1.95897 -4.88807 0
M  V30 1482 H 147.948 -1.77238 -3.33759 0
M  V30 1483 H 148.261 -4.16486 -6.50968 0
M  V30 1484 H 146.606 -3.73971 -5.85808 0
M  V30 1485 H 149.797 -2.26948 -4.09405 0
M  V30 1486 H 149.97 -3.36027 -5.54066 0
M  V30 1487 N 143.376 1.44774 -0.622745 0
M  V30 1488 C 144.787 1.85546 -0.207226 0
M  V30 1489 C 145.138 1.52093 1.23944 0
M  V30 1490 O 144.263 0.95492 1.94191 0
M  V30 1491 C 144.858 3.36781 -0.369313 0
M  V30 1492 C 143.417 3.76399 -0.00836847 0
M  V30 1493 C 142.564 2.68664 -0.686651 0
M  V30 1494 H 145.515 1.3536 -0.828454 0
M  V30 1495 H 145.536 3.78453 0.394162 0
M  V30 1496 H 145.048 3.61098 -1.42231 0
M  V30 1497 H 143.149 3.57698 1.04322 0
M  V30 1498 H 143.262 4.7732 -0.412584 0
M  V30 1499 H 141.626 2.54404 -0.122777 0
M  V30 1500 H 142.409 2.95815 -1.74208 0
M  V30 1501 N 144.854 0.36279 1.53368 0
M  V30 1502 C 145.784 -0.476976 2.28576 0
M  V30 1503 C 146.765 -1.08631 1.30894 0
M  V30 1504 O 147.95 -1.10409 1.59761 0
M  V30 1505 C 145.08 -1.61828 3.07293 0
M  V30 1506 C 144.034 -1.13633 4.1264 0
M  V30 1507 C 143.36 -2.36766 4.79423 0
M  V30 1508 C 144.66 -0.223061 5.21823 0
M  V30 1509 H 146.354 0.150474 2.99022 0
M  V30 1510 H 143.9 0.0738103 1.43811 0
M  V30 1511 H 145.853 -2.21237 3.58653 0
M  V30 1512 H 144.577 -2.27292 2.34533 0
M  V30 1513 H 143.236 -0.564945 3.62221 0
M  V30 1514 H 142.884 -3.0068 4.03238 0
M  V30 1515 H 142.584 -2.05192 5.50609 0
M  V30 1516 H 144.108 -2.96865 5.33576 0
M  V30 1517 H 145.522 -0.724545 5.68703 0
M  V30 1518 H 143.919 0.001678 6.001 0
M  V30 1519 H 144.989 0.735553 4.79289 0
M  V30 1520 N 146.332 -1.57332 0.0918853 0
M  V30 1521 C 147.242 -2.17368 -0.882505 0
M  V30 1522 C 148.258 -1.14226 -1.31257 0
M  V30 1523 O 149.434 -1.46582 -1.38115 0
M  V30 1524 C 146.499 -2.73962 -2.12476 0
M  V30 1525 C 145.56 -3.92048 -1.7492 0
M  V30 1526 C 144.793 -4.45933 -2.93223 0
M  V30 1527 O 145.016 -3.98764 -4.07852 0
M  V30 1528 O 143.95 -5.36999 -2.71875 0
M  V30 1529 H 147.776 -3.01031 -0.40172 0
M  V30 1530 H 145.361 -1.48813 -0.132291 0
M  V30 1531 H 147.243 -3.10147 -2.85283 0
M  V30 1532 H 145.918 -1.93347 -2.59613 0
M  V30 1533 H 144.825 -3.6068 -0.993025 0
M  V30 1534 H 146.158 -4.74017 -1.32548 0
M  V30 1535 N 147.81 0.181792 -1.56548 0
M  V30 1536 C 149.226 0.53316 -1.50431 0
M  V30 1537 C 149.426 1.85184 -0.794297 0
M  V30 1538 O 148.482 2.50058 -0.350318 0
M  V30 1539 C 149.795 0.575597 -2.9514 0
M  V30 1540 C 151.343 0.663519 -3.05886 0
M  V30 1541 C 151.818 0.736946 -4.52032 0
M  V30 1542 N 153.309 0.800118 -4.56237 0
M  V30 1543 C 154.044 0.877327 -5.66649 0
M  V30 1544 N 153.54 0.916016 -6.86718 0
M  V30 1545 N 155.333 0.915542 -5.54594 0
M  V30 1546 H 147.484 -0.683025 -2.01118 0
M  V30 1547 H 149.747 -0.244988 -0.915797 0
M  V30 1548 H 149.453 -0.324482 -3.502 0
M  V30 1549 H 149.327 1.42572 -3.49218 0
M  V30 1550 H 151.714 1.55403 -2.50867 0
M  V30 1551 H 151.795 -0.21307 -2.54911 0
M  V30 1552 H 151.439 -0.149262 -5.07681 0
M  V30 1553 H 151.369 1.62953 -5.00753 0
M  V30 1554 H 153.86 0.778926 -3.69785 0
M  V30 1555 H 154.173 0.975813 -7.66614 0
M  V30 1556 H 152.518 0.884469 -6.89349 0
M  V30 1557 H 155.709 0.882245 -4.59711 0
M  V30 1558 H 155.882 0.972253 -6.40665 0
M  V30 1559 N 149.288 1.51039 0.449983 0
M  V30 1560 C 150.537 1.62317 1.19733 0
M  V30 1561 C 150.85 0.339101 1.92638 0
M  V30 1562 O 152.056 0.331069 2.69474 0
M  V30 1563 C 150.512 2.86608 2.17678 0
M  V30 1564 C 150.12 4.21972 1.50479 0
M  V30 1565 C 151.864 3.07239 2.92924 0
M  V30 1566 C 149.771 5.37426 2.46834 0
M  V30 1567 H 148.701 0.604532 0.450619 0
M  V30 1568 H 151.352 1.77494 0.465625 0
M  V30 1569 H 149.734 2.65037 2.94231 0
M  V30 1570 H 150.908 4.53878 0.795716 0
M  V30 1571 H 149.223 4.07117 0.874344 0
M  V30 1572 H 151.82 3.90668 3.65079 0
M  V30 1573 H 152.163 2.19807 3.5354 0
M  V30 1574 H 152.696 3.29091 2.23481 0
M  V30 1575 H 149.435 6.27079 1.90926 0
M  V30 1576 H 148.955 5.09912 3.15832 0
M  V30 1577 H 150.634 5.68862 3.08228 0
M  V30 1578 N 150.766 -0.704594 1.40972 0
M  V30 1579 C 151.729 -1.80035 1.41845 0
M  V30 1580 C 152.729 -1.57774 0.310474 0
M  V30 1581 O 153.919 -1.64613 0.56992 0
M  V30 1582 C 151.051 -3.18284 1.22098 0
M  V30 1583 H 152.244 -1.80658 2.3938 0
M  V30 1584 H 149.797 -0.911329 1.26982 0
M  V30 1585 H 150.532 -3.23306 0.253672 0
M  V30 1586 H 150.317 -3.35843 2.02366 0
M  V30 1587 H 151.807 -3.98289 1.25522 0
M  V30 1588 N 152.244 -1.26651 -0.937939 0
M  V30 1589 C 153.192 -1.08308 -2.05845 0
M  V30 1590 C 154.186 -0.0090757 -1.69398 0
M  V30 1591 O 155.392 -0.166007 -1.79233 0
M  V30 1592 H 151.767 -0.333416 -0.674046 0
M  V30 1593 H 153.738 -2.03261 -2.18467 0
M  V30 1594 C 152.487 -0.736229 -3.39816 0
M  V30 1595 H 151.81 -1.55453 -3.6834 0
M  V30 1596 H 153.25 -0.64769 -4.19024 0
M  V30 1597 C 151.709 0.558824 -3.32233 0
M  V30 1598 O 152.239 1.59621 -3.68624 0
M  V30 1599 N 150.445 0.550657 -2.85335 0
M  V30 1600 H 149.992 -0.293943 -2.55917 0
M  V30 1601 H 149.95 1.41726 -2.80644 0
M  V30 1602 N 153.722 1.14298 -1.08507 0
M  V30 1603 C 154.968 1.85633 -0.816581 0
M  V30 1604 C 155.301 1.82784 0.656021 0
M  V30 1605 O 154.576 1.25926 1.48233 0
M  V30 1606 C 154.859 3.34223 -1.34041 0
M  V30 1607 C 154.712 3.45639 -2.87843 0
M  V30 1608 C 156.031 4.29356 -0.9665 0
M  V30 1609 H 153.15 0.67402 -0.298104 0
M  V30 1610 H 155.792 1.34214 -1.34487 0
M  V30 1611 H 153.942 3.78144 -0.89104 0
M  V30 1612 H 155.614 3.10498 -3.41158 0
M  V30 1613 H 153.857 2.86817 -3.25451 0
M  V30 1614 H 154.528 4.50089 -3.19569 0
M  V30 1615 H 157.004 3.93457 -1.35391 0
M  V30 1616 H 155.88 5.3178 -1.3602 0
M  V30 1617 H 156.141 4.41919 0.126362 0
M  V30 1618 N 155.201 0.870884 1.31352 0
M  V30 1619 C 156.441 0.488783 1.9847 0
M  V30 1620 C 156.805 -0.941536 1.67329 0
M  V30 1621 O 158.006 -1.42903 2.27667 0
M  V30 1622 C 156.277 0.739688 3.49662 0
M  V30 1623 S 157.836 0.457582 4.36408 0
M  V30 1624 H 154.654 0.18242 0.6872 0
M  V30 1625 H 157.256 1.12711 1.59739 0
M  V30 1626 H 155.96 1.77944 3.69816 0
M  V30 1627 H 155.491 0.0883905 3.93301 0
M  V30 1628 H 157.506 -0.709752 4.91098 0
M  V30 1629 N 156.679 -1.44442 0.630414 0
M  V30 1630 C 157.927 -2.01653 0.134351 0
M  V30 1631 C 158.248 -1.49836 -1.24796 0
M  V30 1632 O 157.518 -0.701684 -1.82902 0
M  V30 1633 H 156.098 -0.74554 0.0466769 0
M  V30 1634 H 158.76 -1.76952 0.816955 0
M  V30 1635 H 157.856 -3.11935 0.101498 0
M  V30 1636 N 158.157 -0.370918 -1.53173 0
M  V30 1637 C 159.434 0.273754 -1.93675 0
M  V30 1638 C 159.814 1.65938 -1.3049 0
M  V30 1639 O 159.162 2.23698 -0.465999 0
M  V30 1640 C 159.372 0.318602 -3.47543 0
M  V30 1641 C 160.72 0.556392 -4.20939 0
M  V30 1642 O 161.744 0.399587 -3.53952 0
M  V30 1643 O 160.603 0.862133 -5.39657 0
M  V30 1644 H 157.697 0.165448 -0.810281 0
M  V30 1645 H 160.243 -0.42409 -1.64315 0
M  V30 1646 H 159.015 -0.652687 -3.85818 0
M  V30 1647 H 158.638 1.06212 -3.83151 0
M  V30 1648 N 159.635 1.57281 -0.100228 0
M  V30 1649 C 160.881 1.94826 0.563101 0
M  V30 1650 C 161.214 0.982475 1.67514 0
M  V30 1651 O 160.489 0.0164069 1.94493 0
M  V30 1652 C 160.772 3.42453 1.11346 0
M  V30 1653 C 160.625 4.498 0.00612081 0
M  V30 1654 C 161.944 3.91506 2.01024 0
M  V30 1655 H 159.063 0.708428 0.203221 0
M  V30 1656 H 161.705 1.8922 -0.171979 0
M  V30 1657 H 159.855 3.47361 1.7399 0
M  V30 1658 H 161.527 4.57 -0.628357 0
M  V30 1659 H 159.77 4.28756 -0.659581 0
M  V30 1660 H 160.441 5.50306 0.432109 0
M  V30 1661 H 162.917 3.88784 1.48278 0
M  V30 1662 H 161.793 4.95358 2.36457 0
M  V30 1663 H 162.054 3.31099 2.92961 0
M  V30 1664 N 161.113 -0.173488 1.56642 0
M  V30 1665 C 162.343 -0.904781 1.85734 0
M  V30 1666 C 162.751 -1.76431 0.68328 0
M  V30 1667 O 162.094 -1.802 -0.356865 0
M  V30 1668 C 162.156 -1.83382 3.09211 0
M  V30 1669 C 161.82 -1.15411 4.42187 0
M  V30 1670 C 162.817 -0.520609 5.17287 0
M  V30 1671 C 160.502 -1.15151 4.88923 0
M  V30 1672 C 162.496 0.106412 6.37311 0
M  V30 1673 C 160.183 -0.520664 6.08878 0
M  V30 1674 C 161.181 0.107196 6.82916 0
M  V30 1675 O 160.869 0.728102 8.00596 0
M  V30 1676 H 160.601 -0.268408 0.62043 0
M  V30 1677 H 163.155 -0.179096 2.04618 0
M  V30 1678 H 161.385 -2.59976 2.86268 0
M  V30 1679 H 163.074 -2.43476 3.24768 0
M  V30 1680 H 163.84 -0.514606 4.82262 0
M  V30 1681 H 159.719 -1.62961 4.31236 0
M  V30 1682 H 163.263 0.597081 6.9504 0
M  V30 1683 H 159.16 -0.524242 6.43368 0
M  V30 1684 H 159.928 0.627138 8.16094 0
M  V30 1685 N 162.591 -1.51276 -0.441967 0
M  V30 1686 C 163.84 -1.6295 -1.18871 0
M  V30 1687 C 164.153 -0.349312 -1.92456 0
M  V30 1688 O 165.359 -0.345355 -2.69295 0
M  V30 1689 C 163.815 -2.87759 -2.16155 0
M  V30 1690 C 163.423 -4.22764 -1.48239 0
M  V30 1691 C 165.167 -3.08788 -2.91291 0
M  V30 1692 C 163.074 -5.38728 -2.4398 0
M  V30 1693 H 162.004 -0.606913 -0.447406 0
M  V30 1694 H 164.655 -1.77739 -0.456205 0
M  V30 1695 H 163.037 -2.66593 -2.92821 0
M  V30 1696 H 164.211 -4.54293 -0.771635 0
M  V30 1697 H 162.526 -4.07575 -0.852741 0
M  V30 1698 H 165.123 -3.92599 -3.63002 0
M  V30 1699 H 165.466 -2.21679 -3.5237 0
M  V30 1700 H 165.999 -3.30272 -2.21733 0
M  V30 1701 H 162.738 -6.28082 -1.87598 0
M  V30 1702 H 162.258 -5.1158 -3.13123 0
M  V30 1703 H 163.937 -5.70489 -3.05207 0
M  V30 1704 N 164.069 0.697108 -1.41344 0
M  V30 1705 C 165.299 1.48377 -1.43763 0
M  V30 1706 C 165.707 1.89156 -0.0408726 0
M  V30 1707 O 165.05 1.57239 0.949812 0
M  V30 1708 C 165.112 2.7781 -2.2817 0
M  V30 1709 C 164.776 2.59244 -3.76353 0
M  V30 1710 C 165.773 2.25292 -4.68551 0
M  V30 1711 C 163.458 2.74933 -4.20378 0
M  V30 1712 C 165.452 2.07264 -6.02761 0
M  V30 1713 C 163.139 2.56521 -5.54653 0
M  V30 1714 C 164.137 2.22737 -6.4566 0
M  V30 1715 O 163.825 2.04485 -7.77458 0
M  V30 1716 H 163.557 0.463842 -0.491759 0
M  V30 1717 H 166.111 0.865934 -1.86255 0
M  V30 1718 H 164.341 3.41995 -1.8049 0
M  V30 1719 H 166.03 3.39608 -2.22309 0
M  V30 1720 H 166.796 2.12787 -4.35829 0
M  V30 1721 H 162.675 3.00213 -3.49848 0
M  V30 1722 H 166.219 1.80817 -6.73759 0
M  V30 1723 H 162.116 2.68616 -5.86955 0
M  V30 1724 H 162.884 2.1926 -7.88586 0
M  V30 1725 N 165.547 1.27147 0.931209 0
M  V30 1726 C 166.494 1.09568 2.03134 0
M  V30 1727 C 167.464 -0.00222433 1.661 0
M  V30 1728 O 168.649 0.159439 1.90133 0
M  V30 1729 C 165.789 0.745231 3.36957 0
M  V30 1730 C 164.902 1.92041 3.86968 0
M  V30 1731 C 164.037 1.51216 5.09222 0
M  V30 1732 C 163.076 2.65504 5.5152 0
M  V30 1733 N 162.213 2.25291 6.64972 0
M  V30 1734 H 167.053 2.03708 2.17502 0
M  V30 1735 H 164.59 1.01411 1.06556 0
M  V30 1736 H 166.548 0.522878 4.1391 0
M  V30 1737 H 165.178 -0.159202 3.22407 0
M  V30 1738 H 164.23 2.25541 3.06326 0
M  V30 1739 H 165.542 2.77787 4.1429 0
M  V30 1740 H 164.696 1.25084 5.93666 0
M  V30 1741 H 163.435 0.625749 4.83669 0
M  V30 1742 H 162.44 2.92354 4.65628 0
M  V30 1743 H 163.665 3.54761 5.7907 0
M  V30 1744 H 161.611 1.39098 6.41083 0
M  V30 1745 H 161.528 3.04577 6.91931 0
M  V30 1746 H 162.796 2.02398 7.52765 0
M  V30 1747 N 167.025 -1.13721 1.09112 0
M  V30 1748 C 168.273 -1.84559 0.823562 0
M  V30 1749 C 168.594 -1.83754 -0.652658 0
M  V30 1750 O 167.864 -1.29102 -1.47342 0
M  V30 1751 H 166.444 -0.683376 0.301673 0
M  V30 1752 H 169.106 -1.37771 1.37859 0
M  V30 1753 H 168.202 -2.8917 1.17419 0
M  V30 1754 N 168.503 -0.877838 -1.30888 0
M  V30 1755 C 169.752 -0.488793 -1.95688 0
M  V30 1756 C 170.065 0.965485 -1.70111 0
M  V30 1757 O 171.271 1.46104 -2.28836 0
M  V30 1758 C 169.727 -0.823201 -3.50359 0
M  V30 1759 C 169.335 -2.29477 -3.84765 0
M  V30 1760 C 171.079 -0.503009 -4.21509 0
M  V30 1761 C 168.986 -2.57118 -5.32583 0
M  V30 1762 H 167.916 -0.179062 -0.732429 0
M  V30 1763 H 170.567 -1.07183 -1.48943 0
M  V30 1764 H 168.949 -0.169331 -3.95638 0
M  V30 1765 H 170.123 -2.99236 -3.5042 0
M  V30 1766 H 168.438 -2.58178 -3.267 0
M  V30 1767 H 171.035 -0.68665 -5.30273 0
M  V30 1768 H 171.378 0.557109 -4.12555 0
M  V30 1769 H 171.911 -1.11376 -3.8189 0
M  V30 1770 H 168.65 -3.61843 -5.4658 0
M  V30 1771 H 168.17 -1.91961 -5.68253 0
M  V30 1772 H 169.849 -2.42251 -5.99936 0
M  V30 1773 N 169.982 1.44106 -0.638065 0
M  V30 1774 C 171.259 1.95453 -0.0759321 0
M  V30 1775 C 171.639 1.57984 1.40015 0
M  V30 1776 O 170.987 0.857361 2.11806 0
M  V30 1777 C 171.197 3.47655 -0.306132 0
M  V30 1778 C 172.545 4.24114 -0.203008 0
M  V30 1779 O 173.569 3.55405 -0.237871 0
M  V30 1780 O 172.428 5.46381 -0.113827 0
M  V30 1781 H 169.522 0.826797 0.0183332 0
M  V30 1782 H 172.068 1.54122 -0.710251 0
M  V30 1783 H 170.84 3.68 -1.3301 0
M  V30 1784 H 170.463 3.95949 0.361991 0
M  V30 1785 N 171.46 0.379036 1.52974 0
M  V30 1786 C 172.393 -0.504932 2.22544 0
M  V30 1787 C 173.371 -1.0723 1.22231 0
M  V30 1788 O 174.555 -1.12589 1.51182 0
M  V30 1789 C 171.682 -1.69794 2.93066 0
M  V30 1790 C 170.728 -1.25678 4.07563 0
M  V30 1791 S 171.561 -0.246852 5.34931 0
M  V30 1792 C 172.717 -1.44588 6.08971 0
M  V30 1793 H 172.95 0.0858666 2.97176 0
M  V30 1794 H 170.483 0.163183 1.53535 0
M  V30 1795 H 172.441 -2.38219 3.34308 0
M  V30 1796 H 171.102 -2.26002 2.18133 0
M  V30 1797 H 170.295 -2.14725 4.5597 0
M  V30 1798 H 169.897 -0.651584 3.6828 0
M  V30 1799 H 172.189 -2.37469 6.34519 0
M  V30 1800 H 173.132 -1.00292 7.00962 0
M  V30 1801 H 173.54 -1.65804 5.39601 0
M  V30 1802 N 172.938 -1.57226 0.108567 0
M  V30 1803 C 174.166 -1.99179 -0.559954 0
M  V30 1804 C 174.581 -0.988022 -1.60884 0
M  V30 1805 O 173.938 0.0205512 -1.82488 0
M  V30 1806 C 173.989 -3.41159 -1.19552 0
M  V30 1807 O 173.71 -4.37694 -0.188577 0
M  V30 1808 C 175.211 -3.98188 -1.94837 0
M  V30 1809 H 172.431 -0.654228 -0.149088 0
M  V30 1810 H 174.975 -2.03598 0.19183 0
M  V30 1811 H 173.13 -3.37711 -1.89815 0
M  V30 1812 H 173.544 -5.20469 -0.649014 0
M  V30 1813 H 175.018 -4.99644 -2.34648 0
M  V30 1814 H 175.495 -3.3675 -2.81951 0
M  V30 1815 H 176.101 -4.0515 -1.2936 0
M  V30 1816 N 174.416 0.165178 -1.56732 0
M  V30 1817 C 175.641 0.900253 -1.86843 0
M  V30 1818 C 176.066 1.74766 -0.695596 0
M  V30 1819 O 175.424 1.77786 0.35522 0
M  V30 1820 C 175.472 1.74777 -3.15413 0
M  V30 1821 O 174.576 2.85007 -2.98068 0
M  V30 1822 H 173.917 0.251832 -0.614391 0
M  V30 1823 H 176.447 0.161468 -2.03962 0
M  V30 1824 H 176.457 2.14646 -3.46974 0
M  V30 1825 H 175.132 1.12537 -4.00385 0
M  V30 1826 H 173.709 2.48676 -2.77875 0
M  V30 1827 N 175.894 1.51508 0.433938 0
M  V30 1828 C 176.824 1.76016 1.53429 0
M  V30 1829 C 177.805 0.610112 1.58782 0
M  V30 1830 O 178.99 0.853177 1.74455 0
M  V30 1831 C 176.12 1.88831 2.9148 0
M  V30 1832 C 175.074 3.04288 3.00987 0
M  V30 1833 C 174.4 3.0229 4.4105 0
M  V30 1834 C 175.7 4.44193 2.74754 0
M  V30 1835 H 177.394 2.68152 1.33171 0
M  V30 1836 H 174.94 1.29035 0.639214 0
M  V30 1837 H 176.893 2.04559 3.6842 0
M  V30 1838 H 175.617 0.933455 3.12976 0
M  V30 1839 H 174.276 2.8827 2.26486 0
M  V30 1840 H 173.924 2.04576 4.59519 0
M  V30 1841 H 173.624 3.79822 4.4834 0
M  V30 1842 H 175.148 3.20116 5.1996 0
M  V30 1843 H 176.562 4.60544 3.41426 0
M  V30 1844 H 174.959 5.23457 2.9345 0
M  V30 1845 H 176.029 4.53996 1.70339 0
M  V30 1846 N 177.372 -0.689602 1.41712 0
M  V30 1847 C 178.649 -1.44457 1.31877 0
M  V30 1848 C 179.029 -2.11039 -0.0508537 0
M  V30 1849 O 178.377 -2.02138 -1.06547 0
M  V30 1850 C 178.587 -2.45913 2.47645 0
M  V30 1851 C 179.935 -3.10991 2.89084 0
M  V30 1852 O 180.959 -2.56238 2.47428 0
M  V30 1853 O 179.818 -4.10174 3.61137 0
M  V30 1854 H 176.912 -0.64362 0.519309 0
M  V30 1855 H 179.458 -0.719576 1.53689 0
M  V30 1856 H 178.23 -1.95409 3.39015 0
M  V30 1857 H 177.853 -3.25913 2.27742 0
M  V30 1858 N 178.85 -1.27639 -0.924453 0
M  V30 1859 C 179.8 -1.07295 -2.01176 0
M  V30 1860 C 180.784 5.77352e-05 -1.609 0
M  V30 1861 O 181.976 -0.218855 -1.75642 0
M  V30 1862 C 179.105 -0.725592 -3.35544 0
M  V30 1863 C 178.191 -1.83691 -3.82254 0
M  V30 1864 N 178.582 -3.07697 -4.01443 0
M  V30 1865 C 176.88 -1.72433 -4.11319 0
M  V30 1866 C 177.581 -3.80037 -4.40394 0
M  V30 1867 N 176.557 -3.0782 -4.48049 0
M  V30 1868 H 180.359 -2.01399 -2.14046 0
M  V30 1869 H 177.873 -1.18401 -1.11153 0
M  V30 1870 H 179.87 -0.560959 -4.13109 0
M  V30 1871 H 178.53 0.207782 -3.24034 0
M  V30 1872 H 179.541 -3.43424 -3.8766 0
M  V30 1873 H 176.218 -0.862005 -4.08504 0
M  V30 1874 H 177.608 -4.86632 -4.63291 0
M  V30 1875 N 180.328 1.1314 -1.09713 0
M  V30 1876 C 181.605 1.80762 -0.747302 0
M  V30 1877 C 181.985 1.96663 0.767265 0
M  V30 1878 O 181.333 1.53706 1.69076 0
M  V30 1879 C 181.543 3.15606 -1.48975 0
M  V30 1880 C 182.891 3.90914 -1.65746 0
M  V30 1881 O 183.915 3.25239 -1.45251 0
M  V30 1882 O 182.774 5.08718 -1.9967 0
M  V30 1883 H 179.868 0.782103 -0.268782 0
M  V30 1884 H 182.414 1.20041 -1.19951 0
M  V30 1885 H 181.186 2.99278 -2.52088 0
M  V30 1886 H 180.809 3.84029 -1.02991 0
M  V30 1887 N 181.806 0.884767 1.30421 0
M  V30 1888 C 182.753 0.349642 2.28136 0
M  V30 1889 C 183.723 -0.560061 1.56373 0
M  V30 1890 O 184.908 -0.488524 1.8444 0
M  V30 1891 C 182.048 -0.42999 3.42411 0
M  V30 1892 C 181.161 0.508907 4.28992 0
M  V30 1893 C 180.296 -0.286301 5.30428 0
M  V30 1894 C 179.335 0.648079 6.08659 0
M  V30 1895 N 178.472 -0.111792 7.02011 0
M  V30 1896 H 183.312 1.18807 2.73293 0
M  V30 1897 H 180.849 0.597231 1.3443 0
M  V30 1898 H 182.807 -0.897923 4.07423 0
M  V30 1899 H 181.437 -1.23299 2.98324 0
M  V30 1900 H 180.489 1.09533 3.64289 0
M  V30 1901 H 181.801 1.22475 4.8353 0
M  V30 1902 H 180.955 -0.816098 6.01186 0
M  V30 1903 H 179.694 -1.03536 4.76583 0
M  V30 1904 H 178.699 1.18951 5.36778 0
M  V30 1905 H 179.924 1.39623 6.64592 0
M  V30 1906 H 177.87 -0.843395 6.50556 0
M  V30 1907 H 177.787 0.544429 7.54037 0
M  V30 1908 H 179.055 -0.622339 7.77012 0
M  V30 1909 N 183.284 -1.43765 0.645699 0
M  V30 1910 C 184.216 -2.29027 -0.0890605 0
M  V30 1911 C 185.229 -1.42093 -0.794563 0
M  V30 1912 O 186.418 -1.66104 -0.653575 0
M  V30 1913 C 183.518 -3.18831 -1.14891 0
M  V30 1914 C 182.691 -4.34261 -0.523043 0
M  V30 1915 C 181.75 -5.04994 -1.47878 0
M  V30 1916 O 180.776 -5.6052 -0.990277 0
M  V30 1917 N 181.978 -5.07795 -2.81291 0
M  V30 1918 H 184.743 -2.92727 0.64272 0
M  V30 1919 H 182.304 -1.54373 0.487924 0
M  V30 1920 H 184.296 -3.63015 -1.78892 0
M  V30 1921 H 182.866 -2.56782 -1.78275 0
M  V30 1922 H 182.086 -3.93088 0.295896 0
M  V30 1923 H 183.374 -5.08728 -0.0858147 0
M  V30 1924 H 182.772 -4.64042 -3.23546 0
M  V30 1925 H 181.329 -5.55721 -3.40614 0
M  V30 1926 N 184.763 -0.387143 -1.52771 0
M  V30 1927 C 186.009 0.188506 -2.02525 0
M  V30 1928 C 186.364 1.44649 -1.26864 0
M  V30 1929 O 185.657 1.88189 -0.359945 0
M  V30 1930 C 185.851 0.512209 -3.53711 0
M  V30 1931 C 185.68 -0.712855 -4.44014 0
M  V30 1932 C 184.45 -1.23147 -4.90064 0
M  V30 1933 C 186.648 -1.58453 -4.89282 0
M  V30 1934 N 184.63 -2.41431 -5.64433 0
M  V30 1935 C 186.001 -2.61381 -5.6221 0
M  V30 1936 C 188.056 -1.60488 -4.71326 0
M  V30 1937 C 186.759 -3.66227 -6.19088 0
M  V30 1938 C 188.785 -2.6424 -5.29085 0
M  V30 1939 C 188.147 -3.6589 -6.01917 0
M  V30 1940 H 184.246 0.0311236 -0.78138 0
M  V30 1941 H 186.83 -0.536548 -1.87161 0
M  V30 1942 H 185.001 1.20632 -3.69192 0
M  V30 1943 H 186.733 1.07482 -3.90166 0
M  V30 1944 H 183.488 -0.792795 -4.66917 0
M  V30 1945 H 183.912 -3.01274 -6.0627 0
M  V30 1946 H 188.554 -0.83247 -4.14524 0
M  V30 1947 H 186.272 -4.44337 -6.74974 0
M  V30 1948 H 189.858 -2.66695 -5.17074 0
M  V30 1949 H 188.738 -4.44855 -6.45813 0
M  V30 1950 N 186.241 1.57166 -0.116904 0
M  V30 1951 C 187.173 2.12271 0.864507 0
M  V30 1952 C 188.186 1.06494 1.23138 0
M  V30 1953 O 189.375 1.33873 1.18069 0
M  V30 1954 C 186.475 2.60564 2.16702 0
M  V30 1955 C 185.648 3.90416 1.97216 0
M  V30 1956 C 184.707 4.24329 3.11178 0
M  V30 1957 O 183.733 4.93182 2.84184 0
M  V30 1958 N 184.935 3.8148 4.37554 0
M  V30 1959 H 187.7 2.97102 0.393726 0
M  V30 1960 H 185.261 1.61759 0.0675805 0
M  V30 1961 H 187.253 2.80282 2.91932 0
M  V30 1962 H 185.823 1.80623 2.55135 0
M  V30 1963 H 185.043 3.79627 1.06192 0
M  V30 1964 H 186.331 4.75327 1.81499 0
M  V30 1965 H 185.729 3.25943 4.62361 0
M  V30 1966 H 184.286 4.06311 5.09661 0
M  V30 1967 N 187.719 -0.156864 1.56817 0
M  V30 1968 C 188.966 -0.871125 1.82805 0
M  V30 1969 C 189.294 -1.81611 0.696262 0
M  V30 1970 O 188.549 -1.93141 -0.315459 0
M  V30 1971 C 188.848 -1.68737 3.1506 0
M  V30 1972 C 188.514 -0.890045 4.42028 0
M  V30 1973 C 187.176 -0.670042 4.76512 0
M  V30 1974 C 189.528 -0.331769 5.20143 0
M  V30 1975 C 186.856 0.119104 5.86579 0
M  V30 1976 C 189.208 0.444365 6.31037 0
M  V30 1977 C 187.872 0.675035 6.64078 0
M  V30 1978 H 187.142 -0.318767 0.668931 0
M  V30 1979 H 189.789 -0.135274 1.91022 0
M  V30 1980 H 188.094 -2.49304 3.0225 0
M  V30 1981 H 189.791 -2.24331 3.3238 0
M  V30 1982 H 186.381 -1.07157 4.14988 0
M  V30 1983 H 190.565 -0.489043 4.93885 0
M  V30 1984 H 185.821 0.307417 6.10627 0
M  V30 1985 H 189.995 0.884139 6.90765 0
M  V30 1986 H 187.622 1.28839 7.49203 0
M  V30 1987 N 189.197 -1.51736 -0.425897 0
M  V30 1988 C 190.427 -1.68549 -1.19476 0
M  V30 1989 C 190.835 -0.387288 -1.85194 0
M  V30 1990 O 190.178 0.645142 -1.71999 0
M  V30 1991 C 190.24 -2.75275 -2.31223 0
M  V30 1992 C 189.904 -4.17534 -1.8578 0
M  V30 1993 C 190.901 -5.01936 -1.35485 0
M  V30 1994 C 188.586 -4.6369 -1.93123 0
M  V30 1995 C 190.58 -6.30559 -0.931347 0
M  V30 1996 C 188.267 -5.92307 -1.50384 0
M  V30 1997 C 189.265 -6.75569 -1.00473 0
M  V30 1998 O 188.953 -8.0178 -0.583452 0
M  V30 1999 H 188.685 -0.568525 -0.365725 0
M  V30 2000 H 191.239 -1.98982 -0.509444 0
M  V30 2001 H 189.469 -2.40182 -3.03067 0
M  V30 2002 H 191.158 -2.80853 -2.93047 0
M  V30 2003 H 191.924 -4.67475 -1.29197 0
M  V30 2004 H 187.803 -3.98997 -2.30916 0
M  V30 2005 H 191.347 -6.95498 -0.541084 0
M  V30 2006 H 187.244 -6.2628 -1.56346 0
M  V30 2007 H 188.012 -8.1543 -0.708275 0
M  V30 2008 N 190.675 0.682077 -1.42076 0
M  V30 2009 C 191.638 1.77756 -1.44691 0
M  V30 2010 C 192.638 1.5726 -0.335535 0
M  V30 2011 O 193.828 1.63686 -0.596037 0
M  V30 2012 C 190.96 3.16301 -1.27146 0
M  V30 2013 H 192.153 1.76826 -2.42224 0
M  V30 2014 H 189.706 0.891012 -1.28416 0
M  V30 2015 H 190.441 3.22862 -0.305075 0
M  V30 2016 H 190.226 3.32581 -2.07683 0
M  V30 2017 H 191.716 3.96241 -1.31843 0
M  V30 2018 N 192.153 1.28127 0.917671 0
M  V30 2019 C 193.43 1.05761 1.64542 0
M  V30 2020 C 193.81 -0.404344 2.07191 0
M  V30 2021 O 193.158 -1.38963 1.81388 0
M  V30 2022 C 193.368 2.02857 2.83989 0
M  V30 2023 C 194.716 2.32786 3.551 0
M  V30 2024 O 195.74 2.0091 2.94132 0
M  V30 2025 O 194.599 2.87169 4.64969 0
M  V30 2026 H 191.693 0.403916 0.721652 0
M  V30 2027 H 194.239 1.39431 0.967322 0
M  V30 2028 H 193.011 3.01407 2.49538 0
M  V30 2029 H 192.634 1.69809 3.59514 0
M  V30 2030 N 193.631 -1.12557 1.10312 0
M  V30 2031 C 194.578 -2.18247 0.750781 0
M  V30 2032 C 195.548 -1.63853 -0.272293 0
M  V30 2033 O 196.733 -1.90195 -0.151862 0
M  V30 2034 C 193.873 -3.44591 0.187379 0
M  V30 2035 C 192.986 -4.13046 1.2656 0
M  V30 2036 C 192.121 -5.27034 0.663978 0
M  V30 2037 C 191.16 -5.87353 1.72287 0
M  V30 2038 N 190.297 -6.92757 1.1416 0
M  V30 2039 H 195.137 -2.47732 1.65628 0
M  V30 2040 H 192.674 -1.21629 0.827337 0
M  V30 2041 H 194.632 -4.16904 -0.157148 0
M  V30 2042 H 193.262 -3.15527 -0.681355 0
M  V30 2043 H 192.314 -3.38924 1.72727 0
M  V30 2044 H 193.626 -4.53947 2.06721 0
M  V30 2045 H 192.78 -6.06104 0.268824 0
M  V30 2046 H 191.519 -4.87407 -0.169082 0
M  V30 2047 H 190.524 -5.06971 2.12746 0
M  V30 2048 H 191.749 -6.29051 2.55875 0
M  V30 2049 H 189.695 -6.5517 0.329984 0
M  V30 2050 H 189.612 -7.3225 1.88007 0
M  V30 2051 H 190.88 -7.75658 0.772956 0
M  V30 2052 N 195.109 -0.891671 -1.2995 0
M  V30 2053 C 196.056 -0.361736 -2.27948 0
M  V30 2054 C 197.026 0.551761 -1.56668 0
M  V30 2055 O 198.211 0.478736 -1.84696 0
M  V30 2056 C 195.351 0.411825 -3.42634 0
M  V30 2057 C 194.464 -0.531651 -4.28716 0
M  V30 2058 C 193.599 0.258167 -5.30572 0
M  V30 2059 C 192.638 -0.680349 -6.08307 0
M  V30 2060 N 191.775 0.0745613 -7.0206 0
M  V30 2061 H 196.615 -1.20254 -2.72659 0
M  V30 2062 H 194.152 -0.604352 -1.34112 0
M  V30 2063 H 196.11 0.876304 -4.07893 0
M  V30 2064 H 194.74 1.21715 -2.98974 0
M  V30 2065 H 193.792 -1.11463 -3.63703 0
M  V30 2066 H 195.104 -1.25038 -4.82874 0
M  V30 2067 H 194.258 0.784204 -6.0161 0
M  V30 2068 H 192.997 1.01008 -4.77126 0
M  V30 2069 H 192.002 -1.21796 -5.3614 0
M  V30 2070 H 193.227 -1.43145 -6.63842 0
M  V30 2071 H 191.173 0.808883 -6.50994 0
M  V30 2072 H 191.09 -0.584409 -7.53738 0
M  V30 2073 H 192.358 0.581123 -7.77331 0
M  V30 2074 N 196.587 1.43421 -0.653314 0
M  V30 2075 C 197.517 2.33487 0.0246656 0
M  V30 2076 C 198.498 1.49475 0.811863 0
M  V30 2077 O 199.683 1.78139 0.773322 0
M  V30 2078 C 196.813 3.32841 0.99166 0
M  V30 2079 C 195.767 4.26842 0.314568 0
M  V30 2080 C 195.093 5.16236 1.39302 0
M  V30 2081 C 196.393 5.16243 -0.793095 0
M  V30 2082 H 198.087 2.90427 -0.727481 0
M  V30 2083 H 195.633 1.39649 -0.351287 0
M  V30 2084 H 197.586 3.94747 1.47487 0
M  V30 2085 H 196.31 2.74158 1.77497 0
M  V30 2086 H 194.969 3.663 -0.148199 0
M  V30 2087 H 194.617 4.53891 2.16776 0
M  V30 2088 H 194.317 5.79948 0.945223 0
M  V30 2089 H 195.841 5.81015 1.87759 0
M  V30 2090 H 197.255 5.71958 -0.392039 0
M  V30 2091 H 195.652 5.88676 -1.16536 0
M  V30 2092 H 196.722 4.55927 -1.65103 0
M  V30 2093 N 198.065 0.39524 1.52563 0
M  V30 2094 C 199.012 -0.437036 2.26624 0
M  V30 2095 C 199.982 -1.05281 1.28472 0
M  V30 2096 O 201.167 -1.07971 1.57311 0
M  V30 2097 C 198.307 -1.55524 3.08069 0
M  V30 2098 C 197.42 -0.961745 4.21158 0
M  V30 2099 C 196.555 -2.05149 4.89987 0
M  V30 2100 C 195.594 -1.4342 5.95061 0
M  V30 2101 N 194.731 -2.46351 6.57462 0
M  V30 2102 H 199.571 0.200976 2.97322 0
M  V30 2103 H 197.108 0.110944 1.46681 0
M  V30 2104 H 199.066 -2.21437 3.53584 0
M  V30 2105 H 197.696 -2.16348 2.3957 0
M  V30 2106 H 196.748 -0.192048 3.79915 0
M  V30 2107 H 198.06 -0.470701 4.96574 0
M  V30 2108 H 197.214 -2.78819 5.38837 0
M  V30 2109 H 195.953 -2.57615 4.14109 0
M  V30 2110 H 194.958 -0.682774 5.45544 0
M  V30 2111 H 196.183 -0.917416 6.72875 0
M  V30 2112 H 194.129 -2.97975 5.8442 0
M  V30 2113 H 194.046 -2.02019 7.28508 0
M  V30 2114 H 195.314 -3.19633 7.10954 0
M  V30 2115 N 199.544 -1.57102 0.125237 0
M  V30 2116 C 200.474 -2.18659 -0.819174 0
M  V30 2117 C 201.455 -1.12843 -1.27281 0
M  V30 2118 O 202.64 -1.41104 -1.33429 0
M  V30 2119 C 199.77 -2.79096 -2.06695 0
M  V30 2120 C 198.724 -3.90548 -1.75088 0
M  V30 2121 C 198.05 -4.37821 -3.06948 0
M  V30 2122 C 199.35 -5.12356 -1.01435 0
M  V30 2123 H 201.044 -2.9783 -0.306202 0
M  V30 2124 H 198.59 -1.4326 -0.145839 0
M  V30 2125 H 200.543 -3.2082 -2.73226 0
M  V30 2126 H 199.267 -1.97223 -2.60328 0
M  V30 2127 H 197.926 -3.49409 -1.10944 0
M  V30 2128 H 197.574 -3.52799 -3.58527 0
M  V30 2129 H 197.274 -5.12982 -2.86571 0
M  V30 2130 H 198.798 -4.822 -3.74587 0
M  V30 2131 H 200.212 -5.5106 -1.58132 0
M  V30 2132 H 198.609 -5.9314 -0.911319 0
M  V30 2133 H 199.679 -4.849 -0.00218681 0
M  V30 2134 N 201.022 0.148545 -1.56898 0
M  V30 2135 C 201.97 1.20265 -1.99096 0
M  V30 2136 C 202.964 1.44559 -0.883123 0
M  V30 2137 O 204.17 1.4487 -1.0683 0
M  V30 2138 H 200.545 0.404786 -0.63376 0
M  V30 2139 H 202.516 0.82004 -2.86911 0
M  V30 2140 C 201.265 2.52886 -2.3863 0
M  V30 2141 H 200.588 2.35021 -3.23427 0
M  V30 2142 H 202.028 3.25274 -2.7198 0
M  V30 2143 C 200.487 3.13315 -1.23837 0
M  V30 2144 O 201.017 3.98077 -0.538268 0
M  V30 2145 N 199.223 2.72742 -1.00301 0
M  V30 2146 H 198.77 2.03912 -1.5741 0
M  V30 2147 H 198.728 3.13507 -0.236838 0
M  V30 2148 N 202.5 1.5196 0.417844 0
M  V30 2149 C 203.777 1.56146 1.17803 0
M  V30 2150 C 204.157 0.337275 2.08388 0
M  V30 2151 O 203.505 -0.676447 2.18258 0
M  V30 2152 C 203.715 2.88566 1.96293 0
M  V30 2153 C 205.063 3.41244 2.52662 0
M  V30 2154 O 206.087 2.90247 2.06483 0
M  V30 2155 O 204.946 4.30273 3.36938 0
M  V30 2156 H 202.04 0.628598 0.537395 0
M  V30 2157 H 204.586 1.64283 0.425331 0
M  V30 2158 H 203.358 3.69116 1.2988 0
M  V30 2159 H 202.981 2.83681 2.78587 0
M  V30 2160 N 203.978 -0.674533 1.42435 0
M  V30 2161 C 205.227 -1.43034 1.42212 0
M  V30 2162 C 205.54 -1.95555 0.0420788 0
M  V30 2163 O 206.746 -2.71374 -0.0827558 0
M  V30 2164 C 205.202 -2.58748 2.50155 0
M  V30 2165 C 204.81 -2.12925 3.94166 0
M  V30 2166 C 206.554 -3.36257 2.59098 0
M  V30 2167 C 204.461 -3.25723 4.93618 0
M  V30 2168 H 203.391 -0.537345 0.528939 0
M  V30 2169 H 206.042 -0.73024 1.68344 0
M  V30 2170 H 204.424 -3.31128 2.17188 0
M  V30 2171 H 205.598 -1.47697 4.36488 0
M  V30 2172 H 203.913 -1.48354 3.89076 0
M  V30 2173 H 206.51 -4.20264 3.30578 0
M  V30 2174 H 206.853 -3.82866 1.63461 0
M  V30 2175 H 207.386 -2.70947 2.9126 0
M  V30 2176 H 204.125 -2.84105 5.90732 0
M  V30 2177 H 203.645 -3.89732 4.55926 0
M  V30 2178 H 205.324 -3.91186 5.15347 0
M  V30 2179 N 205.456 -1.28612 -0.910864 0
M  V30 2180 C 206.702 -1.16106 -1.66274 0
M  V30 2181 C 207.035 0.289113 -1.92036 0
M  V30 2182 O 206.31 1.21 -1.52281 0
M  V30 2183 C 206.593 -1.96309 -3.01885 0
M  V30 2184 C 206.446 -3.49405 -2.8326 0
M  V30 2185 C 207.765 -1.78076 -4.02463 0
M  V30 2186 H 204.884 -0.423152 -0.603417 0
M  V30 2187 H 207.526 -1.57961 -1.05586 0
M  V30 2188 H 205.676 -1.60742 -3.53687 0
M  V30 2189 H 207.348 -3.94894 -2.38446 0
M  V30 2190 H 205.591 -3.74893 -2.18261 0
M  V30 2191 H 206.262 -4.00784 -3.79574 0
M  V30 2192 H 208.738 -2.0912 -3.59733 0
M  V30 2193 H 207.614 -2.36561 -4.95308 0
M  V30 2194 H 207.875 -0.733008 -4.35981 0
M  V30 2195 N 206.934 1.1197 -1.10907 0
M  V30 2196 C 208.162 1.87402 -0.876824 0
M  V30 2197 C 208.577 1.79894 0.573025 0
M  V30 2198 O 207.934 1.17629 1.39534 0
M  V30 2199 C 207.985 3.36428 -1.32282 0
M  V30 2200 O 207.706 3.43765 -2.71582 0
M  V30 2201 C 209.207 4.28783 -1.12518 0
M  V30 2202 H 206.427 0.592793 -0.314384 0
M  V30 2203 H 208.971 1.41649 -1.47499 0
M  V30 2204 H 207.126 3.79706 -0.768229 0
M  V30 2205 H 207.54 4.3652 -2.90776 0
M  V30 2206 H 209.014 5.31613 -1.48633 0
M  V30 2207 H 209.491 4.39153 -0.0642394 0
M  V30 2208 H 210.097 3.91291 -1.66648 0
M  V30 2209 N 208.412 0.89855 1.29475 0
M  V30 2210 C 209.66 0.522847 1.9522 0
M  V30 2211 C 209.981 -0.93371 1.71192 0
M  V30 2212 O 209.251 -1.65823 1.04305 0
M  V30 2213 H 207.831 0.190366 0.722336 0
M  V30 2214 H 210.493 1.14459 1.5775 0
M  V30 2215 H 209.589 0.704476 3.04045 0
M  V30 2216 N 209.89 -1.43072 0.660911 0
M  V30 2217 C 211.138 -2.01323 0.177094 0
M  V30 2218 C 211.459 -1.5245 -1.2159 0
M  V30 2219 O 210.729 -0.740322 -1.81373 0
M  V30 2220 H 209.309 -0.744382 0.0624804 0
M  V30 2221 H 211.971 -1.75179 0.854305 0
M  V30 2222 H 211.067 -3.11649 0.167641 0
M  V30 2223 N 211.368 -0.403325 -1.52352 0
M  V30 2224 C 212.645 0.232611 -1.94212 0
M  V30 2225 C 213.025 1.63133 -1.33981 0
M  V30 2226 O 212.373 2.22659 -0.513344 0
M  V30 2227 C 212.583 0.244811 -3.4814 0
M  V30 2228 C 213.931 0.46698 -4.22024 0
M  V30 2229 O 214.955 0.324419 -3.5472 0
M  V30 2230 O 213.814 0.74747 -5.41364 0
M  V30 2231 H 210.908 0.148223 -0.813609 0
M  V30 2232 H 213.454 -0.458848 -1.63379 0
M  V30 2233 H 212.226 -0.734378 -3.84347 0
M  V30 2234 H 211.849 0.980611 -3.85318 0
M  V30 2235 N 212.846 1.57033 -0.133567 0
M  V30 2236 C 214.095 1.94861 0.520768 0
M  V30 2237 C 214.408 1.02012 1.66892 0
M  V30 2238 O 215.614 1.29365 2.38699 0
M  V30 2239 C 214.07 3.46362 0.977809 0
M  V30 2240 C 213.678 4.47773 -0.142674 0
M  V30 2241 C 215.422 3.93083 1.60269 0
M  V30 2242 C 213.329 5.90468 0.331883 0
M  V30 2243 H 212.259 0.727453 0.198315 0
M  V30 2244 H 214.91 1.82227 -0.215759 0
M  V30 2245 H 213.292 3.54282 1.7692 0
M  V30 2246 H 214.466 4.51536 -0.919317 0
M  V30 2247 H 212.781 4.10891 -0.675124 0
M  V30 2248 H 215.378 4.97121 1.96914 0
M  V30 2249 H 215.721 3.33876 2.48662 0
M  V30 2250 H 216.254 3.88025 0.876453 0
M  V30 2251 H 212.993 6.53463 -0.516341 0
M  V30 2252 H 212.513 5.90094 1.07469 0
M  V30 2253 H 214.192 6.42179 0.788332 0
M  V30 2254 N 214.325 -0.140222 1.56975 0
M  V30 2255 C 215.572 -0.851687 1.83719 0
M  V30 2256 C 215.9 -1.80862 0.715485 0
M  V30 2257 O 215.155 -1.93464 -0.294956 0
M  V30 2258 C 215.454 -1.65386 3.16832 0
M  V30 2259 C 215.12 -0.843112 4.42947 0
M  V30 2260 C 213.782 -0.619464 4.77196 0
M  V30 2261 C 216.134 -0.276582 5.20466 0
M  V30 2262 C 213.462 0.181312 5.8642 0
M  V30 2263 C 215.814 0.51127 6.30531 0
M  V30 2264 C 214.478 0.745432 6.63325 0
M  V30 2265 H 213.748 -0.311654 0.672274 0
M  V30 2266 H 216.395 -0.115006 1.91154 0
M  V30 2267 H 214.7 -2.46084 3.04877 0
M  V30 2268 H 216.397 -2.20793 3.34741 0
M  V30 2269 H 212.987 -1.0275 4.16101 0
M  V30 2270 H 217.171 -0.436632 4.94376 0
M  V30 2271 H 212.427 0.372165 6.10266 0
M  V30 2272 H 216.601 0.957354 6.89788 0
M  V30 2273 H 214.228 1.36778 7.47794 0
M  V30 2274 N 215.803 -1.52179 -0.40978 0
M  V30 2275 C 217.051 -1.65878 -1.15451 0
M  V30 2276 C 217.372 -0.390771 -1.91044 0
M  V30 2277 O 216.642 0.594323 -1.86667 0
M  V30 2278 H 215.222 -0.611405 -0.429177 0
M  V30 2279 H 217.884 -1.89219 -0.467134 0
M  V30 2280 H 216.98 -2.49954 -1.86894 0
M  V30 2281 N 217.281 0.66697 -1.42791 0
M  V30 2282 C 218.528 1.42699 -1.43678 0
M  V30 2283 C 218.856 1.94419 -0.0560425 0
M  V30 2284 O 218.111 1.7182 0.936831 0
M  V30 2285 C 218.41 2.6349 -2.4147 0
M  V30 2286 C 218.076 2.30267 -3.8767 0
M  V30 2287 C 216.738 2.20918 -4.27491 0
M  V30 2288 C 219.09 2.03435 -4.79858 0
M  V30 2289 C 216.418 1.82873 -5.57471 0
M  V30 2290 C 218.77 1.66892 -6.10188 0
M  V30 2291 C 217.434 1.56058 -6.49001 0
M  V30 2292 H 216.704 0.522171 -0.525755 0
M  V30 2293 H 219.351 0.759785 -1.75783 0
M  V30 2294 H 217.656 3.35279 -2.0272 0
M  V30 2295 H 219.353 3.21684 -2.39417 0
M  V30 2296 H 215.943 2.38449 -3.56146 0
M  V30 2297 H 220.127 2.09586 -4.49875 0
M  V30 2298 H 215.383 1.7306 -5.86396 0
M  V30 2299 H 219.557 1.45157 -6.81104 0
M  V30 2300 H 217.184 1.26348 -7.49627 0
M  V30 2301 N 218.759 1.29093 0.90403 0
M  V30 2302 C 220.005 1.16986 1.65656 0
M  V30 2303 C 220.338 -0.278925 1.92186 0
M  V30 2304 O 219.613 -1.2019 1.5292 0
M  V30 2305 C 219.896 1.97908 3.0084 0
M  V30 2306 C 219.749 3.50903 2.81403 0
M  V30 2307 C 221.068 1.80208 4.01513 0
M  V30 2308 H 218.187 0.426346 0.601164 0
M  V30 2309 H 220.829 1.58518 1.04747 0
M  V30 2310 H 218.979 1.62616 3.52829 0
M  V30 2311 H 220.651 3.96153 2.36348 0
M  V30 2312 H 218.894 3.76045 2.1627 0
M  V30 2313 H 219.565 4.02791 3.77443 0
M  V30 2314 H 222.041 2.11025 3.58619 0
M  V30 2315 H 220.917 2.39184 4.94047 0
M  V30 2316 H 221.178 0.756119 4.35586 0
M  V30 2317 N 220.237 -1.11381 1.11499 0
M  V30 2318 C 221.514 -1.7955 0.775965 0
M  V30 2319 C 221.894 -1.97859 -0.73588 0
M  V30 2320 O 221.242 -1.56376 -1.66609 0
M  V30 2321 C 221.452 -3.13196 1.53977 0
M  V30 2322 C 222.8 -3.88227 1.71944 0
M  V30 2323 O 223.824 -3.22887 1.50407 0
M  V30 2324 O 222.683 -5.05477 2.07738 0
M  V30 2325 H 219.777 -0.777728 0.28119 0
M  V30 2326 H 222.323 -1.18118 1.21845 0
M  V30 2327 H 221.095 -2.95229 2.56818 0
M  V30 2328 H 220.718 -3.82342 1.09088 0
M  V30 2329 N 221.715 -0.905404 -1.28997 0
M  V30 2330 C 222.625 -0.392246 -2.31298 0
M  V30 2331 C 223.641 0.515889 -1.66176 0
M  V30 2332 O 224.817 0.404093 -1.97304 0
M  V30 2333 C 221.882 0.36686 -3.44754 0
M  V30 2334 C 220.943 -0.573485 -4.25452 0
M  V30 2335 C 220.176 0.149488 -5.33491 0
M  V30 2336 O 220.399 1.37255 -5.5364 0
M  V30 2337 O 219.333 -0.510919 -5.99728 0
M  V30 2338 H 223.159 -1.2411 -2.77183 0
M  V30 2339 H 220.744 -0.669926 -1.33538 0
M  V30 2340 H 222.626 0.795907 -4.13816 0
M  V30 2341 H 221.301 1.19169 -3.00966 0
M  V30 2342 H 220.208 -1.05176 -3.59011 0
M  V30 2343 H 221.541 -1.36489 -4.72897 0
M  V30 2344 N 223.193 1.4272 -0.668489 0
M  V30 2345 C 224.141 2.32586 0.0254857 0
M  V30 2346 C 225.135 1.49471 0.797176 0
M  V30 2347 O 226.341 1.65583 0.705853 0
M  V30 2348 H 222.716 0.751514 0.0270339 0
M  V30 2349 H 224.687 2.88823 -0.749936 0
M  V30 2350 C 223.436 3.3397 0.967427 0
M  V30 2351 H 222.759 3.97961 0.383048 0
M  V30 2352 H 224.199 3.9945 1.42181 0
M  V30 2353 C 222.658 2.65744 2.0708 0
M  V30 2354 O 223.188 2.48454 3.15648 0
M  V30 2355 N 221.394 2.2487 1.8407 0
M  V30 2356 H 220.941 2.39132 0.95778 0
M  V30 2357 H 220.899 1.79552 2.58086 0
M  V30 2358 N 224.671 0.411399 1.52136 0
M  V30 2359 C 225.618 -0.412975 2.27075 0
M  V30 2360 C 226.588 -1.03912 1.29582 0
M  V30 2361 O 227.773 -1.06296 1.58448 0
M  V30 2362 C 224.913 -1.52247 3.09701 0
M  V30 2363 C 224.026 -0.917021 4.22155 0
M  V30 2364 C 223.161 -1.9994 4.92135 0
M  V30 2365 C 222.2 -1.37101 5.96548 0
M  V30 2366 N 221.337 -2.39364 6.60038 0
M  V30 2367 H 226.177 0.232499 2.97092 0
M  V30 2368 H 223.714 0.126496 1.46555 0
M  V30 2369 H 225.672 -2.17674 3.55913 0
M  V30 2370 H 224.302 -2.13794 2.41851 0
M  V30 2371 H 223.354 -0.151742 3.80097 0
M  V30 2372 H 224.666 -0.418006 4.97045 0
M  V30 2373 H 223.82 -2.73088 5.41763 0
M  V30 2374 H 222.559 -2.53208 4.16818 0
M  V30 2375 H 221.564 -0.624873 5.46237 0
M  V30 2376 H 222.789 -0.845998 6.7381 0
M  V30 2377 H 220.735 -2.91759 5.87548 0
M  V30 2378 H 220.652 -1.9428 7.3061 0
M  V30 2379 H 221.92 -3.12074 7.14304 0
M  V30 2380 N 226.149 -1.5696 0.141893 0
M  V30 2381 C 227.079 -2.19516 -0.795936 0
M  V30 2382 C 228.06 -1.14187 -1.26077 0
M  V30 2383 O 229.245 -1.42511 -1.31925 0
M  V30 2384 C 226.375 -2.81272 -2.03723 0
M  V30 2385 C 225.329 -3.92384 -1.70936 0
M  V30 2386 C 224.655 -4.41052 -3.02287 0
M  V30 2387 C 225.955 -5.13403 -0.959954 0
M  V30 2388 H 227.649 -2.98138 -0.274596 0
M  V30 2389 H 225.195 -1.43406 -0.130636 0
M  V30 2390 H 227.148 -3.237 -2.69808 0
M  V30 2391 H 225.872 -1.99973 -2.58221 0
M  V30 2392 H 224.531 -3.50566 -1.07232 0
M  V30 2393 H 224.179 -3.56582 -3.54765 0
M  V30 2394 H 223.879 -5.15993 -2.81114 0
M  V30 2395 H 225.403 -4.86146 -3.69451 0
M  V30 2396 H 226.817 -5.52706 -1.52279 0
M  V30 2397 H 225.214 -5.94073 -0.848357 0
M  V30 2398 H 226.284 -4.84875 0.0492434 0
M  V30 2399 N 227.627 0.131896 -1.57047 0
M  V30 2400 C 228.874 0.841932 -1.84168 0
M  V30 2401 C 229.202 1.8048 -0.725066 0
M  V30 2402 O 228.457 1.93618 0.284692 0
M  V30 2403 C 228.756 1.63703 -3.17704 0
M  V30 2404 C 228.422 0.81961 -4.43388 0
M  V30 2405 C 227.084 0.594148 -4.77518 0
M  V30 2406 C 229.436 0.248977 -5.20605 0
M  V30 2407 C 226.764 -0.212409 -5.86315 0
M  V30 2408 C 229.116 -0.544701 -6.30251 0
M  V30 2409 C 227.78 -0.780599 -6.6292 0
M  V30 2410 H 227.05 0.308085 -0.673917 0
M  V30 2411 H 229.697 0.104867 -1.91213 0
M  V30 2412 H 228.002 2.44464 -3.06177 0
M  V30 2413 H 229.699 2.19015 -3.35907 0
M  V30 2414 H 226.289 1.00542 -4.16641 0
M  V30 2415 H 230.473 0.410408 -4.946 0
M  V30 2416 H 225.729 -0.404524 -6.1006 0
M  V30 2417 H 229.903 -0.993922 -6.89271 0
M  V30 2418 H 227.53 -1.40742 -7.47058 0
M  V30 2419 N 229.106 1.52395 0.401703 0
M  V30 2420 C 230.053 1.76268 1.48991 0
M  V30 2421 C 231.023 0.605386 1.54675 0
M  V30 2422 O 232.208 0.843742 1.7113 0
M  V30 2423 C 229.348 1.92592 2.86361 0
M  V30 2424 C 228.461 3.20259 2.89928 0
M  V30 2425 C 227.596 3.26972 4.18644 0
M  V30 2426 C 226.635 4.48812 4.16214 0
M  V30 2427 N 225.772 4.52877 5.36514 0
M  V30 2428 H 230.612 2.6914 1.27935 0
M  V30 2429 H 228.149 1.33355 0.620871 0
M  V30 2430 H 230.107 2.0004 3.66115 0
M  V30 2431 H 228.737 1.03093 3.05895 0
M  V30 2432 H 227.789 3.21945 2.02621 0
M  V30 2433 H 229.101 4.10056 2.83999 0
M  V30 2434 H 228.255 3.33533 5.06794 0
M  V30 2435 H 226.994 2.35126 4.27278 0
M  V30 2436 H 225.999 4.4239 3.26453 0
M  V30 2437 H 227.224 5.41961 4.09213 0
M  V30 2438 H 225.17 3.63917 5.45802 0
M  V30 2439 H 225.087 5.36529 5.32609 0
M  V30 2440 H 226.355 4.63676 6.26597 0
M  V30 2441 N 230.584 -0.659388 1.43143 0
M  V30 2442 C 231.494 -1.80167 1.50256 0
M  V30 2443 C 232.51 -1.69571 0.390106 0
M  V30 2444 O 233.686 -1.90849 0.643319 0
M  V30 2445 C 230.751 -3.16409 1.41725 0
M  V30 2446 C 229.812 -3.38848 2.63591 0
M  V30 2447 C 229.045 -4.68591 2.55458 0
M  V30 2448 O 229.268 -5.47532 1.59891 0
M  V30 2449 O 228.202 -4.92614 3.45854 0
M  V30 2450 H 232.028 -1.77121 2.46702 0
M  V30 2451 H 229.613 -0.817092 1.25076 0
M  V30 2452 H 231.495 -3.9768 1.39387 0
M  V30 2453 H 230.17 -3.20059 0.484118 0
M  V30 2454 H 229.077 -2.57366 2.71502 0
M  V30 2455 H 230.41 -3.4004 3.55856 0
M  V30 2456 N 232.062 -1.29571 -0.897171 0
M  V30 2457 C 233.012 -1.11539 -1.98855 0
M  V30 2458 C 233.996 -0.0340716 -1.60864 0
M  V30 2459 O 235.188 -0.256062 -1.75138 0
M  V30 2460 C 232.317 -0.796603 -3.3393 0
M  V30 2461 C 231.403 -1.91758 -3.78272 0
M  V30 2462 N 231.794 -3.16143 -3.94826 0
M  V30 2463 C 230.092 -1.81119 -4.07568 0
M  V30 2464 C 230.793 -3.89293 -4.32233 0
M  V30 2465 N 229.769 -3.17255 -4.41419 0
M  V30 2466 H 233.571 -2.05894 -2.09726 0
M  V30 2467 H 231.085 -1.20732 -1.08616 0
M  V30 2468 H 233.082 -0.648459 -4.11826 0
M  V30 2469 H 231.742 0.139003 -3.24402 0
M  V30 2470 H 232.753 -3.5157 -3.80288 0
M  V30 2471 H 229.43 -0.948461 -4.06584 0
M  V30 2472 H 230.82 -4.9635 -4.52865 0
M  V30 2473 N 233.54 1.10788 -1.12088 0
M  V30 2474 C 234.487 2.17025 -0.785407 0
M  V30 2475 C 235.457 1.64265 0.246191 0
M  V30 2476 O 236.642 1.90412 0.121584 0
M  V30 2477 C 233.782 3.44249 -0.242177 0
M  V30 2478 C 232.895 4.1098 -1.33115 0
M  V30 2479 C 232.03 5.25911 -0.747741 0
M  V30 2480 C 231.069 5.84538 -1.81609 0
M  V30 2481 N 230.206 6.90853 -1.25167 0
M  V30 2482 H 235.046 2.45066 -1.69548 0
M  V30 2483 H 232.583 1.20297 -0.846582 0
M  V30 2484 H 234.541 4.17101 0.0908026 0
M  V30 2485 H 233.171 3.16571 0.631072 0
M  V30 2486 H 232.223 3.36133 -1.78097 0
M  V30 2487 H 233.535 4.50601 -2.13917 0
M  V30 2488 H 232.689 6.056 -0.365216 0
M  V30 2489 H 231.428 4.87614 0.0915188 0
M  V30 2490 H 230.433 5.03522 -2.20785 0
M  V30 2491 H 231.658 6.249 -2.6585 0
M  V30 2492 H 229.604 6.54562 -0.434174 0
M  V30 2493 H 229.521 7.29166 -1.99633 0
M  V30 2494 H 230.789 7.7433 -0.896259 0
M  V30 2495 N 235.018 0.912232 1.28515 0
M  V30 2496 C 236.267 0.540504 1.94323 0
M  V30 2497 C 236.58 -0.920044 1.72611 0
M  V30 2498 O 237.786 -1.39986 2.32629 0
M  V30 2499 C 236.242 0.915803 3.48053 0
M  V30 2500 C 235.85 2.39598 3.78546 0
M  V30 2501 C 237.594 0.614588 4.20027 0
M  V30 2502 C 235.501 2.71148 5.25578 0
M  V30 2503 H 234.431 0.198418 0.727424 0
M  V30 2504 H 237.082 1.11094 1.46049 0
M  V30 2505 H 235.464 0.274168 3.9505 0
M  V30 2506 H 236.638 3.08422 3.42364 0
M  V30 2507 H 234.953 2.66749 3.1974 0
M  V30 2508 H 237.55 0.827002 5.28266 0
M  V30 2509 H 237.893 -0.447531 4.13887 0
M  V30 2510 H 238.426 1.21462 3.78803 0
M  V30 2511 H 235.165 3.76207 5.36794 0
M  V30 2512 H 234.685 2.0696 5.62963 0
M  V30 2513 H 236.364 2.58072 5.93302 0
M  V30 2514 N 236.496 -1.42363 0.676048 0
M  V30 2515 C 237.429 -2.28141 -0.0516916 0
M  V30 2516 C 238.407 -1.41135 -0.807439 0
M  V30 2517 O 239.591 -1.70573 -0.802305 0
M  V30 2518 C 236.718 -3.21007 -1.08039 0
M  V30 2519 C 235.764 -4.24426 -0.420076 0
M  V30 2520 S 236.597 -5.29134 0.823246 0
M  V30 2521 C 237.753 -6.25566 -0.204344 0
M  V30 2522 H 237.986 -2.89515 0.675884 0
M  V30 2523 H 235.519 -1.47211 0.465635 0
M  V30 2524 H 237.477 -3.75048 -1.66881 0
M  V30 2525 H 236.138 -2.58766 -1.78042 0
M  V30 2526 H 235.331 -4.89596 -1.19633 0
M  V30 2527 H 234.933 -3.7388 0.0947845 0
M  V30 2528 H 237.225 -6.69098 -1.06369 0
M  V30 2529 H 238.168 -7.06895 0.412915 0
M  V30 2530 H 238.576 -5.61811 -0.55038 0
M  V30 2531 N 237.974 -0.419461 -1.51915 0
M  V30 2532 C 238.937 0.389116 -2.25873 0
M  V30 2533 C 239.937 0.964924 -1.28631 0
M  V30 2534 O 241.127 0.842179 -1.52489 0
M  V30 2535 C 238.259 1.54874 -3.03689 0
M  V30 2536 H 239.452 -0.258799 -2.98781 0
M  V30 2537 H 237.005 -0.172209 -1.55348 0
M  V30 2538 H 237.74 2.23323 -2.35154 0
M  V30 2539 H 237.525 1.14223 -3.75094 0
M  V30 2540 H 239.015 2.12046 -3.59759 0
M  V30 2541 N 239.452 1.56882 -0.150215 0
M  V30 2542 C 240.863 1.82995 0.370076 0
M  V30 2543 C 241.214 1.06907 1.64515 0
M  V30 2544 O 240.339 0.315369 2.1409 0
M  V30 2545 C 240.934 3.31942 0.678208 0
M  V30 2546 C 239.493 3.58625 1.14301 0
M  V30 2547 C 238.64 2.76792 0.167778 0
M  V30 2548 H 241.591 1.54209 -0.374858 0
M  V30 2549 H 241.612 3.48272 1.53254 0
M  V30 2550 H 241.124 3.87294 -0.249991 0
M  V30 2551 H 239.225 3.08664 2.08704 0
M  V30 2552 H 239.338 4.67073 1.06676 0
M  V30 2553 H 237.702 2.45972 0.661037 0
M  V30 2554 H 238.485 3.34916 -0.754069 0
M  V30 2555 N 240.93 -0.123565 1.57115 0
M  V30 2556 C 242.341 -0.681198 1.73829 0
M  V30 2557 C 242.692 -1.80535 0.768214 0
M  V30 2558 O 241.817 -2.16317 -0.0599103 0
M  V30 2559 C 242.412 -1.24246 3.15196 0
M  V30 2560 C 240.971 -1.74643 3.33432 0
M  V30 2561 C 240.118 -0.644284 2.69711 0
M  V30 2562 H 243.069 0.102315 1.5837 0
M  V30 2563 H 243.09 -2.11216 3.16493 0
M  V30 2564 H 242.602 -0.424062 3.85776 0
M  V30 2565 H 240.703 -2.58974 2.67886 0
M  V30 2566 H 240.816 -1.85902 4.41562 0
M  V30 2567 H 239.18 -1.07676 2.3082 0
M  V30 2568 H 239.963 0.163058 3.42913 0
M  V30 2569 N 242.408 -1.52605 -0.393616 0
M  V30 2570 C 243.356 -1.77688 -1.50099 0
M  V30 2571 C 244.35 -0.644615 -1.56656 0
M  V30 2572 O 245.556 -0.826997 -1.59877 0
M  V30 2573 H 241.931 -0.562159 -0.499481 0
M  V30 2574 H 243.902 -2.7043 -1.26135 0
M  V30 2575 C 242.651 -1.95858 -2.87289 0
M  V30 2576 H 241.974 -2.8241 -2.82992 0
M  V30 2577 H 243.414 -2.174 -3.64024 0
M  V30 2578 C 241.873 -0.729848 -3.28899 0
M  V30 2579 O 242.403 0.0949217 -4.01588 0
M  V30 2580 N 240.609 -0.561283 -2.85128 0
M  V30 2581 H 240.156 -1.23357 -2.26143 0
M  V30 2582 H 240.114 0.2595 -3.13327 0
M  V30 2583 N 243.887 0.651787 -1.4349 0
M  V30 2584 C 244.85 1.74647 -1.48429 0
M  V30 2585 C 245.85 1.56513 -0.368817 0
M  V30 2586 O 247.04 1.62385 -0.630623 0
M  V30 2587 C 244.172 3.13533 -1.33827 0
M  V30 2588 H 245.365 1.71649 -2.4592 0
M  V30 2589 H 242.918 0.863573 -1.30277 0
M  V30 2590 H 243.653 3.22142 -0.37349 0
M  V30 2591 H 243.438 3.28101 -2.14691 0
M  V30 2592 H 244.928 3.93356 -1.40218 0
M  V30 2593 N 245.365 1.30045 0.890287 0
M  V30 2594 C 246.312 1.15976 1.99545 0
M  V30 2595 C 247.282 0.0506202 1.66023 0
M  V30 2596 O 248.467 0.219847 1.89529 0
M  V30 2597 C 245.607 0.852054 3.34416 0
M  V30 2598 C 244.72 2.04255 3.80662 0
M  V30 2599 C 243.855 1.6734 5.04154 0
M  V30 2600 C 242.894 2.82916 5.42794 0
M  V30 2601 N 242.031 2.46333 6.57468 0
M  V30 2602 H 246.871 2.10524 2.10911 0
M  V30 2603 H 244.408 1.04749 1.03276 0
M  V30 2604 H 246.366 0.654296 4.12037 0
M  V30 2605 H 244.996 -0.0565502 3.2275 0
M  V30 2606 H 244.048 2.35172 2.98995 0
M  V30 2607 H 245.36 2.90826 4.05242 0
M  V30 2608 H 244.514 1.43908 5.89386 0
M  V30 2609 H 243.253 0.779308 4.81433 0
M  V30 2610 H 242.258 3.0702 4.56091 0
M  V30 2611 H 243.483 3.73004 5.6749 0
M  V30 2612 H 241.429 1.59423 6.36334 0
M  V30 2613 H 241.346 3.26436 6.81891 0
M  V30 2614 H 242.614 2.26244 7.45945 0
M  V30 2615 N 246.843 -1.10192 1.12674 0
M  V30 2616 C 248.091 -1.81845 0.881861 0
M  V30 2617 C 248.412 -1.85737 -0.593867 0
M  V30 2618 O 247.682 -1.33724 -1.4316 0
M  V30 2619 H 246.262 -0.673432 0.323261 0
M  V30 2620 H 248.924 -1.33316 1.42172 0
M  V30 2621 H 248.02 -2.85288 1.2656 0
M  V30 2622 N 248.321 -0.919034 -1.28029 0
M  V30 2623 C 249.737 -0.617972 -1.4715 0
M  V30 2624 C 249.937 0.835242 -1.83374 0
M  V30 2625 O 248.993 1.61388 -1.94191 0
M  V30 2626 C 250.306 -1.56041 -2.57044 0
M  V30 2627 C 251.854 -1.56769 -2.7091 0
M  V30 2628 C 252.329 -2.49688 -3.83953 0
M  V30 2629 N 253.82 -2.47845 -3.91314 0
M  V30 2630 C 254.555 -3.16437 -4.78179 0
M  V30 2631 N 254.051 -3.94376 -5.69596 0
M  V30 2632 N 255.844 -3.05498 -4.71834 0
M  V30 2633 H 247.995 -1.85866 -1.02798 0
M  V30 2634 H 250.258 -0.797506 -0.512531 0
M  V30 2635 H 249.964 -2.59671 -2.372 0
M  V30 2636 H 249.838 -1.29551 -3.54255 0
M  V30 2637 H 252.225 -0.538745 -2.90141 0
M  V30 2638 H 252.306 -1.87305 -1.74214 0
M  V30 2639 H 251.95 -3.52688 -3.65477 0
M  V30 2640 H 251.88 -2.16453 -4.80058 0
M  V30 2641 H 254.371 -1.91234 -3.25941 0
M  V30 2642 H 254.684 -4.43721 -6.32718 0
M  V30 2643 H 253.029 -3.98481 -5.69419 0
M  V30 2644 H 256.22 -2.44108 -3.99411 0
M  V30 2645 H 256.393 -3.59225 -5.39316 0
M  V30 2646 N 249.799 1.42003 -0.683588 0
M  V30 2647 C 250.729 2.33487 -0.024866 0
M  V30 2648 C 251.71 1.51163 0.779975 0
M  V30 2649 O 252.895 1.79739 0.735362 0
M  V30 2650 C 250.025 3.3487 0.920836 0
M  V30 2651 C 248.979 4.27414 0.223958 0
M  V30 2652 C 248.305 5.19074 1.2832 0
M  V30 2653 C 249.605 5.14445 -0.90242 0
M  V30 2654 H 251.299 2.88819 -0.788921 0
M  V30 2655 H 248.845 1.38873 -0.38083 0
M  V30 2656 H 250.798 3.97787 1.39081 0
M  V30 2657 H 249.522 2.77861 1.71642 0
M  V30 2658 H 248.181 3.65904 -0.225864 0
M  V30 2659 H 247.829 4.58387 2.071 0
M  V30 2660 H 247.529 5.81822 0.821995 0
M  V30 2661 H 249.053 5.84867 1.75392 0
M  V30 2662 H 250.467 5.70998 -0.513272 0
M  V30 2663 H 248.864 5.86072 -1.28997 0
M  V30 2664 H 249.934 4.52322 -1.74737 0
M  V30 2665 N 251.277 0.427512 1.51691 0
M  V30 2666 C 252.505 -0.141191 2.06418 0
M  V30 2667 C 252.92 -1.37303 1.29589 0
M  V30 2668 O 252.277 -1.79059 0.352732 0
M  V30 2669 C 252.328 -0.473266 3.58389 0
M  V30 2670 O 252.049 0.709673 4.32314 0
M  V30 2671 C 253.55 -1.09371 4.29596 0
M  V30 2672 H 250.77 -0.0122747 0.670888 0
M  V30 2673 H 253.314 0.603764 1.95384 0
M  V30 2674 H 251.469 -1.16812 3.69369 0
M  V30 2675 H 251.883 0.42807 5.2275 0
M  V30 2676 H 253.357 -1.27613 5.37046 0
M  V30 2677 H 253.834 -2.072 3.87253 0
M  V30 2678 H 254.44 -0.43853 4.23033 0
M  V30 2679 N 252.755 -1.56801 0.158532 0
M  V30 2680 C 253.985 -2.00568 -0.495583 0
M  V30 2681 C 254.393 -1.03774 -1.58201 0
M  V30 2682 O 253.736 -0.0285797 -1.83678 0
M  V30 2683 C 253.798 -3.40768 -1.14532 0
M  V30 2684 C 253.462 -4.56553 -0.202101 0
M  V30 2685 C 254.459 -5.16714 0.574675 0
M  V30 2686 C 252.144 -5.02197 -0.101648 0
M  V30 2687 C 254.138 -6.20939 1.43924 0
M  V30 2688 C 251.825 -6.06274 0.766508 0
M  V30 2689 C 252.823 -6.65515 1.53555 0
M  V30 2690 O 252.511 -7.67575 2.38922 0
M  V30 2691 H 252.243 -0.662893 -0.13247 0
M  V30 2692 H 254.797 -2.03829 0.253559 0
M  V30 2693 H 253.027 -3.34381 -1.94233 0
M  V30 2694 H 254.716 -3.6857 -1.70033 0
M  V30 2695 H 255.482 -4.82341 0.507167 0
M  V30 2696 H 251.361 -4.55807 -0.689994 0
M  V30 2697 H 254.905 -6.67107 2.03996 0
M  V30 2698 H 250.802 -6.40073 0.835266 0
M  V30 2699 H 251.57 -7.84844 2.32296 0
M  V30 2700 N 254.233 0.115231 -1.57178 0
M  V30 2701 C 255.482 0.820945 -1.84237 0
M  V30 2702 C 255.795 1.80866 -0.744761 0
M  V30 2703 O 257.001 2.56083 -0.901871 0
M  V30 2704 C 255.457 1.51072 -3.26658 0
M  V30 2705 C 255.065 0.563795 -4.44438 0
M  V30 2706 C 256.809 2.20134 -3.62962 0
M  V30 2707 C 254.716 1.25701 -5.77887 0
M  V30 2708 H 253.646 0.310328 -0.687177 0
M  V30 2709 H 256.297 0.0737134 -1.83352 0
M  V30 2710 H 254.679 2.30471 -3.22024 0
M  V30 2711 H 255.853 -0.197247 -4.60378 0
M  V30 2712 H 254.168 -0.0200638 -4.16395 0
M  V30 2713 H 256.765 2.72696 -4.59936 0
M  V30 2714 H 257.108 2.98107 -2.90582 0
M  V30 2715 H 257.641 1.47619 -3.69396 0
M  V30 2716 H 254.38 0.518493 -6.53446 0
M  V30 2717 H 253.9 1.98997 -5.65827 0
M  V30 2718 H 255.579 1.78915 -6.2177 0
M  V30 2719 N 255.711 1.52812 0.385517 0
M  V30 2720 C 256.674 1.77188 1.45386 0
M  V30 2721 C 257.674 0.641953 1.4743 0
M  V30 2722 O 258.864 0.910033 1.4854 0
M  V30 2723 C 255.996 1.87582 2.8465 0
M  V30 2724 H 257.189 2.72583 1.25054 0
M  V30 2725 H 254.742 1.43586 0.617467 0
M  V30 2726 H 255.477 0.941849 3.10322 0
M  V30 2727 H 255.262 2.69748 2.84567 0
M  V30 2728 H 256.752 2.08102 3.62054 0
M  V30 2729 N 257.189 -0.644168 1.43834 0
M  V30 2730 C 258.6 -1.22554 1.40845 0
M  V30 2731 C 258.951 -1.9585 0.117115 0
M  V30 2732 O 258.076 -2.01734 -0.783086 0
M  V30 2733 C 258.671 -2.22907 2.55143 0
M  V30 2734 C 257.23 -2.76501 2.5539 0
M  V30 2735 C 256.377 -1.51287 2.32396 0
M  V30 2736 H 259.328 -0.43563 1.52604 0
M  V30 2737 H 259.349 -3.05259 2.2715 0
M  V30 2738 H 258.861 -1.69533 3.49114 0
M  V30 2739 H 256.962 -3.33914 1.65324 0
M  V30 2740 H 257.075 -3.23429 3.53455 0
M  V30 2741 H 255.439 -1.78957 1.81236 0
M  V30 2742 H 256.222 -0.998336 3.28463 0
M  V30 2743 N 258.668 -1.30515 -0.883378 0
M  V30 2744 C 259.945 -1.10086 -1.6168 0
M  V30 2745 C 260.325 0.349269 -2.08191 0
M  V30 2746 O 259.673 1.34105 -1.85008 0
M  V30 2747 C 259.883 -2.10315 -2.78511 0
M  V30 2748 C 261.231 -2.42119 -3.48803 0
M  V30 2749 O 262.255 -2.08638 -2.88702 0
M  V30 2750 O 261.114 -2.99396 -4.57192 0
M  V30 2751 H 258.208 -0.422907 -0.710689 0
M  V30 2752 H 260.754 -1.41947 -0.930015 0
M  V30 2753 H 259.526 -3.07917 -2.41459 0
M  V30 2754 H 259.149 -1.79282 -3.54886 0
M  V30 2755 N 260.146 1.09593 -1.13257 0
M  V30 2756 C 261.394 1.81375 -0.891492 0
M  V30 2757 C 261.715 1.86049 0.584009 0
M  V30 2758 O 260.985 1.34481 1.42449 0
M  V30 2759 H 259.565 0.671708 -0.326828 0
M  V30 2760 H 262.227 1.3256 -1.42877 0
M  V30 2761 H 261.323 2.84612 -1.28071 0
M  V30 2762 N 261.624 0.925811 1.2754 0
M  V30 2763 C 262.849 0.580924 1.99098 0
M  V30 2764 C 263.274 -0.833555 1.68622 0
M  V30 2765 O 262.632 -1.55903 0.925422 0
M  V30 2766 C 262.68 0.811186 3.51358 0
M  V30 2767 O 261.784 -0.124129 4.12213 0
M  V30 2768 H 261.125 0.223873 0.625122 0
M  V30 2769 H 263.655 1.24455 1.62395 0
M  V30 2770 H 263.665 0.72601 4.01489 0
M  V30 2771 H 262.34 1.84227 3.72872 0
M  V30 2772 H 260.917 0.0108006 3.72898 0
M  V30 2773 N 263.102 -1.41638 0.69111 0
M  V30 2774 C 264.332 -2.0533 0.228758 0
M  V30 2775 C 264.74 -1.52089 -1.12541 0
M  V30 2776 O 264.083 -0.662145 -1.71351 0
M  V30 2777 C 264.145 -3.59349 0.10407 0
M  V30 2778 C 263.809 -4.35362 1.38956 0
M  V30 2779 C 264.806 -4.64942 2.32648 0
M  V30 2780 C 262.491 -4.74714 1.64169 0
M  V30 2781 C 264.485 -5.32828 3.49818 0
M  V30 2782 C 262.172 -5.42338 2.81625 0
M  V30 2783 C 263.17 -5.71322 3.74273 0
M  V30 2784 O 262.858 -6.37554 4.89673 0
M  V30 2785 H 262.59 -0.667796 0.104997 0
M  V30 2786 H 265.144 -1.82477 0.942938 0
M  V30 2787 H 263.374 -3.80924 -0.665839 0
M  V30 2788 H 265.063 -4.04633 -0.320519 0
M  V30 2789 H 265.829 -4.35025 2.14425 0
M  V30 2790 H 261.708 -4.51538 0.929202 0
M  V30 2791 H 265.252 -5.55368 4.22152 0
M  V30 2792 H 261.149 -5.71673 2.99768 0
M  V30 2793 H 261.917 -6.56049 4.8943 0
M  V30 2794 N 264.58 -0.43555 -1.51462 0
M  V30 2795 C 265.808 0.130242 -2.0649 0
M  V30 2796 C 266.223 1.36614 -1.30315 0
M  V30 2797 O 265.58 1.78869 -0.362223 0
M  V30 2798 C 265.631 0.454253 -3.58635 0
M  V30 2799 O 265.352 -0.73259 -4.31931 0
M  V30 2800 C 266.853 1.07091 -4.3017 0
M  V30 2801 H 264.073 0.00871669 -0.670943 0
M  V30 2802 H 266.617 -0.614117 -1.95061 0
M  V30 2803 H 264.772 1.14851 -3.69984 0
M  V30 2804 H 265.186 -0.455787 -5.22516 0
M  V30 2805 H 266.66 1.24764 -5.37716 0
M  V30 2806 H 267.137 2.05144 -3.88346 0
M  V30 2807 H 267.743 0.416089 -4.2326 0
M  V30 2808 N 266.058 1.56714 -0.166846 0
M  V30 2809 C 266.988 2.20754 0.760913 0
M  V30 2810 C 267.969 1.16178 1.24244 0
M  V30 2811 O 269.154 1.44592 1.29641 0
M  V30 2812 C 266.284 2.84478 1.99223 0
M  V30 2813 C 265.238 3.95053 1.64672 0
M  V30 2814 C 264.564 4.45805 2.95232 0
M  V30 2815 C 265.864 5.14865 0.878155 0
M  V30 2816 H 267.558 2.98537 0.22713 0
M  V30 2817 H 265.104 1.43596 0.107805 0
M  V30 2818 H 267.057 3.27951 2.64624 0
M  V30 2819 H 265.781 2.04056 2.55007 0
M  V30 2820 H 264.44 3.52228 1.01641 0
M  V30 2821 H 264.088 3.62181 3.49047 0
M  V30 2822 H 263.788 5.204 2.7287 0
M  V30 2823 H 265.312 4.91962 3.6167 0
M  V30 2824 H 266.726 5.55059 1.43466 0
M  V30 2825 H 265.123 5.95348 0.753738 0
M  V30 2826 H 266.193 4.84735 -0.126377 0
M  V30 2827 N 267.536 -0.106894 1.57237 0
M  V30 2828 C 268.483 -1.13049 2.01217 0
M  V30 2829 C 269.453 -1.40471 0.886403 0
M  V30 2830 O 270.638 -1.52133 1.15153 0
M  V30 2831 C 267.778 -2.4487 2.43172 0
M  V30 2832 C 266.891 -2.24281 3.69218 0
M  V30 2833 C 266.026 -3.49417 4.00101 0
M  V30 2834 C 265.065 -3.24038 5.19294 0
M  V30 2835 N 264.202 -4.41409 5.45988 0
M  V30 2836 H 269.042 -0.748456 2.88448 0
M  V30 2837 H 266.579 -0.358054 1.42676 0
M  V30 2838 H 268.537 -3.21786 2.65537 0
M  V30 2839 H 267.167 -2.80944 1.58967 0
M  V30 2840 H 266.219 -1.38224 3.54398 0
M  V30 2841 H 267.531 -2.01512 4.56283 0
M  V30 2842 H 266.685 -4.34746 4.2318 0
M  V30 2843 H 265.424 -3.75229 3.11535 0
M  V30 2844 H 264.429 -2.37102 4.96047 0
M  V30 2845 H 265.654 -2.99584 6.09447 0
M  V30 2846 H 263.6 -4.67319 4.60379 0
M  V30 2847 H 263.517 -4.21788 6.274 0
M  V30 2848 H 264.785 -5.27836 5.73593 0
M  V30 2849 N 269.014 -1.53014 -0.377408 0
M  V30 2850 C 270.291 -1.59215 -1.13622 0
M  V30 2851 C 270.671 -0.392407 -2.07421 0
M  V30 2852 O 270.019 0.618342 -2.19975 0
M  V30 2853 C 270.229 -2.93669 -1.88573 0
M  V30 2854 C 271.577 -3.47822 -2.43526 0
M  V30 2855 O 272.601 -2.9562 -1.98715 0
M  V30 2856 O 271.46 -4.39055 -3.25412 0
M  V30 2857 H 268.554 -0.642625 -0.52054 0
M  V30 2858 H 271.1 -1.65353 -0.381625 0
M  V30 2859 H 269.872 -3.7243 -1.20048 0
M  V30 2860 H 269.495 -2.90968 -2.70968 0
M  V30 2861 N 270.492 0.636531 -1.44174 0
M  V30 2862 C 271.439 1.74875 -1.50624 0
M  V30 2863 C 272.409 1.62275 -0.35442 0
M  V30 2864 O 273.594 1.82276 -0.563908 0
M  V30 2865 C 270.734 3.13102 -1.45125 0
M  V30 2866 C 269.847 3.36717 -2.7064 0
M  V30 2867 C 268.982 4.64885 -2.57013 0
M  V30 2868 C 268.021 4.8166 -3.77717 0
M  V30 2869 N 267.158 6.01101 -3.62798 0
M  V30 2870 H 271.998 1.68697 -2.45653 0
M  V30 2871 H 269.535 0.823004 -1.21922 0
M  V30 2872 H 271.493 3.93034 -1.39929 0
M  V30 2873 H 270.123 3.18308 -0.536671 0
M  V30 2874 H 269.175 2.50763 -2.86046 0
M  V30 2875 H 270.487 3.44993 -3.60252 0
M  V30 2876 H 269.641 5.52969 -2.49619 0
M  V30 2877 H 268.38 4.58957 -1.64953 0
M  V30 2878 H 267.385 3.92007 -3.85501 0
M  V30 2879 H 268.61 4.89406 -4.70807 0
M  V30 2880 H 266.556 5.96273 -2.73486 0
M  V30 2881 H 266.473 6.10409 -4.46023 0
M  V30 2882 H 267.741 6.91761 -3.59286 0
M  V30 2883 N 271.97 1.30982 0.876444 0
M  V30 2884 C 273.219 1.19658 1.62373 0
M  V30 2885 C 273.532 -0.245636 1.94052 0
M  V30 2886 O 274.738 -0.48049 2.67214 0
M  V30 2887 C 273.194 2.09433 2.92687 0
M  V30 2888 C 272.802 3.58613 2.68516 0
M  V30 2889 C 274.546 2.06893 3.70669 0
M  V30 2890 C 272.453 4.40416 3.94699 0
M  V30 2891 H 271.383 0.444268 0.609214 0
M  V30 2892 H 274.034 1.55791 0.969605 0
M  V30 2893 H 272.416 1.66191 3.59439 0
M  V30 2894 H 273.59 4.10058 2.10212 0
M  V30 2895 H 271.905 3.63063 2.03898 0
M  V30 2896 H 274.502 2.65258 4.64265 0
M  V30 2897 H 274.845 1.05448 4.02724 0
M  V30 2898 H 275.378 2.48301 3.10792 0
M  V30 2899 H 272.117 5.42591 3.67798 0
M  V30 2900 H 271.637 3.93731 4.52477 0
M  V30 2901 H 273.316 4.52294 4.62644 0
M  V30 2902 N 273.449 -1.08991 1.13837 0
M  V30 2903 C 274.696 -1.81258 0.902882 0
M  V30 2904 C 275.024 -1.85936 -0.570803 0
M  V30 2905 O 274.279 -1.3267 -1.43865 0
M  V30 2906 C 274.578 -3.27042 1.44147 0
M  V30 2907 C 274.244 -3.4249 2.93276 0
M  V30 2908 C 272.906 -3.46414 3.33992 0
M  V30 2909 C 275.258 -3.4666 3.892 0
M  V30 2910 C 272.586 -3.52091 4.69307 0
M  V30 2911 C 274.938 -3.53872 5.24364 0
M  V30 2912 C 273.602 -3.56066 5.646 0
M  V30 2913 H 272.872 -0.663268 0.330388 0
M  V30 2914 H 275.519 -1.28368 1.42105 0
M  V30 2915 H 273.824 -3.82599 0.844097 0
M  V30 2916 H 275.521 -3.81499 1.23528 0
M  V30 2917 H 272.111 -3.40124 2.60794 0
M  V30 2918 H 276.295 -3.42865 3.58828 0
M  V30 2919 H 271.551 -3.52079 4.9985 0
M  V30 2920 H 275.725 -3.56043 5.98503 0
M  V30 2921 H 273.352 -3.60218 6.69438 0
M  V30 2922 N 274.927 -0.932562 -1.27047 0
M  V30 2923 C 275.837 -0.441219 -2.30414 0
M  V30 2924 C 276.853 0.480525 -1.67233 0
M  V30 2925 O 278.029 0.362151 -1.98117 0
M  V30 2926 C 275.094 0.293651 -3.45454 0
M  V30 2927 C 274.155 -0.663601 -4.2414 0
M  V30 2928 C 273.388 0.0362932 -5.33688 0
M  V30 2929 O 273.611 1.2548 -5.56427 0
M  V30 2930 O 272.545 -0.638015 -5.98509 0
M  V30 2931 H 276.371 -1.29962 -2.74488 0
M  V30 2932 H 273.956 -0.6981 -1.32087 0
M  V30 2933 H 275.838 0.707951 -4.15411 0
M  V30 2934 H 274.513 1.12758 -3.03426 0
M  V30 2935 H 273.42 -1.12768 -3.56699 0
M  V30 2936 H 274.753 -1.46489 -4.69896 0
M  V30 2937 N 276.405 1.4127 -0.698611 0
M  V30 2938 C 277.335 2.33447 -0.049629 0
M  V30 2939 C 278.316 1.51982 0.763898 0
M  V30 2940 O 279.501 1.80509 0.716257 0
M  V30 2941 C 276.631 3.35828 0.885267 0
M  V30 2942 C 275.585 4.27627 0.178613 0
M  V30 2943 C 274.911 5.20406 1.22807 0
M  V30 2944 C 276.211 5.13459 -0.956933 0
M  V30 2945 H 277.905 2.87966 -0.81951 0
M  V30 2946 H 275.451 1.38461 -0.395538 0
M  V30 2947 H 277.404 3.9924 1.34854 0
M  V30 2948 H 276.128 2.79666 1.68685 0
M  V30 2949 H 274.787 3.65643 -0.26466 0
M  V30 2950 H 274.435 4.60558 2.02226 0
M  V30 2951 H 274.135 5.82661 0.760239 0
M  V30 2952 H 275.659 5.86695 1.69179 0
M  V30 2953 H 277.073 5.70421 -0.573805 0
M  V30 2954 H 275.47 5.8467 -1.35205 0
M  V30 2955 H 276.54 4.50443 -1.79524 0
M  V30 2956 N 277.883 0.443576 1.51229 0
M  V30 2957 C 278.793 -0.370721 2.31652 0
M  V30 2958 C 279.809 -1.02186 1.40833 0
M  V30 2959 O 280.985 -1.01586 1.73903 0
M  V30 2960 C 278.05 -1.45376 3.14749 0
M  V30 2961 C 277.111 -0.822099 4.21355 0
M  V30 2962 C 276.344 -1.85353 5.0048 0
M  V30 2963 O 276.567 -3.07656 4.80316 0
M  V30 2964 O 275.501 -1.4406 5.84406 0
M  V30 2965 H 279.327 0.286002 3.0235 0
M  V30 2966 H 276.912 0.20598 1.47973 0
M  V30 2967 H 278.794 -2.08173 3.66391 0
M  V30 2968 H 277.469 -2.09445 2.46809 0
M  V30 2969 H 276.376 -0.155909 3.73775 0
M  V30 2970 H 277.709 -0.224797 4.91686 0
M  V30 2971 N 279.361 -1.56624 0.175154 0
M  V30 2972 C 280.591 -2.01082 -0.474283 0
M  V30 2973 C 280.999 -1.05447 -1.57091 0
M  V30 2974 O 280.342 -0.0480595 -1.83637 0
M  V30 2975 C 280.404 -3.41963 -1.10911 0
M  V30 2976 C 280.068 -4.56742 -0.153666 0
M  V30 2977 C 281.065 -5.16076 0.629448 0
M  V30 2978 C 278.75 -5.02277 -0.0483776 0
M  V30 2979 C 280.744 -6.19377 1.50501 0
M  V30 2980 C 278.431 -6.05427 0.830768 0
M  V30 2981 C 279.429 -6.63849 1.60605 0
M  V30 2982 O 279.117 -7.64998 2.47049 0
M  V30 2983 H 278.849 -0.664261 -0.125432 0
M  V30 2984 H 281.403 -2.03549 0.275163 0
M  V30 2985 H 279.633 -3.36422 -1.90676 0
M  V30 2986 H 281.322 -3.70352 -1.66114 0
M  V30 2987 H 282.088 -4.81776 0.558297 0
M  V30 2988 H 277.967 -4.56513 -0.641611 0
M  V30 2989 H 281.511 -6.64906 2.1106 0
M  V30 2990 H 277.408 -6.39151 0.903107 0
M  V30 2991 H 278.176 -7.82336 2.40607 0
M  V30 2992 N 280.839 0.0985539 -1.57292 0
M  V30 2993 C 281.771 1.14595 -1.98496 0
M  V30 2994 C 282.784 1.36512 -0.887031 0
M  V30 2995 O 283.973 1.35225 -1.16518 0
M  V30 2996 C 281.073 2.50216 -2.28572 0
M  V30 2997 C 280.246 2.48624 -3.59868 0
M  V30 2998 C 279.305 3.66146 -3.7792 0
M  V30 2999 O 278.331 3.48795 -4.49812 0
M  V30 3000 N 279.533 4.85496 -3.18235 0
M  V30 3001 H 282.298 0.795277 -2.88956 0
M  V30 3002 H 279.859 0.287579 -1.59325 0
M  V30 3003 H 281.851 3.27432 -2.37845 0
M  V30 3004 H 280.421 2.77387 -1.44136 0
M  V30 3005 H 279.641 1.56978 -3.61596 0
M  V30 3006 H 280.929 2.44635 -4.46129 0
M  V30 3007 H 280.327 5.02497 -2.59833 0
M  V30 3008 H 278.884 5.60317 -3.32999 0
M  V30 3009 N 282.317 1.53212 0.369288 0
M  V30 3010 C 283.565 1.68881 1.11012 0
M  V30 3011 C 283.886 0.441285 1.89941 0
M  V30 3012 O 283.156 -0.544623 1.88177 0
M  V30 3013 H 281.736 0.622569 0.412816 0
M  V30 3014 H 284.398 1.90391 0.416802 0
M  V30 3015 H 283.494 2.54822 1.80201 0
M  V30 3016 N 283.795 -0.628877 1.44509 0
M  V30 3017 C 284.742 -1.74074 1.51549 0
M  V30 3018 C 285.712 -1.62084 0.363021 0
M  V30 3019 O 286.897 -1.81975 0.573567 0
M  V30 3020 C 284.037 -3.12328 1.46784 0
M  V30 3021 C 283.15 -3.35277 2.72422 0
M  V30 3022 C 282.285 -4.63515 2.59475 0
M  V30 3023 C 281.324 -4.7965 3.80266 0
M  V30 3024 N 280.461 -5.99168 3.65981 0
M  V30 3025 H 285.301 -1.67392 2.46544 0
M  V30 3026 H 282.838 -0.816527 1.22357 0
M  V30 3027 H 284.796 -3.92286 1.42012 0
M  V30 3028 H 283.426 -3.18018 0.553544 0
M  V30 3029 H 282.478 -2.49242 2.87372 0
M  V30 3030 H 283.79 -3.43078 3.62076 0
M  V30 3031 H 282.944 -5.51638 2.52548 0
M  V30 3032 H 281.683 -4.58076 1.67384 0
M  V30 3033 H 280.688 -3.89957 3.87574 0
M  V30 3034 H 281.913 -4.86902 4.73395 0
M  V30 3035 H 279.859 -5.94814 2.76644 0
M  V30 3036 H 279.776 -6.08035 4.49254 0
M  V30 3037 H 281.044 -6.89846 3.6295 0
M  V30 3038 N 285.273 -1.31445 -0.869486 0
M  V30 3039 C 286.22 -1.19135 -1.97675 0
M  V30 3040 C 287.19 -0.0770266 -1.65921 0
M  V30 3041 O 288.375 -0.249972 -1.89155 0
M  V30 3042 C 285.515 -0.905149 -3.33018 0
M  V30 3043 C 284.628 -2.10285 -3.77365 0
M  V30 3044 C 283.763 -1.75339 -5.01427 0
M  V30 3045 C 282.802 -2.91515 -5.38224 0
M  V30 3046 N 281.939 -2.56762 -6.53466 0
M  V30 3047 H 286.779 -2.13853 -2.07535 0
M  V30 3048 H 284.316 -1.06379 -1.01597 0
M  V30 3049 H 286.274 -0.719765 -4.10944 0
M  V30 3050 H 284.904 0.00519624 -3.228 0
M  V30 3051 H 283.956 -2.39899 -2.95216 0
M  V30 3052 H 285.268 -2.97237 -4.00564 0
M  V30 3053 H 284.422 -1.53266 -5.87022 0
M  V30 3054 H 283.161 -0.855801 -4.80133 0
M  V30 3055 H 282.166 -3.14237 -4.51149 0
M  V30 3056 H 283.391 -3.81985 -5.61484 0
M  V30 3057 H 281.337 -1.69526 -6.33717 0
M  V30 3058 H 281.254 -3.37243 -6.76612 0
M  V30 3059 H 282.522 -2.38083 -7.42251 0
M  V30 3060 N 286.751 1.08385 -1.14413 0
M  V30 3061 C 287.981 1.8425 -0.934644 0
M  V30 3062 C 288.389 1.81907 0.520234 0
M  V30 3063 O 287.732 1.22126 1.37226 0
M  V30 3064 C 287.794 3.32853 -1.35828 0
M  V30 3065 C 287.458 3.5893 -2.82875 0
M  V30 3066 C 288.455 3.53756 -3.80989 0
M  V30 3067 C 286.14 3.86934 -3.20293 0
M  V30 3068 C 288.134 3.76216 -5.14529 0
M  V30 3069 C 285.821 4.09047 -4.54008 0
M  V30 3070 C 286.819 4.03682 -5.50936 0
M  V30 3071 O 286.507 4.25214 -6.82238 0
M  V30 3072 H 286.239 0.588502 -0.332628 0
M  V30 3073 H 288.793 1.37792 -1.52324 0
M  V30 3074 H 287.023 3.8007 -0.713019 0
M  V30 3075 H 288.712 3.90154 -1.11957 0
M  V30 3076 H 289.478 3.32135 -3.53428 0
M  V30 3077 H 285.357 3.9023 -2.45442 0
M  V30 3078 H 288.901 3.71943 -5.90173 0
M  V30 3079 H 284.798 4.30151 -4.8129 0
M  V30 3080 H 285.566 4.42619 -6.88499 0
M  V30 3081 N 288.23 0.939286 1.26551 0
M  V30 3082 C 289.458 0.602536 1.97932 0
M  V30 3083 C 289.873 -0.82206 1.69964 0
M  V30 3084 O 289.23 -1.54789 0.966784 0
M  V30 3085 C 289.281 0.832946 3.51773 0
M  V30 3086 O 289.002 2.20151 3.78768 0
M  V30 3087 C 290.503 0.506483 4.40397 0
M  V30 3088 H 287.723 0.227248 0.631347 0
M  V30 3089 H 290.267 1.25948 1.61113 0
M  V30 3090 H 288.422 0.222644 3.8676 0
M  V30 3091 H 288.836 2.26013 4.73306 0
M  V30 3092 H 290.31 0.718333 5.47306 0
M  V30 3093 H 290.787 -0.558451 4.35635 0
M  V30 3094 H 291.393 1.09543 4.10951 0
M  V30 3095 N 289.708 -1.40897 0.706093 0
M  V30 3096 C 290.938 -2.05075 0.250523 0
M  V30 3097 C 291.346 -1.53275 -1.10921 0
M  V30 3098 O 290.689 -0.680281 -1.7064 0
M  V30 3099 C 290.751 -3.59219 0.142178 0
M  V30 3100 C 290.415 -4.33864 1.43566 0
M  V30 3101 C 291.412 -4.62448 2.37566 0
M  V30 3102 C 289.097 -4.72946 1.69195 0
M  V30 3103 C 291.091 -5.29088 3.5545 0
M  V30 3104 C 288.778 -5.3932 2.87362 0
M  V30 3105 C 289.776 -5.6732 3.80312 0
M  V30 3106 O 289.464 -6.32325 4.96408 0
M  V30 3107 H 289.196 -0.666645 0.112074 0
M  V30 3108 H 291.75 -1.81467 0.962239 0
M  V30 3109 H 289.98 -3.81609 -0.6254 0
M  V30 3110 H 291.669 -4.0495 -0.277584 0
M  V30 3111 H 292.435 -4.32727 2.19027 0
M  V30 3112 H 288.314 -4.50527 0.977042 0
M  V30 3113 H 291.858 -5.50859 4.28018 0
M  V30 3114 H 287.755 -5.68461 3.05814 0
M  V30 3115 H 288.523 -6.50821 4.9636 0
M  V30 3116 N 291.186 -0.45159 -1.50991 0
M  V30 3117 C 292.434 0.109857 -2.01801 0
M  V30 3118 C 292.755 1.41958 -1.3369 0
M  V30 3119 O 292.025 1.9003 -0.475951 0
M  V30 3120 H 290.605 0.0435884 -0.745727 0
M  V30 3121 H 293.267 -0.597557 -1.85514 0
M  V30 3122 H 292.363 0.275489 -3.10882 0
M  V30 3123 N 292.664 1.56529 -0.183458 0
M  V30 3124 C 293.594 2.21549 0.737456 0
M  V30 3125 C 294.575 1.17489 1.23005 0
M  V30 3126 O 295.76 1.45959 1.281 0
M  V30 3127 C 292.89 2.86575 1.96194 0
M  V30 3128 C 291.844 3.96778 1.60473 0
M  V30 3129 C 291.17 4.48911 2.90487 0
M  V30 3130 C 292.47 5.15767 0.823497 0
M  V30 3131 H 294.164 2.98761 0.195453 0
M  V30 3132 H 291.71 1.43702 0.0925686 0
M  V30 3133 H 293.663 3.30739 2.61131 0
M  V30 3134 H 292.387 2.06749 2.52828 0
M  V30 3135 H 291.046 3.53286 0.978997 0
M  V30 3136 H 290.694 3.65862 3.45186 0
M  V30 3137 H 290.394 5.23265 2.67335 0
M  V30 3138 H 291.918 4.95771 3.56432 0
M  V30 3139 H 293.332 5.56549 1.37571 0
M  V30 3140 H 291.729 5.96114 0.690551 0
M  V30 3141 H 292.799 4.84574 -0.177782 0
M  V30 3142 N 294.142 -0.090211 1.57342 0
M  V30 3143 C 295.367 -0.810082 1.90925 0
M  V30 3144 C 295.792 -1.71248 0.778187 0
M  V30 3145 O 295.15 -1.79278 -0.269991 0
M  V30 3146 C 295.198 -1.59529 3.23393 0
M  V30 3147 O 294.302 -2.70461 3.11327 0
M  V30 3148 H 293.643 -0.222231 0.625707 0
M  V30 3149 H 296.173 -0.0639716 2.045 0
M  V30 3150 H 296.183 -1.97847 3.5682 0
M  V30 3151 H 294.858 -0.933055 4.05299 0
M  V30 3152 H 293.435 -2.35135 2.89423 0
M  V30 3153 N 295.62 -1.53406 -0.361157 0
M  V30 3154 C 296.57 -1.76536 -1.44287 0
M  V30 3155 C 297.554 -0.620019 -1.48474 0
M  V30 3156 O 298.746 -0.878834 -1.53641 0
M  V30 3157 C 295.875 -1.96266 -2.81664 0
M  V30 3158 C 294.961 -3.16815 -2.81938 0
M  V30 3159 N 295.352 -4.38637 -2.51855 0
M  V30 3160 C 293.65 -3.17627 -3.13096 0
M  V30 3161 C 294.351 -5.20401 -2.59919 0
M  V30 3162 N 293.327 -4.56712 -2.94814 0
M  V30 3163 H 297.129 -2.68331 -1.19899 0
M  V30 3164 H 294.643 -1.52091 -0.56938 0
M  V30 3165 H 296.64 -2.10966 -3.59582 0
M  V30 3166 H 295.3 -1.05702 -3.07013 0
M  V30 3167 H 296.311 -4.66293 -2.25369 0
M  V30 3168 H 292.988 -2.36971 -3.43731 0
M  V30 3169 H 294.378 -6.27586 -2.39969 0
M  V30 3170 N 297.098 0.621204 -1.44841 0
M  V30 3171 C 298.028 1.74366 -1.55303 0
M  V30 3172 C 299.009 1.65199 -0.405385 0
M  V30 3173 O 300.194 1.83807 -0.626787 0
M  V30 3174 C 297.324 3.12931 -1.50637 0
M  V30 3175 C 296.278 3.36896 -2.63979 0
M  V30 3176 C 295.604 4.75594 -2.44366 0
M  V30 3177 C 296.904 3.28483 -4.06074 0
M  V30 3178 H 298.598 1.65867 -2.49256 0
M  V30 3179 H 296.144 0.796558 -1.19962 0
M  V30 3180 H 298.097 3.9124 -1.56555 0
M  V30 3181 H 296.821 3.22237 -0.532057 0
M  V30 3182 H 295.48 2.60972 -2.57467 0
M  V30 3183 H 295.128 4.81616 -1.45105 0
M  V30 3184 H 294.828 4.92586 -3.20364 0
M  V30 3185 H 296.352 5.5612 -2.52117 0
M  V30 3186 H 297.766 3.96684 -4.13902 0
M  V30 3187 H 296.163 3.57008 -4.82354 0
M  V30 3188 H 297.233 2.26133 -4.28943 0
M  V30 3189 N 298.576 1.31904 0.862503 0
M  V30 3190 C 299.822 1.23207 1.61838 0
M  V30 3191 C 300.177 -0.206062 1.91293 0
M  V30 3192 O 299.47 -1.14162 1.53875 0
M  V30 3193 C 299.664 2.01713 2.95037 0
M  V30 3194 C 299.493 3.53014 2.78588 0
M  V30 3195 C 298.263 4.22359 2.77382 0
M  V30 3196 C 300.461 4.47819 2.52909 0
M  V30 3197 N 298.443 5.59766 2.52062 0
M  V30 3198 C 299.814 5.72947 2.36922 0
M  V30 3199 C 301.869 4.37162 2.38314 0
M  V30 3200 C 300.572 6.88623 2.07823 0
M  V30 3201 C 302.598 5.5263 2.10604 0
M  V30 3202 C 301.96 6.76752 1.95411 0
M  V30 3203 H 298.059 0.505984 0.596242 0
M  V30 3204 H 300.643 1.66179 1.01452 0
M  V30 3205 H 298.814 1.61098 3.53415 0
M  V30 3206 H 300.546 1.84975 3.59953 0
M  V30 3207 H 297.301 3.74401 2.90036 0
M  V30 3208 H 297.725 6.32135 2.42352 0
M  V30 3209 H 302.367 3.41857 2.48784 0
M  V30 3210 H 300.085 7.83948 1.9609 0
M  V30 3211 H 303.671 5.46307 2.00101 0
M  V30 3212 H 302.551 7.6459 1.74274 0
M  V30 3213 N 300.054 -1.07777 1.14986 0
M  V30 3214 C 301.465 -1.61766 0.932127 0
M  V30 3215 C 301.816 -1.88974 -0.527581 0
M  V30 3216 O 300.941 -1.65198 -1.39781 0
M  V30 3217 C 301.536 -2.93891 1.68563 0
M  V30 3218 C 300.095 -3.44639 1.5133 0
M  V30 3219 C 299.242 -2.18767 1.704 0
M  V30 3220 H 302.193 -0.909201 1.30074 0
M  V30 3221 H 302.214 -3.62623 1.15259 0
M  V30 3222 H 301.726 -2.74057 2.74799 0
M  V30 3223 H 299.827 -3.69564 0.474702 0
M  V30 3224 H 299.94 -4.20966 2.28746 0
M  V30 3225 H 298.304 -2.28253 1.13016 0
M  V30 3226 H 299.087 -2.01433 2.77992 0
M  V30 3227 N 301.532 -0.945985 -1.26051 0
M  V30 3228 C 302.778 -0.597002 -1.93814 0
M  V30 3229 C 303.111 0.862484 -1.73997 0
M  V30 3230 O 302.386 1.61769 -1.07986 0
M  V30 3231 C 302.669 -0.945937 -3.47454 0
M  V30 3232 C 302.522 -2.46052 -3.76535 0
M  V30 3233 C 303.841 -0.464785 -4.37639 0
M  V30 3234 H 300.96 -0.218366 -0.703907 0
M  V30 3235 H 303.602 -1.18107 -1.48831 0
M  V30 3236 H 301.752 -0.448902 -3.85898 0
M  V30 3237 H 303.424 -3.03065 -3.47778 0
M  V30 3238 H 301.667 -2.90194 -3.22444 0
M  V30 3239 H 302.338 -2.65517 -4.83947 0
M  V30 3240 H 304.814 -0.891016 -4.06448 0
M  V30 3241 H 303.69 -0.737712 -5.4392 0
M  V30 3242 H 303.951 0.635274 -4.37512 0
M  V30 3243 N 303.011 1.40521 -0.713556 0
M  V30 3244 C 304.427 1.54839 -0.386907 0
M  V30 3245 C 304.627 1.68532 1.1045 0
M  V30 3246 O 303.683 1.67377 1.89053 0
M  V30 3247 C 304.996 2.77792 -1.15118 0
M  V30 3248 C 306.544 2.91607 -1.13729 0
M  V30 3249 C 307.019 4.1747 -1.88368 0
M  V30 3250 N 308.51 4.24466 -1.85427 0
M  V30 3251 C 309.245 5.20755 -2.40004 0
M  V30 3252 N 308.741 6.22965 -3.03129 0
M  V30 3253 N 310.534 5.1282 -2.30158 0
M  V30 3254 H 302.685 1.29879 -1.68063 0
M  V30 3255 H 304.948 0.627896 -0.710247 0
M  V30 3256 H 304.654 2.73944 -2.20561 0
M  V30 3257 H 304.528 3.6984 -0.741477 0
M  V30 3258 H 306.915 2.94959 -0.0910608 0
M  V30 3259 H 306.996 2.00682 -1.5862 0
M  V30 3260 H 306.64 4.1488 -2.9298 0
M  V30 3261 H 306.57 5.074 -1.40898 0
M  V30 3262 H 309.061 3.51241 -1.3942 0
M  V30 3263 H 309.374 6.92859 -3.42295 0
M  V30 3264 H 307.719 6.23415 -3.07212 0
M  V30 3265 H 310.91 4.31899 -1.80501 0
M  V30 3266 H 311.083 5.87689 -2.72993 0
M  V30 3267 N 304.489 0.459591 1.5075 0
M  V30 3268 C 305.766 -0.160371 1.94941 0
M  V30 3269 C 306.146 -1.58048 1.39943 0
M  V30 3270 O 305.494 -2.206 0.595629 0
M  V30 3271 C 305.704 -0.115432 3.48809 0
M  V30 3272 C 307.052 -0.310026 4.23467 0
M  V30 3273 O 308.076 -0.192543 3.55679 0
M  V30 3274 O 306.935 -0.546031 5.43765 0
M  V30 3275 H 304.029 -0.117925 0.818549 0
M  V30 3276 H 306.575 0.519169 1.61563 0
M  V30 3277 H 305.347 0.87652 3.81357 0
M  V30 3278 H 304.97 -0.836928 3.88692 0
M  V30 3279 N 305.967 -1.56429 0.191757 0
M  V30 3280 C 307.378 -1.83912 -0.321428 0
M  V30 3281 C 307.729 -1.11231 -1.61623 0
M  V30 3282 O 306.854 -0.37202 -2.13178 0
M  V30 3283 C 307.449 -3.33624 -0.589961 0
M  V30 3284 C 306.008 -3.6153 -1.04753 0
M  V30 3285 C 305.155 -2.7714 -0.0943327 0
M  V30 3286 H 308.106 -1.53161 0.415612 0
M  V30 3287 H 308.127 -3.52213 -1.43966 0
M  V30 3288 H 307.639 -3.86495 0.352588 0
M  V30 3289 H 305.74 -3.14089 -2.00447 0
M  V30 3290 H 305.853 -4.69737 -0.942549 0
M  V30 3291 H 304.217 -2.47638 -0.595589 0
M  V30 3292 H 305 -3.32799 0.842601 0
M  V30 3293 N 307.445 0.0818655 -1.57387 0
M  V30 3294 C 308.861 0.436412 -1.53517 0
M  V30 3295 C 309.061 1.79758 -0.910459 0
M  V30 3296 O 308.117 2.47324 -0.508636 0
M  V30 3297 C 309.43 0.386734 -2.98203 0
M  V30 3298 C 310.978 0.467644 -3.09487 0
M  V30 3299 C 311.453 0.447978 -4.55804 0
M  V30 3300 N 312.944 0.508348 -4.60402 0
M  V30 3301 C 313.679 0.515184 -5.71081 0
M  V30 3302 N 313.175 0.477435 -6.91153 0
M  V30 3303 N 314.968 0.560988 -5.59294 0
M  V30 3304 H 307.119 -0.809546 -1.96367 0
M  V30 3305 H 309.382 -0.302733 -0.898363 0
M  V30 3306 H 309.088 -0.546539 -3.47427 0
M  V30 3307 H 308.962 1.20075 -3.57578 0
M  V30 3308 H 311.349 1.39134 -2.60242 0
M  V30 3309 H 311.43 -0.374753 -2.5304 0
M  V30 3310 H 311.074 -0.471826 -5.05704 0
M  V30 3311 H 311.004 1.30777 -5.10103 0
M  V30 3312 H 313.495 0.54218 -3.7399 0
M  V30 3313 H 313.808 0.486299 -7.71268 0
M  V30 3314 H 312.153 0.444278 -6.93579 0
M  V30 3315 H 315.344 0.5881 -4.64391 0
M  V30 3316 H 315.517 0.562846 -6.45551 0
M  V30 3317 N 308.923 1.53595 0.353017 0
M  V30 3318 C 310.334 1.61937 0.929153 0
M  V30 3319 C 310.685 0.494686 1.89861 0
M  V30 3320 O 309.81 -0.377017 2.1309 0
M  V30 3321 C 310.405 2.93526 1.69199 0
M  V30 3322 C 308.964 3.04161 2.21727 0
M  V30 3323 C 308.111 2.57322 1.03348 0
M  V30 3324 H 311.062 1.58155 0.131431 0
M  V30 3325 H 311.083 2.82034 2.55416 0
M  V30 3326 H 310.595 3.75362 0.986144 0
M  V30 3327 H 308.696 2.26938 2.95516 0
M  V30 3328 H 308.809 4.09465 2.48748 0
M  V30 3329 H 307.173 2.12499 1.40414 0
M  V30 3330 H 307.956 3.41588 0.342428 0
M  V30 3331 N 310.401 -0.613514 1.45168 0
M  V30 3332 C 311.647 -1.37471 1.49096 0
M  V30 3333 C 311.98 -1.93765 0.129901 0
M  V30 3334 O 311.255 -1.74707 -0.854858 0
M  V30 3335 C 311.538 -2.52701 2.56542 0
M  V30 3336 C 311.391 -2.01643 4.0207 0
M  V30 3337 C 312.71 -3.54849 2.60327 0
M  V30 3338 H 309.829 -0.498502 0.54283 0
M  V30 3339 H 312.471 -0.692125 1.76945 0
M  V30 3340 H 310.621 -3.10931 2.32926 0
M  V30 3341 H 312.293 -1.48108 4.36877 0
M  V30 3342 H 310.536 -1.32688 4.13009 0
M  V30 3343 H 311.207 -2.84681 4.72928 0
M  V30 3344 H 313.683 -3.0645 2.81474 0
M  V30 3345 H 312.559 -4.32973 3.37381 0
M  V30 3346 H 312.82 -4.10079 1.6519 0
M  V30 3347 N 311.879 -1.3236 -0.855495 0
M  V30 3348 C 312.809 -1.23833 -1.97958 0
M  V30 3349 C 313.79 -0.122361 -1.69659 0
M  V30 3350 O 314.975 -0.30939 -1.9172 0
M  V30 3351 C 312.105 -0.959772 -3.33775 0
M  V30 3352 C 311.059 -2.03689 -3.76424 0
M  V30 3353 C 310.385 -1.61075 -5.09862 0
M  V30 3354 C 311.685 -3.4518 -3.9198 0
M  V30 3355 H 313.379 -2.1788 -2.0535 0
M  V30 3356 H 310.925 -1.04891 -0.986605 0
M  V30 3357 H 312.878 -0.886678 -4.11966 0
M  V30 3358 H 311.602 0.0163404 -3.26596 0
M  V30 3359 H 310.261 -2.10012 -3.00484 0
M  V30 3360 H 309.909 -0.622107 -4.99138 0
M  V30 3361 H 309.609 -2.33143 -5.39368 0
M  V30 3362 H 311.133 -1.55201 -5.90546 0
M  V30 3363 H 312.547 -3.4145 -4.60526 0
M  V30 3364 H 310.944 -4.1559 -4.32903 0
M  V30 3365 H 312.014 -3.84903 -2.94919 0
M  V30 3366 N 313.357 1.07166 -1.15556 0
M  V30 3367 C 314.267 2.17947 -0.868116 0
M  V30 3368 C 315.283 1.73297 0.156297 0
M  V30 3369 O 316.459 2.01392 -0.0182327 0
M  V30 3370 C 313.524 3.44789 -0.36355 0
M  V30 3371 C 312.585 4.03996 -1.45209 0
M  V30 3372 C 311.818 5.24783 -0.971508 0
M  V30 3373 O 312.041 5.70109 0.182194 0
M  V30 3374 O 310.975 5.75715 -1.75603 0
M  V30 3375 H 314.801 2.4503 -1.79427 0
M  V30 3376 H 312.386 1.16539 -0.934824 0
M  V30 3377 H 314.268 4.21307 -0.0887113 0
M  V30 3378 H 312.943 3.19253 0.534708 0
M  V30 3379 H 311.85 3.29009 -1.78056 0
M  V30 3380 H 313.183 4.33808 -2.32533 0
M  V30 3381 N 314.835 0.952656 1.25548 0
M  V30 3382 C 315.782 0.47008 2.25962 0
M  V30 3383 C 316.752 -0.476384 1.59122 0
M  V30 3384 O 317.937 -0.39007 1.8677 0
M  V30 3385 C 315.077 -0.247881 3.44209 0
M  V30 3386 C 314.19 0.735591 4.25691 0
M  V30 3387 C 313.325 -0.0047306 5.312 0
M  V30 3388 C 312.364 0.969805 6.04368 0
M  V30 3389 N 311.501 0.260486 7.01617 0
M  V30 3390 H 316.341 1.33126 2.66611 0
M  V30 3391 H 313.878 0.66765 1.31076 0
M  V30 3392 H 315.836 -0.680695 4.1161 0
M  V30 3393 H 314.466 -1.07312 3.0444 0
M  V30 3394 H 313.518 1.28689 3.57971 0
M  V30 3395 H 314.83 1.47934 4.76358 0
M  V30 3396 H 313.984 -0.496275 6.04667 0
M  V30 3397 H 312.723 -0.781282 4.81401 0
M  V30 3398 H 311.728 1.47237 5.29718 0
M  V30 3399 H 312.953 1.74655 6.56256 0
M  V30 3400 H 310.899 -0.497364 6.54112 0
M  V30 3401 H 310.816 0.943362 7.50091 0
M  V30 3402 H 312.084 -0.209587 7.79218 0
M  V30 3403 N 316.313 -1.40141 0.720998 0
M  V30 3404 C 317.559 -2.01084 0.263231 0
M  V30 3405 C 317.892 -1.57052 -1.14229 0
M  V30 3406 O 317.167 -0.793027 -1.77599 0
M  V30 3407 C 317.45 -3.58401 0.349344 0
M  V30 3408 C 317.303 -4.12491 1.79363 0
M  V30 3409 C 318.622 -4.39231 -0.276351 0
M  V30 3410 H 315.741 -0.730572 0.0971228 0
M  V30 3411 H 318.383 -1.66543 0.914518 0
M  V30 3412 H 316.533 -3.87958 -0.205165 0
M  V30 3413 H 318.205 -3.93711 2.40394 0
M  V30 3414 H 316.448 -3.66576 2.31958 0
M  V30 3415 H 317.119 -5.21646 1.80524 0
M  V30 3416 H 319.595 -4.15637 0.196184 0
M  V30 3417 H 318.471 -5.48586 -0.185681 0
M  V30 3418 H 318.732 -4.20643 -1.36059 0
M  V30 3419 N 317.792 -0.46758 -1.50504 0
M  V30 3420 C 319.02 0.0864133 -2.06719 0
M  V30 3421 C 319.435 1.33819 -1.33184 0
M  V30 3422 O 318.792 1.78061 -0.400083 0
M  V30 3423 C 318.843 0.378079 -3.59517 0
M  V30 3424 O 318.564 -0.824044 -4.3028 0
M  V30 3425 C 320.065 0.979426 -4.32345 0
M  V30 3426 H 317.285 -0.00551697 -0.670977 0
M  V30 3427 H 319.829 -0.655354 -1.93715 0
M  V30 3428 H 317.984 1.06977 -3.72337 0
M  V30 3429 H 318.398 -0.566518 -5.21432 0
M  V30 3430 H 319.872 1.1333 -5.40241 0
M  V30 3431 H 320.349 1.9686 -3.9261 0
M  V30 3432 H 320.955 0.326216 -4.24047 0
M  V30 3433 N 319.27 1.56325 -0.20005 0
M  V30 3434 C 320.518 1.97329 0.436547 0
M  V30 3435 C 320.839 1.08826 1.61808 0
M  V30 3436 O 320.109 0.160604 1.95241 0
M  V30 3437 H 318.689 0.728714 0.164272 0
M  V30 3438 H 321.351 1.92761 -0.287937 0
M  V30 3439 H 320.447 3.02264 0.777353 0
M  V30 3440 N 320.748 -0.0735177 1.57428 0
M  V30 3441 C 322.025 -0.805903 1.78226 0
M  V30 3442 C 322.405 -1.95874 0.787189 0
M  V30 3443 O 321.753 -2.2779 -0.180029 0
M  V30 3444 C 321.963 -1.28045 3.24662 0
M  V30 3445 C 323.311 -1.71453 3.88444 0
M  V30 3446 O 324.335 -1.37616 3.28543 0
M  V30 3447 O 323.194 -2.34093 4.93825 0
M  V30 3448 H 320.288 -0.386041 0.73137 0
M  V30 3449 H 322.834 -0.0537269 1.69615 0
M  V30 3450 H 321.606 -0.455476 3.8864 0
M  V30 3451 H 321.229 -2.094 3.37991 0
M  V30 3452 N 322.226 -1.5378 -0.344866 0
M  V30 3453 C 323.454 -1.74899 -1.10534 0
M  V30 3454 C 323.869 -0.487534 -1.82397 0
M  V30 3455 O 323.226 0.540741 -1.74305 0
M  V30 3456 C 323.277 -2.92822 -2.11984 0
M  V30 3457 O 322.998 -4.14089 -1.43044 0
M  V30 3458 C 324.499 -3.25982 -3.00417 0
M  V30 3459 H 321.719 -0.584426 -0.329678 0
M  V30 3460 H 324.263 -2.006 -0.397474 0
M  V30 3461 H 322.418 -2.69457 -2.78338 0
M  V30 3462 H 322.832 -4.80272 -2.10805 0
M  V30 3463 H 324.306 -4.11848 -3.67539 0
M  V30 3464 H 324.783 -2.42228 -3.66363 0
M  V30 3465 H 325.389 -3.51349 -2.39654 0
M  V30 3466 N 323.704 0.605807 -1.45491 0
M  V30 3467 C 324.634 1.72709 -1.57143 0
M  V30 3468 C 325.615 1.6476 -0.422884 0
M  V30 3469 O 326.8 1.83132 -0.646247 0
M  V30 3470 C 323.93 3.11316 -1.53948 0
M  V30 3471 C 322.884 3.34077 -2.67537 0
M  V30 3472 C 322.21 4.72975 -2.49397 0
M  V30 3473 C 323.51 3.24158 -4.09535 0
M  V30 3474 H 325.204 1.63214 -2.51001 0
M  V30 3475 H 322.75 0.78379 -1.208 0
M  V30 3476 H 324.703 3.89557 -1.60696 0
M  V30 3477 H 323.427 3.21655 -0.566205 0
M  V30 3478 H 322.086 2.58227 -2.6022 0
M  V30 3479 H 321.734 4.8005 -1.50205 0
M  V30 3480 H 321.434 4.8916 -3.25571 0
M  V30 3481 H 322.958 5.53414 -2.58002 0
M  V30 3482 H 324.372 3.92271 -4.18086 0
M  V30 3483 H 322.769 3.51872 -4.86113 0
M  V30 3484 H 323.839 2.2157 -4.31317 0
M  V30 3485 N 325.182 1.32811 0.848464 0
M  V30 3486 C 326.112 1.24882 1.97299 0
M  V30 3487 C 327.093 0.131357 1.69592 0
M  V30 3488 O 328.278 0.319553 1.91553 0
M  V30 3489 C 325.408 0.97746 3.33261 0
M  V30 3490 C 324.362 2.05682 3.75338 0
M  V30 3491 C 323.688 1.63777 5.09 0
M  V30 3492 C 324.988 3.47254 3.90144 0
M  V30 3493 H 326.682 2.18966 2.04191 0
M  V30 3494 H 324.228 1.05413 0.981029 0
M  V30 3495 H 326.181 0.908513 4.1149 0
M  V30 3496 H 324.905 0.000980011 3.266 0
M  V30 3497 H 323.564 2.11603 2.99366 0
M  V30 3498 H 323.212 0.648569 4.98801 0
M  V30 3499 H 322.912 2.36 5.38124 0
M  V30 3500 H 324.436 1.5833 5.89715 0
M  V30 3501 H 325.85 3.43888 4.58709 0
M  V30 3502 H 324.247 4.1788 4.30693 0
M  V30 3503 H 325.317 3.86462 2.92874 0
M  V30 3504 N 326.66 -1.06551 1.16123 0
M  V30 3505 C 327.59 -2.15935 0.88851 0
M  V30 3506 C 328.571 -1.69306 -0.164135 0
M  V30 3507 O 329.756 -1.94193 -0.0167857 0
M  V30 3508 C 326.886 -3.45149 0.385942 0
M  V30 3509 C 325.84 -4.05271 1.3762 0
M  V30 3510 C 325.166 -5.29664 0.732137 0
M  V30 3511 C 326.466 -4.44355 2.74493 0
M  V30 3512 H 328.16 -2.39006 1.80323 0
M  V30 3513 H 325.706 -1.14866 0.868435 0
M  V30 3514 H 327.659 -4.21004 0.182647 0
M  V30 3515 H 326.383 -3.21689 -0.564274 0
M  V30 3516 H 325.042 -3.3147 1.56599 0
M  V30 3517 H 324.69 -5.02499 -0.224483 0
M  V30 3518 H 324.39 -5.70848 1.39307 0
M  V30 3519 H 325.914 -6.08218 0.538802 0
M  V30 3520 H 327.328 -5.11303 2.59311 0
M  V30 3521 H 325.725 -4.96515 3.37035 0
M  V30 3522 H 326.795 -3.55339 3.29943 0
M  V30 3523 N 328.138 -0.959301 -1.25041 0
M  V30 3524 C 329.366 -0.633949 -1.96948 0
M  V30 3525 C 329.781 0.794916 -1.7125 0
M  V30 3526 O 329.138 1.53231 -0.991287 0
M  V30 3527 C 329.189 -0.888805 -3.50403 0
M  V30 3528 O 328.91 -2.26149 -3.75218 0
M  V30 3529 C 330.411 -0.576482 -4.39536 0
M  V30 3530 H 327.631 -0.237263 -0.627652 0
M  V30 3531 H 330.175 -1.28495 -1.59089 0
M  V30 3532 H 328.33 -0.284145 -3.86357 0
M  V30 3533 H 328.744 -2.33514 -4.6965 0
M  V30 3534 H 330.218 -0.805314 -5.46094 0
M  V30 3535 H 330.695 0.489075 -4.36468 0
M  V30 3536 H 331.301 -1.16067 -4.09156 0
M  V30 3537 N 329.616 1.39756 -0.72842 0
M  V30 3538 C 330.864 2.00248 -0.272946 0
M  V30 3539 C 331.185 1.58077 1.14178 0
M  V30 3540 O 330.455 0.826014 1.77634 0
M  V30 3541 H 329.035 0.740554 -0.0979247 0
M  V30 3542 H 331.697 1.70903 -0.936912 0
M  V30 3543 H 330.793 3.10495 -0.316142 0
M  V30 3544 N 331.094 0.475555 1.50254 0
M  V30 3545 C 332.026 -0.352649 2.26471 0
M  V30 3546 C 333.039 -0.953165 1.3198 0
M  V30 3547 O 334.228 -0.840815 1.57457 0
M  V30 3548 C 331.328 -1.50902 3.0345 0
M  V30 3549 C 330.501 -1.02047 4.25329 0
M  V30 3550 C 329.56 -2.05142 4.84565 0
M  V30 3551 O 328.586 -1.63023 5.45355 0
M  V30 3552 N 329.788 -3.37987 4.71959 0
M  V30 3553 H 332.553 0.300767 2.98187 0
M  V30 3554 H 330.114 0.306598 1.5897 0
M  V30 3555 H 332.106 -2.19572 3.39956 0
M  V30 3556 H 330.676 -2.06705 2.34504 0
M  V30 3557 H 329.896 -0.159507 3.93877 0
M  V30 3558 H 331.184 -0.672061 5.04342 0
M  V30 3559 H 330.582 -3.74913 4.23623 0
M  V30 3560 H 329.139 -4.02443 5.12721 0
M  V30 3561 N 332.573 -1.56217 0.208337 0
M  V30 3562 C 333.989 -1.58919 -0.14729 0
M  V30 3563 C 334.189 -1.22486 -1.59998 0
M  V30 3564 O 333.245 -0.953849 -2.3379 0
M  V30 3565 C 334.558 -3.00236 0.167048 0
M  V30 3566 C 336.106 -3.12813 0.108219 0
M  V30 3567 C 336.581 -4.56284 0.396049 0
M  V30 3568 N 338.072 -4.61912 0.345142 0
M  V30 3569 C 338.807 -5.70837 0.541523 0
M  V30 3570 N 338.303 -6.88178 0.798968 0
M  V30 3571 N 340.096 -5.60091 0.474867 0
M  V30 3572 H 332.247 -1.78177 1.15614 0
M  V30 3573 H 334.51 -0.827555 0.462446 0
M  V30 3574 H 334.216 -3.31499 1.1748 0
M  V30 3575 H 334.09 -3.7354 -0.524184 0
M  V30 3576 H 336.477 -2.81354 -0.890157 0
M  V30 3577 H 336.558 -2.41866 0.832729 0
M  V30 3578 H 336.202 -4.88458 1.3918 0
M  V30 3579 H 336.132 -5.25439 -0.349502 0
M  V30 3580 H 338.623 -3.77589 0.153316 0
M  V30 3581 H 338.936 -7.67095 0.93727 0
M  V30 3582 H 337.281 -6.89953 0.836013 0
M  V30 3583 H 340.472 -4.67297 0.274064 0
M  V30 3584 H 340.645 -6.44917 0.631326 0
M  V30 3585 N 334.051 0.0651679 -1.57465 0
M  V30 3586 C 335.297 0.764193 -1.87851 0
M  V30 3587 C 335.63 1.76889 -0.801495 0
M  V30 3588 O 334.905 1.93594 0.187528 0
M  V30 3589 C 335.188 1.46625 -3.28897 0
M  V30 3590 C 335.041 0.477515 -4.47258 0
M  V30 3591 C 336.36 2.4095 -3.68281 0
M  V30 3592 H 333.479 0.276351 -0.683227 0
M  V30 3593 H 336.121 0.0272868 -1.8998 0
M  V30 3594 H 334.271 2.09438 -3.27212 0
M  V30 3595 H 335.943 -0.145922 -4.61069 0
M  V30 3596 H 334.186 -0.206576 -4.33308 0
M  V30 3597 H 334.857 1.0065 -5.42746 0
M  V30 3598 H 337.333 1.88209 -3.71102 0
M  V30 3599 H 336.209 2.87072 -4.67847 0
M  V30 3600 H 336.47 3.26049 -2.98571 0
M  V30 3601 N 335.529 1.53961 0.336706 0
M  V30 3602 C 336.459 1.85417 1.41925 0
M  V30 3603 C 337.44 0.709856 1.5458 0
M  V30 3604 O 338.625 0.962396 1.68676 0
M  V30 3605 C 335.755 2.06985 2.78881 0
M  V30 3606 C 334.709 3.22813 2.81026 0
M  V30 3607 C 334.035 3.29727 4.20932 0
M  V30 3608 C 335.335 4.60767 2.45949 0
M  V30 3609 H 337.029 2.76079 1.15848 0
M  V30 3610 H 334.575 1.32839 0.555859 0
M  V30 3611 H 336.528 2.27575 3.54665 0
M  V30 3612 H 335.252 1.13061 3.06406 0
M  V30 3613 H 333.911 3.0209 2.07695 0
M  V30 3614 H 333.559 2.33385 4.45579 0
M  V30 3615 H 333.259 4.07566 4.23277 0
M  V30 3616 H 334.783 3.52536 4.98549 0
M  V30 3617 H 336.197 4.81325 3.11446 0
M  V30 3618 H 334.594 5.4106 2.59566 0
M  V30 3619 H 335.664 4.6391 1.41122 0
M  V30 3620 N 337.007 -0.598083 1.45811 0
M  V30 3621 C 338.284 -1.35777 1.40797 0
M  V30 3622 C 338.664 -2.10935 0.083462 0
M  V30 3623 O 338.012 -2.08505 -0.934763 0
M  V30 3624 C 338.222 -2.29666 2.62783 0
M  V30 3625 C 339.57 -2.91977 3.08277 0
M  V30 3626 O 340.594 -2.39984 2.63223 0
M  V30 3627 O 339.453 -3.86376 3.86491 0
M  V30 3628 H 336.547 -0.609291 0.55919 0
M  V30 3629 H 339.093 -0.620379 1.57954 0
M  V30 3630 H 337.865 -1.73454 3.50756 0
M  V30 3631 H 337.488 -3.1077 2.48008 0
M  V30 3632 N 338.485 -1.33259 -0.841409 0
M  V30 3633 C 339.71 -1.2775 -1.63385 0
M  V30 3634 C 340.135 0.149188 -1.87507 0
M  V30 3635 O 339.493 1.10498 -1.43736 0
M  V30 3636 C 339.541 -2.05571 -2.96265 0
M  V30 3637 O 338.645 -1.41257 -3.87453 0
M  V30 3638 H 337.986 -0.439627 -0.497618 0
M  V30 3639 H 340.516 -1.75782 -1.04699 0
M  V30 3640 H 340.526 -2.16241 -3.45982 0
M  V30 3641 H 339.201 -3.09309 -2.7803 0
M  V30 3642 H 337.778 -1.39217 -3.45938 0
M  V30 3643 N 339.963 1.05934 -1.16686 0
M  V30 3644 C 340.893 2.1546 -0.899949 0
M  V30 3645 C 341.874 1.69391 0.155154 0
M  V30 3646 O 343.059 1.94199 0.00648693 0
M  V30 3647 C 340.189 3.44939 -0.404241 0
M  V30 3648 C 339.143 4.04536 -1.39767 0
M  V30 3649 C 338.469 5.29268 -0.760216 0
M  V30 3650 C 339.769 4.42893 -2.76845 0
M  V30 3651 H 341.463 2.38046 -1.81588 0
M  V30 3652 H 339.009 1.14404 -0.874514 0
M  V30 3653 H 340.962 4.20901 -0.204971 0
M  V30 3654 H 339.686 3.21983 0.547206 0
M  V30 3655 H 338.345 3.30635 -1.58355 0
M  V30 3656 H 337.993 5.02611 0.197831 0
M  V30 3657 H 337.693 5.70101 -1.42332 0
M  V30 3658 H 339.217 6.07924 -0.57105 0
M  V30 3659 H 340.631 5.09921 -2.62019 0
M  V30 3660 H 339.028 4.94721 -3.39663 0
M  V30 3661 H 340.098 3.53584 -3.31823 0
M  V30 3662 N 341.441 0.965919 1.2453 0
M  V30 3663 C 342.688 0.626831 1.92554 0
M  V30 3664 C 343.016 -0.837739 1.75534 0
M  V30 3665 O 342.271 -1.61793 1.10098 0
M  V30 3666 C 342.57 0.945428 3.44669 0
M  V30 3667 C 342.236 2.39785 3.81856 0
M  V30 3668 C 340.898 2.79483 3.91718 0
M  V30 3669 C 343.25 3.34055 4.00071 0
M  V30 3670 C 340.578 4.12496 4.1721 0
M  V30 3671 C 342.93 4.66694 4.27059 0
M  V30 3672 C 341.594 5.06172 4.3514 0
M  V30 3673 H 340.864 0.229374 0.704605 0
M  V30 3674 H 343.511 1.21707 1.4785 0
M  V30 3675 H 341.816 0.272926 3.90848 0
M  V30 3676 H 343.513 0.661484 3.95507 0
M  V30 3677 H 340.103 2.08003 3.74743 0
M  V30 3678 H 344.287 3.04571 3.91855 0
M  V30 3679 H 339.543 4.42709 4.21685 0
M  V30 3680 H 343.717 5.3971 4.40097 0
M  V30 3681 H 341.344 6.09262 4.54646 0
M  V30 3682 N 342.919 -1.39368 0.735821 0
M  V30 3683 C 344.33 -1.83313 0.354015 0
M  V30 3684 C 344.681 -1.61461 -1.11466 0
M  V30 3685 O 343.806 -1.10621 -1.85989 0
M  V30 3686 C 344.401 -3.32781 0.635769 0
M  V30 3687 C 342.96 -3.75142 0.307448 0
M  V30 3688 C 342.107 -2.62358 0.897974 0
M  V30 3689 H 345.058 -1.28349 0.933398 0
M  V30 3690 H 345.079 -3.80388 -0.0921773 0
M  V30 3691 H 344.591 -3.48654 1.70476 0
M  V30 3692 H 342.692 -3.64857 -0.755674 0
M  V30 3693 H 342.805 -4.72532 0.790583 0
M  V30 3694 H 341.169 -2.52624 0.324551 0
M  V30 3695 H 341.952 -2.81036 1.97164 0
M  V30 3696 N 344.397 -0.483516 -1.5 0
M  V30 3697 C 345.625 0.0644831 -2.06799 0
M  V30 3698 C 346.04 1.32399 -1.34596 0
M  V30 3699 O 345.397 1.77626 -0.418946 0
M  V30 3700 C 345.448 0.339927 -3.59898 0
M  V30 3701 O 345.169 -0.869635 -4.29382 0
M  V30 3702 C 346.67 0.933515 -4.33359 0
M  V30 3703 H 343.89 -0.0126333 -0.670881 0
M  V30 3704 H 346.434 -0.675864 -1.93009 0
M  V30 3705 H 344.589 1.03022 -3.7345 0
M  V30 3706 H 345.003 -0.62179 -5.20801 0
M  V30 3707 H 346.477 1.07593 -5.41413 0
M  V30 3708 H 346.954 1.92685 -3.94676 0
M  V30 3709 H 347.56 0.281221 -4.24369 0
M  V30 3710 N 345.875 1.56104 -0.216619 0
M  V30 3711 C 347.121 1.98466 0.417033 0
M  V30 3712 C 347.454 1.10403 1.59765 0
M  V30 3713 O 346.729 0.160632 1.93836 0
M  V30 3714 C 347.012 3.49769 0.85637 0
M  V30 3715 C 346.865 4.48606 -0.327546 0
M  V30 3716 C 348.184 4.05339 1.7143 0
M  V30 3717 H 345.303 0.721551 0.150112 0
M  V30 3718 H 347.945 1.87423 -0.311864 0
M  V30 3719 H 346.095 3.5931 1.47745 0
M  V30 3720 H 347.767 4.5108 -0.965618 0
M  V30 3721 H 346.01 4.22682 -0.975805 0
M  V30 3722 H 346.681 5.51995 0.0227149 0
M  V30 3723 H 349.157 3.98712 1.19031 0
M  V30 3724 H 348.033 5.11533 1.99061 0
M  V30 3725 H 348.294 3.51918 2.67593 0
M  V30 3726 N 347.353 -0.0568162 1.57498 0
M  V30 3727 C 348.285 -1.09292 2.01464 0
M  V30 3728 C 349.298 -1.34112 0.922913 0
M  V30 3729 O 350.487 -1.32089 1.20062 0
M  V30 3730 C 347.587 -2.44068 2.35125 0
M  V30 3731 C 346.76 -2.38995 3.66333 0
M  V30 3732 C 345.819 -3.55997 3.87495 0
M  V30 3733 O 344.845 -3.36746 4.58901 0
M  V30 3734 N 346.047 -4.76888 3.30996 0
M  V30 3735 H 348.812 -0.718386 2.90963 0
M  V30 3736 H 346.373 -0.245235 1.60032 0
M  V30 3737 H 348.365 -3.21011 2.46443 0
M  V30 3738 H 346.935 -2.73468 1.5144 0
M  V30 3739 H 346.155 -1.47336 3.65631 0
M  V30 3740 H 347.443 -2.3272 4.52458 0
M  V30 3741 H 346.841 -4.95431 2.73065 0
M  V30 3742 H 345.398 -5.51291 3.47738 0
M  V30 3743 N 348.832 -1.54138 -0.328536 0
M  V30 3744 C 350.08 -1.71765 -1.06496 0
M  V30 3745 C 350.401 -0.49149 -1.88704 0
M  V30 3746 O 349.671 0.494539 -1.89555 0
M  V30 3747 H 348.251 -0.633295 -0.396164 0
M  V30 3748 H 350.913 -1.91429 -0.366176 0
M  V30 3749 H 350.009 -2.5951 -1.73381 0
M  V30 3750 N 350.31 0.590341 -1.46126 0
M  V30 3751 C 351.558 1.34616 -1.50742 0
M  V30 3752 C 351.879 1.94363 -0.157486 0
M  V30 3753 O 351.149 1.78136 0.815136 0
M  V30 3754 H 349.729 0.499789 -0.555175 0
M  V30 3755 H 352.391 0.691953 -1.82203 0
M  V30 3756 H 351.487 2.15678 -2.25587 0
M  V30 3757 N 351.788 1.33704 0.83433 0
M  V30 3758 C 353.016 1.28467 1.62185 0
M  V30 3759 C 353.431 -0.143526 1.88254 0
M  V30 3760 O 352.788 -1.08709 1.4659 0
M  V30 3761 C 352.839 2.06174 2.96942 0
M  V30 3762 O 352.56 3.43422 2.72016 0
M  V30 3763 C 354.061 2.08201 3.91366 0
M  V30 3764 H 351.281 0.4424 0.504503 0
M  V30 3765 H 353.825 1.76145 1.03891 0
M  V30 3766 H 351.98 1.62167 3.51825 0
M  V30 3767 H 352.394 3.83453 3.57861 0
M  V30 3768 H 353.868 2.67017 4.83121 0
M  V30 3769 H 354.345 1.07343 4.2588 0
M  V30 3770 H 354.951 2.52246 3.42421 0
M  V30 3771 N 353.266 -1.05314 1.17247 0
M  V30 3772 C 354.506 -1.79869 0.970898 0
M  V30 3773 C 354.87 -1.85594 -0.491808 0
M  V30 3774 O 356.071 -2.56229 -0.812409 0
M  V30 3775 C 354.342 -3.19937 1.59295 0
M  V30 3776 S 355.901 -4.10986 1.53741 0
M  V30 3777 H 352.719 -0.61949 0.348931 0
M  V30 3778 H 355.321 -1.26368 1.49169 0
M  V30 3779 H 354.025 -3.13372 2.65003 0
M  V30 3780 H 353.556 -3.78515 1.07191 0
M  V30 3781 H 355.571 -4.93203 0.544537 0
M  V30 3782 N 354.744 -0.972509 -1.24016 0
M  V30 3783 C 355.707 -0.511403 -2.23422 0
M  V30 3784 C 356.707 0.394679 -1.55881 0
M  V30 3785 O 357.897 0.189469 -1.73167 0
M  V30 3786 C 355.029 0.258769 -3.39916 0
M  V30 3787 H 356.222 -1.39024 -2.6573 0
M  V30 3788 H 353.775 -0.757585 -1.36713 0
M  V30 3789 H 354.51 1.1545 -3.03054 0
M  V30 3790 H 354.295 -0.391522 -3.9014 0
M  V30 3791 H 355.785 0.570244 -4.13688 0
M  V30 3792 N 356.222 1.38976 -0.743202 0
M  V30 3793 C 357.471 1.99581 -0.291592 0
M  V30 3794 C 357.784 1.59656 1.13001 0
M  V30 3795 O 358.99 2.13157 1.68156 0
M  V30 3796 C 357.446 3.56813 -0.470391 0
M  V30 3797 C 357.054 4.05695 -1.90041 0
M  V30 3798 C 358.798 4.24423 -0.0809709 0
M  V30 3799 C 356.705 5.5553 -2.02832 0
M  V30 3800 H 355.635 0.746615 -0.105272 0
M  V30 3801 H 358.286 1.58872 -0.918258 0
M  V30 3802 H 356.668 3.95359 0.225299 0
M  V30 3803 H 357.842 3.78464 -2.62872 0
M  V30 3804 H 356.157 3.50775 -2.24379 0
M  V30 3805 H 358.754 5.34474 -0.155445 0
M  V30 3806 H 359.097 4.04962 0.96497 0
M  V30 3807 H 359.63 3.9108 -0.728124 0
M  V30 3808 H 356.369 5.79881 -3.05643 0
M  V30 3809 H 355.889 5.84537 -1.34448 0
M  V30 3810 H 357.568 6.21069 -1.81335 0
M  V30 3811 N 357.7 0.491464 1.49741 0
M  V30 3812 C 359.111 0.0413169 1.86654 0
M  V30 3813 C 359.462 -1.36985 1.40462 0
M  V30 3814 O 358.587 -2.01917 0.778354 0
M  V30 3815 C 359.182 0.0682023 3.38731 0
M  V30 3816 C 357.741 -0.32656 3.74981 0
M  V30 3817 C 356.888 0.444888 2.73708 0
M  V30 3818 H 359.839 0.704733 1.42194 0
M  V30 3819 H 359.86 -0.729322 3.73445 0
M  V30 3820 H 359.372 1.09539 3.72321 0
M  V30 3821 H 357.473 -1.35734 3.46997 0
M  V30 3822 H 357.586 -0.013741 4.79098 0
M  V30 3823 H 355.95 -0.104062 2.54487 0
M  V30 3824 H 356.733 1.47197 3.10142 0
M  V30 3825 N 359.178 -1.55987 0.224894 0
M  V30 3826 C 360.426 -1.97998 -0.405099 0
M  V30 3827 C 360.747 -1.11387 -1.60056 0
M  V30 3828 O 360.017 -0.191645 -1.9496 0
M  V30 3829 H 358.597 -0.731235 -0.152658 0
M  V30 3830 H 361.259 -1.92279 0.318567 0
M  V30 3831 H 360.355 -3.03463 -0.729167 0
M  V30 3832 N 360.656 0.0484629 -1.57525 0
M  V30 3833 C 361.619 1.03956 -2.04269 0
M  V30 3834 C 362.619 1.30211 -0.943496 0
M  V30 3835 O 363.809 1.25539 -1.20771 0
M  V30 3836 C 360.941 2.37742 -2.44319 0
M  V30 3837 H 362.134 0.636182 -2.93075 0
M  V30 3838 H 359.687 0.294811 -1.53494 0
M  V30 3839 H 360.422 2.82866 -1.5861 0
M  V30 3840 H 360.207 2.20021 -3.24551 0
M  V30 3841 H 361.697 3.08936 -2.80978 0
M  V30 3842 N 362.134 1.5431 0.320358 0
M  V30 3843 C 363.381 1.72668 1.05792 0
M  V30 3844 C 363.709 0.502084 1.87908 0
M  V30 3845 O 362.964 -0.516149 1.88771 0
M  V30 3846 C 363.263 2.95639 2.00828 0
M  V30 3847 C 362.929 4.30265 1.34843 0
M  V30 3848 C 361.591 4.66865 1.16578 0
M  V30 3849 C 363.943 5.13801 0.875095 0
M  V30 3850 C 361.271 5.84597 0.496336 0
M  V30 3851 C 363.623 6.32219 0.219463 0
M  V30 3852 C 362.287 6.67495 0.0246915 0
M  V30 3853 H 361.557 0.631837 0.387121 0
M  V30 3854 H 364.204 1.88552 0.334735 0
M  V30 3855 H 362.509 2.74456 2.79609 0
M  V30 3856 H 364.206 3.07038 2.57932 0
M  V30 3857 H 360.796 4.01472 1.50061 0
M  V30 3858 H 364.98 4.86039 1.00398 0
M  V30 3859 H 360.236 6.10486 0.334264 0
M  V30 3860 H 364.41 6.96227 -0.155291 0
M  V30 3861 H 362.037 7.5858 -0.496065 0
M  V30 3862 N 363.613 -0.582584 1.46437 0
M  V30 3863 C 364.861 -1.33814 1.51453 0
M  V30 3864 C 365.182 -1.94277 0.167792 0
M  V30 3865 O 364.452 -1.78566 -0.805677 0
M  V30 3866 H 363.032 -0.496838 0.557818 0
M  V30 3867 H 365.694 -0.682281 1.82568 0
M  V30 3868 H 364.79 -2.14479 2.26728 0
M  V30 3869 N 365.091 -1.34144 -0.827227 0
M  V30 3870 C 366.331 -1.27603 -1.59677 0
M  V30 3871 C 366.695 0.153035 -1.91389 0
M  V30 3872 O 367.896 0.342566 -2.66608 0
M  V30 3873 C 366.167 -2.13784 -2.86411 0
M  V30 3874 S 367.726 -2.24552 -3.76991 0
M  V30 3875 H 364.544 -0.453789 -0.547354 0
M  V30 3876 H 367.146 -1.69309 -0.977479 0
M  V30 3877 H 365.85 -3.16627 -2.61104 0
M  V30 3878 H 365.381 -1.72959 -3.5334 0
M  V30 3879 H 367.396 -1.41514 -4.75593 0
M  V30 3880 N 366.569 1.04691 -1.17803 0
M  V30 3881 C 367.817 1.7743 -0.967617 0
M  V30 3882 C 368.138 1.88359 0.504574 0
M  V30 3883 O 367.408 1.40402 1.36617 0
M  V30 3884 H 365.988 0.657242 -0.355024 0
M  V30 3885 H 368.65 1.2638 -1.48371 0
M  V30 3886 H 367.746 2.78924 -1.40027 0
M  V30 3887 N 368.047 0.979072 1.23499 0
M  V30 3888 C 368.994 0.517904 2.24914 0
M  V30 3889 C 369.964 -0.442525 1.60097 0
M  V30 3890 O 371.149 -0.350365 1.87556 0
M  V30 3891 C 368.289 -0.174813 3.44657 0
M  V30 3892 C 367.402 0.825721 4.24035 0
M  V30 3893 C 366.537 0.107946 5.3109 0
M  V30 3894 C 365.576 1.09778 6.02175 0
M  V30 3895 N 364.713 0.40925 7.00906 0
M  V30 3896 H 369.553 1.38751 2.63727 0
M  V30 3897 H 367.09 0.695303 1.2963 0
M  V30 3898 H 369.048 -0.593233 4.12961 0
M  V30 3899 H 367.678 -1.0083 3.06648 0
M  V30 3900 H 366.73 1.36253 3.55161 0
M  V30 3901 H 368.042 1.58005 4.73113 0
M  V30 3902 H 367.196 -0.367904 6.05583 0
M  V30 3903 H 365.935 -0.678994 4.8295 0
M  V30 3904 H 364.94 1.5844 5.26476 0
M  V30 3905 H 366.165 1.88536 6.52404 0
M  V30 3906 H 364.111 -0.358506 6.5502 0
M  V30 3907 H 364.028 1.10226 7.47921 0
M  V30 3908 H 365.296 -0.0442557 7.79487 0
M  V30 3909 N 369.525 -1.3858 0.750561 0
M  V30 3910 C 370.753 -2.04471 0.316098 0
M  V30 3911 C 371.168 -1.56606 -1.05452 0
M  V30 3912 O 370.525 -0.737784 -1.66922 0
M  V30 3913 C 370.576 -3.60025 0.326275 0
M  V30 3914 O 370.297 -4.06133 1.6428 0
M  V30 3915 C 371.798 -4.43131 -0.122429 0
M  V30 3916 H 369.018 -0.65717 0.135528 0
M  V30 3917 H 371.562 -1.77329 1.01857 0
M  V30 3918 H 369.717 -3.86014 -0.327431 0
M  V30 3919 H 370.131 -5.00547 1.56693 0
M  V30 3920 H 371.605 -5.51963 -0.0641473 0
M  V30 3921 H 372.082 -4.23333 -1.16988 0
M  V30 3922 H 372.688 -4.22323 0.50229 0
M  V30 3923 N 371.003 -0.499398 -1.49478 0
M  V30 3924 C 372.243 0.0440751 -2.04352 0
M  V30 3925 C 372.607 1.34423 -1.37093 0
M  V30 3926 O 373.808 1.97184 -1.82679 0
M  V30 3927 C 372.079 0.194918 -3.56868 0
M  V30 3928 S 373.638 0.69287 -4.33295 0
M  V30 3929 H 370.456 0.00253458 -0.710995 0
M  V30 3930 H 373.058 -0.673 -1.83551 0
M  V30 3931 H 371.762 -0.756672 -4.03364 0
M  V30 3932 H 371.293 0.93728 -3.82071 0
M  V30 3933 H 373.308 1.96226 -4.55752 0
M  V30 3934 N 372.481 1.55866 -0.233164 0
M  V30 3935 C 373.727 1.98897 0.395959 0
M  V30 3936 C 374.06 1.12091 1.58585 0
M  V30 3937 O 373.335 0.181182 1.93654 0
M  V30 3938 C 373.618 3.50658 0.819224 0
M  V30 3939 C 373.471 4.48233 -0.375109 0
M  V30 3940 C 374.79 4.07135 1.67121 0
M  V30 3941 H 371.909 0.723102 0.142451 0
M  V30 3942 H 374.551 1.87082 -0.331725 0
M  V30 3943 H 372.701 3.60857 1.43925 0
M  V30 3944 H 374.373 4.50031 -1.01341 0
M  V30 3945 H 372.616 4.21624 -1.02058 0
M  V30 3946 H 373.287 5.51988 -0.0358328 0
M  V30 3947 H 375.763 3.99952 1.14795 0
M  V30 3948 H 374.639 5.13615 1.93625 0
M  V30 3949 H 374.9 3.54736 2.63846 0
M  V30 3950 N 373.959 -0.0401083 1.57549 0
M  V30 3951 C 375.184 -0.748931 1.93406 0
M  V30 3952 C 375.609 -1.68686 0.832274 0
M  V30 3953 O 374.967 -1.80047 -0.212818 0
M  V30 3954 C 375.015 -1.4916 3.28304 0
M  V30 3955 O 374.119 -2.6042 3.19774 0
M  V30 3956 H 373.46 -0.202212 0.63246 0
M  V30 3957 H 375.99 0.00112086 2.046 0
M  V30 3958 H 376 -1.86395 3.62934 0
M  V30 3959 H 374.675 -0.80364 4.08062 0
M  V30 3960 H 373.252 -2.25808 2.96758 0
M  V30 3961 N 375.437 -1.54477 -0.31217 0
M  V30 3962 C 376.369 -1.81011 -1.40598 0
M  V30 3963 C 377.382 -0.692546 -1.47335 0
M  V30 3964 O 378.571 -0.969847 -1.49854 0
M  V30 3965 C 375.671 -1.92307 -2.79054 0
M  V30 3966 C 374.844 -3.22594 -2.95384 0
M  V30 3967 C 373.903 -3.24448 -4.1427 0
M  V30 3968 O 372.929 -3.98035 -4.06887 0
M  V30 3969 N 374.131 -2.49042 -5.24365 0
M  V30 3970 H 376.896 -2.75408 -1.18196 0
M  V30 3971 H 374.457 -1.53914 -0.502202 0
M  V30 3972 H 376.449 -1.90962 -3.56813 0
M  V30 3973 H 375.019 -1.04955 -2.94454 0
M  V30 3974 H 374.239 -3.36806 -2.04831 0
M  V30 3975 H 375.527 -4.08593 -3.03198 0
M  V30 3976 H 374.925 -1.88867 -5.33241 0
M  V30 3977 H 373.482 -2.53463 -6.005 0
M  V30 3978 N 376.915 0.57481 -1.46744 0
M  V30 3979 C 377.878 1.66533 -1.57478 0
M  V30 3980 C 378.878 1.54338 -0.451263 0
M  V30 3981 O 380.068 1.58814 -0.715813 0
M  V30 3982 C 377.2 3.05999 -1.50259 0
M  V30 3983 H 378.393 1.58372 -2.54673 0
M  V30 3984 H 375.946 0.793301 -1.34672 0
M  V30 3985 H 376.681 3.19709 -0.543725 0
M  V30 3986 H 376.466 3.16259 -2.31781 0
M  V30 3987 H 377.956 3.8537 -1.60872 0
M  V30 3988 N 378.394 1.34581 0.820102 0
M  V30 3989 C 379.324 1.29038 1.94606 0
M  V30 3990 C 380.305 0.1673 1.69275 0
M  V30 3991 O 381.49 0.360112 1.90832 0
M  V30 3992 C 378.62 1.04793 3.31113 0
M  V30 3993 C 377.574 2.13597 3.70891 0
M  V30 3994 C 376.9 1.74537 5.05412 0
M  V30 3995 C 378.2 3.55451 3.8269 0
M  V30 3996 H 379.894 2.23248 1.99501 0
M  V30 3997 H 377.44 1.0747 0.958449 0
M  V30 3998 H 379.393 0.995592 4.0947 0
M  V30 3999 H 378.117 0.0702565 3.26524 0
M  V30 4000 H 376.776 2.17905 2.9481 0
M  V30 4001 H 376.424 0.754226 4.97313 0
M  V30 4002 H 376.124 2.47361 5.32997 0
M  V30 4003 H 377.648 1.70803 5.86224 0
M  V30 4004 H 379.062 3.5354 4.51312 0
M  V30 4005 H 377.459 4.26922 4.21732 0
M  V30 4006 H 378.529 3.92587 2.84611 0
M  V30 4007 N 379.872 -1.04064 1.18357 0
M  V30 4008 C 381.097 -1.81454 1.00445 0
M  V30 4009 C 381.522 -1.82823 -0.442423 0
M  V30 4010 O 380.88 -1.24555 -1.31741 0
M  V30 4011 C 380.928 -3.24925 1.56384 0
M  V30 4012 O 380.032 -4.04856 0.785209 0
M  V30 4013 H 379.373 -0.560604 0.355835 0
M  V30 4014 H 381.903 -1.31059 1.57114 0
M  V30 4015 H 381.913 -3.75702 1.59097 0
M  V30 4016 H 380.588 -3.23244 2.61699 0
M  V30 4017 H 379.165 -3.63537 0.830399 0
M  V30 4018 N 381.35 -0.985608 -1.22978 0
M  V30 4019 C 382.297 -0.529825 -2.24636 0
M  V30 4020 C 383.267 0.434028 -1.60329 0
M  V30 4021 O 384.452 0.340414 -1.87739 0
M  V30 4022 C 381.592 0.156533 -3.44745 0
M  V30 4023 C 380.705 -0.848197 -4.23591 0
M  V30 4024 C 379.84 -0.136109 -5.31026 0
M  V30 4025 C 378.879 -1.1297 -6.01585 0
M  V30 4026 N 378.016 -0.446415 -7.00679 0
M  V30 4027 H 382.856 -1.40148 -2.62988 0
M  V30 4028 H 380.393 -0.702168 -1.29259 0
M  V30 4029 H 382.351 0.571324 -4.1327 0
M  V30 4030 H 380.981 0.992025 -3.07179 0
M  V30 4031 H 380.033 -1.38135 -3.54433 0
M  V30 4032 H 381.345 -1.60512 -4.72268 0
M  V30 4033 H 380.499 0.335784 -6.0577 0
M  V30 4034 H 379.238 0.653373 -4.83304 0
M  V30 4035 H 378.243 -1.6123 -5.25628 0
M  V30 4036 H 379.468 -1.91993 -6.51395 0
M  V30 4037 H 377.414 0.323763 -6.55201 0
M  V30 4038 H 377.331 -1.1419 -7.47326 0
M  V30 4039 H 378.599 0.00291697 -7.795 0
M  V30 4040 N 382.828 1.3818 -0.7579 0
M  V30 4041 C 384.058 2.04004 -0.326463 0
M  V30 4042 C 384.466 1.57286 1.05156 0
M  V30 4043 O 383.809 0.743144 1.67997 0
M  V30 4044 C 383.871 3.58444 -0.275402 0
M  V30 4045 C 383.535 4.28237 -1.59569 0
M  V30 4046 C 384.532 4.53312 -2.54566 0
M  V30 4047 C 382.217 4.66341 -1.86631 0
M  V30 4048 C 384.211 5.15531 -3.74842 0
M  V30 4049 C 381.898 5.28283 -3.0718 0
M  V30 4050 C 382.896 5.52814 -4.01106 0
M  V30 4051 O 382.584 6.13465 -5.19534 0
M  V30 4052 H 382.316 0.662026 -0.136739 0
M  V30 4053 H 384.87 1.7777 -1.02893 0
M  V30 4054 H 383.1 3.83667 0.483337 0
M  V30 4055 H 384.789 4.05701 0.127099 0
M  V30 4056 H 385.555 4.24299 -2.34936 0
M  V30 4057 H 381.434 4.46591 -1.14358 0
M  V30 4058 H 384.978 5.34594 -4.48168 0
M  V30 4059 H 380.875 5.56719 -3.26702 0
M  V30 4060 H 381.643 6.31951 -5.20173 0
M  V30 4061 N 384.306 0.507319 1.49211 0
M  V30 4062 C 385.531 -0.033725 2.07373 0
M  V30 4063 C 385.956 -1.29485 1.36437 0
M  V30 4064 O 385.314 -1.76294 0.423087 0
M  V30 4065 C 385.362 -0.263945 3.59633 0
M  V30 4066 O 384.466 -1.33737 3.90113 0
M  V30 4067 H 383.807 0.0290331 0.663365 0
M  V30 4068 H 386.337 0.708749 1.91932 0
M  V30 4069 H 386.347 -0.493536 4.05004 0
M  V30 4070 H 385.022 0.657424 4.10671 0
M  V30 4071 H 383.599 -1.09224 3.56545 0
M  V30 4072 N 385.784 -1.5574 0.241426 0
M  V30 4073 C 386.732 -2.22538 -0.676718 0
M  V30 4074 C 387.726 -1.21117 -1.18436 0
M  V30 4075 O 388.932 -1.39144 -1.14188 0
M  V30 4076 H 385.307 -0.713776 -0.236701 0
M  V30 4077 H 387.278 -2.98264 -0.0901187 0
M  V30 4078 C 386.027 -2.93439 -1.86518 0
M  V30 4079 H 385.35 -3.7125 -1.4837 0
M  V30 4080 H 386.79 -3.43549 -2.48495 0
M  V30 4081 C 385.249 -1.97008 -2.73294 0
M  V30 4082 O 385.779 -1.49965 -3.72657 0
M  V30 4083 N 383.985 -1.64227 -2.39745 0
M  V30 4084 H 383.532 -2.02677 -1.58996 0
M  V30 4085 H 383.49 -0.999708 -2.98083 0
M  V30 4086 N 387.262 0.0317525 -1.57568 0
M  V30 4087 C 388.487 0.738664 -1.938 0
M  V30 4088 C 388.912 1.68242 -0.841208 0
M  V30 4089 O 388.27 1.80157 0.203267 0
M  V30 4090 C 388.318 1.47417 -3.29091 0
M  V30 4091 O 387.422 2.5872 -3.2115 0
M  V30 4092 H 386.763 0.198856 -0.633524 0
M  V30 4093 H 389.293 -0.0119713 -2.04596 0
M  V30 4094 H 389.303 1.84468 -3.63917 0
M  V30 4095 H 387.978 0.781988 -4.08482 0
M  V30 4096 H 386.555 2.24231 -2.97951 0
M  V30 4097 N 388.74 1.54641 0.303973 0
M  V30 4098 C 389.65 1.88439 1.39743 0
M  V30 4099 C 390.666 0.778239 1.55626 0
M  V30 4100 O 391.842 1.07442 1.70347 0
M  V30 4101 C 388.907 2.12212 2.74166 0
M  V30 4102 C 387.968 3.35936 2.67293 0
M  V30 4103 C 387.201 3.58566 3.95305 0
M  V30 4104 O 387.424 2.84263 4.9452 0
M  V30 4105 O 386.358 4.52078 3.97378 0
M  V30 4106 H 390.184 2.81458 1.14083 0
M  V30 4107 H 387.769 1.40793 0.499768 0
M  V30 4108 H 389.651 2.29067 3.53704 0
M  V30 4109 H 388.326 1.22379 2.99675 0
M  V30 4110 H 387.233 3.24448 1.86237 0
M  V30 4111 H 388.566 4.2589 2.46736 0
M  V30 4112 N 390.218 -0.567019 1.47046 0
M  V30 4113 C 391.464 -1.32658 1.53394 0
M  V30 4114 C 391.797 -1.93254 0.19148 0
M  V30 4115 O 391.072 -1.77338 -0.798844 0
M  V30 4116 C 391.355 -2.44412 2.64452 0
M  V30 4117 C 391.208 -1.88749 4.08282 0
M  V30 4118 C 392.527 -3.46387 2.71485 0
M  V30 4119 H 389.646 -0.48098 0.558415 0
M  V30 4120 H 392.288 -0.635481 1.79058 0
M  V30 4121 H 390.438 -3.03363 2.427 0
M  V30 4122 H 392.11 -1.34134 4.41368 0
M  V30 4123 H 390.353 -1.19481 4.17021 0
M  V30 4124 H 391.024 -2.69491 4.81745 0
M  V30 4125 H 393.5 -2.9734 2.91081 0
M  V30 4126 H 392.376 -4.2202 3.50985 0
M  V30 4127 H 392.637 -4.04616 1.78153 0
M  V30 4128 N 391.696 -1.35014 -0.812953 0
M  V30 4129 C 392.945 -1.27269 -1.56479 0
M  V30 4130 C 393.258 0.152771 -1.95002 0
M  V30 4131 O 394.464 0.352451 -2.69203 0
M  V30 4132 C 392.92 -2.23159 -2.82362 0
M  V30 4133 C 392.528 -3.71016 -2.511 0
M  V30 4134 C 394.272 -2.24342 -3.60376 0
M  V30 4135 C 392.179 -4.58746 -3.73237 0
M  V30 4136 H 391.109 -0.472829 -0.587324 0
M  V30 4137 H 393.76 -1.6024 -0.894171 0
M  V30 4138 H 392.142 -1.83151 -3.51101 0
M  V30 4139 H 393.316 -4.1962 -1.90409 0
M  V30 4140 H 391.631 -3.72378 -1.86343 0
M  V30 4141 H 394.228 -2.87107 -4.51081 0
M  V30 4142 H 394.571 -1.24542 -3.97234 0
M  V30 4143 H 395.104 -2.62846 -2.98591 0
M  V30 4144 H 391.843 -5.59521 -3.41492 0
M  V30 4145 H 391.363 -4.14871 -4.33176 0
M  V30 4146 H 393.042 -4.73852 -4.40537 0
M  V30 4147 N 393.175 1.03435 -1.18907 0
M  V30 4148 C 394.424 1.76143 -0.982669 0
M  V30 4149 C 394.737 1.89416 0.487953 0
M  V30 4150 O 395.943 2.59041 0.813036 0
M  V30 4151 C 394.399 3.16722 -1.70924 0
M  V30 4152 C 394.007 3.11522 -3.21959 0
M  V30 4153 C 395.751 3.93764 -1.58588 0
M  V30 4154 C 393.658 4.46999 -3.87228 0
M  V30 4155 H 392.588 0.660292 -0.364047 0
M  V30 4156 H 395.239 1.158 -1.42347 0
M  V30 4157 H 393.621 3.775 -1.19623 0
M  V30 4158 H 394.795 2.60158 -3.80335 0
M  V30 4159 H 393.11 2.47978 -3.34508 0
M  V30 4160 H 395.707 4.93963 -2.04707 0
M  V30 4161 H 396.05 4.12794 -0.539142 0
M  V30 4162 H 396.583 3.39576 -2.07203 0
M  V30 4163 H 393.322 4.33174 -4.91976 0
M  V30 4164 H 392.842 4.98441 -3.33642 0
M  V30 4165 H 394.521 5.15898 -3.90459 0
M  V30 4166 N 394.653 0.992116 1.22453 0
M  V30 4167 C 395.883 0.684949 1.94915 0
M  V30 4168 C 396.291 -0.754292 1.73514 0
M  V30 4169 O 395.634 -1.52056 1.03076 0
M  V30 4170 C 395.696 0.910054 3.47791 0
M  V30 4171 C 395.36 2.33363 3.92926 0
M  V30 4172 C 396.357 3.31308 4.00663 0
M  V30 4173 C 394.042 2.66785 4.25595 0
M  V30 4174 C 396.036 4.6075 4.40441 0
M  V30 4175 C 393.723 3.96446 4.65053 0
M  V30 4176 C 394.721 4.9324 4.72444 0
M  V30 4177 O 394.409 6.20584 5.1101 0
M  V30 4178 H 394.141 0.25258 0.62704 0
M  V30 4179 H 396.695 1.32939 1.56577 0
M  V30 4180 H 394.925 0.208443 3.86138 0
M  V30 4181 H 396.614 0.598257 4.01467 0
M  V30 4182 H 397.38 3.0682 3.75615 0
M  V30 4183 H 393.259 1.92148 4.19047 0
M  V30 4184 H 396.803 5.363 4.46126 0
M  V30 4185 H 392.7 4.20724 4.89552 0
M  V30 4186 H 393.468 6.24509 5.29085 0
M  V30 4187 N 396.131 -1.37776 0.765217 0
M  V30 4188 C 397.377 -2.00145 0.327072 0
M  V30 4189 C 397.71 -1.60607 -1.09175 0
M  V30 4190 O 396.985 -0.849127 -1.74986 0
M  V30 4191 C 397.268 -3.57109 0.46319 0
M  V30 4192 C 397.121 -4.06576 1.92395 0
M  V30 4193 C 398.44 -4.39888 -0.136473 0
M  V30 4194 H 395.559 -0.727113 0.120316 0
M  V30 4195 H 398.201 -1.63549 0.967039 0
M  V30 4196 H 396.351 -3.88414 -0.0816358 0
M  V30 4197 H 398.023 -3.85864 2.52798 0
M  V30 4198 H 396.266 -3.59011 2.43503 0
M  V30 4199 H 396.937 -5.15639 1.97028 0
M  V30 4200 H 399.413 -4.14803 0.328317 0
M  V30 4201 H 398.289 -5.48899 -0.0110582 0
M  V30 4202 H 398.55 -4.24758 -1.22608 0
M  V30 4203 N 397.609 -0.515225 -1.4894 0
M  V30 4204 C 398.857 0.0241671 -2.02086 0
M  V30 4205 C 399.178 1.3616 -1.3959 0
M  V30 4206 O 398.448 1.87841 -0.556121 0
M  V30 4207 H 397.028 0.0119203 -0.746905 0
M  V30 4208 H 399.69 -0.675702 -1.82812 0
M  V30 4209 H 398.786 0.143385 -3.1177 0
M  V30 4210 N 399.087 1.5561 -0.249682 0
M  V30 4211 C 400.327 2.00916 0.37579 0
M  V30 4212 C 400.691 1.13409 1.54927 0
M  V30 4213 O 401.892 1.48183 2.24266 0
M  V30 4214 C 400.163 3.48949 0.772633 0
M  V30 4215 S 401.722 4.16261 1.38824 0
M  V30 4216 H 398.54 0.70112 0.118117 0
M  V30 4217 H 401.142 1.92052 -0.365567 0
M  V30 4218 H 399.846 4.103 -0.090683 0
M  V30 4219 H 399.377 3.61745 1.5461 0
M  V30 4220 H 401.392 4.17778 2.67724 0
M  V30 4221 N 400.565 -0.0233959 1.57583 0
M  V30 4222 C 401.813 -0.711654 1.89156 0
M  V30 4223 C 402.134 -1.75591 0.848096 0
M  V30 4224 O 401.404 -1.95547 -0.117566 0
M  V30 4225 H 399.984 -0.265835 0.698098 0
M  V30 4226 H 402.646 0.0119948 1.94896 0
M  V30 4227 H 401.742 -1.19766 2.88206 0
M  V30 4228 N 402.043 -1.548 -0.295768 0
M  V30 4229 C 402.953 -1.89177 -1.38742 0
M  V30 4230 C 403.969 -0.786481 -1.55211 0
M  V30 4231 O 405.145 -1.08344 -1.69775 0
M  V30 4232 C 402.21 -2.13663 -2.73036 0
M  V30 4233 C 401.271 -3.37349 -2.65508 0
M  V30 4234 C 400.504 -3.60658 -3.93398 0
M  V30 4235 O 400.727 -2.86882 -4.93006 0
M  V30 4236 O 399.661 -4.54179 -3.94975 0
M  V30 4237 H 403.487 -2.82059 -1.12589 0
M  V30 4238 H 401.072 -1.41056 -0.492295 0
M  V30 4239 H 402.954 -2.3094 -3.52484 0
M  V30 4240 H 401.629 -1.23967 -2.99022 0
M  V30 4241 H 400.536 -3.25431 -1.84514 0
M  V30 4242 H 401.869 -4.27192 -2.44474 0
M  V30 4243 N 403.521 0.559213 -1.47345 0
M  V30 4244 C 404.937 0.884943 -1.32819 0
M  V30 4245 C 405.137 1.98988 -0.317173 0
M  V30 4246 O 404.193 2.51031 0.272011 0
M  V30 4247 C 405.506 1.28007 -2.72093 0
M  V30 4248 C 407.054 1.39161 -2.80363 0
M  V30 4249 C 407.529 1.82031 -4.20272 0
M  V30 4250 N 409.02 1.89185 -4.22804 0
M  V30 4251 C 409.755 2.2368 -5.27973 0
M  V30 4252 N 409.251 2.56802 -6.43447 0
M  V30 4253 N 411.044 2.24436 -5.15349 0
M  V30 4254 H 403.195 -0.170304 -2.11716 0
M  V30 4255 H 405.458 -0.0135247 -0.947904 0
M  V30 4256 H 405.164 0.542027 -3.47498 0
M  V30 4257 H 405.038 2.23665 -3.03733 0
M  V30 4258 H 407.425 2.12048 -2.05231 0
M  V30 4259 H 407.506 0.41696 -2.52379 0
M  V30 4260 H 407.15 1.09715 -4.95908 0
M  V30 4261 H 407.08 2.80495 -4.45679 0
M  V30 4262 H 409.571 1.65982 -3.39497 0
M  V30 4263 H 409.884 2.82144 -7.19454 0
M  V30 4264 H 408.229 2.54387 -6.46771 0
M  V30 4265 H 411.42 1.97998 -4.24163 0
M  V30 4266 H 411.593 2.50989 -5.97418 0
M  V30 4267 N 404.999 1.35443 0.805782 0
M  V30 4268 C 406.247 1.28507 1.55982 0
M  V30 4269 C 406.568 -0.140046 1.94496 0
M  V30 4270 O 405.838 -1.07666 1.63661 0
M  V30 4271 H 404.418 0.472676 0.578434 0
M  V30 4272 H 407.08 1.69555 0.961098 0
M  V30 4273 H 406.176 1.90148 2.47488 0
M  V30 4274 N 406.477 -1.02803 1.19454 0
M  V30 4275 C 407.425 -2.13213 0.929673 0
M  V30 4276 C 408.419 -1.69011 -0.114806 0
M  V30 4277 O 409.625 -1.79967 0.0345147 0
M  V30 4278 H 406 -0.69662 0.28324 0
M  V30 4279 H 407.971 -2.32744 1.86743 0
M  V30 4280 C 406.72 -3.4429 0.485797 0
M  V30 4281 H 406.043 -3.7872 1.28105 0
M  V30 4282 H 407.483 -4.22638 0.339582 0
M  V30 4283 C 405.942 -3.27258 -0.800244 0
M  V30 4284 O 406.472 -3.55967 -1.86146 0
M  V30 4285 N 404.678 -2.80545 -0.75781 0
M  V30 4286 H 404.225 -2.57382 0.106039 0
M  V30 4287 H 404.183 -2.6953 -1.61867 0
M  V30 4288 N 407.956 -0.998596 -1.21925 0
M  V30 4289 C 408.866 -0.562736 -2.27751 0
M  V30 4290 C 409.882 0.391203 -1.69545 0
M  V30 4291 O 411.058 0.256625 -1.99758 0
M  V30 4292 C 408.123 0.11012 -3.46525 0
M  V30 4293 C 407.184 -0.887495 -4.20026 0
M  V30 4294 C 406.417 -0.246654 -5.3313 0
M  V30 4295 O 406.64 0.958088 -5.62296 0
M  V30 4296 O 405.574 -0.954374 -5.94286 0
M  V30 4297 H 409.4 -1.44329 -2.67213 0
M  V30 4298 H 406.985 -0.767135 -1.28201 0
M  V30 4299 H 408.867 0.486756 -4.18579 0
M  V30 4300 H 407.542 0.965154 -3.08976 0
M  V30 4301 H 406.449 -1.31517 -3.5022 0
M  V30 4302 H 407.782 -1.71191 -4.6147 0
M  V30 4303 N 409.434 1.37368 -0.772513 0
M  V30 4304 C 410.367 2.27956 -0.105593 0
M  V30 4305 C 411.345 1.46362 0.708295 0
M  V30 4306 O 412.529 1.75695 0.682895 0
M  V30 4307 C 409.656 3.27687 0.856686 0
M  V30 4308 C 408.702 4.26312 0.1267 0
M  V30 4309 S 409.535 5.22206 -1.1858 0
M  V30 4310 C 410.691 6.25488 -0.227081 0
M  V30 4311 H 410.924 2.84171 -0.87372 0
M  V30 4312 H 408.457 1.43654 -0.565939 0
M  V30 4313 H 410.415 3.85653 1.40648 0
M  V30 4314 H 409.076 2.70417 1.59793 0
M  V30 4315 H 408.269 4.96674 0.856212 0
M  V30 4316 H 407.871 3.72339 -0.352117 0
M  V30 4317 H 410.163 6.74836 0.600231 0
M  V30 4318 H 411.106 7.02371 -0.898899 0
M  V30 4319 H 411.514 5.64267 0.162053 0
M  V30 4320 N 410.912 0.523116 1.48665 0
M  V30 4321 C 411.875 -0.232592 2.28017 0
M  V30 4322 C 412.875 -0.874021 1.34972 0
M  V30 4323 O 414.065 -0.735132 1.57929 0
M  V30 4324 C 411.197 -1.33586 3.13636 0
M  V30 4325 H 412.39 0.464008 2.96289 0
M  V30 4326 H 409.943 0.278816 1.53793 0
M  V30 4327 H 410.678 -2.06593 2.4998 0
M  V30 4328 H 410.463 -0.881125 3.82071 0
M  V30 4329 H 411.953 -1.86759 3.73511 0
M  V30 4330 N 412.39 -1.55475 0.257931 0
M  V30 4331 C 413.3 -2.2549 -0.647425 0
M  V30 4332 C 414.316 -1.2748 -1.18427 0
M  V30 4333 O 415.492 -1.6038 -1.2182 0
M  V30 4334 C 412.557 -2.94916 -1.82278 0
M  V30 4335 C 411.618 -4.08363 -1.32432 0
M  V30 4336 C 410.851 -4.74469 -2.44366 0
M  V30 4337 O 411.074 -4.39701 -3.63344 0
M  V30 4338 O 410.008 -5.62763 -2.13497 0
M  V30 4339 H 413.834 -3.03593 -0.0807707 0
M  V30 4340 H 411.419 -1.49377 0.0259962 0
M  V30 4341 H 413.301 -3.38606 -2.50846 0
M  V30 4342 H 411.976 -2.19744 -2.37685 0
M  V30 4343 H 410.883 -3.69166 -0.605605 0
M  V30 4344 H 412.216 -4.85385 -0.816211 0
M  V30 4345 N 413.868 0.0150385 -1.57593 0
M  V30 4346 C 415.117 0.702115 -1.89085 0
M  V30 4347 C 415.43 1.75764 -0.858277 0
M  V30 4348 O 416.636 2.49829 -1.0629 0
M  V30 4349 C 415.092 1.29992 -3.35604 0
M  V30 4350 C 414.7 0.280007 -4.47124 0
M  V30 4351 C 416.444 1.96606 -3.76227 0
M  V30 4352 C 414.351 0.886949 -5.84711 0
M  V30 4353 H 413.281 0.265997 -0.705522 0
M  V30 4354 H 415.932 -0.0430408 -1.8345 0
M  V30 4355 H 414.314 2.09525 -3.36029 0
M  V30 4356 H 415.488 -0.489631 -4.58191 0
M  V30 4357 H 413.803 -0.284835 -4.15425 0
M  V30 4358 H 416.4 2.42893 -4.76347 0
M  V30 4359 H 416.743 2.79024 -3.08952 0
M  V30 4360 H 417.276 1.23828 -3.78036 0
M  V30 4361 H 414.015 0.101876 -6.55421 0
M  V30 4362 H 413.535 1.6261 -5.77337 0
M  V30 4363 H 415.214 1.39011 -6.3189 0
M  V30 4364 N 415.346 1.54954 0.287554 0
M  V30 4365 C 416.276 1.89839 1.35954 0
M  V30 4366 C 417.257 0.758675 1.52244 0
M  V30 4367 O 418.442 1.01557 1.65529 0
M  V30 4368 C 415.572 2.15753 2.72154 0
M  V30 4369 C 414.526 3.3159 2.70614 0
M  V30 4370 C 413.852 3.42952 4.10229 0
M  V30 4371 C 415.152 4.68359 2.31165 0
M  V30 4372 H 416.846 2.79625 1.07007 0
M  V30 4373 H 414.392 1.3454 0.513316 0
M  V30 4374 H 416.345 2.38743 3.47246 0
M  V30 4375 H 415.069 1.22752 3.02654 0
M  V30 4376 H 413.728 3.08545 1.97979 0
M  V30 4377 H 413.376 2.47443 4.37928 0
M  V30 4378 H 413.076 4.20826 4.10097 0
M  V30 4379 H 414.6 3.68218 4.87081 0
M  V30 4380 H 416.014 4.9099 2.95976 0
M  V30 4381 H 414.411 5.49044 2.42221 0
M  V30 4382 H 415.481 4.68165 1.26291 0
M  V30 4383 N 416.824 -0.551391 1.4764 0
M  V30 4384 C 418.049 -1.33837 1.58437 0
M  V30 4385 C 418.474 -1.866 0.237063 0
M  V30 4386 O 417.832 -1.6328 -0.787994 0
M  V30 4387 C 417.88 -2.48014 2.61766 0
M  V30 4388 O 416.984 -3.50419 2.1744 0
M  V30 4389 H 416.325 -0.397299 0.532024 0
M  V30 4390 H 418.855 -0.665759 1.93465 0
M  V30 4391 H 418.865 -2.94503 2.82369 0
M  V30 4392 H 417.54 -2.08969 3.5959 0
M  V30 4393 H 416.117 -3.10196 2.06961 0
M  V30 4394 N 418.302 -1.35869 -0.798587 0
M  V30 4395 C 419.579 -1.20145 -1.54352 0
M  V30 4396 C 419.959 0.216161 -2.0999 0
M  V30 4397 O 419.307 1.22068 -1.93162 0
M  V30 4398 C 419.517 -2.27602 -2.64572 0
M  V30 4399 C 420.865 -2.63811 -3.32699 0
M  V30 4400 O 421.889 -2.26576 -2.74849 0
M  V30 4401 O 420.748 -3.27866 -4.37226 0
M  V30 4402 H 417.842 -0.467248 -0.682355 0
M  V30 4403 H 420.388 -1.47574 -0.837859 0
M  V30 4404 H 419.16 -3.2265 -2.21388 0
M  V30 4405 H 418.783 -2.01488 -3.42766 0
M  V30 4406 N 419.78 1.02168 -1.19998 0
M  V30 4407 C 421.027 1.75685 -1.00702 0
M  V30 4408 C 421.355 1.88947 0.461426 0
M  V30 4409 O 420.61 1.40832 1.35885 0
M  V30 4410 C 420.909 3.18081 -1.62969 0
M  V30 4411 C 420.575 3.24809 -3.12746 0
M  V30 4412 C 419.237 3.26352 -3.53621 0
M  V30 4413 C 421.589 3.23379 -4.08749 0
M  V30 4414 C 418.917 3.2413 -4.89036 0
M  V30 4415 C 421.269 3.22698 -5.44104 0
M  V30 4416 C 419.933 3.22542 -5.84399 0
M  V30 4417 H 419.203 0.642877 -0.368496 0
M  V30 4418 H 421.85 1.19865 -1.49348 0
M  V30 4419 H 420.155 3.77027 -1.06573 0
M  V30 4420 H 421.852 3.73648 -1.45561 0
M  V30 4421 H 418.442 3.2434 -2.80181 0
M  V30 4422 H 422.626 3.21361 -3.78207 0
M  V30 4423 H 417.882 3.22338 -5.19527 0
M  V30 4424 H 422.056 3.20543 -6.18244 0
M  V30 4425 H 419.683 3.20575 -6.89301 0
M  V30 4426 N 421.258 1.00505 1.21394 0
M  V30 4427 C 422.669 0.721082 1.72213 0
M  V30 4428 C 423.02 -0.761263 1.80829 0
M  V30 4429 O 422.145 -1.59464 1.46288 0
M  V30 4430 C 422.74 1.30228 3.12772 0
M  V30 4431 C 421.299 1.06743 3.60947 0
M  V30 4432 C 420.446 1.41507 2.38477 0
M  V30 4433 H 423.397 1.17594 1.06571 0
M  V30 4434 H 423.418 0.686955 3.74247 0
M  V30 4435 H 422.93 2.38115 3.06468 0
M  V30 4436 H 421.031 0.00572162 3.726 0
M  V30 4437 H 421.144 1.73936 4.46411 0
M  V30 4438 H 419.508 0.833852 2.40664 0
M  V30 4439 H 420.291 2.50424 2.34824 0
M  V30 4440 N 422.737 -1.36956 0.779787 0
M  V30 4441 C 423.647 -2.33965 0.172491 0
M  V30 4442 C 424.663 -1.60574 -0.670222 0
M  V30 4443 O 425.839 -1.92617 -0.588263 0
M  V30 4444 C 422.904 -3.39761 -0.690173 0
M  V30 4445 C 421.965 -4.28964 0.169924 0
M  V30 4446 C 421.198 -5.29707 -0.651662 0
M  V30 4447 O 421.421 -5.38238 -1.88827 0
M  V30 4448 O 420.355 -6.01873 -0.0566264 0
M  V30 4449 H 424.181 -2.87647 0.974321 0
M  V30 4450 H 421.766 -1.39258 0.541078 0
M  V30 4451 H 423.648 -4.04471 -1.1824 0
M  V30 4452 H 422.323 -2.88394 -1.47006 0
M  V30 4453 H 421.23 -3.67326 0.708696 0
M  V30 4454 H 422.563 -4.83656 0.913085 0
M  V30 4455 N 424.215 -0.530993 -1.48385 0
M  V30 4456 C 425.145 0.219985 -2.32461 0
M  V30 4457 C 426.126 0.934111 -1.42156 0
M  V30 4458 O 427.311 0.919694 -1.71042 0
M  V30 4459 C 424.441 1.26674 -3.23375 0
M  V30 4460 C 423.395 0.67069 -4.22712 0
M  V30 4461 C 422.721 1.82017 -5.02766 0
M  V30 4462 C 424.021 -0.358268 -5.2107 0
M  V30 4463 H 425.715 -0.48187 -2.95497 0
M  V30 4464 H 423.261 -0.233182 -1.42099 0
M  V30 4465 H 425.214 1.80006 -3.81019 0
M  V30 4466 H 423.938 1.99818 -2.58341 0
M  V30 4467 H 422.597 0.158878 -3.66256 0
M  V30 4468 H 422.245 2.54002 -4.34157 0
M  V30 4469 H 421.945 1.42727 -5.70003 0
M  V30 4470 H 423.469 2.35725 -5.63264 0
M  V30 4471 H 424.883 0.0880081 -5.73232 0
M  V30 4472 H 423.28 -0.66861 -5.96364 0
M  V30 4473 H 424.35 -1.26367 -4.68145 0
M  V30 4474 N 425.693 1.55336 -0.266172 0
M  V30 4475 C 426.921 2.03801 0.356756 0
M  V30 4476 C 427.336 1.14485 1.50129 0
M  V30 4477 O 426.693 0.163121 1.8177 0
M  V30 4478 C 426.744 3.51455 0.846281 0
M  V30 4479 O 426.465 4.37371 -0.252663 0
M  V30 4480 C 427.966 4.15767 1.53794 0
M  V30 4481 H 425.186 0.665906 0.0825218 0
M  V30 4482 H 427.73 2.00636 -0.39566 0
M  V30 4483 H 425.885 3.55092 1.54881 0
M  V30 4484 H 426.299 5.24358 0.122173 0
M  V30 4485 H 427.773 5.20714 1.83198 0
M  V30 4486 H 428.25 3.63404 2.46646 0
M  V30 4487 H 428.856 4.16107 0.879488 0
M  V30 4488 N 427.171 -0.0066808 1.57599 0
M  V30 4489 C 428.399 -0.704087 1.94551 0
M  V30 4490 C 428.814 -1.67677 0.867746 0
M  V30 4491 O 428.171 -1.8185 -0.153925 0
M  V30 4492 C 428.222 -1.44177 3.31505 0
M  V30 4493 O 427.943 -0.508097 4.35144 0
M  V30 4494 C 429.444 -2.23429 3.82876 0
M  V30 4495 H 426.664 -0.196523 0.641576 0
M  V30 4496 H 429.208 0.042453 2.04456 0
M  V30 4497 H 427.363 -2.13999 3.22929 0
M  V30 4498 H 427.777 -1.02782 5.14331 0
M  V30 4499 H 429.251 -2.70552 4.8115 0
M  V30 4500 H 429.728 -3.05818 3.15233 0
M  V30 4501 H 430.334 -1.58636 3.94607 0
M  V30 4502 N 428.649 -1.55105 -0.279332 0
M  V30 4503 C 429.596 -1.8755 -1.34513 0
M  V30 4504 C 430.566 -0.726384 -1.49375 0
M  V30 4505 O 431.751 -0.977063 -1.63884 0
M  V30 4506 C 428.891 -2.14738 -2.70151 0
M  V30 4507 C 428.004 -3.42285 -2.63562 0
M  V30 4508 C 427.139 -3.59206 -3.91337 0
M  V30 4509 C 426.178 -4.80467 -3.79233 0
M  V30 4510 N 425.315 -4.94079 -4.98829 0
M  V30 4511 H 430.155 -2.78456 -1.06143 0
M  V30 4512 H 427.692 -1.37867 -0.512936 0
M  V30 4513 H 429.65 -2.28501 -3.49061 0
M  V30 4514 H 428.28 -1.27075 -2.96735 0
M  V30 4515 H 427.332 -3.37029 -1.76397 0
M  V30 4516 H 428.644 -4.31328 -2.50515 0
M  V30 4517 H 427.798 -3.72751 -4.78687 0
M  V30 4518 H 426.537 -2.68337 -4.07243 0
M  V30 4519 H 425.542 -4.66932 -2.90266 0
M  V30 4520 H 426.767 -5.72765 -3.64852 0
M  V30 4521 H 424.713 -4.06139 -5.15158 0
M  V30 4522 H 424.63 -5.77156 -4.8829 0
M  V30 4523 H 425.898 -5.12003 -5.8777 0
M  V30 4524 N 430.127 0.543554 -1.4793 0
M  V30 4525 C 431.373 1.30201 -1.55485 0
M  V30 4526 C 431.706 1.92925 -0.222201 0
M  V30 4527 O 430.981 1.78586 0.77053 0
M  V30 4528 C 431.264 2.40174 -2.68307 0
M  V30 4529 C 431.117 1.8223 -4.11233 0
M  V30 4530 C 432.436 3.42024 -2.76961 0
M  V30 4531 H 429.555 0.472036 -0.565996 0
M  V30 4532 H 432.197 0.606914 -1.80046 0
M  V30 4533 H 430.347 2.99463 -2.47495 0
M  V30 4534 H 432.019 1.27096 -4.43446 0
M  V30 4535 H 430.262 1.12832 -4.18869 0
M  V30 4536 H 430.933 2.61793 -4.85972 0
M  V30 4537 H 433.409 2.92672 -2.95774 0
M  V30 4538 H 432.285 4.16383 -3.57654 0
M  V30 4539 H 432.546 4.0173 -1.84568 0
M  V30 4540 N 431.605 1.3629 0.791371 0
M  V30 4541 C 432.882 1.20962 1.53712 0
M  V30 4542 C 433.262 -0.205021 2.10102 0
M  V30 4543 O 432.61 -1.21042 1.93807 0
M  V30 4544 C 432.82 2.29002 2.63361 0
M  V30 4545 C 434.168 2.65572 3.31295 0
M  V30 4546 O 435.192 2.2803 2.73643 0
M  V30 4547 O 434.051 3.3018 4.35481 0
M  V30 4548 H 431.145 0.47086 0.679867 0
M  V30 4549 H 433.691 1.48016 0.830021 0
M  V30 4550 H 432.463 3.2382 2.19674 0
M  V30 4551 H 432.086 2.03303 3.41692 0
M  V30 4552 N 433.083 -1.0153 1.20538 0
M  V30 4553 C 434.031 -2.12215 0.952235 0
M  V30 4554 C 435.025 -1.69123 -0.0968735 0
M  V30 4555 O 436.231 -1.7992 0.0536006 0
M  V30 4556 H 432.606 -0.693576 0.290613 0
M  V30 4557 H 434.577 -2.3075 1.89201 0
M  V30 4558 C 433.326 -3.43755 0.522287 0
M  V30 4559 H 432.649 -3.7734 1.32115 0
M  V30 4560 H 434.089 -4.22254 0.384389 0
M  V30 4561 C 432.548 -3.28088 -0.765489 0
M  V30 4562 O 433.078 -3.57921 -1.8236 0
M  V30 4563 N 431.284 -2.81333 -0.728011 0
M  V30 4564 H 430.831 -2.57255 0.133332 0
M  V30 4565 H 430.789 -2.71232 -1.58999 0
M  V30 4566 N 434.561 -1.01147 -1.20859 0
M  V30 4567 C 435.471 -0.58686 -2.27141 0
M  V30 4568 C 436.487 0.373198 -1.69951 0
M  V30 4569 O 437.663 0.235423 -2.00019 0
M  V30 4570 C 434.728 0.0733602 -3.46622 0
M  V30 4571 C 433.789 -0.931995 -4.19061 0
M  V30 4572 C 433.022 -0.303186 -5.32838 0
M  V30 4573 O 433.245 0.898395 -5.63281 0
M  V30 4574 O 432.179 -1.01735 -5.9324 0
M  V30 4575 H 436.005 -1.47155 -2.65667 0
M  V30 4576 H 433.59 -0.780689 -1.2738 0
M  V30 4577 H 435.472 0.442333 -4.19072 0
M  V30 4578 H 434.147 0.932329 -3.09983 0
M  V30 4579 H 433.054 -1.35224 -3.48805 0
M  V30 4580 H 434.387 -1.76076 -4.59628 0
M  V30 4581 N 436.039 1.36541 -0.78704 0
M  V30 4582 C 437.316 1.9355 -0.282424 0
M  V30 4583 C 437.696 1.71919 1.22503 0
M  V30 4584 O 437.044 1.07677 2.01539 0
M  V30 4585 C 437.254 3.4246 -0.672462 0
M  V30 4586 C 438.602 4.19582 -0.650863 0
M  V30 4587 O 439.626 3.50889 -0.612789 0
M  V30 4588 O 438.485 5.42106 -0.691623 0
M  V30 4589 H 435.579 0.824091 -0.0693 0
M  V30 4590 H 438.125 1.45736 -0.869423 0
M  V30 4591 H 436.897 3.51851 -1.71221 0
M  V30 4592 H 436.52 3.97556 -0.0592211 0
M  V30 4593 N 437.518 0.538854 1.48102 0
M  V30 4594 C 438.764 0.00801365 2.02798 0
M  V30 4595 C 439.097 -1.3309 1.41424 0
M  V30 4596 O 438.372 -1.86169 0.563158 0
M  V30 4597 C 438.655 -0.104589 3.59948 0
M  V30 4598 C 438.508 1.26012 4.31788 0
M  V30 4599 C 439.827 -0.827055 4.32259 0
M  V30 4600 H 436.946 0.00438624 0.736987 0
M  V30 4601 H 439.588 0.6976 1.7673 0
M  V30 4602 H 437.738 -0.691893 3.82289 0
M  V30 4603 H 439.41 1.88922 4.2084 0
M  V30 4604 H 437.653 1.83968 3.92859 0
M  V30 4605 H 438.324 1.13424 5.40221 0
M  V30 4606 H 440.8 -0.328578 4.14801 0
M  V30 4607 H 439.676 -0.87476 5.41885 0
M  V30 4608 H 439.937 -1.87927 4.0017 0
M  V30 4609 N 438.996 -1.55193 0.274407 0
M  V30 4610 C 440.244 -1.99187 -0.341902 0
M  V30 4611 C 440.565 -1.16422 -1.56431 0
M  V30 4612 O 439.835 -0.253573 -1.94252 0
M  V30 4613 H 438.415 -0.735721 -0.129317 0
M  V30 4614 H 441.077 -1.91168 0.379578 0
M  V30 4615 H 440.173 -3.05629 -0.632253 0
M  V30 4616 N 440.474 -0.00167713 -1.576 0
M  V30 4617 C 441.723 0.682021 -1.89819 0
M  V30 4618 C 442.036 1.74844 -0.876871 0
M  V30 4619 O 443.242 2.48688 -1.08934 0
M  V30 4620 C 441.698 1.26425 -3.36964 0
M  V30 4621 C 441.306 0.232568 -4.47396 0
M  V30 4622 C 443.05 1.92604 -3.78291 0
M  V30 4623 C 440.957 0.824882 -5.85619 0
M  V30 4624 H 439.887 0.258499 -0.708304 0
M  V30 4625 H 442.538 -0.0624957 -1.83394 0
M  V30 4626 H 440.92 2.05949 -3.38232 0
M  V30 4627 H 442.094 -0.5382 -4.57646 0
M  V30 4628 H 440.409 -0.32888 -4.15099 0
M  V30 4629 H 443.006 2.37827 -4.78897 0
M  V30 4630 H 443.349 2.75732 -3.11894 0
M  V30 4631 H 443.882 1.19812 -3.79328 0
M  V30 4632 H 440.621 0.0323542 -6.55492 0
M  V30 4633 H 440.141 1.56477 -5.79029 0
M  V30 4634 H 441.82 1.32301 -6.33329 0
M  V30 4635 N 441.952 1.55251 0.271103 0
M  V30 4636 C 442.885 1.83191 1.36075 0
M  V30 4637 C 443.863 0.685091 1.47463 0
M  V30 4638 O 445.047 0.928292 1.64058 0
M  V30 4639 C 442.174 1.99521 2.73696 0
M  V30 4640 C 441.22 3.22081 2.79582 0
M  V30 4641 S 442.053 4.79388 2.38636 0
M  V30 4642 C 443.209 4.98693 3.78228 0
M  V30 4643 H 443.442 2.75327 1.12171 0
M  V30 4644 H 440.975 1.47046 0.470833 0
M  V30 4645 H 442.933 2.09613 3.52948 0
M  V30 4646 H 441.594 1.0827 2.9485 0
M  V30 4647 H 440.787 3.304 3.80594 0
M  V30 4648 H 440.389 3.10589 2.08352 0
M  V30 4649 H 442.681 4.84551 4.73515 0
M  V30 4650 H 443.624 6.00738 3.7486 0
M  V30 4651 H 444.032 4.26665 3.69618 0
M  V30 4652 N 443.43 -0.535701 1.48216 0
M  V30 4653 C 444.362 -1.65662 1.58394 0
M  V30 4654 C 445.375 -1.5591 0.468607 0
M  V30 4655 O 446.564 -1.62475 0.7392 0
M  V30 4656 C 443.664 -3.04276 1.4923 0
M  V30 4657 C 442.837 -3.39567 2.75705 0
M  V30 4658 C 441.896 -4.57436 2.60075 0
M  V30 4659 O 440.922 -4.60942 3.33948 0
M  V30 4660 N 442.124 -5.55259 1.69315 0
M  V30 4661 H 444.889 -1.5737 2.55058 0
M  V30 4662 H 442.45 -0.722845 1.44867 0
M  V30 4663 H 444.442 -3.80994 1.36477 0
M  V30 4664 H 443.012 -3.06677 0.605632 0
M  V30 4665 H 442.232 -2.52083 3.03064 0
M  V30 4666 H 443.52 -3.59929 3.59623 0
M  V30 4667 H 442.918 -5.552 1.08489 0
M  V30 4668 H 441.475 -6.31218 1.62504 0
M  V30 4669 N 444.908 -1.36708 -0.784132 0
M  V30 4670 C 446.324 -1.17237 -1.08294 0
M  V30 4671 C 446.524 -5.93947e-05 -2.015 0
M  V30 4672 O 445.58 0.663686 -2.43622 0
M  V30 4673 C 446.893 -2.48557 -1.69233 0
M  V30 4674 C 448.441 -2.54968 -1.8155 0
M  V30 4675 C 448.916 -3.86388 -2.45904 0
M  V30 4676 N 450.407 -3.87762 -2.53367 0
M  V30 4677 C 451.142 -4.86191 -3.03983 0
M  V30 4678 N 450.638 -5.95015 -3.54866 0
M  V30 4679 N 452.431 -4.73606 -3.02743 0
M  V30 4680 H 444.582 -2.11758 -0.16501 0
M  V30 4681 H 446.845 -0.93822 -0.135822 0
M  V30 4682 H 446.551 -3.34638 -1.08215 0
M  V30 4683 H 446.425 -2.64748 -2.68679 0
M  V30 4684 H 448.812 -1.69302 -2.41704 0
M  V30 4685 H 448.893 -2.42672 -0.80895 0
M  V30 4686 H 448.537 -4.72462 -1.86392 0
M  V30 4687 H 448.467 -3.95982 -3.4714 0
M  V30 4688 H 450.958 -3.09145 -2.17343 0
M  V30 4689 H 451.271 -6.66086 -3.91854 0
M  V30 4690 H 449.616 -5.98676 -3.53003 0
M  V30 4691 H 452.807 -3.87717 -2.62284 0
M  V30 4692 H 452.98 -5.50473 -3.41881 0
M  V30 4693 N 446.386 1.0089 -1.21074 0
M  V30 4694 C 447.614 1.78191 -1.05145 0
M  V30 4695 C 448.029 1.84537 0.398952 0
M  V30 4696 O 447.386 1.30393 1.27687 0
M  V30 4697 C 447.437 3.22288 -1.63746 0
M  V30 4698 O 447.158 3.16315 -3.03111 0
M  V30 4699 C 448.659 4.16106 -1.52875 0
M  V30 4700 H 445.879 0.560129 -0.369454 0
M  V30 4701 H 448.423 1.26945 -1.60328 0
M  V30 4702 H 446.578 3.70655 -1.12664 0
M  V30 4703 H 446.992 4.06817 -3.31059 0
M  V30 4704 H 448.466 5.15026 -1.98626 0
M  V30 4705 H 448.943 4.36541 -0.482521 0
M  V30 4706 H 449.549 3.73625 -2.03185 0
M  V30 4707 N 447.864 1.01787 1.20321 0
M  V30 4708 C 449.104 0.716493 1.91431 0
M  V30 4709 C 449.468 -0.740352 1.77152 0
M  V30 4710 O 450.669 -1.1543 2.42754 0
M  V30 4711 C 448.94 1.14169 3.38674 0
M  V30 4712 S 450.499 0.962482 4.28114 0
M  V30 4713 H 447.317 0.261175 0.661293 0
M  V30 4714 H 449.919 1.30539 1.45533 0
M  V30 4715 H 448.623 2.19784 3.46588 0
M  V30 4716 H 448.154 0.545621 3.89598 0
M  V30 4717 H 450.169 -0.133253 4.96021 0
M  V30 4718 N 449.342 -1.36122 0.79427 0
M  V30 4719 C 450.272 -2.32551 0.210328 0
M  V30 4720 C 451.253 -1.56884 -0.657386 0
M  V30 4721 O 452.438 -1.85014 -0.590207 0
M  V30 4722 C 449.568 -3.41128 -0.651819 0
M  V30 4723 C 448.522 -4.27842 0.116395 0
M  V30 4724 C 447.848 -5.2763 -0.86666 0
M  V30 4725 C 449.148 -5.05647 1.30837 0
M  V30 4726 H 450.842 -2.81636 1.01594 0
M  V30 4727 H 448.388 -1.35407 0.489981 0
M  V30 4728 H 450.341 -4.07581 -1.07031 0
M  V30 4729 H 449.065 -2.90622 -1.49019 0
M  V30 4730 H 447.724 -3.62952 0.515915 0
M  V30 4731 H 447.372 -4.73395 -1.70019 0
M  V30 4732 H 447.072 -5.86514 -0.35705 0
M  V30 4733 H 448.596 -5.96955 -1.28361 0
M  V30 4734 H 450.01 -5.65113 0.965393 0
M  V30 4735 H 448.407 -5.73967 1.75161 0
M  V30 4736 H 449.477 -4.37006 2.10128 0
M  V30 4737 N 450.82 -0.546701 -1.47814 0
M  V30 4738 C 452.066 -0.0187684 -2.02791 0
M  V30 4739 C 452.399 1.32338 -1.42128 0
M  V30 4740 O 451.674 1.85867 -0.573023 0
M  V30 4741 C 451.957 0.0854985 -3.59998 0
M  V30 4742 C 451.81 -1.283 -4.31114 0
M  V30 4743 C 453.129 0.80412 -4.32691 0
M  V30 4744 H 450.248 -0.0082946 -0.736953 0
M  V30 4745 H 452.89 -0.706962 -1.76358 0
M  V30 4746 H 451.04 0.671609 -3.82651 0
M  V30 4747 H 452.712 -1.91151 -4.19832 0
M  V30 4748 H 450.955 -1.86049 -3.91878 0
M  V30 4749 H 451.626 -1.16287 -5.39612 0
M  V30 4750 H 454.102 0.306576 -4.14969 0
M  V30 4751 H 452.978 0.846011 -5.42341 0
M  V30 4752 H 453.239 1.85802 -4.01161 0
M  V30 4753 N 452.299 1.55045 -0.282633 0
M  V30 4754 C 453.262 2.21515 0.588539 0
M  V30 4755 C 454.262 1.19535 1.07554 0
M  V30 4756 O 455.452 1.44391 0.974514 0
M  V30 4757 C 452.584 2.88704 1.8128 0
M  V30 4758 H 453.777 2.99899 0.00806397 0
M  V30 4759 H 451.33 1.56265 -0.0333067 0
M  V30 4760 H 452.065 2.14352 2.43359 0
M  V30 4761 H 451.85 3.63443 1.47144 0
M  V30 4762 H 453.34 3.39465 2.43214 0
M  V30 4763 N 453.777 0.010035 1.57597 0
M  V30 4764 C 454.725 -0.996272 2.10184 0
M  V30 4765 C 455.719 -1.34942 1.02406 0
M  V30 4766 O 456.925 -1.33389 1.20861 0
M  V30 4767 H 453.3 -0.338982 0.671264 0
M  V30 4768 H 455.271 -0.527272 2.93705 0
M  V30 4769 C 454.02 -2.27599 2.62857 0
M  V30 4770 H 453.343 -2.01295 3.45428 0
M  V30 4771 H 454.783 -2.96265 3.0332 0
M  V30 4772 C 453.242 -2.99269 1.54725 0
M  V30 4773 O 453.772 -3.90644 0.93597 0
M  V30 4774 N 451.978 -2.61269 1.27228 0
M  V30 4775 H 451.525 -1.87043 1.77123 0
M  V30 4776 H 451.483 -3.09534 0.550999 0
M  V30 4777 N 455.255 -1.55392 -0.262866 0
M  V30 4778 C 456.483 -1.80513 -1.01108 0
M  V30 4779 C 456.898 -0.583533 -1.79556 0
M  V30 4780 O 456.255 0.447585 -1.76926 0
M  V30 4781 C 456.306 -3.03648 -1.96164 0
M  V30 4782 O 456.027 -4.2109 -1.20893 0
M  V30 4783 C 457.528 -3.41448 -2.82715 0
M  V30 4784 H 454.748 -0.601079 -0.298236 0
M  V30 4785 H 457.292 -2.02425 -0.290582 0
M  V30 4786 H 455.447 -2.83832 -2.63663 0
M  V30 4787 H 455.861 -4.90771 -1.85051 0
M  V30 4788 H 457.335 -4.30751 -3.45192 0
M  V30 4789 H 457.812 -2.61308 -3.53008 0
M  V30 4790 H 458.418 -3.63559 -2.20693 0
M  V30 4791 N 456.733 0.527833 -1.48498 0
M  V30 4792 C 457.958 1.313 -1.60546 0
M  V30 4793 C 458.383 1.86199 -0.26672 0
M  V30 4794 O 457.741 1.64513 0.761918 0
M  V30 4795 C 457.789 2.43818 -2.65678 0
M  V30 4796 O 456.893 3.46916 -2.22987 0
M  V30 4797 H 456.234 0.388784 -0.538277 0
M  V30 4798 H 458.764 0.634896 -1.945 0
M  V30 4799 H 458.774 2.89973 -2.87018 0
M  V30 4800 H 457.449 2.03222 -3.62869 0
M  V30 4801 H 456.026 3.06864 -2.11869 0
M  V30 4802 N 458.211 1.37122 0.776871 0
M  V30 4803 C 459.159 1.32549 1.91138 0
M  V30 4804 C 460.153 0.215119 1.68029 0
M  V30 4805 O 461.359 0.382852 1.75881 0
M  V30 4806 H 457.734 0.412952 0.62847 0
M  V30 4807 H 459.705 2.28332 1.92112 0
M  V30 4808 C 458.454 1.14422 3.28333 0
M  V30 4809 H 457.777 1.99115 3.46689 0
M  V30 4810 H 459.217 1.15272 4.0803 0
M  V30 4811 C 457.676 -0.150434 3.36564 0
M  V30 4812 O 458.206 -1.13584 3.85307 0
M  V30 4813 N 456.412 -0.19939 2.89915 0
M  V30 4814 H 455.959 0.603142 2.5044 0
M  V30 4815 H 455.917 -1.06526 2.95803 0
M  V30 4816 N 459.689 -1.00246 1.21608 0
M  V30 4817 C 460.622 -2.08794 0.920892 0
M  V30 4818 C 461.6 -1.62059 -0.132552 0
M  V30 4819 O 462.784 -1.885 -0.0030366 0
M  V30 4820 C 459.911 -3.36525 0.383226 0
M  V30 4821 C 458.957 -4.02172 1.41987 0
M  V30 4822 S 459.79 -4.44256 2.98994 0
M  V30 4823 C 460.946 -5.7517 2.4684 0
M  V30 4824 H 461.179 -2.33511 1.8401 0
M  V30 4825 H 458.712 -1.13562 1.04609 0
M  V30 4826 H 460.67 -4.10423 0.0795871 0
M  V30 4827 H 459.331 -3.09854 -0.514711 0
M  V30 4828 H 458.524 -4.94114 0.993335 0
M  V30 4829 H 458.126 -3.34559 1.67171 0
M  V30 4830 H 460.418 -6.51042 1.87484 0
M  V30 4831 H 461.361 -6.22638 3.37235 0
M  V30 4832 H 461.769 -5.32112 1.88461 0
M  V30 4833 N 461.167 -1.02423 -1.1978 0
M  V30 4834 C 462.578 -0.748389 -1.71044 0
M  V30 4835 C 462.929 0.732398 -1.82017 0
M  V30 4836 O 462.054 1.57116 -1.48807 0
M  V30 4837 C 462.649 -1.35187 -3.1066 0
M  V30 4838 C 461.208 -1.12472 -3.59203 0
M  V30 4839 C 460.355 -1.45283 -2.36195 0
M  V30 4840 H 463.306 -1.19275 -1.04686 0
M  V30 4841 H 463.327 -0.746408 -3.73107 0
M  V30 4842 H 462.839 -2.4296 -3.02642 0
M  V30 4843 H 460.94 -0.0649983 -3.72543 0
M  V30 4844 H 461.053 -1.81016 -4.43588 0
M  V30 4845 H 459.417 -0.872034 -2.39307 0
M  V30 4846 H 460.2 -2.54129 -2.30811 0
M  V30 4847 N 462.645 1.35699 -0.801477 0
M  V30 4848 C 463.891 1.99208 -0.380022 0
M  V30 4849 C 464.224 1.63445 1.04878 0
M  V30 4850 O 463.499 0.895223 1.72673 0
M  V30 4851 C 463.782 3.55755 -0.557708 0
M  V30 4852 C 463.635 4.01332 -2.03107 0
M  V30 4853 C 464.954 4.40096 0.0197968 0
M  V30 4854 H 462.073 0.723667 -0.139552 0
M  V30 4855 H 464.715 1.60928 -1.01006 0
M  V30 4856 H 462.865 3.88494 -0.0213741 0
M  V30 4857 H 464.537 3.79026 -2.62939 0
M  V30 4858 H 462.78 3.52429 -2.52936 0
M  V30 4859 H 463.451 5.10234 -2.1063 0
M  V30 4860 H 465.927 4.13786 -0.438179 0
M  V30 4861 H 464.803 5.48735 -0.134477 0
M  V30 4862 H 465.064 4.2786 1.11303 0
M  V30 4863 N 464.123 0.554532 1.47522 0
M  V30 4864 C 465.086 -0.184174 2.28459 0
M  V30 4865 C 466.086 -0.845195 1.36796 0
M  V30 4866 O 467.276 -0.701467 1.59452 0
M  V30 4867 C 464.408 -1.26903 3.16399 0
M  V30 4868 H 465.601 0.526751 2.95238 0
M  V30 4869 H 463.154 0.311375 1.53167 0
M  V30 4870 H 463.889 -2.01244 2.54306 0
M  V30 4871 H 463.674 -0.799883 3.83854 0
M  V30 4872 H 465.164 -1.78794 3.77389 0
M  V30 4873 N 465.601 -1.54893 0.290851 0
M  V30 4874 C 466.564 -2.21824 -0.576784 0
M  V30 4875 C 467.564 -1.20104 -1.06919 0
M  V30 4876 O 468.754 -1.44906 -0.966843 0
M  V30 4877 C 465.886 -2.89662 -1.79747 0
M  V30 4878 H 467.079 -2.99899 0.00784051 0
M  V30 4879 H 464.632 -1.56245 0.0415934 0
M  V30 4880 H 465.367 -2.15639 -2.42219 0
M  V30 4881 H 465.152 -3.64219 -1.45214 0
M  V30 4882 H 466.642 -3.4075 -2.4141 0
M  V30 4883 N 467.08 -0.0183926 -1.57589 0
M  V30 4884 C 468.496 0.337897 -1.55982 0
M  V30 4885 C 468.696 1.73604 -1.02294 0
M  V30 4886 O 467.752 2.43589 -0.664895 0
M  V30 4887 C 469.065 0.196305 -3.00059 0
M  V30 4888 C 470.613 0.269875 -3.11834 0
M  V30 4889 C 471.088 0.157197 -4.5773 0
M  V30 4890 N 472.579 0.214521 -4.62703 0
M  V30 4891 C 473.314 0.150955 -5.73201 0
M  V30 4892 N 472.81 0.0369212 -6.9279 0
M  V30 4893 N 474.603 0.204162 -5.61729 0
M  V30 4894 H 466.754 -0.93279 -1.90821 0
M  V30 4895 H 469.017 -0.359253 -0.877292 0
M  V30 4896 H 468.723 -0.766383 -3.43248 0
M  V30 4897 H 468.597 0.970908 -3.6449 0
M  V30 4898 H 470.984 1.22302 -2.68563 0
M  V30 4899 H 471.065 -0.534918 -2.50144 0
M  V30 4900 H 470.709 -0.792479 -5.01679 0
M  V30 4901 H 470.639 0.980717 -5.17387 0
M  V30 4902 H 473.13 0.303238 -3.76681 0
M  V30 4903 H 473.443 -0.00518321 -7.728 0
M  V30 4904 H 471.788 0.0022886 -6.95 0
M  V30 4905 H 474.979 0.291575 -4.67191 0
M  V30 4906 H 475.152 0.15116 -6.47824 0
M  V30 4907 N 468.558 1.5553 0.254621 0
M  V30 4908 C 469.468 1.92789 1.33677 0
M  V30 4909 C 470.484 0.827356 1.53071 0
M  V30 4910 O 471.66 1.12807 1.66843 0
M  V30 4911 C 468.725 2.20827 2.67275 0
M  V30 4912 C 467.786 3.4427 2.5647 0
M  V30 4913 C 467.019 3.70961 3.83697 0
M  V30 4914 O 467.242 2.99852 4.85227 0
M  V30 4915 O 466.176 4.64491 3.82794 0
M  V30 4916 H 470.002 2.84945 1.05071 0
M  V30 4917 H 467.587 1.42312 0.454723 0
M  V30 4918 H 469.469 2.40204 3.46237 0
M  V30 4919 H 468.144 1.31851 2.9563 0
M  V30 4920 H 467.051 3.30209 1.75821 0
M  V30 4921 H 468.384 4.33524 2.33062 0
M  V30 4922 N 470.036 -0.519951 1.48776 0
M  V30 4923 C 470.999 -1.60574 1.6355 0
M  V30 4924 C 471.999 -1.52557 0.508234 0
M  V30 4925 O 473.189 -1.56047 0.774262 0
M  V30 4926 C 470.321 -3.00211 1.61512 0
M  V30 4927 H 471.514 -1.4881 2.60376 0
M  V30 4928 H 469.067 -0.742772 1.37523 0
M  V30 4929 H 469.802 -3.17471 0.662009 0
M  V30 4930 H 469.587 -3.07439 2.43359 0
M  V30 4931 H 471.077 -3.79134 1.75064 0
M  V30 4932 N 471.514 -1.37532 -0.769588 0
M  V30 4933 C 472.739 -1.36231 -1.56384 0
M  V30 4934 C 473.164 0.0495849 -1.88035 0
M  V30 4935 O 472.522 1.02723 -1.49391 0
M  V30 4936 C 472.57 -2.20986 -2.84952 0
M  V30 4937 O 471.674 -1.61597 -3.79421 0
M  V30 4938 H 471.015 -0.465387 -0.473615 0
M  V30 4939 H 473.545 -1.81085 -0.952342 0
M  V30 4940 H 473.555 -2.34277 -3.34034 0
M  V30 4941 H 472.23 -3.23612 -2.61243 0
M  V30 4942 H 470.807 -1.57359 -3.38072 0
M  V30 4943 N 472.992 0.995999 -1.22138 0
M  V30 4944 C 474.241 1.72928 -1.03821 0
M  V30 4945 C 474.554 1.90872 0.427444 0
M  V30 4946 O 475.76 2.61496 0.730212 0
M  V30 4947 C 474.216 3.11124 -1.80913 0
M  V30 4948 C 473.824 3.01122 -3.31707 0
M  V30 4949 C 475.568 3.8852 -1.71035 0
M  V30 4950 C 473.475 4.34453 -4.01253 0
M  V30 4951 H 472.405 0.648376 -0.384869 0
M  V30 4952 H 475.056 1.11213 -1.45959 0
M  V30 4953 H 473.438 3.73503 -1.31573 0
M  V30 4954 H 474.612 2.47926 -3.88419 0
M  V30 4955 H 472.927 2.3721 -3.42228 0
M  V30 4956 H 475.524 4.872 -2.20318 0
M  V30 4957 H 475.867 4.1087 -0.670196 0
M  V30 4958 H 476.4 3.32812 -2.17902 0
M  V30 4959 H 473.139 4.17303 -5.05508 0
M  V30 4960 H 472.659 4.87574 -3.49331 0
M  V30 4961 H 474.338 5.03215 -4.06674 0
M  V30 4962 N 474.47 1.03057 1.19235 0
M  V30 4963 C 475.7 0.746613 1.92638 0
M  V30 4964 C 476.108 -0.698708 1.75826 0
M  V30 4965 O 475.451 -1.487 1.07861 0
M  V30 4966 C 475.513 1.02024 3.44719 0
M  V30 4967 C 475.177 2.45745 3.85303 0
M  V30 4968 C 476.174 3.43887 3.8992 0
M  V30 4969 C 473.859 2.8019 4.16892 0
M  V30 4970 C 475.853 4.74529 4.2556 0
M  V30 4971 C 473.54 4.1104 4.52205 0
M  V30 4972 C 474.538 5.0802 4.56513 0
M  V30 4973 O 474.226 6.36527 4.91008 0
M  V30 4974 H 473.958 0.272401 0.618687 0
M  V30 4975 H 476.512 1.37853 1.52269 0
M  V30 4976 H 474.742 0.331184 3.85279 0
M  V30 4977 H 476.431 0.725677 3.9936 0
M  V30 4978 H 477.197 3.18614 3.65664 0
M  V30 4979 H 473.076 2.05382 4.12722 0
M  V30 4980 H 476.62 5.50222 4.28838 0
M  V30 4981 H 472.517 4.36086 4.7592 0
M  V30 4982 H 473.285 6.41025 5.08949 0
M  V30 4983 N 475.948 -1.35272 0.808662 0
M  V30 4984 C 477.176 -2.02946 0.402537 0
M  V30 4985 C 477.591 -1.60937 -0.987147 0
M  V30 4986 O 476.948 -0.807917 -1.63643 0
M  V30 4987 C 476.999 -3.58317 0.47868 0
M  V30 4988 O 476.72 -3.98799 1.81358 0
M  V30 4989 C 478.221 -4.43251 0.0656281 0
M  V30 4990 H 475.441 -0.650831 0.163279 0
M  V30 4991 H 477.985 -1.72849 1.09286 0
M  V30 4992 H 476.14 -3.87055 -0.163415 0
M  V30 4993 H 476.554 -4.93451 1.77781 0
M  V30 4994 H 478.028 -5.51738 0.170017 0
M  V30 4995 H 478.505 -4.27913 -0.989278 0
M  V30 4996 H 479.111 -4.19813 0.68096 0
M  V30 4997 N 477.426 -0.562348 -1.47226 0
M  V30 4998 C 478.674 -0.0401371 -2.0206 0
M  V30 4999 C 478.995 1.3165 -1.43852 0
M  V30 5000 O 478.265 1.85976 -0.615599 0
M  V30 5001 H 476.845 -0.0118479 -0.746906 0
M  V30 5002 H 479.507 -0.73352 -1.8057 0
M  V30 5003 H 478.603 0.0441254 -3.12069 0
M  V30 5004 N 478.904 1.54736 -0.299062 0
M  V30 5005 C 480.153 1.99279 0.311549 0
M  V30 5006 C 480.466 1.19107 1.55154 0
M  V30 5007 O 481.672 1.53908 2.23662 0
M  V30 5008 C 480.128 3.54768 0.605632 0
M  V30 5009 C 479.736 4.43746 -0.615914 0
M  V30 5010 C 481.48 4.07841 1.17754 0
M  V30 5011 C 479.387 5.90663 -0.29509 0
M  V30 5012 H 478.317 0.744359 0.120187 0
M  V30 5013 H 480.968 1.78919 -0.407464 0
M  V30 5014 H 479.35 3.71021 1.38419 0
M  V30 5015 H 480.524 4.39267 -1.39218 0
M  V30 5016 H 478.839 4.01434 -1.10633 0
M  V30 5017 H 481.436 5.15174 1.43179 0
M  V30 5018 H 481.779 3.58324 2.11918 0
M  V30 5019 H 482.312 3.95123 0.460739 0
M  V30 5020 H 479.051 6.44325 -1.20524 0
M  V30 5021 H 478.571 5.98155 0.44394 0
M  V30 5022 H 480.25 6.46916 0.104048 0
M  V30 5023 N 480.382 0.0267497 1.57577 0
M  V30 5024 C 481.61 -0.662661 1.96001 0
M  V30 5025 C 482.025 -1.65799 0.903117 0
M  V30 5026 O 481.382 -1.82135 -0.115317 0
M  V30 5027 C 481.433 -1.37112 3.34488 0
M  V30 5028 O 481.154 -0.415683 4.36123 0
M  V30 5029 C 482.655 -2.15257 3.8753 0
M  V30 5030 H 479.875 -0.18287 0.6456 0
M  V30 5031 H 482.419 0.0858116 2.0432 0
M  V30 5032 H 480.574 -2.07101 3.27395 0
M  V30 5033 H 480.988 -0.918496 5.16395 0
M  V30 5034 H 482.462 -2.60285 4.86781 0
M  V30 5035 H 482.939 -2.99063 3.21649 0
M  V30 5036 H 483.545 -1.50231 3.97883 0
M  V30 5037 N 481.861 -1.55662 -0.24637 0
M  V30 5038 C 482.791 -1.93377 -1.30873 0
M  V30 5039 C 483.772 -0.798773 -1.50179 0
M  V30 5040 O 484.957 -1.0591 -1.62778 0
M  V30 5041 C 482.087 -2.22893 -2.66338 0
M  V30 5042 C 481.041 -3.38649 -2.61727 0
M  V30 5043 C 480.367 -3.53708 -4.00992 0
M  V30 5044 C 481.667 -4.74323 -2.18666 0
M  V30 5045 H 483.361 -2.82363 -0.995552 0
M  V30 5046 H 480.907 -1.35854 -0.477464 0
M  V30 5047 H 482.86 -2.47866 -3.40794 0
M  V30 5048 H 481.584 -1.30733 -2.99293 0
M  V30 5049 H 480.243 -3.13685 -1.89729 0
M  V30 5050 H 479.891 -2.58967 -4.31214 0
M  V30 5051 H 479.591 -4.31551 -3.98795 0
M  V30 5052 H 481.115 -3.81003 -4.77147 0
M  V30 5053 H 482.529 -4.98665 -2.82854 0
M  V30 5054 H 480.926 -5.55273 -2.27579 0
M  V30 5055 H 481.996 -4.71349 -1.13834 0
M  V30 5056 N 483.339 0.512053 -1.4905 0
M  V30 5057 C 484.579 1.27715 -1.59588 0
M  V30 5058 C 484.943 1.90071 -0.271502 0
M  V30 5059 O 486.144 2.67616 -0.251987 0
M  V30 5060 C 484.415 2.32399 -2.71524 0
M  V30 5061 S 485.974 3.18396 -3.01943 0
M  V30 5062 H 482.792 0.43419 -0.563027 0
M  V30 5063 H 485.394 0.581315 -1.86657 0
M  V30 5064 H 484.098 1.85101 -3.66287 0
M  V30 5065 H 483.629 3.06667 -2.46412 0
M  V30 5066 H 485.644 4.32842 -2.42616 0
M  V30 5067 N 484.817 1.37938 0.762283 0
M  V30 5068 C 485.727 1.36681 1.90671 0
M  V30 5069 C 486.743 0.265078 1.71969 0
M  V30 5070 O 487.919 0.502055 1.95042 0
M  V30 5071 C 484.984 1.18211 3.25925 0
M  V30 5072 C 484.045 2.3811 3.57214 0
M  V30 5073 C 483.278 2.20512 4.86014 0
M  V30 5074 O 483.501 1.19429 5.57757 0
M  V30 5075 O 482.435 3.08911 5.16583 0
M  V30 5076 H 486.261 2.33091 1.94685 0
M  V30 5077 H 483.846 1.18767 0.906356 0
M  V30 5078 H 485.728 1.09937 4.06807 0
M  V30 5079 H 484.403 0.248807 3.22742 0
M  V30 5080 H 483.31 2.51958 2.76529 0
M  V30 5081 H 484.643 3.30041 3.65149 0
M  V30 5082 N 486.295 -0.989507 1.22664 0
M  V30 5083 C 487.525 -1.7624 1.0781 0
M  V30 5084 C 487.933 -1.85466 -0.374036 0
M  V30 5085 O 487.276 -1.32645 -1.27087 0
M  V30 5086 C 487.338 -3.21007 1.61849 0
M  V30 5087 C 487.002 -3.35316 3.10503 0
M  V30 5088 C 487.999 -3.22362 4.07896 0
M  V30 5089 C 485.684 -3.60258 3.50028 0
M  V30 5090 C 487.678 -3.34139 5.42798 0
M  V30 5091 C 485.365 -3.71676 4.85078 0
M  V30 5092 C 486.363 -3.58625 5.81272 0
M  V30 5093 O 486.051 -3.69655 7.1387 0
M  V30 5094 H 485.783 -0.560209 0.378341 0
M  V30 5095 H 488.337 -1.25252 1.62792 0
M  V30 5096 H 486.567 -3.73202 1.01279 0
M  V30 5097 H 488.256 -3.80024 1.42606 0
M  V30 5098 H 489.022 -3.03 3.78703 0
M  V30 5099 H 484.901 -3.69492 2.75675 0
M  V30 5100 H 488.445 -3.23869 6.17863 0
M  V30 5101 H 484.342 -3.90545 5.1395 0
M  V30 5102 H 485.11 -3.86507 7.21495 0
M  V30 5103 N 487.773 -1.03688 -1.18687 0
M  V30 5104 C 489.02 -0.73803 -1.88572 0
M  V30 5105 C 489.348 0.733973 -1.8012 0
M  V30 5106 O 488.603 1.55098 -1.19344 0
M  V30 5107 C 488.902 -1.14477 -3.3857 0
M  V30 5108 C 488.568 -2.61641 -3.67226 0
M  V30 5109 C 487.23 -3.01846 -3.74757 0
M  V30 5110 C 489.582 -3.56812 -3.79914 0
M  V30 5111 C 486.91 -4.36118 -3.92451 0
M  V30 5112 C 489.262 -4.90799 -3.99123 0
M  V30 5113 C 487.926 -5.3068 -4.04888 0
M  V30 5114 H 487.196 -0.270064 -0.690034 0
M  V30 5115 H 489.843 -1.3012 -1.40503 0
M  V30 5116 H 488.148 -0.500337 -3.88592 0
M  V30 5117 H 489.845 -0.89095 -3.90977 0
M  V30 5118 H 486.435 -2.29498 -3.61979 0
M  V30 5119 H 490.619 -3.26899 -3.73431 0
M  V30 5120 H 485.875 -4.66542 -3.95157 0
M  V30 5121 H 490.049 -5.64451 -4.07882 0
M  V30 5122 H 487.676 -6.34733 -4.18351 0
M  V30 5123 N 489.251 1.34841 -0.815825 0
M  V30 5124 C 490.667 1.51543 -0.500697 0
M  V30 5125 C 490.867 1.76261 0.976444 0
M  V30 5126 O 489.923 1.8094 1.76117 0
M  V30 5127 C 491.236 2.68487 -1.35407 0
M  V30 5128 C 492.784 2.82368 -1.35046 0
M  V30 5129 C 493.259 4.02347 -2.18816 0
M  V30 5130 N 494.75 4.09542 -2.16402 0
M  V30 5131 C 495.485 5.01517 -2.77971 0
M  V30 5132 N 494.981 5.98763 -3.48503 0
M  V30 5133 N 496.774 4.94334 -2.67563 0
M  V30 5134 H 488.925 1.17055 -1.77234 0
M  V30 5135 H 491.188 0.573481 -0.754866 0
M  V30 5136 H 490.894 2.56829 -2.40274 0
M  V30 5137 H 490.768 3.63321 -1.01377 0
M  V30 5138 H 493.155 2.93471 -0.309604 0
M  V30 5139 H 493.236 1.88363 -1.73069 0
M  V30 5140 H 492.88 3.92004 -3.22948 0
M  V30 5141 H 492.81 4.95551 -1.78148 0
M  V30 5142 H 495.301 3.39932 -1.65091 0
M  V30 5143 H 495.614 6.6556 -3.92747 0
M  V30 5144 H 493.959 5.98909 -3.52609 0
M  V30 5145 H 497.15 4.1732 -2.12041 0
M  V30 5146 H 497.323 5.6582 -3.15834 0
M  V30 5147 N 490.729 0.570148 1.46925 0
M  V30 5148 C 492.006 -0.0153259 1.95594 0
M  V30 5149 C 492.386 -1.47232 1.51281 0
M  V30 5150 O 491.734 -2.15574 0.757624 0
M  V30 5151 C 491.944 0.143624 3.48704 0
M  V30 5152 C 493.292 0.00494484 4.246 0
M  V30 5153 O 494.316 0.0718214 3.56128 0
M  V30 5154 O 493.175 -0.141175 5.46318 0
M  V30 5155 H 490.269 -0.0568819 0.825041 0
M  V30 5156 H 492.815 0.637583 1.57267 0
M  V30 5157 H 491.587 1.15699 3.73804 0
M  V30 5158 H 491.21 -0.5463 3.93829 0
M  V30 5159 N 492.207 -1.54576 0.307264 0
M  V30 5160 C 493.14 -2.19946 -0.608195 0
M  V30 5161 C 494.118 -1.17096 -1.12815 0
M  V30 5162 O 495.302 -1.45766 -1.19518 0
M  V30 5163 C 492.429 -2.84826 -1.8328 0
M  V30 5164 C 491.475 -4.01256 -1.44554 0
M  V30 5165 S 492.308 -5.33197 -0.49612 0
M  V30 5166 C 493.464 -6.01563 -1.72838 0
M  V30 5167 H 493.697 -2.97253 -0.0528544 0
M  V30 5168 H 491.23 -1.54129 0.0913837 0
M  V30 5169 H 493.188 -3.22832 -2.53554 0
M  V30 5170 H 491.849 -2.07353 -2.35931 0
M  V30 5171 H 491.042 -4.45457 -2.35762 0
M  V30 5172 H 490.644 -3.6484 -0.822671 0
M  V30 5173 H 492.936 -6.22751 -2.6681 0
M  V30 5174 H 493.879 -6.9552 -1.32882 0
M  V30 5175 H 494.287 -5.31279 -1.90795 0
M  V30 5176 N 493.685 -0.035106 -1.57561 0
M  V30 5177 C 494.933 0.64096 -1.91667 0
M  V30 5178 C 495.254 1.72323 -0.912681 0
M  V30 5179 O 494.524 1.95849 0.0449089 0
M  V30 5180 H 493.104 0.239743 -0.707483 0
M  V30 5181 H 495.766 -0.084321 -1.94718 0
M  V30 5182 H 494.862 1.08987 -2.92452 0
M  V30 5183 N 495.163 1.55791 0.238111 0
M  V30 5184 C 496.393 1.81834 0.980809 0
M  V30 5185 C 496.801 0.609741 1.79106 0
M  V30 5186 O 496.144 -0.431073 1.78571 0
M  V30 5187 C 496.206 3.01363 1.96011 0
M  V30 5188 C 495.87 4.37037 1.33597 0
M  V30 5189 C 496.867 5.14692 0.734063 0
M  V30 5190 C 494.552 4.83743 1.3527 0
M  V30 5191 C 496.546 6.37206 0.157208 0
M  V30 5192 C 494.233 6.06204 0.77199 0
M  V30 5193 C 495.231 6.82775 0.175282 0
M  V30 5194 O 494.919 8.02922 -0.396432 0
M  V30 5195 H 494.651 0.6088 0.293834 0
M  V30 5196 H 497.205 2.03702 0.263552 0
M  V30 5197 H 495.435 2.75273 2.71591 0
M  V30 5198 H 497.124 3.14422 2.56697 0
M  V30 5199 H 497.89 4.79722 0.713582 0
M  V30 5200 H 493.769 4.24129 1.80653 0
M  V30 5201 H 497.313 6.96915 -0.30917 0
M  V30 5202 H 493.21 6.4065 0.789828 0
M  V30 5203 H 493.978 8.17989 -0.289145 0
M  V30 5204 N 496.642 -0.504142 1.49319 0
M  V30 5205 C 497.59 -1.62689 1.66238 0
M  V30 5206 C 498.584 -1.6095 0.528349 0
M  V30 5207 O 499.79 -1.65496 0.707887 0
M  V30 5208 H 496.165 -0.539247 0.524134 0
M  V30 5209 H 498.136 -1.45571 2.60484 0
M  V30 5210 C 496.885 -3.00841 1.74328 0
M  V30 5211 H 496.208 -3.02884 2.60963 0
M  V30 5212 H 497.648 -3.78945 1.90202 0
M  V30 5213 C 496.107 -3.33355 0.487416 0
M  V30 5214 O 496.637 -3.99819 -0.388294 0
M  V30 5215 N 494.843 -2.88469 0.351306 0
M  V30 5216 H 494.39 -2.34557 1.06492 0
M  V30 5217 H 494.348 -3.10591 -0.487899 0
M  V30 5218 N 498.12 -1.38341 -0.754957 0
M  V30 5219 C 499.083 -1.35262 -1.85032 0
M  V30 5220 C 500.083 -0.253393 -1.58791 0
M  V30 5221 O 501.273 -0.510205 -1.66561 0
M  V30 5222 C 498.405 -1.10544 -3.22479 0
M  V30 5223 H 499.598 -2.32712 -1.8917 0
M  V30 5224 H 497.151 -1.23614 -0.956515 0
M  V30 5225 H 497.886 -0.136952 -3.24011 0
M  V30 5226 H 497.671 -1.90127 -3.4292 0
M  V30 5227 H 499.161 -1.11082 -4.02555 0
M  V30 5228 N 499.598 0.982988 -1.23187 0
M  V30 5229 C 500.826 1.75921 -1.08901 0
M  V30 5230 C 501.241 1.85341 0.359719 0
M  V30 5231 O 500.598 1.33072 1.24892 0
M  V30 5232 C 500.649 3.18742 -1.70545 0
M  V30 5233 O 500.37 3.09814 -3.09753 0
M  V30 5234 C 501.871 4.1277 -1.61667 0
M  V30 5235 H 499.091 0.552166 -0.381252 0
M  V30 5236 H 501.635 1.23516 -1.62985 0
M  V30 5237 H 499.79 3.68182 -1.20501 0
M  V30 5238 H 500.204 3.99703 -3.39614 0
M  V30 5239 H 501.678 5.10697 -2.09506 0
M  V30 5240 H 502.155 4.3542 -0.575009 0
M  V30 5241 H 502.761 3.69232 -2.11064 0
M  V30 5242 N 501.076 1.04316 1.18135 0
M  V30 5243 C 502.009 0.580823 2.20685 0
M  V30 5244 C 502.987 -0.385943 1.57953 0
M  V30 5245 O 504.171 -0.299654 1.86103 0
M  V30 5246 C 501.298 -0.151162 3.38363 0
M  V30 5247 C 500.344 0.769247 4.19505 0
M  V30 5248 S 501.177 2.25352 4.85774 0
M  V30 5249 C 502.333 1.53246 6.0685 0
M  V30 5250 H 502.566 1.44968 2.5956 0
M  V30 5251 H 500.099 0.85434 1.28609 0
M  V30 5252 H 502.057 -0.567315 4.06561 0
M  V30 5253 H 500.718 -0.995936 2.97892 0
M  V30 5254 H 499.911 0.203335 5.0359 0
M  V30 5255 H 499.513 1.12436 3.56699 0
M  V30 5256 H 501.805 0.82689 6.72435 0
M  V30 5257 H 502.748 2.35044 6.67952 0
M  V30 5258 H 503.156 1.0237 5.5514 0
M  V30 5259 N 502.554 -1.34406 0.822964 0
M  V30 5260 C 503.487 -2.27407 0.190124 0
M  V30 5261 C 504.465 -1.4889 -0.653486 0
M  V30 5262 O 505.649 -1.78109 -0.617216 0
M  V30 5263 C 502.776 -3.3064 -0.734477 0
M  V30 5264 C 501.822 -4.26488 0.0316099 0
M  V30 5265 S 502.655 -5.17445 1.3788 0
M  V30 5266 C 503.811 -6.24214 0.45907 0
M  V30 5267 H 504.044 -2.80733 0.978586 0
M  V30 5268 H 501.577 -1.41455 0.618866 0
M  V30 5269 H 503.535 -3.90607 -1.26238 0
M  V30 5270 H 502.196 -2.76161 -1.49646 0
M  V30 5271 H 501.389 -4.9951 -0.671285 0
M  V30 5272 H 500.991 -3.70775 0.490066 0
M  V30 5273 H 503.283 -6.76599 -0.349357 0
M  V30 5274 H 504.226 -6.98551 1.15896 0
M  V30 5275 H 504.634 -5.6448 0.0474825 0
M  V30 5276 N 504.032 -0.577932 -1.46621 0
M  V30 5277 C 504.995 0.147805 -2.28723 0
M  V30 5278 C 505.995 0.823325 -1.38123 0
M  V30 5279 O 507.185 0.676011 -1.60548 0
M  V30 5280 C 504.317 1.21853 -3.18378 0
M  V30 5281 H 505.51 -0.573654 -2.94362 0
M  V30 5282 H 503.063 -0.335703 -1.52652 0
M  V30 5283 H 503.798 1.97173 -2.57475 0
M  V30 5284 H 503.583 0.738714 -3.85078 0
M  V30 5285 H 505.073 1.72768 -3.80186 0
M  V30 5286 N 505.51 1.54411 -0.315457 0
M  V30 5287 C 506.787 1.92562 0.343398 0
M  V30 5288 C 507.167 1.24423 1.70535 0
M  V30 5289 O 506.515 0.385051 2.25232 0
M  V30 5290 C 506.725 3.46168 0.443687 0
M  V30 5291 C 508.073 4.18659 0.707783 0
M  V30 5292 O 509.097 3.52281 0.52693 0
M  V30 5293 O 507.956 5.36198 1.05612 0
M  V30 5294 H 505.05 0.80379 0.194552 0
M  V30 5295 H 507.596 1.65738 -0.364577 0
M  V30 5296 H 506.368 3.8792 -0.513172 0
M  V30 5297 H 505.991 3.79073 1.19956 0
M  V30 5298 N 506.988 0.0434614 1.5754 0
M  V30 5299 C 508.213 -0.645358 1.97104 0
M  V30 5300 C 508.638 -1.64037 0.920521 0
M  V30 5301 O 507.996 -1.80922 -0.11708 0
M  V30 5302 C 508.044 -1.31547 3.35749 0
M  V30 5303 O 507.148 -2.43103 3.33129 0
M  V30 5304 H 506.489 -0.168403 0.64229 0
M  V30 5305 H 509.019 0.109573 2.04306 0
M  V30 5306 H 509.029 -1.66895 3.72304 0
M  V30 5307 H 507.704 -0.586205 4.11748 0
M  V30 5308 H 506.281 -2.0976 3.0831 0
M  V30 5309 N 508.466 -1.55915 -0.229846 0
M  V30 5310 C 509.694 -1.82617 -0.972562 0
M  V30 5311 C 510.109 -0.621488 -1.78278 0
M  V30 5312 O 509.466 0.409956 -1.77836 0
M  V30 5313 C 509.517 -3.0774 -1.89679 0
M  V30 5314 O 509.238 -4.23559 -1.11934 0
M  V30 5315 C 510.739 -3.47368 -2.75409 0
M  V30 5316 H 507.959 -0.60727 -0.285419 0
M  V30 5317 H 510.503 -2.02996 -0.247579 0
M  V30 5318 H 508.658 -2.89361 -2.57583 0
M  V30 5319 H 509.072 -4.94586 -1.74599 0
M  V30 5320 H 510.546 -4.37977 -3.35977 0
M  V30 5321 H 511.023 -2.68737 -3.47386 0
M  V30 5322 H 511.629 -3.68158 -2.12931 0
M  V30 5323 N 509.944 0.496216 -1.49584 0
M  V30 5324 C 511.169 1.27865 -1.63295 0
M  V30 5325 C 511.594 1.85592 -0.306156 0
M  V30 5326 O 510.952 1.66092 0.726851 0
M  V30 5327 C 511 2.38128 -2.7079 0
M  V30 5328 O 510.104 3.42108 -2.30296 0
M  V30 5329 H 509.445 0.377279 -0.546403 0
M  V30 5330 H 511.975 0.593497 -1.95803 0
M  V30 5331 H 511.985 2.8382 -2.93104 0
M  V30 5332 H 510.66 1.95479 -3.67098 0
M  V30 5333 H 509.237 3.02301 -2.18331 0
M  V30 5334 N 511.423 1.38739 0.74761 0
M  V30 5335 C 512.839 1.20067 1.05148 0
M  V30 5336 C 513.039 0.0534835 2.01429 0
M  V30 5337 O 512.095 -0.59886 2.45296 0
M  V30 5338 C 513.408 2.52957 1.62584 0
M  V30 5339 C 514.956 2.59692 1.74726 0
M  V30 5340 C 515.431 3.92772 2.35573 0
M  V30 5341 N 516.922 3.94343 2.42997 0
M  V30 5342 C 517.657 4.9408 2.90985 0
M  V30 5343 N 517.153 6.04214 3.38965 0
M  V30 5344 N 518.946 4.81466 2.9008 0
M  V30 5345 H 511.097 2.12121 0.108808 0
M  V30 5346 H 513.36 0.941491 0.110899 0
M  V30 5347 H 513.066 3.37389 0.993051 0
M  V30 5348 H 512.94 2.71779 2.61565 0
M  V30 5349 H 515.327 1.75651 2.3713 0
M  V30 5350 H 515.408 2.44731 0.744326 0
M  V30 5351 H 515.052 4.77238 1.738 0
M  V30 5352 H 514.982 4.05046 3.36519 0
M  V30 5353 H 517.473 3.14799 2.0907 0
M  V30 5354 H 517.786 6.76241 3.74056 0
M  V30 5355 H 516.131 6.07825 3.37007 0
M  V30 5356 H 519.322 3.94535 2.51912 0
M  V30 5357 H 519.495 5.59344 3.27166 0
M  V30 5358 N 512.901 -0.976442 1.23707 0
M  V30 5359 C 514.147 -1.72158 1.08319 0
M  V30 5360 C 514.502 -1.88701 -0.375445 0
M  V30 5361 O 513.795 -1.43107 -1.274 0
M  V30 5362 C 513.989 -3.11814 1.74662 0
M  V30 5363 C 513.818 -3.08892 3.26827 0
M  V30 5364 C 512.588 -3.13861 3.96004 0
M  V30 5365 C 514.786 -2.9175 4.2354 0
M  V30 5366 N 512.768 -3.00867 5.35119 0
M  V30 5367 C 514.139 -2.8696 5.49595 0
M  V30 5368 C 516.194 -2.76265 4.14225 0
M  V30 5369 C 514.897 -2.68268 6.67401 0
M  V30 5370 C 516.923 -2.58938 5.317 0
M  V30 5371 C 516.285 -2.54849 6.56682 0
M  V30 5372 H 512.384 -0.638896 0.450927 0
M  V30 5373 H 514.968 -1.15835 1.56494 0
M  V30 5374 H 513.139 -3.66347 1.29014 0
M  V30 5375 H 514.871 -3.74984 1.52215 0
M  V30 5376 H 511.626 -3.22198 3.4711 0
M  V30 5377 H 512.05 -2.97634 6.08065 0
M  V30 5378 H 516.692 -2.78213 3.18366 0
M  V30 5379 H 514.41 -2.65063 7.63392 0
M  V30 5380 H 517.996 -2.47914 5.26336 0
M  V30 5381 H 516.876 -2.41611 7.46052 0
M  V30 5382 N 514.379 -1.04941 -1.1758 0
M  V30 5383 C 515.342 -0.652456 -2.19717 0
M  V30 5384 C 516.342 0.294745 -1.58076 0
M  V30 5385 O 517.532 0.0789579 -1.74021 0
M  V30 5386 C 514.664 0.0420712 -3.40874 0
M  V30 5387 H 515.857 -1.55642 -2.5635 0
M  V30 5388 H 513.41 -0.842995 -1.31618 0
M  V30 5389 H 514.145 0.95943 -3.09783 0
M  V30 5390 H 513.93 -0.638844 -3.86861 0
M  V30 5391 H 515.42 0.306 -4.16477 0
M  V30 5392 N 515.857 1.33968 -0.830081 0
M  V30 5393 C 516.767 2.33164 -0.259207 0
M  V30 5394 C 517.783 1.62951 0.610164 0
M  V30 5395 O 518.959 1.94668 0.516369 0
M  V30 5396 C 516.024 3.42088 0.563598 0
M  V30 5397 C 515.085 4.28037 -0.329014 0
M  V30 5398 C 514.318 5.3176 0.454616 0
M  V30 5399 O 514.541 5.44876 1.6872 0
M  V30 5400 O 513.475 6.01669 -0.166794 0
M  V30 5401 H 517.301 2.83832 -1.08041 0
M  V30 5402 H 514.886 1.37154 -0.59239 0
M  V30 5403 H 516.768 4.08581 1.03147 0
M  V30 5404 H 515.443 2.93651 1.36201 0
M  V30 5405 H 514.35 3.64443 -0.844538 0
M  V30 5406 H 515.683 4.79934 -1.09196 0
M  V30 5407 N 517.335 0.585699 1.46312 0
M  V30 5408 C 518.298 -0.135673 2.28798 0
M  V30 5409 C 519.298 -0.815988 1.38558 0
M  V30 5410 O 520.488 -0.667487 1.60904 0
M  V30 5411 C 517.62 -1.20163 3.1902 0
M  V30 5412 H 518.813 0.589257 2.94054 0
M  V30 5413 H 516.366 0.343794 1.52472 0
M  V30 5414 H 517.101 -1.95804 2.58517 0
M  V30 5415 H 516.886 -0.718282 3.85465 0
M  V30 5416 H 518.376 -1.70749 3.81096 0
M  V30 5417 N 518.813 -1.54241 0.323641 0
M  V30 5418 C 519.743 -2.27289 -0.534993 0
M  V30 5419 C 520.724 -1.28087 -1.11927 0
M  V30 5420 O 521.909 -1.56899 -1.14439 0
M  V30 5421 C 519.039 -3.03075 -1.69596 0
M  V30 5422 C 517.993 -4.09614 -1.24098 0
M  V30 5423 C 517.319 -4.73242 -2.4889 0
M  V30 5424 C 518.619 -5.21087 -0.355789 0
M  V30 5425 H 520.313 -2.99308 0.0743257 0
M  V30 5426 H 517.859 -1.43952 0.0371874 0
M  V30 5427 H 519.812 -3.52907 -2.30293 0
M  V30 5428 H 518.536 -2.28673 -2.33187 0
M  V30 5429 H 517.195 -3.60666 -0.656945 0
M  V30 5430 H 516.843 -3.95455 -3.10845 0
M  V30 5431 H 516.543 -5.45209 -2.19138 0
M  V30 5432 H 518.067 -5.25848 -3.10348 0
M  V30 5433 H 519.481 -5.66675 -0.869042 0
M  V30 5434 H 517.878 -5.9991 -0.151045 0
M  V30 5435 H 518.948 -4.81005 0.613339 0
M  V30 5436 N 520.291 -0.0518155 -1.57515 0
M  V30 5437 C 521.707 0.304735 -1.56664 0
M  V30 5438 C 521.907 1.71395 -1.05953 0
M  V30 5439 O 520.963 2.42123 -0.716414 0
M  V30 5440 C 522.276 0.132614 -3.00407 0
M  V30 5441 C 523.824 0.20367 -3.12337 0
M  V30 5442 C 524.299 0.0600706 -4.57961 0
M  V30 5443 N 525.79 0.116326 -4.63054 0
M  V30 5444 C 526.525 0.0293363 -5.73392 0
M  V30 5445 N 526.021 -0.110038 -6.92713 0
M  V30 5446 N 527.814 0.0849651 -5.62036 0
M  V30 5447 H 519.965 -0.973056 -1.888 0
M  V30 5448 H 522.228 -0.377781 -0.869474 0
M  V30 5449 H 521.934 -0.839019 -3.41546 0
M  V30 5450 H 521.808 0.893376 -3.66468 0
M  V30 5451 H 524.195 1.16578 -2.71097 0
M  V30 5452 H 524.276 -0.587857 -2.48954 0
M  V30 5453 H 523.92 -0.898715 -4.99886 0
M  V30 5454 H 523.85 0.87075 -5.19351 0
M  V30 5455 H 526.341 0.22327 -3.7724 0
M  V30 5456 H 526.654 -0.169104 -7.72615 0
M  V30 5457 H 524.999 -0.145132 -6.94848 0
M  V30 5458 H 528.19 0.192411 -4.67704 0
M  V30 5459 H 528.363 0.0137131 -6.47999 0
M  V30 5460 N 521.769 1.56035 0.221574 0
M  V30 5461 C 522.679 1.95581 1.29558 0
M  V30 5462 C 523.695 0.859639 1.51282 0
M  V30 5463 O 524.871 1.16321 1.64413 0
M  V30 5464 C 521.936 2.26447 2.62531 0
M  V30 5465 C 520.997 3.49632 2.4911 0
M  V30 5466 C 520.23 3.79017 3.75742 0
M  V30 5467 O 520.453 3.10077 4.78757 0
M  V30 5468 O 519.387 4.72507 3.72855 0
M  V30 5469 H 523.213 2.8711 0.990035 0
M  V30 5470 H 520.798 1.43244 0.424434 0
M  V30 5471 H 522.68 2.47494 3.41064 0
M  V30 5472 H 521.355 1.38092 2.92766 0
M  V30 5473 H 520.262 3.33864 1.68777 0
M  V30 5474 H 521.595 4.3837 2.23814 0
M  V30 5475 N 523.247 -0.488276 1.49845 0
M  V30 5476 C 524.496 -1.23826 1.59217 0
M  V30 5477 C 524.809 -1.93439 0.289966 0
M  V30 5478 O 526.015 -2.70229 0.262382 0
M  V30 5479 C 524.471 -2.24902 2.80976 0
M  V30 5480 C 524.079 -1.6117 4.18005 0
M  V30 5481 C 525.823 -3.00648 2.99685 0
M  V30 5482 C 523.73 -2.60431 5.3097 0
M  V30 5483 H 522.66 -0.465858 0.592868 0
M  V30 5484 H 525.311 -0.510645 1.76252 0
M  V30 5485 H 523.693 -3.0088 2.57463 0
M  V30 5486 H 524.867 -0.910968 4.51706 0
M  V30 5487 H 523.182 -0.97767 4.0476 0
M  V30 5488 H 525.779 -3.74903 3.81251 0
M  V30 5489 H 526.122 -3.5902 2.10738 0
M  V30 5490 H 526.655 -2.31784 3.23297 0
M  V30 5491 H 523.394 -2.06823 6.22017 0
M  V30 5492 H 522.914 -3.28707 5.01709 0
M  V30 5493 H 524.593 -3.22606 5.60834 0
M  V30 5494 N 524.725 -1.39134 -0.740242 0
M  V30 5495 C 525.95 -1.39518 -1.53459 0
M  V30 5496 C 526.375 0.00968883 -1.88098 0
M  V30 5497 O 525.733 0.995312 -1.51536 0
M  V30 5498 C 525.781 -2.26981 -2.802 0
M  V30 5499 O 524.885 -1.69609 -3.75908 0
M  V30 5500 H 524.226 -0.475328 -0.463637 0
M  V30 5501 H 526.756 -1.83064 -0.913717 0
M  V30 5502 H 526.766 -2.41309 -3.28989 0
M  V30 5503 H 525.441 -3.29081 -2.5432 0
M  V30 5504 H 524.018 -1.64495 -3.34658 0
M  V30 5505 N 526.204 0.969867 -1.24223 0
M  V30 5506 C 527.452 1.70918 -1.0785 0
M  V30 5507 C 527.773 1.91186 0.383763 0
M  V30 5508 O 527.043 1.48806 1.27411 0
M  V30 5509 H 525.623 0.633334 -0.396103 0
M  V30 5510 H 528.285 1.16689 -1.56108 0
M  V30 5511 H 527.381 2.69455 -1.57482 0
M  V30 5512 N 527.682 1.05563 1.17022 0
M  V30 5513 C 529.098 0.777684 1.39371 0
M  V30 5514 C 529.298 -0.626269 1.91521 0
M  V30 5515 O 528.354 -1.38806 2.10924 0
M  V30 5516 C 529.667 1.83642 2.3811 0
M  V30 5517 C 531.215 1.85907 2.51809 0
M  V30 5518 C 531.69 2.90813 3.53824 0
M  V30 5519 N 533.181 2.898 3.61345 0
M  V30 5520 C 533.916 3.6762 4.40049 0
M  V30 5521 N 533.412 4.55237 5.22237 0
M  V30 5522 N 535.205 3.56044 4.34959 0
M  V30 5523 H 527.356 1.9614 0.815047 0
M  V30 5524 H 529.619 0.849527 0.420722 0
M  V30 5525 H 529.325 2.84425 2.06871 0
M  V30 5526 H 529.199 1.6812 3.37662 0
M  V30 5527 H 531.586 0.857865 2.82356 0
M  V30 5528 H 531.667 2.05506 1.52318 0
M  V30 5529 H 531.311 3.91122 3.24015 0
M  V30 5530 H 531.241 2.68465 4.53028 0
M  V30 5531 H 533.732 2.26274 3.02669 0
M  V30 5532 H 534.045 5.11291 5.79484 0
M  V30 5533 H 532.39 4.59296 5.21605 0
M  V30 5534 H 535.581 2.86986 3.69806 0
M  V30 5535 H 535.754 4.16938 4.96051 0
M  V30 5536 N 529.16 -1.33526 0.837174 0
M  V30 5537 C 530.09 -2.31764 0.284206 0
M  V30 5538 C 531.071 -1.58896 -0.607142 0
M  V30 5539 O 532.256 -1.86798 -0.531047 0
M  V30 5540 C 529.386 -3.43029 -0.542962 0
M  V30 5541 C 528.34 -4.27255 0.252451 0
M  V30 5542 C 527.666 -5.3012 -0.69836 0
M  V30 5543 C 528.966 -5.01229 1.46858 0
M  V30 5544 H 530.66 -2.78262 1.10502 0
M  V30 5545 H 528.206 -1.3378 0.532812 0
M  V30 5546 H 530.159 -4.1078 -0.940096 0
M  V30 5547 H 528.883 -2.95216 -1.39697 0
M  V30 5548 H 527.542 -3.61127 0.631124 0
M  V30 5549 H 527.19 -4.78564 -1.54872 0
M  V30 5550 H 526.89 -5.87353 -0.170274 0
M  V30 5551 H 528.414 -6.00737 -1.09305 0
M  V30 5552 H 529.828 -5.61756 1.14469 0
M  V30 5553 H 528.225 -5.68104 1.93333 0
M  V30 5554 H 529.295 -4.301 2.23924 0
M  V30 5555 N 530.638 -0.59345 -1.46 0
M  V30 5556 C 531.601 0.123538 -2.28867 0
M  V30 5557 C 532.601 0.808628 -1.38989 0
M  V30 5558 O 533.791 0.658945 -1.61256 0
M  V30 5559 C 530.923 1.1847 -3.19653 0
M  V30 5560 H 532.116 -0.604843 -2.93737 0
M  V30 5561 H 529.669 -0.351875 -1.52288 0
M  V30 5562 H 530.404 1.94431 -2.59552 0
M  V30 5563 H 530.189 0.69783 -3.8584 0
M  V30 5564 H 531.679 1.68726 -3.81997 0
M  V30 5565 N 532.116 1.54067 -0.331816 0
M  V30 5566 C 533.026 2.28322 0.539104 0
M  V30 5567 C 534.042 1.32985 1.1221 0
M  V30 5568 O 535.218 1.6601 1.1403 0
M  V30 5569 C 532.283 3.03277 1.68 0
M  V30 5570 C 531.344 4.14216 1.12798 0
M  V30 5571 C 530.577 4.85588 2.2145 0
M  V30 5572 O 530.8 4.56536 3.41952 0
M  V30 5573 O 529.734 5.72309 1.86404 0
M  V30 5574 H 533.56 3.03632 -0.0641692 0
M  V30 5575 H 531.145 1.49083 -0.0972365 0
M  V30 5576 H 533.027 3.50189 2.34405 0
M  V30 5577 H 531.702 2.30834 2.2693 0
M  V30 5578 H 530.609 3.71635 0.428782 0
M  V30 5579 H 531.942 4.88727 0.583698 0
M  V30 5580 N 533.594 0.0601682 1.57485 0
M  V30 5581 C 534.527 -0.94676 2.07634 0
M  V30 5582 C 535.505 -1.29837 0.978826 0
M  V30 5583 O 536.689 -1.40969 1.2514 0
M  V30 5584 C 533.816 -2.25822 2.52433 0
M  V30 5585 C 532.862 -2.05901 3.73507 0
M  V30 5586 S 533.695 -1.32907 5.18745 0
M  V30 5587 C 534.851 -2.65356 5.66866 0
M  V30 5588 H 535.084 -0.520003 2.92717 0
M  V30 5589 H 532.617 -0.152319 1.53647 0
M  V30 5590 H 534.575 -3.01201 2.78905 0
M  V30 5591 H 533.236 -2.65624 1.67639 0
M  V30 5592 H 532.429 -3.02929 4.02803 0
M  V30 5593 H 532.031 -1.38659 3.47347 0
M  V30 5594 H 534.323 -3.61492 5.73001 0
M  V30 5595 H 535.266 -2.40685 6.6594 0
M  V30 5596 H 535.674 -2.72028 4.94632 0
M  V30 5597 N 535.072 -1.5615 -0.213296 0
M  V30 5598 C 536.483 -1.69645 -0.779582 0
M  V30 5599 C 536.834 -0.663615 -1.84636 0
M  V30 5600 O 535.959 0.183633 -2.15619 0
M  V30 5601 C 536.554 -3.07567 -1.42084 0
M  V30 5602 C 535.113 -3.22889 -1.93442 0
M  V30 5603 C 534.26 -2.65581 -0.797612 0
M  V30 5604 H 537.211 -1.58696 0.0114951 0
M  V30 5605 H 537.232 -3.03884 -2.28986 0
M  V30 5606 H 536.744 -3.82716 -0.644187 0
M  V30 5607 H 534.845 -2.52623 -2.73884 0
M  V30 5608 H 534.958 -4.30197 -2.10872 0
M  V30 5609 H 533.322 -2.24278 -1.20712 0
M  V30 5610 H 534.105 -3.43284 -0.033494 0
M  V30 5611 N 536.55 0.480323 -1.50102 0
M  V30 5612 C 537.513 1.56181 -1.6775 0
M  V30 5613 C 538.513 1.51156 -0.548503 0
M  V30 5614 O 539.703 1.5394 -0.815363 0
M  V30 5615 C 536.835 2.95823 -1.69415 0
M  V30 5616 H 538.028 1.41855 -2.6423 0
M  V30 5617 H 535.581 0.70605 -1.39444 0
M  V30 5618 H 536.316 3.15604 -0.745948 0
M  V30 5619 H 536.101 3.00878 -2.51425 0
M  V30 5620 H 537.591 3.74359 -1.85054 0
M  V30 5621 N 538.028 1.39524 0.732853 0
M  V30 5622 C 539.305 1.27373 1.48444 0
M  V30 5623 C 539.685 -0.115725 2.10783 0
M  V30 5624 O 539.033 -1.12713 1.98766 0
M  V30 5625 C 539.243 2.39966 2.53412 0
M  V30 5626 C 540.591 2.79384 3.19733 0
M  V30 5627 O 541.615 2.39431 2.63725 0
M  V30 5628 O 540.474 3.48353 4.21085 0
M  V30 5629 H 537.568 0.499272 0.659285 0
M  V30 5630 H 540.114 1.51403 0.766496 0
M  V30 5631 H 538.886 3.32845 2.05742 0
M  V30 5632 H 538.509 2.17612 3.32762 0
M  V30 5633 N 539.506 -0.963266 1.24736 0
M  V30 5634 C 540.731 -1.74699 1.11781 0
M  V30 5635 C 541.156 -1.85267 -0.325258 0
M  V30 5636 O 540.514 -1.32681 -1.23553 0
M  V30 5637 C 540.562 -3.14322 1.76731 0
M  V30 5638 O 539.666 -3.99043 1.04109 0
M  V30 5639 H 539.007 -0.53684 0.390767 0
M  V30 5640 H 541.537 -1.20801 1.65131 0
M  V30 5641 H 541.547 -3.64824 1.82668 0
M  V30 5642 H 540.222 -3.05946 2.81726 0
M  V30 5643 H 538.799 -3.5752 1.05991 0
M  V30 5644 N 540.985 -1.06182 -1.16461 0
M  V30 5645 C 542.233 -0.776326 -1.86595 0
M  V30 5646 C 542.554 0.69921 -1.82033 0
M  V30 5647 O 541.824 1.50579 -1.2531 0
M  V30 5648 H 540.404 -0.284184 -0.690832 0
M  V30 5649 H 543.066 -1.34308 -1.41235 0
M  V30 5650 H 542.162 -1.10022 -2.92064 0
M  V30 5651 N 542.463 1.3308 -0.844243 0
M  V30 5652 C 543.693 2.01515 -0.455541 0
M  V30 5653 C 544.101 1.63655 0.949406 0
M  V30 5654 O 543.444 0.84848 1.62931 0
M  V30 5655 C 543.506 3.55967 -0.502801 0
M  V30 5656 C 543.17 4.17222 -1.86481 0
M  V30 5657 C 544.167 4.36205 -2.8288 0
M  V30 5658 C 541.852 4.53528 -2.15911 0
M  V30 5659 C 543.846 4.90649 -4.06869 0
M  V30 5660 C 541.533 5.07679 -3.40155 0
M  V30 5661 C 542.531 5.26186 -4.35451 0
M  V30 5662 O 542.219 5.79183 -5.57496 0
M  V30 5663 H 541.951 0.65199 -0.178565 0
M  V30 5664 H 544.505 1.70867 -1.1399 0
M  V30 5665 H 542.735 3.85965 0.23836 0
M  V30 5666 H 544.424 4.05688 -0.131169 0
M  V30 5667 H 545.19 4.085 -2.61444 0
M  V30 5668 H 541.069 4.38414 -1.42528 0
M  V30 5669 H 544.613 5.0501 -4.81259 0
M  V30 5670 H 540.51 5.34815 -3.61446 0
M  V30 5671 H 541.278 5.97591 -5.5931 0
M  V30 5672 N 543.941 0.601185 1.45683 0
M  V30 5673 C 545.352 0.179659 1.85834 0
M  V30 5674 C 545.703 -1.26189 1.50236 0
M  V30 5675 O 544.828 -1.95587 0.925987 0
M  V30 5676 C 545.423 0.319277 3.37292 0
M  V30 5677 C 543.982 -0.0475092 3.7637 0
M  V30 5678 C 543.129 0.646692 2.69654 0
M  V30 5679 H 546.08 0.808268 1.36575 0
M  V30 5680 H 546.101 -0.4503 3.77826 0
M  V30 5681 H 545.613 1.36855 3.6317 0
M  V30 5682 H 543.714 -1.0962 3.5611 0
M  V30 5683 H 543.827 0.34168 4.7788 0
M  V30 5684 H 542.191 0.0849971 2.54558 0
M  V30 5685 H 542.974 1.69797 2.98369 0
M  V30 5686 N 545.419 -1.53889 0.339982 0
M  V30 5687 C 546.382 -2.23547 -0.50592 0
M  V30 5688 C 547.382 -1.23445 -1.03044 0
M  V30 5689 O 548.572 -1.47909 -0.920253 0
M  V30 5690 C 545.704 -2.95234 -1.7044 0
M  V30 5691 H 546.897 -2.99722 0.103247 0
M  V30 5692 H 544.45 -1.56033 0.0912804 0
M  V30 5693 H 545.185 -2.23236 -2.35236 0
M  V30 5694 H 544.97 -3.68654 -1.33553 0
M  V30 5695 H 546.46 -3.48258 -2.30447 0
M  V30 5696 N 546.897 -0.0685191 -1.57451 0
M  V30 5697 C 548.127 0.609577 -1.97402 0
M  V30 5698 C 548.535 1.63882 -0.945489 0
M  V30 5699 O 547.878 1.8354 0.0766052 0
M  V30 5700 C 547.94 1.3385 -3.33653 0
M  V30 5701 C 547.604 0.463103 -4.54648 0
M  V30 5702 C 548.601 -0.277964 -5.19156 0
M  V30 5703 C 546.286 0.388941 -5.00792 0
M  V30 5704 C 548.28 -1.08145 -6.28159 0
M  V30 5705 C 545.967 -0.418217 -6.09667 0
M  V30 5706 C 546.965 -1.15208 -6.73213 0
M  V30 5707 O 546.653 -1.94594 -7.79993 0
M  V30 5708 H 546.385 0.170197 -0.654224 0
M  V30 5709 H 548.939 -0.13647 -2.04946 0
M  V30 5710 H 547.169 2.13055 -3.22714 0
M  V30 5711 H 548.858 1.90851 -3.58233 0
M  V30 5712 H 549.624 -0.230241 -4.84453 0
M  V30 5713 H 545.503 0.949769 -4.5111 0
M  V30 5714 H 549.047 -1.65476 -6.7769 0
M  V30 5715 H 544.944 -0.467515 -6.43805 0
M  V30 5716 H 545.712 -1.8699 -7.96854 0
M  V30 5717 N 548.375 1.56261 0.205012 0
M  V30 5718 C 549.305 1.96779 1.257 0
M  V30 5719 C 550.286 0.838309 1.48008 0
M  V30 5720 O 551.471 1.10189 1.59913 0
M  V30 5721 C 548.601 2.29876 2.60335 0
M  V30 5722 C 547.555 3.45469 2.52656 0
M  V30 5723 C 546.881 3.64215 3.91473 0
M  V30 5724 C 548.181 4.79954 2.06014 0
M  V30 5725 H 549.875 2.84904 0.920338 0
M  V30 5726 H 547.421 1.37072 0.441277 0
M  V30 5727 H 549.374 2.56814 3.34102 0
M  V30 5728 H 548.098 1.38622 2.95722 0
M  V30 5729 H 546.757 3.18605 1.81345 0
M  V30 5730 H 546.405 2.70309 4.24196 0
M  V30 5731 H 546.105 4.41973 3.87213 0
M  V30 5732 H 547.629 3.93519 4.66878 0
M  V30 5733 H 549.043 5.05989 2.69533 0
M  V30 5734 H 547.44 5.61111 2.12777 0
M  V30 5735 H 548.51 4.74201 1.01297 0
M  V30 5736 N 549.853 -0.472356 1.50355 0
M  V30 5737 C 551.101 -1.22211 1.60962 0
M  V30 5738 C 551.422 -1.92497 0.311439 0
M  V30 5739 O 550.692 -1.8405 -0.671002 0
M  V30 5740 H 549.272 -0.454092 0.593135 0
M  V30 5741 H 551.934 -0.544977 1.87126 0
M  V30 5742 H 551.03 -1.9707 2.42012 0
M  V30 5743 N 551.331 -1.39911 -0.725443 0
M  V30 5744 C 552.294 -1.39156 -1.82121 0
M  V30 5745 C 553.294 -0.287018 -1.58218 0
M  V30 5746 O 554.484 -0.545421 -1.65441 0
M  V30 5747 C 551.616 -1.1736 -3.20062 0
M  V30 5748 H 552.809 -2.36672 -1.84191 0
M  V30 5749 H 550.362 -1.25615 -0.930079 0
M  V30 5750 H 551.097 -0.205648 -3.23647 0
M  V30 5751 H 550.882 -1.97358 -3.3881 0
M  V30 5752 H 552.372 -1.19596 -4.00108 0
M  V30 5753 N 552.809 0.956637 -1.25245 0
M  V30 5754 C 554.225 1.22733 -1.02023 0
M  V30 5755 C 554.425 1.99761 0.264186 0
M  V30 5756 O 553.481 2.32814 0.977436 0
M  V30 5757 C 554.794 2.00367 -2.24217 0
M  V30 5758 C 556.342 2.13418 -2.28958 0
M  V30 5759 C 556.817 2.9445 -3.50803 0
M  V30 5760 N 558.308 3.02029 -3.51187 0
M  V30 5761 C 559.043 3.65116 -4.42129 0
M  V30 5762 N 558.539 4.2983 -5.43339 0
M  V30 5763 N 560.332 3.62237 -4.29815 0
M  V30 5764 H 552.483 0.441282 -2.07765 0
M  V30 5765 H 554.746 0.257686 -0.912306 0
M  V30 5766 H 554.452 1.51165 -3.17556 0
M  V30 5767 H 554.326 3.01077 -2.27228 0
M  V30 5768 H 556.713 2.61819 -1.36143 0
M  V30 5769 H 556.794 1.1202 -2.29968 0
M  V30 5770 H 556.438 2.46741 -4.43939 0
M  V30 5771 H 556.368 3.9607 -3.47039 0
M  V30 5772 H 558.859 2.56007 -2.77973 0
M  V30 5773 H 559.172 4.75819 -6.08947 0
M  V30 5774 H 557.517 4.28465 -5.47214 0
M  V30 5775 H 560.708 3.10863 -3.49974 0
M  V30 5776 H 560.881 4.11117 -5.00886 0
M  V30 5777 N 554.287 1.06798 1.15896 0
M  V30 5778 C 555.217 0.704677 2.22613 0
M  V30 5779 C 556.198 -0.305252 1.67339 0
M  V30 5780 O 557.383 -0.179247 1.93371 0
M  V30 5781 C 554.513 0.0957325 3.47168 0
M  V30 5782 C 553.467 1.0322 4.15367 0
M  V30 5783 C 552.793 0.286293 5.33933 0
M  V30 5784 C 554.093 2.36341 4.65768 0
M  V30 5785 H 555.787 1.59688 2.53259 0
M  V30 5786 H 553.333 0.769257 1.21731 0
M  V30 5787 H 555.286 -0.170333 4.21056 0
M  V30 5788 H 554.01 -0.831516 3.15838 0
M  V30 5789 H 552.669 1.28309 3.43413 0
M  V30 5790 H 552.317 -0.644237 4.98857 0
M  V30 5791 H 552.017 0.910436 5.80504 0
M  V30 5792 H 553.541 0.0278938 6.10594 0
M  V30 5793 H 554.955 2.1561 5.31211 0
M  V30 5794 H 553.352 2.94299 5.2298 0
M  V30 5795 H 554.422 2.99047 3.81705 0
M  V30 5796 N 555.766 -1.3263 0.851289 0
M  V30 5797 C 556.729 -2.27247 0.298541 0
M  V30 5798 C 557.729 -1.51467 -0.539847 0
M  V30 5799 O 558.919 -1.7061 -0.351843 0
M  V30 5800 C 556.051 -3.35964 -0.578004 0
M  V30 5801 H 557.244 -2.7765 1.13359 0
M  V30 5802 H 554.797 -1.43245 0.625354 0
M  V30 5803 H 555.532 -2.90823 -1.435 0
M  V30 5804 H 555.317 -3.92094 0.0220539 0
M  V30 5805 H 556.807 -4.06472 -0.957626 0
M  V30 5806 N 557.244 -0.608902 -1.45362 0
M  V30 5807 C 558.469 -0.10921 -2.07112 0
M  V30 5808 C 558.894 1.19779 -1.45033 0
M  V30 5809 O 558.252 1.72961 -0.543527 0
M  V30 5810 C 558.3 0.0155745 -3.60597 0
M  V30 5811 O 557.404 1.06546 -3.98399 0
M  V30 5812 H 556.745 -0.0746619 -0.659789 0
M  V30 5813 H 559.275 -0.839283 -1.86594 0
M  V30 5814 H 559.285 0.213364 -4.07442 0
M  V30 5815 H 557.96 -0.938765 -4.05167 0
M  V30 5816 H 556.537 0.844024 -3.63223 0
M  V30 5817 N 558.722 1.53707 -0.348139 0
M  V30 5818 C 559.969 2.00988 0.246966 0
M  V30 5819 C 560.297 1.23586 1.50189 0
M  V30 5820 O 559.552 0.312817 1.93184 0
M  V30 5821 C 559.851 3.52292 0.602061 0
M  V30 5822 C 559.517 4.47453 -0.556509 0
M  V30 5823 C 558.179 4.73188 -0.874446 0
M  V30 5824 C 560.531 5.03851 -1.33354 0
M  V30 5825 C 557.859 5.52577 -1.9717 0
M  V30 5826 C 560.211 5.84437 -2.42108 0
M  V30 5827 C 558.875 6.08465 -2.74456 0
M  V30 5828 H 558.145 0.735469 0.0903712 0
M  V30 5829 H 560.792 1.85464 -0.477001 0
M  V30 5830 H 559.097 3.65672 1.40681 0
M  V30 5831 H 560.794 3.86337 1.07447 0
M  V30 5832 H 557.384 4.27558 -0.298652 0
M  V30 5833 H 561.568 4.8393 -1.10117 0
M  V30 5834 H 556.824 5.69418 -2.22651 0
M  V30 5835 H 560.998 6.27151 -3.02745 0
M  V30 5836 H 558.625 6.69768 -3.59604 0
M  V30 5837 N 560.2 0.0768682 1.57412 0
M  V30 5838 C 561.43 -0.5991 1.97723 0
M  V30 5839 C 561.838 -1.63378 0.954166 0
M  V30 5840 O 561.181 -1.83578 -0.0668706 0
M  V30 5841 C 561.243 -1.32078 3.34358 0
M  V30 5842 C 560.907 -0.438985 4.54887 0
M  V30 5843 C 561.904 0.305492 5.19002 0
M  V30 5844 C 559.589 -0.362378 5.00991 0
M  V30 5845 C 561.583 1.11475 6.27576 0
M  V30 5846 C 559.27 0.450543 6.09437 0
M  V30 5847 C 560.268 1.18777 6.72593 0
M  V30 5848 O 559.956 1.98727 7.7895 0
M  V30 5849 H 559.688 -0.166725 0.655117 0
M  V30 5850 H 562.242 0.147337 2.04871 0
M  V30 5851 H 560.472 -2.1134 3.2384 0
M  V30 5852 H 562.161 -1.88949 3.5924 0
M  V30 5853 H 562.927 0.25593 4.84324 0
M  V30 5854 H 558.806 -0.925832 4.51608 0
M  V30 5855 H 562.35 1.69068 6.76803 0
M  V30 5856 H 558.247 0.501651 6.43548 0
M  V30 5857 H 559.015 1.91214 7.95851 0
M  V30 5858 N 561.678 -1.56367 -0.196722 0
M  V30 5859 C 562.588 -1.97617 -1.2643 0
M  V30 5860 C 563.604 -0.883598 -1.49895 0
M  V30 5861 O 564.78 -1.18921 -1.62541 0
M  V30 5862 C 561.845 -2.30595 -2.58895 0
M  V30 5863 C 560.906 -3.53551 -2.43516 0
M  V30 5864 C 560.139 -3.84946 -3.69665 0
M  V30 5865 O 560.362 -3.17655 -4.73763 0
M  V30 5866 O 559.296 -4.78379 -3.65291 0
M  V30 5867 H 563.122 -2.88648 -0.944233 0
M  V30 5868 H 560.707 -1.43901 -0.401592 0
M  V30 5869 H 562.589 -2.52889 -3.37083 0
M  V30 5870 H 561.264 -1.42732 -2.90533 0
M  V30 5871 H 560.171 -3.36507 -1.63445 0
M  V30 5872 H 561.504 -4.41875 -2.16812 0
M  V30 5873 N 563.156 0.464375 -1.50603 0
M  V30 5874 C 564.572 0.798684 -1.38178 0
M  V30 5875 C 564.772 1.96568 -0.44308 0
M  V30 5876 O 563.828 2.52252 0.111814 0
M  V30 5877 C 565.141 1.10444 -2.79683 0
M  V30 5878 C 566.689 1.2105 -2.88645 0
M  V30 5879 C 567.164 1.54934 -4.30998 0
M  V30 5880 N 568.655 1.61913 -4.3398 0
M  V30 5881 C 569.39 1.8965 -5.41129 0
M  V30 5882 N 568.886 2.15361 -6.58477 0
M  V30 5883 N 570.679 1.91207 -5.28579 0
M  V30 5884 H 562.83 -0.304603 -2.10204 0
M  V30 5885 H 565.093 -0.0737804 -0.945125 0
M  V30 5886 H 564.799 0.319934 -3.50242 0
M  V30 5887 H 564.673 2.03896 -3.17342 0
M  V30 5888 H 567.06 1.98567 -2.18301 0
M  V30 5889 H 567.141 0.255613 -2.5452 0
M  V30 5890 H 566.785 0.779549 -5.01882 0
M  V30 5891 H 566.715 2.51584 -4.62615 0
M  V30 5892 H 569.206 1.44055 -3.49366 0
M  V30 5893 H 569.519 2.35818 -7.35941 0
M  V30 5894 H 567.864 2.1274 -6.6164 0
M  V30 5895 H 571.055 1.70622 -4.35897 0
M  V30 5896 H 571.228 2.12488 -6.12171 0
M  V30 5897 N 564.634 1.40294 0.718013 0
M  V30 5898 C 565.597 1.4012 1.81381 0
M  V30 5899 C 566.597 0.295405 1.58063 0
M  V30 5900 O 567.787 0.554187 1.6515 0
M  V30 5901 C 564.919 1.19056 3.19435 0
M  V30 5902 H 566.112 2.37645 1.82933 0
M  V30 5903 H 563.665 1.26107 0.923405 0
M  V30 5904 H 564.4 0.222809 3.23534 0
M  V30 5905 H 564.185 1.99152 3.37758 0
M  V30 5906 H 565.675 1.21716 3.99468 0
M  V30 5907 N 566.112 -0.949982 1.2575 0
M  V30 5908 C 567.36 -1.6918 1.10555 0
M  V30 5909 C 567.681 -1.91773 -0.353298 0
M  V30 5910 O 566.951 -1.50814 -1.25027 0
M  V30 5911 H 565.531 -0.626952 0.406129 0
M  V30 5912 H 568.193 -1.1419 1.57945 0
M  V30 5913 H 567.289 -2.66915 1.61749 0
M  V30 5914 N 567.59 -1.07411 -1.15328 0
M  V30 5915 C 568.537 -0.694995 -2.20087 0
M  V30 5916 C 569.507 0.313904 -1.63107 0
M  V30 5917 O 570.692 0.200216 -1.89747 0
M  V30 5918 C 567.832 -0.0996218 -3.44956 0
M  V30 5919 C 566.945 -1.16007 -4.16133 0
M  V30 5920 C 566.08 -0.529636 -5.28553 0
M  V30 5921 C 565.119 -1.57283 -5.91548 0
M  V30 5922 N 564.256 -0.964932 -6.95438 0
M  V30 5923 H 569.096 -1.5927 -2.51867 0
M  V30 5924 H 566.633 -0.796115 -1.23695 0
M  V30 5925 H 568.591 0.263197 -4.16369 0
M  V30 5926 H 567.221 0.761435 -3.13691 0
M  V30 5927 H 566.273 -1.64045 -3.4321 0
M  V30 5928 H 567.585 -1.95101 -4.59061 0
M  V30 5929 H 566.739 -0.114487 -6.06592 0
M  V30 5930 H 565.478 0.29307 -4.86819 0
M  V30 5931 H 564.483 -1.99775 -5.12221 0
M  V30 5932 H 565.708 -2.39783 -6.35359 0
M  V30 5933 H 563.654 -0.16314 -6.55797 0
M  V30 5934 H 563.571 -1.69311 -7.36797 0
M  V30 5935 H 564.839 -0.575305 -7.77374 0
M  V30 5936 N 569.068 1.32177 -0.85831 0
M  V30 5937 C 570.314 1.97417 -0.46417 0
M  V30 5938 C 570.647 1.67746 0.978514 0
M  V30 5939 O 569.922 0.967654 1.68721 0
M  V30 5940 C 570.205 3.53069 -0.708094 0
M  V30 5941 C 570.058 3.92357 -2.19946 0
M  V30 5942 C 571.377 4.39783 -0.166881 0
M  V30 5943 H 568.496 0.717097 -0.17012 0
M  V30 5944 H 571.138 1.56499 -1.07741 0
M  V30 5945 H 569.288 3.88054 -0.186128 0
M  V30 5946 H 570.96 3.67533 -2.78779 0
M  V30 5947 H 569.203 3.41384 -2.67656 0
M  V30 5948 H 569.874 5.00841 -2.32082 0
M  V30 5949 H 572.35 4.11556 -0.613285 0
M  V30 5950 H 571.226 5.47671 -0.367093 0
M  V30 5951 H 571.487 4.32196 0.930559 0
M  V30 5952 N 570.547 0.616602 1.45037 0
M  V30 5953 C 571.494 -0.0969439 2.30596 0
M  V30 5954 C 572.464 -0.851151 1.42635 0
M  V30 5955 O 573.649 -0.835092 1.71554 0
M  V30 5956 C 570.789 -1.08234 3.27688 0
M  V30 5957 C 569.902 -0.328072 4.30752 0
M  V30 5958 C 569.037 -1.30399 5.14946 0
M  V30 5959 C 568.076 -0.538049 6.09731 0
M  V30 5960 N 567.213 -1.46371 6.86673 0
M  V30 5961 H 572.053 0.63864 2.91076 0
M  V30 5962 H 569.59 0.326733 1.43425 0
M  V30 5963 H 571.548 -1.66688 3.82454 0
M  V30 5964 H 570.178 -1.78523 2.68941 0
M  V30 5965 H 569.23 0.372136 3.78575 0
M  V30 5966 H 570.542 0.269142 4.98073 0
M  V30 5967 H 569.696 -1.96032 5.74157 0
M  V30 5968 H 568.435 -1.93514 4.47665 0
M  V30 5969 H 567.44 0.131852 5.49642 0
M  V30 5970 H 568.665 0.0881732 6.79043 0
M  V30 5971 H 566.611 -2.08233 6.22073 0
M  V30 5972 H 566.528 -0.920152 7.50379 0
M  V30 5973 H 567.796 -2.10932 7.50418 0
M  V30 5974 N 572.025 -1.5352 0.356285 0
M  V30 5975 C 573.265 -2.03027 -0.23649 0
M  V30 5976 C 573.629 -1.23813 -1.46746 0
M  V30 5977 O 574.83 -1.63281 -2.13525 0
M  V30 5978 C 573.101 -3.53442 -0.530415 0
M  V30 5979 S 574.66 -4.24836 -1.09819 0
M  V30 5980 H 571.478 -0.707591 -0.0695378 0
M  V30 5981 H 574.08 -1.89077 0.496999 0
M  V30 5982 H 572.784 -4.087 0.373114 0
M  V30 5983 H 572.315 -3.71536 -1.29323 0
M  V30 5984 H 574.33 -4.35228 -2.38309 0
M  V30 5985 N 573.503 -0.0852151 -1.57369 0
M  V30 5986 C 574.752 0.580443 -1.93168 0
M  V30 5987 C 575.065 1.6995 -0.968319 0
M  V30 5988 O 576.271 2.42564 -1.21963 0
M  V30 5989 C 574.727 1.08386 -3.43192 0
M  V30 5990 C 574.335 -0.00491388 -4.48 0
M  V30 5991 C 576.079 1.72281 -3.87968 0
M  V30 5992 C 573.986 0.513299 -5.89168 0
M  V30 5993 H 572.916 0.22059 -0.72101 0
M  V30 5994 H 575.567 -0.159621 -1.82804 0
M  V30 5995 H 573.949 1.8773 -3.48674 0
M  V30 5996 H 575.123 -0.780032 -4.5415 0
M  V30 5997 H 573.438 -0.548453 -4.12772 0
M  V30 5998 H 576.035 2.12108 -4.9083 0
M  V30 5999 H 576.378 2.58811 -3.26071 0
M  V30 6000 H 576.911 0.995359 -3.85146 0
M  V30 6001 H 573.65 -0.315153 -6.54742 0
M  V30 6002 H 573.17 1.25564 -5.8651 0
M  V30 6003 H 574.849 0.985433 -6.39451 0
M  V30 6004 N 574.981 1.5647 0.188427 0
M  V30 6005 C 576.229 1.80655 0.905986 0
M  V30 6006 C 576.55 0.659391 1.83513 0
M  V30 6007 O 575.82 -0.321868 1.93238 0
M  V30 6008 H 574.4 0.666391 0.337538 0
M  V30 6009 H 577.062 1.93949 0.192339 0
M  V30 6010 H 576.158 2.74066 1.49313 0
M  V30 6011 N 576.459 -0.456382 1.50847 0
M  V30 6012 C 577.684 -1.2349 1.66628 0
M  V30 6013 C 578.109 -1.84715 0.355254 0
M  V30 6014 O 577.467 -1.67961 -0.682559 0
M  V30 6015 C 577.515 -2.30865 2.77009 0
M  V30 6016 O 576.619 -3.35882 2.39285 0
M  V30 6017 H 575.96 -0.36266 0.556214 0
M  V30 6018 H 578.49 -0.541374 1.97308 0
M  V30 6019 H 578.5 -2.75949 3.00526 0
M  V30 6020 H 577.175 -1.85677 3.72152 0
M  V30 6021 H 575.752 -2.96406 2.26269 0
M  V30 6022 N 577.937 -1.40673 -0.710563 0
M  V30 6023 C 579.348 -1.34975 -1.28991 0
M  V30 6024 C 579.699 -0.0256272 -1.96183 0
M  V30 6025 O 578.824 0.876339 -1.97862 0
M  V30 6026 C 579.419 -2.44467 -2.34567 0
M  V30 6027 C 577.978 -2.42213 -2.88114 0
M  V30 6028 C 577.125 -2.25085 -1.61963 0
M  V30 6029 H 580.076 -1.50406 -0.506343 0
M  V30 6030 H 580.097 -2.12663 -3.15523 0
M  V30 6031 H 579.609 -3.40825 -1.85634 0
M  V30 6032 H 577.71 -1.49568 -3.41263 0
M  V30 6033 H 577.823 -3.37983 -3.39565 0
M  V30 6034 H 576.187 -1.72691 -1.87216 0
M  V30 6035 H 576.97 -3.23449 -1.15047 0
M  V30 6036 N 579.415 0.9433 -1.26252 0
M  V30 6037 C 580.64 1.72898 -1.14547 0
M  V30 6038 C 581.065 1.85761 0.295743 0
M  V30 6039 O 580.423 1.3463 1.21427 0
M  V30 6040 C 580.471 3.11471 -1.8171 0
M  V30 6041 O 579.575 3.97336 -1.10445 0
M  V30 6042 H 578.916 0.530555 -0.399259 0
M  V30 6043 H 581.446 1.18159 -1.67032 0
M  V30 6044 H 581.456 3.61872 -1.88449 0
M  V30 6045 H 580.131 3.01425 -2.86558 0
M  V30 6046 H 578.708 3.55788 -1.11666 0
M  V30 6047 N 580.893 1.08022 1.14757 0
M  V30 6048 C 582.309 0.807072 1.3769 0
M  V30 6049 C 582.509 -0.585504 1.92806 0
M  V30 6050 O 581.565 -1.34301 2.13821 0
M  V30 6051 C 582.878 1.88651 2.34161 0
M  V30 6052 C 584.426 1.91206 2.47809 0
M  V30 6053 C 584.901 2.98253 3.47576 0
M  V30 6054 N 586.392 2.974 3.55117 0
M  V30 6055 C 587.127 3.76872 4.32152 0
M  V30 6056 N 586.623 4.66212 5.12463 0
M  V30 6057 N 588.416 3.6519 4.27309 0
M  V30 6058 H 580.567 1.97824 0.77326 0
M  V30 6059 H 582.83 0.85826 0.402608 0
M  V30 6060 H 582.536 2.88749 2.00791 0
M  V30 6061 H 582.41 1.75244 3.3402 0
M  V30 6062 H 584.797 0.917564 2.80472 0
M  V30 6063 H 584.878 2.08691 1.47925 0
M  V30 6064 H 584.522 3.97907 3.15646 0
M  V30 6065 H 584.452 2.78014 4.47231 0
M  V30 6066 H 586.943 2.32643 2.97801 0
M  V30 6067 H 587.256 5.23468 5.68508 0
M  V30 6068 H 585.601 4.70257 5.11745 0
M  V30 6069 H 588.792 2.94765 3.63636 0
M  V30 6070 H 588.965 4.27366 4.87095 0
M  V30 6071 N 582.371 -1.3172 0.865308 0
M  V30 6072 C 583.62 -1.96145 0.470098 0
M  V30 6073 C 583.933 -1.69182 -0.981674 0
M  V30 6074 O 585.139 -2.27431 -1.48281 0
M  V30 6075 C 583.595 -3.51129 0.789732 0
M  V30 6076 C 583.203 -3.86938 2.25795 0
M  V30 6077 C 584.947 -4.2197 0.462765 0
M  V30 6078 C 582.854 -5.35012 2.52024 0
M  V30 6079 H 581.784 -0.734105 0.172065 0
M  V30 6080 H 584.435 -1.49959 1.05757 0
M  V30 6081 H 582.817 -3.95781 0.131571 0
M  V30 6082 H 583.991 -3.5326 2.95879 0
M  V30 6083 H 582.306 -3.29149 2.55049 0
M  V30 6084 H 584.903 -5.30904 0.636019 0
M  V30 6085 H 585.246 -4.12005 -0.59645 0
M  V30 6086 H 585.779 -3.82936 1.07727 0
M  V30 6087 H 582.518 -5.50008 3.56611 0
M  V30 6088 H 582.038 -5.70058 1.8653 0
M  V30 6089 H 583.717 -6.0222 2.36515 0
M  V30 6090 N 583.85 -0.624285 -1.44708 0
M  V30 6091 C 585.098 -0.125802 -2.01708 0
M  V30 6092 C 585.418 1.2543 -1.49306 0
M  V30 6093 O 584.689 1.83198 -0.693924 0
M  V30 6094 H 583.269 -0.0435161 -0.745731 0
M  V30 6095 H 585.931 -0.809446 -1.77296 0
M  V30 6096 H 585.027 -0.0882734 -3.11975 0
M  V30 6097 N 585.328 1.53329 -0.364422 0
M  V30 6098 C 586.553 2.06132 0.229033 0
M  V30 6099 C 586.978 1.23625 1.41769 0
M  V30 6100 O 586.336 0.255038 1.79497 0
M  V30 6101 C 586.384 3.55544 0.60174 0
M  V30 6102 O 585.488 3.75771 1.69912 0
M  V30 6103 H 584.829 0.663148 0.0336213 0
M  V30 6104 H 587.359 1.97758 -0.524689 0
M  V30 6105 H 587.369 3.98549 0.873073 0
M  V30 6106 H 586.044 4.15039 -0.267421 0
M  V30 6107 H 584.621 3.44663 1.42343 0
M  V30 6108 N 586.806 0.0935595 1.57322 0
M  V30 6109 C 588.055 -0.570191 1.93473 0
M  V30 6110 C 588.368 -1.69434 0.977318 0
M  V30 6111 O 589.574 -2.41914 1.23248 0
M  V30 6112 C 588.03 -1.06564 3.43762 0
M  V30 6113 C 587.638 0.0286723 4.47991 0
M  V30 6114 C 589.382 -1.70221 3.88877 0
M  V30 6115 C 587.289 -0.482046 5.89432 0
M  V30 6116 H 586.219 -0.216764 0.72217 0
M  V30 6117 H 588.87 0.169313 1.82717 0
M  V30 6118 H 587.252 -1.85878 3.49664 0
M  V30 6119 H 588.426 0.804106 4.5373 0
M  V30 6120 H 586.741 0.570336 4.12476 0
M  V30 6121 H 589.338 -2.09502 4.91948 0
M  V30 6122 H 589.681 -2.57078 3.27439 0
M  V30 6123 H 590.214 -0.974919 3.85668 0
M  V30 6124 H 586.953 0.349871 6.54566 0
M  V30 6125 H 586.473 -1.22452 5.87167 0
M  V30 6126 H 588.152 -0.951508 6.39965 0
M  V30 6127 N 588.284 -1.56567 -0.180126 0
M  V30 6128 C 589.512 -1.85618 -0.913972 0
M  V30 6129 C 589.927 -0.677892 -1.7621 0
M  V30 6130 O 589.284 0.353171 -1.7905 0
M  V30 6131 C 589.335 -3.13619 -1.79793 0
M  V30 6132 O 589.056 -4.26906 -0.98402 0
M  V30 6133 C 590.557 -3.55954 -2.64219 0
M  V30 6134 H 587.777 -0.616043 -0.265954 0
M  V30 6135 H 590.321 -2.03681 -0.182872 0
M  V30 6136 H 588.476 -2.97409 -2.48247 0
M  V30 6137 H 588.89 -4.9989 -1.58776 0
M  V30 6138 H 590.364 -4.48444 -3.21873 0
M  V30 6139 H 590.841 -2.79653 -3.38661 0
M  V30 6140 H 591.447 -3.74746 -2.01111 0
M  V30 6141 N 589.762 0.448376 -1.51087 0
M  V30 6142 C 591.011 1.19561 -1.62444 0
M  V30 6143 C 591.324 1.92602 -0.341151 0
M  V30 6144 O 592.53 2.69439 -0.333936 0
M  V30 6145 C 590.986 2.17373 -2.8684 0
M  V30 6146 C 590.594 1.5003 -4.22131 0
M  V30 6147 C 592.338 2.92597 -3.0755 0
M  V30 6148 C 590.245 2.46262 -5.37689 0
M  V30 6149 H 589.175 0.449975 -0.605011 0
M  V30 6150 H 591.826 0.463735 -1.77544 0
M  V30 6151 H 590.208 2.93948 -2.65349 0
M  V30 6152 H 591.382 0.790886 -4.53962 0
M  V30 6153 H 589.697 0.870011 -4.0721 0
M  V30 6154 H 592.294 3.64663 -3.91056 0
M  V30 6155 H 592.637 3.53306 -2.20183 0
M  V30 6156 H 593.17 2.23131 -3.29329 0
M  V30 6157 H 589.909 1.90258 -6.27281 0
M  V30 6158 H 589.429 3.15289 -5.10248 0
M  V30 6159 H 591.108 3.07623 -5.6919 0
M  V30 6160 N 591.24 1.41047 0.703093 0
M  V30 6161 C 592.486 1.40207 1.46526 0
M  V30 6162 C 592.819 0.00847763 1.94198 0
M  V30 6163 O 592.094 -0.962437 1.69019 0
M  V30 6164 C 592.377 2.40238 2.6825 0
M  V30 6165 C 592.23 3.88674 2.26391 0
M  V30 6166 C 593.549 2.37627 3.70434 0
M  V30 6167 H 590.668 0.510594 0.531472 0
M  V30 6168 H 593.31 1.72271 0.801422 0
M  V30 6169 H 591.46 2.13026 3.24888 0
M  V30 6170 H 593.132 4.2676 1.75138 0
M  V30 6171 H 591.375 4.03903 1.58255 0
M  V30 6172 H 592.046 4.542 3.13698 0
M  V30 6173 H 594.522 2.61759 3.23452 0
M  V30 6174 H 593.398 3.09645 4.53223 0
M  V30 6175 H 593.659 1.39223 4.19606 0
M  V30 6176 N 592.718 -0.936591 1.26751 0
M  V30 6177 C 593.966 -1.67998 1.12343 0
M  V30 6178 C 594.287 -1.92137 -0.332938 0
M  V30 6179 O 593.557 -1.52132 -1.23421 0
M  V30 6180 H 592.137 -0.622609 0.412756 0
M  V30 6181 H 594.799 -1.12509 1.59147 0
M  V30 6182 H 593.895 -2.65185 1.64571 0
M  V30 6183 N 594.196 -1.08629 -1.14182 0
M  V30 6184 C 595.159 -0.722027 -2.1753 0
M  V30 6185 C 596.159 0.244305 -1.58933 0
M  V30 6186 O 597.349 0.0235545 -1.74184 0
M  V30 6187 C 594.481 -0.0663966 -3.40835 0
M  V30 6188 H 595.674 -1.63719 -2.51269 0
M  V30 6189 H 593.227 -0.884442 -1.28869 0
M  V30 6190 H 593.962 0.860389 -3.12678 0
M  V30 6191 H 593.747 -0.761598 -3.84632 0
M  V30 6192 H 595.237 0.173346 -4.1724 0
M  V30 6193 N 595.674 1.31259 -0.872281 0
M  V30 6194 C 596.92 1.96913 -0.485083 0
M  V30 6195 C 597.253 1.68774 0.960667 0
M  V30 6196 O 596.528 0.985495 1.67685 0
M  V30 6197 C 596.811 3.52299 -0.745502 0
M  V30 6198 C 596.664 3.90002 -2.24095 0
M  V30 6199 C 597.983 4.39582 -0.213516 0
M  V30 6200 H 595.102 0.715252 -0.177716 0
M  V30 6201 H 597.744 1.55347 -1.09395 0
M  V30 6202 H 595.894 3.87835 -0.227276 0
M  V30 6203 H 597.566 3.64555 -2.82661 0
M  V30 6204 H 595.809 3.38526 -2.71261 0
M  V30 6205 H 596.48 4.98352 -2.37381 0
M  V30 6206 H 598.956 4.10882 -0.656902 0
M  V30 6207 H 597.832 5.47251 -0.42516 0
M  V30 6208 H 598.093 4.33158 0.884666 0
M  V30 6209 N 597.152 0.631951 1.44375 0
M  V30 6210 C 598.377 0.142146 2.06912 0
M  V30 6211 C 598.802 -1.17456 1.4692 0
M  V30 6212 O 598.16 -1.72074 0.570975 0
M  V30 6213 C 598.208 0.0417952 3.60576 0
M  V30 6214 O 597.312 -1.00194 4.00044 0
M  V30 6215 H 596.653 0.0851491 0.658518 0
M  V30 6216 H 599.183 0.868863 1.85235 0
M  V30 6217 H 599.193 -0.148517 4.0773 0
M  V30 6218 H 597.868 1.0031 4.03622 0
M  V30 6219 H 596.445 -0.786131 3.64519 0
M  V30 6220 N 598.631 -1.53133 0.372548 0
M  V30 6221 C 600.042 -1.86404 -0.105155 0
M  V30 6222 C 600.393 -1.29289 -1.47576 0
M  V30 6223 O 599.518 -0.617646 -2.07398 0
M  V30 6224 C 600.113 -3.38223 -0.197588 0
M  V30 6225 C 598.672 -3.71266 -0.619556 0
M  V30 6226 C 597.819 -2.76353 0.228919 0
M  V30 6227 H 600.77 -1.47282 0.591077 0
M  V30 6228 H 600.791 -3.66577 -1.01987 0
M  V30 6229 H 600.303 -3.79763 0.800099 0
M  V30 6230 H 598.404 -3.35287 -1.62522 0
M  V30 6231 H 598.517 -4.77515 -0.389332 0
M  V30 6232 H 596.881 -2.52888 -0.303271 0
M  V30 6233 H 597.664 -3.20728 1.22428 0
M  V30 6234 N 600.109 -0.101901 -1.5727 0
M  V30 6235 C 601.52 0.426173 -1.81771 0
M  V30 6236 C 601.871 1.67725 -1.01797 0
M  V30 6237 O 600.996 2.14958 -0.249386 0
M  V30 6238 C 601.591 0.779962 -3.297 0
M  V30 6239 C 600.15 1.25275 -3.54941 0
M  V30 6240 C 599.297 0.252814 -2.76145 0
M  V30 6241 H 602.248 -0.32726 -1.55289 0
M  V30 6242 H 602.269 1.63891 -3.43395 0
M  V30 6243 H 601.781 -0.130778 -3.8788 0
M  V30 6244 H 599.882 2.18097 -3.021 0
M  V30 6245 H 599.995 1.20988 -4.63572 0
M  V30 6246 H 598.359 0.736362 -2.43823 0
M  V30 6247 H 599.142 -0.650724 -3.37076 0
M  V30 6248 N 601.587 1.56661 0.17182 0
M  V30 6249 C 602.835 1.81606 0.886774 0
M  V30 6250 C 603.156 0.678818 1.82803 0
M  V30 6251 O 602.426 -0.301354 1.93568 0
M  V30 6252 H 601.006 0.669934 0.330451 0
M  V30 6253 H 603.668 1.94142 0.171757 0
M  V30 6254 H 602.764 2.75634 1.46398 0
M  V30 6255 N 603.065 -0.440357 1.51323 0
M  V30 6256 C 604.313 -1.18769 1.63518 0
M  V30 6257 C 604.634 -1.91793 0.352201 0
M  V30 6258 O 603.904 -1.85432 -0.631811 0
M  V30 6259 H 602.484 -0.441408 0.602634 0
M  V30 6260 H 605.146 -0.505162 1.8824 0
M  V30 6261 H 604.242 -1.91892 2.46138 0
M  V30 6262 N 604.543 -1.41418 -0.695603 0
M  V30 6263 C 605.82 -1.31264 -1.45014 0
M  V30 6264 C 606.2 0.0597994 -2.11015 0
M  V30 6265 O 605.548 1.07403 -2.01685 0
M  V30 6266 C 605.758 -2.466 -2.4696 0
M  V30 6267 C 607.106 -2.87763 -3.12214 0
M  V30 6268 O 608.13 -2.46339 -2.57285 0
M  V30 6269 O 606.989 -3.59395 -4.11701 0
M  V30 6270 H 604.083 -0.516576 -0.645816 0
M  V30 6271 H 606.629 -1.53382 -0.726084 0
M  V30 6272 H 605.401 -3.38183 -1.96845 0
M  V30 6273 H 605.024 -2.26358 -3.26876 0
M  V30 6274 N 606.021 0.929856 -1.27246 0
M  V30 6275 C 607.268 1.67731 -1.13457 0
M  V30 6276 C 607.596 1.9185 0.319998 0
M  V30 6277 O 606.851 1.50524 1.25064 0
M  V30 6278 C 607.15 3.05116 -1.86115 0
M  V30 6279 C 606.816 3.00715 -3.35978 0
M  V30 6280 C 605.478 2.99222 -3.76855 0
M  V30 6281 C 607.83 2.92168 -4.3161 0
M  V30 6282 C 605.158 2.86962 -5.11732 0
M  V30 6283 C 607.51 2.81449 -5.66542 0
M  V30 6284 C 606.174 2.78305 -6.06715 0
M  V30 6285 H 605.444 0.613772 -0.415168 0
M  V30 6286 H 608.091 1.08456 -1.57827 0
M  V30 6287 H 606.396 3.68083 -1.34246 0
M  V30 6288 H 608.093 3.61822 -1.72876 0
M  V30 6289 H 604.683 3.02664 -3.03468 0
M  V30 6290 H 608.867 2.92421 -4.01003 0
M  V30 6291 H 604.123 2.82913 -5.42006 0
M  V30 6292 H 608.297 2.738 -6.40317 0
M  V30 6293 H 605.924 2.68561 -7.11181 0
M  V30 6294 N 607.499 1.09233 1.13605 0
M  V30 6295 C 608.724 0.849067 1.89224 0
M  V30 6296 C 609.149 -0.593875 1.78479 0
M  V30 6297 O 608.507 -1.41703 1.13092 0
M  V30 6298 C 608.555 1.28642 3.36873 0
M  V30 6299 O 607.659 0.44363 4.10007 0
M  V30 6300 H 607 0.30767 0.588417 0
M  V30 6301 H 609.53 1.45595 1.43748 0
M  V30 6302 H 609.54 1.27096 3.87699 0
M  V30 6303 H 608.215 2.33729 3.44011 0
M  V30 6304 H 606.792 0.523241 3.69211 0
M  V30 6305 N 608.977 -1.30795 0.87923 0
M  V30 6306 C 610.254 -1.91145 0.415086 0
M  V30 6307 C 610.634 -1.7995 -1.10368 0
M  V30 6308 O 609.982 -1.21305 -1.93642 0
M  V30 6309 C 610.192 -3.37014 0.906778 0
M  V30 6310 C 611.54 -4.14101 0.938358 0
M  V30 6311 O 612.564 -3.45834 0.853053 0
M  V30 6312 O 611.423 -5.36054 1.06342 0
M  V30 6313 H 608.517 -0.81736 0.125905 0
M  V30 6314 H 611.063 -1.39401 0.967753 0
M  V30 6315 H 609.835 -3.3922 1.95053 0
M  V30 6316 H 609.458 -3.96204 0.332948 0
M  V30 6317 N 610.455 -0.639598 -1.44038 0
M  V30 6318 C 611.866 -0.228866 -1.85292 0
M  V30 6319 C 612.217 1.22161 -1.53529 0
M  V30 6320 O 611.342 1.93064 -0.977518 0
M  V30 6321 C 611.937 -0.408592 -3.36327 0
M  V30 6322 C 610.496 -0.0522953 -3.76364 0
M  V30 6323 C 609.643 -0.717959 -2.67844 0
M  V30 6324 H 612.594 -0.844194 -1.34384 0
M  V30 6325 H 612.615 0.349968 -3.78887 0
M  V30 6326 H 612.127 -1.46435 -3.59414 0
M  V30 6327 H 610.228 1.0014 -3.58891 0
M  V30 6328 H 610.341 -0.468261 -4.76806 0
M  V30 6329 H 608.705 -0.152459 -2.54243 0
M  V30 6330 H 609.488 -1.77648 -2.93762 0
M  V30 6331 N 611.933 1.52934 -0.380664 0
M  V30 6332 C 613.179 2.01765 0.20458 0
M  V30 6333 C 613.512 1.26696 1.47179 0
M  V30 6334 O 612.787 0.364936 1.91046 0
M  V30 6335 C 613.07 3.56869 0.481269 0
M  V30 6336 C 612.923 4.42617 -0.800629 0
M  V30 6337 C 614.242 4.2121 1.27554 0
M  V30 6338 H 611.361 0.733388 0.0728803 0
M  V30 6339 H 614.003 1.83068 -0.50853 0
M  V30 6340 H 612.153 3.72932 1.08875 0
M  V30 6341 H 613.825 4.38323 -1.43773 0
M  V30 6342 H 612.068 4.09977 -1.4178 0
M  V30 6343 H 612.739 5.49134 -0.561791 0
M  V30 6344 H 615.215 4.09072 0.761514 0
M  V30 6345 H 614.091 5.29732 1.43788 0
M  V30 6346 H 614.352 3.78269 2.28833 0
M  V30 6347 N 613.412 0.11024 1.57214 0
M  V30 6348 C 614.64 -0.557834 1.99238 0
M  V30 6349 C 615.055 -1.60778 0.989734 0
M  V30 6350 O 614.412 -1.82491 -0.0186092 0
M  V30 6351 C 614.463 -1.19189 3.41286 0
M  V30 6352 O 614.184 -0.183919 4.37714 0
M  V30 6353 C 615.685 -1.94413 3.98395 0
M  V30 6354 H 612.905 -0.148392 0.654386 0
M  V30 6355 H 615.449 0.193996 2.03578 0
M  V30 6356 H 613.604 -1.89456 3.37913 0
M  V30 6357 H 614.018 -0.643475 5.20538 0
M  V30 6358 H 615.492 -2.34116 4.99894 0
M  V30 6359 H 615.969 -2.81592 3.3705 0
M  V30 6360 H 616.575 -1.28928 4.05287 0
M  V30 6361 N 614.89 -1.56749 -0.16351 0
M  V30 6362 C 616.118 -1.86577 -0.894233 0
M  V30 6363 C 616.533 -0.696543 -1.75481 0
M  V30 6364 O 615.89 0.334161 -1.79415 0
M  V30 6365 C 615.941 -3.15508 -1.76456 0
M  V30 6366 O 615.662 -4.27926 -0.938685 0
M  V30 6367 C 617.163 -3.58737 -2.60428 0
M  V30 6368 H 614.383 -0.618829 -0.259405 0
M  V30 6369 H 616.927 -2.03863 -0.161259 0
M  V30 6370 H 615.082 -3.00025 -2.45079 0
M  V30 6371 H 615.496 -5.01546 -1.53465 0
M  V30 6372 H 616.97 -4.51832 -3.17099 0
M  V30 6373 H 617.447 -2.83229 -3.35675 0
M  V30 6374 H 618.053 -3.76858 -1.97125 0
M  V30 6375 N 616.368 0.432326 -1.51554 0
M  V30 6376 C 617.331 1.50765 -1.72634 0
M  V30 6377 C 618.331 1.49334 -0.596314 0
M  V30 6378 O 619.521 1.51268 -0.863925 0
M  V30 6379 C 616.653 2.90284 -1.7874 0
M  V30 6380 H 617.846 1.33377 -2.68609 0
M  V30 6381 H 615.399 0.661329 -1.4162 0
M  V30 6382 H 616.134 3.13071 -0.845977 0
M  V30 6383 H 615.919 2.92727 -2.6087 0
M  V30 6384 H 617.409 3.68282 -1.96871 0
M  V30 6385 N 617.846 1.41785 0.688094 0
M  V30 6386 C 619.074 1.44915 1.47673 0
M  V30 6387 C 619.489 0.0565786 1.88715 0
M  V30 6388 O 618.846 -0.92579 1.57275 0
M  V30 6389 C 618.897 2.36452 2.73446 0
M  V30 6390 O 618.618 3.7029 2.34131 0
M  V30 6391 C 620.119 2.48463 3.67125 0
M  V30 6392 H 617.339 0.493324 0.454832 0
M  V30 6393 H 619.883 1.86153 0.846594 0
M  V30 6394 H 618.038 1.98502 3.3268 0
M  V30 6395 H 618.452 4.19183 3.15255 0
M  V30 6396 H 619.926 3.16662 4.52138 0
M  V30 6397 H 620.403 1.51826 4.12123 0
M  V30 6398 H 621.009 2.8708 3.13792 0
M  V30 6399 N 619.324 -0.923095 1.27737 0
M  V30 6400 C 620.257 -2.02515 1.05181 0
M  V30 6401 C 621.235 -1.62574 -0.0292204 0
M  V30 6402 O 622.419 -1.88137 0.116848 0
M  V30 6403 C 619.546 -3.33407 0.596468 0
M  V30 6404 C 618.592 -3.92328 1.67276 0
M  V30 6405 S 619.425 -4.24342 3.26641 0
M  V30 6406 C 620.581 -5.58308 2.82919 0
M  V30 6407 H 620.814 -2.21336 1.98488 0
M  V30 6408 H 618.347 -1.06679 1.1162 0
M  V30 6409 H 620.305 -4.09086 0.34044 0
M  V30 6410 H 618.966 -3.125 -0.316614 0
M  V30 6411 H 618.159 -4.86797 1.30556 0
M  V30 6412 H 617.761 -3.2325 1.8811 0
M  V30 6413 H 620.053 -6.37801 2.28509 0
M  V30 6414 H 620.996 -5.99931 3.7615 0
M  V30 6415 H 621.404 -5.19049 2.21919 0
M  V30 6416 N 620.802 -1.09834 -1.13024 0
M  V30 6417 C 622.027 -0.85909 -1.88771 0
M  V30 6418 C 622.452 0.584402 -1.78791 0
M  V30 6419 O 621.81 1.41101 -1.13842 0
M  V30 6420 C 621.858 -1.30427 -3.36186 0
M  V30 6421 O 620.962 -0.465368 -4.09766 0
M  V30 6422 H 620.303 -0.310786 -0.586778 0
M  V30 6423 H 622.833 -1.46355 -1.42973 0
M  V30 6424 H 622.843 -1.2915 -3.8702 0
M  V30 6425 H 621.518 -2.3555 -3.42767 0
M  V30 6426 H 620.095 -0.542814 -3.68928 0
M  V30 6427 N 622.28 1.30327 -0.886154 0
M  V30 6428 C 623.529 1.95373 -0.501243 0
M  V30 6429 C 623.842 1.70722 0.954634 0
M  V30 6430 O 625.048 2.29761 1.44644 0
M  V30 6431 C 623.504 3.49828 -0.845493 0
M  V30 6432 C 623.112 3.83296 -2.31922 0
M  V30 6433 C 624.856 4.2118 -0.529838 0
M  V30 6434 C 622.763 5.30935 -2.60504 0
M  V30 6435 H 621.693 0.731274 -0.183722 0
M  V30 6436 H 624.344 1.48258 -1.08129 0
M  V30 6437 H 622.726 3.95522 -0.19452 0
M  V30 6438 H 623.9 3.48508 -3.01461 0
M  V30 6439 H 622.215 3.2505 -2.60253 0
M  V30 6440 H 624.812 5.29825 -0.720401 0
M  V30 6441 H 625.155 4.12902 0.530828 0
M  V30 6442 H 625.688 3.81173 -1.13806 0
M  V30 6443 H 622.427 5.44265 -3.65316 0
M  V30 6444 H 621.947 5.67019 -1.95575 0
M  V30 6445 H 623.626 5.98381 -2.46066 0
M  V30 6446 N 623.758 0.647228 1.43697 0
M  V30 6447 C 625.004 0.158422 2.0218 0
M  V30 6448 C 625.337 -1.22233 1.50907 0
M  V30 6449 O 624.612 -1.81478 0.699702 0
M  V30 6450 C 624.895 0.1627 3.59732 0
M  V30 6451 C 624.748 1.57694 4.21251 0
M  V30 6452 C 626.067 -0.504138 4.37203 0
M  V30 6453 H 623.186 0.059042 0.734631 0
M  V30 6454 H 625.828 0.826772 1.71069 0
M  V30 6455 H 623.978 -0.406414 3.86368 0
M  V30 6456 H 625.65 2.19618 4.05667 0
M  V30 6457 H 623.893 2.12603 3.7813 0
M  V30 6458 H 624.564 1.53183 5.3032 0
M  V30 6459 H 627.04 -0.0199841 4.16095 0
M  V30 6460 H 625.916 -0.470394 5.46881 0
M  V30 6461 H 626.177 -1.57726 4.13007 0
M  V30 6462 N 625.236 -1.5273 0.388769 0
M  V30 6463 C 626.168 -2.24081 -0.481704 0
M  V30 6464 C 627.181 -1.26307 -1.02715 0
M  V30 6465 O 628.37 -1.52386 -0.929565 0
M  V30 6466 C 625.47 -2.94315 -1.68024 0
M  V30 6467 C 624.643 -4.18791 -1.26226 0
M  V30 6468 C 623.702 -4.72028 -2.32542 0
M  V30 6469 O 622.728 -5.35129 -1.93972 0
M  V30 6470 N 623.93 -4.51838 -3.64448 0
M  V30 6471 H 626.695 -2.9942 0.129591 0
M  V30 6472 H 624.256 -1.60465 0.2151 0
M  V30 6473 H 626.248 -3.26831 -2.38671 0
M  V30 6474 H 624.818 -2.22287 -2.19789 0
M  V30 6475 H 624.038 -3.92318 -0.384703 0
M  V30 6476 H 625.326 -4.99668 -0.959647 0
M  V30 6477 H 624.724 -4.01468 -3.98547 0
M  V30 6478 H 623.281 -4.88845 -4.31131 0
M  V30 6479 N 626.714 -0.118576 -1.57153 0
M  V30 6480 C 627.677 0.817464 -2.14127 0
M  V30 6481 C 628.677 1.1949 -1.07604 0
M  V30 6482 O 629.867 1.12048 -1.33382 0
M  V30 6483 C 626.999 2.10541 -2.68115 0
M  V30 6484 H 628.192 0.322339 -2.98163 0
M  V30 6485 H 625.745 0.130655 -1.55753 0
M  V30 6486 H 626.48 2.64485 -1.87665 0
M  V30 6487 H 626.265 1.84425 -3.4602 0
M  V30 6488 H 627.755 2.77453 -3.12105 0
M  V30 6489 N 628.193 1.56834 0.155195 0
M  V30 6490 C 629.44 1.82898 0.869179 0
M  V30 6491 C 629.768 0.698194 1.81537 0
M  V30 6492 O 629.023 -0.313404 1.93174 0
M  V30 6493 C 629.322 3.15239 1.68402 0
M  V30 6494 C 628.988 4.42123 0.885341 0
M  V30 6495 C 627.65 4.76583 0.664971 0
M  V30 6496 C 630.002 5.20178 0.326234 0
M  V30 6497 C 627.33 5.86566 -0.125346 0
M  V30 6498 C 629.682 6.3099 -0.45108 0
M  V30 6499 C 628.346 6.64006 -0.682102 0
M  V30 6500 H 627.616 0.66927 0.318055 0
M  V30 6501 H 630.263 1.91036 0.133241 0
M  V30 6502 H 628.568 3.02515 2.48982 0
M  V30 6503 H 630.265 3.32618 2.23978 0
M  V30 6504 H 626.855 4.15102 1.06716 0
M  V30 6505 H 631.039 4.93936 0.483787 0
M  V30 6506 H 626.295 6.10594 -0.313915 0
M  V30 6507 H 630.469 6.9067 -0.89149 0
M  V30 6508 H 628.096 7.49065 -1.29636 0
M  V30 6509 N 629.671 -0.424282 1.51781 0
M  V30 6510 C 630.917 -1.17117 1.66298 0
M  V30 6511 C 631.272 -1.88595 0.380767 0
M  V30 6512 O 630.565 -1.81151 -0.624094 0
M  V30 6513 C 630.759 -2.20418 2.81337 0
M  V30 6514 C 630.588 -1.59081 4.20622 0
M  V30 6515 C 629.358 -1.37007 4.86371 0
M  V30 6516 C 631.556 -1.05992 5.0326 0
M  V30 6517 N 629.538 -0.714049 6.09733 0
M  V30 6518 C 630.909 -0.529933 6.17731 0
M  V30 6519 C 632.964 -0.952927 4.88696 0
M  V30 6520 C 631.667 0.0965457 7.19235 0
M  V30 6521 C 633.693 -0.340325 5.9042 0
M  V30 6522 C 633.055 0.179057 7.04172 0
M  V30 6523 H 629.154 -0.41577 0.662314 0
M  V30 6524 H 631.738 -0.46579 1.89046 0
M  V30 6525 H 629.909 -2.8833 2.60231 0
M  V30 6526 H 631.641 -2.8736 2.84968 0
M  V30 6527 H 628.396 -1.63543 4.44467 0
M  V30 6528 H 628.82 -0.403101 6.75799 0
M  V30 6529 H 633.462 -1.34033 4.00993 0
M  V30 6530 H 631.18 0.496044 8.06576 0
M  V30 6531 H 634.766 -0.259266 5.81222 0
M  V30 6532 H 633.646 0.645626 7.81538 0
M  V30 6533 N 631.149 -1.42148 -0.680565 0
M  V30 6534 C 632.397 -1.42029 -1.43779 0
M  V30 6535 C 632.718 -0.0356347 -1.94967 0
M  V30 6536 O 631.988 0.924936 -1.7269 0
M  V30 6537 H 630.568 -0.522835 -0.533529 0
M  V30 6538 H 633.23 -1.7752 -0.804538 0
M  V30 6539 H 632.326 -2.11658 -2.29363 0
M  V30 6540 N 632.627 0.916307 -1.28225 0
M  V30 6541 C 633.557 2.0352 -1.14464 0
M  V30 6542 C 634.538 1.70045 -0.0430844 0
M  V30 6543 O 635.723 1.92954 -0.219619 0
M  V30 6544 C 632.853 3.37889 -0.803027 0
M  V30 6545 C 631.807 3.85516 -1.85908 0
M  V30 6546 C 631.133 5.1682 -1.37116 0
M  V30 6547 C 632.433 4.07655 -3.26519 0
M  V30 6548 H 634.127 2.1529 -2.08064 0
M  V30 6549 H 631.673 1.03446 -1.00174 0
M  V30 6550 H 633.626 4.15654 -0.693537 0
M  V30 6551 H 632.35 3.26164 0.168674 0
M  V30 6552 H 631.009 3.09953 -1.95767 0
M  V30 6553 H 630.657 5.01497 -0.38859 0
M  V30 6554 H 630.357 5.49657 -2.07728 0
M  V30 6555 H 631.881 5.97143 -1.27484 0
M  V30 6556 H 633.295 4.75953 -3.19596 0
M  V30 6557 H 631.692 4.51818 -3.94943 0
M  V30 6558 H 632.762 3.12553 -3.70727 0
M  V30 6559 N 634.105 1.10431 1.1244 0
M  V30 6560 C 635.382 0.758797 1.80282 0
M  V30 6561 C 635.762 -0.754727 1.97147 0
M  V30 6562 O 635.11 -1.68094 1.54779 0
M  V30 6563 C 635.32 1.50982 3.14651 0
M  V30 6564 C 636.668 1.68232 3.8985 0
M  V30 6565 O 637.692 1.47319 3.24308 0
M  V30 6566 O 636.551 2.02905 5.07437 0
M  V30 6567 H 633.645 0.273756 0.780376 0
M  V30 6568 H 636.191 1.20713 1.19275 0
M  V30 6569 H 634.963 2.53989 2.97666 0
M  V30 6570 H 634.586 1.05435 3.83366 0
M  V30 6571 N 635.583 -1.29855 0.893053 0
M  V30 6572 C 636.53 -2.27909 0.364161 0
M  V30 6573 C 637.5 -1.56726 -0.550093 0
M  V30 6574 O 638.685 -1.84747 -0.47677 0
M  V30 6575 C 635.825 -3.42678 -0.408178 0
M  V30 6576 C 634.938 -4.28659 0.536212 0
M  V30 6577 C 634.073 -5.30599 -0.252521 0
M  V30 6578 C 633.112 -6.08234 0.686822 0
M  V30 6579 N 632.249 -7.02068 -0.0670902 0
M  V30 6580 H 637.089 -2.72531 1.20544 0
M  V30 6581 H 634.626 -1.34047 0.605779 0
M  V30 6582 H 636.584 -4.07986 -0.871962 0
M  V30 6583 H 635.214 -2.99103 -1.21397 0
M  V30 6584 H 634.266 -3.63584 1.1185 0
M  V30 6585 H 635.578 -4.8274 1.25552 0
M  V30 6586 H 634.732 -6.01694 -0.777801 0
M  V30 6587 H 633.471 -4.77233 -1.005 0
M  V30 6588 H 632.476 -5.3601 1.22366 0
M  V30 6589 H 633.701 -6.63689 1.43852 0
M  V30 6590 H 631.647 -6.5108 -0.801955 0
M  V30 6591 H 631.564 -7.53675 0.59243 0
M  V30 6592 H 632.832 -7.77392 -0.572851 0
M  V30 6593 N 637.061 -0.65484 -1.43351 0
M  V30 6594 C 638.008 0.0357713 -2.30772 0
M  V30 6595 C 638.978 0.813035 -1.44841 0
M  V30 6596 O 640.163 0.789314 -1.73708 0
M  V30 6597 C 637.303 0.995084 -3.30442 0
M  V30 6598 C 636.416 0.21375 -4.31471 0
M  V30 6599 C 635.551 1.16701 -5.18222 0
M  V30 6600 C 634.59 0.376201 -6.10943 0
M  V30 6601 N 633.727 1.28113 -6.90313 0
M  V30 6602 H 638.567 -0.71559 -2.89281 0
M  V30 6603 H 636.104 -0.364645 -1.42509 0
M  V30 6604 H 638.062 1.5649 -3.86739 0
M  V30 6605 H 636.692 1.7133 -2.7358 0
M  V30 6606 H 635.744 -0.472377 -3.77456 0
M  V30 6607 H 637.056 -0.401103 -4.97185 0
M  V30 6608 H 636.21 1.8074 -5.79153 0
M  V30 6609 H 634.949 1.81577 -4.52638 0
M  V30 6610 H 633.954 -0.277534 -5.49099 0
M  V30 6611 H 635.179 -0.268178 -6.7857 0
M  V30 6612 H 633.125 1.91666 -6.27376 0
M  V30 6613 H 633.042 0.720879 -7.52555 0
M  V30 6614 H 634.31 1.90962 -7.55747 0
M  V30 6615 N 638.539 1.52521 -0.396863 0
M  V30 6616 C 639.469 2.29582 0.425941 0
M  V30 6617 C 640.45 1.33281 1.05689 0
M  V30 6618 O 641.635 1.62181 1.06823 0
M  V30 6619 C 638.765 3.10821 1.54943 0
M  V30 6620 C 637.719 4.15069 1.04413 0
M  V30 6621 C 637.045 4.84578 2.26028 0
M  V30 6622 C 638.345 5.22191 0.106767 0
M  V30 6623 H 640.039 2.98612 -0.217045 0
M  V30 6624 H 637.585 1.43611 -0.105826 0
M  V30 6625 H 639.538 3.63492 2.13193 0
M  V30 6626 H 638.262 2.39538 2.22011 0
M  V30 6627 H 636.921 3.63389 0.484118 0
M  V30 6628 H 636.569 4.09835 2.91623 0
M  V30 6629 H 636.269 5.55043 1.92876 0
M  V30 6630 H 637.793 5.40056 2.84906 0
M  V30 6631 H 639.207 5.70176 0.597685 0
M  V30 6632 H 637.604 5.99947 -0.135352 0
M  V30 6633 H 638.674 4.77531 -0.842134 0
M  V30 6634 N 640.017 0.126909 1.57088 0
M  V30 6635 C 640.98 -0.806097 2.14557 0
M  V30 6636 C 641.98 -1.18918 1.08236 0
M  V30 6637 O 643.17 -1.11339 1.33975 0
M  V30 6638 C 640.302 -2.09116 2.69227 0
M  V30 6639 H 641.495 -0.306522 2.98329 0
M  V30 6640 H 639.048 -0.122393 1.5582 0
M  V30 6641 H 639.783 -2.63486 1.89065 0
M  V30 6642 H 639.568 -1.82588 3.46993 0
M  V30 6643 H 641.058 -2.75794 3.13572 0
M  V30 6644 N 641.495 -1.56914 -0.146875 0
M  V30 6645 C 642.427 -1.94878 -1.20645 0
M  V30 6646 C 643.44 -0.844633 -1.39175 0
M  V30 6647 O 644.629 -1.12304 -1.38744 0
M  V30 6648 C 641.729 -2.20769 -2.57127 0
M  V30 6649 C 640.902 -3.52053 -2.59572 0
M  V30 6650 C 639.961 -3.66482 -3.77594 0
M  V30 6651 O 638.987 -4.38873 -3.62462 0
M  V30 6652 N 640.189 -3.03156 -4.95052 0
M  V30 6653 H 642.954 -2.86374 -0.883757 0
M  V30 6654 H 640.515 -1.58366 -0.336436 0
M  V30 6655 H 642.507 -2.27664 -3.34591 0
M  V30 6656 H 641.077 -1.35538 -2.81688 0
M  V30 6657 H 640.297 -3.56598 -1.68023 0
M  V30 6658 H 641.585 -4.38396 -2.58238 0
M  V30 6659 H 640.983 -2.44258 -5.10249 0
M  V30 6660 H 639.54 -3.15611 -5.70292 0
M  V30 6661 N 642.974 0.416227 -1.52004 0
M  V30 6662 C 644.39 0.754319 -1.40649 0
M  V30 6663 C 644.59 1.95059 -0.505392 0
M  V30 6664 O 643.646 2.5248 0.0315057 0
M  V30 6665 C 644.959 1.0149 -2.83055 0
M  V30 6666 C 646.507 1.11805 -2.9235 0
M  V30 6667 C 646.982 1.41144 -4.35709 0
M  V30 6668 N 648.473 1.48024 -4.38911 0
M  V30 6669 C 649.208 1.72338 -5.46889 0
M  V30 6670 N 648.704 1.94303 -6.64995 0
M  V30 6671 N 650.497 1.74294 -5.34395 0
M  V30 6672 H 642.648 -0.371324 -2.09129 0
M  V30 6673 H 644.911 -0.103811 -0.942299 0
M  V30 6674 H 644.617 0.208345 -3.51082 0
M  V30 6675 H 644.491 1.93697 -3.23668 0
M  V30 6676 H 646.878 1.91521 -2.24508 0
M  V30 6677 H 646.959 0.17451 -2.55204 0
M  V30 6678 H 646.603 0.619484 -5.04108 0
M  V30 6679 H 646.533 2.36739 -4.70385 0
M  V30 6680 H 649.024 1.32868 -3.53772 0
M  V30 6681 H 649.337 2.12286 -7.43071 0
M  V30 6682 H 647.682 1.91582 -6.68073 0
M  V30 6683 H 650.873 1.56667 -4.41104 0
M  V30 6684 H 651.046 1.92904 -6.18621 0
M  V30 6685 N 644.452 1.42507 0.673017 0
M  V30 6686 C 645.399 1.46124 1.78651 0
M  V30 6687 C 646.369 0.313007 1.63124 0
M  V30 6688 O 647.554 0.517337 1.83653 0
M  V30 6689 C 644.694 1.3711 3.16694 0
M  V30 6690 C 643.807 2.61983 3.43495 0
M  V30 6691 C 642.942 2.45098 4.71275 0
M  V30 6692 C 641.981 3.65336 4.91117 0
M  V30 6693 N 641.118 3.47383 6.10139 0
M  V30 6694 H 645.958 2.4128 1.74895 0
M  V30 6695 H 643.495 1.19788 0.853766 0
M  V30 6696 H 645.453 1.29881 3.96468 0
M  V30 6697 H 644.083 0.45549 3.1957 0
M  V30 6698 H 643.135 2.79571 2.57961 0
M  V30 6699 H 644.447 3.51355 3.5405 0
M  V30 6700 H 643.601 2.35466 5.59143 0
M  V30 6701 H 642.34 1.53219 4.63007 0
M  V30 6702 H 641.345 3.754 4.0169 0
M  V30 6703 H 642.57 4.58199 5.01229 0
M  V30 6704 H 640.516 2.58222 6.0304 0
M  V30 6705 H 640.433 4.30344 6.21563 0
M  V30 6706 H 641.701 3.41565 7.00681 0
M  V30 6707 N 645.93 -0.909495 1.28709 0
M  V30 6708 C 646.88 -1.9991 1.09636 0
M  V30 6709 C 647.864 -1.60889 0.01872 0
M  V30 6710 O 649.056 -1.75374 0.239338 0
M  V30 6711 C 646.185 -3.34675 0.764702 0
M  V30 6712 C 645.271 -3.80085 1.8814 0
M  V30 6713 N 645.662 -3.97824 3.12361 0
M  V30 6714 C 643.96 -4.09278 1.77221 0
M  V30 6715 C 644.661 -4.35928 3.85151 0
M  V30 6716 N 643.637 -4.44426 3.13028 0
M  V30 6717 H 647.439 -2.11681 2.03883 0
M  V30 6718 H 644.953 -1.09763 1.1969 0
M  V30 6719 H 646.95 -4.12426 0.609132 0
M  V30 6720 H 645.61 -3.24255 -0.169952 0
M  V30 6721 H 646.621 -3.83626 3.47925 0
M  V30 6722 H 643.298 -4.0747 0.909621 0
M  V30 6723 H 644.688 -4.57581 4.92006 0
M  V30 6724 N 647.408 -1.11026 -1.11852 0
M  V30 6725 C 648.655 -0.85646 -1.83497 0
M  V30 6726 C 648.983 0.617938 -1.84423 0
M  V30 6727 O 648.238 1.47194 -1.28966 0
M  V30 6728 C 648.537 -1.35777 -3.30604 0
M  V30 6729 C 648.203 -2.84465 -3.49843 0
M  V30 6730 C 646.865 -3.25068 -3.54802 0
M  V30 6731 C 649.217 -3.80251 -3.56453 0
M  V30 6732 C 646.545 -4.60194 -3.63921 0
M  V30 6733 C 648.897 -5.15188 -3.67102 0
M  V30 6734 C 647.561 -5.55356 -3.70319 0
M  V30 6735 H 646.831 -0.313401 -0.671462 0
M  V30 6736 H 649.478 -1.38792 -1.31943 0
M  V30 6737 H 647.783 -0.746455 -3.84624 0
M  V30 6738 H 649.48 -1.13779 -3.8452 0
M  V30 6739 H 646.07 -2.52054 -3.46651 0
M  V30 6740 H 650.254 -3.49986 -3.51886 0
M  V30 6741 H 645.51 -4.90728 -3.64686 0
M  V30 6742 H 649.684 -5.89248 -3.71159 0
M  V30 6743 H 647.311 -6.60054 -3.77138 0
M  V30 6744 N 648.886 1.2938 -0.899927 0
M  V30 6745 C 650.297 1.77644 -0.574427 0
M  V30 6746 C 650.648 1.73824 0.909928 0
M  V30 6747 O 649.773 1.32429 1.71147 0
M  V30 6748 C 650.368 3.22573 -1.03595 0
M  V30 6749 C 648.927 3.68614 -0.76161 0
M  V30 6750 C 648.074 2.49483 -1.21052 0
M  V30 6751 H 651.025 1.16038 -1.08263 0
M  V30 6752 H 651.046 3.78684 -0.371337 0
M  V30 6753 H 650.558 3.25321 -2.11631 0
M  V30 6754 H 648.659 3.7134 0.306127 0
M  V30 6755 H 648.772 4.59402 -1.35965 0
M  V30 6756 H 647.136 2.46798 -0.629515 0
M  V30 6757 H 647.919 2.54959 -2.29893 0
M  V30 6758 N 650.364 0.662433 1.43002 0
M  V30 6759 C 651.589 0.186003 2.06564 0
M  V30 6760 C 652.014 -1.14314 1.49379 0
M  V30 6761 O 651.372 -1.70824 0.607346 0
M  V30 6762 C 651.42 0.118269 3.60406 0
M  V30 6763 O 650.524 -0.916859 4.02079 0
M  V30 6764 H 649.865 0.0990981 0.656563 0
M  V30 6765 H 652.395 0.907958 1.8335 0
M  V30 6766 H 652.405 -0.0619981 4.07953 0
M  V30 6767 H 651.08 1.08849 4.01403 0
M  V30 6768 H 649.657 -0.708635 3.66105 0
M  V30 6769 N 651.842 -1.52309 0.404946 0
M  V30 6770 C 653.088 -2.02065 -0.172455 0
M  V30 6771 C 653.421 -1.29022 -1.45145 0
M  V30 6772 O 652.696 -0.395284 -1.90441 0
M  V30 6773 C 652.979 -3.5759 -0.424433 0
M  V30 6774 C 652.832 -4.41287 0.870945 0
M  V30 6775 C 654.151 -4.23186 -1.20837 0
M  V30 6776 H 651.27 -0.734454 -0.0612035 0
M  V30 6777 H 653.912 -1.82236 0.53759 0
M  V30 6778 H 652.062 -3.74617 -1.02929 0
M  V30 6779 H 653.734 -4.3598 1.50729 0
M  V30 6780 H 651.977 -4.07669 1.48284 0
M  V30 6781 H 652.648 -5.48171 0.649083 0
M  V30 6782 H 655.124 -4.10232 -0.696338 0
M  V30 6783 H 654 -5.31953 -1.35343 0
M  V30 6784 H 654.261 -3.81862 -2.22786 0
M  V30 6785 N 653.32 -0.135238 -1.57019 0
M  V30 6786 C 654.268 0.826099 -2.17436 0
M  V30 6787 C 655.262 1.26378 -1.12805 0
M  V30 6788 O 656.468 1.23363 -1.31079 0
M  V30 6789 H 652.843 0.284568 -0.696078 0
M  V30 6790 H 654.814 0.292212 -2.96966 0
M  V30 6791 C 653.563 2.05991 -2.80112 0
M  V30 6792 H 652.886 1.73209 -3.60331 0
M  V30 6793 H 654.326 2.71225 -3.25903 0
M  V30 6794 C 652.785 2.86027 -1.78017 0
M  V30 6795 O 653.315 3.81971 -1.24344 0
M  V30 6796 N 651.521 2.50332 -1.47588 0
M  V30 6797 H 651.068 1.72377 -1.91426 0
M  V30 6798 H 651.026 3.04177 -0.795228 0
M  V30 6799 N 654.798 1.5699 0.138552 0
M  V30 6800 C 656.044 1.84966 0.846116 0
M  V30 6801 C 656.399 0.72038 1.78405 0
M  V30 6802 O 655.692 -0.281076 1.89527 0
M  V30 6803 C 655.886 3.17007 1.65049 0
M  V30 6804 C 655.715 4.42672 0.79194 0
M  V30 6805 C 654.485 5.03254 0.454293 0
M  V30 6806 C 656.683 5.14164 0.118419 0
M  V30 6807 N 654.665 6.12482 -0.416964 0
M  V30 6808 C 656.036 6.16966 -0.61263 0
M  V30 6809 C 658.091 4.97884 0.0399671 0
M  V30 6810 C 656.794 7.0525 -1.41473 0
M  V30 6811 C 658.82 5.86639 -0.748901 0
M  V30 6812 C 658.182 6.88929 -1.4682 0
M  V30 6813 H 654.281 0.727362 0.287172 0
M  V30 6814 H 656.865 1.94383 0.110972 0
M  V30 6815 H 655.036 3.08722 2.35681 0
M  V30 6816 H 656.768 3.3286 2.30187 0
M  V30 6817 H 653.523 4.6693 0.792038 0
M  V30 6818 H 653.947 6.7172 -0.843865 0
M  V30 6819 H 658.589 4.18779 0.581728 0
M  V30 6820 H 656.307 7.83777 -1.96772 0
M  V30 6821 H 659.893 5.7611 -0.811705 0
M  V30 6822 H 658.773 7.56419 -2.06882 0
M  V30 6823 N 656.276 -0.40816 1.52223 0
M  V30 6824 C 657.501 -1.18127 1.70472 0
M  V30 6825 C 657.926 -1.83491 0.41384 0
M  V30 6826 O 657.284 -1.70047 -0.628778 0
M  V30 6827 C 657.332 -2.21935 2.84213 0
M  V30 6828 O 656.436 -3.28099 2.4985 0
M  V30 6829 H 655.777 -0.344781 0.56747 0
M  V30 6830 H 658.307 -0.478328 1.9893 0
M  V30 6831 H 658.317 -2.66248 3.09153 0
M  V30 6832 H 656.992 -1.73744 3.7787 0
M  V30 6833 H 655.569 -2.89058 2.35584 0
M  V30 6834 N 657.755 -1.42862 -0.66545 0
M  V30 6835 C 658.983 -1.47246 -1.45349 0
M  V30 6836 C 659.398 -0.0865944 -1.88601 0
M  V30 6837 O 658.755 0.900652 -1.58728 0
M  V30 6838 C 658.806 -2.40772 -2.6965 0
M  V30 6839 O 658.527 -3.73968 -2.2821 0
M  V30 6840 C 660.028 -2.54272 -3.63126 0
M  V30 6841 H 657.248 -0.500497 -0.446927 0
M  V30 6842 H 659.792 -1.87477 -0.816871 0
M  V30 6843 H 657.947 -2.0377 -3.29479 0
M  V30 6844 H 658.361 -4.24146 -3.08546 0
M  V30 6845 H 659.835 -3.23815 -4.47043 0
M  V30 6846 H 660.312 -1.58364 -4.09656 0
M  V30 6847 H 660.918 -2.92036 -3.09185 0
M  V30 6848 N 659.233 0.902656 -1.29189 0
M  V30 6849 C 660.458 1.69167 -1.19989 0
M  V30 6850 C 660.883 1.86607 0.236495 0
M  V30 6851 O 660.241 1.38425 1.17082 0
M  V30 6852 C 660.289 3.05532 -1.91527 0
M  V30 6853 O 659.393 3.93621 -1.2303 0
M  V30 6854 H 658.734 0.517584 -0.415936 0
M  V30 6855 H 661.264 1.12785 -1.70706 0
M  V30 6856 H 661.274 3.55693 -1.99866 0
M  V30 6857 H 659.949 2.92156 -2.96003 0
M  V30 6858 H 658.526 3.52055 -1.22928 0
M  V30 6859 N 660.711 1.11618 1.11262 0
M  V30 6860 C 661.958 0.86618 1.8304 0
M  V30 6861 C 662.286 -0.608149 1.84748 0
M  V30 6862 O 661.541 -1.46508 1.29745 0
M  V30 6863 C 661.84 1.37529 3.2988 0
M  V30 6864 C 661.506 2.86317 3.4833 0
M  V30 6865 C 660.168 3.26945 3.53073 0
M  V30 6866 C 662.52 3.82136 3.54431 0
M  V30 6867 C 659.848 4.62117 3.61475 0
M  V30 6868 C 662.2 5.17128 3.64365 0
M  V30 6869 C 660.864 5.57312 3.67369 0
M  V30 6870 H 660.134 0.316958 0.66979 0
M  V30 6871 H 662.781 1.3949 1.31205 0
M  V30 6872 H 661.086 0.766842 3.84222 0
M  V30 6873 H 662.783 1.15817 3.83911 0
M  V30 6874 H 659.373 2.53889 3.45309 0
M  V30 6875 H 663.557 3.51847 3.50025 0
M  V30 6876 H 658.813 4.92655 3.62079 0
M  V30 6877 H 662.987 5.91208 3.68029 0
M  V30 6878 H 660.614 6.62045 3.73632 0
M  V30 6879 N 662.189 -1.289 0.906776 0
M  V30 6880 C 663.414 -1.99939 0.551303 0
M  V30 6881 C 663.839 -1.67366 -0.858496 0
M  V30 6882 O 663.197 -0.902176 -1.57259 0
M  V30 6883 C 663.245 -3.52523 0.758937 0
M  V30 6884 O 662.349 -4.11983 -0.185308 0
M  V30 6885 H 661.69 -0.628376 0.214568 0
M  V30 6886 H 664.22 -1.64225 1.2203 0
M  V30 6887 H 664.23 -4.02522 0.666329 0
M  V30 6888 H 662.905 -3.75566 1.78671 0
M  V30 6889 H 661.482 -3.72873 -0.0445577 0
M  V30 6890 N 663.667 -0.670007 -1.42649 0
M  V30 6891 C 664.614 0.0112928 -2.30797 0
M  V30 6892 C 665.584 0.797627 -1.45695 0
M  V30 6893 O 666.769 0.770845 -1.74535 0
M  V30 6894 C 663.909 0.95998 -3.31479 0
M  V30 6895 C 663.022 0.167975 -4.31673 0
M  V30 6896 C 662.157 1.11198 -5.19431 0
M  V30 6897 C 661.196 0.311381 -6.11307 0
M  V30 6898 N 660.333 1.20784 -6.91633 0
M  V30 6899 H 665.173 -0.746231 -2.88505 0
M  V30 6900 H 662.71 -0.379739 -1.42114 0
M  V30 6901 H 664.668 1.52379 -3.88377 0
M  V30 6902 H 663.298 1.68419 -2.75382 0
M  V30 6903 H 662.35 -0.512385 -3.76933 0
M  V30 6904 H 663.662 -0.453814 -4.96731 0
M  V30 6905 H 662.816 1.74587 -5.81037 0
M  V30 6906 H 661.555 1.76766 -4.54538 0
M  V30 6907 H 660.56 -0.335758 -5.48774 0
M  V30 6908 H 661.785 -0.340135 -6.78248 0
M  V30 6909 H 659.731 1.85001 -6.29373 0
M  V30 6910 H 659.648 0.64102 -7.53277 0
M  V30 6911 H 660.916 1.82936 -7.5773 0
M  V30 6912 N 665.145 1.52092 -0.413018 0
M  V30 6913 C 666.375 2.05974 0.160648 0
M  V30 6914 C 666.783 1.28267 1.39084 0
M  V30 6915 O 666.126 0.328805 1.80733 0
M  V30 6916 C 666.188 3.54918 0.572169 0
M  V30 6917 C 665.852 4.53705 -0.547826 0
M  V30 6918 C 666.849 5.00342 -1.41259 0
M  V30 6919 C 664.534 4.97089 -0.721627 0
M  V30 6920 C 666.528 5.89011 -2.43607 0
M  V30 6921 C 664.215 5.85554 -1.74841 0
M  V30 6922 C 665.213 6.3141 -2.60403 0
M  V30 6923 O 664.901 7.18123 -3.61323 0
M  V30 6924 H 664.633 0.675636 0.0221936 0
M  V30 6925 H 667.187 1.96931 -0.58373 0
M  V30 6926 H 665.417 3.61661 1.36889 0
M  V30 6927 H 667.106 3.91428 1.0742 0
M  V30 6928 H 667.872 4.67537 -1.28974 0
M  V30 6929 H 663.751 4.60954 -0.0652911 0
M  V30 6930 H 667.295 6.24725 -3.10425 0
M  V30 6931 H 663.192 6.17773 -1.87156 0
M  V30 6932 H 663.96 7.36244 -3.57613 0
M  V30 6933 N 666.623 0.143563 1.56945 0
M  V30 6934 C 667.869 -0.50916 1.96304 0
M  V30 6935 C 668.202 -1.64741 1.0283 0
M  V30 6936 O 667.477 -1.94374 0.0700361 0
M  V30 6937 C 667.76 -1.0186 3.45393 0
M  V30 6938 C 667.613 0.117923 4.49645 0
M  V30 6939 C 668.932 -1.90151 3.96901 0
M  V30 6940 H 666.051 -0.183608 0.713763 0
M  V30 6941 H 668.693 0.224095 1.88674 0
M  V30 6942 H 666.843 -1.64345 3.52027 0
M  V30 6943 H 668.515 0.754145 4.55094 0
M  V30 6944 H 666.758 0.777568 4.26774 0
M  V30 6945 H 667.429 -0.280187 5.51288 0
M  V30 6946 H 669.905 -1.375 3.92725 0
M  V30 6947 H 668.781 -2.22707 5.0169 0
M  V30 6948 H 669.042 -2.83718 3.39052 0
M  V30 6949 N 668.101 -1.57061 -0.130224 0
M  V30 6950 C 669.517 -1.52103 -0.483413 0
M  V30 6951 C 669.717 -0.854752 -1.82473 0
M  V30 6952 O 668.773 -0.432342 -2.48771 0
M  V30 6953 C 670.086 -2.96872 -0.47825 0
M  V30 6954 C 671.634 -3.07902 -0.562592 0
M  V30 6955 C 672.109 -4.54211 -0.587929 0
M  V30 6956 N 673.6 -4.58621 -0.649684 0
M  V30 6957 C 674.335 -5.69227 -0.690551 0
M  V30 6958 N 673.831 -6.89358 -0.689743 0
M  V30 6959 N 675.624 -5.57304 -0.732708 0
M  V30 6960 H 667.775 -1.98764 0.748779 0
M  V30 6961 H 670.038 -0.907248 0.274965 0
M  V30 6962 H 669.744 -3.48944 0.439444 0
M  V30 6963 H 669.618 -3.53716 -1.31013 0
M  V30 6964 H 672.005 -2.5584 -1.47071 0
M  V30 6965 H 672.086 -2.54073 0.296764 0
M  V30 6966 H 671.73 -5.06915 0.316096 0
M  V30 6967 H 671.66 -5.0584 -1.46401 0
M  V30 6968 H 674.151 -3.72146 -0.656927 0
M  V30 6969 H 674.464 -7.69408 -0.723239 0
M  V30 6970 H 672.809 -6.91884 -0.657347 0
M  V30 6971 H 676 -4.62363 -0.730625 0
M  V30 6972 H 676.173 -6.43515 -0.76109 0
M  V30 6973 N 669.579 0.400081 -1.52437 0
M  V30 6974 C 670.511 1.50729 -1.72666 0
M  V30 6975 C 671.524 1.51058 -0.607075 0
M  V30 6976 O 672.713 1.5516 -0.88248 0
M  V30 6977 C 669.813 2.89604 -1.76019 0
M  V30 6978 C 668.986 3.13365 -3.05157 0
M  V30 6979 C 668.045 4.32163 -3.00203 0
M  V30 6980 O 667.071 4.29004 -3.74092 0
M  V30 6981 N 668.273 5.3776 -2.18619 0
M  V30 6982 H 671.038 1.33767 -2.68191 0
M  V30 6983 H 668.599 0.58948 -1.50787 0
M  V30 6984 H 670.591 3.67159 -1.70225 0
M  V30 6985 H 669.161 2.99979 -0.879284 0
M  V30 6986 H 668.381 2.23774 -3.24529 0
M  V30 6987 H 669.669 3.26089 -3.90568 0
M  V30 6988 H 669.067 5.43177 -1.58035 0
M  V30 6989 H 667.624 6.14023 -2.18674 0
M  V30 6990 N 671.057 1.43213 0.657864 0
M  V30 6991 C 671.987 1.50815 1.78262 0
M  V30 6992 C 672.968 0.363211 1.66177 0
M  V30 6993 O 674.153 0.579806 1.85343 0
M  V30 6994 C 671.283 1.42625 3.16663 0
M  V30 6995 C 670.237 2.5532 3.43505 0
M  V30 6996 C 669.563 2.32184 4.81658 0
M  V30 6997 C 670.863 3.97583 3.38711 0
M  V30 6998 H 672.557 2.44954 1.72157 0
M  V30 6999 H 670.103 1.17896 0.82683 0
M  V30 7000 H 672.056 1.46548 3.95097 0
M  V30 7001 H 670.78 0.449877 3.23487 0
M  V30 7002 H 669.439 2.50742 2.6744 0
M  V30 7003 H 669.087 1.32801 4.85153 0
M  V30 7004 H 668.787 3.07724 5.00579 0
M  V30 7005 H 670.311 2.37883 5.62356 0
M  V30 7006 H 671.725 4.03673 4.07089 0
M  V30 7007 H 670.122 4.73112 3.69168 0
M  V30 7008 H 671.192 4.23049 2.36976 0
M  V30 7009 N 672.536 -0.895792 1.29666 0
M  V30 7010 C 673.446 -2.03329 1.17024 0
M  V30 7011 C 674.462 -1.73753 0.0925962 0
M  V30 7012 O 675.638 -1.99071 0.305431 0
M  V30 7013 C 672.703 -3.36072 0.851841 0
M  V30 7014 C 671.764 -3.7914 2.01373 0
M  V30 7015 C 670.997 -5.05549 1.71043 0
M  V30 7016 O 671.22 -5.66874 0.633213 0
M  V30 7017 O 670.154 -5.44764 2.5596 0
M  V30 7018 H 673.98 -2.16918 2.12556 0
M  V30 7019 H 671.565 -1.02007 1.09156 0
M  V30 7020 H 673.447 -4.15729 0.689006 0
M  V30 7021 H 672.122 -3.23616 -0.0736634 0
M  V30 7022 H 671.029 -3.00233 2.23183 0
M  V30 7023 H 672.362 -3.96186 2.92058 0
M  V30 7024 N 674.014 -1.12206 -1.10668 0
M  V30 7025 C 674.946 -0.74552 -2.16736 0
M  V30 7026 C 675.959 0.226696 -1.61214 0
M  V30 7027 O 677.148 0.0083936 -1.78498 0
M  V30 7028 C 674.248 -0.0823368 -3.388 0
M  V30 7029 C 673.421 -1.08341 -4.2377 0
M  V30 7030 C 672.48 -0.448292 -5.24287 0
M  V30 7031 O 671.506 -1.10458 -5.58379 0
M  V30 7032 N 672.708 0.785336 -5.75163 0
M  V30 7033 H 675.473 -1.65818 -2.49649 0
M  V30 7034 H 673.034 -1.01335 -1.26265 0
M  V30 7035 H 675.026 0.354476 -4.03145 0
M  V30 7036 H 673.596 0.733041 -3.03884 0
M  V30 7037 H 672.816 -1.69792 -3.55759 0
M  V30 7038 H 674.104 -1.76042 -4.77375 0
M  V30 7039 H 673.502 1.33755 -5.4966 0
M  V30 7040 H 672.059 1.16501 -6.41304 0
M  V30 7041 N 675.492 1.28418 -0.913599 0
M  V30 7042 C 676.722 1.98817 -0.56172 0
M  V30 7043 C 677.13 1.68457 0.861321 0
M  V30 7044 O 676.473 0.933653 1.58204 0
M  V30 7045 C 676.535 3.52801 -0.690785 0
M  V30 7046 C 676.199 4.0675 -2.08334 0
M  V30 7047 C 677.196 4.20597 -3.05604 0
M  V30 7048 C 674.881 4.41445 -2.39648 0
M  V30 7049 C 676.875 4.68392 -4.32305 0
M  V30 7050 C 674.562 4.88934 -3.66588 0
M  V30 7051 C 675.56 5.02364 -4.6273 0
M  V30 7052 O 675.248 5.48817 -5.87414 0
M  V30 7053 H 674.98 0.641608 -0.212874 0
M  V30 7054 H 677.534 1.64584 -1.22887 0
M  V30 7055 H 675.764 3.86686 0.0334336 0
M  V30 7056 H 677.453 4.04422 -0.346031 0
M  V30 7057 H 678.219 3.94067 -2.8273 0
M  V30 7058 H 674.098 4.30242 -1.65567 0
M  V30 7059 H 677.642 4.7879 -5.07352 0
M  V30 7060 H 673.539 5.14904 -3.89287 0
M  V30 7061 H 674.307 5.67103 -5.90201 0
M  V30 7062 N 676.97 0.677563 1.42291 0
M  V30 7063 C 678.217 0.200975 2.015 0
M  V30 7064 C 678.545 -1.19342 1.53583 0
M  V30 7065 O 677.8 -1.81579 0.7299 0
M  V30 7066 C 678.099 0.187229 3.56909 0
M  V30 7067 C 677.765 1.52667 4.24268 0
M  V30 7068 C 676.427 1.89341 4.42384 0
M  V30 7069 C 678.779 2.40869 4.62203 0
M  V30 7070 C 676.107 3.13836 4.95705 0
M  V30 7071 C 678.459 3.64679 5.16906 0
M  V30 7072 C 677.123 4.01519 5.33234 0
M  V30 7073 H 676.393 0.0735418 0.737342 0
M  V30 7074 H 679.04 0.873095 1.70439 0
M  V30 7075 H 677.345 -0.568407 3.87655 0
M  V30 7076 H 679.042 -0.198773 4.00507 0
M  V30 7077 H 675.632 1.23138 4.1053 0
M  V30 7078 H 679.816 2.1382 4.47878 0
M  V30 7079 H 675.072 3.42396 5.06532 0
M  V30 7080 H 679.246 4.33224 5.45243 0
M  V30 7081 H 676.873 4.98062 5.74316 0
M  V30 7082 N 678.448 -1.51871 0.421078 0
M  V30 7083 C 679.725 -1.9447 -0.20993 0
M  V30 7084 C 680.105 -1.35875 -1.61558 0
M  V30 7085 O 679.453 -0.539294 -2.22045 0
M  V30 7086 C 679.663 -3.48402 -0.204165 0
M  V30 7087 C 681.011 -4.2254 -0.417696 0
M  V30 7088 O 682.035 -3.55074 -0.282999 0
M  V30 7089 O 680.894 -5.422 -0.684239 0
M  V30 7090 H 677.988 -0.815283 -0.138718 0
M  V30 7091 H 680.534 -1.62832 0.477884 0
M  V30 7092 H 679.306 -3.83464 0.779183 0
M  V30 7093 H 678.929 -3.86436 -0.935576 0
M  V30 7094 N 679.926 -0.151884 -1.56866 0
M  V30 7095 C 680.874 0.80299 -2.183 0
M  V30 7096 C 681.868 1.25174 -1.14139 0
M  V30 7097 O 683.074 1.21966 -1.3238 0
M  V30 7098 H 679.449 0.277169 -0.699057 0
M  V30 7099 H 681.42 0.260699 -2.97259 0
M  V30 7100 C 680.169 2.03009 -2.82281 0
M  V30 7101 H 679.492 1.69377 -3.62148 0
M  V30 7102 H 680.932 2.67753 -3.28762 0
M  V30 7103 C 679.391 2.84123 -1.81041 0
M  V30 7104 O 679.921 3.8063 -1.28388 0
M  V30 7105 N 678.127 2.48753 -1.50234 0
M  V30 7106 H 677.674 1.70337 -1.93244 0
M  V30 7107 H 677.632 3.03316 -0.827445 0
M  V30 7108 N 681.404 1.57128 0.121893 0
M  V30 7109 C 682.651 1.847 0.830188 0
M  V30 7110 C 682.979 0.736543 1.80015 0
M  V30 7111 O 682.234 -0.272358 1.93796 0
M  V30 7112 C 682.533 3.1874 1.61677 0
M  V30 7113 C 682.199 4.43901 0.791361 0
M  V30 7114 C 680.861 4.77887 0.563731 0
M  V30 7115 C 683.213 5.20753 0.215823 0
M  V30 7116 C 680.541 5.86168 -0.249737 0
M  V30 7117 C 682.893 6.29891 -0.584821 0
M  V30 7118 C 681.557 6.6241 -0.822794 0
M  V30 7119 H 680.827 0.675866 0.303787 0
M  V30 7120 H 683.474 1.91276 0.0926894 0
M  V30 7121 H 681.779 3.07728 2.42509 0
M  V30 7122 H 683.476 3.37295 2.16872 0
M  V30 7123 H 680.066 4.17272 0.978867 0
M  V30 7124 H 684.25 4.94851 0.378907 0
M  V30 7125 H 679.506 6.0979 -0.44336 0
M  V30 7126 H 683.68 6.88624 -1.03779 0
M  V30 7127 H 681.307 7.46147 -1.45496 0
M  V30 7128 N 682.882 -0.391992 1.52647 0
M  V30 7129 C 684.159 -1.15136 1.58123 0
M  V30 7130 C 684.539 -2.07786 0.372597 0
M  V30 7131 O 683.887 -2.19374 -0.639304 0
M  V30 7132 C 684.097 -1.91367 2.91856 0
M  V30 7133 C 685.445 -2.46833 3.45483 0
M  V30 7134 O 686.469 -2.01527 2.9371 0
M  V30 7135 O 685.328 -3.29587 4.3593 0
M  V30 7136 H 682.422 -0.526649 0.637629 0
M  V30 7137 H 684.968 -0.397386 1.64982 0
M  V30 7138 H 683.74 -1.23597 3.71268 0
M  V30 7139 H 683.363 -2.73732 2.88369 0
M  V30 7140 N 684.36 -1.4356 -0.65026 0
M  V30 7141 C 685.292 -1.44918 -1.77571 0
M  V30 7142 C 686.305 -0.344925 -1.59104 0
M  V30 7143 O 687.494 -0.609537 -1.6777 0
M  V30 7144 C 684.594 -1.24914 -3.15039 0
M  V30 7145 C 683.767 -2.48232 -3.60138 0
M  V30 7146 C 682.826 -2.23409 -4.76419 0
M  V30 7147 O 681.852 -2.9678 -4.85706 0
M  V30 7148 N 683.054 -1.25259 -5.66825 0
M  V30 7149 H 685.819 -2.41935 -1.76883 0
M  V30 7150 H 683.38 -1.38754 -0.834202 0
M  V30 7151 H 685.372 -1.06185 -3.90521 0
M  V30 7152 H 683.942 -0.363319 -3.10481 0
M  V30 7153 H 683.162 -2.82366 -2.75069 0
M  V30 7154 H 684.45 -3.30296 -3.87017 0
M  V30 7155 H 683.848 -0.646246 -5.61997 0
M  V30 7156 H 682.405 -1.12513 -6.42016 0
M  V30 7157 N 685.838 0.888903 -1.30139 0
M  V30 7158 C 687.115 1.62145 -1.094 0
M  V30 7159 C 687.495 2.08041 0.358091 0
M  V30 7160 O 686.843 1.84438 1.34888 0
M  V30 7161 C 687.053 2.794 -2.09133 0
M  V30 7162 C 688.401 3.49826 -2.40638 0
M  V30 7163 O 689.425 2.89583 -2.07412 0
M  V30 7164 O 688.284 4.58457 -2.97455 0
M  V30 7165 H 685.378 0.712475 -0.41989 0
M  V30 7166 H 687.924 0.936023 -1.41551 0
M  V30 7167 H 686.696 2.42762 -3.06891 0
M  V30 7168 H 686.319 3.55643 -1.77776 0
M  V30 7169 N 687.317 1.12792 1.10072 0
M  V30 7170 C 688.564 0.885545 1.82111 0
M  V30 7171 C 688.892 -0.588519 1.85383 0
M  V30 7172 O 688.147 -1.45124 1.31292 0
M  V30 7173 C 688.446 1.4102 3.28403 0
M  V30 7174 C 688.112 2.89995 3.45273 0
M  V30 7175 C 686.774 3.30671 3.49585 0
M  V30 7176 C 689.126 3.85874 3.50358 0
M  V30 7177 C 686.454 4.65925 3.56553 0
M  V30 7178 C 688.806 5.20963 3.58859 0
M  V30 7179 C 687.47 5.61177 3.61437 0
M  V30 7180 H 686.74 0.324044 0.666391 0
M  V30 7181 H 689.387 1.40874 1.29718 0
M  V30 7182 H 687.692 0.807551 3.83387 0
M  V30 7183 H 689.389 1.19882 3.82661 0
M  V30 7184 H 685.979 2.57537 3.42597 0
M  V30 7185 H 690.163 3.5554 3.46273 0
M  V30 7186 H 685.419 4.96468 3.56833 0
M  V30 7187 H 689.593 5.95079 3.61738 0
M  V30 7188 H 687.22 6.6597 3.66589 0
M  V30 7189 N 688.795 -1.27931 0.920396 0
M  V30 7190 C 689.725 -2.29487 0.431024 0
M  V30 7191 C 690.706 -1.62435 -0.504861 0
M  V30 7192 O 691.891 -1.89797 -0.411176 0
M  V30 7193 C 689.021 -3.45788 -0.323709 0
M  V30 7194 C 687.975 -4.24784 0.523658 0
M  V30 7195 C 687.301 -5.33488 -0.359809 0
M  V30 7196 C 688.601 -4.90874 1.78437 0
M  V30 7197 H 690.295 -2.70671 1.27975 0
M  V30 7198 H 687.841 -1.30121 0.616813 0
M  V30 7199 H 689.794 -4.15927 -0.676952 0
M  V30 7200 H 688.518 -3.03502 -1.2064 0
M  V30 7201 H 687.177 -3.56382 0.85951 0
M  V30 7202 H 686.825 -4.87445 -1.24124 0
M  V30 7203 H 686.525 -5.87247 0.203605 0
M  V30 7204 H 688.049 -6.06472 -0.708787 0
M  V30 7205 H 689.463 -5.53339 1.49963 0
M  V30 7206 H 687.86 -5.54659 2.29071 0
M  V30 7207 H 688.93 -4.14988 2.50824 0
M  V30 7208 N 690.273 -0.685099 -1.4193 0
M  V30 7209 C 691.498 -0.218842 -2.06242 0
M  V30 7210 C 691.923 1.11923 -1.51178 0
M  V30 7211 O 691.281 1.69837 -0.634446 0
M  V30 7212 C 691.329 -0.175592 -3.60172 0
M  V30 7213 O 690.433 0.852776 -4.03487 0
M  V30 7214 H 689.774 -0.109531 -0.654904 0
M  V30 7215 H 692.304 -0.937013 -1.81882 0
M  V30 7216 H 692.314 -0.00291151 -4.08 0
M  V30 7217 H 690.989 -1.15222 -3.99621 0
M  V30 7218 H 689.566 0.650301 -3.67186 0
M  V30 7219 N 691.751 1.51645 -0.429126 0
M  V30 7220 C 692.681 2.30434 0.377148 0
M  V30 7221 C 693.662 1.35493 1.02838 0
M  V30 7222 O 694.847 1.6441 1.03359 0
M  V30 7223 C 691.977 3.14038 1.48315 0
M  V30 7224 C 690.931 4.1719 0.955855 0
M  V30 7225 C 690.257 4.89263 2.15698 0
M  V30 7226 C 691.557 5.223 -0.00402136 0
M  V30 7227 H 693.251 2.98085 -0.280336 0
M  V30 7228 H 690.797 1.43354 -0.136265 0
M  V30 7229 H 692.75 3.67933 2.05435 0
M  V30 7230 H 691.474 2.44193 2.16881 0
M  V30 7231 H 690.133 3.64335 0.406929 0
M  V30 7232 H 689.781 4.15929 2.82864 0
M  V30 7233 H 689.481 5.59009 1.81059 0
M  V30 7234 H 691.005 5.45978 2.73387 0
M  V30 7235 H 692.419 5.71315 0.476607 0
M  V30 7236 H 690.816 5.99525 -0.26258 0
M  V30 7237 H 691.886 4.75638 -0.943236 0
M  V30 7238 N 693.229 0.160201 1.56784 0
M  V30 7239 C 694.645 -0.196089 1.58391 0
M  V30 7240 C 694.845 -1.63689 1.17508 0
M  V30 7241 O 693.901 -2.36613 0.881506 0
M  V30 7242 C 695.214 0.0746449 3.00607 0
M  V30 7243 C 696.762 0.0119762 3.12998 0
M  V30 7244 C 697.237 0.255551 4.57286 0
M  V30 7245 N 698.728 0.202938 4.62755 0
M  V30 7246 C 699.463 0.365731 5.72232 0
M  V30 7247 N 698.959 0.586972 6.90309 0
M  V30 7248 N 700.752 0.302411 5.61286 0
M  V30 7249 H 692.903 1.1008 1.81648 0
M  V30 7250 H 695.166 0.436779 0.841384 0
M  V30 7251 H 694.872 1.07231 3.34954 0
M  V30 7252 H 694.746 -0.638802 3.71751 0
M  V30 7253 H 697.133 -0.976254 2.78484 0
M  V30 7254 H 697.214 0.75796 2.44313 0
M  V30 7255 H 696.858 1.24094 4.92507 0
M  V30 7256 H 696.788 -0.510912 5.24116 0
M  V30 7257 H 699.279 0.0371328 3.77882 0
M  V30 7258 H 699.592 0.700941 7.69615 0
M  V30 7259 H 697.937 0.623453 6.92198 0
M  V30 7260 H 701.128 0.130238 4.67919 0
M  V30 7261 H 701.301 0.432712 6.46554 0
M  V30 7262 N 694.707 -1.5719 -0.113559 0
M  V30 7263 C 695.639 -1.97393 -1.16484 0
M  V30 7264 C 696.652 -0.873964 -1.37352 0
M  V30 7265 O 697.841 -1.15222 -1.36331 0
M  V30 7266 C 694.941 -2.26174 -2.52386 0
M  V30 7267 C 694.114 -3.57479 -2.52046 0
M  V30 7268 C 693.173 -3.74409 -3.69735 0
M  V30 7269 O 692.199 -4.46463 -3.53071 0
M  V30 7270 N 693.401 -3.13588 -4.88511 0
M  V30 7271 H 696.166 -2.88184 -0.822814 0
M  V30 7272 H 693.727 -1.59044 -0.302769 0
M  V30 7273 H 695.719 -2.3471 -3.29687 0
M  V30 7274 H 694.289 -1.41483 -2.7875 0
M  V30 7275 H 693.509 -3.60081 -1.60421 0
M  V30 7276 H 694.797 -4.43775 -2.48881 0
M  V30 7277 H 694.195 -2.55026 -5.04953 0
M  V30 7278 H 692.752 -3.27637 -5.63469 0
M  V30 7279 N 696.185 0.383891 -1.52853 0
M  V30 7280 C 697.132 1.46924 -1.77995 0
M  V30 7281 C 698.102 1.53958 -0.623396 0
M  V30 7282 O 699.287 1.70134 -0.863657 0
M  V30 7283 C 696.427 2.84093 -1.95921 0
M  V30 7284 C 695.54 2.86171 -3.23621 0
M  V30 7285 C 694.675 4.14799 -3.31836 0
M  V30 7286 C 693.714 4.10948 -4.53639 0
M  V30 7287 N 692.851 5.31192 -4.59107 0
M  V30 7288 H 697.691 1.24786 -2.70615 0
M  V30 7289 H 695.228 0.605265 -1.34071 0
M  V30 7290 H 697.186 3.63755 -2.04299 0
M  V30 7291 H 695.816 3.04671 -1.06656 0
M  V30 7292 H 694.868 1.9885 -3.24288 0
M  V30 7293 H 696.18 2.79194 -4.13343 0
M  V30 7294 H 695.334 5.02867 -3.39425 0
M  V30 7295 H 694.073 4.24505 -2.40097 0
M  V30 7296 H 693.078 3.21268 -4.46169 0
M  V30 7297 H 694.303 4.0286 -5.467 0
M  V30 7298 H 692.249 5.41518 -3.70262 0
M  V30 7299 H 692.166 5.26311 -5.42708 0
M  V30 7300 H 693.434 6.21143 -4.70958 0
M  V30 7301 N 697.663 1.43903 0.642637 0
M  V30 7302 C 698.912 1.45362 1.39831 0
M  V30 7303 C 699.225 0.0856289 1.95412 0
M  V30 7304 O 700.431 -0.0222856 2.71491 0
M  V30 7305 C 698.887 2.55857 2.53111 0
M  V30 7306 C 698.495 3.98811 2.04092 0
M  V30 7307 C 700.239 2.66524 3.30402 0
M  V30 7308 C 698.146 5.00751 3.14647 0
M  V30 7309 H 697.076 0.540777 0.52543 0
M  V30 7310 H 699.727 1.69929 0.692559 0
M  V30 7311 H 698.109 2.2451 3.26207 0
M  V30 7312 H 699.283 4.3967 1.37938 0
M  V30 7313 H 697.598 3.92284 1.39651 0
M  V30 7314 H 700.195 3.39858 4.12796 0
M  V30 7315 H 700.538 1.71949 3.79129 0
M  V30 7316 H 701.071 2.97224 2.64392 0
M  V30 7317 H 697.81 5.96914 2.70876 0
M  V30 7318 H 697.33 4.64495 3.79479 0
M  V30 7319 H 699.009 5.23933 3.79609 0
M  V30 7320 N 699.141 -0.881989 1.30609 0
M  V30 7321 C 700.366 -1.67236 1.22665 0
M  V30 7322 C 700.791 -1.8696 -0.206777 0
M  V30 7323 O 700.149 -1.4027 -1.14865 0
M  V30 7324 C 700.197 -3.02446 1.96363 0
M  V30 7325 O 699.301 -3.91614 1.29276 0
M  V30 7326 H 698.642 -0.510902 0.424117 0
M  V30 7327 H 701.172 -1.10055 1.72479 0
M  V30 7328 H 701.182 -3.52468 2.055 0
M  V30 7329 H 699.857 -2.8741 3.00613 0
M  V30 7330 H 698.434 -3.50055 1.28514 0
M  V30 7331 N 700.619 -1.13374 -1.09472 0
M  V30 7332 C 701.896 -0.806329 -1.78207 0
M  V30 7333 C 702.276 0.702191 -1.99079 0
M  V30 7334 O 701.624 1.63931 -1.59182 0
M  V30 7335 C 701.834 -1.59271 -3.10538 0
M  V30 7336 C 703.182 -1.78509 -3.85253 0
M  V30 7337 O 704.206 -1.55866 -3.20288 0
M  V30 7338 O 703.065 -2.16287 -5.01879 0
M  V30 7339 H 700.159 -0.29435 -0.772843 0
M  V30 7340 H 702.705 -1.23833 -1.16033 0
M  V30 7341 H 701.477 -2.61792 -2.90828 0
M  V30 7342 H 701.1 -1.15562 -3.80436 0
M  V30 7343 N 702.098 1.27442 -0.927168 0
M  V30 7344 C 703.347 1.93679 -0.563146 0
M  V30 7345 C 703.66 1.73673 0.899837 0
M  V30 7346 O 704.866 2.34247 1.37262 0
M  V30 7347 C 703.322 3.46961 -0.95636 0
M  V30 7348 C 702.93 3.75724 -2.43999 0
M  V30 7349 C 704.674 4.19282 -0.663565 0
M  V30 7350 C 702.581 5.22378 -2.77263 0
M  V30 7351 H 701.511 0.725059 -0.206894 0
M  V30 7352 H 704.162 1.44743 -1.12791 0
M  V30 7353 H 702.544 3.94703 -0.320254 0
M  V30 7354 H 703.718 3.38741 -3.12396 0
M  V30 7355 H 702.033 3.16605 -2.70463 0
M  V30 7356 H 704.63 5.27265 -0.888596 0
M  V30 7357 H 704.973 4.14382 0.399198 0
M  V30 7358 H 705.506 3.7736 -1.25875 0
M  V30 7359 H 702.245 5.32367 -3.82446 0
M  V30 7360 H 701.765 5.6051 -2.13516 0
M  V30 7361 H 703.444 5.9025 -2.64979 0
M  V30 7362 N 703.576 0.692616 1.41565 0
M  V30 7363 C 704.506 0.0397325 2.33466 0
M  V30 7364 C 705.487 -0.770334 1.51657 0
M  V30 7365 O 706.672 -0.723903 1.80203 0
M  V30 7366 C 703.802 -0.899495 3.3545 0
M  V30 7367 C 702.756 -0.196738 4.27548 0
M  V30 7368 C 702.082 -1.25012 5.19881 0
M  V30 7369 C 703.382 0.935158 5.1386 0
M  V30 7370 H 705.076 0.807296 2.88311 0
M  V30 7371 H 702.622 0.389665 1.38628 0
M  V30 7372 H 704.575 -1.36545 3.98665 0
M  V30 7373 H 703.299 -1.69869 2.78948 0
M  V30 7374 H 701.958 0.249158 3.65752 0
M  V30 7375 H 701.606 -2.04177 4.59696 0
M  V30 7376 H 701.306 -0.784931 5.82334 0
M  V30 7377 H 702.83 -1.71665 5.85972 0
M  V30 7378 H 704.244 0.549619 5.70659 0
M  V30 7379 H 702.641 1.32726 5.85238 0
M  V30 7380 H 703.711 1.77613 4.512 0
M  V30 7381 N 705.054 -1.51416 0.437162 0
M  V30 7382 C 705.986 -2.255 -0.410171 0
M  V30 7383 C 706.999 -1.29511 -0.986444 0
M  V30 7384 O 708.188 -1.55266 -0.880614 0
M  V30 7385 C 705.288 -2.99511 -1.58575 0
M  V30 7386 C 704.461 -4.22595 -1.12839 0
M  V30 7387 C 703.52 -4.79187 -2.17407 0
M  V30 7388 O 702.546 -5.4103 -1.76849 0
M  V30 7389 N 703.748 -4.63204 -3.49889 0
M  V30 7390 H 706.513 -2.98856 0.224783 0
M  V30 7391 H 704.074 -1.59699 0.266041 0
M  V30 7392 H 706.066 -3.34258 -2.28152 0
M  V30 7393 H 704.636 -2.29167 -2.12606 0
M  V30 7394 H 703.856 -3.93344 -0.259695 0
M  V30 7395 H 705.144 -5.02468 -0.800196 0
M  V30 7396 H 704.542 -4.13945 -3.85573 0
M  V30 7397 H 703.099 -5.02313 -4.15361 0
M  V30 7398 N 706.532 -0.168513 -1.56696 0
M  V30 7399 C 707.464 0.794249 -2.14998 0
M  V30 7400 C 708.477 1.1957 -1.10485 0
M  V30 7401 O 709.666 1.13604 -1.37682 0
M  V30 7402 C 706.766 2.08018 -2.67547 0
M  V30 7403 C 705.939 1.84274 -3.96689 0
M  V30 7404 C 704.998 2.97059 -4.3433 0
M  V30 7405 O 704.024 2.67815 -5.02259 0
M  V30 7406 N 705.226 4.24775 -3.9566 0
M  V30 7407 H 707.991 0.295832 -2.98236 0
M  V30 7408 H 705.552 0.0143611 -1.61894 0
M  V30 7409 H 707.544 2.82559 -2.89729 0
M  V30 7410 H 706.114 2.49059 -1.88914 0
M  V30 7411 H 705.334 0.936528 -3.82914 0
M  V30 7412 H 706.622 1.65773 -4.81037 0
M  V30 7413 H 706.02 4.51395 -3.40968 0
M  V30 7414 H 704.577 4.96027 -4.22848 0
M  V30 7415 N 708.01 1.57248 0.105221 0
M  V30 7416 C 708.92 2.04653 1.14693 0
M  V30 7417 C 709.936 0.969488 1.44489 0
M  V30 7418 O 711.112 1.28196 1.55331 0
M  V30 7419 C 708.177 2.45297 2.45011 0
M  V30 7420 C 707.238 3.67148 2.22489 0
M  V30 7421 C 706.471 4.05844 3.46592 0
M  V30 7422 O 706.694 3.44736 4.54437 0
M  V30 7423 O 705.628 4.98862 3.36779 0
M  V30 7424 H 709.454 2.93663 0.774336 0
M  V30 7425 H 707.039 1.45998 0.31701 0
M  V30 7426 H 708.921 2.72112 3.21766 0
M  V30 7427 H 707.596 1.59429 2.81717 0
M  V30 7428 H 706.503 3.45463 1.43547 0
M  V30 7429 H 707.836 4.53764 1.9068 0
M  V30 7430 N 709.488 -0.375779 1.53054 0
M  V30 7431 C 710.713 -1.14484 1.7294 0
M  V30 7432 C 711.138 -1.82572 0.452668 0
M  V30 7433 O 710.496 -1.71343 -0.592567 0
M  V30 7434 C 710.544 -2.15857 2.88857 0
M  V30 7435 O 709.648 -3.22725 2.56753 0
M  V30 7436 H 708.989 -0.332666 0.574656 0
M  V30 7437 H 711.519 -0.436025 1.999 0
M  V30 7438 H 711.529 -2.59631 3.14731 0
M  V30 7439 H 710.204 -1.65689 3.81471 0
M  V30 7440 H 708.781 -2.83996 2.41663 0
M  V30 7441 N 710.966 -1.44241 -0.634997 0
M  V30 7442 C 712.243 -1.37296 -1.39317 0
M  V30 7443 C 712.623 -0.0297532 -2.11079 0
M  V30 7444 O 711.971 0.987524 -2.06059 0
M  V30 7445 C 712.181 -2.56853 -2.36279 0
M  V30 7446 C 713.529 -3.00747 -2.99728 0
M  V30 7447 O 714.553 -2.5703 -2.46605 0
M  V30 7448 O 713.412 -3.76533 -3.96087 0
M  V30 7449 H 710.506 -0.543503 -0.623325 0
M  V30 7450 H 713.052 -1.56324 -0.660376 0
M  V30 7451 H 711.824 -3.46228 -1.82324 0
M  V30 7452 H 711.447 -2.40019 -3.16981 0
M  V30 7453 N 712.444 0.87505 -1.31075 0
M  V30 7454 C 713.374 1.99775 -1.20881 0
M  V30 7455 C 714.355 1.69822 -0.0971612 0
M  V30 7456 O 715.54 1.92158 -0.280895 0
M  V30 7457 C 712.67 3.35163 -0.910118 0
M  V30 7458 C 711.624 3.79406 -1.98078 0
M  V30 7459 C 710.95 5.12197 -1.53488 0
M  V30 7460 C 712.25 3.97061 -3.39323 0
M  V30 7461 H 713.944 2.08562 -2.14808 0
M  V30 7462 H 711.49 1.00207 -1.03415 0
M  V30 7463 H 713.443 4.13237 -0.825423 0
M  V30 7464 H 712.167 3.26536 0.064822 0
M  V30 7465 H 710.826 3.03568 -2.05528 0
M  V30 7466 H 710.474 5.00007 -0.547941 0
M  V30 7467 H 710.174 5.4277 -2.2511 0
M  V30 7468 H 711.698 5.92785 -1.46417 0
M  V30 7469 H 713.112 4.65545 -3.34576 0
M  V30 7470 H 711.509 4.39025 -4.09118 0
M  V30 7471 H 712.579 3.00601 -3.80483 0
M  V30 7472 N 713.922 1.13953 1.08869 0
M  V30 7473 C 714.87 0.817664 2.17754 0
M  V30 7474 C 715.864 -0.202444 1.68186 0
M  V30 7475 O 717.07 -0.0590159 1.79903 0
M  V30 7476 H 713.445 0.246671 0.710392 0
M  V30 7477 H 715.416 1.74401 2.4213 0
M  V30 7478 C 714.165 0.3063 3.46348 0
M  V30 7479 H 713.488 1.08259 3.84864 0
M  V30 7480 H 714.928 0.119584 4.23831 0
M  V30 7481 C 713.387 -0.969158 3.22659 0
M  V30 7482 O 713.917 -2.04386 3.45817 0
M  V30 7483 N 712.123 -0.902516 2.7623 0
M  V30 7484 H 711.67 -0.027801 2.57585 0
M  V30 7485 H 711.628 -1.75649 2.60758 0
M  V30 7486 N 715.4 -1.26948 0.933913 0
M  V30 7487 C 716.677 -1.89212 0.495784 0
M  V30 7488 C 717.057 -1.84469 -1.02637 0
M  V30 7489 O 716.405 -1.29409 -1.88323 0
M  V30 7490 C 716.615 -3.32865 1.0489 0
M  V30 7491 C 717.963 -4.09749 1.11315 0
M  V30 7492 O 718.987 -3.41905 0.998966 0
M  V30 7493 O 717.846 -5.31061 1.28983 0
M  V30 7494 H 714.94 -0.811284 0.160459 0
M  V30 7495 H 717.486 -1.35171 1.02601 0
M  V30 7496 H 716.258 -3.30642 2.09265 0
M  V30 7497 H 715.881 -3.94435 0.500692 0
M  V30 7498 N 716.879 -0.700114 -1.41195 0
M  V30 7499 C 718.128 -0.230082 -2.00383 0
M  V30 7500 C 718.441 1.17857 -1.56106 0
M  V30 7501 O 719.647 1.74631 -2.07885 0
M  V30 7502 C 718.103 -0.360447 -3.5809 0
M  V30 7503 C 717.711 -1.77475 -4.11347 0
M  V30 7504 C 719.455 0.0495799 -4.24471 0
M  V30 7505 C 717.362 -1.85653 -5.61504 0
M  V30 7506 H 716.292 -0.0822633 -0.749499 0
M  V30 7507 H 718.943 -0.868969 -1.6162 0
M  V30 7508 H 717.325 0.346768 -3.94479 0
M  V30 7509 H 718.499 -2.51109 -3.86369 0
M  V30 7510 H 716.814 -2.13486 -3.57509 0
M  V30 7511 H 719.411 0.00898219 -5.34699 0
M  V30 7512 H 719.754 1.08904 -4.01803 0
M  V30 7513 H 720.287 -0.607521 -3.93134 0
M  V30 7514 H 717.026 -2.87667 -5.89006 0
M  V30 7515 H 716.546 -1.1641 -5.88395 0
M  V30 7516 H 718.225 -1.62151 -6.26351 0
M  V30 7517 N 718.357 1.51182 -0.445186 0
M  V30 7518 C 719.603 2.02452 0.11882 0
M  V30 7519 C 719.936 1.32824 1.41673 0
M  V30 7520 O 719.211 0.445637 1.89326 0
M  V30 7521 C 719.494 3.5859 0.329475 0
M  V30 7522 C 719.347 4.38823 -0.987638 0
M  V30 7523 C 720.666 4.26241 1.09575 0
M  V30 7524 H 717.785 0.735819 0.0417092 0
M  V30 7525 H 720.427 1.80747 -0.585718 0
M  V30 7526 H 718.577 3.77214 0.9296 0
M  V30 7527 H 720.249 4.3183 -1.62235 0
M  V30 7528 H 718.492 4.03594 -1.59041 0
M  V30 7529 H 719.163 5.46257 -0.794192 0
M  V30 7530 H 721.639 4.11934 0.587328 0
M  V30 7531 H 720.515 5.35354 1.21191 0
M  V30 7532 H 720.776 3.87635 2.12584 0
M  V30 7533 N 719.835 0.176821 1.56605 0
M  V30 7534 C 720.767 -0.782836 2.15417 0
M  V30 7535 C 721.78 -1.18982 1.11117 0
M  V30 7536 O 722.969 -1.12872 1.38283 0
M  V30 7537 C 720.069 -2.06596 2.68647 0
M  V30 7538 C 719.242 -1.82167 3.9766 0
M  V30 7539 C 718.301 -2.94751 4.35899 0
M  V30 7540 O 717.327 -2.65148 5.03672 0
M  V30 7541 N 718.529 -4.2267 3.97907 0
M  V30 7542 H 721.294 -0.280012 2.98389 0
M  V30 7543 H 718.855 -0.00577529 1.61899 0
M  V30 7544 H 720.847 -2.81018 2.91223 0
M  V30 7545 H 719.417 -2.48054 1.90232 0
M  V30 7546 H 718.637 -0.916208 3.83405 0
M  V30 7547 H 719.925 -1.6322 4.81909 0
M  V30 7548 H 719.323 -4.4958 3.43357 0
M  V30 7549 H 717.88 -4.93778 4.25472 0
M  V30 7550 N 721.313 -1.57302 -0.09688 0
M  V30 7551 C 722.243 -2.0497 -1.11846 0
M  V30 7552 C 723.224 -0.938278 -1.41882 0
M  V30 7553 O 724.409 -1.20943 -1.51942 0
M  V30 7554 C 721.539 -2.47264 -2.43881 0
M  V30 7555 C 720.493 -3.62053 -2.28257 0
M  V30 7556 C 719.819 -3.90318 -3.65453 0
M  V30 7557 C 721.119 -4.93005 -1.72461 0
M  V30 7558 H 722.813 -2.90567 -0.721888 0
M  V30 7559 H 720.359 -1.39786 -0.345803 0
M  V30 7560 H 722.312 -2.7922 -3.15617 0
M  V30 7561 H 721.036 -1.58664 -2.8547 0
M  V30 7562 H 719.695 -3.30341 -1.58967 0
M  V30 7563 H 719.343 -2.98889 -4.04567 0
M  V30 7564 H 719.043 -4.67597 -3.55846 0
M  V30 7565 H 720.567 -4.24747 -4.3866 0
M  V30 7566 H 721.981 -5.23354 -2.34036 0
M  V30 7567 H 720.378 -5.74436 -1.73618 0
M  V30 7568 H 721.448 -4.80053 -0.683898 0
M  V30 7569 N 722.791 0.367657 -1.53252 0
M  V30 7570 C 724.037 1.11216 -1.69584 0
M  V30 7571 C 724.37 1.89026 -0.445269 0
M  V30 7572 O 723.645 1.86342 0.557404 0
M  V30 7573 C 723.928 2.07308 -2.94441 0
M  V30 7574 C 723.781 1.3312 -4.2965 0
M  V30 7575 C 725.1 3.07459 -3.14892 0
M  V30 7576 H 722.219 0.40294 -0.617096 0
M  V30 7577 H 724.861 0.393201 -1.85887 0
M  V30 7578 H 723.011 2.68617 -2.80673 0
M  V30 7579 H 724.683 0.746111 -4.55226 0
M  V30 7580 H 722.926 0.633051 -4.29156 0
M  V30 7581 H 723.597 2.03443 -5.13142 0
M  V30 7582 H 726.073 2.56252 -3.27832 0
M  V30 7583 H 724.949 3.71919 -4.03693 0
M  V30 7584 H 725.21 3.77514 -2.30077 0
M  V30 7585 N 724.269 1.44576 0.627338 0
M  V30 7586 C 725.517 1.47267 1.38408 0
M  V30 7587 C 725.838 0.107971 1.94701 0
M  V30 7588 O 725.108 -0.860206 1.76004 0
M  V30 7589 H 723.688 0.542276 0.513756 0
M  V30 7590 H 726.35 1.80383 0.738099 0
M  V30 7591 H 725.446 2.20025 2.21349 0
M  V30 7592 N 725.747 -0.868086 1.31537 0
M  V30 7593 C 726.694 -1.97548 1.19346 0
M  V30 7594 C 727.664 -1.65913 0.0787922 0
M  V30 7595 O 728.849 -1.89129 0.251985 0
M  V30 7596 C 725.989 -3.32922 0.908692 0
M  V30 7597 C 725.102 -3.77141 2.10687 0
M  V30 7598 C 724.237 -5.01241 1.75873 0
M  V30 7599 C 723.276 -5.37914 2.92088 0
M  V30 7600 N 722.413 -6.53192 2.57457 0
M  V30 7601 H 727.253 -2.07307 2.14074 0
M  V30 7602 H 724.79 -1.01483 1.06487 0
M  V30 7603 H 726.748 -4.10867 0.724138 0
M  V30 7604 H 725.378 -3.228 -0.0017611 0
M  V30 7605 H 724.43 -2.94961 2.40213 0
M  V30 7606 H 725.742 -4.00248 2.97663 0
M  V30 7607 H 724.896 -5.86858 1.53891 0
M  V30 7608 H 723.635 -4.80041 0.86091 0
M  V30 7609 H 722.64 -4.50814 3.14717 0
M  V30 7610 H 723.865 -5.61077 3.82582 0
M  V30 7611 H 721.811 -6.33536 1.702 0
M  V30 7612 H 721.728 -6.76252 3.37963 0
M  V30 7613 H 722.996 -7.41997 2.38873 0
M  V30 7614 N 727.225 -1.14528 -1.08264 0
M  V30 7615 C 728.502 -0.825185 -1.77342 0
M  V30 7616 C 728.882 0.681037 -1.99813 0
M  V30 7617 O 728.23 1.62234 -1.60912 0
M  V30 7618 C 728.44 -1.62556 -3.08831 0
M  V30 7619 C 729.788 -1.82585 -3.83338 0
M  V30 7620 O 730.812 -1.59254 -3.18617 0
M  V30 7621 O 729.671 -2.21598 -4.99556 0
M  V30 7622 H 726.765 -0.302531 -0.769678 0
M  V30 7623 H 729.311 -1.25056 -1.14713 0
M  V30 7624 H 728.083 -2.64862 -2.88035 0
M  V30 7625 H 727.706 -1.1959 -3.79189 0
M  V30 7626 N 728.703 1.26451 -0.940633 0
M  V30 7627 C 729.928 1.98407 -0.60412 0
M  V30 7628 C 730.353 1.69584 0.81382 0
M  V30 7629 O 729.711 0.943553 1.54812 0
M  V30 7630 C 729.759 3.50387 -0.852136 0
M  V30 7631 O 728.863 4.1233 0.076013 0
M  V30 7632 H 728.204 0.622466 -0.231153 0
M  V30 7633 H 730.734 1.60932 -1.26342 0
M  V30 7634 H 730.744 4.00614 -0.772816 0
M  V30 7635 H 729.419 3.70696 -1.88566 0
M  V30 7636 H 727.996 3.7286 -0.0543187 0
M  V30 7637 N 730.181 0.707592 1.40822 0
M  V30 7638 C 731.111 0.0644925 2.33411 0
M  V30 7639 C 732.092 -0.754205 1.52466 0
M  V30 7640 O 733.277 -0.704749 1.80961 0
M  V30 7641 C 730.407 -0.863865 3.36385 0
M  V30 7642 C 729.361 -0.15138 4.27732 0
M  V30 7643 C 728.687 -1.19491 5.21177 0
M  V30 7644 C 729.987 0.989607 5.12839 0
M  V30 7645 H 731.681 0.837829 2.87438 0
M  V30 7646 H 729.227 0.404346 1.38207 0
M  V30 7647 H 731.18 -1.32309 4.0009 0
M  V30 7648 H 729.904 -1.66901 2.80734 0
M  V30 7649 H 728.563 0.287937 3.65467 0
M  V30 7650 H 728.211 -1.9929 4.61836 0
M  V30 7651 H 727.911 -0.723123 5.83134 0
M  V30 7652 H 729.435 -1.6544 5.8776 0
M  V30 7653 H 730.849 0.610114 5.70044 0
M  V30 7654 H 729.246 1.38926 5.83798 0
M  V30 7655 H 730.316 1.82389 4.49291 0
M  V30 7656 N 731.66 -1.50943 0.453197 0
M  V30 7657 C 732.885 -2.07116 -0.108463 0
M  V30 7658 C 733.31 -1.31681 -1.3432 0
M  V30 7659 O 732.668 -0.359256 -1.77705 0
M  V30 7660 C 732.716 -3.58447 -0.393424 0
M  V30 7661 O 731.82 -3.85038 -1.47714 0
M  V30 7662 H 731.161 -0.66398 0.0050993 0
M  V30 7663 H 733.691 -1.94362 0.639095 0
M  V30 7664 H 733.701 -4.02961 -0.639222 0
M  V30 7665 H 732.376 -4.12774 0.508946 0
M  V30 7666 H 730.953 -3.52376 -1.22006 0
M  V30 7667 N 733.138 -0.185124 -1.56509 0
M  V30 7668 C 734.048 0.751908 -2.22224 0
M  V30 7669 C 735.064 1.24244 -1.21817 0
M  V30 7670 O 736.24 1.29169 -1.54523 0
M  V30 7671 C 733.305 1.95837 -2.86092 0
M  V30 7672 C 732.366 1.51337 -4.01741 0
M  V30 7673 C 731.599 2.66233 -4.62554 0
M  V30 7674 O 731.822 3.8346 -4.22273 0
M  V30 7675 O 730.756 2.39517 -5.52191 0
M  V30 7676 H 734.582 0.222304 -3.02885 0
M  V30 7677 H 732.167 0.0437141 -1.49336 0
M  V30 7678 H 734.049 2.66368 -3.26536 0
M  V30 7679 H 732.724 2.47677 -2.08417 0
M  V30 7680 H 731.631 0.777155 -3.65939 0
M  V30 7681 H 732.964 1.04175 -4.81049 0
M  V30 7682 N 734.616 1.57351 0.0885366 0
M  V30 7683 C 735.893 1.77449 0.822873 0
M  V30 7684 C 736.273 0.768463 1.96616 0
M  V30 7685 O 735.621 -0.201757 2.27608 0
M  V30 7686 C 735.831 3.23425 1.31137 0
M  V30 7687 C 737.179 3.86791 1.75152 0
M  V30 7688 O 738.203 3.27215 1.40745 0
M  V30 7689 O 737.062 4.91568 2.38794 0
M  V30 7690 H 734.156 0.727653 0.393002 0
M  V30 7691 H 736.702 1.69556 0.0699095 0
M  V30 7692 H 735.474 3.88188 0.49254 0
M  V30 7693 H 735.097 3.35977 2.12615 0
M  V30 7694 N 736.094 -0.359525 1.53444 0
M  V30 7695 C 737.026 -1.46098 1.76602 0
M  V30 7696 C 738.039 -1.49395 0.646912 0
M  V30 7697 O 739.228 -1.52765 0.923307 0
M  V30 7698 C 736.328 -2.84836 1.83635 0
M  V30 7699 C 735.501 -3.05164 3.13358 0
M  V30 7700 C 734.56 -4.24051 3.11556 0
M  V30 7701 O 733.586 -4.18935 3.85334 0
M  V30 7702 N 734.788 -5.31775 2.328 0
M  V30 7703 H 737.553 -1.2661 2.71643 0
M  V30 7704 H 735.114 -0.549294 1.52297 0
M  V30 7705 H 737.106 -3.62516 1.799 0
M  V30 7706 H 735.676 -2.97542 0.958509 0
M  V30 7707 H 734.896 -2.15091 3.30348 0
M  V30 7708 H 736.184 -3.15619 3.99076 0
M  V30 7709 H 735.582 -5.38796 1.7238 0
M  V30 7710 H 734.139 -6.0801 2.34877 0
M  V30 7711 N 737.572 -1.44907 -0.619662 0
M  V30 7712 C 738.519 -1.52654 -1.73105 0
M  V30 7713 C 739.489 -0.373334 -1.6185 0
M  V30 7714 O 740.674 -0.585143 -1.81606 0
M  V30 7715 C 737.814 -1.48769 -3.11387 0
M  V30 7716 C 736.927 -2.74551 -3.33535 0
M  V30 7717 C 736.062 -2.62421 -4.61854 0
M  V30 7718 C 735.101 -3.83312 -4.77219 0
M  V30 7719 N 734.238 -3.69789 -5.96826 0
M  V30 7720 H 739.078 -2.47605 -1.65819 0
M  V30 7721 H 736.615 -1.22875 -0.808719 0
M  V30 7722 H 738.573 -1.44507 -3.91374 0
M  V30 7723 H 737.203 -0.573783 -3.1766 0
M  V30 7724 H 736.255 -2.88953 -2.47408 0
M  V30 7725 H 737.567 -3.64253 -3.40765 0
M  V30 7726 H 736.721 -2.56056 -5.50019 0
M  V30 7727 H 735.46 -1.70298 -4.57001 0
M  V30 7728 H 734.465 -3.90049 -3.87481 0
M  V30 7729 H 735.69 -4.76486 -4.83878 0
M  V30 7730 H 733.636 -2.80426 -5.93041 0
M  V30 7731 H 733.553 -4.53116 -6.05163 0
M  V30 7732 H 734.821 -3.67335 -6.87521 0
M  V30 7733 N 739.05 0.861098 -1.31996 0
M  V30 7734 C 740.296 1.61721 -1.22369 0
M  V30 7735 C 740.629 1.93 0.215587 0
M  V30 7736 O 739.904 1.56789 1.15098 0
M  V30 7737 C 740.187 2.9417 -2.07691 0
M  V30 7738 C 740.04 2.69714 -3.59965 0
M  V30 7739 C 741.359 3.95372 -1.93312 0
M  V30 7740 H 738.478 0.586822 -0.44588 0
M  V30 7741 H 741.12 0.994788 -1.61876 0
M  V30 7742 H 739.27 3.47292 -1.74128 0
M  V30 7743 H 740.942 2.23196 -4.03709 0
M  V30 7744 H 739.185 2.03789 -3.82952 0
M  V30 7745 H 739.856 3.63996 -4.14983 0
M  V30 7746 H 742.332 3.51487 -2.22701 0
M  V30 7747 H 741.208 4.85916 -2.55298 0
M  V30 7748 H 741.469 4.32865 -0.898922 0
M  V30 7749 N 740.528 1.15101 1.07655 0
M  V30 7750 C 741.774 0.925343 1.80458 0
M  V30 7751 C 742.107 -0.546354 1.86356 0
M  V30 7752 O 741.382 -1.40496 1.34503 0
M  V30 7753 C 741.665 1.53646 3.25676 0
M  V30 7754 C 741.518 3.07854 3.27942 0
M  V30 7755 C 742.837 1.21968 4.22861 0
M  V30 7756 H 739.956 0.337592 0.655134 0
M  V30 7757 H 742.598 1.42217 1.25993 0
M  V30 7758 H 740.748 1.11395 3.72187 0
M  V30 7759 H 742.42 3.58989 2.89697 0
M  V30 7760 H 740.663 3.41904 2.66991 0
M  V30 7761 H 741.334 3.45725 4.30324 0
M  V30 7762 H 743.81 1.5851 3.84726 0
M  V30 7763 H 742.686 1.67349 5.22767 0
M  V30 7764 H 742.947 0.136207 4.4189 0
M  V30 7765 N 742.006 -1.2595 0.947325 0
M  V30 7766 C 742.939 -2.24559 0.406009 0
M  V30 7767 C 743.917 -1.54441 -0.508598 0
M  V30 7768 O 745.101 -1.83181 -0.444644 0
M  V30 7769 C 742.228 -3.36136 -0.415987 0
M  V30 7770 C 741.274 -4.24245 0.437969 0
M  V30 7771 S 742.107 -5.01948 1.86572 0
M  V30 7772 C 743.263 -6.16997 1.05194 0
M  V30 7773 H 743.496 -2.70128 1.24171 0
M  V30 7774 H 741.029 -1.34912 0.750874 0
M  V30 7775 H 742.987 -4.00861 -0.88433 0
M  V30 7776 H 741.648 -2.89167 -1.22643 0
M  V30 7777 H 740.841 -5.03634 -0.192127 0
M  V30 7778 H 740.443 -3.64416 0.841235 0
M  V30 7779 H 742.735 -6.76848 0.297126 0
M  V30 7780 H 743.678 -6.84324 1.8195 0
M  V30 7781 H 744.086 -5.61458 0.585294 0
M  V30 7782 N 743.484 -0.715051 -1.40445 0
M  V30 7783 C 744.394 -0.0631624 -2.34515 0
M  V30 7784 C 745.41 0.744397 -1.57273 0
M  V30 7785 O 746.586 0.677475 -1.89663 0
M  V30 7786 C 743.651 0.847915 -3.36172 0
M  V30 7787 C 742.712 0.0303655 -4.29289 0
M  V30 7788 C 741.945 0.898051 -5.2609 0
M  V30 7789 O 742.168 2.13729 -5.28844 0
M  V30 7790 O 741.102 0.337328 -6.00954 0
M  V30 7791 H 744.928 -0.839078 -2.91879 0
M  V30 7792 H 742.513 -0.475527 -1.4163 0
M  V30 7793 H 744.395 1.3698 -3.98515 0
M  V30 7794 H 743.07 1.60299 -2.81222 0
M  V30 7795 H 741.977 -0.536573 -3.70232 0
M  V30 7796 H 743.31 -0.686474 -4.87389 0
M  V30 7797 N 744.962 1.50701 -0.461195 0
M  V30 7798 C 746.208 2.02566 0.0973411 0
M  V30 7799 C 746.541 1.3432 1.40257 0
M  V30 7800 O 745.816 0.465692 1.88843 0
M  V30 7801 C 746.099 3.58919 0.291423 0
M  V30 7802 C 745.952 4.37751 -1.03413 0
M  V30 7803 C 747.271 4.27379 1.05048 0
M  V30 7804 H 744.39 0.73622 0.0339026 0
M  V30 7805 H 747.032 1.80115 -0.604855 0
M  V30 7806 H 745.182 3.78179 0.889539 0
M  V30 7807 H 746.854 4.30085 -1.66806 0
M  V30 7808 H 745.097 4.01885 -1.63313 0
M  V30 7809 H 745.768 5.45384 -0.852085 0
M  V30 7810 H 748.244 4.12534 0.543603 0
M  V30 7811 H 747.12 5.36609 1.15506 0
M  V30 7812 H 747.381 3.89868 2.0846 0
M  V30 7813 N 746.441 0.193421 1.56409 0
M  V30 7814 C 747.404 -0.714371 2.17783 0
M  V30 7815 C 748.404 -1.1422 1.13183 0
M  V30 7816 O 749.594 -1.05557 1.38576 0
M  V30 7817 C 746.726 -1.97509 2.77855 0
M  V30 7818 H 747.919 -0.179714 2.99361 0
M  V30 7819 H 745.472 -0.0561944 1.56199 0
M  V30 7820 H 746.207 -2.5523 2.0007 0
M  V30 7821 H 745.992 -1.67706 3.54425 0
M  V30 7822 H 747.482 -2.62246 3.24987 0
M  V30 7823 N 747.919 -1.57396 -0.0801906 0
M  V30 7824 C 748.866 -2.03107 -1.09618 0
M  V30 7825 C 749.836 -0.910118 -1.38946 0
M  V30 7826 O 751.021 -1.17719 -1.50156 0
M  V30 7827 C 748.161 -2.47293 -2.40708 0
M  V30 7828 C 747.274 -3.72972 -2.17982 0
M  V30 7829 C 746.409 -4.05975 -3.42576 0
M  V30 7830 C 745.448 -5.24719 -3.15177 0
M  V30 7831 N 744.585 -5.53401 -4.32078 0
M  V30 7832 H 749.425 -2.89677 -0.69939 0
M  V30 7833 H 746.962 -1.43263 -0.333785 0
M  V30 7834 H 748.92 -2.7096 -3.17232 0
M  V30 7835 H 747.55 -1.63713 -2.78205 0
M  V30 7836 H 746.602 -3.56693 -1.32189 0
M  V30 7837 H 747.914 -4.59638 -1.93738 0
M  V30 7838 H 747.068 -4.30498 -4.275 0
M  V30 7839 H 745.807 -3.17859 -3.69887 0
M  V30 7840 H 744.812 -5 -2.28648 0
M  V30 7841 H 746.037 -6.14445 -2.89197 0
M  V30 7842 H 743.983 -4.68245 -4.59437 0
M  V30 7843 H 743.9 -6.34469 -4.11078 0
M  V30 7844 H 745.168 -5.8247 -5.18024 0
M  V30 7845 N 749.397 0.351382 -1.53633 0
M  V30 7846 C 750.646 1.08988 -1.69719 0
M  V30 7847 C 750.959 1.90043 -0.462948 0
M  V30 7848 O 752.165 2.66769 -0.504613 0
M  V30 7849 C 750.621 1.98691 -3.00083 0
M  V30 7850 C 750.229 1.22881 -4.30818 0
M  V30 7851 C 751.973 2.72446 -3.25536 0
M  V30 7852 C 749.88 2.11568 -5.52262 0
M  V30 7853 H 748.81 0.410588 -0.632403 0
M  V30 7854 H 751.461 0.349886 -1.80133 0
M  V30 7855 H 749.843 2.76478 -2.83506 0
M  V30 7856 H 751.017 0.500582 -4.58073 0
M  V30 7857 H 749.332 0.60928 -4.11918 0
M  V30 7858 H 751.929 3.39055 -4.13456 0
M  V30 7859 H 752.272 3.38588 -2.42206 0
M  V30 7860 H 752.805 2.01735 -3.42852 0
M  V30 7861 H 749.544 1.4998 -6.38111 0
M  V30 7862 H 749.064 2.82201 -5.29266 0
M  V30 7863 H 750.743 2.70802 -5.87601 0
M  V30 7864 N 750.875 1.45233 0.611969 0
M  V30 7865 C 752.124 1.48296 1.36716 0
M  V30 7866 C 752.437 0.12706 1.95187 0
M  V30 7867 O 753.643 0.0353066 2.71477 0
M  V30 7868 C 752.099 2.61168 2.47627 0
M  V30 7869 C 751.707 4.03051 1.95587 0
M  V30 7870 C 753.451 2.73472 3.24674 0
M  V30 7871 C 751.358 5.07312 3.03954 0
M  V30 7872 H 750.288 0.5518 0.513841 0
M  V30 7873 H 752.939 1.7136 0.656359 0
M  V30 7874 H 751.321 2.31379 3.21372 0
M  V30 7875 H 752.495 4.42497 1.2858 0
M  V30 7876 H 750.81 3.95158 1.31298 0
M  V30 7877 H 753.407 3.48537 4.05494 0
M  V30 7878 H 753.75 1.79953 3.75397 0
M  V30 7879 H 754.283 3.02765 2.58028 0
M  V30 7880 H 751.022 6.02525 2.58154 0
M  V30 7881 H 750.542 4.7244 3.69541 0
M  V30 7882 H 752.221 5.31867 3.6841 0
M  V30 7883 N 752.353 -0.854086 1.3245 0
M  V30 7884 C 753.769 -1.14238 1.11453 0
M  V30 7885 C 753.969 -2.01228 -0.10461 0
M  V30 7886 O 753.025 -2.39845 -0.789339 0
M  V30 7887 C 754.338 -1.81916 2.39431 0
M  V30 7888 C 755.886 -1.94549 2.45193 0
M  V30 7889 C 756.361 -2.65642 3.73093 0
M  V30 7890 N 757.852 -2.73167 3.74078 0
M  V30 7891 C 758.587 -3.28828 4.69744 0
M  V30 7892 N 758.083 -3.85295 5.75778 0
M  V30 7893 N 759.876 -3.26936 4.57241 0
M  V30 7894 H 752.027 -0.274786 2.10615 0
M  V30 7895 H 754.29 -0.184375 0.929898 0
M  V30 7896 H 753.996 -1.25452 3.28565 0
M  V30 7897 H 753.87 -2.82068 2.50434 0
M  V30 7898 H 756.257 -2.50172 1.56518 0
M  V30 7899 H 756.338 -0.933914 2.38142 0
M  V30 7900 H 755.982 -2.10683 4.62142 0
M  V30 7901 H 755.912 -3.6724 3.77415 0
M  V30 7902 H 758.403 -2.33108 2.97438 0
M  V30 7903 H 758.716 -4.25925 6.44832 0
M  V30 7904 H 757.061 -3.83625 5.79531 0
M  V30 7905 H 760.252 -2.8207 3.7357 0
M  V30 7906 H 760.425 -3.70014 5.31971 0
M  V30 7907 N 753.831 -1.1567 -1.07043 0
M  V30 7908 C 754.741 -0.870435 -2.17855 0
M  V30 7909 C 755.757 0.154452 -1.73313 0
M  V30 7910 O 756.933 -0.0203759 -2.0139 0
M  V30 7911 C 753.998 -0.367219 -3.4475 0
M  V30 7912 C 753.059 -1.45639 -4.03841 0
M  V30 7913 C 752.292 -0.977092 -5.2468 0
M  V30 7914 O 752.515 0.176127 -5.70128 0
M  V30 7915 O 751.449 -1.76215 -5.75527 0
M  V30 7916 H 755.275 -1.79687 -2.44839 0
M  V30 7917 H 752.86 -0.936064 -1.1644 0
M  V30 7918 H 754.742 -0.0931947 -4.21297 0
M  V30 7919 H 753.417 0.53131 -3.1931 0
M  V30 7920 H 752.324 -1.78406 -3.28819 0
M  V30 7921 H 753.657 -2.32995 -4.3356 0
M  V30 7922 N 755.309 1.25446 -0.953992 0
M  V30 7923 C 756.586 1.884 -0.525823 0
M  V30 7924 C 756.966 1.86079 0.996891 0
M  V30 7925 O 756.314 1.32389 1.8624 0
M  V30 7926 C 756.524 3.31154 -1.10172 0
M  V30 7927 C 757.872 4.07926 -1.17819 0
M  V30 7928 O 758.896 3.40273 -1.05323 0
M  V30 7929 O 757.755 5.28942 -1.37415 0
M  V30 7930 H 754.849 0.808629 -0.173345 0
M  V30 7931 H 757.395 1.33522 -1.04738 0
M  V30 7932 H 756.167 3.27271 -2.14499 0
M  V30 7933 H 755.79 3.93588 -0.56338 0
M  V30 7934 N 756.787 0.722489 1.40064 0
M  V30 7935 C 758.034 0.264979 2.00759 0
M  V30 7936 C 758.362 -1.14395 1.57302 0
M  V30 7937 O 757.617 -1.79165 0.787298 0
M  V30 7938 C 757.916 0.300682 3.56133 0
M  V30 7939 C 757.582 1.66087 4.19197 0
M  V30 7940 C 756.244 2.03319 4.36136 0
M  V30 7941 C 758.596 2.55452 4.54306 0
M  V30 7942 C 755.924 3.29448 4.8547 0
M  V30 7943 C 758.276 3.8094 5.05042 0
M  V30 7944 C 756.94 4.1828 5.2019 0
M  V30 7945 H 756.21 0.0969625 0.734629 0
M  V30 7946 H 758.857 0.926877 1.67575 0
M  V30 7947 H 757.162 -0.44479 3.89267 0
M  V30 7948 H 758.859 -0.0712542 4.00937 0
M  V30 7949 H 755.449 1.36137 4.06405 0
M  V30 7950 H 759.633 2.27961 4.40849 0
M  V30 7951 H 754.889 3.58338 4.95382 0
M  V30 7952 H 759.063 4.50351 5.31184 0
M  V30 7953 H 756.69 5.16081 5.58179 0
M  V30 7954 N 758.265 -1.50454 0.469181 0
M  V30 7955 C 759.195 -2.31353 -0.31592 0
M  V30 7956 C 760.176 -1.38172 -0.992094 0
M  V30 7957 O 761.361 -1.67093 -0.989633 0
M  V30 7958 C 758.491 -3.1786 -1.39937 0
M  V30 7959 C 757.445 -4.19578 -0.844909 0
M  V30 7960 C 756.771 -4.9481 -2.0265 0
M  V30 7961 C 758.071 -5.22106 0.142499 0
M  V30 7962 H 759.765 -2.97237 0.359269 0
M  V30 7963 H 757.311 -1.42942 0.174224 0
M  V30 7964 H 759.264 -3.7325 -1.95607 0
M  V30 7965 H 757.988 -2.49858 -2.1033 0
M  V30 7966 H 756.647 -3.65285 -0.310189 0
M  V30 7967 H 756.295 -4.23282 -2.71737 0
M  V30 7968 H 755.995 -5.63613 -1.66174 0
M  V30 7969 H 757.519 -5.53035 -2.58815 0
M  V30 7970 H 758.933 -5.72378 -0.324966 0
M  V30 7971 H 757.33 -5.98618 0.421441 0
M  V30 7972 H 758.4 -4.7297 1.06901 0
M  V30 7973 N 759.743 -0.201713 -1.56304 0
M  V30 7974 C 760.675 0.748466 -2.16635 0
M  V30 7975 C 761.688 1.172 -1.12996 0
M  V30 7976 O 762.877 1.10658 -1.40061 0
M  V30 7977 C 759.977 2.02296 -2.719 0
M  V30 7978 C 759.15 1.75818 -4.00508 0
M  V30 7979 C 758.209 2.87779 -4.40533 0
M  V30 7980 O 757.235 2.57101 -5.07826 0
M  V30 7981 N 758.437 4.16287 -4.04581 0
M  V30 7982 H 761.202 0.232505 -2.98797 0
M  V30 7983 H 758.763 -0.0199822 -1.61888 0
M  V30 7984 H 760.755 2.7635 -2.95657 0
M  V30 7985 H 759.325 2.44996 -1.94154 0
M  V30 7986 H 758.545 0.855095 -3.84814 0
M  V30 7987 H 759.833 1.55532 -4.84445 0
M  V30 7988 H 759.231 4.44061 -3.50466 0
M  V30 7989 H 757.788 4.86946 -4.33274 0
M  V30 7990 N 761.222 1.57436 0.0718424 0
M  V30 7991 C 762.154 2.00412 1.1121 0
M  V30 7992 C 763.167 0.910074 1.34987 0
M  V30 7993 O 764.356 1.18796 1.33228 0
M  V30 7994 C 761.456 2.32786 2.46301 0
M  V30 7995 C 760.629 3.64036 2.4248 0
M  V30 7996 C 759.688 3.8408 3.59679 0
M  V30 7997 O 758.714 4.55667 3.4111 0
M  V30 7998 N 759.916 3.2643 4.80025 0
M  V30 7999 H 762.681 2.90264 0.746118 0
M  V30 8000 H 760.242 1.59791 0.260495 0
M  V30 8001 H 762.234 2.43368 3.23348 0
M  V30 8002 H 760.804 1.48824 2.74901 0
M  V30 8003 H 760.024 3.64208 1.50818 0
M  V30 8004 H 761.312 4.50217 2.37027 0
M  V30 8005 H 760.71 2.68325 4.98014 0
M  V30 8006 H 759.267 3.42461 5.54584 0
M  V30 8007 N 762.7 -0.34323 1.53817 0
M  V30 8008 C 763.648 -1.44176 1.82527 0
M  V30 8009 C 764.642 -1.54452 0.695772 0
M  V30 8010 O 765.848 -1.57072 0.879114 0
M  V30 8011 H 762.223 -0.480729 0.578277 0
M  V30 8012 H 764.194 -1.17176 2.74431 0
M  V30 8013 C 762.943 -2.80695 2.05197 0
M  V30 8014 H 762.266 -2.73554 2.91561 0
M  V30 8015 H 763.706 -3.56679 2.29251 0
M  V30 8016 C 762.165 -3.26322 0.837589 0
M  V30 8017 O 762.695 -4.01683 0.0371631 0
M  V30 8018 N 760.901 -2.83128 0.654724 0
M  V30 8019 H 760.448 -2.21965 1.30725 0
M  V30 8020 H 760.406 -3.14011 -0.156345 0
M  V30 8021 N 764.178 -1.45556 -0.604258 0
M  V30 8022 C 765.141 -1.54091 -1.69672 0
M  V30 8023 C 766.141 -0.420076 -1.55216 0
M  V30 8024 O 767.331 -0.683671 -1.60224 0
M  V30 8025 C 764.463 -1.44063 -3.08964 0
M  V30 8026 H 765.656 -2.51431 -1.6347 0
M  V30 8027 H 763.209 -1.33046 -0.820273 0
M  V30 8028 H 763.944 -0.479201 -3.2074 0
M  V30 8029 H 763.729 -2.25362 -3.20865 0
M  V30 8030 H 765.219 -1.53075 -3.88533 0
M  V30 8031 N 765.656 0.84705 -1.32902 0
M  V30 8032 C 766.903 1.60176 -1.23894 0
M  V30 8033 C 767.231 1.93496 0.197341 0
M  V30 8034 O 766.486 1.58173 1.15238 0
M  V30 8035 C 766.785 2.92663 -2.05142 0
M  V30 8036 C 766.451 2.7874 -3.54422 0
M  V30 8037 C 765.113 2.7465 -3.95121 0
M  V30 8038 C 767.465 2.64128 -4.49317 0
M  V30 8039 C 764.793 2.53837 -5.28946 0
M  V30 8040 C 767.145 2.44849 -5.83294 0
M  V30 8041 C 765.809 2.39156 -6.23186 0
M  V30 8042 H 765.079 0.586127 -0.453361 0
M  V30 8043 H 767.726 0.981994 -1.64405 0
M  V30 8044 H 766.031 3.588 -1.57383 0
M  V30 8045 H 767.728 3.50095 -1.95537 0
M  V30 8046 H 764.318 2.82751 -3.22102 0
M  V30 8047 H 768.502 2.66327 -4.18788 0
M  V30 8048 H 763.758 2.4787 -5.58901 0
M  V30 8049 H 767.932 2.32524 -6.56434 0
M  V30 8050 H 765.559 2.22789 -7.26821 0
M  V30 8051 N 767.134 1.16236 1.06428 0
M  V30 8052 C 768.359 0.967688 1.83441 0
M  V30 8053 C 768.784 -0.479167 1.81894 0
M  V30 8054 O 768.142 -1.34224 1.21875 0
M  V30 8055 C 768.19 1.49806 3.2801 0
M  V30 8056 O 767.294 0.703481 4.06356 0
M  V30 8057 H 766.635 0.344468 0.56766 0
M  V30 8058 H 769.165 1.54442 1.34197 0
M  V30 8059 H 769.175 1.51495 3.78831 0
M  V30 8060 H 767.85 2.55133 3.2845 0
M  V30 8061 H 766.427 0.756986 3.65136 0
M  V30 8062 N 768.612 -1.24939 0.960631 0
M  V30 8063 C 769.889 -1.88118 0.535807 0
M  V30 8064 C 770.269 -1.86605 -0.987009 0
M  V30 8065 O 769.617 -1.33375 -1.85536 0
M  V30 8066 C 769.827 -3.30565 1.11927 0
M  V30 8067 C 771.175 -4.07296 1.19981 0
M  V30 8068 O 772.199 -3.39709 1.07126 0
M  V30 8069 O 771.058 -5.28206 1.40218 0
M  V30 8070 H 768.152 -0.807698 0.177631 0
M  V30 8071 H 770.698 -1.32964 1.05445 0
M  V30 8072 H 769.47 -3.26128 2.16231 0
M  V30 8073 H 769.093 -3.93284 0.584245 0
M  V30 8074 N 770.09 -0.729906 -1.39679 0
M  V30 8075 C 771.32 -0.285295 -2.04621 0
M  V30 8076 C 771.728 1.08304 -1.55135 0
M  V30 8077 O 771.071 1.6946 -0.709146 0
M  V30 8078 C 771.133 -0.203129 -3.58926 0
M  V30 8079 C 770.797 -1.50909 -4.31365 0
M  V30 8080 C 771.794 -2.45381 -4.58349 0
M  V30 8081 C 769.479 -1.77198 -4.70007 0
M  V30 8082 C 771.473 -3.64379 -5.22979 0
M  V30 8083 C 769.16 -2.96474 -5.34365 0
M  V30 8084 C 770.158 -3.89886 -5.60783 0
M  V30 8085 O 769.846 -5.07069 -6.23808 0
M  V30 8086 H 769.578 -0.123373 -0.664647 0
M  V30 8087 H 772.132 -0.992901 -1.79807 0
M  V30 8088 H 770.362 0.560538 -3.82616 0
M  V30 8089 H 772.051 0.208811 -4.05363 0
M  V30 8090 H 772.817 -2.2634 -4.28947 0
M  V30 8091 H 768.696 -1.05337 -4.48804 0
M  V30 8092 H 772.24 -4.37307 -5.43515 0
M  V30 8093 H 768.137 -3.15419 -5.63188 0
M  V30 8094 H 768.905 -5.07335 -6.42303 0
M  V30 8095 N 771.568 1.50203 -0.477153 0
M  V30 8096 C 772.845 1.95115 0.137609 0
M  V30 8097 C 773.225 1.41778 1.56404 0
M  V30 8098 O 772.573 0.621333 2.1989 0
M  V30 8099 C 772.783 3.4892 0.0747168 0
M  V30 8100 C 774.131 4.238 0.260585 0
M  V30 8101 O 775.155 3.5588 0.151021 0
M  V30 8102 O 774.014 5.44366 0.482534 0
M  V30 8103 H 771.108 0.81987 0.108364 0
M  V30 8104 H 773.654 1.60946 -0.537989 0
M  V30 8105 H 772.426 3.80308 -0.920966 0
M  V30 8106 H 772.049 3.89642 0.791509 0
M  V30 8107 N 773.046 0.209999 1.56195 0
M  V30 8108 C 774.276 -0.429373 2.02089 0
M  V30 8109 C 774.684 -1.54703 1.0892 0
M  V30 8110 O 774.027 -1.83485 0.0889535 0
M  V30 8111 C 774.089 -1.03266 3.44349 0
M  V30 8112 C 773.753 -0.0518873 4.56971 0
M  V30 8113 C 774.75 0.744249 5.14545 0
M  V30 8114 C 772.435 0.0635185 5.0226 0
M  V30 8115 C 774.429 1.64261 6.15871 0
M  V30 8116 C 772.116 0.965423 6.03426 0
M  V30 8117 C 773.114 1.75352 6.60106 0
M  V30 8118 O 772.802 2.64029 7.59305 0
M  V30 8119 H 772.534 -0.110604 0.66689 0
M  V30 8120 H 775.088 0.320436 2.02885 0
M  V30 8121 H 773.318 -1.83134 3.40586 0
M  V30 8122 H 775.007 -1.57823 3.73961 0
M  V30 8123 H 775.773 0.665476 4.80413 0
M  V30 8124 H 771.652 -0.539762 4.57829 0
M  V30 8125 H 775.196 2.25819 6.60039 0
M  V30 8126 H 771.093 1.04526 6.36981 0
M  V30 8127 H 771.861 2.57974 7.76783 0
M  V30 8128 N 774.524 -1.57472 -0.0634922 0
M  V30 8129 C 775.457 -1.99571 -1.10664 0
M  V30 8130 C 776.435 -0.874015 -1.37112 0
M  V30 8131 O 777.619 -1.13702 -1.50347 0
M  V30 8132 C 774.746 -2.3395 -2.44918 0
M  V30 8133 C 773.792 -3.56213 -2.34551 0
M  V30 8134 S 774.625 -5.06727 -1.73169 0
M  V30 8135 C 775.781 -5.44316 -3.08984 0
M  V30 8136 H 776.014 -2.87739 -0.747905 0
M  V30 8137 H 773.547 -1.5198 -0.272316 0
M  V30 8138 H 775.505 -2.54431 -3.22141 0
M  V30 8139 H 774.166 -1.46297 -2.7795 0
M  V30 8140 H 773.359 -3.77812 -3.33578 0
M  V30 8141 H 772.961 -3.35406 -1.65466 0
M  V30 8142 H 775.253 -5.42894 -4.05305 0
M  V30 8143 H 776.196 -6.4502 -2.92156 0
M  V30 8144 H 776.604 -4.71781 -3.09972 0
M  V30 8145 N 776.003 0.335068 -1.53997 0
M  V30 8146 C 777.243 1.0827 -1.7337 0
M  V30 8147 C 777.607 1.85618 -0.490913 0
M  V30 8148 O 778.808 2.62864 -0.561799 0
M  V30 8149 C 777.079 1.99212 -2.96731 0
M  V30 8150 S 778.638 2.81083 -3.36954 0
M  V30 8151 H 775.456 0.365698 -0.609743 0
M  V30 8152 H 778.058 0.360079 -1.92155 0
M  V30 8153 H 776.762 1.41204 -3.85344 0
M  V30 8154 H 776.293 2.75898 -2.80436 0
M  V30 8155 H 778.308 4.01657 -2.91352 0
M  V30 8156 N 777.481 1.45874 0.596531 0
M  V30 8157 C 778.892 1.44798 1.17857 0
M  V30 8158 C 779.243 0.181443 1.95359 0
M  V30 8159 O 778.368 -0.716336 2.042 0
M  V30 8160 C 778.963 2.62333 2.14398 0
M  V30 8161 C 777.522 2.64342 2.67955 0
M  V30 8162 C 776.669 2.37244 1.43564 0
M  V30 8163 H 779.62 1.53954 0.385222 0
M  V30 8164 H 779.641 2.37063 2.97626 0
M  V30 8165 H 779.153 3.54499 1.57963 0
M  V30 8166 H 777.254 1.76213 3.28298 0
M  V30 8167 H 777.367 3.63897 3.11634 0
M  V30 8168 H 775.731 1.87022 1.72901 0
M  V30 8169 H 776.514 3.31568 0.889805 0
M  V30 8170 N 778.959 -0.83999 1.33349 0
M  V30 8171 C 779.889 -1.965 1.26135 0
M  V30 8172 C 780.87 -1.69505 0.142152 0
M  V30 8173 O 782.055 -1.91346 0.331743 0
M  V30 8174 C 779.185 -3.32632 0.99866 0
M  V30 8175 C 778.139 -3.74021 2.08068 0
M  V30 8176 C 777.465 -5.07947 1.67014 0
M  V30 8177 C 778.765 -3.87925 3.49731 0
M  V30 8178 H 780.459 -2.02793 2.20262 0
M  V30 8179 H 778.005 -0.974297 1.06035 0
M  V30 8180 H 779.958 -4.10903 0.934696 0
M  V30 8181 H 778.682 -3.26593 0.0217759 0
M  V30 8182 H 777.341 -2.98012 2.13505 0
M  V30 8183 H 776.989 -4.98378 0.680316 0
M  V30 8184 H 776.689 -5.36611 2.39422 0
M  V30 8185 H 778.213 -5.88695 1.62082 0
M  V30 8186 H 779.627 -4.5651 3.46802 0
M  V30 8187 H 778.024 -4.28023 4.20614 0
M  V30 8188 H 779.094 -2.90407 3.88319 0
M  V30 8189 N 780.437 -1.16799 -1.0581 0
M  V30 8190 C 781.369 -0.836774 -2.13379 0
M  V30 8191 C 782.382 0.158116 -1.6203 0
M  V30 8192 O 783.571 -0.0673211 -1.78373 0
M  V30 8193 C 780.671 -0.225959 -3.38146 0
M  V30 8194 C 779.844 -1.26217 -4.18794 0
M  V30 8195 C 778.903 -0.670257 -5.21914 0
M  V30 8196 O 777.929 -1.34042 -5.53192 0
M  V30 8197 N 779.131 0.540683 -5.77977 0
M  V30 8198 H 781.896 -1.76257 -2.42391 0
M  V30 8199 H 779.457 -1.06599 -1.21853 0
M  V30 8200 H 781.449 0.18317 -4.04285 0
M  V30 8201 H 780.019 0.603494 -3.06719 0
M  V30 8202 H 779.239 -1.84729 -3.48237 0
M  V30 8203 H 780.527 -1.9613 -4.69479 0
M  V30 8204 H 779.925 1.10322 -5.54838 0
M  V30 8205 H 778.482 0.891958 -6.45668 0
M  V30 8206 N 781.915 1.24427 -0.967243 0
M  V30 8207 C 782.862 2.25398 -0.496419 0
M  V30 8208 C 783.832 1.59667 0.457781 0
M  V30 8209 O 785.017 1.87213 0.368246 0
M  V30 8210 C 782.157 3.44474 0.207693 0
M  V30 8211 C 781.27 4.24804 -0.785221 0
M  V30 8212 C 780.405 5.31169 -0.0572631 0
M  V30 8213 C 779.444 6.03195 -1.04027 0
M  V30 8214 N 778.581 7.01265 -0.34235 0
M  V30 8215 H 783.421 2.65039 -1.36229 0
M  V30 8216 H 780.958 1.30288 -0.682902 0
M  V30 8217 H 782.916 4.12376 0.632612 0
M  V30 8218 H 781.546 3.05672 1.03752 0
M  V30 8219 H 780.598 3.56445 -1.32858 0
M  V30 8220 H 781.91 4.74599 -1.53483 0
M  V30 8221 H 781.064 6.05205 0.425674 0
M  V30 8222 H 779.803 4.8228 0.725047 0
M  V30 8223 H 778.808 5.27964 -1.53409 0
M  V30 8224 H 780.033 6.54173 -1.82302 0
M  V30 8225 H 777.979 6.54648 0.420993 0
M  V30 8226 H 777.896 7.48939 -1.03084 0
M  V30 8227 H 779.164 7.7941 0.118634 0
M  V30 8228 N 783.393 0.737304 1.3929 0
M  V30 8229 C 784.621 0.296573 2.04763 0
M  V30 8230 C 785.036 -1.06941 1.55592 0
M  V30 8231 O 784.393 -1.67619 0.721822 0
M  V30 8232 C 784.444 0.291906 3.6032 0
M  V30 8233 O 784.165 1.60397 4.07682 0
M  V30 8234 C 785.666 -0.164708 4.42994 0
M  V30 8235 H 782.886 0.129251 0.658434 0
M  V30 8236 H 785.43 1.0016 1.78293 0
M  V30 8237 H 783.585 -0.364251 3.85684 0
M  V30 8238 H 783.999 1.51909 5.0202 0
M  V30 8239 H 785.473 -0.116814 5.51876 0
M  V30 8240 H 785.95 -1.21022 4.22197 0
M  V30 8241 H 786.556 0.461968 4.22784 0
M  V30 8242 N 784.871 -1.49948 0.485112 0
M  V30 8243 C 786.117 -2.02695 -0.0651022 0
M  V30 8244 C 786.45 -1.36534 -1.38102 0
M  V30 8245 O 785.725 -0.495677 -1.88078 0
M  V30 8246 C 786.008 -3.59337 -0.234285 0
M  V30 8247 C 785.861 -4.3605 1.10364 0
M  V30 8248 C 787.18 -4.28996 -0.982351 0
M  V30 8249 H 784.299 -0.736666 -0.0221856 0
M  V30 8250 H 786.941 -1.7913 0.633433 0
M  V30 8251 H 785.091 -3.79546 -0.829262 0
M  V30 8252 H 786.763 -4.27377 1.73627 0
M  V30 8253 H 785.006 -3.99236 1.69686 0
M  V30 8254 H 785.677 -5.43959 0.938743 0
M  V30 8255 H 788.153 -4.13346 -0.477904 0
M  V30 8256 H 787.029 -5.38379 -1.06955 0
M  V30 8257 H 787.29 -3.93135 -2.02231 0
M  V30 8258 N 786.349 -0.21828 -1.56081 0
M  V30 8259 C 787.597 0.413488 -1.97825 0
M  V30 8260 C 787.918 1.60527 -1.10707 0
M  V30 8261 O 787.188 1.9504 -0.183378 0
M  V30 8262 H 785.768 0.155757 -0.730581 0
M  V30 8263 H 788.43 -0.310413 -1.92412 0
M  V30 8264 H 787.526 0.742024 -3.03151 0
M  V30 8265 N 787.827 1.57504 0.0551401 0
M  V30 8266 C 788.76 2.00155 1.09604 0
M  V30 8267 C 789.738 0.881274 1.36647 0
M  V30 8268 O 790.922 1.14498 1.49742 0
M  V30 8269 C 788.049 2.35246 2.43674 0
M  V30 8270 C 787.095 3.57452 2.32659 0
M  V30 8271 S 787.928 5.07639 1.7048 0
M  V30 8272 C 789.084 5.45947 3.06093 0
M  V30 8273 H 789.317 2.88131 0.732635 0
M  V30 8274 H 786.85 1.52122 0.264252 0
M  V30 8275 H 788.808 2.56136 3.20787 0
M  V30 8276 H 787.469 1.47769 2.7717 0
M  V30 8277 H 786.662 3.79576 3.31569 0
M  V30 8278 H 786.264 3.36279 1.63685 0
M  V30 8279 H 788.556 5.45036 4.0242 0
M  V30 8280 H 789.499 6.4656 2.88732 0
M  V30 8281 H 789.907 4.73419 3.07466 0
M  V30 8282 N 789.305 -0.326896 1.54172 0
M  V30 8283 C 790.238 -1.42591 1.78166 0
M  V30 8284 C 791.216 -1.49837 0.631484 0
M  V30 8285 O 792.4 -1.67298 0.868544 0
M  V30 8286 C 789.527 -2.8071 1.89524 0
M  V30 8287 C 788.573 -2.91012 3.11792 0
M  V30 8288 S 789.406 -2.55763 4.70474 0
M  V30 8289 C 790.562 -3.9596 4.84733 0
M  V30 8290 H 790.795 -1.22024 2.71104 0
M  V30 8291 H 788.328 -0.523539 1.45253 0
M  V30 8292 H 790.286 -3.60276 1.96753 0
M  V30 8293 H 788.947 -2.98562 0.975696 0
M  V30 8294 H 788.14 -3.92258 3.16464 0
M  V30 8295 H 787.742 -2.19414 3.02876 0
M  V30 8296 H 790.034 -4.90676 4.67166 0
M  V30 8297 H 790.977 -3.96273 5.86833 0
M  V30 8298 H 791.385 -3.8476 4.13062 0
M  V30 8299 N 790.784 -1.46188 -0.588786 0
M  V30 8300 C 792.2 -1.31009 -0.911524 0
M  V30 8301 C 792.4 -0.277017 -1.99587 0
M  V30 8302 O 791.456 0.322532 -2.50432 0
M  V30 8303 C 792.769 -2.69459 -1.33463 0
M  V30 8304 C 794.317 -2.77502 -1.44782 0
M  V30 8305 C 794.792 -4.1652 -1.90461 0
M  V30 8306 N 796.283 -4.18907 -1.97665 0
M  V30 8307 C 797.018 -5.23359 -2.34271 0
M  V30 8308 N 796.514 -6.38143 -2.69714 0
M  V30 8309 N 798.307 -5.10723 -2.34774 0
M  V30 8310 H 790.458 -2.12016 0.127614 0
M  V30 8311 H 792.721 -0.947984 -0.00557599 0
M  V30 8312 H 792.427 -3.46336 -0.611929 0
M  V30 8313 H 792.301 -2.99165 -2.2974 0
M  V30 8314 H 794.688 -2.00917 -2.1614 0
M  V30 8315 H 794.769 -2.51488 -0.467724 0
M  V30 8316 H 794.413 -4.93597 -1.19684 0
M  V30 8317 H 794.343 -4.39937 -2.89418 0
M  V30 8318 H 796.834 -3.36084 -1.72789 0
M  V30 8319 H 797.147 -7.13624 -2.96582 0
M  V30 8320 H 795.492 -6.41514 -2.67366 0
M  V30 8321 H 798.683 -4.20088 -2.06503 0
M  V30 8322 H 798.856 -5.9224 -2.62975 0
M  V30 8323 N 792.262 0.832906 -1.33792 0
M  V30 8324 C 793.511 1.58351 -1.24932 0
M  V30 8325 C 793.824 1.94754 0.181703 0
M  V30 8326 O 795.03 2.6865 0.392375 0
M  V30 8327 C 793.486 2.85643 -2.18943 0
M  V30 8328 C 793.094 2.56581 -3.67247 0
M  V30 8329 C 794.838 3.63667 -2.18968 0
M  V30 8330 C 792.745 3.80006 -4.53155 0
M  V30 8331 H 791.675 0.594278 -0.464058 0
M  V30 8332 H 794.326 0.91786 -1.58895 0
M  V30 8333 H 792.708 3.53781 -1.77919 0
M  V30 8334 H 793.882 1.96617 -4.16747 0
M  V30 8335 H 792.197 1.91851 -3.6957 0
M  V30 8336 H 794.794 4.55293 -2.80379 0
M  V30 8337 H 795.137 3.99039 -1.18631 0
M  V30 8338 H 795.67 3.0246 -2.58384 0
M  V30 8339 H 792.409 3.4976 -5.5439 0
M  V30 8340 H 791.929 4.39288 -4.08395 0
M  V30 8341 H 793.608 4.47523 -4.6726 0
M  V30 8342 N 793.74 1.17359 1.05189 0
M  V30 8343 C 794.989 0.956412 1.77583 0
M  V30 8344 C 795.302 -0.516018 1.88671 0
M  V30 8345 O 796.508 -0.851401 2.57805 0
M  V30 8346 C 794.964 1.66203 3.19225 0
M  V30 8347 C 794.572 3.17299 3.16267 0
M  V30 8348 C 796.316 1.52725 3.96075 0
M  V30 8349 C 794.223 3.8055 4.52698 0
M  V30 8350 H 793.153 0.354204 0.665624 0
M  V30 8351 H 795.804 1.40612 1.17901 0
M  V30 8352 H 794.186 1.14006 3.79234 0
M  V30 8353 H 795.36 3.76431 2.65776 0
M  V30 8354 H 793.675 3.3079 2.52917 0
M  V30 8355 H 796.272 1.97351 4.96947 0
M  V30 8356 H 796.615 0.477803 4.13549 0
M  V30 8357 H 797.148 2.02139 3.42614 0
M  V30 8358 H 793.887 4.85492 4.4043 0
M  V30 8359 H 793.407 3.26206 5.03339 0
M  V30 8360 H 795.086 3.82757 5.21638 0
M  V30 8361 N 795.218 -1.23913 0.973828 0
M  V30 8362 C 796.458 -1.93889 0.647015 0
M  V30 8363 C 796.822 -1.74368 -0.803735 0
M  V30 8364 O 798.023 -2.38435 -1.24106 0
M  V30 8365 C 796.294 -3.4257 1.01885 0
M  V30 8366 S 797.853 -4.31306 0.807517 0
M  V30 8367 H 794.671 -0.670279 0.237165 0
M  V30 8368 H 797.273 -1.50144 1.25208 0
M  V30 8369 H 795.977 -3.54286 2.07146 0
M  V30 8370 H 795.508 -3.91312 0.404812 0
M  V30 8371 H 797.523 -4.95218 -0.311986 0
M  V30 8372 N 796.696 -0.74468 -1.38897 0
M  V30 8373 C 797.646 -0.0869375 -2.27834 0
M  V30 8374 C 798.63 0.702553 -1.44751 0
M  V30 8375 O 799.822 0.569972 -1.67572 0
M  V30 8376 C 796.951 0.812232 -3.33553 0
M  V30 8377 C 796.037 0.0163713 -4.24097 0
M  V30 8378 N 796.428 -1.01547 -4.95502 0
M  V30 8379 C 794.726 0.244554 -4.45329 0
M  V30 8380 C 795.427 -1.49622 -5.62128 0
M  V30 8381 N 794.403 -0.813097 -5.37485 0
M  V30 8382 H 798.205 -0.877345 -2.80499 0
M  V30 8383 H 795.719 -0.579898 -1.51694 0
M  V30 8384 H 797.716 1.299 -3.96146 0
M  V30 8385 H 796.376 1.60169 -2.82446 0
M  V30 8386 H 797.387 -1.39707 -4.98701 0
M  V30 8387 H 794.064 1.00806 -4.05147 0
M  V30 8388 H 795.454 -2.35523 -6.29268 0
M  V30 8389 N 798.174 1.49689 -0.493057 0
M  V30 8390 C 799.421 2.02427 0.0542714 0
M  V30 8391 C 799.749 1.37339 1.37725 0
M  V30 8392 O 799.004 0.495523 1.89323 0
M  V30 8393 C 799.303 3.56427 0.263536 0
M  V30 8394 C 798.969 4.40111 -0.98046 0
M  V30 8395 C 797.631 4.62699 -1.32148 0
M  V30 8396 C 799.983 4.88847 -1.80771 0
M  V30 8397 C 797.311 5.31268 -2.48941 0
M  V30 8398 C 799.663 5.587 -2.96711 0
M  V30 8399 C 798.327 5.79536 -3.31202 0
M  V30 8400 H 797.597 0.740734 0.0198593 0
M  V30 8401 H 800.244 1.80073 -0.651603 0
M  V30 8402 H 798.549 3.77416 1.05186 0
M  V30 8403 H 800.246 3.94819 0.701348 0
M  V30 8404 H 796.836 4.22765 -0.704814 0
M  V30 8405 H 801.02 4.71231 -1.55741 0
M  V30 8406 H 796.276 5.45603 -2.75911 0
M  V30 8407 H 800.45 5.9544 -3.61143 0
M  V30 8408 H 798.077 6.32443 -4.21805 0
M  V30 8409 N 799.652 0.226554 1.55963 0
M  V30 8410 C 800.882 -0.407915 2.02533 0
M  V30 8411 C 801.29 -1.53539 1.10554 0
M  V30 8412 O 800.633 -1.8338 0.108409 0
M  V30 8413 C 800.695 -0.996081 3.45425 0
M  V30 8414 C 800.359 -0.00341651 4.57 0
M  V30 8415 C 801.356 0.798782 5.13727 0
M  V30 8416 C 799.041 0.116786 5.02164 0
M  V30 8417 C 801.035 1.70784 6.14094 0
M  V30 8418 C 798.722 1.02937 6.02368 0
M  V30 8419 C 799.72 1.82344 6.5821 0
M  V30 8420 O 799.408 2.72067 7.56462 0
M  V30 8421 H 799.14 -0.103524 0.668026 0
M  V30 8422 H 801.694 0.341937 2.02534 0
M  V30 8423 H 799.924 -1.79512 3.42509 0
M  V30 8424 H 801.613 -1.53848 3.75614 0
M  V30 8425 H 802.379 0.716393 4.7968 0
M  V30 8426 H 798.258 -0.491172 4.58376 0
M  V30 8427 H 801.802 2.32807 6.57607 0
M  V30 8428 H 797.699 1.11276 6.35836 0
M  V30 8429 H 798.467 2.66199 7.74003 0
M  V30 8430 N 801.13 -1.57531 -0.0467866 0
M  V30 8431 C 802.093 -2.04379 -1.03738 0
M  V30 8432 C 803.093 -0.944881 -1.3011 0
M  V30 8433 O 804.283 -1.20904 -1.25411 0
M  V30 8434 C 801.415 -2.44572 -2.37482 0
M  V30 8435 H 802.608 -2.93142 -0.633063 0
M  V30 8436 H 800.161 -1.53526 -0.293177 0
M  V30 8437 H 800.896 -1.58911 -2.82697 0
M  V30 8438 H 800.681 -3.24785 -2.19675 0
M  V30 8439 H 802.171 -2.81307 -3.08636 0
M  V30 8440 N 802.608 0.318715 -1.54344 0
M  V30 8441 C 803.54 1.41364 -1.80413 0
M  V30 8442 C 804.553 1.47627 -0.686294 0
M  V30 8443 O 805.742 1.50264 -0.963486 0
M  V30 8444 C 802.842 2.79867 -1.91123 0
M  V30 8445 C 802.015 2.96749 -3.21339 0
M  V30 8446 C 801.074 4.15642 -3.22689 0
M  V30 8447 O 800.1 4.08571 -3.96306 0
M  V30 8448 N 801.302 5.25416 -2.46817 0
M  V30 8449 H 804.067 1.19363 -2.74905 0
M  V30 8450 H 801.628 0.508722 -1.537 0
M  V30 8451 H 803.62 3.57619 -1.89448 0
M  V30 8452 H 802.19 2.94896 -1.03706 0
M  V30 8453 H 801.41 2.06257 -3.35934 0
M  V30 8454 H 802.698 3.04927 -4.07304 0
M  V30 8455 H 802.096 5.34037 -1.86605 0
M  V30 8456 H 800.653 6.01569 -2.50915 0
M  V30 8457 N 804.086 1.46499 0.581025 0
M  V30 8458 C 805.326 1.53456 1.35021 0
M  V30 8459 C 805.69 0.182542 1.9113 0
M  V30 8460 O 806.891 0.126874 2.685 0
M  V30 8461 C 805.162 2.60387 2.44812 0
M  V30 8462 S 806.721 2.86762 3.32134 0
M  V30 8463 H 803.539 0.54216 0.459982 0
M  V30 8464 H 806.141 1.83742 0.667754 0
M  V30 8465 H 804.845 3.57253 2.01986 0
M  V30 8466 H 804.376 2.31839 3.17828 0
M  V30 8467 H 806.391 2.2216 4.43688 0
M  V30 8468 N 805.565 -0.825799 1.34232 0
M  V30 8469 C 806.495 -1.95151 1.28212 0
M  V30 8470 C 807.476 -1.69345 0.160123 0
M  V30 8471 O 808.661 -1.90983 0.352019 0
M  V30 8472 C 805.791 -3.31554 1.03388 0
M  V30 8473 C 804.745 -3.71793 2.12023 0
M  V30 8474 C 804.071 -5.06147 1.72392 0
M  V30 8475 C 805.371 -3.84193 3.53826 0
M  V30 8476 H 807.065 -2.00445 2.22401 0
M  V30 8477 H 804.611 -0.962996 1.07063 0
M  V30 8478 H 806.564 -4.09889 0.978225 0
M  V30 8479 H 805.288 -3.26551 0.0564142 0
M  V30 8480 H 803.947 -2.95731 2.16654 0
M  V30 8481 H 803.595 -4.97628 0.733137 0
M  V30 8482 H 803.295 -5.34041 2.451 0
M  V30 8483 H 804.819 -5.86943 1.68317 0
M  V30 8484 H 806.233 -4.52806 3.51624 0
M  V30 8485 H 804.63 -4.23538 4.2513 0
M  V30 8486 H 805.7 -2.86272 3.91377 0
M  V30 8487 N 807.043 -1.17915 -1.04565 0
M  V30 8488 C 808.459 -0.927761 -1.29864 0
M  V30 8489 C 808.659 0.409536 -1.97294 0
M  V30 8490 O 807.715 1.14505 -2.25044 0
M  V30 8491 C 809.028 -2.08967 -2.16225 0
M  V30 8492 C 810.576 -2.12741 -2.29587 0
M  V30 8493 C 811.051 -3.28335 -3.19312 0
M  V30 8494 N 812.542 -3.28164 -3.26898 0
M  V30 8495 C 813.277 -4.14249 -3.96466 0
M  V30 8496 N 812.773 -5.10457 -4.68407 0
M  V30 8497 N 814.566 -4.02179 -3.92694 0
M  V30 8498 H 806.717 -2.03983 -0.592011 0
M  V30 8499 H 808.98 -0.891023 -0.323701 0
M  V30 8500 H 808.686 -3.05654 -1.73979 0
M  V30 8501 H 808.56 -2.04606 -3.16885 0
M  V30 8502 H 810.947 -1.16636 -2.71072 0
M  V30 8503 H 811.028 -2.21162 -1.28535 0
M  V30 8504 H 810.672 -4.2471 -2.78539 0
M  V30 8505 H 810.602 -3.17151 -4.20384 0
M  V30 8506 H 813.093 -2.58511 -2.75646 0
M  V30 8507 H 813.406 -5.72526 -5.1907 0
M  V30 8508 H 811.751 -5.14422 -4.67328 0
M  V30 8509 H 814.942 -3.26308 -3.3562 0
M  V30 8510 H 815.115 -4.69486 -4.4664 0
M  V30 8511 N 808.521 1.23394 -0.980386 0
M  V30 8512 C 809.749 1.95844 -0.667286 0
M  V30 8513 C 810.164 1.72574 0.765735 0
M  V30 8514 O 809.521 1.01715 1.51526 0
M  V30 8515 C 809.572 3.48844 -0.948151 0
M  V30 8516 O 809.293 3.71325 -2.32485 0
M  V30 8517 C 810.794 4.38494 -0.651002 0
M  V30 8518 H 808.014 0.623535 -0.247882 0
M  V30 8519 H 810.558 1.56885 -1.31176 0
M  V30 8520 H 808.713 3.85819 -0.349681 0
M  V30 8521 H 809.127 4.65619 -2.41452 0
M  V30 8522 H 810.601 5.44648 -0.897887 0
M  V30 8523 H 811.078 4.37236 0.414922 0
M  V30 8524 H 811.684 4.07127 -1.22995 0
M  V30 8525 N 809.999 0.752036 1.385 0
M  V30 8526 C 810.929 0.138718 2.33088 0
M  V30 8527 C 811.91 -0.705318 1.54788 0
M  V30 8528 O 813.095 -0.646821 1.83112 0
M  V30 8529 C 810.225 -0.75641 3.38963 0
M  V30 8530 C 809.179 -0.0152239 4.27997 0
M  V30 8531 C 808.505 -1.0285 5.24715 0
M  V30 8532 C 809.805 1.15226 5.09431 0
M  V30 8533 H 811.499 0.928852 2.84627 0
M  V30 8534 H 809.045 0.448111 1.3685 0
M  V30 8535 H 810.998 -1.19513 4.04097 0
M  V30 8536 H 809.722 -1.57885 2.85902 0
M  V30 8537 H 808.381 0.404061 3.64366 0
M  V30 8538 H 808.029 -1.84496 4.67943 0
M  V30 8539 H 807.729 -0.537238 5.85139 0
M  V30 8540 H 809.253 -1.46657 5.92726 0
M  V30 8541 H 810.667 0.791161 5.67815 0
M  V30 8542 H 809.064 1.57428 5.79082 0
M  V30 8543 H 810.134 1.9659 4.43261 0
M  V30 8544 N 811.477 -1.49425 0.500989 0
M  V30 8545 C 812.409 -2.27037 -0.314159 0
M  V30 8546 C 813.422 -1.33578 -0.930626 0
M  V30 8547 O 814.611 -1.58861 -0.813968 0
M  V30 8548 C 811.711 -3.05968 -1.45729 0
M  V30 8549 C 810.884 -4.27 -0.948135 0
M  V30 8550 C 809.943 -4.87977 -1.96888 0
M  V30 8551 O 808.969 -5.48044 -1.53743 0
M  V30 8552 N 810.171 -4.77627 -3.29928 0
M  V30 8553 H 812.936 -2.97634 0.351336 0
M  V30 8554 H 810.497 -1.58427 0.333536 0
M  V30 8555 H 812.489 -3.43634 -2.1377 0
M  V30 8556 H 811.059 -2.37978 -2.02695 0
M  V30 8557 H 810.279 -3.94091 -0.0926311 0
M  V30 8558 H 811.567 -5.0541 -0.586362 0
M  V30 8559 H 810.965 -4.29926 -3.67669 0
M  V30 8560 H 809.522 -5.19478 -3.93682 0
M  V30 8561 N 812.955 -0.234822 -1.55841 0
M  V30 8562 C 813.865 0.680828 -2.24504 0
M  V30 8563 C 814.881 1.20306 -1.25708 0
M  V30 8564 O 816.057 1.24188 -1.58554 0
M  V30 8565 C 813.122 1.86636 -2.92178 0
M  V30 8566 C 812.183 1.3848 -4.06352 0
M  V30 8567 C 811.416 2.51382 -4.70789 0
M  V30 8568 O 811.639 3.69831 -4.34259 0
M  V30 8569 O 810.573 2.21828 -5.59532 0
M  V30 8570 H 814.399 0.12583 -3.03439 0
M  V30 8571 H 811.984 -0.00381817 -1.494 0
M  V30 8572 H 813.866 2.55845 -3.34845 0
M  V30 8573 H 812.541 2.40921 -2.16192 0
M  V30 8574 H 811.448 0.660341 -3.68226 0
M  V30 8575 H 812.781 0.888177 -4.8412 0
M  V30 8576 N 814.433 1.57553 0.0384317 0
M  V30 8577 C 815.663 1.92813 0.742064 0
M  V30 8578 C 816.071 0.832157 1.69917 0
M  V30 8579 O 815.414 -0.200917 1.82598 0
M  V30 8580 C 815.476 3.23806 1.56172 0
M  V30 8581 C 815.14 4.50459 0.770407 0
M  V30 8582 C 816.137 5.19846 0.0748006 0
M  V30 8583 C 813.822 4.97001 0.727714 0
M  V30 8584 C 815.816 6.34047 -0.652902 0
M  V30 8585 C 813.503 6.111 -0.00373992 0
M  V30 8586 C 814.501 6.79477 -0.692816 0
M  V30 8587 O 814.189 7.91395 -1.41241 0
M  V30 8588 H 813.921 0.641174 0.214179 0
M  V30 8589 H 816.475 2.054 0.00285095 0
M  V30 8590 H 814.705 3.0752 2.34453 0
M  V30 8591 H 816.394 3.44463 2.14709 0
M  V30 8592 H 817.16 4.84899 0.098875 0
M  V30 8593 H 813.039 4.43629 1.25355 0
M  V30 8594 H 816.583 6.87353 -1.1913 0
M  V30 8595 H 812.48 6.45493 -0.0297703 0
M  V30 8596 H 813.248 8.07702 -1.32512 0
M  V30 8597 N 815.911 -0.310526 1.54511 0
M  V30 8598 C 817.188 -1.06593 1.64004 0
M  V30 8599 C 817.568 -2.05519 0.482216 0
M  V30 8600 O 816.916 -2.22455 -0.52212 0
M  V30 8601 C 817.126 -1.75627 3.01589 0
M  V30 8602 C 818.474 -2.28173 3.58081 0
M  V30 8603 O 819.498 -1.85674 3.03979 0
M  V30 8604 O 818.357 -3.06015 4.52788 0
M  V30 8605 H 815.451 -0.492109 0.664649 0
M  V30 8606 H 817.997 -0.309374 1.66856 0
M  V30 8607 H 816.769 -1.03743 3.77297 0
M  V30 8608 H 816.392 -2.58061 3.02473 0
M  V30 8609 N 817.389 -1.46805 -0.573248 0
M  V30 8610 C 818.614 -1.56433 -1.36175 0
M  V30 8611 C 819.039 -0.209336 -1.86932 0
M  V30 8612 O 818.397 0.812146 -1.62092 0
M  V30 8613 C 818.445 -2.58055 -2.51873 0
M  V30 8614 O 817.549 -2.12214 -3.53609 0
M  V30 8615 H 816.89 -0.526068 -0.405153 0
M  V30 8616 H 819.42 -1.92456 -0.694405 0
M  V30 8617 H 819.43 -2.77966 -2.98662 0
M  V30 8618 H 818.105 -3.56448 -2.14284 0
M  V30 8619 H 816.682 -2.02333 -3.13234 0
M  V30 8620 N 818.867 0.818669 -1.34668 0
M  V30 8621 C 820.283 1.11243 -1.14443 0
M  V30 8622 C 820.483 2.01435 0.0512212 0
M  V30 8623 O 819.539 2.41854 0.725471 0
M  V30 8624 C 820.852 1.75504 -2.4417 0
M  V30 8625 C 822.4 1.8798 -2.50265 0
M  V30 8626 C 822.875 2.55657 -3.80004 0
M  V30 8627 N 824.366 2.63153 -3.81189 0
M  V30 8628 C 825.101 3.16258 -4.78298 0
M  V30 8629 N 824.597 3.69893 -5.85791 0
M  V30 8630 N 826.39 3.14698 -4.65748 0
M  V30 8631 H 818.541 0.218848 -2.1127 0
M  V30 8632 H 820.804 0.159655 -0.934459 0
M  V30 8633 H 820.51 1.16697 -3.31775 0
M  V30 8634 H 820.384 2.75329 -2.57825 0
M  V30 8635 H 822.771 2.45934 -1.63096 0
M  V30 8636 H 822.852 0.870447 -2.40535 0
M  V30 8637 H 822.496 1.98356 -4.67565 0
M  V30 8638 H 822.426 3.57105 -3.87019 0
M  V30 8639 H 824.917 2.2514 -3.03513 0
M  V30 8640 H 825.23 4.08678 -6.55898 0
M  V30 8641 H 823.575 3.68125 -5.89499 0
M  V30 8642 H 826.766 2.72066 -3.80917 0
M  V30 8643 H 826.939 3.5578 -5.41594 0
M  V30 8644 N 820.346 1.18468 1.03938 0
M  V30 8645 C 821.256 0.927889 2.1547 0
M  V30 8646 C 822.272 -0.108447 1.73662 0
M  V30 8647 O 823.448 0.0737636 2.01265 0
M  V30 8648 C 820.513 0.458494 3.43655 0
M  V30 8649 C 819.574 1.56295 3.99838 0
M  V30 8650 C 818.807 1.11586 5.21904 0
M  V30 8651 O 819.03 -0.0249057 5.70395 0
M  V30 8652 O 817.964 1.91412 5.70653 0
M  V30 8653 H 821.79 1.86116 2.39989 0
M  V30 8654 H 819.375 0.966607 1.13917 0
M  V30 8655 H 821.257 0.204861 4.20902 0
M  V30 8656 H 819.932 -0.446464 3.20606 0
M  V30 8657 H 818.839 1.87061 3.23974 0
M  V30 8658 H 820.172 2.44408 4.2723 0
M  V30 8659 N 821.824 -1.22873 0.986916 0
M  V30 8660 C 823.24 -1.43594 0.696633 0
M  V30 8661 C 823.44 -1.87622 -0.734869 0
M  V30 8662 O 822.496 -2.02633 -1.50652 0
M  V30 8663 C 823.809 -2.48231 1.69711 0
M  V30 8664 C 825.357 -2.62037 1.71188 0
M  V30 8665 C 825.832 -3.6989 2.70084 0
M  V30 8666 N 827.323 -3.77341 2.68641 0
M  V30 8667 C 828.058 -4.6037 3.41829 0
M  V30 8668 N 827.554 -5.47438 4.24598 0
M  V30 8669 N 829.347 -4.54626 3.30563 0
M  V30 8670 H 821.498 -0.925982 1.91153 0
M  V30 8671 H 823.761 -0.46866 0.824052 0
M  V30 8672 H 823.467 -2.22812 2.72117 0
M  V30 8673 H 823.341 -3.46731 1.48516 0
M  V30 8674 H 825.728 -2.86803 0.694837 0
M  V30 8675 H 825.809 -1.63831 1.96451 0
M  V30 8676 H 825.453 -3.45872 3.71934 0
M  V30 8677 H 825.383 -4.67652 2.42093 0
M  V30 8678 H 827.874 -3.15124 2.08578 0
M  V30 8679 H 828.187 -6.078 4.77283 0
M  V30 8680 H 826.532 -5.4704 4.28687 0
M  V30 8681 H 829.723 -3.85627 2.65347 0
M  V30 8682 H 829.896 -5.19103 3.8786 0
M  V30 8683 N 823.302 -0.75937 -1.38099 0
M  V30 8684 C 824.249 -0.135508 -2.30402 0
M  V30 8685 C 825.219 0.703356 -1.50473 0
M  V30 8686 O 826.404 0.658287 -1.79084 0
M  V30 8687 C 823.544 0.747228 -3.36913 0
M  V30 8688 C 822.657 -0.106893 -4.31868 0
M  V30 8689 C 821.792 0.779388 -5.25451 0
M  V30 8690 C 820.831 -0.0780179 -6.1205 0
M  V30 8691 N 819.968 0.765545 -6.97914 0
M  V30 8692 H 824.808 -0.9282 -2.83176 0
M  V30 8693 H 822.345 -0.46935 -1.39411 0
M  V30 8694 H 824.303 1.27371 -3.97281 0
M  V30 8695 H 822.933 1.50565 -2.85535 0
M  V30 8696 H 821.985 -0.751063 -3.72912 0
M  V30 8697 H 823.297 -0.768798 -4.9284 0
M  V30 8698 H 822.451 1.37282 -5.90964 0
M  V30 8699 H 821.19 1.47501 -4.6486 0
M  V30 8700 H 820.195 -0.684078 -5.45528 0
M  V30 8701 H 821.42 -0.770786 -6.74712 0
M  V30 8702 H 819.366 1.44601 -6.39864 0
M  V30 8703 H 819.283 0.160666 -7.55829 0
M  V30 8704 H 820.551 1.34377 -7.6783 0
M  V30 8705 N 824.78 1.49157 -0.508906 0
M  V30 8706 C 826.029 2.0167 0.0346854 0
M  V30 8707 C 826.342 1.39302 1.37311 0
M  V30 8708 O 827.548 1.83189 2.00385 0
M  V30 8709 C 826.004 3.59725 0.112261 0
M  V30 8710 C 825.612 4.31069 -1.21999 0
M  V30 8711 C 827.356 4.20155 0.605798 0
M  V30 8712 C 825.263 5.81001 -1.10415 0
M  V30 8713 H 824.193 0.753814 0.0167355 0
M  V30 8714 H 826.844 1.7162 -0.649518 0
M  V30 8715 H 825.226 3.86525 0.861087 0
M  V30 8716 H 826.4 4.15962 -1.98273 0
M  V30 8717 H 824.715 3.82418 -1.64759 0
M  V30 8718 H 827.312 5.29964 0.710102 0
M  V30 8719 H 827.655 3.84051 1.60656 0
M  V30 8720 H 828.188 3.97705 -0.0867239 0
M  V30 8721 H 824.927 6.21643 -2.07941 0
M  V30 8722 H 824.447 5.9858 -0.382428 0
M  V30 8723 H 826.126 6.42207 -0.786116 0
M  V30 8724 N 826.258 0.243083 1.55714 0
M  V30 8725 C 827.506 -0.381964 1.98458 0
M  V30 8726 C 827.827 -1.58745 1.13247 0
M  V30 8727 O 827.097 -1.94723 0.214384 0
M  V30 8728 H 825.677 -0.144114 0.732967 0
M  V30 8729 H 828.339 0.340985 1.91894 0
M  V30 8730 H 827.435 -0.693702 3.04293 0
M  V30 8731 N 827.736 -1.57571 -0.0300757 0
M  V30 8732 C 828.982 -1.90355 -0.716687 0
M  V30 8733 C 829.337 -0.841568 -1.73018 0
M  V30 8734 O 828.63 0.149847 -1.91013 0
M  V30 8735 C 828.824 -3.27624 -1.42818 0
M  V30 8736 C 828.653 -4.47076 -0.485111 0
M  V30 8737 C 827.423 -5.05188 -0.106533 0
M  V30 8738 C 829.621 -5.13758 0.236059 0
M  V30 8739 N 827.603 -6.08155 0.837899 0
M  V30 8740 C 828.974 -6.1128 1.03619 0
M  V30 8741 C 831.029 -4.96977 0.30311 0
M  V30 8742 C 829.732 -6.93829 1.89721 0
M  V30 8743 C 831.758 -5.80086 1.15125 0
M  V30 8744 C 831.12 -6.77178 1.9393 0
M  V30 8745 H 827.219 -0.745417 -0.236384 0
M  V30 8746 H 829.803 -1.94686 0.0231985 0
M  V30 8747 H 827.974 -3.24224 -2.13854 0
M  V30 8748 H 829.706 -3.47927 -2.0671 0
M  V30 8749 H 826.461 -4.71277 -0.468498 0
M  V30 8750 H 826.885 -6.64311 1.30459 0
M  V30 8751 H 831.527 -4.21791 -0.291858 0
M  V30 8752 H 829.245 -7.6836 2.50298 0
M  V30 8753 H 832.831 -5.6915 1.20665 0
M  V30 8754 H 831.711 -7.4037 2.58499 0
M  V30 8755 N 829.214 0.302327 -1.54673 0
M  V30 8756 C 830.462 1.03565 -1.73547 0
M  V30 8757 C 830.783 1.87843 -0.523448 0
M  V30 8758 O 830.053 1.90367 0.462295 0
M  V30 8759 H 828.633 0.385358 -0.639928 0
M  V30 8760 H 831.295 0.333632 -1.92023 0
M  V30 8761 H 830.391 1.68952 -2.62415 0
M  V30 8762 N 830.692 1.47107 0.565454 0
M  V30 8763 C 831.917 1.57153 1.35343 0
M  V30 8764 C 832.342 0.219247 1.86818 0
M  V30 8765 O 831.7 -0.803539 1.62521 0
M  V30 8766 C 831.748 2.59387 2.50501 0
M  V30 8767 O 830.852 2.14086 3.52478 0
M  V30 8768 H 830.193 0.528209 0.402357 0
M  V30 8769 H 832.723 1.92821 0.684189 0
M  V30 8770 H 832.733 2.79546 2.97184 0
M  V30 8771 H 831.408 3.57579 2.12391 0
M  V30 8772 H 829.985 2.03991 3.12157 0
M  V30 8773 N 832.17 -0.811516 1.35101 0
M  V30 8774 C 833.419 -1.56343 1.27435 0
M  V30 8775 C 833.732 -1.95019 -0.150696 0
M  V30 8776 O 834.938 -2.6924 -0.349586 0
M  V30 8777 C 833.394 -2.82124 2.23459 0
M  V30 8778 C 833.002 -2.50706 3.71283 0
M  V30 8779 C 834.746 -3.60137 2.24726 0
M  V30 8780 C 832.653 -3.72748 4.59143 0
M  V30 8781 H 831.583 -0.58682 0.473453 0
M  V30 8782 H 834.234 -0.892465 1.60335 0
M  V30 8783 H 832.616 -3.50905 1.83525 0
M  V30 8784 H 833.79 -1.89962 4.19823 0
M  V30 8785 H 832.105 -1.85947 3.72576 0
M  V30 8786 H 834.702 -4.50775 2.87587 0
M  V30 8787 H 835.045 -3.97101 1.24965 0
M  V30 8788 H 835.578 -2.98311 2.63164 0
M  V30 8789 H 832.317 -3.40896 5.59884 0
M  V30 8790 H 831.837 -4.32735 4.15332 0
M  V30 8791 H 833.516 -4.40033 4.74321 0
M  V30 8792 N 833.648 -1.19017 -1.03309 0
M  V30 8793 C 834.878 -1.01387 -1.80012 0
M  V30 8794 C 835.286 0.440655 -1.83997 0
M  V30 8795 O 834.629 1.31786 -1.27977 0
M  V30 8796 C 834.691 -1.50171 -3.26633 0
M  V30 8797 C 834.355 -2.98213 -3.46292 0
M  V30 8798 C 835.352 -3.96009 -3.36857 0
M  V30 8799 C 833.037 -3.36812 -3.72643 0
M  V30 8800 C 835.031 -5.30399 -3.5349 0
M  V30 8801 C 832.718 -4.71363 -3.88922 0
M  V30 8802 C 833.716 -5.67966 -3.79347 0
M  V30 8803 O 833.404 -7.00079 -3.95151 0
M  V30 8804 H 833.136 -0.357899 -0.573484 0
M  V30 8805 H 835.69 -1.58171 -1.31039 0
M  V30 8806 H 833.92 -0.877586 -3.7661 0
M  V30 8807 H 835.609 -1.28814 -3.84918 0
M  V30 8808 H 836.375 -3.67534 -3.16455 0
M  V30 8809 H 832.254 -2.62175 -3.7919 0
M  V30 8810 H 835.798 -6.05786 -3.45933 0
M  V30 8811 H 831.695 -4.99536 -4.0882 0
M  V30 8812 H 832.463 -7.07092 -4.12266 0
M  V30 8813 N 835.127 1.22348 -0.993418 0
M  V30 8814 C 836.075 2.26315 -0.537052 0
M  V30 8815 C 837.069 1.643 0.412545 0
M  V30 8816 O 838.275 1.77729 0.285008 0
M  V30 8817 H 834.65 0.735792 -0.155286 0
M  V30 8818 H 836.621 2.62157 -1.42535 0
M  V30 8819 C 835.37 3.47449 0.132118 0
M  V30 8820 H 834.693 3.9543 -0.589519 0
M  V30 8821 H 836.133 4.21965 0.414884 0
M  V30 8822 C 834.592 3.07893 1.36761 0
M  V30 8823 O 835.122 3.17338 2.46291 0
M  V30 8824 N 833.328 2.62672 1.24305 0
M  V30 8825 H 832.875 2.55186 0.351826 0
M  V30 8826 H 832.833 2.36574 2.07076 0
M  V30 8827 N 836.605 0.766683 1.37694 0
M  V30 8828 C 837.833 0.339939 2.04088 0
M  V30 8829 C 838.248 -1.03617 1.57826 0
M  V30 8830 O 837.605 -1.6605 0.757214 0
M  V30 8831 C 837.656 0.368269 3.59619 0
M  V30 8832 O 837.377 1.69009 4.04188 0
M  V30 8833 C 838.878 -0.0707053 4.43244 0
M  V30 8834 H 836.098 0.143189 0.655544 0
M  V30 8835 H 838.642 1.03919 1.76128 0
M  V30 8836 H 836.797 -0.282359 3.8637 0
M  V30 8837 H 837.211 1.62523 4.98685 0
M  V30 8838 H 838.685 0.000273538 5.52 0
M  V30 8839 H 839.162 -1.1204 4.24669 0
M  V30 8840 H 839.768 0.551543 4.21709 0
M  V30 8841 N 838.083 -1.48885 0.516809 0
M  V30 8842 C 839.013 -2.32241 -0.242157 0
M  V30 8843 C 839.994 -1.41258 -0.947633 0
M  V30 8844 O 841.179 -1.70156 -0.935973 0
M  V30 8845 C 838.309 -3.22151 -1.29754 0
M  V30 8846 C 837.263 -4.22053 -0.710995 0
M  V30 8847 C 836.589 -5.01007 -1.86806 0
M  V30 8848 C 837.889 -5.21388 0.30853 0
M  V30 8849 H 839.583 -2.95943 0.453651 0
M  V30 8850 H 837.129 -1.42316 0.219612 0
M  V30 8851 H 839.082 -3.79284 -1.83634 0
M  V30 8852 H 837.806 -2.56423 -2.02274 0
M  V30 8853 H 836.465 -3.66087 -0.193819 0
M  V30 8854 H 836.113 -4.31713 -2.58133 0
M  V30 8855 H 835.813 -5.68615 -1.48159 0
M  V30 8856 H 837.337 -5.60989 -2.4109 0
M  V30 8857 H 838.751 -5.73122 -0.142703 0
M  V30 8858 H 837.148 -5.96975 0.611673 0
M  V30 8859 H 838.218 -4.69329 1.21894 0
M  V30 8860 N 839.561 -0.251338 -1.55583 0
M  V30 8861 C 840.977 0.103409 -1.59265 0
M  V30 8862 C 841.177 1.56559 -1.26852 0
M  V30 8863 O 840.233 2.31071 -1.01796 0
M  V30 8864 C 841.546 -0.249781 -2.99661 0
M  V30 8865 C 843.094 -0.194442 -3.12395 0
M  V30 8866 C 843.569 -0.521728 -4.55019 0
M  V30 8867 N 845.06 -0.472393 -4.60785 0
M  V30 8868 C 845.795 -0.698737 -5.69127 0
M  V30 8869 N 845.291 -0.988443 -6.85713 0
M  V30 8870 N 847.084 -0.629143 -5.58568 0
M  V30 8871 H 839.235 -1.20484 -1.74921 0
M  V30 8872 H 841.498 -0.485092 -0.814488 0
M  V30 8873 H 841.204 -1.26577 -3.28133 0
M  V30 8874 H 841.078 0.420973 -3.74844 0
M  V30 8875 H 843.465 0.812229 -2.83702 0
M  V30 8876 H 843.546 -0.899111 -2.39478 0
M  V30 8877 H 843.19 -1.52597 -4.84434 0
M  V30 8878 H 843.12 0.204468 -5.26203 0
M  V30 8879 H 845.611 -0.257386 -3.77022 0
M  V30 8880 H 845.924 -1.14846 -7.64219 0
M  V30 8881 H 844.269 -1.02596 -6.87386 0
M  V30 8882 H 847.46 -0.402826 -4.66364 0
M  V30 8883 H 847.633 -0.808935 -6.42931 0
M  V30 8884 N 841.039 1.57585 0.0217189 0
M  V30 8885 C 842.45 1.7787 0.567377 0
M  V30 8886 C 842.801 0.883337 1.7519 0
M  V30 8887 O 841.926 0.0800819 2.16252 0
M  V30 8888 C 842.521 3.2257 1.03606 0
M  V30 8889 C 841.08 3.44026 1.52718 0
M  V30 8890 C 840.227 2.73313 0.468545 0
M  V30 8891 H 843.178 1.57377 -0.2045 0
M  V30 8892 H 843.199 3.29488 1.9031 0
M  V30 8893 H 842.711 3.87711 0.173739 0
M  V30 8894 H 840.812 2.8407 2.41111 0
M  V30 8895 H 840.925 4.52659 1.56962 0
M  V30 8896 H 839.289 2.37299 0.925263 0
M  V30 8897 H 840.072 3.41141 -0.384438 0
M  V30 8898 N 842.517 -0.29412 1.54831 0
M  V30 8899 C 843.745 -1.04724 1.78439 0
M  V30 8900 C 844.16 -1.80695 0.547239 0
M  V30 8901 O 843.517 -1.75989 -0.483141 0
M  V30 8902 C 843.568 -2.02242 2.99634 0
M  V30 8903 O 843.289 -1.29352 4.18568 0
M  V30 8904 C 844.79 -2.89537 3.35683 0
M  V30 8905 H 842.01 -0.310285 0.594949 0
M  V30 8906 H 844.554 -0.331306 2.01798 0
M  V30 8907 H 842.709 -2.69328 2.78462 0
M  V30 8908 H 843.123 -1.94901 4.86943 0
M  V30 8909 H 844.597 -3.538 4.23709 0
M  V30 8910 H 845.074 -3.58201 2.54143 0
M  V30 8911 H 845.68 -2.27973 3.59038 0
M  V30 8912 N 843.995 -1.47404 -0.557645 0
M  V30 8913 C 845.244 -1.53268 -1.31118 0
M  V30 8914 C 845.557 -0.199414 -1.94581 0
M  V30 8915 O 846.763 -0.136039 -2.71159 0
M  V30 8916 C 845.219 -2.70178 -2.37764 0
M  V30 8917 C 844.827 -4.10032 -1.80493 0
M  V30 8918 C 846.571 -2.85334 -3.14301 0
M  V30 8919 C 844.478 -5.18244 -2.84916 0
M  V30 8920 H 843.408 -0.570491 -0.493007 0
M  V30 8921 H 846.059 -1.73678 -0.592308 0
M  V30 8922 H 844.441 -2.43147 -3.12563 0
M  V30 8923 H 845.615 -4.46964 -1.12069 0
M  V30 8924 H 843.93 -3.99759 -1.16542 0
M  V30 8925 H 846.527 -3.63347 -3.92279 0
M  V30 8926 H 846.87 -1.93761 -3.68459 0
M  V30 8927 H 847.403 -3.12133 -2.46613 0
M  V30 8928 H 844.142 -6.11691 -2.35614 0
M  V30 8929 H 843.662 -4.85829 -3.51753 0
M  V30 8930 H 845.341 -5.45174 -3.48417 0
M  V30 8931 N 845.473 0.80434 -1.35529 0
M  V30 8932 C 846.421 1.93769 -1.28671 0
M  V30 8933 C 847.415 1.68428 -0.181222 0
M  V30 8934 O 848.621 1.76617 -0.347338 0
M  V30 8935 H 844.996 0.636663 -0.400206 0
M  V30 8936 H 846.967 1.96673 -2.24415 0
M  V30 8937 C 845.716 3.30572 -1.07784 0
M  V30 8938 H 845.039 3.5063 -1.9209 0
M  V30 8939 H 846.479 4.1027 -1.07027 0
M  V30 8940 C 844.938 3.36193 0.218213 0
M  V30 8941 O 845.468 3.82941 1.21323 0
M  V30 8942 N 843.674 2.89455 0.257761 0
M  V30 8943 H 843.221 2.51604 -0.552562 0
M  V30 8944 H 843.179 2.93597 1.12465 0
M  V30 8945 N 846.951 1.19563 1.02676 0
M  V30 8946 C 847.898 0.935291 2.11 0
M  V30 8947 C 848.868 -0.130685 1.65585 0
M  V30 8948 O 850.053 0.0119062 1.90796 0
M  V30 8949 C 847.193 0.482384 3.41712 0
M  V30 8950 C 846.306 1.61537 4.00662 0
M  V30 8951 C 845.441 1.11378 5.19392 0
M  V30 8952 C 844.48 2.22052 5.70403 0
M  V30 8953 N 843.617 1.73185 6.80405 0
M  V30 8954 H 848.457 1.86275 2.32606 0
M  V30 8955 H 845.994 0.928656 1.14081 0
M  V30 8956 H 847.952 0.20118 4.16715 0
M  V30 8957 H 846.582 -0.408086 3.2021 0
M  V30 8958 H 845.634 2.01173 3.22852 0
M  V30 8959 H 846.946 2.44912 4.34534 0
M  V30 8960 H 846.1 0.787935 6.01562 0
M  V30 8961 H 844.839 0.249789 4.8706 0
M  V30 8962 H 843.844 2.55465 4.86845 0
M  V30 8963 H 845.069 3.08911 6.04774 0
M  V30 8964 H 843.015 0.890973 6.49921 0
M  V30 8965 H 842.932 2.50148 7.13416 0
M  V30 8966 H 844.2 1.4357 7.66164 0
M  V30 8967 N 848.429 -1.21819 0.999893 0
M  V30 8968 C 849.678 -1.90066 0.675108 0
M  V30 8969 C 849.991 -1.78624 -0.79705 0
M  V30 8970 O 851.197 -2.41851 -1.23371 0
M  V30 8971 C 849.653 -3.40795 1.15702 0
M  V30 8972 C 849.261 -3.60859 2.6549 0
M  V30 8973 C 851.005 -4.147 0.906889 0
M  V30 8974 C 848.912 -5.05324 3.07248 0
M  V30 8975 H 847.842 -0.711763 0.248815 0
M  V30 8976 H 850.493 -1.3792 1.21038 0
M  V30 8977 H 848.875 -3.92164 0.549832 0
M  V30 8978 H 850.049 -3.19951 3.31614 0
M  V30 8979 H 848.364 -3.00298 2.88461 0
M  V30 8980 H 850.961 -5.21187 1.1945 0
M  V30 8981 H 851.304 -4.16004 -0.156923 0
M  V30 8982 H 851.837 -3.69379 1.47662 0
M  V30 8983 H 848.576 -5.09164 4.12834 0
M  V30 8984 H 848.096 -5.47108 2.45832 0
M  V30 8985 H 849.775 -5.73797 2.98941 0
M  V30 8986 N 849.908 -0.773975 -1.37286 0
M  V30 8987 C 851.136 -0.350758 -2.03905 0
M  V30 8988 C 851.551 1.02779 -1.58373 0
M  V30 8989 O 850.908 1.65646 -0.766009 0
M  V30 8990 C 850.959 -0.387335 -3.59419 0
M  V30 8991 O 850.68 -1.7115 -4.03286 0
M  V30 8992 C 852.181 0.047198 -4.43275 0
M  V30 8993 H 849.401 -0.146663 -0.654775 0
M  V30 8994 H 851.945 -1.04852 -1.75574 0
M  V30 8995 H 850.1 0.261865 -3.86514 0
M  V30 8996 H 850.514 -1.65166 -4.97816 0
M  V30 8997 H 851.988 -0.0295474 -5.51992 0
M  V30 8998 H 852.465 1.09786 -4.25257 0
M  V30 8999 H 853.071 -0.573899 -4.2141 0
M  V30 9000 N 851.386 1.48609 -0.524698 0
M  V30 9001 C 852.336 2.26505 0.260696 0
M  V30 9002 C 853.32 1.32378 0.914597 0
M  V30 9003 O 854.512 1.5695 0.818277 0
M  V30 9004 C 851.641 3.17313 1.31024 0
M  V30 9005 C 850.727 4.18911 0.661391 0
M  V30 9006 N 851.118 5.05183 -0.24981 0
M  V30 9007 C 849.416 4.36425 0.91922 0
M  V30 9008 C 850.117 5.78348 -0.623598 0
M  V30 9009 N 849.093 5.43598 0.0140839 0
M  V30 9010 H 852.895 2.90582 -0.440388 0
M  V30 9011 H 850.409 1.5875 -0.342364 0
M  V30 9012 H 852.406 3.71772 1.88656 0
M  V30 9013 H 851.066 2.54791 2.01275 0
M  V30 9014 H 852.077 5.1415 -0.622093 0
M  V30 9015 H 848.754 3.85095 1.6127 0
M  V30 9016 H 850.144 6.57775 -1.37046 0
M  V30 9017 N 852.864 0.259585 1.55447 0
M  V30 9018 C 853.797 -0.675542 2.17972 0
M  V30 9019 C 854.775 -1.16362 1.13572 0
M  V30 9020 O 855.959 -1.23944 1.42021 0
M  V30 9021 C 853.086 -1.91952 2.79056 0
M  V30 9022 C 852.132 -1.56824 3.96621 0
M  V30 9023 S 852.965 -0.659846 5.31419 0
M  V30 9024 C 854.121 -1.91255 5.95963 0
M  V30 9025 H 854.354 -0.144236 2.9695 0
M  V30 9026 H 851.887 0.0439448 1.54337 0
M  V30 9027 H 853.845 -2.63362 3.14882 0
M  V30 9028 H 852.506 -2.42196 2 0
M  V30 9029 H 851.699 -2.49348 4.37997 0
M  V30 9030 H 851.301 -0.934472 3.62138 0
M  V30 9031 H 853.593 -2.85834 6.14252 0
M  V30 9032 H 854.536 -1.54207 6.91105 0
M  V30 9033 H 854.944 -2.07042 5.25161 0
M  V30 9034 N 854.342 -1.57594 -0.0133615 0
M  V30 9035 C 855.289 -2.07574 -1.00905 0
M  V30 9036 C 856.259 -0.968231 -1.34961 0
M  V30 9037 O 857.444 -1.23981 -1.45028 0
M  V30 9038 C 854.584 -2.5728 -2.30002 0
M  V30 9039 C 853.697 -3.81881 -2.01967 0
M  V30 9040 C 852.832 -4.20139 -3.25049 0
M  V30 9041 C 851.871 -5.37614 -2.92639 0
M  V30 9042 N 851.008 -5.71229 -4.08218 0
M  V30 9043 H 855.848 -2.92382 -0.575899 0
M  V30 9044 H 853.385 -1.4455 -0.272722 0
M  V30 9045 H 855.343 -2.84171 -3.05454 0
M  V30 9046 H 853.973 -1.75365 -2.71011 0
M  V30 9047 H 853.025 -3.61979 -1.16942 0
M  V30 9048 H 854.337 -4.67441 -1.74069 0
M  V30 9049 H 853.491 -4.48242 -4.08857 0
M  V30 9050 H 852.23 -3.33262 -3.56073 0
M  V30 9051 H 851.235 -5.09248 -2.07235 0
M  V30 9052 H 852.46 -6.26157 -2.62876 0
M  V30 9053 H 850.406 -4.8731 -4.39164 0
M  V30 9054 H 850.323 -6.51333 -3.83799 0
M  V30 9055 H 851.591 -6.03917 -4.92854 0
M  V30 9056 N 855.82 0.285905 -1.54985 0
M  V30 9057 C 857.067 1.0192 -1.74982 0
M  V30 9058 C 857.395 1.86743 -0.543816 0
M  V30 9059 O 856.65 1.89874 0.473972 0
M  V30 9060 C 856.949 1.94193 -3.0004 0
M  V30 9061 C 856.615 1.25225 -4.33162 0
M  V30 9062 C 855.277 1.06149 -4.69346 0
M  V30 9063 C 857.629 0.760427 -5.15623 0
M  V30 9064 C 854.957 0.365991 -5.85557 0
M  V30 9065 C 857.309 0.0785787 -6.32551 0
M  V30 9066 C 855.973 -0.124002 -6.67385 0
M  V30 9067 H 855.243 0.372951 -0.640304 0
M  V30 9068 H 857.89 0.292652 -1.89251 0
M  V30 9069 H 856.195 2.73426 -2.80616 0
M  V30 9070 H 857.892 2.51029 -3.12707 0
M  V30 9071 H 854.482 1.41081 -4.04715 0
M  V30 9072 H 858.666 0.895466 -4.88155 0
M  V30 9073 H 853.922 0.198193 -6.11079 0
M  V30 9074 H 858.096 -0.310339 -6.95708 0
M  V30 9075 H 855.723 -0.664918 -7.57287 0
M  V30 9076 N 857.298 1.47698 0.54982 0
M  V30 9077 C 858.208 1.63386 1.68351 0
M  V30 9078 C 859.224 0.516583 1.66155 0
M  V30 9079 O 860.4 0.785088 1.85468 0
M  V30 9080 C 857.465 1.6513 3.04849 0
M  V30 9081 C 856.526 2.88338 3.18056 0
M  V30 9082 C 855.759 2.8999 4.48042 0
M  V30 9083 O 855.982 2.00633 5.3395 0
M  V30 9084 O 854.916 3.81938 4.65196 0
M  V30 9085 H 858.742 2.59329 1.58057 0
M  V30 9086 H 856.327 1.30869 0.72067 0
M  V30 9087 H 858.209 1.68913 3.86065 0
M  V30 9088 H 856.884 0.723555 3.1551 0
M  V30 9089 H 855.791 2.90097 2.36209 0
M  V30 9090 H 857.124 3.80431 3.12302 0
M  V30 9091 N 858.776 -0.797141 1.35954 0
M  V30 9092 C 859.724 -1.93084 1.29697 0
M  V30 9093 C 860.718 -1.68329 0.190152 0
M  V30 9094 O 861.924 -1.7643 0.3567 0
M  V30 9095 H 858.299 -0.634531 0.403577 0
M  V30 9096 H 860.27 -1.95481 2.25455 0
M  V30 9097 C 859.019 -3.29996 1.09536 0
M  V30 9098 H 858.342 -3.49607 1.93946 0
M  V30 9099 H 859.782 -4.09696 1.09202 0
M  V30 9100 C 858.241 -3.36304 -0.200381 0
M  V30 9101 O 858.771 -3.83579 -1.19291 0
M  V30 9102 N 856.977 -2.89587 -0.242406 0
M  V30 9103 H 856.524 -2.51307 0.565897 0
M  V30 9104 H 856.482 -2.94189 -1.10906 0
M  V30 9105 N 860.254 -1.20106 -1.0204 0
M  V30 9106 C 861.665 -1.00992 -1.57027 0
M  V30 9107 C 862.016 0.434782 -1.91322 0
M  V30 9108 O 861.141 1.31557 -1.71819 0
M  V30 9109 C 861.736 -1.82697 -2.85319 0
M  V30 9110 C 860.295 -1.67959 -3.36848 0
M  V30 9111 C 859.442 -1.80868 -2.10195 0
M  V30 9112 H 862.393 -1.34354 -0.844676 0
M  V30 9113 H 862.414 -1.32809 -3.5657 0
M  V30 9114 H 861.926 -2.87839 -2.60328 0
M  V30 9115 H 860.027 -0.654389 -3.66809 0
M  V30 9116 H 860.14 -2.49006 -4.09308 0
M  V30 9117 H 858.504 -1.24015 -2.22469 0
M  V30 9118 H 859.287 -2.87486 -1.87635 0
M  V30 9119 N 861.732 1.21287 -1.00634 0
M  V30 9120 C 862.679 2.23705 -0.567876 0
M  V30 9121 C 863.649 1.61043 0.406753 0
M  V30 9122 O 864.834 1.88289 0.308499 0
M  V30 9123 C 861.974 3.44961 0.097996 0
M  V30 9124 C 861.087 4.22091 -0.919972 0
M  V30 9125 C 860.222 5.30718 -0.226222 0
M  V30 9126 C 859.261 5.99581 -1.23165 0
M  V30 9127 N 858.398 6.99821 -0.565278 0
M  V30 9128 H 863.238 2.60571 -1.44592 0
M  V30 9129 H 860.775 1.28049 -0.724006 0
M  V30 9130 H 862.733 4.1418 0.501097 0
M  V30 9131 H 861.363 3.08818 0.939744 0
M  V30 9132 H 860.415 3.52038 -1.44131 0
M  V30 9133 H 861.727 4.69476 -1.68505 0
M  V30 9134 H 860.881 6.06253 0.232917 0
M  V30 9135 H 859.62 4.84343 0.571247 0
M  V30 9136 H 858.625 5.22816 -1.70128 0
M  V30 9137 H 859.85 6.48042 -2.03022 0
M  V30 9138 H 857.796 6.55656 0.212508 0
M  V30 9139 H 857.713 7.4528 -1.26858 0
M  V30 9140 H 858.981 7.79393 -0.129389 0
M  V30 9141 N 863.21 0.781244 1.36873 0
M  V30 9142 C 864.158 0.161889 2.32036 0
M  V30 9143 C 865.152 -0.674225 1.55405 0
M  V30 9144 O 866.358 -0.570223 1.70729 0
M  V30 9145 H 862.733 0.0335702 0.75125 0
M  V30 9146 H 864.704 0.980078 2.81846 0
M  V30 9147 C 863.453 -0.695352 3.40676 0
M  V30 9148 H 862.776 -0.0613425 3.99753 0
M  V30 9149 H 864.216 -1.09553 4.09602 0
M  V30 9150 C 862.675 -1.85008 2.81556 0
M  V30 9151 O 863.205 -2.94616 2.73065 0
M  V30 9152 N 861.411 -1.65364 2.38962 0
M  V30 9153 H 860.958 -0.762106 2.46068 0
M  V30 9154 H 860.916 -2.42789 1.99752 0
M  V30 9155 N 864.689 -1.48329 0.532571 0
M  V30 9156 C 865.914 -2.074 0.00147755 0
M  V30 9157 C 866.339 -1.38615 -1.27151 0
M  V30 9158 O 865.697 -0.452949 -1.75551 0
M  V30 9159 C 865.745 -3.60029 -0.202866 0
M  V30 9160 O 864.849 -3.92327 -1.27097 0
M  V30 9161 H 864.19 -0.662777 0.0402883 0
M  V30 9162 H 866.72 -1.90701 0.741224 0
M  V30 9163 H 866.73 -4.05783 -0.424722 0
M  V30 9164 H 865.405 -4.09496 0.727033 0
M  V30 9165 H 863.982 -3.58348 -1.03156 0
M  V30 9166 N 866.167 -0.267825 -1.55308 0
M  V30 9167 C 867.444 0.402449 -1.91415 0
M  V30 9168 C 867.824 1.7428 -1.1912 0
M  V30 9169 O 867.172 2.2631 -0.315609 0
M  V30 9170 C 867.382 0.549926 -3.4464 0
M  V30 9171 C 868.73 0.836188 -4.16285 0
M  V30 9172 O 869.754 0.635009 -3.50494 0
M  V30 9173 O 868.613 1.22051 -5.32697 0
M  V30 9174 H 865.707 0.219177 -0.797427 0
M  V30 9175 H 868.253 -0.313439 -1.6678 0
M  V30 9176 H 867.025 -0.393641 -3.89315 0
M  V30 9177 H 866.648 1.31556 -3.75205 0
M  V30 9178 N 867.645 1.57599 0.00500368 0
M  V30 9179 C 868.555 2.11532 1.01446 0
M  V30 9180 C 869.571 1.05941 1.3803 0
M  V30 9181 O 870.747 1.37815 1.46864 0
M  V30 9182 C 867.812 2.60382 2.28915 0
M  V30 9183 C 866.873 3.80554 1.98689 0
M  V30 9184 C 866.106 4.27064 3.20081 0
M  V30 9185 O 866.329 3.72939 4.31593 0
M  V30 9186 O 865.263 5.1927 3.04371 0
M  V30 9187 H 869.089 2.97993 0.586011 0
M  V30 9188 H 866.674 1.47718 0.223519 0
M  V30 9189 H 868.556 2.92024 3.03809 0
M  V30 9190 H 867.231 1.77022 2.71007 0
M  V30 9191 H 866.138 3.53893 1.21286 0
M  V30 9192 H 867.471 4.64972 1.61437 0
M  V30 9193 N 869.123 -0.277682 1.55134 0
M  V30 9194 C 870.353 -1.02677 1.79279 0
M  V30 9195 C 870.761 -1.80599 0.563962 0
M  V30 9196 O 870.104 -1.77416 -0.476378 0
M  V30 9197 C 870.166 -2.03617 2.96277 0
M  V30 9198 C 869.83 -1.44676 4.33495 0
M  V30 9199 C 870.827 -0.864811 5.12657 0
M  V30 9200 C 868.512 -1.47537 4.80144 0
M  V30 9201 C 870.506 -0.319322 6.366 0
M  V30 9202 C 868.193 -0.926016 6.04043 0
M  V30 9203 C 869.191 -0.348988 6.82108 0
M  V30 9204 O 868.879 0.191964 8.03671 0
M  V30 9205 H 868.611 -0.309232 0.601125 0
M  V30 9206 H 871.165 -0.315308 2.02965 0
M  V30 9207 H 869.395 -2.78509 2.68272 0
M  V30 9208 H 871.084 -2.64616 3.07788 0
M  V30 9209 H 871.85 -0.835438 4.7775 0
M  V30 9210 H 867.729 -1.91389 4.19394 0
M  V30 9211 H 871.273 0.131709 6.97476 0
M  V30 9212 H 867.17 -0.952613 6.38432 0
M  V30 9213 H 867.938 0.0808779 8.1846 0
M  V30 9214 N 870.601 -1.47988 -0.541979 0
M  V30 9215 C 871.848 -1.55393 -1.29843 0
M  V30 9216 C 872.176 -0.222668 -1.93221 0
M  V30 9217 O 871.431 0.785936 -1.79225 0
M  V30 9218 C 871.73 -2.63189 -2.41798 0
M  V30 9219 C 871.396 -4.05999 -1.96151 0
M  V30 9220 C 870.058 -4.44872 -1.83419 0
M  V30 9221 C 872.41 -4.95545 -1.61507 0
M  V30 9222 C 869.738 -5.71108 -1.34361 0
M  V30 9223 C 872.09 -6.22259 -1.13915 0
M  V30 9224 C 870.754 -6.59998 -0.997911 0
M  V30 9225 H 870.024 -0.568623 -0.47513 0
M  V30 9226 H 872.671 -1.81654 -0.606142 0
M  V30 9227 H 870.976 -2.30743 -3.16647 0
M  V30 9228 H 872.673 -2.66138 -2.99953 0
M  V30 9229 H 869.263 -3.75294 -2.07008 0
M  V30 9230 H 873.447 -4.662 -1.70209 0
M  V30 9231 H 868.703 -5.99083 -1.22103 0
M  V30 9232 H 872.877 -6.91048 -0.861755 0
M  V30 9233 H 870.504 -7.57704 -0.615561 0
M  V30 9234 N 872.079 0.78992 -1.36375 0
M  V30 9235 C 873.026 1.90254 -1.3066 0
M  V30 9236 C 873.996 1.65171 -0.17539 0
M  V30 9237 O 875.181 1.87338 -0.361824 0
M  V30 9238 C 872.321 3.27057 -1.10125 0
M  V30 9239 C 871.434 3.64215 -2.32317 0
M  V30 9240 C 870.569 4.90134 -2.04798 0
M  V30 9241 C 869.608 5.19969 -3.22953 0
M  V30 9242 N 868.745 6.37071 -2.95102 0
M  V30 9243 H 873.585 1.94474 -2.25796 0
M  V30 9244 H 871.122 0.951022 -1.12223 0
M  V30 9245 H 873.08 4.05947 -0.962453 0
M  V30 9246 H 871.71 3.22261 -0.186444 0
M  V30 9247 H 870.762 2.80454 -2.57002 0
M  V30 9248 H 872.074 3.82212 -3.20492 0
M  V30 9249 H 871.228 5.76888 -1.87845 0
M  V30 9250 H 869.967 4.74205 -1.13932 0
M  V30 9251 H 868.972 4.31699 -3.40465 0
M  V30 9252 H 870.197 5.37817 -4.14644 0
M  V30 9253 H 868.143 6.22535 -2.06848 0
M  V30 9254 H 868.06 6.55398 -3.76815 0
M  V30 9255 H 869.328 7.26808 -2.81727 0
M  V30 9256 N 873.557 1.20646 1.01402 0
M  V30 9257 C 874.504 0.957618 2.09996 0
M  V30 9258 C 875.474 -0.113115 1.65714 0
M  V30 9259 O 876.659 0.032142 1.90773 0
M  V30 9260 C 873.799 0.5186 3.41181 0
M  V30 9261 C 872.912 1.65777 3.98926 0
M  V30 9262 C 872.047 1.16881 5.18182 0
M  V30 9263 C 871.086 2.2809 5.68015 0
M  V30 9264 N 870.223 1.80392 6.7853 0
M  V30 9265 H 875.063 1.88732 2.30617 0
M  V30 9266 H 872.6 0.940703 1.13089 0
M  V30 9267 H 874.558 0.245367 4.16478 0
M  V30 9268 H 873.188 -0.3741 3.20625 0
M  V30 9269 H 872.24 2.04586 3.207 0
M  V30 9270 H 873.552 2.49507 4.31912 0
M  V30 9271 H 872.706 0.851694 6.00692 0
M  V30 9272 H 871.445 0.301434 4.86768 0
M  V30 9273 H 870.45 2.60614 4.84108 0
M  V30 9274 H 871.675 3.15308 6.01463 0
M  V30 9275 H 869.621 0.959856 6.4894 0
M  V30 9276 H 869.538 2.57701 7.10722 0
M  V30 9277 H 870.806 1.51688 7.64598 0
M  V30 9278 N 875.035 -1.20752 1.01276 0
M  V30 9279 C 876.265 -1.93725 0.717934 0
M  V30 9280 C 876.673 -1.74769 -0.724732 0
M  V30 9281 O 876.016 -1.05642 -1.50285 0
M  V30 9282 C 876.078 -3.46196 0.968954 0
M  V30 9283 C 875.742 -3.88909 2.39998 0
M  V30 9284 C 876.739 -3.94982 3.38061 0
M  V30 9285 C 874.424 -4.21006 2.7397 0
M  V30 9286 C 876.418 -4.32558 4.68159 0
M  V30 9287 C 874.105 -4.58257 4.04282 0
M  V30 9288 C 875.103 -4.64004 5.01187 0
M  V30 9289 O 874.791 -5.00403 6.29168 0
M  V30 9290 H 874.523 -0.622663 0.263186 0
M  V30 9291 H 877.077 -1.54299 1.35577 0
M  V30 9292 H 875.307 -3.85728 0.273952 0
M  V30 9293 H 876.996 -4.00394 0.666312 0
M  V30 9294 H 877.762 -3.70353 3.13151 0
M  V30 9295 H 873.641 -4.15725 1.99233 0
M  V30 9296 H 877.185 -4.36959 5.43795 0
M  V30 9297 H 873.082 -4.82341 4.28973 0
M  V30 9298 H 873.85 -5.18409 6.33399 0
M  V30 9299 N 876.513 -0.788492 -1.36457 0
M  V30 9300 C 877.76 -0.360461 -1.99266 0
M  V30 9301 C 878.088 1.0676 -1.62581 0
M  V30 9302 O 877.343 1.75205 -0.871884 0
M  V30 9303 C 877.642 -0.470255 -3.54293 0
M  V30 9304 C 877.308 -1.85899 -4.10795 0
M  V30 9305 C 875.97 -2.23896 -4.25939 0
M  V30 9306 C 878.322 -2.76836 -4.41601 0
M  V30 9307 C 875.65 -3.52235 -4.69199 0
M  V30 9308 C 878.002 -4.04602 -4.86292 0
M  V30 9309 C 876.666 -4.42623 -4.99641 0
M  V30 9310 H 875.936 -0.131902 -0.729166 0
M  V30 9311 H 878.583 -1.00577 -1.62962 0
M  V30 9312 H 876.888 0.258559 -3.90946 0
M  V30 9313 H 878.585 -0.120119 -4.0082 0
M  V30 9314 H 875.175 -1.55372 -3.99447 0
M  V30 9315 H 879.359 -2.48735 -4.2947 0
M  V30 9316 H 874.615 -3.81565 -4.77722 0
M  V30 9317 H 878.789 -4.75182 -5.09092 0
M  V30 9318 H 876.416 -5.42125 -5.32921 0
M  V30 9319 N 877.991 1.48044 -0.54043 0
M  V30 9320 C 878.938 2.29781 0.216597 0
M  V30 9321 C 879.908 1.38021 0.924094 0
M  V30 9322 O 881.093 1.66985 0.923078 0
M  V30 9323 C 878.233 3.21623 1.2511 0
M  V30 9324 C 877.346 4.28467 0.551384 0
M  V30 9325 C 876.481 5.07477 1.56972 0
M  V30 9326 C 875.52 6.06113 0.854048 0
M  V30 9327 N 874.657 6.78143 1.81842 0
M  V30 9328 H 879.497 2.94001 -0.486578 0
M  V30 9329 H 877.034 1.44929 -0.251789 0
M  V30 9330 H 878.992 3.73279 1.8633 0
M  V30 9331 H 877.622 2.59305 1.92252 0
M  V30 9332 H 876.674 3.79997 -0.174982 0
M  V30 9333 H 877.986 4.98799 -0.0100542 0
M  V30 9334 H 877.14 5.63199 2.25592 0
M  V30 9335 H 875.879 4.37008 2.16507 0
M  V30 9336 H 874.884 5.49585 0.153838 0
M  V30 9337 H 876.109 6.78584 0.264675 0
M  V30 9338 H 874.055 6.10417 2.40265 0
M  V30 9339 H 873.972 7.44587 1.3087 0
M  V30 9340 H 875.24 7.38448 2.49628 0
M  V30 9341 N 879.47 0.276058 1.55163 0
M  V30 9342 C 880.433 -0.597924 2.21263 0
M  V30 9343 C 881.433 -1.0806 1.19078 0
M  V30 9344 O 882.623 -0.980626 1.43977 0
M  V30 9345 C 879.755 -1.82503 2.87933 0
M  V30 9346 H 880.948 -0.0207769 2.99893 0
M  V30 9347 H 878.501 0.0266823 1.56277 0
M  V30 9348 H 879.236 -2.44266 2.13318 0
M  V30 9349 H 879.021 -1.48683 3.62816 0
M  V30 9350 H 880.511 -2.44651 3.38431 0
M  V30 9351 N 880.948 -1.576 0.00335426 0
M  V30 9352 C 881.878 -2.11668 -0.985839 0
M  V30 9353 C 882.859 -1.02661 -1.35627 0
M  V30 9354 O 884.044 -1.30361 -1.43943 0
M  V30 9355 C 881.174 -2.62273 -2.27662 0
M  V30 9356 C 880.128 -3.75837 -2.0477 0
M  V30 9357 C 879.454 -4.12769 -3.39891 0
M  V30 9358 C 880.754 -5.02975 -1.40759 0
M  V30 9359 H 882.448 -2.9457 -0.535637 0
M  V30 9360 H 879.994 -1.41702 -0.256204 0
M  V30 9361 H 881.947 -2.98727 -2.97221 0
M  V30 9362 H 880.671 -1.76498 -2.74802 0
M  V30 9363 H 879.33 -3.39782 -1.37636 0
M  V30 9364 H 878.978 -3.24013 -3.8474 0
M  V30 9365 H 878.678 -4.89281 -3.25389 0
M  V30 9366 H 880.202 -4.51784 -4.1076 0
M  V30 9367 H 881.616 -5.37179 -2.00279 0
M  V30 9368 H 880.013 -5.84315 -1.36734 0
M  V30 9369 H 881.083 -4.83431 -0.377218 0
M  V30 9370 N 882.426 0.269451 -1.5528 0
M  V30 9371 C 883.336 1.35511 -1.91505 0
M  V30 9372 C 884.352 1.53854 -0.812712 0
M  V30 9373 O 885.528 1.67912 -1.1121 0
M  V30 9374 C 882.593 2.6937 -2.18267 0
M  V30 9375 C 881.654 2.59743 -3.41807 0
M  V30 9376 C 880.887 3.87219 -3.67283 0
M  V30 9377 O 881.11 4.88066 -2.95208 0
M  V30 9378 O 880.044 3.87209 -4.60818 0
M  V30 9379 H 883.87 1.07785 -2.8393 0
M  V30 9380 H 881.455 0.468282 -1.41871 0
M  V30 9381 H 883.337 3.48513 -2.36889 0
M  V30 9382 H 882.012 2.96874 -1.29024 0
M  V30 9383 H 880.919 1.78964 -3.28516 0
M  V30 9384 H 882.252 2.37188 -4.3128 0
M  V30 9385 N 883.904 1.48273 0.534124 0
M  V30 9386 C 884.814 1.65162 1.66609 0
M  V30 9387 C 885.83 0.534177 1.65598 0
M  V30 9388 O 887.006 0.804715 1.84625 0
M  V30 9389 C 884.071 1.68354 3.03081 0
M  V30 9390 C 883.132 2.91696 3.1498 0
M  V30 9391 C 882.365 2.94725 4.44941 0
M  V30 9392 O 882.588 2.06285 5.31792 0
M  V30 9393 O 881.522 3.8685 4.61119 0
M  V30 9394 H 885.348 2.60991 1.55298 0
M  V30 9395 H 882.933 1.31626 0.706749 0
M  V30 9396 H 884.815 1.72998 3.84252 0
M  V30 9397 H 883.49 0.756978 3.14725 0
M  V30 9398 H 882.397 2.92586 2.33119 0
M  V30 9399 H 883.73 3.83722 3.0825 0
M  V30 9400 N 885.382 -0.782676 1.36792 0
M  V30 9401 C 886.292 -1.92679 1.33835 0
M  V30 9402 C 887.308 -1.72344 0.23952 0
M  V30 9403 O 888.484 -1.95766 0.473045 0
M  V30 9404 C 885.549 -3.27644 1.1336 0
M  V30 9405 C 884.61 -3.6071 2.32781 0
M  V30 9406 C 883.843 -4.89234 2.13273 0
M  V30 9407 O 884.066 -5.59468 1.11136 0
M  V30 9408 O 883 -5.21112 3.01208 0
M  V30 9409 H 886.826 -1.98124 2.30175 0
M  V30 9410 H 884.411 -0.923887 1.17408 0
M  V30 9411 H 886.293 -4.08394 1.03886 0
M  V30 9412 H 884.968 -3.23076 0.200868 0
M  V30 9413 H 883.875 -2.80238 2.47825 0
M  V30 9414 H 885.208 -3.70008 3.24584 0
M  V30 9415 N 886.86 -1.21182 -1.00761 0
M  V30 9416 C 888.109 -1.02166 -1.73911 0
M  V30 9417 C 888.422 0.445638 -1.90456 0
M  V30 9418 O 889.628 0.755132 -2.60787 0
M  V30 9419 C 888.084 -1.77936 -3.12837 0
M  V30 9420 C 887.692 -3.28819 -3.04273 0
M  V30 9421 C 889.436 -1.67319 -3.90134 0
M  V30 9422 C 887.343 -3.97089 -4.38262 0
M  V30 9423 H 886.273 -0.378665 -0.652019 0
M  V30 9424 H 888.924 -1.44891 -1.12601 0
M  V30 9425 H 887.306 -1.28003 -3.74742 0
M  V30 9426 H 888.48 -3.86035 -2.51622 0
M  V30 9427 H 886.795 -3.39949 -2.40465 0
M  V30 9428 H 889.392 -2.15659 -4.8928 0
M  V30 9429 H 889.735 -0.630959 -4.11491 0
M  V30 9430 H 890.268 -2.14716 -3.34876 0
M  V30 9431 H 887.007 -5.01503 -4.22107 0
M  V30 9432 H 886.527 -3.44662 -4.90885 0
M  V30 9433 H 888.206 -4.01854 -5.07072 0
M  V30 9434 N 888.338 1.20213 -1.01915 0
M  V30 9435 C 889.566 1.93622 -0.729255 0
M  V30 9436 C 889.981 1.74923 0.710444 0
M  V30 9437 O 889.338 1.06484 1.48214 0
M  V30 9438 C 889.389 3.45651 -1.05865 0
M  V30 9439 O 889.11 3.63741 -2.44181 0
M  V30 9440 C 890.611 4.36201 -0.790176 0
M  V30 9441 H 887.831 0.615333 -0.267594 0
M  V30 9442 H 890.375 1.52633 -1.36101 0
M  V30 9443 H 888.53 3.84511 -0.47225 0
M  V30 9444 H 888.944 4.57702 -2.56143 0
M  V30 9445 H 890.418 5.41516 -1.07071 0
M  V30 9446 H 890.895 4.38334 0.275609 0
M  V30 9447 H 891.501 4.03008 -1.35885 0
M  V30 9448 N 889.816 0.795718 1.36037 0
M  V30 9449 C 891.062 0.371574 1.99367 0
M  V30 9450 C 891.395 -1.0557 1.62999 0
M  V30 9451 O 890.67 -1.73051 0.887895 0
M  V30 9452 C 890.953 0.542622 3.55988 0
M  V30 9453 C 890.806 2.01404 4.0219 0
M  V30 9454 C 892.125 -0.0384527 4.40083 0
M  V30 9455 H 889.244 0.136483 0.724252 0
M  V30 9456 H 891.886 1.00323 1.61355 0
M  V30 9457 H 890.036 0.0049053 3.885 0
M  V30 9458 H 891.708 2.6133 3.80137 0
M  V30 9459 H 889.951 2.51439 3.53498 0
M  V30 9460 H 890.622 2.08466 5.11122 0
M  V30 9461 H 893.098 0.420634 4.13968 0
M  V30 9462 H 891.974 0.111214 5.48787 0
M  V30 9463 H 892.235 -1.13116 4.27384 0
M  V30 9464 N 891.294 -1.47756 0.548274 0
M  V30 9465 C 892.542 -2.02089 0.0208542 0
M  V30 9466 C 892.863 -1.42589 -1.33017 0
M  V30 9467 O 892.133 -0.597825 -1.86555 0
M  V30 9468 H 890.713 -0.746985 0.00472023 0
M  V30 9469 H 893.375 -1.81262 0.716257 0
M  V30 9470 H 892.471 -3.12012 -0.0739016 0
M  V30 9471 N 892.772 -0.284283 -1.55015 0
M  V30 9472 C 893.702 0.592663 -2.25853 0
M  V30 9473 C 894.683 1.15151 -1.25197 0
M  V30 9474 O 895.868 1.18395 -1.53936 0
M  V30 9475 C 892.998 1.77254 -2.98661 0
M  V30 9476 C 891.952 1.34482 -4.06323 0
M  V30 9477 C 891.278 2.60853 -4.66754 0
M  V30 9478 C 892.578 0.488288 -5.20013 0
M  V30 9479 H 894.272 0.00187041 -2.994 0
M  V30 9480 H 891.818 -0.000540402 -1.44 0
M  V30 9481 H 893.771 2.39199 -3.46932 0
M  V30 9482 H 892.495 2.38931 -2.22664 0
M  V30 9483 H 891.154 0.748519 -3.58877 0
M  V30 9484 H 890.802 3.20808 -3.87416 0
M  V30 9485 H 890.502 2.32942 -5.39455 0
M  V30 9486 H 892.026 3.23631 -5.1778 0
M  V30 9487 H 893.44 1.01298 -5.6428 0
M  V30 9488 H 891.837 0.303669 -5.99331 0
M  V30 9489 H 892.907 -0.490727 -4.8241 0
M  V30 9490 N 894.251 1.57596 -0.0117121 0
M  V30 9491 C 895.667 1.55837 0.344506 0
M  V30 9492 C 895.867 1.01557 1.74036 0
M  V30 9493 O 894.923 0.654563 2.43868 0
M  V30 9494 C 896.236 2.99973 0.209023 0
M  V30 9495 C 897.784 3.11717 0.283092 0
M  V30 9496 C 898.259 4.57659 0.176599 0
M  V30 9497 N 899.75 4.62608 0.234133 0
M  V30 9498 C 900.485 5.73132 0.175252 0
M  V30 9499 N 899.981 6.92768 0.0662888 0
M  V30 9500 N 901.774 5.61638 0.227972 0
M  V30 9501 H 893.925 1.91215 -0.924692 0
M  V30 9502 H 896.188 0.878807 -0.355531 0
M  V30 9503 H 895.894 3.4357 -0.751826 0
M  V30 9504 H 895.768 3.64075 0.98635 0
M  V30 9505 H 898.155 2.68043 1.23439 0
M  V30 9506 H 898.236 2.50369 -0.52431 0
M  V30 9507 H 897.88 5.02011 -0.771205 0
M  V30 9508 H 897.81 5.16967 1.00264 0
M  V30 9509 H 900.301 3.76549 0.319203 0
M  V30 9510 H 900.614 7.72795 0.0275765 0
M  V30 9511 H 898.959 6.94993 0.0317502 0
M  V30 9512 H 902.15 4.67063 0.311377 0
M  V30 9513 H 902.323 6.47754 0.178621 0
M  V30 9514 N 895.729 -0.261212 1.5542 0
M  V30 9515 C 896.677 -1.34298 1.89913 0
M  V30 9516 C 897.671 -1.50547 0.776665 0
M  V30 9517 O 898.877 -1.52191 0.961139 0
M  V30 9518 H 895.252 -0.4494 0.602946 0
M  V30 9519 H 897.223 -1.02464 2.80256 0
M  V30 9520 C 895.972 -2.69423 2.19788 0
M  V30 9521 H 895.295 -2.57715 3.05652 0
M  V30 9522 H 896.735 -3.44026 2.47835 0
M  V30 9523 C 895.194 -3.21423 1.00939 0
M  V30 9524 O 895.724 -4.00921 0.250034 0
M  V30 9525 N 893.93 -2.7926 0.803883 0
M  V30 9526 H 893.477 -2.14724 1.42308 0
M  V30 9527 H 893.435 -3.14398 0.0103257 0
M  V30 9528 N 897.207 -1.48554 -0.526253 0
M  V30 9529 C 898.137 -1.66252 -1.63959 0
M  V30 9530 C 899.118 -0.511351 -1.62232 0
M  V30 9531 O 900.303 -0.744322 -1.7937 0
M  V30 9532 C 897.433 -1.70556 -3.02536 0
M  V30 9533 C 896.387 -2.8521 -3.19123 0
M  V30 9534 C 895.713 -2.74606 -4.58798 0
M  V30 9535 C 897.013 -4.26463 -3.0154 0
M  V30 9536 H 898.707 -2.59459 -1.49404 0
M  V30 9537 H 896.253 -1.24862 -0.717326 0
M  V30 9538 H 898.206 -1.81524 -3.80298 0
M  V30 9539 H 896.93 -0.739297 -3.18123 0
M  V30 9540 H 895.589 -2.73802 -2.43779 0
M  V30 9541 H 895.237 -1.75941 -4.71226 0
M  V30 9542 H 894.937 -3.51544 -4.70841 0
M  V30 9543 H 896.461 -2.87548 -5.38655 0
M  V30 9544 H 897.875 -4.38685 -3.69091 0
M  V30 9545 H 896.272 -5.04428 -3.25073 0
M  V30 9546 H 897.342 -4.42667 -1.97925 0
M  V30 9547 N 898.685 0.775411 -1.37205 0
M  V30 9548 C 899.618 1.8957 -1.27037 0
M  V30 9549 C 900.596 1.61891 -0.151643 0
M  V30 9550 O 901.78 1.85673 -0.325218 0
M  V30 9551 C 898.907 3.24712 -0.963316 0
M  V30 9552 C 897.953 3.71306 -2.09842 0
M  V30 9553 S 898.786 3.8541 -3.71778 0
M  V30 9554 C 899.942 5.23406 -3.43216 0
M  V30 9555 H 900.175 1.97905 -2.21857 0
M  V30 9556 H 897.708 0.936127 -1.22784 0
M  V30 9557 H 899.666 4.02768 -0.792983 0
M  V30 9558 H 898.327 3.14083 -0.0326561 0
M  V30 9559 H 897.52 4.69271 -1.83849 0
M  V30 9560 H 897.122 3.00341 -2.2287 0
M  V30 9561 H 899.414 6.08454 -2.97977 0
M  V30 9562 H 900.357 5.54409 -4.40495 0
M  V30 9563 H 900.765 4.9117 -2.78231 0
M  V30 9564 N 900.163 1.21714 1.00117 0
M  V30 9565 C 901.073 0.99597 2.12409 0
M  V30 9566 C 902.089 -0.0531431 1.73919 0
M  V30 9567 O 903.265 0.137757 2.00928 0
M  V30 9568 C 900.33 0.567593 3.42022 0
M  V30 9569 C 899.391 1.68936 3.94663 0
M  V30 9570 C 898.624 1.28133 5.1809 0
M  V30 9571 O 898.847 0.156574 5.70185 0
M  V30 9572 O 897.781 2.0947 5.64275 0
M  V30 9573 H 901.607 1.93657 2.33946 0
M  V30 9574 H 899.192 1.00236 1.10784 0
M  V30 9575 H 901.074 0.338664 4.20037 0
M  V30 9576 H 899.749 -0.34424 3.21864 0
M  V30 9577 H 898.656 1.97274 3.17858 0
M  V30 9578 H 899.989 2.57876 4.19238 0
M  V30 9579 N 901.641 -1.19671 1.02551 0
M  V30 9580 C 902.588 -2.22773 0.603394 0
M  V30 9581 C 903.558 -1.61669 -0.381081 0
M  V30 9582 O 904.743 -1.88756 -0.278505 0
M  V30 9583 C 901.883 -3.45073 -0.0431034 0
M  V30 9584 C 900.996 -4.20574 0.987006 0
M  V30 9585 C 900.131 -5.30291 0.310626 0
M  V30 9586 C 899.17 -5.97545 1.32688 0
M  V30 9587 N 898.307 -6.98833 0.676542 0
M  V30 9588 H 903.147 -2.58238 1.48719 0
M  V30 9589 H 900.684 -1.26881 0.744286 0
M  V30 9590 H 902.642 -4.14925 -0.435141 0
M  V30 9591 H 901.272 -3.10274 -0.890495 0
M  V30 9592 H 900.324 -3.497 1.49713 0
M  V30 9593 H 901.636 -4.66736 1.75952 0
M  V30 9594 H 900.79 -6.06547 -0.136438 0
M  V30 9595 H 899.529 -4.8519 -0.49412 0
M  V30 9596 H 898.534 -5.20043 1.78424 0
M  V30 9597 H 899.759 -6.4473 2.13306 0
M  V30 9598 H 897.705 -6.55911 -0.108172 0
M  V30 9599 H 897.622 -7.43168 1.38699 0
M  V30 9600 H 898.89 -7.79088 0.253367 0
M  V30 9601 O 903.158 -0.938774 -1.31413 0
M  V30 9602 H 903.849 -0.565583 -1.85259 0
M  V30 END ATOM
M  V30 BEGIN BOND
M  V30 END BOND
M  V30 END CTAB
M  END
$$$$
