drugbank_target|Q79FX6 Cyclopropane mycolic acid synthase MmaA2 (DB01718; DB01752)
 OpenBabel12092120223D

  0  0  0     0  0            999 V3000
M  V30 BEGIN CTAB
M  V30 COUNTS 4570 4626 0 0 0
M  V30 BEGIN ATOM
M  V30 1 H -0.908 1.98254 -0.117106 0
M  V30 2 N 0 1.576 0 0
M  V30 3 C 0.933 2.03868 1.02534 0
M  V30 4 C 1.911 0.928543 1.3348 0
M  V30 5 O 3.095 1.19667 1.45644 0
M  V30 6 C 0.222 2.43627 2.35294 0
M  V30 7 C -0.732 3.65373 2.2001 0
M  V30 8 S 0.101 5.13292 1.52614 0
M  V30 9 C 1.257 5.56322 2.86805 0
M  V30 10 H 1.49 2.90518 0.631377 0
M  V30 11 H -0.977 1.52953 0.210867 0
M  V30 12 H 0.981 2.67203 3.11629 0
M  V30 13 H -0.358 1.57376 2.7183 0
M  V30 14 H -1.165 3.90944 3.18086 0
M  V30 15 H -1.563 3.418 1.51819 0
M  V30 16 H 0.729 5.58782 3.83104 0
M  V30 17 H 1.672 6.56266 2.65933 0
M  V30 18 H 2.08 4.83886 2.90714 0
M  V30 19 N 1.4781 -0.272755 1.55222 0
M  V30 20 C 2.7241 -1.00581 1.761 0
M  V30 21 C 3.0571 -1.85932 0.560625 0
M  V30 22 O 2.3321 -1.89416 -0.441801 0
M  V30 23 C 2.6151 -1.88816 3.06628 0
M  V30 24 C 2.4681 -1.06457 4.37021 0
M  V30 25 C 3.7871 -2.8752 3.33197 0
M  V30 26 H 0.9061 -0.364244 0.640699 0
M  V30 27 H 3.5481 -0.278189 1.87952 0
M  V30 28 H 1.6981 -2.50856 2.96654 0
M  V30 29 H 3.3701 -0.464863 4.58952 0
M  V30 30 H 1.6131 -0.368043 4.32236 0
M  V30 31 H 2.2841 -1.71514 5.24678 0
M  V30 32 H 4.7601 -2.35615 3.42965 0
M  V30 33 H 3.6361 -3.46399 4.25792 0
M  V30 34 H 3.8971 -3.62657 2.52849 0
M  V30 35 N 2.9562 -1.48159 -0.537278 0
M  V30 36 C 3.9042 -1.62573 -1.66352 0
M  V30 37 C 4.8982 -0.492366 -1.62087 0
M  V30 38 O 6.1042 -0.670847 -1.67032 0
M  V30 39 H 2.4792 -0.511992 -0.550789 0
M  V30 40 H 4.4502 -2.57176 -1.51337 0
M  V30 41 C 3.1992 -1.67583 -3.04649 0
M  V30 42 H 2.5222 -2.54151 -3.08622 0
M  V30 43 H 3.9622 -1.81713 -3.83088 0
M  V30 44 C 2.4212 -0.413039 -3.34358 0
M  V30 45 O 2.9512 0.477259 -3.98855 0
M  V30 46 N 1.1572 -0.286961 -2.8918 0
M  V30 47 H 0.7042 -1.01241 -2.36871 0
M  V30 48 H 0.6622 0.556963 -3.09427 0
M  V30 49 N 4.4343 0.785586 -1.36625 0
M  V30 50 C 5.7113 1.53198 -1.21613 0
M  V30 51 C 6.0913 2.10187 0.196113 0
M  V30 52 O 5.4393 1.94318 1.20219 0
M  V30 53 C 5.6493 2.62388 -2.30116 0
M  V30 54 C 6.9973 3.30167 -2.66974 0
M  V30 55 O 8.0213 2.72674 -2.29188 0
M  V30 56 O 6.8803 4.34077 -3.32023 0
M  V30 57 H 3.9743 0.677865 -0.473738 0
M  V30 58 H 6.5203 0.823739 -1.48367 0
M  V30 59 H 5.2923 2.18299 -3.24748 0
M  V30 60 H 4.9153 3.40827 -2.0475 0
M  V30 61 N 5.9124 1.20967 1.01018 0
M  V30 62 C 6.8424 0.988272 2.11555 0
M  V30 63 C 7.8234 -0.0849778 1.69888 0
M  V30 64 O 9.0084 0.0738202 1.9406 0
M  V30 65 C 6.1384 0.546528 3.42973 0
M  V30 66 C 5.0924 1.56375 3.9841 0
M  V30 67 C 4.4184 0.97842 5.25672 0
M  V30 68 C 5.7184 2.94922 4.31066 0
M  V30 69 H 7.4124 1.91276 2.30334 0
M  V30 70 H 4.9584 0.921073 1.1069 0
M  V30 71 H 6.9114 0.378839 4.19694 0
M  V30 72 H 5.6354 -0.413598 3.23971 0
M  V30 73 H 4.2944 1.71891 3.23804 0
M  V30 74 H 3.9424 0.0101688 5.02999 0
M  V30 75 H 3.6424 1.65784 5.63728 0
M  V30 76 H 5.1664 0.821939 6.05043 0
M  V30 77 H 6.5804 2.8288 4.9865 0
M  V30 78 H 4.9774 3.5983 4.80253 0
M  V30 79 H 6.0474 3.4616 3.39561 0
M  V30 80 N 7.3905 -1.2043 1.01659 0
M  V30 81 C 8.6185 -1.93777 0.725132 0
M  V30 82 C 9.0335 -1.74772 -0.714166 0
M  V30 83 O 8.3905 -1.06169 -1.4844 0
M  V30 84 C 8.4415 -3.45876 1.05129 0
M  V30 85 O 8.1625 -3.6426 2.43406 0
M  V30 86 C 9.6635 -4.36368 0.780891 0
M  V30 87 H 6.8835 -0.615901 0.266284 0
M  V30 88 H 9.4275 -1.52922 1.35776 0
M  V30 89 H 7.5825 -3.8461 0.464065 0
M  V30 90 H 7.9965 -4.58246 2.55169 0
M  V30 91 H 9.4705 -5.41743 1.05918 0
M  V30 92 H 9.9475 -4.38275 -0.284937 0
M  V30 93 H 10.5535 -4.03296 1.35027 0
M  V30 94 N 8.8686 -0.792821 -1.36206 0
M  V30 95 C 10.2796 -0.429513 -1.81692 0
M  V30 96 C 10.6306 1.04695 -1.65932 0
M  V30 97 O 9.7556 1.81256 -1.18218 0
M  V30 98 C 10.3506 -0.772831 -3.29868 0
M  V30 99 C 8.9096 -0.462307 -3.7355 0
M  V30 100 C 8.0566 -1.00569 -2.5842 0
M  V30 101 H 11.0076 -0.985672 -1.24379 0
M  V30 102 H 11.0286 -0.0651928 -3.80444 0
M  V30 103 H 10.5406 -1.84747 -3.41307 0
M  V30 104 H 8.6416 0.604158 -3.67669 0
M  V30 105 H 8.7546 -0.985299 -4.68859 0
M  V30 106 H 7.1186 -0.428734 -2.51066 0
M  V30 107 H 7.9016 -2.08616 -2.72643 0
M  V30 108 N 10.3467 1.47872 -0.545128 0
M  V30 109 C 11.2967 2.26842 0.229456 0
M  V30 110 C 12.2807 1.33626 0.896267 0
M  V30 111 O 13.4727 1.58063 0.79657 0
M  V30 112 C 10.6017 3.19089 1.26638 0
M  V30 113 C 9.6877 4.19783 0.603598 0
M  V30 114 N 10.0787 5.0479 -0.319405 0
M  V30 115 C 8.3767 4.3765 0.858989 0
M  V30 116 C 9.0777 5.77433 -0.703241 0
M  V30 117 N 8.0537 5.43566 -0.0608309 0
M  V30 118 H 11.8557 2.89947 -0.480391 0
M  V30 119 H 9.3697 1.58263 -0.364209 0
M  V30 120 H 11.3667 3.74337 1.83515 0
M  V30 121 H 10.0267 2.5754 1.97745 0
M  V30 122 H 11.0377 5.13244 -0.692889 0
M  V30 123 H 7.7147 3.87281 1.55948 0
M  V30 124 H 9.1047 6.55824 -1.46098 0
M  V30 125 N 11.8248 0.280983 1.55075 0
M  V30 126 C 13.0718 -0.334115 1.99725 0
M  V30 127 C 13.3998 -1.5542 1.1694 0
M  V30 128 O 12.6548 -1.94361 0.228531 0
M  V30 129 C 12.9538 -0.754656 3.49342 0
M  V30 130 C 12.6198 0.361445 4.49449 0
M  V30 131 C 11.2818 0.667893 4.76542 0
M  V30 132 C 13.6338 1.11322 5.09173 0
M  V30 133 C 10.9618 1.7296 5.60626 0
M  V30 134 C 13.3138 2.1647 5.9441 0
M  V30 135 C 11.9778 2.47742 6.19822 0
M  V30 136 H 11.2478 -0.122261 0.730844 0
M  V30 137 H 13.8948 0.395917 1.87363 0
M  V30 138 H 12.1998 -1.56446 3.5921 0
M  V30 139 H 13.8968 -1.24142 3.813 0
M  V30 140 H 10.4868 0.112481 4.28452 0
M  V30 141 H 14.6708 0.88973 4.8826 0
M  V30 142 H 9.9268 1.97684 5.78559 0
M  V30 143 H 14.1008 2.75193 6.3972 0
M  V30 144 H 11.7278 3.30145 6.84769 0
M  V30 145 N 13.3029 -1.57598 0.00835791 0
M  V30 146 C 14.2129 -2.12385 -0.996487 0
M  V30 147 C 15.2289 -1.07108 -1.37127 0
M  V30 148 O 16.4049 -1.39055 -1.4569 0
M  V30 149 C 13.4699 -2.62314 -2.26699 0
M  V30 150 C 12.5309 -3.82225 -1.95456 0
M  V30 151 C 11.7639 -4.29763 -3.16449 0
M  V30 152 O 11.9869 -3.76584 -4.28416 0
M  V30 153 O 10.9209 -5.21832 -2.99958 0
M  V30 154 H 14.7469 -2.98479 -0.560725 0
M  V30 155 H 12.3319 -1.47903 -0.210987 0
M  V30 156 H 14.2139 -2.94589 -3.01322 0
M  V30 157 H 12.8889 -1.79313 -2.69497 0
M  V30 158 H 11.7959 -3.54909 -1.18282 0
M  V30 159 H 13.1289 -4.66324 -1.57489 0
M  V30 160 N 14.781 0.264519 -1.55364 0
M  V30 161 C 16.058 1.01677 -1.67096 0
M  V30 162 C 16.438 2.03996 -0.543015 0
M  V30 163 O 15.786 2.23907 0.45585 0
M  V30 164 C 15.996 1.66596 -3.0667 0
M  V30 165 C 17.344 2.17442 -3.64697 0
M  V30 166 O 18.368 1.76568 -3.09358 0
M  V30 167 O 17.227 2.92439 -4.61673 0
M  V30 168 H 14.321 0.472161 -0.678965 0
M  V30 169 H 16.867 0.259703 -1.67701 0
M  V30 170 H 15.639 0.924962 -3.80211 0
M  V30 171 H 15.262 2.48968 -3.10001 0
M  V30 172 N 16.2591 1.48442 0.529413 0
M  V30 173 C 17.5051 1.5672 1.28711 0
M  V30 174 C 17.8381 0.2406 1.92704 0
M  V30 175 O 17.1131 -0.753454 1.79313 0
M  V30 176 C 17.3961 2.70587 2.37603 0
M  V30 177 C 17.2491 4.12953 1.78297 0
M  V30 178 C 18.5681 2.80212 3.39366 0
M  V30 179 H 15.6871 0.570474 0.466613 0
M  V30 180 H 18.3291 1.80617 0.589706 0
M  V30 181 H 16.4791 2.50342 2.97088 0
M  V30 182 H 18.1511 4.44639 1.22858 0
M  V30 183 H 16.3941 4.19927 1.0883 0
M  V30 184 H 17.0651 4.88448 2.57144 0
M  V30 185 H 19.5411 2.98553 2.89836 0
M  V30 186 H 18.4171 3.61611 4.12951 0
M  V30 187 H 18.6781 1.88393 3.99951 0
M  V30 188 N 17.7372 -0.778329 1.37039 0
M  V30 189 C 18.6692 -1.90034 1.2814 0
M  V30 190 C 19.6822 -1.61585 0.198558 0
M  V30 191 O 20.8712 -1.72625 0.454175 0
M  V30 192 C 17.9712 -3.25108 0.956968 0
M  V30 193 C 17.1442 -3.81253 2.14394 0
M  V30 194 C 16.2032 -4.94789 1.79082 0
M  V30 195 O 15.2292 -5.10721 2.51301 0
M  V30 196 N 16.4312 -5.75878 0.731043 0
M  V30 197 H 19.1962 -1.98186 2.24816 0
M  V30 198 H 16.7572 -0.957129 1.30578 0
M  V30 199 H 18.7492 -3.9857 0.701701 0
M  V30 200 H 17.3192 -3.125 0.0789812 0
M  V30 201 H 16.5392 -2.99647 2.56135 0
M  V30 202 H 17.8272 -4.15495 2.93668 0
M  V30 203 H 17.2252 -5.65547 0.131618 0
M  V30 204 H 15.7822 -6.49596 0.535622 0
M  V30 205 N 19.2153 -1.21501 -1.00376 0
M  V30 206 C 20.1783 -0.976927 -2.07337 0
M  V30 207 C 21.1783 0.0525322 -1.60714 0
M  V30 208 O 22.3683 -0.184869 -1.73216 0
M  V30 209 C 19.5003 -0.473423 -3.37597 0
M  V30 210 H 20.6933 -1.92587 -2.29892 0
M  V30 211 H 18.2463 -1.03217 -1.17371 0
M  V30 212 H 18.9813 0.480379 -3.20722 0
M  V30 213 H 18.7663 -1.216 -3.72768 0
M  V30 214 H 20.2563 -0.32675 -4.1632 0
M  V30 215 N 20.6934 1.19889 -1.02296 0
M  V30 216 C 21.6434 2.20777 -0.56934 0
M  V30 217 C 22.6274 1.56379 0.378741 0
M  V30 218 O 23.8194 1.75859 0.200673 0
M  V30 219 C 20.9484 3.43196 0.0845077 0
M  V30 220 C 20.0344 4.14749 -0.88566 0
M  V30 221 N 20.4254 4.62584 -2.04573 0
M  V30 222 C 18.7234 4.40347 -0.707835 0
M  V30 223 C 19.4244 5.17466 -2.65714 0
M  V30 224 N 18.4004 5.0791 -1.93723 0
M  V30 225 H 22.2024 2.55434 -1.45365 0
M  V30 226 H 19.7164 1.35897 -0.88915 0
M  V30 227 H 21.7134 4.14707 0.427067 0
M  V30 228 H 20.3734 3.10042 0.964574 0
M  V30 229 H 21.3844 4.57597 -2.4254 0
M  V30 230 H 18.0614 4.17317 0.12364 0
M  V30 231 H 19.4514 5.64808 -3.63925 0
M  V30 232 N 22.1715 0.800033 1.35784 0
M  V30 233 C 23.4015 0.389041 2.02904 0
M  V30 234 C 23.8095 -1.0027 1.60445 0
M  V30 235 O 23.1525 -1.65633 0.794453 0
M  V30 236 C 23.2145 0.385495 3.57427 0
M  V30 237 C 22.8785 1.72662 4.23127 0
M  V30 238 C 23.8755 2.68385 4.4527 0
M  V30 239 C 21.5605 2.00883 4.60381 0
M  V30 240 C 23.5545 3.90517 5.03761 0
M  V30 241 C 21.2415 3.2328 5.18588 0
M  V30 242 C 22.2395 4.17915 5.40218 0
M  V30 243 O 21.9275 5.38153 5.97199 0
M  V30 244 H 21.6595 0.157032 0.657508 0
M  V30 245 H 24.2135 1.08311 1.74522 0
M  V30 246 H 22.4435 -0.365128 3.84972 0
M  V30 247 H 24.1325 -0.00228296 4.059 0
M  V30 248 H 24.8985 2.47872 4.16874 0
M  V30 249 H 20.7775 1.28037 4.42863 0
M  V30 250 H 24.3215 4.64395 5.2056 0
M  V30 251 H 20.2185 3.43667 5.4641 0
M  V30 252 H 20.9865 5.3936 6.15656 0
M  V30 253 N 23.6496 -1.47581 0.552962 0
M  V30 254 C 24.9266 -1.95563 -0.0381515 0
M  V30 255 C 25.3066 -1.49552 -1.48988 0
M  V30 256 O 24.6546 -0.732414 -2.16444 0
M  V30 257 C 24.8646 -3.48848 0.102919 0
M  V30 258 C 26.2126 -4.24577 -0.0446082 0
M  V30 259 O 27.2366 -3.56187 0.0302548 0
M  V30 260 O 26.0956 -5.46116 -0.204923 0
M  V30 261 H 23.1896 -0.824321 -0.0665067 0
M  V30 262 H 25.7356 -1.58001 0.619186 0
M  V30 263 H 24.5076 -3.75129 1.11328 0
M  V30 264 H 24.1306 -3.93165 -0.592224 0
M  V30 265 N 25.1277 -0.289203 -1.54924 0
M  V30 266 C 26.0577 0.58549 -2.2604 0
M  V30 267 C 27.0387 1.14753 -1.25562 0
M  V30 268 O 28.2237 1.17906 -1.54311 0
M  V30 269 C 25.3537 1.76305 -2.99222 0
M  V30 270 C 24.3077 1.33191 -4.06748 0
M  V30 271 C 23.6337 2.5937 -4.6758 0
M  V30 272 C 24.9337 0.471775 -5.20165 0
M  V30 273 H 26.6277 -0.00763532 -2.99399 0
M  V30 274 H 24.1737 -0.00511229 -1.43999 0
M  V30 275 H 26.1267 2.38097 -3.47689 0
M  V30 276 H 24.8507 2.38223 -2.23422 0
M  V30 277 H 23.5097 0.737121 -3.59113 0
M  V30 278 H 23.1577 3.19576 -3.88433 0
M  V30 279 H 22.8577 2.31228 -5.40192 0
M  V30 280 H 24.3817 3.21985 -5.18804 0
M  V30 281 H 25.7957 0.995056 -5.64599 0
M  V30 282 H 24.1927 0.284639 -5.99425 0
M  V30 283 H 25.2627 -0.506041 -4.82252 0
M  V30 284 N 26.6058 1.57591 -0.0167156 0
M  V30 285 C 27.8308 1.9598 0.67872 0
M  V30 286 C 28.2558 0.892546 1.65575 0
M  V30 287 O 27.6138 -0.147772 1.80697 0
M  V30 288 C 27.6618 3.33468 1.37227 0
M  V30 289 O 26.7658 3.28954 2.48722 0
M  V30 290 H 26.1068 0.639339 0.17928 0
M  V30 291 H 28.6368 2.04463 -0.0748802 0
M  V30 292 H 28.6468 3.69417 1.7319 0
M  V30 293 H 27.3218 4.10694 0.656007 0
M  V30 294 H 25.8988 3.04705 2.14963 0
M  V30 295 N 28.0839 -0.256276 1.55502 0
M  V30 296 C 29.3609 -1.00789 1.67633 0
M  V30 297 C 29.7409 -2.03706 0.553826 0
M  V30 298 O 29.0889 -2.24145 -0.443969 0
M  V30 299 C 29.2989 -1.64968 3.07549 0
M  V30 300 C 30.6469 -2.15505 3.65845 0
M  V30 301 O 31.6709 -1.74925 3.1029 0
M  V30 302 O 30.5299 -2.89986 4.63217 0
M  V30 303 H 27.6239 -0.468553 0.681459 0
M  V30 304 H 30.1699 -0.250806 1.67836 0
M  V30 305 H 28.9419 -0.904785 3.80696 0
M  V30 306 H 28.5649 -2.47321 3.11317 0
M  V30 307 N 29.562 -1.4872 -0.521534 0
M  V30 308 C 30.839 -1.4766 -1.2828 0
M  V30 309 C 31.219 -0.19292 -2.10217 0
M  V30 310 O 30.567 0.825193 -2.13079 0
M  V30 311 C 30.777 -2.74358 -2.15705 0
M  V30 312 C 32.125 -3.23028 -2.75569 0
M  V30 313 O 33.149 -2.75333 -2.25987 0
M  V30 314 O 32.008 -4.0604 -3.65778 0
M  V30 315 H 29.102 -0.590085 -0.579421 0
M  V30 316 H 31.648 -1.60963 -0.537492 0
M  V30 317 H 30.42 -3.59292 -1.54999 0
M  V30 318 H 30.043 -2.63816 -2.97467 0
M  V30 319 N 31.0401 0.771051 -1.3745 0
M  V30 320 C 32.2871 1.52963 -1.32697 0
M  V30 321 C 32.6151 1.94299 0.0883274 0
M  V30 322 O 31.8701 1.64397 1.0617 0
M  V30 323 C 32.1691 2.80676 -2.2126 0
M  V30 324 C 31.8351 2.58389 -3.69521 0
M  V30 325 C 30.4971 2.52019 -4.09927 0
M  V30 326 C 32.8491 2.38469 -4.63446 0
M  V30 327 C 30.1771 2.23721 -5.42371 0
M  V30 328 C 32.5291 2.11694 -5.96128 0
M  V30 329 C 31.1931 2.03769 -6.35637 0
M  V30 330 H 30.4631 0.559732 -0.485573 0
M  V30 331 H 33.1101 0.888083 -1.69662 0
M  V30 332 H 31.4151 3.49392 -1.77291 0
M  V30 333 H 33.1121 3.38557 -2.14895 0
M  V30 334 H 29.7021 2.6421 -3.37478 0
M  V30 335 H 33.8861 2.4238 -4.33089 0
M  V30 336 H 29.1421 2.16081 -5.71943 0
M  V30 337 H 33.3161 1.9528 -6.6846 0
M  V30 338 H 30.9431 1.81606 -7.38189 0
M  V30 339 N 32.5182 1.22032 0.997298 0
M  V30 340 C 33.7652 1.04222 1.73621 0
M  V30 341 C 34.0932 -0.423264 1.89839 0
M  V30 342 O 33.3482 -1.3302 1.43542 0
M  V30 343 C 33.6472 1.69345 3.14733 0
M  V30 344 C 33.3132 3.19226 3.18442 0
M  V30 345 C 31.9752 3.60124 3.19161 0
M  V30 346 C 34.3272 4.15181 3.15078 0
M  V30 347 C 31.6552 4.95467 3.14212 0
M  V30 348 C 34.0072 5.50495 3.1167 0
M  V30 349 C 32.6712 5.90779 3.10703 0
M  V30 350 H 31.9412 0.381374 0.635323 0
M  V30 351 H 34.5882 1.51732 1.16831 0
M  V30 352 H 32.8932 1.14147 3.74803 0
M  V30 353 H 34.5902 1.53059 3.7064 0
M  V30 354 H 31.1802 2.86659 3.18629 0
M  V30 355 H 35.3642 3.84605 3.13676 0
M  V30 356 H 30.6202 5.25916 3.11805 0
M  V30 357 H 34.7942 6.24576 3.08022 0
M  V30 358 H 32.4212 6.9562 3.06622 0
M  V30 359 N 33.9963 -1.19345 1.0293 0
M  V30 360 C 35.4123 -1.41069 0.746446 0
M  V30 361 C 35.6123 -1.90078 -0.668776 0
M  V30 362 O 34.6683 -2.0778 -1.4347 0
M  V30 363 C 35.9813 -2.42141 1.78292 0
M  V30 364 C 37.5293 -2.55887 1.80252 0
M  V30 365 C 38.0043 -3.60214 2.8286 0
M  V30 366 N 39.4953 -3.67711 2.81679 0
M  V30 367 C 40.2303 -4.48128 3.57727 0
M  V30 368 N 39.7263 -5.32248 4.43491 0
M  V30 369 N 41.5193 -4.42782 3.46267 0
M  V30 370 H 33.6703 -0.858536 1.94275 0
M  V30 371 H 35.9333 -0.439541 0.839945 0
M  V30 372 H 35.6393 -2.13155 2.79746 0
M  V30 373 H 35.5133 -3.41323 1.60557 0
M  V30 374 H 37.9003 -2.84196 0.794757 0
M  V30 375 H 37.9813 -1.56858 2.02062 0
M  V30 376 H 37.6253 -3.32647 3.83807 0
M  V30 377 H 37.5553 -4.58895 2.58307 0
M  V30 378 H 40.0463 -3.07634 2.19476 0
M  V30 379 H 40.3593 -5.90729 4.98256 0
M  V30 380 H 38.7043 -5.31707 4.47564 0
M  V30 381 H 41.8953 -3.76107 2.78677 0
M  V30 382 H 42.0683 -5.05215 4.05785 0
M  V30 383 N 35.4744 -0.807222 -1.35358 0
M  V30 384 C 36.4044 -0.232509 -2.3234 0
M  V30 385 C 37.3854 0.642386 -1.57504 0
M  V30 386 O 38.5704 0.572526 -1.85569 0
M  V30 387 C 35.7004 0.619238 -3.41735 0
M  V30 388 C 34.6544 -0.157215 -4.27711 0
M  V30 389 C 33.9804 0.816273 -5.28433 0
M  V30 390 C 35.2804 -1.35656 -5.04376 0
M  V30 391 H 36.9744 -1.04276 -2.80654 0
M  V30 392 H 34.5204 -0.50288 -1.34934 0
M  V30 393 H 36.4734 1.03137 -4.08584 0
M  V30 394 H 35.1974 1.46239 -2.92031 0
M  V30 395 H 33.8564 -0.550525 -3.62443 0
M  V30 396 H 33.5044 1.65494 -4.74996 0
M  V30 397 H 33.2044 0.301067 -5.86828 0
M  V30 398 H 34.7284 1.22659 -5.98153 0
M  V30 399 H 36.1424 -1.01927 -5.64166 0
M  V30 400 H 34.5394 -1.8063 -5.7227 0
M  V30 401 H 35.6094 -2.14288 -4.34981 0
M  V30 402 N 36.9525 1.47285 -0.560781 0
M  V30 403 C 38.1995 2.02464 -0.038062 0
M  V30 404 C 38.5275 1.43474 1.31322 0
M  V30 405 O 37.7825 0.581311 1.86867 0
M  V30 406 C 38.0815 3.57258 0.100784 0
M  V30 407 C 37.7475 4.35184 -1.18007 0
M  V30 408 C 36.4095 4.56194 -1.53103 0
M  V30 409 C 38.7615 4.80098 -2.02867 0
M  V30 410 C 36.0895 5.19367 -2.729 0
M  V30 411 C 38.4415 5.44593 -3.21871 0
M  V30 412 C 37.1055 5.63835 -3.57276 0
M  V30 413 H 36.3755 0.740869 -0.0139279 0
M  V30 414 H 39.0225 1.76916 -0.733012 0
M  V30 415 H 37.3275 3.81819 0.878724 0
M  V30 416 H 39.0245 3.97606 0.520639 0
M  V30 417 H 35.6145 4.19113 -0.8968 0
M  V30 418 H 39.7985 4.63642 -1.7706 0
M  V30 419 H 35.0545 5.32459 -3.00496 0
M  V30 420 H 39.2285 5.78358 -3.87911 0
M  V30 421 H 36.8555 6.12557 -4.50197 0
M  V30 422 N 38.4306 0.297415 1.54768 0
M  V30 423 C 39.3606 -0.573494 2.26348 0
M  V30 424 C 40.3416 -1.14085 1.26169 0
M  V30 425 O 41.5266 -1.17086 1.54934 0
M  V30 426 C 38.6566 -1.74716 3.00153 0
M  V30 427 C 37.6106 -1.31032 4.07449 0
M  V30 428 C 36.9366 -2.56887 4.68949 0
M  V30 429 C 38.2366 -0.444183 5.20408 0
M  V30 430 H 39.9306 0.0235131 2.99391 0
M  V30 431 H 37.4766 0.0127488 1.43994 0
M  V30 432 H 39.4296 -2.3625 3.48947 0
M  V30 433 H 38.1536 -2.37035 2.24682 0
M  V30 434 H 36.8126 -0.718066 3.59499 0
M  V30 435 H 36.4606 -3.17512 3.90122 0
M  V30 436 H 36.1606 -2.2836 5.41411 0
M  V30 437 H 37.6846 -3.19229 5.20505 0
M  V30 438 H 39.0986 -0.9651 5.65118 0
M  V30 439 H 37.4956 -0.252846 5.99567 0
M  V30 440 H 38.5656 0.531609 4.81977 0
M  V30 441 N 39.9087 -1.5758 0.0250728 0
M  V30 442 C 41.1857 -1.82917 -0.692873 0
M  V30 443 C 41.5657 -0.908137 -1.90568 0
M  V30 444 O 40.9137 0.0372298 -2.2847 0
M  V30 445 C 41.1237 -3.32034 -1.07492 0
M  V30 446 C 42.4717 -3.98406 -1.46826 0
M  V30 447 O 43.4957 -3.36505 -1.16801 0
M  V30 448 O 42.3547 -5.07497 -2.02754 0
M  V30 449 H 39.4487 -0.754079 -0.33955 0
M  V30 450 H 41.9947 -1.69619 0.0524456 0
M  V30 451 H 40.7667 -3.90728 -0.211552 0
M  V30 452 H 40.3897 -3.50424 -1.87854 0
M  V30 453 N 41.3868 0.248026 -1.55636 0
M  V30 454 C 42.7978 0.817177 -1.67866 0
M  V30 455 C 43.1488 1.86069 -0.622322 0
M  V30 456 O 42.2738 2.15157 0.231618 0
M  V30 457 C 42.8688 1.489 -3.04326 0
M  V30 458 C 41.4278 2.00587 -3.185 0
M  V30 459 C 40.5748 0.856573 -2.63739 0
M  V30 460 H 43.5258 0.0238579 -1.58682 0
M  V30 461 H 43.5468 2.35698 -2.98708 0
M  V30 462 H 43.0588 0.729279 -3.81186 0
M  V30 463 H 41.1598 2.79443 -2.4646 0
M  V30 464 H 41.2728 2.20402 -4.25393 0
M  V30 465 H 39.6368 1.25678 -2.21534 0
M  V30 466 H 40.4198 0.109953 -3.43124 0
M  V30 467 N 42.8649 1.48995 0.513639 0
M  V30 468 C 44.0929 1.61531 1.29288 0
M  V30 469 C 44.5079 0.281801 1.86685 0
M  V30 470 O 43.8649 -0.731111 1.67215 0
M  V30 471 C 43.9159 2.67449 2.43215 0
M  V30 472 O 43.6369 3.95626 1.88179 0
M  V30 473 C 45.1379 2.90575 3.34785 0
M  V30 474 H 42.3579 0.544165 0.392588 0
M  V30 475 H 44.9019 1.9494 0.617956 0
M  V30 476 H 43.0569 2.36853 3.0656 0
M  V30 477 H 43.4709 4.53868 2.62876 0
M  V30 478 H 44.9449 3.68449 4.11035 0
M  V30 479 H 45.4219 2.00011 3.91015 0
M  V30 480 H 46.0279 3.22538 2.77218 0
M  V30 481 N 44.343 -0.763751 1.37857 0
M  V30 482 C 45.275 -1.88664 1.30148 0
M  V30 483 C 46.288 -1.61365 0.215685 0
M  V30 484 O 47.477 -1.72134 0.472459 0
M  V30 485 C 44.577 -3.24075 0.991396 0
M  V30 486 C 43.75 -3.78958 2.18426 0
M  V30 487 C 42.809 -4.92862 1.8432 0
M  V30 488 O 41.835 -5.08027 2.56704 0
M  V30 489 N 43.037 -5.75071 0.792081 0
M  V30 490 H 45.802 -1.95791 2.26905 0
M  V30 491 H 43.363 -0.943226 1.31586 0
M  V30 492 H 45.355 -3.97804 0.743935 0
M  V30 493 H 43.925 -3.12399 0.112122 0
M  V30 494 H 43.145 -2.96913 2.59299 0
M  V30 495 H 44.433 -4.12357 2.98058 0
M  V30 496 H 43.831 -5.65375 0.191595 0
M  V30 497 H 42.388 -6.48991 0.60449 0
M  V30 498 N 45.8211 -1.22559 -0.990812 0
M  V30 499 C 47.0491 -1.07779 -1.76611 0
M  V30 500 C 47.4641 0.371513 -1.85109 0
M  V30 501 O 46.8211 1.25737 -1.32274 0
M  V30 502 C 46.8721 -1.68512 -3.19822 0
M  V30 503 O 46.5931 -3.07774 -3.1178 0
M  V30 504 C 48.0941 -1.59035 -4.13791 0
M  V30 505 H 45.3141 -0.377729 -0.554583 0
M  V30 506 H 47.8581 -1.62195 -1.24551 0
M  V30 507 H 46.0131 -1.18154 -3.68942 0
M  V30 508 H 46.4271 -3.37062 -4.01858 0
M  V30 509 H 47.9011 -2.0625 -5.1202 0
M  V30 510 H 48.3781 -0.547273 -4.35777 0
M  V30 511 H 48.9841 -2.08709 -3.70568 0
M  V30 512 N 47.2992 1.18797 -1.03562 0
M  V30 513 C 48.5292 1.92319 -0.754773 0
M  V30 514 C 48.9372 1.7612 0.691248 0
M  V30 515 O 48.2802 1.08491 1.48241 0
M  V30 516 C 48.3422 3.44284 -1.03484 0
M  V30 517 C 48.0062 3.84258 -2.47376 0
M  V30 518 C 49.0032 3.88459 -3.45537 0
M  V30 519 C 46.6882 4.15701 -2.81954 0
M  V30 520 C 48.6822 4.23545 -4.76328 0
M  V30 521 C 46.3692 4.50458 -4.12954 0
M  V30 522 C 47.3672 4.54356 -5.09951 0
M  V30 523 O 47.0552 4.88305 -6.38603 0
M  V30 524 H 46.7872 0.617527 -0.275021 0
M  V30 525 H 49.3412 1.51683 -1.38497 0
M  V30 526 H 47.5712 3.85135 -0.347513 0
M  V30 527 H 49.2602 3.99049 -0.7426 0
M  V30 528 H 50.0262 3.6431 -3.20162 0
M  V30 529 H 45.9052 4.11847 -2.0713 0
M  V30 530 H 49.4492 4.26502 -5.52035 0
M  V30 531 H 45.3462 4.74067 -4.38099 0
M  V30 532 H 46.1142 5.06227 -6.43177 0
M  V30 533 N 48.7773 0.814389 1.34928 0
M  V30 534 C 50.0023 0.410097 2.03305 0
M  V30 535 C 50.4273 -0.973464 1.60951 0
M  V30 536 O 49.7853 -1.63185 0.789964 0
M  V30 537 C 49.8333 0.51049 3.56968 0
M  V30 538 O 48.9373 -0.473035 4.09678 0
M  V30 539 H 48.2783 0.170088 0.641846 0
M  V30 540 H 50.8083 1.10244 1.72358 0
M  V30 541 H 50.8183 0.383135 4.06197 0
M  V30 542 H 49.4933 1.51963 3.87144 0
M  V30 543 H 48.0703 -0.305272 3.71648 0
M  V30 544 N 50.2554 -1.46986 0.568584 0
M  V30 545 C 51.4954 -2.04336 0.0512999 0
M  V30 546 C 51.8594 -1.43214 -1.27881 0
M  V30 547 O 53.0604 -1.91679 -1.88448 0
M  V30 548 C 51.3314 -3.57389 -0.0282328 0
M  V30 549 S 52.8904 -4.36056 -0.489991 0
M  V30 550 H 49.7084 -0.71034 0.0306349 0
M  V30 551 H 52.3104 -1.80212 0.757891 0
M  V30 552 H 51.0144 -3.99395 0.944011 0
M  V30 553 H 50.5454 -3.86028 -0.75803 0
M  V30 554 H 52.5604 -4.6441 -1.74752 0
M  V30 555 N 51.7335 -0.305618 -1.54608 0
M  V30 556 C 52.6965 0.555591 -2.22364 0
M  V30 557 C 53.6965 1.05768 -1.21119 0
M  V30 558 O 54.8865 0.952972 -1.45822 0
M  V30 559 C 52.0185 1.76974 -2.91364 0
M  V30 560 H 53.2115 -0.0364572 -2.99878 0
M  V30 561 H 50.7645 -0.0565007 -1.56198 0
M  V30 562 H 51.4995 2.40151 -2.17941 0
M  V30 563 H 51.2845 1.41732 -3.65588 0
M  V30 564 H 52.7745 2.38148 -3.43038 0
M  V30 565 N 53.2116 1.57565 -0.0334293 0
M  V30 566 C 54.1616 2.06978 0.956237 0
M  V30 567 C 55.1456 0.971193 1.28283 0
M  V30 568 O 56.3376 1.23471 1.26822 0
M  V30 569 C 53.4666 2.60393 2.23719 0
M  V30 570 C 52.5526 3.7719 1.93877 0
M  V30 571 N 52.9436 4.87639 1.34321 0
M  V30 572 C 51.2416 3.85758 2.23845 0
M  V30 573 C 51.9426 5.68825 1.21709 0
M  V30 574 N 50.9186 5.1587 1.71404 0
M  V30 575 H 54.7206 2.89773 0.490815 0
M  V30 576 H 52.2346 1.61492 0.171478 0
M  V30 577 H 54.2316 2.94088 2.95496 0
M  V30 578 H 52.8916 1.79031 2.70884 0
M  V30 579 H 53.9026 5.07803 1.01767 0
M  V30 580 H 50.5796 3.1531 2.73653 0
M  V30 581 H 51.9696 6.67631 0.75621 0
M  V30 582 N 54.6897 -0.239769 1.55765 0
M  V30 583 C 55.9367 -0.966801 1.7793 0
M  V30 584 C 56.2647 -1.85046 0.599015 0
M  V30 585 O 55.5197 -1.91197 -0.417395 0
M  V30 586 C 55.8187 -1.852 3.05672 0
M  V30 587 C 55.4847 -1.1231 4.36689 0
M  V30 588 C 54.1467 -0.921689 4.72291 0
M  V30 589 C 56.4987 -0.607019 5.17653 0
M  V30 590 C 53.8267 -0.191996 5.86386 0
M  V30 591 C 56.1787 0.109241 6.32506 0
M  V30 592 C 54.8427 0.322073 6.66723 0
M  V30 593 H 54.1127 -0.353778 0.651093 0
M  V30 594 H 56.7597 -0.23634 1.90036 0
M  V30 595 H 55.0647 -2.64975 2.8861 0
M  V30 596 H 56.7617 -2.41635 3.20021 0
M  V30 597 H 53.3517 -1.29004 4.08725 0
M  V30 598 H 57.5357 -0.750153 4.90598 0
M  V30 599 H 52.7917 -0.0166949 6.11398 0
M  V30 600 H 56.9657 0.516737 6.9448 0
M  V30 601 H 54.5927 0.88944 7.54979 0
M  V30 602 N 56.1678 -1.49265 -0.50573 0
M  V30 603 C 57.0778 -1.68312 -1.63427 0
M  V30 604 C 58.0938 -0.565682 -1.64548 0
M  V30 605 O 59.2698 -0.839801 -1.83055 0
M  V30 606 C 56.3348 -1.74107 -2.99813 0
M  V30 607 C 55.3958 -2.97653 -3.09356 0
M  V30 608 C 54.6288 -3.03163 -4.39236 0
M  V30 609 O 54.8518 -2.16396 -5.27758 0
M  V30 610 O 53.7858 -3.9558 -4.53652 0
M  V30 611 H 57.6118 -2.63907 -1.50289 0
M  V30 612 H 55.1968 -1.32951 -0.681502 0
M  V30 613 H 57.0788 -1.803 -3.80881 0
M  V30 614 H 55.7538 -0.816901 -3.13223 0
M  V30 615 H 54.6608 -2.96981 -2.27493 0
M  V30 616 H 55.9938 -3.89535 -3.00871 0
M  V30 617 N 57.6459 0.756429 -1.3826 0
M  V30 618 C 59.0619 1.0591 -1.19395 0
M  V30 619 C 59.2619 2.01459 -0.0406567 0
M  V30 620 O 58.3179 2.44909 0.614467 0
M  V30 621 C 59.6309 1.64191 -2.51916 0
M  V30 622 C 61.1789 1.76376 -2.58574 0
M  V30 623 C 61.6539 2.38069 -3.91264 0
M  V30 624 N 63.1449 2.45503 -3.92788 0
M  V30 625 C 63.8799 2.94126 -4.92217 0
M  V30 626 N 63.3759 3.42805 -6.02043 0
M  V30 627 N 65.1689 2.9314 -4.7961 0
M  V30 628 H 57.3199 0.122313 -2.12048 0
M  V30 629 H 59.5829 0.116892 -0.940766 0
M  V30 630 H 59.2889 1.01451 -3.3675 0
M  V30 631 H 59.1629 2.6329 -2.70108 0
M  V30 632 H 61.5499 2.38244 -1.74137 0
M  V30 633 H 61.6309 0.759894 -2.44252 0
M  V30 634 H 61.2749 1.76835 -4.76121 0
M  V30 635 H 61.2049 3.39091 -4.02895 0
M  V30 636 H 63.6959 2.1107 -3.13461 0
M  V30 637 H 64.0089 3.78354 -6.73846 0
M  V30 638 H 62.3539 3.4087 -6.05667 0
M  V30 639 H 65.5449 2.54419 -3.92923 0
M  V30 640 H 65.7179 3.30721 -5.5725 0
M  V30 641 N 59.124 1.23083 0.984299 0
M  V30 642 C 60.034 1.02515 2.11016 0
M  V30 643 C 61.05 -0.0291702 1.73976 0
M  V30 644 O 62.226 0.165434 2.00719 0
M  V30 645 C 59.291 0.614673 3.41208 0
M  V30 646 C 58.352 1.74359 3.92297 0
M  V30 647 C 57.585 1.35261 5.16275 0
M  V30 648 O 57.808 0.235136 5.69915 0
M  V30 649 O 56.742 2.17227 5.61334 0
M  V30 650 H 60.568 1.96862 2.31255 0
M  V30 651 H 58.153 1.01753 1.09392 0
M  V30 652 H 60.035 0.396518 4.1953 0
M  V30 653 H 58.71 -0.299851 3.22308 0
M  V30 654 H 57.617 2.01635 3.1511 0
M  V30 655 H 58.95 2.63629 4.15645 0
M  V30 656 N 60.6021 -1.18246 1.0419 0
M  V30 657 C 61.8791 -1.84121 0.660208 0
M  V30 658 C 62.2591 -1.92778 -0.860221 0
M  V30 659 O 61.6071 -1.45464 -1.76217 0
M  V30 660 C 61.8171 -3.22355 1.33747 0
M  V30 661 C 63.1651 -3.98376 1.46906 0
M  V30 662 O 64.1891 -3.31799 1.29568 0
M  V30 663 O 63.0481 -5.17665 1.75171 0
M  V30 664 H 60.1421 -0.794036 0.231161 0
M  V30 665 H 62.6881 -1.25628 1.14087 0
M  V30 666 H 61.4601 -3.10964 2.37522 0
M  V30 667 H 61.0831 -3.88506 0.845515 0
M  V30 668 N 62.0802 -0.821533 -1.34494 0
M  V30 669 C 63.0132 -0.187704 -2.27427 0
M  V30 670 C 63.9912 0.65507 -1.48821 0
M  V30 671 O 65.1752 0.619111 -1.78043 0
M  V30 672 C 62.3022 0.737996 -3.30562 0
M  V30 673 C 61.3482 -0.0270713 -4.26491 0
M  V30 674 S 62.1812 -1.37329 -5.17592 0
M  V30 675 C 63.3372 -0.452427 -6.24263 0
M  V30 676 H 63.5702 -0.975598 -2.80837 0
M  V30 677 H 61.1032 -0.61736 -1.4152 0
M  V30 678 H 63.0612 1.26654 -3.90473 0
M  V30 679 H 61.7222 1.4994 -2.76001 0
M  V30 680 H 60.9152 0.6766 -4.99438 0
M  V30 681 H 60.5172 -0.48612 -3.70827 0
M  V30 682 H 62.8092 0.356557 -6.76561 0
M  V30 683 H 63.7522 -1.15153 -6.98674 0
M  V30 684 H 64.1602 -0.0414755 -5.64485 0
M  V30 685 N 63.5583 1.46682 -0.576371 0
M  V30 686 C 64.7863 2.06798 -0.0649635 0
M  V30 687 C 65.2013 1.42612 1.23723 0
M  V30 688 O 64.5583 0.529203 1.74659 0
M  V30 689 C 64.6093 3.6132 0.114202 0
M  V30 690 O 64.3303 4.23104 -1.13644 0
M  V30 691 C 65.8313 4.38349 0.66069 0
M  V30 692 H 63.0513 0.668778 -0.0545616 0
M  V30 693 H 65.5953 1.88404 -0.795237 0
M  V30 694 H 63.7503 3.79162 0.794673 0
M  V30 695 H 64.1643 5.15894 -0.946253 0
M  V30 696 H 65.6383 5.47081 0.73526 0
M  V30 697 H 66.1153 4.05953 1.67627 0
M  V30 698 H 66.7213 4.25297 0.0152951 0
M  V30 699 N 65.0364 0.313813 1.54444 0
M  V30 700 C 65.9664 -0.549454 2.26943 0
M  V30 701 C 66.9474 -1.12741 1.27372 0
M  V30 702 O 68.1324 -1.15436 1.56167 0
M  V30 703 C 65.2624 -1.71523 3.01989 0
M  V30 704 C 64.2164 -1.26703 4.08816 0
M  V30 705 C 63.5424 -2.51898 4.71647 0
M  V30 706 C 64.8424 -0.388962 5.2085 0
M  V30 707 H 66.5364 0.0552661 2.99349 0
M  V30 708 H 64.0824 0.0280207 1.43973 0
M  V30 709 H 66.0354 -2.32535 3.51433 0
M  V30 710 H 64.7594 -2.34639 2.27183 0
M  V30 711 H 63.4184 -0.679896 3.6024 0
M  V30 712 H 63.0664 -3.13356 3.93468 0
M  V30 713 H 62.7664 -2.22605 5.43802 0
M  V30 714 H 64.2904 -3.1369 5.23861 0
M  V30 715 H 65.7044 -0.905107 5.6611 0
M  V30 716 H 64.1014 -0.18924 5.99802 0
M  V30 717 H 65.1714 0.582699 4.81386 0
M  V30 718 N 66.5145 -1.57545 0.0417849 0
M  V30 719 C 67.4245 -2.14451 -0.951213 0
M  V30 720 C 68.4405 -1.09992 -1.34825 0
M  V30 721 O 69.6165 -1.42114 -1.42708 0
M  V30 722 C 66.6815 -2.67063 -2.21084 0
M  V30 723 C 65.7425 -3.86284 -1.87304 0
M  V30 724 C 64.9755 -4.36378 -3.07261 0
M  V30 725 O 65.1985 -3.85587 -4.20332 0
M  V30 726 O 64.1325 -5.28077 -2.88822 0
M  V30 727 H 67.9585 -2.99601 -0.497287 0
M  V30 728 H 65.5435 -1.48317 -0.179567 0
M  V30 729 H 67.4255 -3.00914 -2.95006 0
M  V30 730 H 66.1005 -1.84989 -2.65633 0
M  V30 731 H 65.0075 -3.57338 -1.10727 0
M  V30 732 H 66.3405 -4.6956 -1.47562 0
M  V30 733 N 67.9926 0.231505 -1.5589 0
M  V30 734 C 68.9026 1.308 -1.94752 0
M  V30 735 C 69.9186 1.51826 -0.849989 0
M  V30 736 O 71.0946 1.6515 -1.15271 0
M  V30 737 C 68.1596 2.63968 -2.24771 0
M  V30 738 C 67.2206 2.51331 -3.48039 0
M  V30 739 C 66.4536 3.78148 -3.76616 0
M  V30 740 O 66.6766 4.80722 -3.07022 0
M  V30 741 O 65.6106 3.75857 -4.70123 0
M  V30 742 H 69.4366 1.0083 -2.86474 0
M  V30 743 H 67.0216 0.433547 -1.42971 0
M  V30 744 H 68.9036 3.42633 -2.45318 0
M  V30 745 H 67.5786 2.9364 -1.36225 0
M  V30 746 H 66.4856 1.709 -3.32782 0
M  V30 747 H 67.8186 2.26601 -4.36936 0
M  V30 748 N 69.4707 1.49531 0.497807 0
M  V30 749 C 70.4337 1.65916 1.58128 0
M  V30 750 C 71.4337 0.530825 1.51786 0
M  V30 751 O 72.6237 0.797342 1.54881 0
M  V30 752 C 69.7557 1.65951 2.9778 0
M  V30 753 H 70.9487 2.62556 1.44929 0
M  V30 754 H 68.5017 1.38611 0.722275 0
M  V30 755 H 69.2367 0.709065 3.16453 0
M  V30 756 H 69.0217 2.47897 3.03792 0
M  V30 757 H 70.5117 1.80673 3.76493 0
M  V30 758 N 70.9488 -0.749086 1.3866 0
M  V30 759 C 71.8808 -1.87273 1.32142 0
M  V30 760 C 72.8938 -1.61127 0.232787 0
M  V30 761 O 74.0828 -1.71623 0.49069 0
M  V30 762 C 71.1828 -3.23005 1.02571 0
M  V30 763 C 70.3558 -3.7662 2.22433 0
M  V30 764 C 69.4148 -4.90879 1.89537 0
M  V30 765 O 68.4408 -5.05276 2.62078 0
M  V30 766 N 69.6428 -5.74198 0.853031 0
M  V30 767 H 72.4078 -1.93373 2.28969 0
M  V30 768 H 69.9688 -0.929216 1.32579 0
M  V30 769 H 71.9608 -3.96992 0.786085 0
M  V30 770 H 70.5308 -3.12262 0.145249 0
M  V30 771 H 69.7508 -2.94147 2.62434 0
M  V30 772 H 71.0388 -4.09173 3.02415 0
M  V30 773 H 70.4368 -5.6514 0.25155 0
M  V30 774 H 68.9938 -6.48313 0.67329 0
M  V30 775 N 72.4269 -1.23603 -0.977757 0
M  V30 776 C 73.6759 -1.06377 -1.71368 0
M  V30 777 C 73.9889 0.399062 -1.91486 0
M  V30 778 O 75.1949 0.691312 -2.62551 0
M  V30 779 C 73.6509 -1.85512 -3.08404 0
M  V30 780 C 73.2589 -3.36141 -2.96164 0
M  V30 781 C 75.0029 -1.76783 -3.85938 0
M  V30 782 C 72.9099 -4.07659 -4.28449 0
M  V30 783 H 71.8399 -0.394452 -0.642591 0
M  V30 784 H 74.4909 -1.47594 -1.09034 0
M  V30 785 H 72.8729 -1.37103 -3.71509 0
M  V30 786 H 74.0469 -3.92056 -2.42133 0
M  V30 787 H 72.3619 -3.45712 -2.32104 0
M  V30 788 H 74.9589 -2.27526 -4.83876 0
M  V30 789 H 75.3019 -0.731116 -4.0983 0
M  V30 790 H 75.8349 -2.22818 -3.2954 0
M  V30 791 H 72.5739 -5.11648 -4.09752 0
M  V30 792 H 72.0939 -3.5653 -4.82334 0
M  V30 793 H 73.7729 -4.141 -4.97122 0
M  V30 794 N 73.905 1.17692 -1.04816 0
M  V30 795 C 74.868 2.19787 -0.650117 0
M  V30 796 C 75.868 1.58044 0.296427 0
M  V30 797 O 77.058 1.74012 0.0808097 0
M  V30 798 C 74.19 3.40869 0.0456987 0
M  V30 799 H 75.383 2.56516 -1.5537 0
M  V30 800 H 72.936 1.31708 -0.841594 0
M  V30 801 H 73.671 3.09681 0.962726 0
M  V30 802 H 73.456 3.86928 -0.634727 0
M  V30 803 H 74.946 4.16445 0.310432 0
M  V30 804 N 75.3831 0.828654 1.34056 0
M  V30 805 C 76.3301 0.252567 2.29414 0
M  V30 806 C 77.3001 -0.62588 1.53857 0
M  V30 807 O 78.4851 -0.566312 1.82202 0
M  V30 808 C 75.6251 -0.574831 3.40279 0
M  V30 809 C 74.7381 0.326499 4.30764 0
M  V30 810 C 73.8731 -0.511016 5.28736 0
M  V30 811 C 72.9121 0.389342 6.1086 0
M  V30 812 N 72.0491 -0.409439 7.00905 0
M  V30 813 H 76.8891 1.07108 2.78086 0
M  V30 814 H 74.4261 0.539677 1.36843 0
M  V30 815 H 76.3841 -1.06992 4.03248 0
M  V30 816 H 75.0141 -1.35841 2.92826 0
M  V30 817 H 74.0661 0.939837 3.68607 0
M  V30 818 H 75.3781 1.01857 4.88289 0
M  V30 819 H 74.5321 -1.07035 5.97184 0
M  V30 820 H 73.2711 -1.23657 4.71763 0
M  V30 821 H 72.2761 0.960769 5.4134 0
M  V30 822 H 73.5011 1.1131 6.69916 0
M  V30 823 H 71.4471 -1.11856 6.46393 0
M  V30 824 H 71.3641 0.224126 7.55668 0
M  V30 825 H 72.6321 -0.951336 7.73673 0
M  V30 826 N 76.8612 -1.46375 0.584142 0
M  V30 827 C 78.1102 -2.01585 0.0679741 0
M  V30 828 C 78.4232 -1.46109 -1.30045 0
M  V30 829 O 79.6292 -1.93148 -1.90804 0
M  V30 830 C 78.0852 -3.5983 0.0709207 0
M  V30 831 C 77.6932 -4.24303 1.43775 0
M  V30 832 C 79.4372 -4.22693 -0.391228 0
M  V30 833 C 77.3442 -5.74631 1.39834 0
M  V30 834 H 76.2742 -0.753689 0.0216421 0
M  V30 835 H 78.9252 -1.68093 0.736001 0
M  V30 836 H 77.3072 -3.90405 -0.663299 0
M  V30 837 H 78.4812 -4.05335 2.19181 0
M  V30 838 H 76.7962 -3.73539 1.84004 0
M  V30 839 H 79.3932 -5.3289 -0.439524 0
M  V30 840 H 79.7362 -3.91728 -1.40906 0
M  V30 841 H 80.2692 -3.96749 0.288974 0
M  V30 842 H 77.0082 -6.10258 2.39303 0
M  V30 843 H 76.5282 -5.95858 0.686505 0
M  V30 844 H 78.2072 -6.37375 1.11187 0
M  V30 845 N 78.3393 -0.321999 -1.54275 0
M  V30 846 C 79.6163 0.335232 -1.92706 0
M  V30 847 C 79.9963 1.70006 -1.25145 0
M  V30 848 O 79.3443 2.25067 -0.394596 0
M  V30 849 C 79.5543 0.429008 -3.46353 0
M  V30 850 C 80.9023 0.690029 -4.18956 0
M  V30 851 O 81.9263 0.511992 -3.52501 0
M  V30 852 O 80.7853 1.03338 -5.36641 0
M  V30 853 H 77.8793 0.191143 -0.804608 0
M  V30 854 H 80.4253 -0.3716 -1.65581 0
M  V30 855 H 79.1973 -0.529611 -3.87699 0
M  V30 856 H 78.8203 1.18348 -3.79578 0
M  V30 857 N 79.8174 1.5752 -0.0501392 0
M  V30 858 C 80.7474 2.14502 0.922566 0
M  V30 859 C 81.7284 1.06642 1.3252 0
M  V30 860 O 82.9134 1.34577 1.4001 0
M  V30 861 C 80.0434 2.68916 2.19776 0
M  V30 862 C 78.9974 3.8175 1.93523 0
M  V30 863 C 78.3234 4.22677 3.27487 0
M  V30 864 C 79.6234 5.06932 1.25765 0
M  V30 865 H 81.3174 2.9603 0.447952 0
M  V30 866 H 78.8634 1.42401 0.214024 0
M  V30 867 H 80.8164 3.07419 2.88222 0
M  V30 868 H 79.5404 1.84578 2.69441 0
M  V30 869 H 78.1994 3.43718 1.27489 0
M  V30 870 H 77.8474 3.35291 3.74952 0
M  V30 871 H 77.5474 4.98725 3.1072 0
M  V30 872 H 79.0714 4.63779 3.97166 0
M  V30 873 H 80.4854 5.42888 1.84244 0
M  V30 874 H 78.8824 5.88116 1.19328 0
M  V30 875 H 79.9524 4.84337 0.233536 0
M  V30 876 N 81.2955 -0.223234 1.56011 0
M  V30 877 C 82.2585 -1.26014 1.9145 0
M  V30 878 C 83.2585 -1.3989 0.792937 0
M  V30 879 O 84.4485 -1.38184 1.0607 0
M  V30 880 C 81.5805 -2.63422 2.16383 0
M  V30 881 H 82.7735 -0.95796 2.84189 0
M  V30 882 H 80.3265 -0.463576 1.49267 0
M  V30 883 H 81.0615 -2.98741 1.2619 0
M  V30 884 H 80.8465 -2.54728 2.98088 0
M  V30 885 H 82.3365 -3.38249 2.44903 0
M  V30 886 N 82.7736 -1.49793 -0.48987 0
M  V30 887 C 83.7036 -1.70201 -1.59856 0
M  V30 888 C 84.6846 -0.55076 -1.60937 0
M  V30 889 O 85.8696 -0.787841 -1.77501 0
M  V30 890 C 82.9996 -1.77882 -2.98287 0
M  V30 891 C 81.9536 -2.92907 -3.12073 0
M  V30 892 C 81.2796 -2.85712 -4.51965 0
M  V30 893 C 82.5796 -4.3369 -2.91051 0
M  V30 894 H 84.2736 -2.63025 -1.43032 0
M  V30 895 H 81.8196 -1.26574 -0.686664 0
M  V30 896 H 83.7726 -1.90744 -3.75759 0
M  V30 897 H 82.4966 -0.816653 -3.16225 0
M  V30 898 H 81.1556 -2.79665 -2.37029 0
M  V30 899 H 80.8036 -1.8738 -4.66795 0
M  V30 900 H 80.5036 -3.62921 -4.62128 0
M  V30 901 H 82.0276 -3.00598 -5.31482 0
M  V30 902 H 83.4416 -4.47555 -3.58284 0
M  V30 903 H 81.8386 -5.12205 -3.12675 0
M  V30 904 H 82.9086 -4.47362 -1.87071 0
M  V30 905 N 84.2517 0.741722 -1.39055 0
M  V30 906 C 85.4997 1.49818 -1.35643 0
M  V30 907 C 85.8207 1.94938 0.0491642 0
M  V30 908 O 85.0907 1.68505 0.999141 0
M  V30 909 H 83.6707 0.555755 -0.499144 0
M  V30 910 H 86.3327 0.880957 -1.73854 0
M  V30 911 H 85.4287 2.38348 -2.01486 0
M  V30 912 N 85.7298 1.2412 0.971189 0
M  V30 913 C 86.6768 1.0305 2.06517 0
M  V30 914 C 87.6468 -0.0550666 1.66009 0
M  V30 915 O 88.8318 0.0988688 1.90544 0
M  V30 916 C 85.9718 0.637653 3.39158 0
M  V30 917 C 85.0848 1.79633 3.92882 0
M  V30 918 C 84.2198 1.34939 5.13775 0
M  V30 919 C 83.2588 2.47823 5.59687 0
M  V30 920 N 82.3958 2.04022 6.71803 0
M  V30 921 H 87.2358 1.96685 2.23873 0
M  V30 922 H 84.7728 0.979694 1.09729 0
M  V30 923 H 86.7308 0.390931 4.15364 0
M  V30 924 H 85.3608 -0.261693 3.21737 0
M  V30 925 H 84.4128 2.15681 3.13346 0
M  V30 926 H 85.7248 2.64466 4.22918 0
M  V30 927 H 84.8788 1.06134 5.97345 0
M  V30 928 H 83.6178 0.471557 4.85415 0
M  V30 929 H 82.6228 2.77392 4.74693 0
M  V30 930 H 83.8478 3.36158 5.90063 0
M  V30 931 H 81.7938 1.18632 6.45184 0
M  V30 932 H 81.7108 2.82409 7.01271 0
M  V30 933 H 82.9788 1.78347 7.58823 0
M  V30 934 N 87.2079 -1.17134 1.05439 0
M  V30 935 C 88.1379 -2.2342 0.678649 0
M  V30 936 C 89.1189 -1.66971 -0.32476 0
M  V30 937 O 90.3039 -1.93149 -0.201802 0
M  V30 938 C 87.4339 -3.47256 0.0552099 0
M  V30 939 C 86.3879 -4.16543 0.98365 0
M  V30 940 C 85.7139 -5.34231 0.223961 0
M  V30 941 C 87.0139 -4.68495 2.3089 0
M  V30 942 H 88.7079 -2.55105 1.56722 0
M  V30 943 H 86.2539 -1.2262 0.754998 0
M  V30 944 H 88.2069 -4.20828 -0.21946 0
M  V30 945 H 86.9309 -3.14846 -0.868319 0
M  V30 946 H 85.5899 -3.44887 1.24293 0
M  V30 947 H 85.2379 -4.98071 -0.702412 0
M  V30 948 H 84.9379 -5.81527 0.842627 0
M  V30 949 H 86.4619 -6.10585 -0.0433671 0
M  V30 950 H 87.8759 -5.33691 2.09396 0
M  V30 951 H 86.2729 -5.26379 2.88176 0
M  V30 952 H 87.3429 -3.85169 2.94572 0
M  V30 953 N 88.686 -0.835752 -1.33615 0
M  V30 954 C 89.934 -0.429109 -1.97492 0
M  V30 955 C 90.255 1.01433 -1.66543 0
M  V30 956 O 89.525 1.70611 -0.962744 0
M  V30 957 H 88.105 -0.155686 -0.730596 0
M  V30 958 H 90.767 -1.06802 -1.63031 0
M  V30 959 H 89.863 -0.55861 -3.0706 0
M  V30 960 N 90.1641 1.46063 -0.591896 0
M  V30 961 C 91.0941 2.33172 0.123673 0
M  V30 962 C 92.0751 1.45897 0.87453 0
M  V30 963 O 93.2601 1.74698 0.848181 0
M  V30 964 C 90.3901 3.28336 1.13194 0
M  V30 965 C 89.3441 4.25124 0.495324 0
M  V30 966 C 88.6701 5.09863 1.61071 0
M  V30 967 C 89.9701 5.19143 -0.573425 0
M  V30 968 H 91.6641 2.93252 -0.603646 0
M  V30 969 H 89.2101 1.41014 -0.291741 0
M  V30 970 H 91.1631 3.88137 1.64097 0
M  V30 971 H 89.8871 2.66383 1.88965 0
M  V30 972 H 88.5461 3.66599 0.00729452 0
M  V30 973 H 88.1941 4.44288 2.35832 0
M  V30 974 H 87.8941 5.75417 1.19035 0
M  V30 975 H 89.4181 5.72529 2.12233 0
M  V30 976 H 90.8321 5.73106 -0.1491 0
M  V30 977 H 89.2291 5.93089 -0.914636 0
M  V30 978 H 90.2991 4.62519 -1.45617 0
M  V30 979 N 91.6422 0.330177 1.54103 0
M  V30 980 C 92.5742 -0.566902 2.22079 0
M  V30 981 C 93.5872 -1.07462 1.22294 0
M  V30 982 O 94.7762 -0.987065 1.48726 0
M  V30 983 C 91.8762 -1.79138 2.87685 0
M  V30 984 C 91.0492 -1.42123 4.13666 0
M  V30 985 C 90.1082 -2.50394 4.62806 0
M  V30 986 O 89.1342 -2.14261 5.27334 0
M  V30 987 N 90.3362 -3.81433 4.37595 0
M  V30 988 H 93.1012 0.0151844 2.99696 0
M  V30 989 H 90.6622 0.153681 1.61169 0
M  V30 990 H 92.6542 -2.50975 3.1748 0
M  V30 991 H 91.2242 -2.28115 2.13734 0
M  V30 992 H 90.4442 -0.534201 3.90564 0
M  V30 993 H 91.7322 -1.14971 4.9564 0
M  V30 994 H 91.1302 -4.13584 3.8596 0
M  V30 995 H 89.6872 -4.4948 4.72029 0
M  V30 996 N 93.1203 -1.57491 0.0584922 0
M  V30 997 C 94.5313 -1.80526 -0.476138 0
M  V30 998 C 94.8823 -0.971334 -1.70469 0
M  V30 999 O 94.0073 -0.190012 -2.15564 0
M  V30 1000 C 94.6023 -3.27424 -0.870587 0
M  V30 1001 C 93.1613 -3.51351 -1.35015 0
M  V30 1002 C 92.3083 -2.75343 -0.32887 0
M  V30 1003 H 95.2593 -1.56133 0.284312 0
M  V30 1004 H 95.2803 -3.38745 -1.73299 0
M  V30 1005 H 94.7923 -3.88093 0.0237627 0
M  V30 1006 H 92.8933 -2.95971 -2.26345 0
M  V30 1007 H 93.0063 -4.60059 -1.33726 0
M  V30 1008 H 91.3703 -2.417 -0.803321 0
M  V30 1009 H 92.1533 -3.38743 0.557521 0
M  V30 1010 N 94.5984 0.214957 -1.56127 0
M  V30 1011 C 95.8464 0.936518 -1.79091 0
M  V30 1012 C 96.1674 1.84606 -0.628148 0
M  V30 1013 O 95.4374 1.92664 0.35462 0
M  V30 1014 H 94.0174 0.3488 -0.660566 0
M  V30 1015 H 96.6794 0.22523 -1.93594 0
M  V30 1016 H 95.7754 1.53943 -2.71492 0
M  V30 1017 N 96.0765 1.50051 0.48192 0
M  V30 1018 C 97.0095 1.62749 1.59963 0
M  V30 1019 C 97.9875 0.475903 1.5548 0
M  V30 1020 O 99.1715 0.693986 1.7526 0
M  V30 1021 C 96.2985 1.60008 2.98522 0
M  V30 1022 C 95.3445 2.80596 3.21198 0
M  V30 1023 S 96.1775 4.42038 3.02262 0
M  V30 1024 C 97.3335 4.41973 4.43182 0
M  V30 1025 H 97.5665 2.57296 1.4895 0
M  V30 1026 H 95.0995 1.39179 0.668477 0
M  V30 1027 H 97.0575 1.59112 3.78409 0
M  V30 1028 H 95.7185 0.667153 3.06933 0
M  V30 1029 H 94.9115 2.74952 4.22395 0
M  V30 1030 H 94.5135 2.79003 2.49065 0
M  V30 1031 H 96.8055 4.14868 5.35622 0
M  V30 1032 H 97.7485 5.43512 4.53873 0
M  V30 1033 H 98.1565 3.71812 4.24755 0
M  V30 1034 N 97.5546 -0.734337 1.39446 0
M  V30 1035 C 98.7826 -1.52358 1.39981 0
M  V30 1036 C 99.1976 -1.88799 -0.0054975 0
M  V30 1037 O 98.5546 -1.54146 -0.976998 0
M  V30 1038 C 98.6056 -2.81072 2.27333 0
M  V30 1039 O 98.3266 -2.46178 3.62392 0
M  V30 1040 C 99.8276 -3.75096 2.36259 0
M  V30 1041 H 97.0476 -0.470806 0.478103 0
M  V30 1042 H 99.5916 -0.907339 1.83269 0
M  V30 1043 H 97.7466 -3.39026 1.87457 0
M  V30 1044 H 98.1606 -3.28866 4.08592 0
M  V30 1045 H 99.6346 -4.62305 3.01626 0
M  V30 1046 H 100.112 -4.16892 1.38194 0
M  V30 1047 H 100.718 -3.23061 2.76608 0
M  V30 1048 N 99.0327 -1.24633 -0.964593 0
M  V30 1049 C 99.9627 -1.06611 -2.07741 0
M  V30 1050 C 100.944 0.0218666 -1.70086 0
M  V30 1051 O 102.129 -0.145793 -1.93652 0
M  V30 1052 C 99.2587 -0.673444 -3.40708 0
M  V30 1053 C 98.2127 -1.71054 -3.92332 0
M  V30 1054 C 97.5387 -1.17285 -5.21678 0
M  V30 1055 C 98.8387 -3.10718 -4.19824 0
M  V30 1056 H 100.533 -1.99693 -2.23076 0
M  V30 1057 H 98.0787 -0.96152 -1.07195 0
M  V30 1058 H 100.032 -0.534345 -4.17998 0
M  V30 1059 H 98.7557 0.293073 -3.25282 0
M  V30 1060 H 97.4147 -1.83791 -3.17201 0
M  V30 1061 H 97.0627 -0.196847 -5.02615 0
M  V30 1062 H 96.7627 -1.86592 -5.57187 0
M  V30 1063 H 98.2867 -1.04593 -6.01575 0
M  V30 1064 H 99.7007 -3.01192 -4.87808 0
M  V30 1065 H 98.0977 -3.77406 -4.66567 0
M  V30 1066 H 99.1677 -3.58524 -3.26479 0
M  V30 1067 N 100.511 1.16574 -1.06058 0
M  V30 1068 C 101.441 2.23057 -0.690488 0
M  V30 1069 C 102.422 1.67141 0.315901 0
M  V30 1070 O 103.607 1.93253 0.191556 0
M  V30 1071 C 100.737 3.47222 -0.073625 0
M  V30 1072 C 99.6908 4.16016 -1.00573 0
M  V30 1073 C 99.0168 5.34104 -0.252289 0
M  V30 1074 C 100.317 4.67264 -2.33371 0
M  V30 1075 H 102.011 2.54271 -1.58072 0
M  V30 1076 H 99.5568 1.22218 -0.76149 0
M  V30 1077 H 101.51 4.20939 0.19714 0
M  V30 1078 H 100.234 3.15302 0.85161 0
M  V30 1079 H 98.8928 3.44223 -1.2612 0
M  V30 1080 H 98.5408 4.98437 0.675988 0
M  V30 1081 H 98.2408 5.81072 -0.873455 0
M  V30 1082 H 99.7648 6.10599 0.0109857 0
M  V30 1083 H 101.179 5.32573 -2.12223 0
M  V30 1084 H 99.5758 5.24843 -2.90963 0
M  V30 1085 H 100.646 3.83602 -2.96611 0
M  V30 1086 N 101.989 0.842826 1.3317 0
M  V30 1087 C 103.266 0.362216 1.92217 0
M  V30 1088 C 103.646 -1.15289 1.76838 0
M  V30 1089 O 102.994 -1.96914 1.15919 0
M  V30 1090 C 103.204 0.813495 3.39387 0
M  V30 1091 C 104.552 0.823804 4.16532 0
M  V30 1092 O 105.576 0.757358 3.48055 0
M  V30 1093 O 104.435 0.915193 5.38782 0
M  V30 1094 H 101.529 0.103317 0.820521 0
M  V30 1095 H 104.075 0.928942 1.42017 0
M  V30 1096 H 102.847 1.85624 3.4447 0
M  V30 1097 H 102.47 0.223561 3.96971 0
M  V30 1098 N 103.467 -1.45747 0.599634 0
M  V30 1099 C 104.716 -2.01502 0.0893511 0
M  V30 1100 C 105.029 -1.4748 -1.28488 0
M  V30 1101 O 106.235 -1.95161 -1.88745 0
M  V30 1102 C 104.691 -3.59735 0.109082 0
M  V30 1103 C 104.299 -4.22754 1.48267 0
M  V30 1104 C 106.043 -4.23085 -0.346374 0
M  V30 1105 C 103.95 -5.73115 1.45921 0
M  V30 1106 H 102.88 -0.753417 0.0296347 0
M  V30 1107 H 105.531 -1.67303 0.753788 0
M  V30 1108 H 103.913 -3.91087 -0.621854 0
M  V30 1109 H 105.087 -4.02987 2.23468 0
M  V30 1110 H 103.402 -3.71567 1.87955 0
M  V30 1111 H 105.999 -5.33327 -0.38298 0
M  V30 1112 H 106.342 -3.93201 -1.36743 0
M  V30 1113 H 106.875 -3.9642 0.331038 0
M  V30 1114 H 103.614 -6.07685 2.45762 0
M  V30 1115 H 103.134 -5.95097 0.749665 0
M  V30 1116 H 104.813 -6.3616 1.17941 0
M  V30 1117 N 104.945 -0.338344 -1.53925 0
M  V30 1118 C 106.193 0.259245 -2.0043 0
M  V30 1119 C 106.514 1.51484 -1.22791 0
M  V30 1120 O 105.784 1.93037 -0.33368 0
M  V30 1121 H 104.364 0.0987845 -0.740439 0
M  V30 1122 H 107.026 -0.458302 -1.89435 0
M  V30 1123 H 106.122 0.505334 -3.07982 0
M  V30 1124 N 106.423 1.57458 -0.0668435 0
M  V30 1125 C 107.663 1.95175 0.607116 0
M  V30 1126 C 108.027 0.946039 1.67075 0
M  V30 1127 O 109.228 1.2107 2.39991 0
M  V30 1128 C 107.499 3.37582 1.17358 0
M  V30 1129 S 109.058 3.97271 1.86336 0
M  V30 1130 H 105.876 0.682604 0.19893 0
M  V30 1131 H 108.478 1.95002 -0.139519 0
M  V30 1132 H 107.182 4.08566 0.387553 0
M  V30 1133 H 106.713 3.41288 1.95669 0
M  V30 1134 H 108.728 3.83772 3.14537 0
M  V30 1135 N 107.901 -0.206675 1.56239 0
M  V30 1136 C 109.149 -0.927007 1.79586 0
M  V30 1137 C 109.47 -1.8427 0.637929 0
M  V30 1138 O 108.74 -1.92849 -0.344398 0
M  V30 1139 H 107.32 -0.345292 0.662407 0
M  V30 1140 H 109.982 -0.21496 1.93711 0
M  V30 1141 H 109.078 -1.52501 2.72305 0
M  V30 1142 N 109.379 -1.50304 -0.473955 0
M  V30 1143 C 110.625 -1.62358 -1.22521 0
M  V30 1144 C 110.98 -0.318555 -1.89745 0
M  V30 1145 O 110.273 0.683315 -1.79001 0
M  V30 1146 C 110.467 -2.73938 -2.29549 0
M  V30 1147 C 110.296 -4.15165 -1.72825 0
M  V30 1148 C 109.066 -4.81604 -1.52924 0
M  V30 1149 C 111.264 -4.99503 -1.22481 0
M  V30 1150 N 109.246 -6.07056 -0.91413 0
M  V30 1151 C 110.617 -6.15655 -0.732743 0
M  V30 1152 C 112.672 -4.85299 -1.11308 0
M  V30 1153 C 111.375 -7.19164 -0.139976 0
M  V30 1154 C 113.401 -5.88982 -0.534258 0
M  V30 1155 C 112.763 -7.0438 -0.0525562 0
M  V30 1156 H 108.862 -0.648286 -0.437321 0
M  V30 1157 H 111.446 -1.87413 -0.527692 0
M  V30 1158 H 109.617 -2.50611 -2.9673 0
M  V30 1159 H 111.349 -2.75366 -2.96573 0
M  V30 1160 H 108.104 -4.3885 -1.78067 0
M  V30 1161 H 108.528 -6.74108 -0.625071 0
M  V30 1162 H 113.17 -3.96369 -1.47144 0
M  V30 1163 H 110.888 -8.07771 0.230591 0
M  V30 1164 H 114.474 -5.80055 -0.450219 0
M  V30 1165 H 113.354 -7.83238 0.388324 0
M  V30 1166 N 110.857 0.726932 -1.39834 0
M  V30 1167 C 112.105 1.4837 -1.37225 0
M  V30 1168 C 112.426 1.94979 0.0284857 0
M  V30 1169 O 111.696 1.69555 0.981213 0
M  V30 1170 H 110.276 0.55043 -0.505011 0
M  V30 1171 H 112.938 0.862468 -1.74778 0
M  V30 1172 H 112.034 2.36198 -2.04003 0
M  V30 1173 N 112.336 1.25143 0.95797 0
M  V30 1174 C 113.299 1.05321 2.03569 0
M  V30 1175 C 114.299 0.007152 1.60798 0
M  V30 1176 O 115.489 0.24903 1.72411 0
M  V30 1177 C 112.621 0.598394 3.35607 0
M  V30 1178 H 113.814 2.00986 2.22586 0
M  V30 1179 H 111.367 1.07502 1.13459 0
M  V30 1180 H 112.102 -0.361014 3.22284 0
M  V30 1181 H 111.887 1.35351 3.67998 0
M  V30 1182 H 113.377 0.48104 4.1482 0
M  V30 1183 N 113.814 -1.1601 1.06675 0
M  V30 1184 C 115.042 -1.90527 0.806667 0
M  V30 1185 C 115.457 -1.77643 -0.639396 0
M  V30 1186 O 114.814 -1.12369 -1.43803 0
M  V30 1187 C 114.865 -3.41106 1.19705 0
M  V30 1188 O 114.586 -3.53608 2.58636 0
M  V30 1189 C 116.087 -4.32663 0.965266 0
M  V30 1190 H 113.307 -0.604053 0.292166 0
M  V30 1191 H 115.851 -1.47026 1.4214 0
M  V30 1192 H 114.006 -3.82296 0.626774 0
M  V30 1193 H 114.42 -4.47011 2.74375 0
M  V30 1194 H 115.894 -5.36763 1.288 0
M  V30 1195 H 116.371 -4.39089 -0.0987936 0
M  V30 1196 H 116.977 -3.97206 1.52011 0
M  V30 1197 N 115.292 -0.849877 -1.32721 0
M  V30 1198 C 116.225 -0.235903 -2.26977 0
M  V30 1199 C 117.203 0.623355 -1.50177 0
M  V30 1200 O 118.387 0.581207 -1.79316 0
M  V30 1201 C 115.514 0.667712 -3.32053 0
M  V30 1202 C 114.56 -0.11753 -4.26338 0
M  V30 1203 S 115.393 -1.48277 -5.14562 0
M  V30 1204 C 116.549 -0.584741 -6.23163 0
M  V30 1205 H 116.782 -1.03495 -2.78704 0
M  V30 1206 H 114.315 -0.64724 -1.40179 0
M  V30 1207 H 116.273 1.18343 -3.93072 0
M  V30 1208 H 114.934 1.44052 -2.7912 0
M  V30 1209 H 114.127 0.57051 -5.00761 0
M  V30 1210 H 113.729 -0.564668 -3.69713 0
M  V30 1211 H 116.021 0.212968 -6.77165 0
M  V30 1212 H 116.964 -1.29947 -6.96074 0
M  V30 1213 H 117.372 -0.161202 -5.6427 0
M  V30 1214 N 116.77 1.45427 -0.607355 0
M  V30 1215 C 118.186 1.57283 -0.270985 0
M  V30 1216 C 118.386 1.59875 1.22647 0
M  V30 1217 O 117.442 1.52893 2.00948 0
M  V30 1218 C 118.755 2.85566 -0.941952 0
M  V30 1219 C 120.303 2.9924 -0.917849 0
M  V30 1220 C 120.778 4.30293 -1.56882 0
M  V30 1221 N 122.269 4.37051 -1.5343 0
M  V30 1222 C 123.004 5.37123 -2.00715 0
M  V30 1223 N 122.5 6.43734 -2.56084 0
M  V30 1224 N 124.293 5.28479 -1.91484 0
M  V30 1225 H 116.444 1.41988 -1.57966 0
M  V30 1226 H 118.707 0.67885 -0.661715 0
M  V30 1227 H 118.413 2.8955 -1.99633 0
M  V30 1228 H 118.287 3.74322 -0.465096 0
M  V30 1229 H 120.674 2.94822 0.127984 0
M  V30 1230 H 120.755 2.11895 -1.43297 0
M  V30 1231 H 120.399 4.35469 -2.61398 0
M  V30 1232 H 120.329 5.16454 -1.02873 0
M  V30 1233 H 122.82 3.60615 -1.12982 0
M  V30 1234 H 123.133 7.16341 -2.89958 0
M  V30 1235 H 121.478 6.44485 -2.60122 0
M  V30 1236 H 124.669 4.44098 -1.47967 0
M  V30 1237 H 124.842 6.0632 -2.28648 0
M  V30 1238 N 118.248 0.346503 1.53744 0
M  V30 1239 C 119.664 -0.00530975 1.59599 0
M  V30 1240 C 119.864 -1.48465 1.36236 0
M  V30 1241 O 118.92 -2.24376 1.15808 0
M  V30 1242 C 120.233 0.433516 2.97559 0
M  V30 1243 C 121.781 0.386111 3.10609 0
M  V30 1244 C 122.256 0.800451 4.50951 0
M  V30 1245 N 123.747 0.754753 4.5701 0
M  V30 1246 C 124.482 1.04727 5.63755 0
M  V30 1247 N 123.978 1.4081 6.7834 0
M  V30 1248 N 125.771 0.971316 5.53644 0
M  V30 1249 H 117.922 1.31009 1.67184 0
M  V30 1250 H 120.185 0.534242 0.783128 0
M  V30 1251 H 119.891 1.46509 3.19731 0
M  V30 1252 H 119.765 -0.189753 3.76722 0
M  V30 1253 H 122.152 -0.636295 2.88158 0
M  V30 1254 H 122.233 1.04462 2.33498 0
M  V30 1255 H 121.877 1.82088 4.74137 0
M  V30 1256 H 121.807 0.119386 5.26465 0
M  V30 1257 H 124.298 0.488662 3.74727 0
M  V30 1258 H 124.611 1.61607 7.55714 0
M  V30 1259 H 122.956 1.44657 6.79779 0
M  V30 1260 H 126.147 0.688748 4.63005 0
M  V30 1261 H 126.32 1.20263 6.36742 0
M  V30 1262 N 119.726 -1.57421 0.075193 0
M  V30 1263 C 120.689 -2.11791 -0.876203 0
M  V30 1264 C 121.689 -1.04268 -1.22412 0
M  V30 1265 O 122.879 -1.30242 -1.15684 0
M  V30 1266 C 120.011 -2.62207 -2.17854 0
M  V30 1267 H 121.204 -2.9716 -0.40444 0
M  V30 1268 H 118.757 -1.55333 -0.173557 0
M  V30 1269 H 119.492 -1.803 -2.6956 0
M  V30 1270 H 119.277 -3.40802 -1.93897 0
M  V30 1271 H 120.767 -3.04335 -2.85955 0
M  V30 1272 N 121.204 0.198386 -1.56346 0
M  V30 1273 C 122.453 0.917451 -1.79627 0
M  V30 1274 C 122.766 1.8456 -0.64784 0
M  V30 1275 O 123.972 2.60504 -0.764859 0
M  V30 1276 C 122.428 1.68175 -3.18191 0
M  V30 1277 C 122.036 0.798589 -4.40825 0
M  V30 1278 C 123.78 2.39065 -3.50782 0
M  V30 1279 C 121.687 1.56157 -5.70411 0
M  V30 1280 H 120.617 0.346317 -0.669762 0
M  V30 1281 H 123.268 0.170801 -1.82703 0
M  V30 1282 H 121.65 2.47216 -3.09354 0
M  V30 1283 H 122.824 0.0470665 -4.60776 0
M  V30 1284 H 121.139 0.200686 -4.15916 0
M  V30 1285 H 123.736 2.96692 -4.44835 0
M  V30 1286 H 124.079 3.13091 -2.74371 0
M  V30 1287 H 124.612 1.66993 -3.61052 0
M  V30 1288 H 121.351 0.864142 -6.49779 0
M  V30 1289 H 120.871 2.2871 -5.54483 0
M  V30 1290 H 122.55 2.11622 -6.11412 0
M  V30 1291 N 122.682 1.50554 0.465978 0
M  V30 1292 C 123.645 1.69233 1.54574 0
M  V30 1293 C 124.645 0.562901 1.50626 0
M  V30 1294 O 125.835 0.830016 1.53155 0
M  V30 1295 C 122.967 1.7223 2.94193 0
M  V30 1296 H 124.16 2.65571 1.39327 0
M  V30 1297 H 121.713 1.40111 0.692711 0
M  V30 1298 H 122.448 0.77603 3.14878 0
M  V30 1299 H 122.233 2.54285 2.98466 0
M  V30 1300 H 123.723 1.88618 3.72576 0
M  V30 1301 N 124.16 -0.719506 1.40217 0
M  V30 1302 C 125.092 -1.84428 1.36084 0
M  V30 1303 C 126.105 -1.60597 0.266913 0
M  V30 1304 O 127.294 -1.70544 0.526983 0
M  V30 1305 C 124.394 -3.20757 1.094 0
M  V30 1306 C 123.567 -3.71817 2.30372 0
M  V30 1307 C 122.626 -4.86748 1.99907 0
M  V30 1308 O 121.652 -4.99603 2.72737 0
M  V30 1309 N 122.854 -5.7226 0.974635 0
M  V30 1310 H 125.619 -1.88473 2.33019 0
M  V30 1311 H 123.18 -0.900885 1.3452 0
M  V30 1312 H 125.172 -3.95235 0.870116 0
M  V30 1313 H 123.742 -3.11884 0.211452 0
M  V30 1314 H 122.962 -2.88514 2.68614 0
M  V30 1315 H 124.25 -4.02666 3.11026 0
M  V30 1316 H 123.648 -5.6448 0.371368 0
M  V30 1317 H 122.205 -6.46739 0.810656 0
M  V30 1318 N 125.638 -1.25649 -0.95132 0
M  V30 1319 C 126.868 -1.13179 -1.72841 0
M  V30 1320 C 127.276 0.316827 -1.86528 0
M  V30 1321 O 126.619 1.22948 -1.3649 0
M  V30 1322 C 126.681 -1.71644 -3.15878 0
M  V30 1323 C 126.345 -3.20667 -3.25609 0
M  V30 1324 C 127.342 -4.17616 -3.09666 0
M  V30 1325 C 125.027 -3.6094 -3.49324 0
M  V30 1326 C 127.021 -5.52817 -3.17289 0
M  V30 1327 C 124.708 -4.96278 -3.56584 0
M  V30 1328 C 125.706 -5.92025 -3.40581 0
M  V30 1329 O 125.394 -7.24899 -3.47528 0
M  V30 1330 H 125.126 -0.395389 -0.54831 0
M  V30 1331 H 127.68 -1.66566 -1.20187 0
M  V30 1332 H 125.91 -1.12707 -3.69911 0
M  V30 1333 H 127.599 -1.54225 -3.75459 0
M  V30 1334 H 128.365 -3.87842 -2.91211 0
M  V30 1335 H 124.244 -2.86907 -3.6084 0
M  V30 1336 H 127.788 -6.2753 -3.04716 0
M  V30 1337 H 123.685 -5.25716 -3.74556 0
M  V30 1338 H 124.453 -7.33039 -3.64138 0
M  V30 1339 N 127.117 1.15442 -1.07289 0
M  V30 1340 C 128.394 1.82306 -0.708792 0
M  V30 1341 C 128.774 1.94991 0.808807 0
M  V30 1342 O 128.122 1.50085 1.72298 0
M  V30 1343 C 128.332 3.18695 -1.42247 0
M  V30 1344 C 129.68 3.94341 -1.57417 0
M  V30 1345 O 130.704 3.28247 -1.38319 0
M  V30 1346 O 129.563 5.12839 -1.88834 0
M  V30 1347 H 126.657 0.787628 -0.252132 0
M  V30 1348 H 129.203 1.22559 -1.17377 0
M  V30 1349 H 127.975 3.04557 -2.45684 0
M  V30 1350 H 127.598 3.86128 -0.948223 0
M  V30 1351 N 128.595 0.856903 1.32268 0
M  V30 1352 C 129.841 0.462069 1.97466 0
M  V30 1353 C 130.174 -0.980298 1.67642 0
M  V30 1354 O 129.449 -1.68824 0.965858 0
M  V30 1355 C 129.732 0.704336 3.53145 0
M  V30 1356 C 129.585 2.19529 3.9259 0
M  V30 1357 C 130.904 0.1622 4.39801 0
M  V30 1358 H 128.023 0.169357 0.717278 0
M  V30 1359 H 130.665 1.07574 1.56614 0
M  V30 1360 H 128.815 0.181999 3.88073 0
M  V30 1361 H 130.487 2.78387 3.67829 0
M  V30 1362 H 128.73 2.67292 3.41668 0
M  V30 1363 H 129.401 2.31549 5.01088 0
M  V30 1364 H 131.877 0.608905 4.11621 0
M  V30 1365 H 130.753 0.361265 5.4771 0
M  V30 1366 H 131.014 -0.935158 4.32096 0
M  V30 1367 N 130.073 -1.45103 0.615059 0
M  V30 1368 C 131.021 -2.32331 -0.111791 0
M  V30 1369 C 132.015 -1.46409 -0.852102 0
M  V30 1370 O 133.221 -1.62849 -0.766821 0
M  V30 1371 H 129.596 -0.749993 -0.0549072 0
M  V30 1372 H 131.567 -2.91407 0.642225 0
M  V30 1373 C 130.316 -3.3015 -1.09071 0
M  V30 1374 H 129.639 -3.96265 -0.530485 0
M  V30 1375 H 131.079 -3.93898 -1.56908 0
M  V30 1376 C 129.538 -2.57875 -2.168 0
M  V30 1377 O 130.068 -2.36567 -3.24652 0
M  V30 1378 N 128.274 -2.17884 -1.92289 0
M  V30 1379 H 127.821 -2.35413 -1.04587 0
M  V30 1380 H 127.779 -1.6985 -2.64572 0
M  V30 1381 N 131.551 -0.354651 -1.53558 0
M  V30 1382 C 132.797 0.238797 -2.01389 0
M  V30 1383 C 133.13 1.49309 -1.2418 0
M  V30 1384 O 132.405 1.91638 -0.332457 0
M  V30 1385 C 132.688 0.541771 -3.56001 0
M  V30 1386 C 132.541 -0.725388 -4.43912 0
M  V30 1387 C 133.86 1.34685 -4.18984 0
M  V30 1388 H 130.979 0.0853177 -0.732045 0
M  V30 1389 H 133.621 -0.477384 -1.83905 0
M  V30 1390 H 131.771 1.15189 -3.71031 0
M  V30 1391 H 133.443 -1.36313 -4.407 0
M  V30 1392 H 131.686 -1.34801 -4.12324 0
M  V30 1393 H 132.357 -0.468505 -5.50008 0
M  V30 1394 H 134.833 0.830837 -4.07721 0
M  V30 1395 H 133.709 1.52759 -5.27215 0
M  V30 1396 H 133.97 2.35221 -3.74331 0
M  V30 1397 N 133.029 1.57378 -0.0835403 0
M  V30 1398 C 134.275 1.94217 0.583733 0
M  V30 1399 C 134.608 0.964653 1.68547 0
M  V30 1400 O 133.883 -0.00422258 1.945 0
M  V30 1401 C 134.166 3.41253 1.14972 0
M  V30 1402 C 134.019 4.49768 0.0538277 0
M  V30 1403 C 135.338 3.89352 2.05166 0
M  V30 1404 H 132.457 0.706233 0.210724 0
M  V30 1405 H 135.099 1.89392 -0.1519 0
M  V30 1406 H 133.249 3.45496 1.77665 0
M  V30 1407 H 134.921 4.57641 -0.579851 0
M  V30 1408 H 133.164 4.29432 -0.614068 0
M  V30 1409 H 133.835 5.49817 0.490452 0
M  V30 1410 H 136.311 3.87189 1.52393 0
M  V30 1411 H 135.187 4.92822 2.41698 0
M  V30 1412 H 135.448 3.27973 2.96456 0
M  V30 1413 N 134.507 -0.190092 1.56449 0
M  V30 1414 C 135.755 -0.907908 1.80559 0
M  V30 1415 C 136.076 -1.83583 0.657438 0
M  V30 1416 O 135.346 -1.93203 -0.323924 0
M  V30 1417 H 133.926 -0.338247 0.666032 0
M  V30 1418 H 136.588 -0.194403 1.93928 0
M  V30 1419 H 135.684 -1.49604 2.73907 0
M  V30 1420 N 135.985 -1.50799 -0.457987 0
M  V30 1421 C 136.915 -1.73553 -1.5621 0
M  V30 1422 C 137.896 -0.584774 -1.59732 0
M  V30 1423 O 139.081 -0.825314 -1.7579 0
M  V30 1424 C 136.211 -1.84169 -2.94447 0
M  V30 1425 C 135.165 -2.99461 -3.0579 0
M  V30 1426 C 134.491 -2.95235 -4.45803 0
M  V30 1427 C 135.791 -4.39766 -2.81786 0
M  V30 1428 H 137.485 -2.66 -1.37421 0
M  V30 1429 H 135.031 -1.28002 -0.659662 0
M  V30 1430 H 136.984 -1.98672 -3.71628 0
M  V30 1431 H 135.708 -0.883545 -3.14422 0
M  V30 1432 H 134.367 -2.8463 -2.31044 0
M  V30 1433 H 134.015 -1.97239 -4.62715 0
M  V30 1434 H 133.715 -3.72642 -4.54326 0
M  V30 1435 H 135.239 -3.11803 -5.24987 0
M  V30 1436 H 136.653 -4.55054 -3.4871 0
M  V30 1437 H 135.05 -5.18722 -3.0174 0
M  V30 1438 H 136.12 -4.51229 -1.7754 0
M  V30 1439 N 137.463 0.71206 -1.40597 0
M  V30 1440 C 138.691 1.50111 -1.42388 0
M  V30 1441 C 139.106 1.88784 -0.0245395 0
M  V30 1442 O 138.463 1.55681 0.952351 0
M  V30 1443 C 138.514 2.7742 -2.31776 0
M  V30 1444 O 138.235 2.40382 -3.66262 0
M  V30 1445 C 139.736 3.7129 -2.42196 0
M  V30 1446 H 136.956 0.46314 -0.485533 0
M  V30 1447 H 139.5 0.878068 -1.8469 0
M  V30 1448 H 137.655 3.36001 -1.92827 0
M  V30 1449 H 138.069 3.22324 -4.13772 0
M  V30 1450 H 139.543 4.57448 -3.08943 0
M  V30 1451 H 140.02 4.14641 -1.44809 0
M  V30 1452 H 140.626 3.18619 -2.81712 0
M  V30 1453 N 138.941 1.26152 0.944643 0
M  V30 1454 C 139.871 1.09902 2.06019 0
M  V30 1455 C 140.852 0.00519538 1.70099 0
M  V30 1456 O 142.037 0.176583 1.93396 0
M  V30 1457 C 139.167 0.727562 3.39594 0
M  V30 1458 C 138.121 1.77274 3.89561 0
M  V30 1459 C 137.447 1.25569 5.19747 0
M  V30 1460 C 138.747 3.17357 4.14827 0
M  V30 1461 H 140.441 2.03217 2.19871 0
M  V30 1462 H 137.987 0.978452 1.05652 0
M  V30 1463 H 139.94 0.600777 4.17095 0
M  V30 1464 H 138.664 -0.241287 3.25707 0
M  V30 1465 H 137.323 1.88814 3.14237 0
M  V30 1466 H 136.971 0.276783 5.02238 0
M  V30 1467 H 136.671 1.95433 5.54148 0
M  V30 1468 H 138.195 1.1415 5.99835 0
M  V30 1469 H 139.609 3.08914 4.82954 0
M  V30 1470 H 138.006 3.84781 4.60504 0
M  V30 1471 H 139.076 3.63673 3.20734 0
M  V30 1472 N 140.419 -1.14872 1.07899 0
M  V30 1473 C 141.644 -1.90202 0.826926 0
M  V30 1474 C 142.069 -1.77774 -0.614664 0
M  V30 1475 O 141.427 -1.11431 -1.43013 0
M  V30 1476 C 141.475 -3.38352 1.24702 0
M  V30 1477 O 140.579 -4.10497 0.39575 0
M  V30 1478 H 139.92 -0.591968 0.300782 0
M  V30 1479 H 142.45 -1.45437 1.43907 0
M  V30 1480 H 142.46 -3.89156 1.22563 0
M  V30 1481 H 141.135 -3.46715 2.29698 0
M  V30 1482 H 139.712 -3.69796 0.480117 0
M  V30 1483 N 141.898 -0.863906 -1.31812 0
M  V30 1484 C 142.845 -0.313303 -2.28664 0
M  V30 1485 C 143.815 0.584868 -1.55462 0
M  V30 1486 O 145 0.517805 -1.83639 0
M  V30 1487 C 142.14 0.48441 -3.41683 0
M  V30 1488 C 141.253 -0.440594 -4.29747 0
M  V30 1489 C 140.388 0.370652 -5.29905 0
M  V30 1490 C 139.427 -0.551164 -6.09613 0
M  V30 1491 N 138.564 0.223462 -7.01744 0
M  V30 1492 H 143.404 -1.14444 -2.75148 0
M  V30 1493 H 140.941 -0.575769 -1.35364 0
M  V30 1494 H 142.899 0.962627 -4.05943 0
M  V30 1495 H 141.529 1.28029 -2.96325 0
M  V30 1496 H 140.581 -1.03724 -3.65986 0
M  V30 1497 H 141.893 -1.14767 -4.85417 0
M  V30 1498 H 141.047 0.911638 -5.99812 0
M  V30 1499 H 139.786 1.11105 -4.74876 0
M  V30 1500 H 138.791 -1.10396 -5.38603 0
M  V30 1501 H 140.016 -1.29032 -6.66729 0
M  V30 1502 H 137.962 0.946787 -6.49132 0
M  V30 1503 H 137.879 -0.424399 -7.54808 0
M  V30 1504 H 139.147 0.745876 -7.75923 0
M  V30 1505 N 143.376 1.44774 -0.622745 0
M  V30 1506 C 144.324 2.32387 0.0994683 0
M  V30 1507 C 145.318 1.46859 0.844326 0
M  V30 1508 O 146.524 1.63254 0.758174 0
M  V30 1509 H 142.899 0.750273 0.0509291 0
M  V30 1510 H 144.87 2.91062 -0.65767 0
M  V30 1511 C 143.619 3.30723 1.07319 0
M  V30 1512 H 142.942 3.96541 0.509462 0
M  V30 1513 H 144.382 3.94725 1.54817 0
M  V30 1514 C 142.841 2.59021 2.15429 0
M  V30 1515 O 143.371 2.38286 3.23393 0
M  V30 1516 N 141.577 2.189 1.91131 0
M  V30 1517 H 141.124 2.35964 1.03337 0
M  V30 1518 H 141.082 1.71251 2.63668 0
M  V30 1519 N 144.854 0.36279 1.53368 0
M  V30 1520 C 145.786 -0.519668 2.23231 0
M  V30 1521 C 146.799 -1.04844 1.24546 0
M  V30 1522 O 147.988 -0.955296 1.50786 0
M  V30 1523 C 145.088 -1.72995 2.9142 0
M  V30 1524 C 144.261 -1.33316 4.16588 0
M  V30 1525 C 143.32 -2.40521 4.68013 0
M  V30 1526 O 142.346 -2.03027 5.3176 0
M  V30 1527 N 143.548 -3.72065 4.45587 0
M  V30 1528 H 146.313 0.078751 2.99597 0
M  V30 1529 H 143.874 0.187833 1.60807 0
M  V30 1530 H 145.866 -2.44184 3.22733 0
M  V30 1531 H 144.436 -2.2353 2.18525 0
M  V30 1532 H 143.656 -0.451236 3.91609 0
M  V30 1533 H 144.944 -1.04432 4.97967 0
M  V30 1534 H 144.342 -4.05304 3.94646 0
M  V30 1535 H 142.899 -4.39366 4.81457 0
M  V30 1536 N 146.332 -1.57332 0.0918853 0
M  V30 1537 C 147.295 -2.12708 -0.85369 0
M  V30 1538 C 148.295 -1.05561 -1.213 0
M  V30 1539 O 149.485 -1.31461 -1.14296 0
M  V30 1540 C 146.617 -2.64503 -2.15061 0
M  V30 1541 H 147.81 -2.97573 -0.3729 0
M  V30 1542 H 145.363 -1.55509 -0.157072 0
M  V30 1543 H 146.098 -1.83149 -2.67632 0
M  V30 1544 H 145.883 -3.4284 -1.90272 0
M  V30 1545 H 147.373 -3.07351 -2.82711 0
M  V30 1546 N 147.81 0.181792 -1.56548 0
M  V30 1547 C 148.773 1.20894 -1.94724 0
M  V30 1548 C 149.773 1.37738 -0.829747 0
M  V30 1549 O 150.963 1.35323 -1.09697 0
M  V30 1550 C 148.095 2.57593 -2.23291 0
M  V30 1551 H 149.288 0.882275 -2.86629 0
M  V30 1552 H 146.841 0.423838 -1.50444 0
M  V30 1553 H 147.576 2.95291 -1.34067 0
M  V30 1554 H 147.361 2.46735 -3.04736 0
M  V30 1555 H 148.851 3.31637 -2.53785 0
M  V30 1556 N 149.288 1.51039 0.449983 0
M  V30 1557 C 150.238 1.67824 1.54335 0
M  V30 1558 C 151.222 0.5324 1.51836 0
M  V30 1559 O 152.414 0.787762 1.58503 0
M  V30 1560 C 149.543 1.7951 2.92628 0
M  V30 1561 C 148.629 2.99838 2.9993 0
M  V30 1562 N 149.02 4.23207 2.77001 0
M  V30 1563 C 147.318 2.98832 3.31082 0
M  V30 1564 C 148.019 5.04361 2.89818 0
M  V30 1565 N 146.995 4.38746 3.2094 0
M  V30 1566 H 150.797 2.60884 1.35339 0
M  V30 1567 H 148.311 1.48513 0.657085 0
M  V30 1568 H 150.308 1.89642 3.7127 0
M  V30 1569 H 148.968 0.876227 3.12654 0
M  V30 1570 H 149.979 4.5236 2.52172 0
M  V30 1571 H 146.656 2.16527 3.56963 0
M  V30 1572 H 148.046 6.12528 2.76151 0
M  V30 1573 N 150.766 -0.704594 1.40972 0
M  V30 1574 C 152.012 -1.46675 1.40051 0
M  V30 1575 C 152.345 -1.94199 0.00641102 0
M  V30 1576 O 151.62 -1.68916 -0.964235 0
M  V30 1577 C 151.903 -2.68505 2.39952 0
M  V30 1578 C 151.756 -2.26805 3.88432 0
M  V30 1579 C 153.075 -3.70686 2.37233 0
M  V30 1580 H 150.194 -0.532015 0.510028 0
M  V30 1581 H 152.836 -0.803255 1.72185 0
M  V30 1582 H 150.986 -3.25114 2.1268 0
M  V30 1583 H 152.658 -1.75592 4.26574 0
M  V30 1584 H 150.901 -1.58685 4.03734 0
M  V30 1585 H 151.572 -3.14181 4.53866 0
M  V30 1586 H 154.048 -3.23731 2.61415 0
M  V30 1587 H 152.924 -4.53553 3.09162 0
M  V30 1588 H 153.185 -4.19754 1.38777 0
M  V30 1589 N 152.244 -1.26651 -0.937939 0
M  V30 1590 C 153.176 -1.04283 -2.04102 0
M  V30 1591 C 154.189 -0.00221014 -1.628 0
M  V30 1592 O 155.378 -0.242645 -1.76843 0
M  V30 1593 C 152.478 -0.557846 -3.34277 0
M  V30 1594 C 151.651 -1.66843 -4.04329 0
M  V30 1595 C 150.71 -1.18095 -5.12777 0
M  V30 1596 O 149.736 -1.87865 -5.37304 0
M  V30 1597 N 150.938 -0.0311006 -5.80492 0
M  V30 1598 H 153.703 -1.9927 -2.23856 0
M  V30 1599 H 151.264 -1.1808 -1.10764 0
M  V30 1600 H 153.256 -0.215836 -4.04124 0
M  V30 1601 H 151.826 0.298523 -3.11171 0
M  V30 1602 H 151.046 -2.18123 -3.28353 0
M  V30 1603 H 152.334 -2.41408 -4.47883 0
M  V30 1604 H 151.732 0.551486 -5.63005 0
M  V30 1605 H 150.289 0.251809 -6.51313 0
M  V30 1606 N 153.722 1.14298 -1.08507 0
M  V30 1607 C 154.669 2.19414 -0.715965 0
M  V30 1608 C 155.639 1.63399 0.298326 0
M  V30 1609 O 156.824 1.89929 0.182101 0
M  V30 1610 C 153.964 3.44845 -0.132534 0
M  V30 1611 C 153.077 4.15007 -1.19973 0
M  V30 1612 C 152.212 5.28024 -0.580048 0
M  V30 1613 C 151.251 5.9002 -1.62921 0
M  V30 1614 N 150.388 6.94485 -1.03125 0
M  V30 1615 H 155.228 2.50336 -1.61666 0
M  V30 1616 H 152.765 1.2293 -0.807882 0
M  V30 1617 H 154.723 4.16601 0.223454 0
M  V30 1618 H 153.353 3.14403 0.731467 0
M  V30 1619 H 152.405 3.41629 -1.67313 0
M  V30 1620 H 153.717 4.57178 -1.99473 0
M  V30 1621 H 152.871 6.06455 -0.172364 0
M  V30 1622 H 151.61 4.87076 0.246603 0
M  V30 1623 H 150.615 5.10291 -2.04654 0
M  V30 1624 H 151.84 6.33042 -2.45835 0
M  V30 1625 H 149.786 6.55612 -0.225711 0
M  V30 1626 H 149.703 7.35148 -1.76334 0
M  V30 1627 H 150.971 7.7679 -0.649458 0
M  V30 1628 N 155.201 0.870884 1.31352 0
M  V30 1629 C 156.426 0.495957 2.01383 0
M  V30 1630 C 156.851 -0.904324 1.64935 0
M  V30 1631 O 156.209 -1.59687 0.858466 0
M  V30 1632 C 156.257 0.661433 3.54482 0
M  V30 1633 O 155.361 -0.298851 4.11316 0
M  V30 1634 H 154.702 0.197158 0.634054 0
M  V30 1635 H 157.232 1.17455 1.67527 0
M  V30 1636 H 157.242 0.555072 4.04207 0
M  V30 1637 H 155.917 1.68246 3.8035 0
M  V30 1638 H 154.494 -0.147368 3.72609 0
M  V30 1639 N 156.679 -1.44442 0.630414 0
M  V30 1640 C 157.926 -2.02052 0.134617 0
M  V30 1641 C 158.254 -1.49576 -1.24327 0
M  V30 1642 O 157.509 -0.669806 -1.83881 0
M  V30 1643 C 157.808 -3.57332 0.0697835 0
M  V30 1644 C 157.474 -4.29058 1.38635 0
M  V30 1645 C 156.136 -4.4837 1.74694 0
M  V30 1646 C 158.488 -4.69872 2.25543 0
M  V30 1647 C 155.816 -5.05756 2.97369 0
M  V30 1648 C 158.168 -5.28616 3.47487 0
M  V30 1649 C 156.832 -5.46147 3.8377 0
M  V30 1650 H 156.102 -0.739361 0.0492598 0
M  V30 1651 H 158.749 -1.73217 0.816586 0
M  V30 1652 H 157.054 -3.85577 -0.695553 0
M  V30 1653 H 158.751 -3.99637 -0.330344 0
M  V30 1654 H 155.341 -4.14357 1.09574 0
M  V30 1655 H 159.525 -4.54666 1.98979 0
M  V30 1656 H 154.781 -5.17515 3.25558 0
M  V30 1657 H 158.955 -5.59192 4.15063 0
M  V30 1658 H 156.582 -5.9038 4.7891 0
M  V30 1659 N 158.157 -0.370918 -1.53173 0
M  V30 1660 C 159.434 0.273754 -1.93675 0
M  V30 1661 C 159.814 1.65938 -1.3049 0
M  V30 1662 O 159.162 2.23698 -0.465999 0
M  V30 1663 C 159.372 0.318602 -3.47543 0
M  V30 1664 C 160.72 0.556392 -4.20939 0
M  V30 1665 O 161.744 0.399587 -3.53952 0
M  V30 1666 O 160.603 0.862133 -5.39657 0
M  V30 1667 H 157.697 0.165448 -0.810281 0
M  V30 1668 H 160.243 -0.42409 -1.64315 0
M  V30 1669 H 159.015 -0.652687 -3.85818 0
M  V30 1670 H 158.638 1.06212 -3.83151 0
M  V30 1671 N 159.635 1.57281 -0.100228 0
M  V30 1672 C 160.545 2.17833 0.870965 0
M  V30 1673 C 161.561 1.14921 1.30649 0
M  V30 1674 O 162.737 1.47313 1.37335 0
M  V30 1675 C 159.802 2.75085 2.1102 0
M  V30 1676 C 158.863 3.9297 1.72838 0
M  V30 1677 C 158.096 4.47482 2.90854 0
M  V30 1678 O 158.319 4.00922 4.05731 0
M  V30 1679 O 157.253 5.38433 2.69023 0
M  V30 1680 H 161.079 3.0124 0.38575 0
M  V30 1681 H 158.664 1.48881 0.124397 0
M  V30 1682 H 160.546 3.11656 2.83634 0
M  V30 1683 H 159.221 1.94721 2.58584 0
M  V30 1684 H 158.128 3.61201 0.973883 0
M  V30 1685 H 159.461 4.74713 1.30033 0
M  V30 1686 N 161.113 -0.173488 1.56642 0
M  V30 1687 C 162.046 -1.24353 1.91342 0
M  V30 1688 C 163.024 -1.4289 0.775965 0
M  V30 1689 O 164.208 -1.57932 1.02907 0
M  V30 1690 C 161.335 -2.60683 2.16245 0
M  V30 1691 C 160.381 -2.58894 3.38934 0
M  V30 1692 S 161.214 -2.0819 4.93373 0
M  V30 1693 C 162.37 -3.46302 5.21369 0
M  V30 1694 H 162.603 -0.947345 2.81803 0
M  V30 1695 H 160.136 -0.377958 1.49703 0
M  V30 1696 H 162.094 -3.39149 2.31275 0
M  V30 1697 H 160.755 -2.87502 1.26496 0
M  V30 1698 H 159.948 -3.59188 3.53553 0
M  V30 1699 H 159.55 -1.88522 3.2301 0
M  V30 1700 H 161.842 -4.42287 5.13214 0
M  V30 1701 H 162.785 -3.3656 6.23003 0
M  V30 1702 H 163.193 -3.42214 4.48943 0
M  V30 1703 N 162.591 -1.51276 -0.441967 0
M  V30 1704 C 163.868 -1.54252 -1.20273 0
M  V30 1705 C 164.248 -0.30408 -2.08898 0
M  V30 1706 O 163.596 0.711084 -2.17154 0
M  V30 1707 C 163.806 -2.85406 -2.00859 0
M  V30 1708 C 165.154 -3.37181 -2.58059 0
M  V30 1709 O 166.178 -2.86925 -2.11074 0
M  V30 1710 O 165.037 -4.24858 -3.43741 0
M  V30 1711 H 162.131 -0.619969 -0.547328 0
M  V30 1712 H 164.677 -1.63586 -0.451413 0
M  V30 1713 H 163.449 -3.67003 -1.35736 0
M  V30 1714 H 163.072 -2.79213 -2.83065 0
M  V30 1715 N 164.069 0.697108 -1.41344 0
M  V30 1716 C 165.297 1.48593 -1.43972 0
M  V30 1717 C 165.712 1.88747 -0.0445612 0
M  V30 1718 O 165.069 1.56682 0.935785 0
M  V30 1719 C 165.12 2.74946 -2.34706 0
M  V30 1720 O 164.841 2.36484 -3.68791 0
M  V30 1721 C 166.342 3.687 -2.46121 0
M  V30 1722 H 163.562 0.457964 -0.490418 0
M  V30 1723 H 166.106 0.858429 -1.8561 0
M  V30 1724 H 164.261 3.33937 -1.9638 0
M  V30 1725 H 164.675 3.17918 -4.17167 0
M  V30 1726 H 166.149 4.54145 -3.13777 0
M  V30 1727 H 166.626 4.13081 -1.49199 0
M  V30 1728 H 167.232 3.15613 -2.85076 0
M  V30 1729 N 165.547 1.27147 0.931209 0
M  V30 1730 C 166.958 1.12044 1.49342 0
M  V30 1731 C 167.309 -0.295795 1.93957 0
M  V30 1732 O 166.434 -1.18835 1.80852 0
M  V30 1733 C 167.029 2.02781 2.71414 0
M  V30 1734 C 165.588 1.91794 3.2387 0
M  V30 1735 C 164.735 1.95543 1.96617 0
M  V30 1736 H 167.686 1.40091 0.745672 0
M  V30 1737 H 167.707 1.58156 3.46074 0
M  V30 1738 H 167.219 3.05848 2.38911 0
M  V30 1739 H 165.32 0.916992 3.6114 0
M  V30 1740 H 165.433 2.77852 3.90302 0
M  V30 1741 H 163.797 1.39722 2.12955 0
M  V30 1742 H 164.58 3.00259 1.66432 0
M  V30 1743 N 167.025 -1.13721 1.09112 0
M  V30 1744 C 168.441 -1.36914 0.820174 0
M  V30 1745 C 168.641 -1.93356 -0.567079 0
M  V30 1746 O 167.697 -2.15093 -1.32255 0
M  V30 1747 C 169.01 -2.3235 1.90877 0
M  V30 1748 C 170.558 -2.45973 1.93562 0
M  V30 1749 C 171.033 -3.44714 3.01556 0
M  V30 1750 N 172.524 -3.52263 3.00775 0
M  V30 1751 C 173.259 -4.28536 3.80978 0
M  V30 1752 N 172.755 -5.07991 4.71081 0
M  V30 1753 N 174.548 -4.23804 3.69251 0
M  V30 1754 H 166.699 -0.754348 1.98553 0
M  V30 1755 H 168.962 -0.3944 0.862063 0
M  V30 1756 H 168.668 -1.98027 2.90651 0
M  V30 1757 H 168.542 -3.32332 1.78424 0
M  V30 1758 H 170.929 -2.79584 0.944286 0
M  V30 1759 H 171.01 -1.45926 2.10093 0
M  V30 1760 H 170.654 -3.11835 4.00901 0
M  V30 1761 H 170.584 -4.44558 2.82269 0
M  V30 1762 H 173.075 -2.95567 2.35475 0
M  V30 1763 H 173.388 -5.63487 5.28869 0
M  V30 1764 H 171.733 -5.07235 4.75119 0
M  V30 1765 H 174.924 -3.60806 2.98222 0
M  V30 1766 H 175.097 -4.82995 4.31995 0
M  V30 1767 N 168.503 -0.877838 -1.30888 0
M  V30 1768 C 169.78 -0.413052 -1.91189 0
M  V30 1769 C 170.16 1.1056 -1.79832 0
M  V30 1770 O 169.508 1.93771 -1.21099 0
M  V30 1771 C 169.718 -0.903191 -3.3711 0
M  V30 1772 C 171.066 -0.93395 -4.14201 0
M  V30 1773 O 172.09 -0.849373 -3.45925 0
M  V30 1774 O 170.949 -1.05772 -5.36167 0
M  V30 1775 H 168.043 -0.125035 -0.817493 0
M  V30 1776 H 170.589 -0.966269 -1.39504 0
M  V30 1777 H 169.361 -1.94692 -3.39427 0
M  V30 1778 H 168.984 -0.328732 -3.96239 0
M  V30 1779 N 169.982 1.44106 -0.638065 0
M  V30 1780 C 171.398 1.56672 -0.304286 0
M  V30 1781 C 171.598 1.6244 1.19228 0
M  V30 1782 O 170.654 1.57121 1.9766 0
M  V30 1783 C 171.967 2.83503 -1.00231 0
M  V30 1784 C 173.515 2.97226 -0.981116 0
M  V30 1785 C 173.99 4.26868 -1.65974 0
M  V30 1786 N 175.481 4.33698 -1.62666 0
M  V30 1787 C 176.216 5.32745 -2.12063 0
M  V30 1788 N 175.712 6.38157 -2.6968 0
M  V30 1789 N 177.505 5.24299 -2.02651 0
M  V30 1790 H 169.656 1.38605 -1.60942 0
M  V30 1791 H 171.919 0.664661 -0.675965 0
M  V30 1792 H 171.625 2.85251 -2.0573 0
M  V30 1793 H 171.499 3.73251 -0.54439 0
M  V30 1794 H 173.886 2.95027 0.0654188 0
M  V30 1795 H 173.967 2.08808 -1.47759 0
M  V30 1796 H 173.611 4.29826 -2.70576 0
M  V30 1797 H 173.541 5.14156 -1.13804 0
M  V30 1798 H 176.032 3.58138 -1.20606 0
M  V30 1799 H 176.345 7.10029 -3.05087 0
M  V30 1800 H 174.69 6.38823 -2.73734 0
M  V30 1801 H 177.881 4.4086 -1.57353 0
M  V30 1802 H 178.054 6.01334 -2.41457 0
M  V30 1803 N 171.46 0.379036 1.52974 0
M  V30 1804 C 172.876 0.0285448 1.59574 0
M  V30 1805 C 173.076 -1.45542 1.39355 0
M  V30 1806 O 172.132 -2.2187 1.20541 0
M  V30 1807 C 173.445 0.496535 2.96572 0
M  V30 1808 C 174.993 0.451909 3.0972 0
M  V30 1809 C 175.468 0.895924 4.49152 0
M  V30 1810 N 176.959 0.851522 4.55306 0
M  V30 1811 C 177.694 1.16661 5.61407 0
M  V30 1812 N 177.19 1.55166 6.752 0
M  V30 1813 N 178.983 1.08853 5.51459 0
M  V30 1814 H 171.134 1.34525 1.64367 0
M  V30 1815 H 173.397 0.550733 0.771619 0
M  V30 1816 H 173.103 1.53258 3.16552 0
M  V30 1817 H 172.977 -0.109802 3.7704 0
M  V30 1818 H 175.364 -0.575029 2.89443 0
M  V30 1819 H 175.445 1.09392 2.3123 0
M  V30 1820 H 175.089 1.92104 4.70168 0
M  V30 1821 H 175.019 0.23103 5.26093 0
M  V30 1822 H 177.51 0.568038 3.73606 0
M  V30 1823 H 177.823 1.776 7.52116 0
M  V30 1824 H 176.168 1.59044 6.76557 0
M  V30 1825 H 179.359 0.786803 4.6144 0
M  V30 1826 H 179.532 1.33742 6.34048 0
M  V30 1827 N 172.938 -1.57226 0.108567 0
M  V30 1828 C 174.184 -1.95121 -0.552761 0
M  V30 1829 C 174.517 -0.991345 -1.66991 0
M  V30 1830 O 173.792 -0.0267211 -1.94482 0
M  V30 1831 C 174.075 -3.43039 -1.09528 0
M  V30 1832 C 173.928 -4.49797 0.0177332 0
M  V30 1833 C 175.247 -3.92567 -1.98945 0
M  V30 1834 H 172.366 -0.709496 -0.199461 0
M  V30 1835 H 175.008 -1.89126 0.182011 0
M  V30 1836 H 173.158 -3.48279 -1.72146 0
M  V30 1837 H 174.83 -4.56661 0.652584 0
M  V30 1838 H 173.073 -4.284 0.682309 0
M  V30 1839 H 173.744 -5.50528 -0.402919 0
M  V30 1840 H 176.22 -3.89565 -1.46214 0
M  V30 1841 H 175.096 -4.96605 -2.33827 0
M  V30 1842 H 175.357 -3.32648 -2.91201 0
M  V30 1843 N 174.416 0.165178 -1.56732 0
M  V30 1844 C 175.346 1.20651 -1.99914 0
M  V30 1845 C 176.327 1.45827 -0.875705 0
M  V30 1846 O 177.512 1.57057 -1.14223 0
M  V30 1847 C 174.642 2.54401 -2.36427 0
M  V30 1848 C 173.596 2.43782 -3.51787 0
M  V30 1849 C 172.922 3.82078 -3.7406 0
M  V30 1850 C 174.222 1.93732 -4.85041 0
M  V30 1851 H 175.916 0.847534 -2.87154 0
M  V30 1852 H 173.462 0.40625 -1.38151 0
M  V30 1853 H 175.415 3.27458 -2.65234 0
M  V30 1854 H 174.139 2.92098 -1.46103 0
M  V30 1855 H 172.798 1.73178 -3.23117 0
M  V30 1856 H 172.446 4.17179 -2.81017 0
M  V30 1857 H 172.146 3.7584 -4.51684 0
M  V30 1858 H 173.67 4.56712 -4.05274 0
M  V30 1859 H 175.084 2.56569 -5.12684 0
M  V30 1860 H 173.481 1.98428 -5.66345 0
M  V30 1861 H 174.551 0.891962 -4.76626 0
M  V30 1862 N 175.894 1.51508 0.433938 0
M  V30 1863 C 176.824 1.76016 1.53429 0
M  V30 1864 C 177.805 0.610112 1.58782 0
M  V30 1865 O 178.99 0.853177 1.74455 0
M  V30 1866 C 176.12 1.88831 2.9148 0
M  V30 1867 C 175.074 3.04288 3.00987 0
M  V30 1868 C 174.4 3.0229 4.4105 0
M  V30 1869 C 175.7 4.44193 2.74754 0
M  V30 1870 H 177.394 2.68152 1.33171 0
M  V30 1871 H 174.94 1.29035 0.639214 0
M  V30 1872 H 176.893 2.04559 3.6842 0
M  V30 1873 H 175.617 0.933455 3.12976 0
M  V30 1874 H 174.276 2.8827 2.26486 0
M  V30 1875 H 173.924 2.04576 4.59519 0
M  V30 1876 H 173.624 3.79822 4.4834 0
M  V30 1877 H 175.148 3.20116 5.1996 0
M  V30 1878 H 176.562 4.60544 3.41426 0
M  V30 1879 H 174.959 5.23457 2.9345 0
M  V30 1880 H 176.029 4.53996 1.70339 0
M  V30 1881 N 177.372 -0.689602 1.41712 0
M  V30 1882 C 178.335 -1.78521 1.43746 0
M  V30 1883 C 179.335 -1.57436 0.327191 0
M  V30 1884 O 180.525 -1.64 0.587348 0
M  V30 1885 C 177.657 -3.16971 1.25467 0
M  V30 1886 H 178.85 -1.78108 2.41283 0
M  V30 1887 H 176.403 -0.89781 1.27942 0
M  V30 1888 H 177.138 -3.23019 0.287948 0
M  V30 1889 H 176.923 -3.33678 2.05917 0
M  V30 1890 H 178.413 -3.96935 1.2974 0
M  V30 1891 N 178.85 -1.27639 -0.924453 0
M  V30 1892 C 180.098 -1.13941 -1.66918 0
M  V30 1893 C 180.419 0.314589 -1.92446 0
M  V30 1894 O 179.689 1.21964 -1.53303 0
M  V30 1895 H 178.269 -0.418678 -0.618642 0
M  V30 1896 H 180.931 -1.60213 -1.10985 0
M  V30 1897 H 180.027 -1.67094 -2.63602 0
M  V30 1898 N 180.328 1.1314 -1.09713 0
M  V30 1899 C 181.574 1.84967 -0.846104 0
M  V30 1900 C 181.929 1.82082 0.621601 0
M  V30 1901 O 181.222 1.2501 1.452 0
M  V30 1902 C 181.416 3.32167 -1.3191 0
M  V30 1903 C 181.245 3.49386 -2.83125 0
M  V30 1904 C 180.015 3.63456 -3.51038 0
M  V30 1905 C 182.213 3.45179 -3.81256 0
M  V30 1906 N 180.195 3.68966 -4.9065 0
M  V30 1907 C 181.566 3.57094 -5.06837 0
M  V30 1908 C 183.621 3.28598 -3.74069 0
M  V30 1909 C 182.324 3.5414 -6.26081 0
M  V30 1910 C 184.35 3.26953 -4.92804 0
M  V30 1911 C 183.712 3.39422 -6.17229 0
M  V30 1912 H 179.811 0.692899 -0.362512 0
M  V30 1913 H 182.395 1.35506 -1.39808 0
M  V30 1914 H 180.566 3.80186 -0.794535 0
M  V30 1915 H 182.298 3.91815 -1.01308 0
M  V30 1916 H 179.053 3.65256 -3.01471 0
M  V30 1917 H 179.477 3.75404 -5.63383 0
M  V30 1918 H 184.119 3.17858 -2.78794 0
M  V30 1919 H 181.837 3.63653 -7.21653 0
M  V30 1920 H 185.423 3.15316 -4.88945 0
M  V30 1921 H 184.303 3.38114 -7.07565 0
M  V30 1922 N 181.806 0.884767 1.30421 0
M  V30 1923 C 182.716 0.355398 2.31892 0
M  V30 1924 C 183.732 -0.542261 1.65335 0
M  V30 1925 O 184.908 -0.435432 1.96637 0
M  V30 1926 C 181.973 -0.421661 3.44126 0
M  V30 1927 C 181.034 0.505727 4.26311 0
M  V30 1928 C 180.267 -0.234343 5.33185 0
M  V30 1929 O 180.49 -1.46045 5.51386 0
M  V30 1930 O 179.424 0.415443 6.00465 0
M  V30 1931 H 183.25 1.19685 2.79122 0
M  V30 1932 H 180.835 0.648596 1.34587 0
M  V30 1933 H 182.717 -0.861641 4.12497 0
M  V30 1934 H 181.392 -1.23942 2.99032 0
M  V30 1935 H 180.299 0.994513 3.60639 0
M  V30 1936 H 181.632 1.28948 4.75009 0
M  V30 1937 N 183.284 -1.43765 0.645699 0
M  V30 1938 C 184.216 -2.29027 -0.0890605 0
M  V30 1939 C 185.229 -1.42093 -0.794563 0
M  V30 1940 O 186.418 -1.66104 -0.653575 0
M  V30 1941 C 183.518 -3.18831 -1.14891 0
M  V30 1942 C 182.691 -4.34261 -0.523043 0
M  V30 1943 C 181.75 -5.04994 -1.47878 0
M  V30 1944 O 180.776 -5.6052 -0.990277 0
M  V30 1945 N 181.978 -5.07795 -2.81291 0
M  V30 1946 H 184.743 -2.92727 0.64272 0
M  V30 1947 H 182.304 -1.54373 0.487924 0
M  V30 1948 H 184.296 -3.63015 -1.78892 0
M  V30 1949 H 182.866 -2.56782 -1.78275 0
M  V30 1950 H 182.086 -3.93088 0.295896 0
M  V30 1951 H 183.374 -5.08728 -0.0858147 0
M  V30 1952 H 182.772 -4.64042 -3.23546 0
M  V30 1953 H 181.329 -5.55721 -3.40614 0
M  V30 1954 N 184.763 -0.387143 -1.52771 0
M  V30 1955 C 186.01 0.195735 -2.01552 0
M  V30 1956 C 186.338 1.46995 -1.27369 0
M  V30 1957 O 185.593 1.92325 -0.361879 0
M  V30 1958 C 185.892 0.512209 -3.53711 0
M  V30 1959 C 185.558 -0.670202 -4.45891 0
M  V30 1960 C 184.22 -0.994586 -4.70809 0
M  V30 1961 C 186.572 -1.46134 -5.00294 0
M  V30 1962 C 183.9 -2.11169 -5.4738 0
M  V30 1963 C 186.252 -2.56903 -5.78086 0
M  V30 1964 C 184.916 -2.89852 -6.01284 0
M  V30 1965 H 184.186 0.0716246 -0.73753 0
M  V30 1966 H 186.833 -0.524046 -1.8419 0
M  V30 1967 H 185.138 1.31329 -3.69134 0
M  V30 1968 H 186.835 0.975804 -3.88946 0
M  V30 1969 H 183.425 -0.407366 -4.2666 0
M  V30 1970 H 187.609 -1.22397 -4.80971 0
M  V30 1971 H 182.865 -2.3707 -5.63567 0
M  V30 1972 H 187.039 -3.18608 -6.19243 0
M  V30 1973 H 184.666 -3.76533 -6.60399 0
M  V30 1974 N 186.241 1.57166 -0.116904 0
M  V30 1975 C 187.189 2.16457 0.851418 0
M  V30 1976 C 188.183 1.11323 1.27686 0
M  V30 1977 O 189.389 1.2963 1.24884 0
M  V30 1978 H 185.764 0.69271 0.292672 0
M  V30 1979 H 187.735 2.96605 0.32685 0
M  V30 1980 C 186.484 2.77689 2.09246 0
M  V30 1981 H 185.807 3.58285 1.77402 0
M  V30 1982 H 187.247 3.22716 2.7501 0
M  V30 1983 C 185.706 1.74667 2.88085 0
M  V30 1984 O 186.236 1.19877 3.83396 0
M  V30 1985 N 184.442 1.44656 2.52038 0
M  V30 1986 H 183.989 1.89402 1.74599 0
M  V30 1987 H 183.947 0.759675 3.05084 0
M  V30 1988 N 187.719 -0.156864 1.56817 0
M  V30 1989 C 188.629 -1.2136 2.00771 0
M  V30 1990 C 189.645 -1.47598 0.921459 0
M  V30 1991 O 190.821 -1.59462 1.2302 0
M  V30 1992 C 187.886 -2.52943 2.37109 0
M  V30 1993 C 186.947 -2.34439 3.59634 0
M  V30 1994 C 186.18 -3.59748 3.94229 0
M  V30 1995 O 186.403 -4.65526 3.29609 0
M  V30 1996 O 185.337 -3.52998 4.8752 0
M  V30 1997 H 189.163 -0.870468 2.90958 0
M  V30 1998 H 186.748 -0.36484 1.44877 0
M  V30 1999 H 188.63 -3.30538 2.61386 0
M  V30 2000 H 187.305 -2.86806 1.5008 0
M  V30 2001 H 186.212 -1.54828 3.40557 0
M  V30 2002 H 187.545 -2.05496 4.4725 0
M  V30 2003 N 189.197 -1.51736 -0.425897 0
M  V30 2004 C 190.608 -1.5732 -1.00536 0
M  V30 2005 C 190.959 -0.403537 -1.92005 0
M  V30 2006 O 190.084 0.478256 -2.11049 0
M  V30 2007 C 190.679 -2.85119 -1.8301 0
M  V30 2008 C 189.238 -2.93236 -2.35987 0
M  V30 2009 C 188.385 -2.52098 -1.15508 0
M  V30 2010 H 191.336 -1.57348 -0.206739 0
M  V30 2011 H 191.357 -2.69526 -2.68581 0
M  V30 2012 H 190.869 -3.7023 -1.16411 0
M  V30 2013 H 188.97 -2.12581 -3.06007 0
M  V30 2014 H 189.083 -3.9713 -2.68001 0
M  V30 2015 H 187.447 -2.05558 -1.50393 0
M  V30 2016 H 188.23 -3.39565 -0.505014 0
M  V30 2017 N 190.675 0.682077 -1.42076 0
M  V30 2018 C 191.921 1.44428 -1.42367 0
M  V30 2019 C 192.254 1.94164 -0.0373056 0
M  V30 2020 O 191.529 1.70429 0.937239 0
M  V30 2021 C 191.812 2.64654 -2.44194 0
M  V30 2022 C 191.665 2.20596 -3.91991 0
M  V30 2023 C 192.984 3.66865 -2.431 0
M  V30 2024 H 190.103 0.523834 -0.518428 0
M  V30 2025 H 192.745 0.77576 -1.73442 0
M  V30 2026 H 190.895 3.2169 -2.17826 0
M  V30 2027 H 192.567 1.68783 -4.29313 0
M  V30 2028 H 190.81 1.52242 -4.06208 0
M  V30 2029 H 191.481 3.06921 -4.58807 0
M  V30 2030 H 193.957 3.19531 -2.66532 0
M  V30 2031 H 192.833 4.48577 -3.16339 0
M  V30 2032 H 193.094 4.17493 -1.45437 0
M  V30 2033 N 192.153 1.28127 0.917671 0
M  V30 2034 C 193.43 1.05761 1.64542 0
M  V30 2035 C 193.81 -0.404344 2.07191 0
M  V30 2036 O 193.158 -1.38963 1.81388 0
M  V30 2037 C 193.368 2.02857 2.83989 0
M  V30 2038 C 194.716 2.32786 3.551 0
M  V30 2039 O 195.74 2.0091 2.94132 0
M  V30 2040 O 194.599 2.87169 4.64969 0
M  V30 2041 H 191.693 0.403916 0.721652 0
M  V30 2042 H 194.239 1.39431 0.967322 0
M  V30 2043 H 193.011 3.01407 2.49538 0
M  V30 2044 H 192.634 1.69809 3.59514 0
M  V30 2045 N 193.631 -1.12557 1.10312 0
M  V30 2046 C 195.047 -1.36036 0.834649 0
M  V30 2047 C 195.247 -1.93946 -0.546539 0
M  V30 2048 O 194.303 -2.16484 -1.29966 0
M  V30 2049 C 195.616 -2.30312 1.9333 0
M  V30 2050 C 197.164 -2.43906 1.9616 0
M  V30 2051 C 197.639 -3.41496 3.05195 0
M  V30 2052 N 199.13 -3.49053 3.04494 0
M  V30 2053 C 199.865 -4.24471 3.85502 0
M  V30 2054 N 199.361 -5.02966 4.76442 0
M  V30 2055 N 201.154 -4.19864 3.73725 0
M  V30 2056 H 193.305 -0.733246 1.99342 0
M  V30 2057 H 195.568 -0.385234 0.866198 0
M  V30 2058 H 195.274 -1.94933 2.92735 0
M  V30 2059 H 195.148 -3.30421 1.81939 0
M  V30 2060 H 197.535 -2.78567 0.973886 0
M  V30 2061 H 197.616 -1.4369 2.11629 0
M  V30 2062 H 197.26 -3.07565 4.04186 0
M  V30 2063 H 197.19 -4.41539 2.86968 0
M  V30 2064 H 199.681 -2.93053 2.38596 0
M  V30 2065 H 199.994 -5.57846 5.34815 0
M  V30 2066 H 198.339 -5.02167 4.80472 0
M  V30 2067 H 201.53 -3.57623 3.02032 0
M  V30 2068 H 201.703 -4.78386 4.37093 0
M  V30 2069 N 195.109 -0.891671 -1.2995 0
M  V30 2070 C 196.358 -0.509521 -1.95158 0
M  V30 2071 C 196.671 0.947388 -1.71125 0
M  V30 2072 O 197.877 1.43669 -2.30372 0
M  V30 2073 C 196.333 -0.860315 -3.49466 0
M  V30 2074 C 195.941 -2.33545 -3.8231 0
M  V30 2075 C 197.685 -0.547687 -4.20952 0
M  V30 2076 C 195.592 -2.62752 -5.29826 0
M  V30 2077 H 194.522 -0.18682 -0.730489 0
M  V30 2078 H 197.173 -1.08756 -1.47798 0
M  V30 2079 H 195.555 -0.211285 -3.95436 0
M  V30 2080 H 196.729 -3.02936 -3.47227 0
M  V30 2081 H 195.044 -2.61629 -3.23944 0
M  V30 2082 H 197.641 -0.742854 -5.29515 0
M  V30 2083 H 197.984 0.51332 -4.13123 0
M  V30 2084 H 198.517 -1.1542 -3.80688 0
M  V30 2085 H 195.256 -3.6762 -5.42712 0
M  V30 2086 H 194.776 -1.97977 -5.66185 0
M  V30 2087 H 196.455 -2.48601 -5.97333 0
M  V30 2088 N 196.587 1.43421 -0.653314 0
M  V30 2089 C 197.833 2.02111 -0.166992 0
M  V30 2090 C 198.166 1.51423 1.21592 0
M  V30 2091 O 197.441 0.707389 1.8118 0
M  V30 2092 C 197.724 3.5966 -0.177948 0
M  V30 2093 C 197.577 4.20579 -1.59478 0
M  V30 2094 C 198.896 4.37413 0.4856 0
M  V30 2095 H 196.015 0.734374 -0.0621557 0
M  V30 2096 H 198.657 1.70717 -0.834016 0
M  V30 2097 H 196.807 3.86537 0.390032 0
M  V30 2098 H 198.479 4.04732 -2.21336 0
M  V30 2099 H 196.722 3.77226 -2.14204 0
M  V30 2100 H 197.393 5.29665 -1.5543 0
M  V30 2101 H 199.869 4.161 0.00234528 0
M  V30 2102 H 198.745 5.47075 0.447207 0
M  V30 2103 H 199.006 4.13672 1.55974 0
M  V30 2104 N 198.065 0.39524 1.52563 0
M  V30 2105 C 199.29 -0.187456 2.06551 0
M  V30 2106 C 199.715 -1.39249 1.26457 0
M  V30 2107 O 199.073 -1.78947 0.291151 0
M  V30 2108 C 199.121 -0.529985 3.56684 0
M  V30 2109 O 198.225 -1.62307 3.79118 0
M  V30 2110 H 197.566 -0.0202537 0.663691 0
M  V30 2111 H 200.096 0.564426 1.96661 0
M  V30 2112 H 200.106 -0.792598 4.00227 0
M  V30 2113 H 198.781 0.350987 4.14416 0
M  V30 2114 H 197.358 -1.3537 3.47461 0
M  V30 2115 N 199.544 -1.57102 0.125237 0
M  V30 2116 C 200.793 -1.94582 -0.531095 0
M  V30 2117 C 201.106 -1.01126 -1.6743 0
M  V30 2118 O 202.312 -1.28097 -2.39381 0
M  V30 2119 C 200.768 -3.45839 -0.996164 0
M  V30 2120 C 200.376 -4.47842 0.118926 0
M  V30 2121 C 202.12 -3.92227 -1.62352 0
M  V30 2122 C 200.027 -5.90284 -0.363192 0
M  V30 2123 H 198.957 -0.726391 -0.20217 0
M  V30 2124 H 201.608 -1.82339 0.206092 0
M  V30 2125 H 199.99 -3.53338 -1.78796 0
M  V30 2126 H 201.164 -4.52018 0.895358 0
M  V30 2127 H 199.479 -4.11243 0.653324 0
M  V30 2128 H 202.076 -4.96069 -1.99548 0
M  V30 2129 H 202.419 -3.32552 -2.50429 0
M  V30 2130 H 202.952 -3.87554 -0.897019 0
M  V30 2131 H 199.691 -6.53728 0.481679 0
M  V30 2132 H 199.211 -5.89515 -1.10597 0
M  V30 2133 H 200.89 -6.41752 -0.822377 0
M  V30 2134 N 201.022 0.148545 -1.56898 0
M  V30 2135 C 202.27 0.859717 -1.82902 0
M  V30 2136 C 202.591 1.81775 -0.70588 0
M  V30 2137 O 201.861 1.93994 0.272586 0
M  V30 2138 H 200.441 0.320469 -0.674766 0
M  V30 2139 H 203.103 0.142918 -1.94375 0
M  V30 2140 H 202.199 1.4229 -2.77777 0
M  V30 2141 N 202.5 1.5196 0.417844 0
M  V30 2142 C 203.463 1.74065 1.49111 0
M  V30 2143 C 204.463 0.610537 1.48758 0
M  V30 2144 O 205.653 0.87832 1.50437 0
M  V30 2145 C 202.785 1.81502 2.88565 0
M  V30 2146 H 203.978 2.69869 1.30807 0
M  V30 2147 H 201.531 1.42244 0.647785 0
M  V30 2148 H 202.266 0.875813 3.1225 0
M  V30 2149 H 202.051 2.63651 2.90225 0
M  V30 2150 H 203.541 2.00376 3.66387 0
M  V30 2151 N 203.978 -0.674533 1.42435 0
M  V30 2152 C 205.225 -1.43459 1.42919 0
M  V30 2153 C 205.553 -1.94446 0.0457312 0
M  V30 2154 O 204.808 -1.7132 -0.94593 0
M  V30 2155 C 205.107 -2.64767 2.40069 0
M  V30 2156 C 204.773 -2.3232 3.86443 0
M  V30 2157 C 203.435 -2.23182 4.26314 0
M  V30 2158 C 205.787 -2.05977 4.78773 0
M  V30 2159 C 203.115 -1.85827 5.56494 0
M  V30 2160 C 205.467 -1.70125 6.09295 0
M  V30 2161 C 204.131 -1.59498 6.48164 0
M  V30 2162 H 203.401 -0.524952 0.522978 0
M  V30 2163 H 206.048 -0.769097 1.75377 0
M  V30 2164 H 204.353 -3.36349 2.00939 0
M  V30 2165 H 206.05 -3.22949 2.37707 0
M  V30 2166 H 202.64 -2.40334 3.54877 0
M  V30 2167 H 206.824 -2.11969 4.48757 0
M  V30 2168 H 202.08 -1.76168 5.8547 0
M  V30 2169 H 206.254 -1.48767 6.80324 0
M  V30 2170 H 203.881 -1.30322 7.48946 0
M  V30 2171 N 205.456 -1.28612 -0.910864 0
M  V30 2172 C 206.366 -1.14643 -2.0468 0
M  V30 2173 C 207.382 -0.0723121 -1.7385 0
M  V30 2174 O 208.558 -0.282178 -1.99413 0
M  V30 2175 C 205.623 -0.812561 -3.37044 0
M  V30 2176 C 204.684 -1.96935 -3.81465 0
M  V30 2177 C 203.917 -1.65131 -5.07511 0
M  V30 2178 O 204.14 -0.567013 -5.67575 0
M  V30 2179 O 203.074 -2.49585 -5.47714 0
M  V30 2180 H 206.9 -2.1001 -2.19384 0
M  V30 2181 H 204.485 -1.07958 -1.03274 0
M  V30 2182 H 206.367 -0.640441 -4.16505 0
M  V30 2183 H 205.042 0.111426 -3.23508 0
M  V30 2184 H 203.949 -2.19664 -3.02818 0
M  V30 2185 H 205.282 -2.87414 -3.99567 0
M  V30 2186 N 206.934 1.1197 -1.10907 0
M  V30 2187 C 207.884 2.15946 -0.731538 0
M  V30 2188 C 208.868 1.58758 0.261699 0
M  V30 2189 O 210.06 1.76863 0.0696722 0
M  V30 2190 C 207.189 3.42877 -0.170299 0
M  V30 2191 C 206.275 4.07037 -1.19087 0
M  V30 2192 N 206.666 4.46135 -2.38322 0
M  V30 2193 C 204.964 4.33884 -1.03252 0
M  V30 2194 C 205.665 4.96331 -3.03366 0
M  V30 2195 N 204.641 4.9214 -2.30865 0
M  V30 2196 H 208.443 2.43947 -1.63912 0
M  V30 2197 H 205.957 1.28927 -0.987505 0
M  V30 2198 H 207.954 4.16732 0.118271 0
M  V30 2199 H 206.614 3.16343 0.731935 0
M  V30 2200 H 207.625 4.38345 -2.75815 0
M  V30 2201 H 204.302 4.17084 -0.186256 0
M  V30 2202 H 205.692 5.36257 -4.04818 0
M  V30 2203 N 208.412 0.89855 1.29475 0
M  V30 2204 C 209.659 0.523882 1.95606 0
M  V30 2205 C 209.987 -0.929608 1.70847 0
M  V30 2206 O 209.242 -1.67401 1.01367 0
M  V30 2207 C 209.541 0.761398 3.49195 0
M  V30 2208 C 209.207 2.19207 3.94029 0
M  V30 2209 C 207.869 2.58326 4.05982 0
M  V30 2210 C 210.221 3.12379 4.17216 0
M  V30 2211 C 207.549 3.898 4.38489 0
M  V30 2212 C 209.901 4.43401 4.51197 0
M  V30 2213 C 208.565 4.82394 4.61359 0
M  V30 2214 H 207.835 0.191702 0.715773 0
M  V30 2215 H 210.482 1.13699 1.54094 0
M  V30 2216 H 208.787 0.0653622 3.91745 0
M  V30 2217 H 210.484 0.450904 3.98457 0
M  V30 2218 H 207.074 1.87846 3.85242 0
M  V30 2219 H 211.258 2.83371 4.07449 0
M  V30 2220 H 206.514 4.19734 4.44559 0
M  V30 2221 H 210.688 5.15623 4.68087 0
M  V30 2222 H 208.315 5.84306 4.86303 0
M  V30 2223 N 209.89 -1.43072 0.660911 0
M  V30 2224 C 211.138 -2.01323 0.177094 0
M  V30 2225 C 211.459 -1.5245 -1.2159 0
M  V30 2226 O 210.729 -0.740322 -1.81373 0
M  V30 2227 H 209.309 -0.744382 0.0624804 0
M  V30 2228 H 211.971 -1.75179 0.854305 0
M  V30 2229 H 211.067 -3.11649 0.167641 0
M  V30 2230 N 211.368 -0.403325 -1.52352 0
M  V30 2231 C 212.318 0.442244 -2.2367 0
M  V30 2232 C 213.302 1.01823 -1.24583 0
M  V30 2233 O 214.494 0.942005 -1.49851 0
M  V30 2234 C 211.623 1.5615 -3.05732 0
M  V30 2235 C 210.709 0.996575 -4.12225 0
M  V30 2236 N 211.1 0.157804 -5.05554 0
M  V30 2237 C 209.398 1.26767 -4.27605 0
M  V30 2238 C 210.099 -0.155853 -5.81491 0
M  V30 2239 N 209.075 0.451775 -5.41719 0
M  V30 2240 H 212.877 -0.204964 -2.93184 0
M  V30 2241 H 210.391 -0.213418 -1.60992 0
M  V30 2242 H 212.388 2.17981 -3.55373 0
M  V30 2243 H 211.048 2.21139 -2.37755 0
M  V30 2244 H 212.059 -0.206049 -5.1749 0
M  V30 2245 H 208.736 1.91757 -3.70858 0
M  V30 2246 H 210.126 -0.836329 -6.66675 0
M  V30 2247 N 212.846 1.57033 -0.133567 0
M  V30 2248 C 214.123 1.87256 0.56522 0
M  V30 2249 C 214.503 1.03726 1.83859 0
M  V30 2250 O 213.851 0.120247 2.28183 0
M  V30 2251 C 214.061 3.3865 0.843636 0
M  V30 2252 C 215.409 4.07574 1.19032 0
M  V30 2253 O 216.433 3.43752 0.933429 0
M  V30 2254 O 215.292 5.20259 1.67312 0
M  V30 2255 H 212.386 0.775678 0.286796 0
M  V30 2256 H 214.932 1.68855 -0.169168 0
M  V30 2257 H 213.704 3.91257 -0.0581149 0
M  V30 2258 H 213.327 3.62532 1.63268 0
M  V30 2259 N 214.325 -0.140222 1.56975 0
M  V30 2260 C 215.741 -0.493088 1.51792 0
M  V30 2261 C 215.941 -1.83013 0.843116 0
M  V30 2262 O 214.997 -2.49041 0.416493 0
M  V30 2263 C 216.31 -0.497144 2.96562 0
M  V30 2264 C 217.858 -0.582186 3.07538 0
M  V30 2265 C 218.333 -0.616838 4.53827 0
M  V30 2266 N 219.824 -0.678873 4.58198 0
M  V30 2267 C 220.559 -0.726782 5.68775 0
M  V30 2268 N 220.055 -0.733623 6.88905 0
M  V30 2269 N 221.848 -0.768179 5.56826 0
M  V30 2270 H 213.999 0.736108 1.99237 0
M  V30 2271 H 216.262 0.269182 0.90898 0
M  V30 2272 H 215.968 0.417217 3.49217 0
M  V30 2273 H 215.842 -1.33263 3.52875 0
M  V30 2274 H 218.229 -1.48697 2.54899 0
M  V30 2275 H 218.31 0.280581 2.54257 0
M  V30 2276 H 217.954 0.283812 5.07106 0
M  V30 2277 H 217.884 -1.49619 5.04898 0
M  V30 2278 H 220.375 -0.68061 3.7172 0
M  V30 2279 H 220.688 -0.772215 7.68932 0
M  V30 2280 H 219.033 -0.701389 6.91452 0
M  V30 2281 H 222.224 -0.760051 4.61888 0
M  V30 2282 H 222.397 -0.80205 6.43017 0
M  V30 2283 N 215.803 -1.52179 -0.40978 0
M  V30 2284 C 216.753 -1.71857 -1.49831 0
M  V30 2285 C 217.737 -0.572469 -1.50372 0
M  V30 2286 O 218.929 -0.829509 -1.56359 0
M  V30 2287 C 216.058 -1.87206 -2.87765 0
M  V30 2288 C 215.144 -3.07685 -2.91875 0
M  V30 2289 N 215.535 -4.30403 -2.65683 0
M  V30 2290 C 213.833 -3.07505 -3.23043 0
M  V30 2291 C 214.534 -5.11868 -2.76344 0
M  V30 2292 N 213.51 -4.47101 -3.09195 0
M  V30 2293 H 217.312 -2.64381 -1.28375 0
M  V30 2294 H 214.826 -1.50203 -0.617479 0
M  V30 2295 H 216.823 -1.99419 -3.66111 0
M  V30 2296 H 215.483 -0.958814 -3.10221 0
M  V30 2297 H 216.494 -4.58887 -2.4009 0
M  V30 2298 H 213.171 -2.25915 -3.51096 0
M  V30 2299 H 214.561 -6.19634 -2.59814 0
M  V30 2300 N 217.281 0.66697 -1.42791 0
M  V30 2301 C 218.244 1.76211 -1.46568 0
M  V30 2302 C 219.244 1.56896 -0.352196 0
M  V30 2303 O 220.434 1.63044 -0.613364 0
M  V30 2304 C 217.566 3.14935 -1.30494 0
M  V30 2305 H 218.759 1.74247 -2.44086 0
M  V30 2306 H 216.312 0.877342 -1.29354 0
M  V30 2307 H 217.047 3.2252 -0.339301 0
M  V30 2308 H 216.832 3.30359 -2.11199 0
M  V30 2309 H 218.322 3.94821 -1.36038 0
M  V30 2310 N 218.759 1.29093 0.90403 0
M  V30 2311 C 220.036 1.075 1.63411 0
M  V30 2312 C 220.416 -0.382346 2.07609 0
M  V30 2313 O 219.764 -1.37031 1.82851 0
M  V30 2314 C 219.974 2.05858 2.81822 0
M  V30 2315 C 221.322 2.36539 3.52611 0
M  V30 2316 O 222.346 2.04019 2.91984 0
M  V30 2317 O 221.205 2.92085 4.61897 0
M  V30 2318 H 218.299 0.411547 0.717327 0
M  V30 2319 H 220.845 1.40449 0.952479 0
M  V30 2320 H 219.617 3.04037 2.46327 0
M  V30 2321 H 219.24 1.73613 3.57693 0
M  V30 2322 N 220.237 -1.11381 1.11499 0
M  V30 2323 C 221.484 -1.83132 0.864231 0
M  V30 2324 C 221.812 -1.84683 -0.610114 0
M  V30 2325 O 221.067 -1.29589 -1.46646 0
M  V30 2326 C 221.366 -3.30026 1.37177 0
M  V30 2327 C 221.032 -3.48634 2.85946 0
M  V30 2328 C 219.694 -3.53421 3.26569 0
M  V30 2329 C 222.046 -3.54837 3.81759 0
M  V30 2330 C 219.374 -3.61967 4.61733 0
M  V30 2331 C 221.726 -3.64915 5.1674 0
M  V30 2332 C 220.39 -3.67962 5.5692 0
M  V30 2333 H 219.66 -0.670127 0.316245 0
M  V30 2334 H 222.307 -1.31354 1.3935 0
M  V30 2335 H 220.612 -3.84304 0.762753 0
M  V30 2336 H 222.309 -3.84034 1.15408 0
M  V30 2337 H 218.899 -3.45579 2.53521 0
M  V30 2338 H 223.083 -3.50399 3.51474 0
M  V30 2339 H 218.339 -3.62603 4.92269 0
M  V30 2340 H 222.513 -3.68658 5.90816 0
M  V30 2341 H 220.14 -3.74336 6.61647 0
M  V30 2342 N 221.715 -0.905404 -1.28997 0
M  V30 2343 C 222.962 -0.534248 -1.95325 0
M  V30 2344 C 223.29 0.920535 -1.71337 0
M  V30 2345 O 222.545 1.66861 -1.02254 0
M  V30 2346 C 222.844 -0.779906 -3.48787 0
M  V30 2347 C 222.51 -2.21293 -3.92861 0
M  V30 2348 C 221.172 -2.60475 -4.04606 0
M  V30 2349 C 223.524 -3.14587 -4.15553 0
M  V30 2350 C 220.852 -3.9212 -4.36416 0
M  V30 2351 C 223.204 -4.45787 -4.48839 0
M  V30 2352 C 221.868 -4.84834 -4.58794 0
M  V30 2353 H 221.138 -0.195495 -0.714747 0
M  V30 2354 H 223.785 -1.14514 -1.53488 0
M  V30 2355 H 222.09 -0.0861365 -3.91705 0
M  V30 2356 H 223.787 -0.472029 -3.98212 0
M  V30 2357 H 220.377 -1.89887 -3.84241 0
M  V30 2358 H 224.561 -2.85528 -4.0594 0
M  V30 2359 H 219.817 -4.22086 -4.42327 0
M  V30 2360 H 223.991 -5.18098 -4.65346 0
M  V30 2361 H 221.618 -5.86877 -4.83197 0
M  V30 2362 N 223.193 1.4272 -0.668489 0
M  V30 2363 C 224.156 2.292 0.00448567 0
M  V30 2364 C 225.156 1.43001 0.735339 0
M  V30 2365 O 226.346 1.64461 0.57429 0
M  V30 2366 C 223.478 3.25375 1.01705 0
M  V30 2367 H 224.671 2.90199 -0.756608 0
M  V30 2368 H 222.224 1.50254 -0.430506 0
M  V30 2369 H 222.959 2.69301 1.80686 0
M  V30 2370 H 222.744 3.88944 0.496463 0
M  V30 2371 H 224.234 3.90245 1.48655 0
M  V30 2372 N 224.671 0.411399 1.52136 0
M  V30 2373 C 226.087 0.0623865 1.59478 0
M  V30 2374 C 226.287 -1.42554 1.4241 0
M  V30 2375 O 225.343 -2.19263 1.2522 0
M  V30 2376 C 226.656 0.559331 2.95452 0
M  V30 2377 C 228.204 0.517503 3.08692 0
M  V30 2378 C 228.679 0.990994 4.4715 0
M  V30 2379 N 230.17 0.947908 4.53397 0
M  V30 2380 C 230.905 1.28544 5.58806 0
M  V30 2381 N 230.401 1.69454 6.71757 0
M  V30 2382 N 232.194 1.20526 5.49026 0
M  V30 2383 H 224.345 1.37982 1.61477 0
M  V30 2384 H 226.608 0.566977 0.759764 0
M  V30 2385 H 226.314 1.59938 3.1323 0
M  V30 2386 H 226.188 -0.0298014 3.77188 0
M  V30 2387 H 228.575 -0.513505 2.90598 0
M  V30 2388 H 228.656 1.14272 2.28857 0
M  V30 2389 H 228.3 2.02034 4.65988 0
M  V30 2390 H 228.23 0.34257 5.25485 0
M  V30 2391 H 230.721 0.647157 3.72317 0
M  V30 2392 H 231.034 1.93513 7.48179 0
M  V30 2393 H 229.379 1.73359 6.73032 0
M  V30 2394 H 232.57 0.884505 4.59667 0
M  V30 2395 H 232.743 1.47161 6.31069 0
M  V30 2396 N 226.149 -1.5696 0.141893 0
M  V30 2397 C 227.112 -2.15316 -0.785587 0
M  V30 2398 C 228.112 -1.09366 -1.1788 0
M  V30 2399 O 229.302 -1.35031 -1.10056 0
M  V30 2400 C 226.434 -2.71211 -2.06537 0
M  V30 2401 H 227.627 -2.98608 -0.278041 0
M  V30 2402 H 225.18 -1.5593 -0.107519 0
M  V30 2403 H 225.915 -1.91571 -2.6167 0
M  V30 2404 H 225.7 -3.4872 -1.79268 0
M  V30 2405 H 227.19 -3.16189 -2.72789 0
M  V30 2406 N 227.627 0.131896 -1.57047 0
M  V30 2407 C 228.577 1.1679 -1.95816 0
M  V30 2408 C 229.561 1.37756 -0.831393 0
M  V30 2409 O 230.753 1.39065 -1.09499 0
M  V30 2410 C 227.882 2.49778 -2.35512 0
M  V30 2411 C 226.968 2.32342 -3.54793 0
M  V30 2412 N 227.359 1.8469 -4.70875 0
M  V30 2413 C 225.657 2.63043 -3.60173 0
M  V30 2414 C 226.358 1.80656 -5.52936 0
M  V30 2415 N 225.334 2.24528 -4.95064 0
M  V30 2416 H 229.136 0.791818 -2.83033 0
M  V30 2417 H 226.65 0.339791 -1.58805 0
M  V30 2418 H 228.647 3.24692 -2.61498 0
M  V30 2419 H 227.307 2.88156 -1.49654 0
M  V30 2420 H 228.318 1.54429 -4.9434 0
M  V30 2421 H 224.995 3.05193 -2.84892 0
M  V30 2422 H 226.385 1.45178 -6.56028 0
M  V30 2423 N 229.106 1.52395 0.401703 0
M  V30 2424 C 230.053 1.76268 1.48991 0
M  V30 2425 C 231.023 0.605386 1.54675 0
M  V30 2426 O 232.208 0.843742 1.7113 0
M  V30 2427 C 229.348 1.92592 2.86361 0
M  V30 2428 C 228.461 3.20259 2.89928 0
M  V30 2429 C 227.596 3.26972 4.18644 0
M  V30 2430 C 226.635 4.48812 4.16214 0
M  V30 2431 N 225.772 4.52877 5.36514 0
M  V30 2432 H 230.612 2.6914 1.27935 0
M  V30 2433 H 228.149 1.33355 0.620871 0
M  V30 2434 H 230.107 2.0004 3.66115 0
M  V30 2435 H 228.737 1.03093 3.05895 0
M  V30 2436 H 227.789 3.21945 2.02621 0
M  V30 2437 H 229.101 4.10056 2.83999 0
M  V30 2438 H 228.255 3.33533 5.06794 0
M  V30 2439 H 226.994 2.35126 4.27278 0
M  V30 2440 H 225.999 4.4239 3.26453 0
M  V30 2441 H 227.224 5.41961 4.09213 0
M  V30 2442 H 225.17 3.63917 5.45802 0
M  V30 2443 H 225.087 5.36529 5.32609 0
M  V30 2444 H 226.355 4.63676 6.26597 0
M  V30 2445 N 230.584 -0.659388 1.43143 0
M  V30 2446 C 231.833 -1.41518 1.43721 0
M  V30 2447 C 232.146 -1.95499 0.0628176 0
M  V30 2448 O 233.352 -2.71446 -0.0539683 0
M  V30 2449 C 231.808 -2.5608 2.52885 0
M  V30 2450 C 231.416 -2.08733 3.96402 0
M  V30 2451 C 233.16 -3.3349 2.62649 0
M  V30 2452 C 231.067 -3.20469 4.97045 0
M  V30 2453 H 229.997 -0.531705 0.534608 0
M  V30 2454 H 232.648 -0.712343 1.69109 0
M  V30 2455 H 231.03 -3.28805 2.20688 0
M  V30 2456 H 232.204 -1.43059 4.3803 0
M  V30 2457 H 230.519 -1.44219 3.90627 0
M  V30 2458 H 233.116 -4.16734 3.35017 0
M  V30 2459 H 233.459 -3.8111 1.67513 0
M  V30 2460 H 233.992 -2.67842 2.94118 0
M  V30 2461 H 230.731 -2.77824 5.93712 0
M  V30 2462 H 230.251 -3.84874 4.60034 0
M  V30 2463 H 231.93 -3.85698 5.19467 0
M  V30 2464 N 232.062 -1.29571 -0.897171 0
M  V30 2465 C 232.992 -1.17473 -2.01798 0
M  V30 2466 C 233.973 -0.068323 -1.69963 0
M  V30 2467 O 235.158 -0.248239 -1.92607 0
M  V30 2468 C 232.288 -0.853099 -3.36659 0
M  V30 2469 C 231.242 -1.9161 -3.82713 0
M  V30 2470 C 230.568 -1.44773 -5.14728 0
M  V30 2471 C 231.868 -3.32535 -4.02763 0
M  V30 2472 H 233.562 -2.11237 -2.12177 0
M  V30 2473 H 231.108 -1.01699 -1.01948 0
M  V30 2474 H 233.061 -0.755165 -4.14578 0
M  V30 2475 H 231.785 0.120236 -3.26379 0
M  V30 2476 H 230.444 -2.00346 -3.07013 0
M  V30 2477 H 230.092 -0.462995 -5.00865 0
M  V30 2478 H 229.792 -2.15865 -5.46513 0
M  V30 2479 H 231.316 -1.36334 -5.95185 0
M  V30 2480 H 232.73 -3.26626 -4.71156 0
M  V30 2481 H 231.127 -4.01607 -4.45905 0
M  V30 2482 H 232.197 -3.75326 -3.07016 0
M  V30 2483 N 233.54 1.10788 -1.12088 0
M  V30 2484 C 234.951 1.64181 -0.88891 0
M  V30 2485 C 235.302 1.87508 0.577498 0
M  V30 2486 O 234.427 1.61434 1.44112 0
M  V30 2487 C 235.022 2.98257 -1.60712 0
M  V30 2488 C 233.581 3.4853 -1.42139 0
M  V30 2489 C 232.728 2.23208 -1.6454 0
M  V30 2490 H 235.679 0.943368 -1.27618 0
M  V30 2491 H 235.7 3.65552 -1.05604 0
M  V30 2492 H 235.212 2.81246 -2.67436 0
M  V30 2493 H 233.313 3.70692 -0.376552 0
M  V30 2494 H 233.426 4.26882 -2.17505 0
M  V30 2495 H 231.79 2.31169 -1.06925 0
M  V30 2496 H 232.573 2.08733 -2.72554 0
M  V30 2497 N 235.018 0.912232 1.28515 0
M  V30 2498 C 236.429 0.591352 1.77087 0
M  V30 2499 C 236.78 -0.8933 1.74684 0
M  V30 2500 O 235.905 -1.69876 1.34056 0
M  V30 2501 C 236.5 1.06668 3.2157 0
M  V30 2502 C 235.059 0.79675 3.67871 0
M  V30 2503 C 234.206 1.23427 2.48316 0
M  V30 2504 H 237.157 1.09365 1.15 0
M  V30 2505 H 237.178 0.407455 3.78312 0
M  V30 2506 H 236.69 2.14726 3.23287 0
M  V30 2507 H 234.791 -0.270679 3.71616 0
M  V30 2508 H 234.904 1.40343 4.58084 0
M  V30 2509 H 233.268 0.653036 2.46186 0
M  V30 2510 H 234.051 2.32316 2.52753 0
M  V30 2511 N 236.496 -1.42363 0.676048 0
M  V30 2512 C 237.773 -1.95183 0.127726 0
M  V30 2513 C 238.153 -1.61641 -1.35777 0
M  V30 2514 O 237.501 -0.913216 -2.09458 0
M  V30 2515 C 237.711 -3.46721 0.398199 0
M  V30 2516 C 239.059 -4.23427 0.315383 0
M  V30 2517 O 240.083 -3.54649 0.332016 0
M  V30 2518 O 238.942 -5.45888 0.25865 0
M  V30 2519 H 236.036 -0.826992 0.00359427 0
M  V30 2520 H 238.582 -1.52184 0.750864 0
M  V30 2521 H 237.354 -3.64344 1.4272 0
M  V30 2522 H 236.977 -3.96769 -0.256885 0
M  V30 2523 N 237.974 -0.419461 -1.51915 0
M  V30 2524 C 239.222 0.152637 -2.01523 0
M  V30 2525 C 239.543 1.44762 -1.30649 0
M  V30 2526 O 238.813 1.90997 -0.435535 0
M  V30 2527 H 237.393 0.0593966 -0.744635 0
M  V30 2528 H 240.055 -0.558073 -1.86739 0
M  V30 2529 H 239.151 0.341369 -3.10227 0
M  V30 2530 N 239.452 1.56882 -0.150215 0
M  V30 2531 C 240.698 1.96518 0.500834 0
M  V30 2532 C 241.031 1.03527 1.64304 0
M  V30 2533 O 240.306 0.0782751 1.94342 0
M  V30 2534 C 240.589 3.45822 1.00395 0
M  V30 2535 C 240.442 4.49591 -0.136983 0
M  V30 2536 C 241.761 3.97704 1.88467 0
M  V30 2537 H 238.88 0.714535 0.18058 0
M  V30 2538 H 241.522 1.88577 -0.232091 0
M  V30 2539 H 239.672 3.5272 1.62851 0
M  V30 2540 H 241.344 4.5477 -0.77343 0
M  V30 2541 H 239.587 4.26441 -0.795652 0
M  V30 2542 H 240.258 5.51402 0.256815 0
M  V30 2543 H 242.734 3.93304 1.35834 0
M  V30 2544 H 241.61 5.0263 2.20578 0
M  V30 2545 H 241.871 3.40252 2.82279 0
M  V30 2546 N 240.93 -0.123565 1.57115 0
M  V30 2547 C 241.86 -1.15309 2.03042 0
M  V30 2548 C 242.841 -1.43454 0.914061 0
M  V30 2549 O 244.026 -1.53973 1.18347 0
M  V30 2550 C 241.156 -2.48043 2.43089 0
M  V30 2551 C 240.11 -2.3437 3.58127 0
M  V30 2552 C 239.436 -3.72026 3.84059 0
M  V30 2553 C 240.736 -1.80804 4.90007 0
M  V30 2554 H 242.43 -0.771102 2.893 0
M  V30 2555 H 239.976 -0.369479 1.39179 0
M  V30 2556 H 241.929 -3.20311 2.73823 0
M  V30 2557 H 240.653 -2.88122 1.53796 0
M  V30 2558 H 239.312 -1.64551 3.27595 0
M  V30 2559 H 238.96 -4.09582 2.91979 0
M  V30 2560 H 238.66 -3.63732 4.6149 0
M  V30 2561 H 240.184 -4.45806 4.1724 0
M  V30 2562 H 241.598 -2.42886 5.19307 0
M  V30 2563 H 239.995 -1.83343 5.71407 0
M  V30 2564 H 241.065 -0.76528 4.78823 0
M  V30 2565 N 242.408 -1.52605 -0.393616 0
M  V30 2566 C 243.338 -1.80022 -1.48709 0
M  V30 2567 C 244.319 -0.651995 -1.57108 0
M  V30 2568 O 245.504 -0.89913 -1.72132 0
M  V30 2569 C 242.634 -1.96492 -2.86371 0
M  V30 2570 C 241.588 -3.12161 -2.92813 0
M  V30 2571 C 240.914 -3.13877 -4.3288 0
M  V30 2572 C 242.214 -4.51322 -2.6288 0
M  V30 2573 H 243.908 -2.71589 -1.26015 0
M  V30 2574 H 241.454 -1.30684 -0.604778 0
M  V30 2575 H 243.407 -2.14255 -3.62867 0
M  V30 2576 H 242.131 -1.01611 -3.10391 0
M  V30 2577 H 240.79 -2.94173 -2.18764 0
M  V30 2578 H 240.438 -2.16687 -4.53933 0
M  V30 2579 H 240.138 -3.91576 -4.38112 0
M  V30 2580 H 241.662 -3.33789 -5.1129 0
M  V30 2581 H 243.076 -4.69435 -3.29096 0
M  V30 2582 H 241.473 -5.31053 -2.79468 0
M  V30 2583 H 242.543 -4.58353 -1.58242 0
M  V30 2584 N 243.887 0.651787 -1.4349 0
M  V30 2585 C 244.817 1.77621 -1.51569 0
M  V30 2586 C 245.798 1.66022 -0.370253 0
M  V30 2587 O 246.983 1.85095 -0.587658 0
M  V30 2588 C 244.113 3.16056 -1.43966 0
M  V30 2589 C 243.067 3.4242 -2.56774 0
M  V30 2590 C 242.393 4.8067 -2.34223 0
M  V30 2591 C 243.693 3.37023 -3.99015 0
M  V30 2592 H 245.387 1.71117 -2.45681 0
M  V30 2593 H 242.933 0.821825 -1.18246 0
M  V30 2594 H 244.886 3.94472 -1.48221 0
M  V30 2595 H 243.61 3.23293 -0.463586 0
M  V30 2596 H 242.269 2.66375 -2.51873 0
M  V30 2597 H 241.917 4.84585 -1.34856 0
M  V30 2598 H 241.617 4.9927 -3.09844 0
M  V30 2599 H 243.141 5.61342 -2.40265 0
M  V30 2600 H 244.555 4.05374 -4.05395 0
M  V30 2601 H 242.952 3.67159 -4.74673 0
M  V30 2602 H 244.022 2.3518 -4.2405 0
M  V30 2603 N 245.365 1.30045 0.890287 0
M  V30 2604 C 246.315 1.12592 1.9826 0
M  V30 2605 C 247.299 0.0426021 1.60844 0
M  V30 2606 O 248.491 0.265346 1.75 0
M  V30 2607 C 245.62 0.814301 3.33503 0
M  V30 2608 C 244.706 1.93761 3.7725 0
M  V30 2609 N 245.097 3.18232 3.93143 0
M  V30 2610 C 243.395 1.83277 4.06602 0
M  V30 2611 C 244.096 3.9158 4.30163 0
M  V30 2612 N 243.072 3.19591 4.3973 0
M  V30 2613 H 246.874 2.07003 2.08631 0
M  V30 2614 H 244.388 1.21307 1.07974 0
M  V30 2615 H 246.385 0.67029 4.11476 0
M  V30 2616 H 245.045 -0.121797 3.24471 0
M  V30 2617 H 246.056 3.53581 3.78419 0
M  V30 2618 H 242.733 0.97001 4.06075 0
M  V30 2619 H 244.123 4.98744 4.50226 0
M  V30 2620 N 246.843 -1.10192 1.12674 0
M  V30 2621 C 248.071 -1.85983 0.906527 0
M  V30 2622 C 248.486 -1.80783 -0.544333 0
M  V30 2623 O 247.843 -1.19834 -1.37645 0
M  V30 2624 C 247.894 -3.34281 1.37618 0
M  V30 2625 O 247.615 -3.39401 2.77017 0
M  V30 2626 C 249.116 -4.26938 1.19325 0
M  V30 2627 H 246.336 -0.587716 0.323775 0
M  V30 2628 H 248.88 -1.39284 1.49734 0
M  V30 2629 H 247.035 -3.78436 0.828539 0
M  V30 2630 H 247.449 -4.31838 2.97684 0
M  V30 2631 H 248.923 -5.29181 1.57071 0
M  V30 2632 H 249.4 -4.38995 0.134097 0
M  V30 2633 H 250.006 -3.8859 1.72852 0
M  V30 2634 N 248.321 -0.919034 -1.28029 0
M  V30 2635 C 249.57 -0.550802 -1.94034 0
M  V30 2636 C 249.883 0.910877 -1.73096 0
M  V30 2637 O 251.089 1.3875 -2.33368 0
M  V30 2638 C 249.545 -0.934249 -3.47563 0
M  V30 2639 C 249.153 -2.41602 -3.7727 0
M  V30 2640 C 250.897 -0.636854 -4.19696 0
M  V30 2641 C 248.804 -2.73932 -5.24133 0
M  V30 2642 H 247.734 -0.202273 -0.726362 0
M  V30 2643 H 250.385 -1.11867 -1.45458 0
M  V30 2644 H 248.767 -0.295115 -3.94899 0
M  V30 2645 H 249.941 -3.10233 -3.40723 0
M  V30 2646 H 248.256 -2.68441 -3.18321 0
M  V30 2647 H 250.853 -0.855005 -5.2782 0
M  V30 2648 H 251.196 0.425575 -4.14119 0
M  V30 2649 H 251.729 -1.23469 -3.78154 0
M  V30 2650 H 248.468 -3.79049 -5.34792 0
M  V30 2651 H 247.988 -2.09942 -5.61858 0
M  V30 2652 H 249.667 -2.61215 -5.91925 0
M  V30 2653 N 249.799 1.42003 -0.683588 0
M  V30 2654 C 251.027 2.05746 -0.218182 0
M  V30 2655 C 251.442 1.51396 1.12804 0
M  V30 2656 O 250.799 0.657303 1.70252 0
M  V30 2657 C 250.85 3.61171 -0.154131 0
M  V30 2658 O 250.571 4.13508 -1.44716 0
M  V30 2659 C 252.072 4.42042 0.333713 0
M  V30 2660 H 249.292 0.662888 -0.10402 0
M  V30 2661 H 251.836 1.81987 -0.9328 0
M  V30 2662 H 249.991 3.84012 0.511231 0
M  V30 2663 H 250.405 5.07453 -1.32632 0
M  V30 2664 H 251.879 5.51028 0.327423 0
M  V30 2665 H 252.356 4.17269 1.37053 0
M  V30 2666 H 252.962 4.24239 -0.300222 0
M  V30 2667 N 251.277 0.427512 1.51691 0
M  V30 2668 C 252.525 -0.141948 2.01601 0
M  V30 2669 C 252.846 -1.44067 1.31414 0
M  V30 2670 O 252.116 -1.90763 0.445658 0
M  V30 2671 H 250.696 -0.0554468 0.744939 0
M  V30 2672 H 253.358 0.567968 1.86441 0
M  V30 2673 H 252.454 -0.324913 3.10404 0
M  V30 2674 N 252.755 -1.56801 0.158532 0
M  V30 2675 C 253.685 -2.20347 -0.772609 0
M  V30 2676 C 254.666 -1.15518 -1.24859 0
M  V30 2677 O 255.851 -1.43902 -1.30406 0
M  V30 2678 C 252.981 -2.83417 -2.00729 0
M  V30 2679 C 251.935 -3.94174 -1.66765 0
M  V30 2680 C 251.261 -4.44233 -2.97592 0
M  V30 2681 C 252.561 -5.14392 -0.905447 0
M  V30 2682 H 254.255 -2.98413 -0.242959 0
M  V30 2683 H 251.801 -1.43537 -0.115419 0
M  V30 2684 H 253.754 -3.26543 -2.6636 0
M  V30 2685 H 252.478 -2.02701 -2.56086 0
M  V30 2686 H 251.137 -3.51684 -1.03508 0
M  V30 2687 H 250.785 -3.60325 -3.50963 0
M  V30 2688 H 250.485 -5.18945 -2.75626 0
M  V30 2689 H 252.009 -4.90037 -3.64274 0
M  V30 2690 H 253.423 -5.5429 -1.46408 0
M  V30 2691 H 251.82 -5.9494 -0.7853 0
M  V30 2692 H 252.89 -4.84795 0.100668 0
M  V30 2693 N 254.233 0.115231 -1.57178 0
M  V30 2694 C 255.461 0.836437 -1.89239 0
M  V30 2695 C 255.876 1.73256 -0.750175 0
M  V30 2696 O 255.233 1.80357 0.278832 0
M  V30 2697 C 255.284 1.66671 -3.20785 0
M  V30 2698 O 255.005 0.806652 -4.3061 0
M  V30 2699 C 256.506 2.49274 -3.66575 0
M  V30 2700 H 253.726 0.240253 -0.626514 0
M  V30 2701 H 256.27 0.0984932 -2.04263 0
M  V30 2702 H 254.425 2.35737 -3.0742 0
M  V30 2703 H 254.839 1.37969 -5.06028 0
M  V30 2704 H 256.313 3.03055 -4.6137 0
M  V30 2705 H 256.79 3.26807 -2.93417 0
M  V30 2706 H 257.396 1.85443 -3.82741 0
M  V30 2707 N 255.711 1.52812 0.385517 0
M  V30 2708 C 257.127 1.4214 0.725829 0
M  V30 2709 C 257.327 0.544589 1.94001 0
M  V30 2710 O 256.383 0.0193693 2.52493 0
M  V30 2711 C 257.696 2.85042 0.957668 0
M  V30 2712 C 259.244 2.94543 1.05892 0
M  V30 2713 C 259.719 4.38464 1.32337 0
M  V30 2714 N 261.21 4.41804 1.39151 0
M  V30 2715 C 261.945 5.5025 1.61285 0
M  V30 2716 N 261.441 6.68775 1.80866 0
M  V30 2717 N 263.234 5.37798 1.63492 0
M  V30 2718 H 255.385 2.08338 -0.413383 0
M  V30 2719 H 257.648 0.940016 -0.122775 0
M  V30 2720 H 257.354 3.51431 0.137568 0
M  V30 2721 H 257.228 3.27505 1.87137 0
M  V30 2722 H 259.615 2.28321 1.86959 0
M  V30 2723 H 259.696 2.55504 0.123057 0
M  V30 2724 H 259.34 5.05254 0.517793 0
M  V30 2725 H 259.27 4.75059 2.27214 0
M  V30 2726 H 261.761 3.56377 1.25713 0
M  V30 2727 H 262.074 7.47197 1.97271 0
M  V30 2728 H 260.419 6.71797 1.78083 0
M  V30 2729 H 263.61 4.44171 1.47749 0
M  V30 2730 H 263.783 6.22382 1.80402 0
M  V30 2731 N 257.189 -0.644168 1.43834 0
M  V30 2732 C 258.121 -1.76955 1.45669 0
M  V30 2733 C 259.134 -1.58956 0.351666 0
M  V30 2734 O 260.323 -1.6751 0.616644 0
M  V30 2735 C 257.423 -3.14507 1.26248 0
M  V30 2736 C 256.596 -3.59083 2.49757 0
M  V30 2737 C 255.655 -4.75467 2.25427 0
M  V30 2738 O 254.681 -4.84444 2.98836 0
M  V30 2739 N 255.883 -5.66289 1.27661 0
M  V30 2740 H 258.648 -1.75856 2.42682 0
M  V30 2741 H 256.209 -0.828312 1.39106 0
M  V30 2742 H 258.201 -3.90067 1.0784 0
M  V30 2743 H 256.771 -3.10325 0.376478 0
M  V30 2744 H 255.991 -2.7387 2.8353 0
M  V30 2745 H 257.279 -3.85613 3.31934 0
M  V30 2746 H 256.677 -5.61718 0.670064 0
M  V30 2747 H 255.234 -6.41533 1.15234 0
M  V30 2748 N 258.668 -1.30515 -0.883378 0
M  V30 2749 C 259.6 -1.12846 -1.99496 0
M  V30 2750 C 260.613 -0.0712571 -1.62644 0
M  V30 2751 O 261.802 -0.317432 -1.75655 0
M  V30 2752 C 258.902 -0.699123 -3.3161 0
M  V30 2753 C 258.075 -1.83842 -3.96889 0
M  V30 2754 C 257.134 -1.39737 -5.07307 0
M  V30 2755 O 256.16 -2.10485 -5.28852 0
M  V30 2756 N 257.362 -0.277279 -5.79837 0
M  V30 2757 H 260.127 -2.08585 -2.15203 0
M  V30 2758 H 257.688 -1.22672 -1.05656 0
M  V30 2759 H 259.68 -0.387044 -4.02845 0
M  V30 2760 H 258.25 0.166276 -3.12157 0
M  V30 2761 H 257.47 -2.31853 -3.18807 0
M  V30 2762 H 258.758 -2.60187 -4.37241 0
M  V30 2763 H 258.156 0.3122 -5.64838 0
M  V30 2764 H 256.713 -0.0246623 -6.51795 0
M  V30 2765 N 260.146 1.09593 -1.13257 0
M  V30 2766 C 261.079 2.15451 -0.752061 0
M  V30 2767 C 262.057 1.60493 0.260913 0
M  V30 2768 O 263.241 1.8788 0.152819 0
M  V30 2769 C 260.368 3.38506 -0.114594 0
M  V30 2770 C 259.414 4.12183 -1.09579 0
M  V30 2771 S 260.247 4.6661 -2.62745 0
M  V30 2772 C 261.403 5.92966 -2.00354 0
M  V30 2773 H 261.636 2.47395 -1.64872 0
M  V30 2774 H 259.169 1.21515 -0.952545 0
M  V30 2775 H 261.127 4.09757 0.246808 0
M  V30 2776 H 259.788 3.04784 0.759309 0
M  V30 2777 H 258.981 5.00445 -0.597545 0
M  V30 2778 H 258.583 3.46785 -1.40057 0
M  V30 2779 H 260.875 6.63882 -1.35156 0
M  V30 2780 H 261.818 6.47467 -2.86691 0
M  V30 2781 H 262.226 5.45405 -1.4558 0
M  V30 2782 N 261.624 0.925811 1.2754 0
M  V30 2783 C 262.87 0.566092 1.94739 0
M  V30 2784 C 263.203 -0.890057 1.72603 0
M  V30 2785 O 262.478 -1.63467 1.05399 0
M  V30 2786 C 262.761 0.89054 3.48915 0
M  V30 2787 C 262.614 2.4003 3.80402 0
M  V30 2788 C 263.933 0.395101 4.38323 0
M  V30 2789 H 261.052 0.20714 0.707292 0
M  V30 2790 H 263.694 1.15725 1.50691 0
M  V30 2791 H 261.844 0.387452 3.86563 0
M  V30 2792 H 263.516 2.97494 3.52555 0
M  V30 2793 H 261.759 2.85028 3.2702 0
M  V30 2794 H 262.43 2.57785 4.8811 0
M  V30 2795 H 264.906 0.826241 4.07814 0
M  V30 2796 H 263.782 0.651086 5.45025 0
M  V30 2797 H 264.043 -0.704798 4.36446 0
M  V30 2798 N 263.102 -1.41638 0.69111 0
M  V30 2799 C 264.379 -1.95036 0.148421 0
M  V30 2800 C 264.759 -1.63072 -1.34055 0
M  V30 2801 O 264.107 -0.93538 -2.08478 0
M  V30 2802 C 264.317 -3.46279 0.434951 0
M  V30 2803 C 265.665 -4.23069 0.360275 0
M  V30 2804 O 266.689 -3.54277 0.369613 0
M  V30 2805 O 265.548 -5.45583 0.316534 0
M  V30 2806 H 262.642 -0.826908 0.0123654 0
M  V30 2807 H 265.188 -1.5138 0.766963 0
M  V30 2808 H 263.96 -3.6281 1.46576 0
M  V30 2809 H 263.583 -3.97019 -0.214787 0
M  V30 2810 N 264.58 -0.43555 -1.51462 0
M  V30 2811 C 265.53 0.394701 -2.24558 0
M  V30 2812 C 266.514 0.99157 -1.26715 0
M  V30 2813 O 267.706 0.910007 -1.51815 0
M  V30 2814 C 264.835 1.4963 -3.08975 0
M  V30 2815 C 263.921 0.908912 -4.14246 0
M  V30 2816 N 264.312 0.0505335 -5.05775 0
M  V30 2817 C 262.61 1.17668 -4.30198 0
M  V30 2818 C 263.311 -0.279161 -5.8103 0
M  V30 2819 N 262.287 0.336767 -5.42556 0
M  V30 2820 H 266.089 -0.267106 -2.92684 0
M  V30 2821 H 263.603 -0.247518 -1.60503 0
M  V30 2822 H 265.6 2.10394 -3.59917 0
M  V30 2823 H 264.26 2.16046 -2.42393 0
M  V30 2824 H 265.271 -0.31577 -5.16936 0
M  V30 2825 H 261.948 1.83847 -3.74842 0
M  V30 2826 H 263.338 -0.977553 -6.64751 0
M  V30 2827 N 266.058 1.56714 -0.166846 0
M  V30 2828 C 267.306 1.96358 0.478305 0
M  V30 2829 C 267.627 1.0537 1.6408 0
M  V30 2830 O 266.897 0.119154 1.95537 0
M  V30 2831 H 265.477 0.725065 0.179692 0
M  V30 2832 H 268.139 1.93329 -0.246985 0
M  V30 2833 H 267.235 3.00547 0.841292 0
M  V30 2834 N 267.536 -0.106894 1.57237 0
M  V30 2835 C 268.466 -1.13148 2.04254 0
M  V30 2836 C 269.447 -1.42476 0.929224 0
M  V30 2837 O 270.632 -1.52709 1.19973 0
M  V30 2838 C 267.762 -2.4545 2.45706 0
M  V30 2839 C 266.716 -2.30558 3.60592 0
M  V30 2840 C 266.042 -3.67931 3.87983 0
M  V30 2841 C 267.342 -1.75597 4.91897 0
M  V30 2842 H 269.036 -0.740374 2.90101 0
M  V30 2843 H 266.582 -0.354696 1.39563 0
M  V30 2844 H 268.535 -3.17389 2.77205 0
M  V30 2845 H 267.259 -2.86475 1.56843 0
M  V30 2846 H 265.918 -1.61067 3.29322 0
M  V30 2847 H 265.566 -4.06462 2.96306 0
M  V30 2848 H 265.266 -3.58817 4.65322 0
M  V30 2849 H 266.79 -4.41356 4.21945 0
M  V30 2850 H 268.204 -2.37364 5.21854 0
M  V30 2851 H 266.601 -1.77272 5.73319 0
M  V30 2852 H 267.671 -0.714451 4.79608 0
M  V30 2853 N 269.014 -1.53014 -0.377408 0
M  V30 2854 C 270.425 -1.60438 -0.954798 0
M  V30 2855 C 270.776 -0.464418 -1.90624 0
M  V30 2856 O 269.901 0.41087 -2.12464 0
M  V30 2857 C 270.496 -2.90797 -1.73847 0
M  V30 2858 C 269.055 -3.00595 -2.26538 0
M  V30 2859 C 268.202 -2.55645 -1.07429 0
M  V30 2860 H 271.153 -1.57926 -0.156575 0
M  V30 2861 H 271.174 -2.77935 -2.5987 0
M  V30 2862 H 270.686 -3.73746 -1.04574 0
M  V30 2863 H 268.787 -2.22208 -2.99089 0
M  V30 2864 H 268.9 -4.05456 -2.5523 0
M  V30 2865 H 267.264 -2.10239 -1.43777 0
M  V30 2866 H 268.047 -3.41 -0.396728 0
M  V30 2867 N 270.492 0.636531 -1.44174 0
M  V30 2868 C 271.422 1.76003 -1.53444 0
M  V30 2869 C 272.403 1.65619 -0.387841 0
M  V30 2870 O 273.588 1.84461 -0.607257 0
M  V30 2871 C 270.718 3.14511 -1.4731 0
M  V30 2872 C 269.672 3.39677 -2.60391 0
M  V30 2873 C 268.998 4.78159 -2.39308 0
M  V30 2874 C 270.298 3.32772 -4.02567 0
M  V30 2875 H 271.992 1.68501 -2.47483 0
M  V30 2876 H 269.538 0.809237 -1.19111 0
M  V30 2877 H 271.491 3.92878 -1.52397 0
M  V30 2878 H 270.215 3.22783 -0.49785 0
M  V30 2879 H 268.874 2.63688 -2.54684 0
M  V30 2880 H 268.522 4.83128 -1.39988 0
M  V30 2881 H 268.222 4.95956 -3.15122 0
M  V30 2882 H 269.746 5.58762 -2.46205 0
M  V30 2883 H 271.16 4.01051 -4.09672 0
M  V30 2884 H 269.557 3.62104 -4.7854 0
M  V30 2885 H 270.627 2.30669 -4.2652 0
M  V30 2886 N 271.97 1.30982 0.876444 0
M  V30 2887 C 273.198 1.23242 1.6619 0
M  V30 2888 C 273.613 -0.203345 1.87702 0
M  V30 2889 O 272.97 -1.13317 1.43057 0
M  V30 2890 C 273.021 1.96623 3.03351 0
M  V30 2891 O 272.742 3.34594 2.82804 0
M  V30 2892 C 274.243 1.95644 3.97792 0
M  V30 2893 H 271.463 0.426126 0.518322 0
M  V30 2894 H 274.007 1.7275 1.09442 0
M  V30 2895 H 272.162 1.50892 3.56806 0
M  V30 2896 H 272.576 3.71873 3.69879 0
M  V30 2897 H 274.05 2.51511 4.91372 0
M  V30 2898 H 274.527 0.937395 4.2908 0
M  V30 2899 H 275.133 2.41225 3.50272 0
M  V30 2900 N 273.449 -1.08991 1.13837 0
M  V30 2901 C 274.379 -2.17771 0.842507 0
M  V30 2902 C 275.36 -1.6892 -0.20001 0
M  V30 2903 O 276.545 -1.94113 -0.0579731 0
M  V30 2904 C 273.675 -3.4589 0.312644 0
M  V30 2905 C 272.629 -4.08099 1.28992 0
M  V30 2906 C 271.955 -5.31098 0.619623 0
M  V30 2907 C 273.255 -4.50077 2.65005 0
M  V30 2908 H 274.949 -2.42777 1.75213 0
M  V30 2909 H 272.495 -1.16682 0.843875 0
M  V30 2910 H 274.448 -4.21297 0.0933043 0
M  V30 2911 H 273.172 -3.20419 -0.632382 0
M  V30 2912 H 271.831 -3.34717 1.49533 0
M  V30 2913 H 271.479 -5.0191 -0.33102 0
M  V30 2914 H 271.179 -5.73674 1.27167 0
M  V30 2915 H 272.703 -6.09224 0.409669 0
M  V30 2916 H 274.117 -5.16688 2.48407 0
M  V30 2917 H 272.514 -5.03553 3.26427 0
M  V30 2918 H 273.584 -3.62257 3.22332 0
M  V30 2919 N 274.927 -0.932562 -1.27047 0
M  V30 2920 C 276.173 -0.585913 -1.94778 0
M  V30 2921 C 276.528 0.864142 -1.71902 0
M  V30 2922 O 275.821 1.60894 -1.04037 0
M  V30 2923 C 276.015 -0.853713 -3.47054 0
M  V30 2924 C 275.844 -2.32825 -3.84737 0
M  V30 2925 C 274.614 -2.98184 -4.07939 0
M  V30 2926 C 276.812 -3.30612 -3.93954 0
M  V30 2927 N 274.794 -4.3574 -4.3244 0
M  V30 2928 C 276.165 -4.53395 -4.22887 0
M  V30 2929 C 278.22 -3.25755 -3.76548 0
M  V30 2930 C 276.923 -5.71927 -4.36224 0
M  V30 2931 C 278.949 -4.43604 -3.91113 0
M  V30 2932 C 278.311 -5.65166 -4.20437 0
M  V30 2933 H 274.41 -0.264617 -0.735868 0
M  V30 2934 H 276.994 -1.20019 -1.53309 0
M  V30 2935 H 275.165 -0.268557 -3.8747 0
M  V30 2936 H 276.897 -0.469202 -4.01971 0
M  V30 2937 H 273.652 -2.48835 -4.02961 0
M  V30 2938 H 274.076 -5.06915 -4.48738 0
M  V30 2939 H 278.718 -2.32835 -3.52913 0
M  V30 2940 H 276.436 -6.65308 -4.58683 0
M  V30 2941 H 280.022 -4.41368 -3.79059 0
M  V30 2942 H 278.902 -6.54836 -4.31462 0
M  V30 2943 N 276.405 1.4127 -0.698611 0
M  V30 2944 C 277.335 2.33447 -0.049629 0
M  V30 2945 C 278.316 1.51982 0.763898 0
M  V30 2946 O 279.501 1.80509 0.716257 0
M  V30 2947 C 276.631 3.35828 0.885267 0
M  V30 2948 C 275.585 4.27627 0.178613 0
M  V30 2949 C 274.911 5.20406 1.22807 0
M  V30 2950 C 276.211 5.13459 -0.956933 0
M  V30 2951 H 277.905 2.87966 -0.81951 0
M  V30 2952 H 275.451 1.38461 -0.395538 0
M  V30 2953 H 277.404 3.9924 1.34854 0
M  V30 2954 H 276.128 2.79666 1.68685 0
M  V30 2955 H 274.787 3.65643 -0.26466 0
M  V30 2956 H 274.435 4.60558 2.02226 0
M  V30 2957 H 274.135 5.82661 0.760239 0
M  V30 2958 H 275.659 5.86695 1.69179 0
M  V30 2959 H 277.073 5.70421 -0.573805 0
M  V30 2960 H 275.47 5.8467 -1.35205 0
M  V30 2961 H 276.54 4.50443 -1.79524 0
M  V30 2962 N 277.883 0.443576 1.51229 0
M  V30 2963 C 278.846 -0.353132 2.26463 0
M  V30 2964 C 279.846 -0.944338 1.3015 0
M  V30 2965 O 281.036 -0.817813 1.5381 0
M  V30 2966 C 278.168 -1.50023 3.06114 0
M  V30 2967 H 279.361 0.3063 2.98332 0
M  V30 2968 H 276.914 0.196902 1.55055 0
M  V30 2969 H 277.649 -2.19553 2.38677 0
M  V30 2970 H 277.434 -1.08241 3.76864 0
M  V30 2971 H 278.924 -2.06296 3.63087 0
M  V30 2972 N 279.361 -1.56624 0.175154 0
M  V30 2973 C 280.777 -1.58571 -0.180966 0
M  V30 2974 C 280.977 -1.19065 -1.6256 0
M  V30 2975 O 280.033 -0.904044 -2.35761 0
M  V30 2976 C 281.346 -3.00522 0.103326 0
M  V30 2977 C 282.894 -3.12972 0.0418426 0
M  V30 2978 C 283.369 -4.57022 0.299175 0
M  V30 2979 N 284.86 -4.62541 0.247086 0
M  V30 2980 C 285.595 -5.71857 0.420318 0
M  V30 2981 N 285.091 -6.89717 0.652816 0
M  V30 2982 N 286.884 -5.60972 0.355957 0
M  V30 2983 H 279.035 -1.80589 1.11809 0
M  V30 2984 H 281.298 -0.837178 0.444788 0
M  V30 2985 H 281.004 -3.33916 1.10422 0
M  V30 2986 H 280.878 -3.72344 -0.603299 0
M  V30 2987 H 283.265 -2.79403 -0.949636 0
M  V30 2988 H 283.346 -2.43578 0.781238 0
M  V30 2989 H 282.99 -4.913 1.28788 0
M  V30 2990 H 282.92 -5.24579 -0.460876 0
M  V30 2991 H 285.411 -3.77829 0.0731895 0
M  V30 2992 H 285.724 -7.68911 0.774347 0
M  V30 2993 H 284.069 -6.91572 0.689476 0
M  V30 2994 H 287.26 -4.67773 0.174882 0
M  V30 2995 H 287.433 -6.46111 0.494388 0
M  V30 2996 N 280.839 0.0985539 -1.57292 0
M  V30 2997 C 282.086 0.802678 -1.85912 0
M  V30 2998 C 282.414 1.78901 -0.763186 0
M  V30 2999 O 281.669 1.94178 0.243559 0
M  V30 3000 C 281.968 1.56927 -3.21105 0
M  V30 3001 C 281.634 0.725376 -4.45027 0
M  V30 3002 C 280.296 0.492726 -4.78671 0
M  V30 3003 C 282.648 0.138493 -5.21016 0
M  V30 3004 C 279.976 -0.336727 -5.85733 0
M  V30 3005 C 282.328 -0.678264 -6.28953 0
M  V30 3006 C 280.992 -0.921039 -6.61115 0
M  V30 3007 H 280.262 0.293721 -0.680301 0
M  V30 3008 H 282.909 0.0642841 -1.91392 0
M  V30 3009 H 281.214 2.37914 -3.11294 0
M  V30 3010 H 282.911 2.11841 -3.40477 0
M  V30 3011 H 279.501 0.916815 -4.18679 0
M  V30 3012 H 283.685 0.305404 -4.95359 0
M  V30 3013 H 278.941 -0.533836 -6.09065 0
M  V30 3014 H 283.115 -1.1399 -6.87007 0
M  V30 3015 H 280.742 -1.56556 -7.43905 0
M  V30 3016 N 282.317 1.53212 0.369288 0
M  V30 3017 C 283.247 1.82365 1.45826 0
M  V30 3018 C 284.228 0.676907 1.56051 0
M  V30 3019 O 285.413 0.926401 1.70679 0
M  V30 3020 C 282.543 2.01023 2.83208 0
M  V30 3021 C 281.497 3.1678 2.8781 0
M  V30 3022 C 280.823 3.20724 4.27832 0
M  V30 3023 C 282.123 4.55447 2.55667 0
M  V30 3024 H 283.817 2.73559 1.21678 0
M  V30 3025 H 281.363 1.3163 0.583911 0
M  V30 3026 H 283.316 2.20001 3.59413 0
M  V30 3027 H 282.04 1.06536 3.08736 0
M  V30 3028 H 280.699 2.97616 2.14056 0
M  V30 3029 H 280.347 2.23882 4.50429 0
M  V30 3030 H 280.047 3.98496 4.31827 0
M  V30 3031 H 281.571 3.41881 5.05915 0
M  V30 3032 H 282.985 4.74611 3.21586 0
M  V30 3033 H 281.382 5.35432 2.70984 0
M  V30 3034 H 282.452 4.60812 1.5093 0
M  V30 3035 N 283.795 -0.628877 1.44509 0
M  V30 3036 C 284.742 -1.74074 1.51549 0
M  V30 3037 C 285.712 -1.62084 0.363021 0
M  V30 3038 O 286.897 -1.81975 0.573567 0
M  V30 3039 C 284.037 -3.12328 1.46784 0
M  V30 3040 C 283.15 -3.35277 2.72422 0
M  V30 3041 C 282.285 -4.63515 2.59475 0
M  V30 3042 C 281.324 -4.7965 3.80266 0
M  V30 3043 N 280.461 -5.99168 3.65981 0
M  V30 3044 H 285.301 -1.67392 2.46544 0
M  V30 3045 H 282.838 -0.816527 1.22357 0
M  V30 3046 H 284.796 -3.92286 1.42012 0
M  V30 3047 H 283.426 -3.18018 0.553544 0
M  V30 3048 H 282.478 -2.49242 2.87372 0
M  V30 3049 H 283.79 -3.43078 3.62076 0
M  V30 3050 H 282.944 -5.51638 2.52548 0
M  V30 3051 H 281.683 -4.58076 1.67384 0
M  V30 3052 H 280.688 -3.89957 3.87574 0
M  V30 3053 H 281.913 -4.86902 4.73395 0
M  V30 3054 H 279.859 -5.94814 2.76644 0
M  V30 3055 H 279.776 -6.08035 4.49254 0
M  V30 3056 H 281.044 -6.89846 3.6295 0
M  V30 3057 N 285.273 -1.31445 -0.869486 0
M  V30 3058 C 286.52 -1.21158 -1.62256 0
M  V30 3059 C 286.848 0.230155 -1.93133 0
M  V30 3060 O 286.103 1.17906 -1.56194 0
M  V30 3061 C 286.402 -2.00145 -2.96102 0
M  V30 3062 C 286.068 -3.4964 -2.84715 0
M  V30 3063 C 284.73 -3.90403 -2.81317 0
M  V30 3064 C 287.082 -4.44769 -2.71716 0
M  V30 3065 C 284.41 -5.24561 -2.62778 0
M  V30 3066 C 286.762 -5.79054 -2.54714 0
M  V30 3067 C 285.426 -6.19037 -2.49699 0
M  V30 3068 H 284.696 -0.443348 -0.593737 0
M  V30 3069 H 287.343 -1.62715 -1.00976 0
M  V30 3070 H 285.648 -1.5127 -3.6142 0
M  V30 3071 H 287.345 -1.89566 -3.53363 0
M  V30 3072 H 283.935 -3.17256 -2.88178 0
M  V30 3073 H 288.119 -4.14208 -2.73397 0
M  V30 3074 H 283.375 -5.54613 -2.57321 0
M  V30 3075 H 287.549 -6.52393 -2.43632 0
M  V30 3076 H 285.176 -7.22935 -2.35093 0
M  V30 3077 N 286.751 1.08385 -1.14413 0
M  V30 3078 C 288 1.80153 -0.907076 0
M  V30 3079 C 288.313 1.87176 0.567851 0
M  V30 3080 O 289.519 2.55359 0.922172 0
M  V30 3081 C 287.975 3.23687 -1.57336 0
M  V30 3082 C 287.583 3.24897 -3.08457 0
M  V30 3083 C 289.327 4.00136 -1.41744 0
M  V30 3084 C 287.234 4.6302 -3.67921 0
M  V30 3085 H 286.164 0.675139 -0.335714 0
M  V30 3086 H 288.815 1.21733 -1.37307 0
M  V30 3087 H 287.197 3.82234 -1.03505 0
M  V30 3088 H 288.371 2.76055 -3.68958 0
M  V30 3089 H 286.686 2.61943 -3.2369 0
M  V30 3090 H 289.283 5.02201 -1.83572 0
M  V30 3091 H 289.626 4.14709 -0.363576 0
M  V30 3092 H 290.159 3.48058 -1.92614 0
M  V30 3093 H 286.898 4.5365 -4.73161 0
M  V30 3094 H 286.418 5.12143 -3.12201 0
M  V30 3095 H 288.097 5.31994 -3.68227 0
M  V30 3096 N 288.23 0.939286 1.26551 0
M  V30 3097 C 289.193 0.451987 2.24699 0
M  V30 3098 C 290.193 -0.435869 1.5478 0
M  V30 3099 O 291.383 -0.235314 1.72603 0
M  V30 3100 C 288.515 -0.348801 3.39111 0
M  V30 3101 H 289.708 1.3193 2.69322 0
M  V30 3102 H 287.261 0.721072 1.38673 0
M  V30 3103 H 287.996 -1.23444 2.99887 0
M  V30 3104 H 287.781 0.287945 3.91041 0
M  V30 3105 H 289.271 -0.679726 4.12031 0
M  V30 3106 N 289.708 -1.40897 0.706093 0
M  V30 3107 C 290.936 -2.05373 0.250887 0
M  V30 3108 C 291.351 -1.53172 -1.10381 0
M  V30 3109 O 290.708 -0.684305 -1.69185 0
M  V30 3110 C 290.759 -3.6088 0.211571 0
M  V30 3111 O 290.48 -4.11153 1.51276 0
M  V30 3112 C 291.981 -4.42517 -0.263346 0
M  V30 3113 H 289.201 -0.66115 0.114552 0
M  V30 3114 H 291.745 -1.80479 0.961635 0
M  V30 3115 H 289.9 -3.84777 -0.450073 0
M  V30 3116 H 290.314 -5.05279 1.40689 0
M  V30 3117 H 291.788 -5.51479 -0.239718 0
M  V30 3118 H 292.265 -4.19396 -1.30397 0
M  V30 3119 H 292.871 -4.23708 0.367677 0
M  V30 3120 N 291.186 -0.45159 -1.50991 0
M  V30 3121 C 292.096 0.358431 -2.31846 0
M  V30 3122 C 293.112 1.01438 -1.41373 0
M  V30 3123 O 294.288 1.00663 -1.74439 0
M  V30 3124 C 291.353 1.43704 -3.15515 0
M  V30 3125 C 290.414 0.799742 -4.21785 0
M  V30 3126 C 289.647 1.82696 -5.01456 0
M  V30 3127 O 289.87 3.05105 -4.81941 0
M  V30 3128 O 288.804 1.40958 -5.85162 0
M  V30 3129 H 292.63 -0.302032 -3.02194 0
M  V30 3130 H 290.215 -0.213825 -1.47862 0
M  V30 3131 H 292.097 2.06227 -3.67489 0
M  V30 3132 H 290.772 2.08133 -2.47916 0
M  V30 3133 H 289.679 0.136084 -3.73852 0
M  V30 3134 H 291.012 0.198718 -4.91799 0
M  V30 3135 N 292.664 1.56529 -0.183458 0
M  V30 3136 C 293.913 1.96419 0.458511 0
M  V30 3137 C 294.226 1.0727 1.63562 0
M  V30 3138 O 295.432 1.36893 2.34462 0
M  V30 3139 C 293.888 3.49298 0.867122 0
M  V30 3140 C 293.496 4.47092 -0.285057 0
M  V30 3141 C 295.24 3.97983 1.47683 0
M  V30 3142 C 293.147 5.91225 0.143862 0
M  V30 3143 H 292.077 0.733394 0.175071 0
M  V30 3144 H 294.728 1.81448 -0.273624 0
M  V30 3145 H 293.11 3.59731 1.65559 0
M  V30 3146 H 294.284 4.48383 -1.0625 0
M  V30 3147 H 292.599 4.08535 -0.805503 0
M  V30 3148 H 295.196 5.03134 1.80999 0
M  V30 3149 H 295.539 3.41618 2.37914 0
M  V30 3150 H 296.072 3.90617 0.752562 0
M  V30 3151 H 292.811 6.5149 -0.723974 0
M  V30 3152 H 292.331 5.93214 0.886413 0
M  V30 3153 H 294.01 6.44362 0.583628 0
M  V30 3154 N 294.142 -0.090211 1.57342 0
M  V30 3155 C 295.389 -0.792807 1.86335 0
M  V30 3156 C 295.717 -1.78494 0.772662 0
M  V30 3157 O 294.972 -1.94305 -0.233258 0
M  V30 3158 C 295.271 -1.55222 3.21933 0
M  V30 3159 C 294.937 -0.701765 4.45406 0
M  V30 3160 C 293.599 -0.467334 4.78925 0
M  V30 3161 C 295.951 -0.11086 5.21082 0
M  V30 3162 C 293.279 0.367785 5.85546 0
M  V30 3163 C 295.631 0.711609 6.28585 0
M  V30 3164 C 294.295 0.956086 6.60617 0
M  V30 3165 H 293.565 -0.290109 0.681849 0
M  V30 3166 H 296.212 -0.0541332 1.91423 0
M  V30 3167 H 294.517 -2.3626 3.12551 0
M  V30 3168 H 296.214 -2.10032 3.41595 0
M  V30 3169 H 292.804 -0.894598 4.1916 0
M  V30 3170 H 296.988 -0.279129 4.95514 0
M  V30 3171 H 292.244 0.566128 6.08773 0
M  V30 3172 H 296.418 1.17632 6.86393 0
M  V30 3173 H 294.045 1.60499 7.43064 0
M  V30 3174 N 295.62 -1.53406 -0.361157 0
M  V30 3175 C 297.031 -1.61442 -0.937728 0
M  V30 3176 C 297.382 -0.48461 -1.90121 0
M  V30 3177 O 296.507 0.388312 -2.12888 0
M  V30 3178 C 297.102 -2.92624 -1.70753 0
M  V30 3179 C 295.661 -3.02981 -2.23337 0
M  V30 3180 C 294.808 -2.5677 -1.04712 0
M  V30 3181 H 297.759 -1.58083 -0.139816 0
M  V30 3182 H 297.78 -2.80675 -2.56908 0
M  V30 3183 H 297.292 -3.74834 -1.00604 0
M  V30 3184 H 295.393 -2.25368 -2.96715 0
M  V30 3185 H 295.506 -4.0814 -2.50916 0
M  V30 3186 H 293.87 -2.11752 -1.41539 0
M  V30 3187 H 294.653 -3.41402 -0.360539 0
M  V30 3188 N 297.098 0.621204 -1.44841 0
M  V30 3189 C 298.346 1.37783 -1.47852 0
M  V30 3190 C 298.667 1.94653 -0.116224 0
M  V30 3191 O 297.937 1.76367 0.852737 0
M  V30 3192 H 296.517 0.511453 -0.544449 0
M  V30 3193 H 299.179 0.730446 -1.80694 0
M  V30 3194 H 298.275 2.20414 -2.20961 0
M  V30 3195 N 298.576 1.31904 0.862503 0
M  V30 3196 C 299.824 1.21776 1.61292 0
M  V30 3197 C 300.145 -0.222413 1.93727 0
M  V30 3198 O 299.415 -1.1451 1.58947 0
M  V30 3199 H 297.995 0.447717 0.597962 0
M  V30 3200 H 300.657 1.65326 1.03215 0
M  V30 3201 H 299.753 1.7948 2.5533 0
M  V30 3202 N 300.054 -1.07777 1.14986 0
M  V30 3203 C 300.986 -2.14769 0.800436 0
M  V30 3204 C 301.999 -1.61739 -0.185595 0
M  V30 3205 O 303.188 -1.78462 0.0370358 0
M  V30 3206 C 300.288 -3.38481 0.168533 0
M  V30 3207 C 299.461 -4.20876 1.1909 0
M  V30 3208 C 298.52 -5.22976 0.581575 0
M  V30 3209 O 297.546 -5.55388 1.24633 0
M  V30 3210 N 298.748 -5.76976 -0.638706 0
M  V30 3211 H 301.513 -2.45348 1.72118 0
M  V30 3212 H 299.074 -1.23645 1.04515 0
M  V30 3213 H 301.066 -4.03916 -0.251764 0
M  V30 3214 H 299.636 -3.05651 -0.655467 0
M  V30 3215 H 298.856 -3.51322 1.78791 0
M  V30 3216 H 300.144 -4.7274 1.88133 0
M  V30 3217 H 299.542 -5.52886 -1.19723 0
M  V30 3218 H 298.099 -6.44061 -1.00142 0
M  V30 3219 N 301.532 -0.945985 -1.26051 0
M  V30 3220 C 302.943 -0.638096 -1.75457 0
M  V30 3221 C 303.294 0.846672 -1.76991 0
M  V30 3222 O 302.419 1.66262 -1.38513 0
M  V30 3223 C 303.014 -1.15157 -3.18629 0
M  V30 3224 C 301.573 -0.894004 -3.65629 0
M  V30 3225 C 300.72 -1.29967 -2.44957 0
M  V30 3226 H 303.671 -1.12376 -1.1206 0
M  V30 3227 H 303.692 -0.507615 -3.77099 0
M  V30 3228 H 303.204 -2.23222 -3.1748 0
M  V30 3229 H 301.305 0.172057 -3.72203 0
M  V30 3230 H 301.418 -1.52439 -4.54202 0
M  V30 3231 H 299.782 -0.718078 -2.44368 0
M  V30 3232 H 300.565 -2.38935 -2.46505 0
M  V30 3233 N 303.011 1.40521 -0.713556 0
M  V30 3234 C 304.422 1.83853 -0.324807 0
M  V30 3235 C 304.773 1.59667 1.14021 0
M  V30 3236 O 303.898 1.07649 1.87725 0
M  V30 3237 C 304.493 3.33751 -0.582746 0
M  V30 3238 C 303.052 3.75584 -0.247727 0
M  V30 3239 C 302.199 2.63753 -0.856121 0
M  V30 3240 H 305.15 1.29817 -0.91286 0
M  V30 3241 H 305.171 3.80194 0.152682 0
M  V30 3242 H 304.683 3.51322 -1.64908 0
M  V30 3243 H 302.784 3.63608 0.813624 0
M  V30 3244 H 302.897 4.7373 -0.715307 0
M  V30 3245 H 301.261 2.53108 -0.28432 0
M  V30 3246 H 302.044 2.84137 -1.92668 0
M  V30 3247 N 304.489 0.459591 1.5075 0
M  V30 3248 C 305.717 -0.0973749 2.06671 0
M  V30 3249 C 306.132 -1.34524 1.32472 0
M  V30 3250 O 305.489 -1.7827 0.390634 0
M  V30 3251 C 305.54 -0.39714 3.59312 0
M  V30 3252 O 305.261 0.801214 4.30711 0
M  V30 3253 C 306.762 -1.00234 4.31819 0
M  V30 3254 H 303.982 0.00195854 0.670997 0
M  V30 3255 H 306.526 0.645072 1.94059 0
M  V30 3256 H 304.681 -1.08951 3.71764 0
M  V30 3257 H 305.095 0.538857 5.21725 0
M  V30 3258 H 306.569 -1.16193 5.39632 0
M  V30 3259 H 307.046 -1.98939 3.91561 0
M  V30 3260 H 307.652 -0.348699 4.23868 0
M  V30 3261 N 305.967 -1.56429 0.191757 0
M  V30 3262 C 307.216 -1.9666 -0.448088 0
M  V30 3263 C 307.529 -1.08136 -1.62991 0
M  V30 3264 O 308.735 -1.38135 -2.33733 0
M  V30 3265 C 307.191 -3.49753 -0.848585 0
M  V30 3266 C 306.799 -4.46935 0.308764 0
M  V30 3267 C 308.543 -3.9876 -1.4557 0
M  V30 3268 C 306.45 -5.91293 -0.112506 0
M  V30 3269 H 305.38 -0.734312 -0.171179 0
M  V30 3270 H 308.031 -1.81301 0.283242 0
M  V30 3271 H 306.413 -3.60604 -1.63649 0
M  V30 3272 H 307.587 -4.47813 1.08627 0
M  V30 3273 H 305.902 -4.08102 0.827158 0
M  V30 3274 H 308.499 -5.04086 -1.78328 0
M  V30 3275 H 308.842 -3.42875 -2.36099 0
M  V30 3276 H 309.375 -3.9101 -0.731836 0
M  V30 3277 H 306.114 -6.51097 0.758514 0
M  V30 3278 H 305.634 -5.93676 -0.854941 0
M  V30 3279 H 307.313 -6.44663 -0.549448 0
M  V30 3280 N 307.445 0.0818655 -1.57387 0
M  V30 3281 C 308.355 1.11642 -2.06333 0
M  V30 3282 C 309.371 1.43033 -0.99083 0
M  V30 3283 O 310.547 1.53411 -1.30488 0
M  V30 3284 C 307.612 2.41342 -2.48907 0
M  V30 3285 C 306.673 2.17014 -3.7041 0
M  V30 3286 C 305.906 3.4053 -4.10944 0
M  V30 3287 O 306.129 4.4927 -3.51444 0
M  V30 3288 O 305.063 3.29336 -5.03807 0
M  V30 3289 H 308.889 0.730657 -2.9478 0
M  V30 3290 H 306.474 0.295301 -1.46452 0
M  V30 3291 H 308.356 3.17691 -2.76858 0
M  V30 3292 H 307.031 2.79319 -1.63593 0
M  V30 3293 H 305.938 1.38403 -3.47556 0
M  V30 3294 H 307.271 1.83923 -4.56545 0
M  V30 3295 N 308.923 1.53595 0.353017 0
M  V30 3296 C 309.856 1.7572 1.45594 0
M  V30 3297 C 310.834 0.605961 1.50887 0
M  V30 3298 O 312.018 0.840023 1.68748 0
M  V30 3299 C 309.145 1.84732 2.83887 0
M  V30 3300 C 308.191 3.06808 2.96262 0
M  V30 3301 S 309.024 4.66065 2.63711 0
M  V30 3302 C 310.18 4.77943 4.04131 0
M  V30 3303 H 310.413 2.68994 1.26608 0
M  V30 3304 H 307.946 1.44343 0.548117 0
M  V30 3305 H 309.904 1.9061 3.63563 0
M  V30 3306 H 308.565 0.92488 3.00175 0
M  V30 3307 H 307.758 3.09761 3.97573 0
M  V30 3308 H 307.36 2.99108 2.24523 0
M  V30 3309 H 309.652 4.5877 4.98534 0
M  V30 3310 H 310.595 5.80022 4.06177 0
M  V30 3311 H 311.003 4.06472 3.91715 0
M  V30 3312 N 310.401 -0.613514 1.45168 0
M  V30 3313 C 311.647 -1.37471 1.49096 0
M  V30 3314 C 311.98 -1.93765 0.129901 0
M  V30 3315 O 311.255 -1.74707 -0.854858 0
M  V30 3316 C 311.538 -2.52701 2.56542 0
M  V30 3317 C 311.391 -2.01643 4.0207 0
M  V30 3318 C 312.71 -3.54849 2.60327 0
M  V30 3319 H 309.829 -0.498502 0.54283 0
M  V30 3320 H 312.471 -0.692125 1.76945 0
M  V30 3321 H 310.621 -3.10931 2.32926 0
M  V30 3322 H 312.293 -1.48108 4.36877 0
M  V30 3323 H 310.536 -1.32688 4.13009 0
M  V30 3324 H 311.207 -2.84681 4.72928 0
M  V30 3325 H 313.683 -3.0645 2.81474 0
M  V30 3326 H 312.559 -4.32973 3.37381 0
M  V30 3327 H 312.82 -4.10079 1.6519 0
M  V30 3328 N 311.879 -1.3236 -0.855495 0
M  V30 3329 C 312.789 -1.23221 -1.99634 0
M  V30 3330 C 313.805 -0.145983 -1.73387 0
M  V30 3331 O 314.981 -0.366502 -1.98037 0
M  V30 3332 C 312.046 -0.954782 -3.33294 0
M  V30 3333 C 311.107 -2.12937 -3.72769 0
M  V30 3334 C 310.34 -1.86508 -5.00051 0
M  V30 3335 O 310.563 -0.807231 -5.64659 0
M  V30 3336 O 309.497 -2.72591 -5.36636 0
M  V30 3337 H 313.323 -2.19126 -2.1028 0
M  V30 3338 H 310.908 -1.12241 -0.986018 0
M  V30 3339 H 312.79 -0.816519 -4.13414 0
M  V30 3340 H 311.465 -0.0258854 -3.2369 0
M  V30 3341 H 310.372 -2.3231 -2.93228 0
M  V30 3342 H 311.705 -3.04102 -3.87018 0
M  V30 3343 N 313.357 1.07166 -1.15556 0
M  V30 3344 C 314.267 2.17947 -0.868116 0
M  V30 3345 C 315.283 1.73297 0.156297 0
M  V30 3346 O 316.459 2.01392 -0.0182327 0
M  V30 3347 C 313.524 3.44789 -0.36355 0
M  V30 3348 C 312.585 4.03996 -1.45209 0
M  V30 3349 C 311.818 5.24783 -0.971508 0
M  V30 3350 O 312.041 5.70109 0.182194 0
M  V30 3351 O 310.975 5.75715 -1.75603 0
M  V30 3352 H 314.801 2.4503 -1.79427 0
M  V30 3353 H 312.386 1.16539 -0.934824 0
M  V30 3354 H 314.268 4.21307 -0.0887113 0
M  V30 3355 H 312.943 3.19253 0.534708 0
M  V30 3356 H 311.85 3.29009 -1.78056 0
M  V30 3357 H 313.183 4.33808 -2.32533 0
M  V30 3358 N 314.835 0.952656 1.25548 0
M  V30 3359 C 315.767 0.428609 2.25157 0
M  V30 3360 C 316.78 -0.454428 1.56329 0
M  V30 3361 O 317.969 -0.263023 1.76552 0
M  V30 3362 C 315.069 -0.401972 3.36508 0
M  V30 3363 C 314.242 0.467601 4.34893 0
M  V30 3364 C 313.301 -0.30445 5.25319 0
M  V30 3365 O 312.327 0.296473 5.68427 0
M  V30 3366 N 313.529 -1.59805 5.5807 0
M  V30 3367 H 316.294 1.28497 2.70756 0
M  V30 3368 H 313.855 0.822798 1.39433 0
M  V30 3369 H 315.847 -0.926134 3.9396 0
M  V30 3370 H 314.417 -1.15918 2.90313 0
M  V30 3371 H 313.637 1.17288 3.76347 0
M  V30 3372 H 314.925 1.06119 4.97611 0
M  V30 3373 H 314.323 -2.10823 5.24948 0
M  V30 3374 H 312.88 -2.06822 6.18116 0
M  V30 3375 N 316.313 -1.40141 0.720998 0
M  V30 3376 C 317.538 -2.05618 0.271258 0
M  V30 3377 C 317.963 -1.53978 -1.08039 0
M  V30 3378 O 317.321 -0.677463 -1.68167 0
M  V30 3379 C 317.369 -3.59609 0.267197 0
M  V30 3380 O 316.473 -4.05526 -0.749814 0
M  V30 3381 H 315.814 -0.651904 0.126162 0
M  V30 3382 H 318.344 -1.79439 0.982997 0
M  V30 3383 H 318.354 -4.0786 0.106744 0
M  V30 3384 H 317.029 -3.96559 1.25354 0
M  V30 3385 H 315.606 -3.68722 -0.556644 0
M  V30 3386 N 317.792 -0.46758 -1.50504 0
M  V30 3387 C 318.755 0.317059 -2.26996 0
M  V30 3388 C 319.755 0.923513 -1.31635 0
M  V30 3389 O 320.945 0.793239 -1.55091 0
M  V30 3390 C 318.077 1.45134 -3.08462 0
M  V30 3391 H 319.27 -0.353723 -2.97807 0
M  V30 3392 H 316.823 -0.221545 -1.54722 0
M  V30 3393 H 317.558 2.15728 -2.4214 0
M  V30 3394 H 317.343 1.02232 -3.78538 0
M  V30 3395 H 318.833 2.00493 -3.66323 0
M  V30 3396 N 319.27 1.56325 -0.20005 0
M  V30 3397 C 320.217 2.1932 0.718833 0
M  V30 3398 C 321.187 1.14198 1.20615 0
M  V30 3399 O 322.372 1.42469 1.26914 0
M  V30 3400 C 319.512 2.86041 1.93066 0
M  V30 3401 C 318.625 4.05702 1.48425 0
M  V30 3402 C 317.76 4.60266 2.65196 0
M  V30 3403 C 316.799 5.72273 2.17185 0
M  V30 3404 N 315.936 6.21221 3.27152 0
M  V30 3405 H 320.776 2.97486 0.17489 0
M  V30 3406 H 318.313 1.46911 0.0745794 0
M  V30 3407 H 320.271 3.22897 2.64184 0
M  V30 3408 H 318.901 2.1043 2.44783 0
M  V30 3409 H 317.953 3.74475 0.668755 0
M  V30 3410 H 319.265 4.86699 1.09204 0
M  V30 3411 H 318.419 4.99453 3.4443 0
M  V30 3412 H 317.158 3.78386 3.07693 0
M  V30 3413 H 316.163 5.3261 1.36407 0
M  V30 3414 H 317.388 6.55974 1.75713 0
M  V30 3415 H 315.334 5.42263 3.69171 0
M  V30 3416 H 315.251 6.97284 2.92116 0
M  V30 3417 H 316.519 6.65063 4.06585 0
M  V30 3418 N 320.748 -0.0735177 1.57428 0
M  V30 3419 C 321.976 -0.785969 1.9139 0
M  V30 3420 C 322.391 -1.71207 0.795847 0
M  V30 3421 O 321.748 -1.81033 -0.230915 0
M  V30 3422 C 321.799 -1.58107 3.25091 0
M  V30 3423 O 321.52 -0.6922 4.32597 0
M  V30 3424 C 323.021 -2.39467 3.73055 0
M  V30 3425 H 320.241 -0.223558 0.632663 0
M  V30 3426 H 322.785 -0.044302 2.04452 0
M  V30 3427 H 320.94 -2.27503 3.13562 0
M  V30 3428 H 321.354 -1.24504 5.09508 0
M  V30 3429 H 322.828 -2.90716 4.69242 0
M  V30 3430 H 323.305 -3.18913 3.01979 0
M  V30 3431 H 323.911 -1.7523 3.87523 0
M  V30 3432 N 322.226 -1.5378 -0.344866 0
M  V30 3433 C 323.474 -1.70625 -1.08311 0
M  V30 3434 C 323.795 -0.471447 -1.89215 0
M  V30 3435 O 323.065 0.514616 -1.8902 0
M  V30 3436 H 321.645 -0.629058 -0.402859 0
M  V30 3437 H 324.307 -1.9103 -0.386459 0
M  V30 3438 H 323.403 -2.57656 -1.76124 0
M  V30 3439 N 323.704 0.605807 -1.45491 0
M  V30 3440 C 324.951 1.36476 -1.49601 0
M  V30 3441 C 325.279 1.94007 -0.138452 0
M  V30 3442 O 324.534 1.75638 0.863114 0
M  V30 3443 C 324.833 2.53012 -2.52428 0
M  V30 3444 C 324.499 2.13617 -3.97087 0
M  V30 3445 C 323.161 2.02587 -4.36477 0
M  V30 3446 C 325.513 1.82899 -4.88055 0
M  V30 3447 C 322.841 1.59064 -5.64726 0
M  V30 3448 C 325.193 1.40861 -6.16718 0
M  V30 3449 C 323.857 1.28391 -6.55036 0
M  V30 3450 H 323.127 0.499402 -0.547429 0
M  V30 3451 H 325.774 0.684546 -1.78847 0
M  V30 3452 H 324.079 3.26379 -2.16758 0
M  V30 3453 H 325.776 3.1124 -2.52845 0
M  V30 3454 H 322.366 2.23129 -3.65939 0
M  V30 3455 H 326.55 1.90317 -4.58359 0
M  V30 3456 H 321.806 1.48034 -5.93208 0
M  V30 3457 H 325.98 1.16138 -6.86648 0
M  V30 3458 H 323.607 0.944403 -7.54311 0
M  V30 3459 N 325.182 1.32811 0.848464 0
M  V30 3460 C 326.41 1.26739 1.63538 0
M  V30 3461 C 326.825 -0.163484 1.88091 0
M  V30 3462 O 326.182 -1.10258 1.45429 0
M  V30 3463 C 326.233 2.03013 2.99112 0
M  V30 3464 O 325.954 3.40518 2.75643 0
M  V30 3465 C 327.455 2.04038 3.93552 0
M  V30 3466 H 324.675 0.437024 0.509167 0
M  V30 3467 H 327.219 1.75033 1.05753 0
M  V30 3468 H 325.374 1.58426 3.53525 0
M  V30 3469 H 325.788 3.79635 3.61908 0
M  V30 3470 H 327.262 2.61877 4.85926 0
M  V30 3471 H 327.739 1.0282 4.26995 0
M  V30 3472 H 328.345 2.486 3.45077 0
M  V30 3473 N 326.66 -1.06551 1.16123 0
M  V30 3474 C 327.59 -2.15935 0.88851 0
M  V30 3475 C 328.571 -1.69306 -0.164135 0
M  V30 3476 O 329.756 -1.94193 -0.0167857 0
M  V30 3477 C 326.886 -3.45149 0.385942 0
M  V30 3478 C 325.84 -4.05271 1.3762 0
M  V30 3479 C 325.166 -5.29664 0.732137 0
M  V30 3480 C 326.466 -4.44355 2.74493 0
M  V30 3481 H 328.16 -2.39006 1.80323 0
M  V30 3482 H 325.706 -1.14866 0.868435 0
M  V30 3483 H 327.659 -4.21004 0.182647 0
M  V30 3484 H 326.383 -3.21689 -0.564274 0
M  V30 3485 H 325.042 -3.3147 1.56599 0
M  V30 3486 H 324.69 -5.02499 -0.224483 0
M  V30 3487 H 324.39 -5.70848 1.39307 0
M  V30 3488 H 325.914 -6.08218 0.538802 0
M  V30 3489 H 327.328 -5.11303 2.59311 0
M  V30 3490 H 325.725 -4.96515 3.37035 0
M  V30 3491 H 326.795 -3.55339 3.29943 0
M  V30 3492 N 328.138 -0.959301 -1.25041 0
M  V30 3493 C 329.366 -0.633949 -1.96948 0
M  V30 3494 C 329.781 0.794916 -1.7125 0
M  V30 3495 O 329.138 1.53231 -0.991287 0
M  V30 3496 C 329.189 -0.888805 -3.50403 0
M  V30 3497 O 328.91 -2.26149 -3.75218 0
M  V30 3498 C 330.411 -0.576482 -4.39536 0
M  V30 3499 H 327.631 -0.237263 -0.627652 0
M  V30 3500 H 330.175 -1.28495 -1.59089 0
M  V30 3501 H 328.33 -0.284145 -3.86357 0
M  V30 3502 H 328.744 -2.33514 -4.6965 0
M  V30 3503 H 330.218 -0.805314 -5.46094 0
M  V30 3504 H 330.695 0.489075 -4.36468 0
M  V30 3505 H 331.301 -1.16067 -4.09156 0
M  V30 3506 N 329.616 1.39756 -0.72842 0
M  V30 3507 C 331.032 1.5442 -0.403308 0
M  V30 3508 C 331.232 1.69694 1.08656 0
M  V30 3509 O 330.288 1.69373 1.87267 0
M  V30 3510 C 331.601 2.76555 -1.18058 0
M  V30 3511 C 333.149 2.90384 -1.16815 0
M  V30 3512 C 333.624 4.15449 -1.92785 0
M  V30 3513 N 335.115 4.22475 -1.89918 0
M  V30 3514 C 335.85 5.1818 -2.45514 0
M  V30 3515 N 335.346 6.19714 -3.09719 0
M  V30 3516 N 337.139 5.1035 -2.35584 0
M  V30 3517 H 329.29 1.28089 -1.69431 0
M  V30 3518 H 331.553 0.620327 -0.716867 0
M  V30 3519 H 331.259 2.7159 -2.23455 0
M  V30 3520 H 331.133 3.69033 -0.780662 0
M  V30 3521 H 333.52 2.94846 -0.12234 0
M  V30 3522 H 333.601 1.98988 -1.6074 0
M  V30 3523 H 333.245 4.11749 -2.97364 0
M  V30 3524 H 333.175 5.05877 -1.46272 0
M  V30 3525 H 335.666 3.49743 -1.43138 0
M  V30 3526 H 335.979 6.8919 -3.49625 0
M  V30 3527 H 334.324 6.20121 -3.13807 0
M  V30 3528 H 337.515 4.2996 -1.85072 0
M  V30 3529 H 337.688 5.84761 -2.79211 0
M  V30 3530 N 331.094 0.475555 1.50254 0
M  V30 3531 C 332.51 0.12997 1.5907 0
M  V30 3532 C 332.71 -1.36385 1.48328 0
M  V30 3533 O 331.766 -2.13754 1.34407 0
M  V30 3534 C 333.079 0.684139 2.92814 0
M  V30 3535 C 334.627 0.647965 3.0622 0
M  V30 3536 C 335.102 1.17975 4.42545 0
M  V30 3537 N 336.593 1.13936 4.48969 0
M  V30 3538 C 337.328 1.52129 5.52851 0
M  V30 3539 N 336.824 1.97793 6.63965 0
M  V30 3540 N 338.617 1.43704 5.4342 0
M  V30 3541 H 330.768 1.44706 1.55479 0
M  V30 3542 H 333.031 0.598691 0.735033 0
M  V30 3543 H 332.737 1.73079 3.06164 0
M  V30 3544 H 332.611 0.130204 3.76975 0
M  V30 3545 H 334.998 -0.38979 2.92514 0
M  V30 3546 H 335.079 1.23876 2.23805 0
M  V30 3547 H 334.723 2.21616 4.57 0
M  V30 3548 H 334.653 0.565138 5.23559 0
M  V30 3549 H 337.144 0.804488 3.69238 0
M  V30 3550 H 337.457 2.25072 7.39299 0
M  V30 3551 H 335.802 2.01749 6.65073 0
M  V30 3552 H 338.993 1.07867 4.55502 0
M  V30 3553 H 339.166 1.73794 6.24259 0
M  V30 3554 N 332.573 -1.56217 0.208337 0
M  V30 3555 C 333.505 -2.1695 -0.739276 0
M  V30 3556 C 334.518 -1.13492 -1.1672 0
M  V30 3557 O 335.707 -1.40529 -1.10063 0
M  V30 3558 C 332.807 -2.72755 -2.01142 0
M  V30 3559 C 331.98 -4.0125 -1.74118 0
M  V30 3560 C 331.039 -4.41749 -2.85909 0
M  V30 3561 O 330.065 -5.08912 -2.54946 0
M  V30 3562 N 331.267 -4.06342 -4.14568 0
M  V30 3563 H 334.032 -2.98893 -0.219837 0
M  V30 3564 H 331.593 -1.61878 0.0268445 0
M  V30 3565 H 333.585 -2.96826 -2.75094 0
M  V30 3566 H 332.155 -1.95191 -2.4417 0
M  V30 3567 H 331.375 -3.85173 -0.838775 0
M  V30 3568 H 332.663 -4.851 -1.53477 0
M  V30 3569 H 332.061 -3.52345 -4.42571 0
M  V30 3570 H 330.618 -4.35335 -4.85105 0
M  V30 3571 N 334.051 0.0651679 -1.57465 0
M  V30 3572 C 335.276 0.779605 -1.9219 0
M  V30 3573 C 335.701 1.69988 -0.805333 0
M  V30 3574 O 335.059 1.79685 0.241435 0
M  V30 3575 C 335.107 1.54364 -3.2589 0
M  V30 3576 O 334.211 2.65474 -3.1559 0
M  V30 3577 H 333.552 0.212249 -0.629163 0
M  V30 3578 H 336.082 0.0314294 -2.04576 0
M  V30 3579 H 336.092 1.92146 -3.59922 0
M  V30 3580 H 334.767 0.868457 -4.06732 0
M  V30 3581 H 333.344 2.30501 -2.93128 0
M  V30 3582 N 335.529 1.53961 0.336706 0
M  V30 3583 C 336.459 1.85417 1.41925 0
M  V30 3584 C 337.44 0.709856 1.5458 0
M  V30 3585 O 338.625 0.962396 1.68676 0
M  V30 3586 C 335.755 2.06985 2.78881 0
M  V30 3587 C 334.709 3.22813 2.81026 0
M  V30 3588 C 334.035 3.29727 4.20932 0
M  V30 3589 C 335.335 4.60767 2.45949 0
M  V30 3590 H 337.029 2.76079 1.15848 0
M  V30 3591 H 334.575 1.32839 0.555859 0
M  V30 3592 H 336.528 2.27575 3.54665 0
M  V30 3593 H 335.252 1.13061 3.06406 0
M  V30 3594 H 333.911 3.0209 2.07695 0
M  V30 3595 H 333.559 2.33385 4.45579 0
M  V30 3596 H 333.259 4.07566 4.23277 0
M  V30 3597 H 334.783 3.52536 4.98549 0
M  V30 3598 H 336.197 4.81325 3.11446 0
M  V30 3599 H 334.594 5.4106 2.59566 0
M  V30 3600 H 335.664 4.6391 1.41122 0
M  V30 3601 N 337.007 -0.598083 1.45811 0
M  V30 3602 C 337.939 -1.72231 1.51225 0
M  V30 3603 C 338.952 -1.57757 0.402059 0
M  V30 3604 O 340.141 -1.65464 0.669624 0
M  V30 3605 C 337.241 -3.10331 1.3619 0
M  V30 3606 C 336.414 -3.50955 2.61054 0
M  V30 3607 C 335.473 -4.68055 2.40439 0
M  V30 3608 O 334.499 -4.74691 3.14097 0
M  V30 3609 N 335.701 -5.61941 1.45612 0
M  V30 3610 H 338.466 -1.68046 2.48154 0
M  V30 3611 H 336.027 -0.783637 1.41671 0
M  V30 3612 H 338.019 -3.86439 1.20195 0
M  V30 3613 H 336.589 -3.0897 0.475015 0
M  V30 3614 H 335.809 -2.64711 2.92099 0
M  V30 3615 H 337.097 -3.74858 3.44034 0
M  V30 3616 H 336.495 -5.59301 0.848431 0
M  V30 3617 H 335.052 -6.37542 1.35585 0
M  V30 3618 N 338.485 -1.33259 -0.841409 0
M  V30 3619 C 339.896 -1.22066 -1.41269 0
M  V30 3620 C 340.247 0.161479 -1.95534 0
M  V30 3621 O 339.372 1.06094 -1.88608 0
M  V30 3622 C 339.967 -2.20996 -2.568 0
M  V30 3623 C 338.526 -2.13649 -3.09888 0
M  V30 3624 C 337.673 -2.08623 -1.82679 0
M  V30 3625 H 340.624 -1.44895 -0.647395 0
M  V30 3626 H 340.645 -1.81621 -3.34356 0
M  V30 3627 H 340.157 -3.2158 -2.17274 0
M  V30 3628 H 338.258 -1.16359 -3.53965 0
M  V30 3629 H 338.371 -3.04079 -3.70234 0
M  V30 3630 H 336.735 -1.54061 -2.02824 0
M  V30 3631 H 337.518 -3.1101 -1.45353 0
M  V30 3632 N 339.963 1.05934 -1.16686 0
M  V30 3633 C 340.913 2.11764 -0.844978 0
M  V30 3634 C 341.897 1.59922 0.177178 0
M  V30 3635 O 343.089 1.76983 -0.0241768 0
M  V30 3636 C 340.218 3.41493 -0.351812 0
M  V30 3637 C 339.304 4.00152 -1.40496 0
M  V30 3638 N 339.695 4.32874 -2.61636 0
M  V30 3639 C 337.993 4.278 -1.26106 0
M  V30 3640 C 338.694 4.79552 -3.29249 0
M  V30 3641 N 337.67 4.79211 -2.56628 0
M  V30 3642 H 341.472 2.34916 -1.76612 0
M  V30 3643 H 338.986 1.23511 -1.05446 0
M  V30 3644 H 340.983 4.16773 -0.102796 0
M  V30 3645 H 339.643 3.19778 0.56322 0
M  V30 3646 H 340.654 4.23109 -2.98663 0
M  V30 3647 H 337.331 4.15511 -0.407081 0
M  V30 3648 H 338.721 5.14045 -4.32675 0
M  V30 3649 N 341.441 0.965919 1.2453 0
M  V30 3650 C 342.671 0.643451 1.96324 0
M  V30 3651 C 343.079 -0.790927 1.71875 0
M  V30 3652 O 342.422 -1.54208 0.998273 0
M  V30 3653 C 342.484 0.836078 3.49643 0
M  V30 3654 C 342.148 2.24975 3.97788 0
M  V30 3655 C 343.145 3.22735 4.07601 0
M  V30 3656 C 340.83 2.57697 4.31158 0
M  V30 3657 C 342.824 4.51303 4.50116 0
M  V30 3658 C 340.511 3.86492 4.73357 0
M  V30 3659 C 341.509 4.83107 4.828 0
M  V30 3660 O 341.197 6.09605 5.24058 0
M  V30 3661 H 340.929 0.239223 0.632257 0
M  V30 3662 H 343.483 1.29587 1.59362 0
M  V30 3663 H 341.713 0.12649 3.86493 0
M  V30 3664 H 343.402 0.512965 4.02646 0
M  V30 3665 H 344.168 2.98783 3.82039 0
M  V30 3666 H 340.047 1.83216 4.23028 0
M  V30 3667 H 343.591 5.26716 4.57401 0
M  V30 3668 H 339.488 4.10245 4.98366 0
M  V30 3669 H 340.256 6.13146 5.42213 0
M  V30 3670 N 342.919 -1.39368 0.735821 0
M  V30 3671 C 343.882 -2.2896 0.104874 0
M  V30 3672 C 344.882 -1.46347 -0.666274 0
M  V30 3673 O 346.072 -1.67014 -0.49517 0
M  V30 3674 C 343.204 -3.29857 -0.860656 0
M  V30 3675 H 344.397 -2.86259 0.894205 0
M  V30 3676 H 341.95 -1.48029 0.501704 0
M  V30 3677 H 342.685 -2.77615 -1.67631 0
M  V30 3678 H 342.47 -3.9087 -0.310327 0
M  V30 3679 H 343.96 -3.96893 -1.29867 0
M  V30 3680 N 344.397 -0.483516 -1.5 0
M  V30 3681 C 345.813 -0.138404 -1.58999 0
M  V30 3682 C 346.013 1.35597 -1.4905 0
M  V30 3683 O 345.069 2.13039 -1.35539 0
M  V30 3684 C 346.382 -0.699658 -2.92447 0
M  V30 3685 C 347.93 -0.664195 -3.05872 0
M  V30 3686 C 348.405 -1.20321 -4.41913 0
M  V30 3687 N 349.896 -1.16315 -4.48358 0
M  V30 3688 C 350.631 -1.55058 -5.52037 0
M  V30 3689 N 350.127 -2.01311 -6.62907 0
M  V30 3690 N 351.92 -1.46584 -5.42651 0
M  V30 3691 H 344.071 -1.45529 -1.5471 0
M  V30 3692 H 346.334 -0.60258 -0.731848 0
M  V30 3693 H 346.04 -1.747 -3.05242 0
M  V30 3694 H 345.914 -0.150194 -3.76901 0
M  V30 3695 H 348.301 0.374272 -2.92717 0
M  V30 3696 H 348.382 -1.25061 -2.23144 0
M  V30 3697 H 348.026 -2.24037 -4.55818 0
M  V30 3698 H 347.956 -0.592896 -5.23252 0
M  V30 3699 H 350.447 -0.824058 -3.68806 0
M  V30 3700 H 350.76 -2.2899 -7.38095 0
M  V30 3701 H 349.105 -2.05273 -6.63994 0
M  V30 3702 H 352.296 -1.10281 -4.54924 0
M  V30 3703 H 352.469 -1.77103 -6.23329 0
M  V30 3704 N 345.875 1.56104 -0.216619 0
M  V30 3705 C 347.103 2.02563 0.421413 0
M  V30 3706 C 347.518 1.0965 1.53695 0
M  V30 3707 O 346.875 0.10521 1.82196 0
M  V30 3708 C 346.926 3.48584 0.957665 0
M  V30 3709 O 346.647 4.37953 -0.113389 0
M  V30 3710 C 348.148 4.10664 1.66943 0
M  V30 3711 H 345.368 0.662944 0.103665 0
M  V30 3712 H 347.912 2.01793 -0.331629 0
M  V30 3713 H 346.067 3.49985 1.661 0
M  V30 3714 H 346.481 5.23704 0.288932 0
M  V30 3715 H 347.955 5.14622 1.99671 0
M  V30 3716 H 348.432 3.55373 2.58083 0
M  V30 3717 H 349.038 4.13098 1.01142 0
M  V30 3718 N 347.353 -0.0568162 1.57498 0
M  V30 3719 C 348.283 -1.06593 2.0775 0
M  V30 3720 C 349.264 -1.39448 0.974082 0
M  V30 3721 O 350.449 -1.48815 1.24771 0
M  V30 3722 C 347.579 -2.37509 2.5339 0
M  V30 3723 C 346.533 -2.1897 3.67745 0
M  V30 3724 C 345.859 -3.55402 3.99492 0
M  V30 3725 C 347.159 -1.59859 4.97235 0
M  V30 3726 H 348.853 -0.647706 2.9231 0
M  V30 3727 H 346.399 -0.310116 1.40621 0
M  V30 3728 H 348.352 -3.08409 2.87162 0
M  V30 3729 H 347.076 -2.8134 1.65878 0
M  V30 3730 H 345.735 -1.50508 3.3428 0
M  V30 3731 H 345.383 -3.9683 3.09088 0
M  V30 3732 H 345.083 -3.43831 4.76502 0
M  V30 3733 H 346.607 -4.27708 4.35773 0
M  V30 3734 H 348.021 -2.20642 5.29141 0
M  V30 3735 H 346.418 -1.58942 5.78669 0
M  V30 3736 H 347.488 -0.561506 4.81638 0
M  V30 3737 N 348.832 -1.54138 -0.328536 0
M  V30 3738 C 350.109 -1.62749 -1.08499 0
M  V30 3739 C 350.489 -0.458198 -2.06067 0
M  V30 3740 O 349.837 0.548046 -2.2183 0
M  V30 3741 C 350.047 -2.99519 -1.79135 0
M  V30 3742 C 351.395 -3.55394 -2.32337 0
M  V30 3743 O 352.419 -3.01792 -1.89209 0
M  V30 3744 O 351.278 -4.49186 -3.11279 0
M  V30 3745 H 348.372 -0.65886 -0.499832 0
M  V30 3746 H 350.918 -1.66484 -0.328826 0
M  V30 3747 H 349.69 -3.76061 -1.08139 0
M  V30 3748 H 349.313 -2.99441 -2.61574 0
M  V30 3749 N 350.31 0.590341 -1.46126 0
M  V30 3750 C 351.24 1.71032 -1.58966 0
M  V30 3751 C 352.221 1.64302 -0.440335 0
M  V30 3752 O 353.406 1.82436 -0.665634 0
M  V30 3753 C 350.536 3.09665 -1.57241 0
M  V30 3754 C 349.49 3.31221 -2.71066 0
M  V30 3755 C 348.816 4.70303 -2.54399 0
M  V30 3756 C 350.116 3.19796 -4.1295 0
M  V30 3757 H 351.81 1.60543 -2.52718 0
M  V30 3758 H 349.356 0.770933 -1.21625 0
M  V30 3759 H 351.309 3.87831 -1.64819 0
M  V30 3760 H 350.033 3.21036 -0.600289 0
M  V30 3761 H 348.692 2.55452 -2.62944 0
M  V30 3762 H 348.34 4.78429 -1.55288 0
M  V30 3763 H 348.04 4.85679 -3.30741 0
M  V30 3764 H 349.564 5.50647 -2.63857 0
M  V30 3765 H 350.978 3.87815 -4.22223 0
M  V30 3766 H 349.375 3.46696 -4.89818 0
M  V30 3767 H 350.445 2.16983 -4.33643 0
M  V30 3768 N 351.788 1.33704 0.83433 0
M  V30 3769 C 353.034 1.26612 1.59188 0
M  V30 3770 C 353.389 -0.165439 1.91687 0
M  V30 3771 O 352.682 -1.10873 1.56262 0
M  V30 3772 C 352.876 2.07926 2.90692 0
M  V30 3773 C 352.705 3.58844 2.71038 0
M  V30 3774 C 351.475 4.28148 2.68361 0
M  V30 3775 C 353.673 4.53082 2.43353 0
M  V30 3776 N 351.655 5.64987 2.40132 0
M  V30 3777 C 353.026 5.77843 2.24716 0
M  V30 3778 C 355.081 4.42119 2.28987 0
M  V30 3779 C 353.784 6.92877 1.9317 0
M  V30 3780 C 355.81 5.56973 1.98835 0
M  V30 3781 C 355.172 6.80745 1.81012 0
M  V30 3782 H 351.271 0.518517 0.585375 0
M  V30 3783 H 353.855 1.68294 0.979044 0
M  V30 3784 H 352.026 1.68558 3.49918 0
M  V30 3785 H 353.758 1.92568 3.55949 0
M  V30 3786 H 350.513 3.80469 2.82029 0
M  V30 3787 H 350.937 6.37133 2.28889 0
M  V30 3788 H 355.579 3.47058 2.41477 0
M  V30 3789 H 353.297 7.87931 1.79418 0
M  V30 3790 H 356.883 5.50428 1.88468 0
M  V30 3791 H 355.763 7.68115 1.58017 0
M  V30 3792 N 353.266 -1.05314 1.17247 0
M  V30 3793 C 354.229 -2.112 0.890357 0
M  V30 3794 C 355.229 -1.60359 -0.118943 0
M  V30 3795 O 356.419 -1.73833 0.113086 0
M  V30 3796 C 353.551 -3.39266 0.333422 0
M  V30 3797 H 354.744 -2.37659 1.82916 0
M  V30 3798 H 352.297 -1.21538 0.982758 0
M  V30 3799 H 353.032 -3.18462 -0.612587 0
M  V30 3800 H 352.817 -3.77477 1.06082 0
M  V30 3801 H 354.307 -4.17315 0.154322 0
M  V30 3802 N 354.744 -0.972509 -1.24016 0
M  V30 3803 C 355.654 -0.5143 -2.28893 0
M  V30 3804 C 356.67 0.427078 -1.68677 0
M  V30 3805 O 357.846 0.298939 -1.99169 0
M  V30 3806 C 354.911 0.183598 -3.46214 0
M  V30 3807 C 353.972 -0.798202 -4.21814 0
M  V30 3808 C 353.205 -0.133514 -5.33533 0
M  V30 3809 O 353.428 1.07714 -5.60137 0
M  V30 3810 O 352.362 -0.828103 -5.96176 0
M  V30 3811 H 356.188 -1.38629 -2.70214 0
M  V30 3812 H 353.773 -0.739769 -1.29799 0
M  V30 3813 H 355.655 0.575433 -4.17453 0
M  V30 3814 H 354.33 1.03048 -3.0686 0
M  V30 3815 H 353.237 -1.24059 -3.52931 0
M  V30 3816 H 354.57 -1.61364 -4.64997 0
M  V30 3817 N 356.222 1.38976 -0.743202 0
M  V30 3818 C 357.185 2.28901 -0.117014 0
M  V30 3819 C 358.185 1.46698 0.658503 0
M  V30 3820 O 359.375 1.67274 0.486305 0
M  V30 3821 C 356.507 3.30309 0.84315 0
M  V30 3822 H 357.7 2.8578 -0.909373 0
M  V30 3823 H 355.253 1.47761 -0.509547 0
M  V30 3824 H 355.988 2.785 1.66157 0
M  V30 3825 H 355.773 3.91029 0.289594 0
M  V30 3826 H 357.263 3.97577 1.2776 0
M  V30 3827 N 357.7 0.491464 1.49741 0
M  V30 3828 C 358.63 -0.28154 2.31796 0
M  V30 3829 C 359.611 -0.971473 1.3963 0
M  V30 3830 O 360.796 -0.964719 1.68543 0
M  V30 3831 C 357.926 -1.35203 3.19902 0
M  V30 3832 C 356.88 -0.782529 4.20786 0
M  V30 3833 C 356.206 -1.95283 4.97764 0
M  V30 3834 C 357.506 0.21999 5.21837 0
M  V30 3835 H 359.2 0.403355 2.96671 0
M  V30 3836 H 356.746 0.195425 1.42668 0
M  V30 3837 H 358.699 -1.90045 3.76113 0
M  V30 3838 H 357.423 -2.06598 2.52953 0
M  V30 3839 H 356.082 -0.255928 3.65706 0
M  V30 3840 H 355.73 -2.65423 4.2727 0
M  V30 3841 H 355.43 -1.57789 5.66018 0
M  V30 3842 H 356.954 -2.50577 5.56816 0
M  V30 3843 H 358.368 -0.23996 5.72798 0
M  V30 3844 H 356.765 0.51026 5.97927 0
M  V30 3845 H 357.835 1.13911 4.7133 0
M  V30 3846 N 359.178 -1.55987 0.224894 0
M  V30 3847 C 360.11 -2.17722 -0.716224 0
M  V30 3848 C 361.123 -1.14723 -1.15509 0
M  V30 3849 O 362.312 -1.41688 -1.08567 0
M  V30 3850 C 359.412 -2.74873 -1.98238 0
M  V30 3851 C 358.585 -4.03074 -1.69853 0
M  V30 3852 C 357.644 -4.44757 -2.81208 0
M  V30 3853 O 356.67 -5.11587 -2.49534 0
M  V30 3854 N 357.872 -4.10716 -4.10235 0
M  V30 3855 H 360.637 -2.99109 -0.188123 0
M  V30 3856 H 358.198 -1.6184 0.0440123 0
M  V30 3857 H 360.19 -2.99727 -2.7193 0
M  V30 3858 H 358.76 -1.9777 -2.42086 0
M  V30 3859 H 357.98 -3.86041 -0.797875 0
M  V30 3860 H 359.268 -4.86701 -1.48324 0
M  V30 3861 H 358.666 -3.57019 -4.38809 0
M  V30 3862 H 357.223 -4.40455 -4.80461 0
M  V30 3863 N 360.656 0.0484629 -1.57525 0
M  V30 3864 C 361.566 1.07241 -2.08654 0
M  V30 3865 C 362.582 1.409 -1.02095 0
M  V30 3866 O 363.758 1.50609 -1.33712 0
M  V30 3867 C 360.823 2.36008 -2.5397 0
M  V30 3868 C 359.884 2.09108 -3.7493 0
M  V30 3869 C 359.117 3.31736 -4.18075 0
M  V30 3870 O 359.34 4.41714 -3.60895 0
M  V30 3871 O 358.274 3.18576 -5.10679 0
M  V30 3872 H 362.1 0.667965 -2.96263 0
M  V30 3873 H 359.685 0.26417 -1.47046 0
M  V30 3874 H 361.567 3.11747 -2.83535 0
M  V30 3875 H 360.242 2.75786 -1.69481 0
M  V30 3876 H 359.149 1.31 -3.50414 0
M  V30 3877 H 360.482 1.74198 -4.60343 0
M  V30 3878 N 362.134 1.5431 0.320358 0
M  V30 3879 C 363.084 1.803 1.39556 0
M  V30 3880 C 364.068 0.659166 1.46778 0
M  V30 3881 O 365.26 0.91926 1.51257 0
M  V30 3882 C 362.389 2.03665 2.76361 0
M  V30 3883 C 361.475 3.24178 2.73439 0
M  V30 3884 N 361.866 4.4516 2.40137 0
M  V30 3885 C 360.164 3.25816 3.04565 0
M  V30 3886 C 360.865 5.27109 2.4603 0
M  V30 3887 N 359.841 4.64368 2.82601 0
M  V30 3888 H 363.643 2.71416 1.12742 0
M  V30 3889 H 361.157 1.53548 0.528856 0
M  V30 3890 H 363.154 2.20425 3.53862 0
M  V30 3891 H 361.814 1.13805 3.04103 0
M  V30 3892 H 362.825 4.72104 2.12927 0
M  V30 3893 H 359.502 2.46001 3.37328 0
M  V30 3894 H 360.892 6.33728 2.23246 0
M  V30 3895 N 363.613 -0.582584 1.46437 0
M  V30 3896 C 364.56 -1.69164 1.5701 0
M  V30 3897 C 365.53 -1.60847 0.414403 0
M  V30 3898 O 366.715 -1.80058 0.631171 0
M  V30 3899 C 363.855 -3.075 1.56646 0
M  V30 3900 C 362.968 -3.2644 2.82951 0
M  V30 3901 C 362.103 -4.55026 2.7409 0
M  V30 3902 C 361.142 -4.6731 3.95333 0
M  V30 3903 N 360.279 -5.87221 3.84858 0
M  V30 3904 H 365.119 -1.59464 2.51744 0
M  V30 3905 H 362.656 -0.777186 1.24893 0
M  V30 3906 H 364.614 -3.8757 1.5442 0
M  V30 3907 H 363.244 -3.16096 0.654439 0
M  V30 3908 H 362.296 -2.39974 2.95155 0
M  V30 3909 H 363.608 -3.31385 3.72808 0
M  V30 3910 H 362.762 -5.43324 2.6997 0
M  V30 3911 H 361.501 -4.52519 1.81873 0
M  V30 3912 H 360.506 -3.77429 3.99784 0
M  V30 3913 H 361.731 -4.71595 4.88646 0
M  V30 3914 H 359.677 -5.85712 2.95427 0
M  V30 3915 H 359.594 -5.93435 4.6837 0
M  V30 3916 H 360.862 -6.7795 3.84713 0
M  V30 3917 N 365.091 -1.34144 -0.827227 0
M  V30 3918 C 366.316 -1.29476 -1.62021 0
M  V30 3919 C 366.741 0.129292 -1.87655 0
M  V30 3920 O 366.099 1.08967 -1.449 0
M  V30 3921 C 366.147 -2.08702 -2.94068 0
M  V30 3922 O 365.251 -1.45359 -3.85933 0
M  V30 3923 H 364.592 -0.444881 -0.492927 0
M  V30 3924 H 367.122 -1.76882 -1.02829 0
M  V30 3925 H 367.132 -2.19898 -3.43669 0
M  V30 3926 H 365.807 -3.12241 -2.74734 0
M  V30 3927 H 364.384 -1.42879 -3.44442 0
M  V30 3928 N 366.569 1.04691 -1.17803 0
M  V30 3929 C 367.479 2.16057 -0.914151 0
M  V30 3930 C 368.495 1.73589 0.119503 0
M  V30 3931 O 369.671 2.01308 -0.0609468 0
M  V30 3932 C 366.736 3.4394 -0.436603 0
M  V30 3933 C 365.797 4.00825 -1.53746 0
M  V30 3934 C 365.03 5.22604 -1.0826 0
M  V30 3935 O 365.253 5.70367 0.0612244 0
M  V30 3936 O 364.187 5.7186 -1.87775 0
M  V30 3937 H 368.013 2.41169 -1.84584 0
M  V30 3938 H 365.598 1.1453 -0.959334 0
M  V30 3939 H 367.48 4.21024 -0.178057 0
M  V30 3940 H 366.155 3.20316 0.466869 0
M  V30 3941 H 365.062 3.25158 -1.84995 0
M  V30 3942 H 366.395 4.28778 -2.41683 0
M  V30 3943 N 368.047 0.979072 1.23499 0
M  V30 3944 C 369.01 0.523244 2.23147 0
M  V30 3945 C 370.01 -0.386406 1.56088 0
M  V30 3946 O 371.2 -0.180283 1.73265 0
M  V30 3947 C 368.332 -0.240739 3.40049 0
M  V30 3948 H 369.525 1.40432 2.64989 0
M  V30 3949 H 367.078 0.764824 1.36309 0
M  V30 3950 H 367.813 -1.13841 3.03662 0
M  V30 3951 H 367.598 0.412207 3.89927 0
M  V30 3952 H 369.088 -0.548297 4.13985 0
M  V30 3953 N 369.525 -1.3858 0.750561 0
M  V30 3954 C 370.774 -1.99424 0.302172 0
M  V30 3955 C 371.087 -1.60254 -1.12152 0
M  V30 3956 O 372.293 -2.14046 -1.67023 0
M  V30 3957 C 370.749 -3.56558 0.489307 0
M  V30 3958 C 370.357 -4.04682 1.92189 0
M  V30 3959 C 372.101 -4.24374 0.103478 0
M  V30 3960 C 370.008 -5.54446 2.05775 0
M  V30 3961 H 368.938 -0.746046 0.10923 0
M  V30 3962 H 371.589 -1.58383 0.92667 0
M  V30 3963 H 369.971 -3.95472 -0.204329 0
M  V30 3964 H 371.145 -3.77065 2.64875 0
M  V30 3965 H 369.46 -3.4958 2.26236 0
M  V30 3966 H 372.057 -5.34384 0.183787 0
M  V30 3967 H 372.4 -4.05468 -0.943481 0
M  V30 3968 H 372.933 -3.90688 0.748854 0
M  V30 3969 H 369.672 -5.78252 3.08714 0
M  V30 3970 H 369.192 -5.83816 1.37546 0
M  V30 3971 H 370.871 -6.20099 1.84626 0
M  V30 3972 N 371.003 -0.499398 -1.49478 0
M  V30 3973 C 371.966 0.268838 -2.27618 0
M  V30 3974 C 372.966 0.895383 -1.33565 0
M  V30 3975 O 374.156 0.760164 -1.56739 0
M  V30 3976 C 371.288 1.38559 -3.11471 0
M  V30 3977 H 372.481 -0.416812 -2.96989 0
M  V30 3978 H 370.034 -0.254313 -1.54217 0
M  V30 3979 H 370.769 2.10544 -2.46661 0
M  V30 3980 H 370.554 0.941797 -3.80621 0
M  V30 3981 H 372.044 1.92678 -3.70493 0
M  V30 3982 N 372.481 1.55866 -0.233164 0
M  V30 3983 C 373.73 1.97779 0.39579 0
M  V30 3984 C 374.043 1.12419 1.60066 0
M  V30 3985 O 375.249 1.44283 2.29988 0
M  V30 3986 C 373.705 3.5188 0.755556 0
M  V30 3987 C 373.313 4.45959 -0.427152 0
M  V30 3988 C 375.057 4.02479 1.34946 0
M  V30 3989 C 372.964 5.91383 -0.0443043 0
M  V30 3990 H 371.894 0.738592 0.15165 0
M  V30 3991 H 374.545 1.80486 -0.331212 0
M  V30 3992 H 372.927 3.64816 1.5403 0
M  V30 3993 H 374.101 4.44776 -1.20462 0
M  V30 3994 H 372.416 4.05765 -0.935068 0
M  V30 3995 H 375.013 5.08637 1.649 0
M  V30 3996 H 375.356 3.49014 2.26925 0
M  V30 3997 H 375.889 3.92813 0.62791 0
M  V30 3998 H 372.628 6.48857 -0.930874 0
M  V30 3999 H 372.148 5.95734 0.697238 0
M  V30 4000 H 373.827 6.45893 0.378334 0
M  V30 4001 N 373.959 -0.0401083 1.57549 0
M  V30 4002 C 374.891 -1.07149 2.02612 0
M  V30 4003 C 375.904 -1.33126 0.937085 0
M  V30 4004 O 377.093 -1.30808 1.21456 0
M  V30 4005 C 374.193 -2.41561 2.37701 0
M  V30 4006 C 373.366 -2.35096 3.68848 0
M  V30 4007 C 372.425 -3.51867 3.91249 0
M  V30 4008 O 371.451 -3.3186 4.62447 0
M  V30 4009 N 372.653 -4.73351 3.36035 0
M  V30 4010 H 375.418 -0.687485 2.91708 0
M  V30 4011 H 372.979 -0.228248 1.60283 0
M  V30 4012 H 374.971 -3.18379 2.49833 0
M  V30 4013 H 373.541 -2.71846 1.54332 0
M  V30 4014 H 372.761 -1.4345 3.67173 0
M  V30 4015 H 374.049 -2.27908 4.54901 0
M  V30 4016 H 373.447 -4.92507 2.78304 0
M  V30 4017 H 372.004 -5.47572 3.53565 0
M  V30 4018 N 375.437 -1.54477 -0.31217 0
M  V30 4019 C 376.662 -1.77526 -1.07235 0
M  V30 4020 C 377.087 -0.527775 -1.80544 0
M  V30 4021 O 376.445 0.52121 -1.73646 0
M  V30 4022 C 376.493 -2.97535 -2.03728 0
M  V30 4023 O 375.597 -2.69878 -3.11833 0
M  V30 4024 H 374.938 -0.58792 -0.30862 0
M  V30 4025 H 377.468 -2.01532 -0.352993 0
M  V30 4026 H 377.478 -3.25198 -2.46395 0
M  V30 4027 H 376.153 -3.87996 -1.49774 0
M  V30 4028 H 374.73 -2.53199 -2.7376 0
M  V30 4029 N 376.915 0.57481 -1.46744 0
M  V30 4030 C 377.825 1.711 -1.60505 0
M  V30 4031 C 378.841 1.67008 -0.488307 0
M  V30 4032 O 380.017 1.86774 -0.753495 0
M  V30 4033 C 377.082 3.07608 -1.59932 0
M  V30 4034 C 376.143 3.22904 -2.82898 0
M  V30 4035 C 375.376 4.529 -2.82343 0
M  V30 4036 O 375.599 5.37278 -1.91542 0
M  V30 4037 O 374.533 4.71611 -3.73987 0
M  V30 4038 H 378.359 1.62436 -2.56609 0
M  V30 4039 H 375.944 0.742779 -1.29627 0
M  V30 4040 H 377.826 3.88877 -1.62336 0
M  V30 4041 H 376.501 3.16692 -0.669898 0
M  V30 4042 H 375.408 2.41099 -2.86046 0
M  V30 4043 H 376.741 3.18715 -3.75076 0
M  V30 4044 N 378.394 1.34581 0.820102 0
M  V30 4045 C 379.304 1.28471 1.96297 0
M  V30 4046 C 380.32 0.191902 1.72939 0
M  V30 4047 O 381.496 0.418879 1.96996 0
M  V30 4048 C 378.561 1.04281 3.30645 0
M  V30 4049 C 377.622 2.22745 3.66992 0
M  V30 4050 C 376.855 1.997 4.9493 0
M  V30 4051 O 377.078 0.956656 5.6232 0
M  V30 4052 O 376.012 2.86723 5.2922 0
M  V30 4053 H 379.838 2.24624 2.04396 0
M  V30 4054 H 377.423 1.14816 0.955913 0
M  V30 4055 H 379.305 0.925841 4.11104 0
M  V30 4056 H 377.98 0.111697 3.23507 0
M  V30 4057 H 376.887 2.40003 2.86966 0
M  V30 4058 H 378.22 3.14257 3.78819 0
M  V30 4059 N 379.872 -1.04064 1.18357 0
M  V30 4060 C 381.118 -1.77528 0.980397 0
M  V30 4061 C 381.451 -1.87948 -0.48879 0
M  V30 4062 O 380.726 -1.3876 -1.36293 0
M  V30 4063 C 381.009 -3.20797 1.63588 0
M  V30 4064 C 380.862 -3.1832 3.17793 0
M  V30 4065 C 382.181 -4.18911 1.34914 0
M  V30 4066 H 379.3 -0.644443 0.357578 0
M  V30 4067 H 381.942 -1.2156 1.46024 0
M  V30 4068 H 380.092 -3.68586 1.22788 0
M  V30 4069 H 381.764 -2.78521 3.67728 0
M  V30 4070 H 380.007 -2.56351 3.49952 0
M  V30 4071 H 380.678 -4.19489 3.58794 0
M  V30 4072 H 383.154 -3.7967 1.70265 0
M  V30 4073 H 382.03 -5.17374 1.83346 0
M  V30 4074 H 382.291 -4.41262 0.272027 0
M  V30 4075 N 381.35 -0.985608 -1.22978 0
M  V30 4076 C 382.58 -0.674603 -1.95276 0
M  V30 4077 C 382.988 0.763483 -1.73111 0
M  V30 4078 O 382.331 1.52601 -1.02268 0
M  V30 4079 C 382.393 -0.891597 -3.48268 0
M  V30 4080 C 382.057 -2.31275 -3.94158 0
M  V30 4081 C 383.054 -3.29179 -4.02415 0
M  V30 4082 C 380.739 -2.64524 -4.27004 0
M  V30 4083 C 382.733 -4.58407 -4.42879 0
M  V30 4084 C 380.42 -3.93974 -4.67149 0
M  V30 4085 C 381.418 -4.90727 -4.75053 0
M  V30 4086 O 381.106 -6.17865 -5.14294 0
M  V30 4087 H 380.838 -0.249251 -0.628371 0
M  V30 4088 H 383.392 -1.32106 -1.5728 0
M  V30 4089 H 381.622 -0.187962 -3.86243 0
M  V30 4090 H 383.311 -0.576957 -4.01779 0
M  V30 4091 H 384.077 -3.04823 -3.77237 0
M  V30 4092 H 379.956 -1.89923 -4.2006 0
M  V30 4093 H 383.5 -5.33926 -4.48964 0
M  V30 4094 H 379.397 -4.18122 -4.91777 0
M  V30 4095 H 380.165 -6.21694 -5.32389 0
M  V30 4096 N 382.828 1.3818 -0.7579 0
M  V30 4097 C 383.738 2.3421 -0.135247 0
M  V30 4098 C 384.754 1.59487 0.695683 0
M  V30 4099 O 385.93 1.91657 0.618832 0
M  V30 4100 C 382.995 3.3862 0.744139 0
M  V30 4101 C 382.056 4.2918 -0.101658 0
M  V30 4102 C 381.289 5.28603 0.735851 0
M  V30 4103 O 381.512 5.35166 1.97366 0
M  V30 4104 O 380.446 6.01707 0.152372 0
M  V30 4105 H 384.272 2.8916 -0.928436 0
M  V30 4106 H 381.857 1.40101 -0.518855 0
M  V30 4107 H 383.739 4.02539 1.2466 0
M  V30 4108 H 382.414 2.86019 1.51575 0
M  V30 4109 H 381.321 3.68407 -0.650167 0
M  V30 4110 H 382.654 4.85048 -0.836024 0
M  V30 4111 N 384.306 0.507319 1.49211 0
M  V30 4112 C 385.722 0.163682 1.58758 0
M  V30 4113 C 385.922 -1.33208 1.51188 0
M  V30 4114 O 384.978 -2.10855 1.38911 0
M  V30 4115 C 386.291 0.746095 2.91297 0
M  V30 4116 C 387.839 0.712773 3.04776 0
M  V30 4117 C 388.314 1.27336 4.39943 0
M  V30 4118 N 389.805 1.23433 4.46451 0
M  V30 4119 C 390.54 1.63821 5.495 0
M  V30 4120 N 390.036 2.11832 6.5962 0
M  V30 4121 N 391.829 1.55198 5.4025 0
M  V30 4122 H 383.98 1.47972 1.52375 0
M  V30 4123 H 386.243 0.614147 0.722168 0
M  V30 4124 H 385.949 1.79534 3.02424 0
M  V30 4125 H 385.823 0.210137 3.76614 0
M  V30 4126 H 388.21 -0.327656 2.93275 0
M  V30 4127 H 388.291 1.28595 2.21127 0
M  V30 4128 H 387.935 2.3126 4.52196 0
M  V30 4129 H 387.865 0.676066 5.22242 0
M  V30 4130 H 390.356 0.882627 3.67448 0
M  V30 4131 H 390.669 2.40703 7.34358 0
M  V30 4132 H 389.014 2.1581 6.60644 0
M  V30 4133 H 392.205 1.17505 4.53112 0
M  V30 4134 H 392.378 1.86997 6.20432 0
M  V30 4135 N 385.784 -1.5574 0.241426 0
M  V30 4136 C 387.014 -2.02913 -0.38857 0
M  V30 4137 C 387.422 -1.12014 -1.52478 0
M  V30 4138 O 386.765 -0.125903 -1.83268 0
M  V30 4139 C 386.827 -3.4636 -0.963075 0
M  V30 4140 C 386.491 -4.56982 0.0401916 0
M  V30 4141 C 387.488 -5.12941 0.847766 0
M  V30 4142 C 385.173 -5.0203 0.164699 0
M  V30 4143 C 387.167 -6.12437 1.76636 0
M  V30 4144 C 384.854 -6.01358 1.0868 0
M  V30 4145 C 385.852 -6.5644 1.88616 0
M  V30 4146 O 385.54 -7.53831 2.79273 0
M  V30 4147 H 385.272 -0.668983 -0.0971452 0
M  V30 4148 H 387.826 -2.02198 0.361248 0
M  V30 4149 H 386.056 -3.44206 -1.76235 0
M  V30 4150 H 387.745 -3.77065 -1.50257 0
M  V30 4151 H 388.511 -4.78974 0.762133 0
M  V30 4152 H 384.39 -4.58824 -0.447411 0
M  V30 4153 H 387.934 -6.55355 2.39071 0
M  V30 4154 H 383.831 -6.34746 1.17338 0
M  V30 4155 H 384.599 -7.71428 2.73572 0
M  V30 4156 N 387.262 0.0317525 -1.57568 0
M  V30 4157 C 388.195 1.06621 -2.0176 0
M  V30 4158 C 389.173 1.35323 -0.901462 0
M  V30 4159 O 390.357 1.48025 -1.16708 0
M  V30 4160 C 387.484 2.40155 -2.38837 0
M  V30 4161 C 386.53 2.27327 -3.60867 0
M  V30 4162 S 387.363 1.62925 -5.10113 0
M  V30 4163 C 388.519 2.97955 -5.5043 0
M  V30 4164 H 388.752 0.689781 -2.89187 0
M  V30 4165 H 386.285 0.24164 -1.52497 0
M  V30 4166 H 388.243 3.1695 -2.6087 0
M  V30 4167 H 386.904 2.74946 -1.51867 0
M  V30 4168 H 386.097 3.25898 -3.84456 0
M  V30 4169 H 385.699 1.58675 -3.38671 0
M  V30 4170 H 387.991 3.94285 -5.5095 0
M  V30 4171 H 388.934 2.79102 -6.50775 0
M  V30 4172 H 389.342 3.00404 -4.77931 0
M  V30 4173 N 388.74 1.54641 0.303973 0
M  V30 4174 C 389.687 1.85386 1.37479 0
M  V30 4175 C 390.657 0.702528 1.50512 0
M  V30 4176 O 391.842 0.950867 1.65418 0
M  V30 4177 C 388.982 2.10413 2.73533 0
M  V30 4178 C 388.095 3.38049 2.68974 0
M  V30 4179 C 387.23 3.52934 3.97002 0
M  V30 4180 C 386.269 4.74373 3.86829 0
M  V30 4181 N 385.406 4.8608 5.06627 0
M  V30 4182 H 390.246 2.76732 1.1056 0
M  V30 4183 H 387.783 1.37034 0.534805 0
M  V30 4184 H 389.741 2.22919 3.52652 0
M  V30 4185 H 388.371 1.22338 2.98719 0
M  V30 4186 H 387.423 3.3418 1.81736 0
M  V30 4187 H 388.735 4.27288 2.57346 0
M  V30 4188 H 387.889 3.65088 4.84557 0
M  V30 4189 H 386.628 2.61824 4.1146 0
M  V30 4190 H 385.633 4.62255 2.97658 0
M  V30 4191 H 386.858 5.66888 3.73918 0
M  V30 4192 H 384.804 3.97891 5.21554 0
M  V30 4193 H 384.721 5.69315 4.9741 0
M  V30 4194 H 385.989 5.02587 5.95841 0
M  V30 4195 N 390.218 -0.567019 1.47046 0
M  V30 4196 C 391.448 -1.34831 1.56538 0
M  V30 4197 C 391.856 -1.8802 0.21101 0
M  V30 4198 O 391.199 -1.65152 -0.804387 0
M  V30 4199 C 391.261 -2.56139 2.52256 0
M  V30 4200 C 390.925 -2.24307 3.98165 0
M  V30 4201 C 391.922 -1.82192 4.86931 0
M  V30 4202 C 389.607 -2.35968 4.43423 0
M  V30 4203 C 391.601 -1.52153 6.18973 0
M  V30 4204 C 389.288 -2.05542 5.75496 0
M  V30 4205 C 390.286 -1.63701 6.63092 0
M  V30 4206 O 389.974 -1.33657 7.92711 0
M  V30 4207 H 389.706 -0.417683 0.531523 0
M  V30 4208 H 392.26 -0.694726 1.93294 0
M  V30 4209 H 390.49 -3.24356 2.10548 0
M  V30 4210 H 392.179 -3.18214 2.51982 0
M  V30 4211 H 392.945 -1.72684 4.53217 0
M  V30 4212 H 388.824 -2.67495 3.75456 0
M  V30 4213 H 392.368 -1.19421 6.87302 0
M  V30 4214 H 388.265 -2.14679 6.08755 0
M  V30 4215 H 389.033 -1.4737 8.05124 0
M  V30 4216 N 391.696 -1.35014 -0.812953 0
M  V30 4217 C 392.626 -1.30069 -1.93919 0
M  V30 4218 C 393.607 -0.176275 -1.69184 0
M  V30 4219 O 394.792 -0.370227 -1.90638 0
M  V30 4220 C 391.922 -1.06547 -3.30552 0
M  V30 4221 C 390.876 -2.15561 -3.69753 0
M  V30 4222 C 390.202 -1.77214 -5.04479 0
M  V30 4223 C 391.502 -3.57476 -3.808 0
M  V30 4224 H 393.196 -2.24303 -1.98314 0
M  V30 4225 H 390.742 -1.07977 -0.952736 0
M  V30 4226 H 392.695 -1.01729 -4.08937 0
M  V30 4227 H 391.419 -0.0875719 -3.26483 0
M  V30 4228 H 390.078 -2.19466 -2.9365 0
M  V30 4229 H 389.726 -0.780589 -4.96906 0
M  V30 4230 H 389.426 -2.50184 -5.31678 0
M  V30 4231 H 390.95 -1.7391 -5.8531 0
M  V30 4232 H 392.364 -3.55929 -4.4943 0
M  V30 4233 H 390.761 -4.29152 -4.19462 0
M  V30 4234 H 391.831 -3.94091 -2.82525 0
M  V30 4235 N 393.175 1.03435 -1.18907 0
M  V30 4236 C 394.403 1.80381 -1.01342 0
M  V30 4237 C 394.818 1.83649 0.438005 0
M  V30 4238 O 394.175 1.27655 1.30424 0
M  V30 4239 C 394.226 3.25689 -1.56873 0
M  V30 4240 O 393.947 3.22673 -2.96334 0
M  V30 4241 C 395.448 4.19255 -1.44014 0
M  V30 4242 H 392.668 0.56784 -0.35749 0
M  V30 4243 H 395.212 1.30317 -1.576 0
M  V30 4244 H 393.367 3.72962 -1.04777 0
M  V30 4245 H 393.781 4.13748 -3.22355 0
M  V30 4246 H 395.255 5.19123 -1.87657 0
M  V30 4247 H 395.732 4.37467 -0.389815 0
M  V30 4248 H 396.338 3.77851 -1.95214 0
M  V30 4249 N 394.653 0.992116 1.22453 0
M  V30 4250 C 395.901 0.666215 1.90804 0
M  V30 4251 C 396.222 -0.804152 1.77647 0
M  V30 4252 O 395.492 -1.57629 1.16318 0
M  V30 4253 H 394.072 0.243423 0.706225 0
M  V30 4254 H 396.734 1.25845 1.48825 0
M  V30 4255 H 395.83 0.928069 2.97982 0
M  V30 4256 N 396.131 -1.37776 0.765217 0
M  V30 4257 C 397.371 -2.01691 0.331669 0
M  V30 4258 C 397.735 -1.59432 -1.06983 0
M  V30 4259 O 398.936 -2.15761 -1.60314 0
M  V30 4260 C 397.207 -3.54385 0.463261 0
M  V30 4261 S 398.766 -4.38652 0.114011 0
M  V30 4262 H 395.584 -0.699387 0.127979 0
M  V30 4263 H 398.186 -1.68084 0.998396 0
M  V30 4264 H 396.89 -3.82629 1.48401 0
M  V30 4265 H 396.421 -3.92783 -0.220246 0
M  V30 4266 H 398.436 -4.84021 -1.09261 0
M  V30 4267 N 397.609 -0.515225 -1.4894 0
M  V30 4268 C 398.572 0.244681 -2.2789 0
M  V30 4269 C 399.572 0.881166 -1.34507 0
M  V30 4270 O 400.762 0.743497 -1.57537 0
M  V30 4271 C 397.894 1.35247 -3.12923 0
M  V30 4272 H 399.087 -0.448289 -2.96531 0
M  V30 4273 H 396.64 -0.270656 -1.53939 0
M  V30 4274 H 397.375 2.07916 -2.48881 0
M  V30 4275 H 397.16 0.901374 -3.81599 0
M  V30 4276 H 398.65 1.88737 -3.72516 0
M  V30 4277 N 399.087 1.5561 -0.249682 0
M  V30 4278 C 400.034 2.21496 0.648694 0
M  V30 4279 C 401.004 1.17977 1.16921 0
M  V30 4280 O 402.189 1.46434 1.22318 0
M  V30 4281 C 399.329 2.92039 1.83868 0
M  V30 4282 C 398.442 4.10219 1.35442 0
M  V30 4283 C 397.577 4.6847 2.50419 0
M  V30 4284 C 396.616 5.78893 1.98869 0
M  V30 4285 N 395.753 6.31315 3.07223 0
M  V30 4286 H 400.593 2.97892 0.0801582 0
M  V30 4287 H 398.13 1.47074 0.0278031 0
M  V30 4288 H 400.088 3.31138 2.53778 0
M  V30 4289 H 398.718 2.18111 2.37965 0
M  V30 4290 H 397.77 3.76413 0.54928 0
M  V30 4291 H 399.082 4.89927 0.936649 0
M  V30 4292 H 398.236 5.10158 3.28366 0
M  V30 4293 H 396.975 3.87984 2.95499 0
M  V30 4294 H 395.98 5.3668 1.19393 0
M  V30 4295 H 397.205 6.61232 1.54755 0
M  V30 4296 H 395.151 5.53733 3.51732 0
M  V30 4297 H 395.068 7.06224 2.69784 0
M  V30 4298 H 396.336 6.77662 3.8522 0
M  V30 4299 N 400.565 -0.0233959 1.57583 0
M  V30 4300 C 401.495 -1.02162 2.09965 0
M  V30 4301 C 402.476 -1.3735 1.00344 0
M  V30 4302 O 403.661 -1.46135 1.27899 0
M  V30 4303 C 400.791 -2.32081 2.58371 0
M  V30 4304 C 399.745 -2.1112 3.72307 0
M  V30 4305 C 399.071 -3.46848 4.06941 0
M  V30 4306 C 400.371 -1.49276 5.00514 0
M  V30 4307 H 402.065 -0.585557 2.93618 0
M  V30 4308 H 399.611 -0.280218 1.41247 0
M  V30 4309 H 401.564 -3.02249 2.93639 0
M  V30 4310 H 400.288 -2.77758 1.71808 0
M  V30 4311 H 398.947 -1.43384 3.37397 0
M  V30 4312 H 398.595 -3.90184 3.17436 0
M  V30 4313 H 398.295 -3.33646 4.83688 0
M  V30 4314 H 399.819 -4.18369 4.44747 0
M  V30 4315 H 401.233 -2.09368 5.33702 0
M  V30 4316 H 399.63 -1.46632 5.8191 0
M  V30 4317 H 400.7 -0.459217 4.82721 0
M  V30 4318 N 402.043 -1.548 -0.295768 0
M  V30 4319 C 403.29 -1.74329 -1.03032 0
M  V30 4320 C 403.618 -0.531915 -1.87085 0
M  V30 4321 O 402.873 0.486052 -1.89568 0
M  V30 4322 C 403.172 -2.98797 -1.961 0
M  V30 4323 C 402.838 -4.32356 -1.2798 0
M  V30 4324 C 401.5 -4.68661 -1.09135 0
M  V30 4325 C 403.852 -5.15128 -0.793243 0
M  V30 4326 C 401.18 -5.85312 -0.403269 0
M  V30 4327 C 403.532 -6.32488 -0.118854 0
M  V30 4328 C 402.196 -6.6745 0.0815043 0
M  V30 4329 H 401.466 -0.637916 -0.37702 0
M  V30 4330 H 404.113 -1.8906 -0.304696 0
M  V30 4331 H 402.418 -2.78869 -2.75207 0
M  V30 4332 H 404.115 -3.11102 -2.53015 0
M  V30 4333 H 400.705 -4.03808 -1.43655 0
M  V30 4334 H 404.889 -4.87575 -0.92653 0
M  V30 4335 H 400.145 -6.1094 -0.237098 0
M  V30 4336 H 404.319 -6.95892 0.266035 0
M  V30 4337 H 401.946 -7.57695 0.616685 0
M  V30 4338 N 403.521 0.559213 -1.47345 0
M  V30 4339 C 404.937 0.884943 -1.32819 0
M  V30 4340 C 405.137 1.98988 -0.317173 0
M  V30 4341 O 404.193 2.51031 0.272011 0
M  V30 4342 C 405.506 1.28007 -2.72093 0
M  V30 4343 C 407.054 1.39161 -2.80363 0
M  V30 4344 C 407.529 1.82031 -4.20272 0
M  V30 4345 N 409.02 1.89185 -4.22804 0
M  V30 4346 C 409.755 2.2368 -5.27973 0
M  V30 4347 N 409.251 2.56802 -6.43447 0
M  V30 4348 N 411.044 2.24436 -5.15349 0
M  V30 4349 H 403.195 -0.170304 -2.11716 0
M  V30 4350 H 405.458 -0.0135247 -0.947904 0
M  V30 4351 H 405.164 0.542027 -3.47498 0
M  V30 4352 H 405.038 2.23665 -3.03733 0
M  V30 4353 H 407.425 2.12048 -2.05231 0
M  V30 4354 H 407.506 0.41696 -2.52379 0
M  V30 4355 H 407.15 1.09715 -4.95908 0
M  V30 4356 H 407.08 2.80495 -4.45679 0
M  V30 4357 H 409.571 1.65982 -3.39497 0
M  V30 4358 H 409.884 2.82144 -7.19454 0
M  V30 4359 H 408.229 2.54387 -6.46771 0
M  V30 4360 H 411.42 1.97998 -4.24163 0
M  V30 4361 H 411.593 2.50989 -5.97418 0
M  V30 4362 N 404.999 1.35443 0.805782 0
M  V30 4363 C 406.245 1.28952 1.56522 0
M  V30 4364 C 406.578 -0.135597 1.93726 0
M  V30 4365 O 405.853 -1.08516 1.61414 0
M  V30 4366 C 406.136 2.19678 2.85331 0
M  V30 4367 C 405.989 3.7081 2.54598 0
M  V30 4368 C 407.308 2.09495 3.8704 0
M  V30 4369 H 404.427 0.469764 0.567883 0
M  V30 4370 H 407.069 1.65851 0.927001 0
M  V30 4371 H 405.219 1.8834 3.39795 0
M  V30 4372 H 406.891 4.12593 2.06312 0
M  V30 4373 H 405.134 3.91051 1.8778 0
M  V30 4374 H 405.805 4.29679 3.46525 0
M  V30 4375 H 408.281 2.37045 3.41978 0
M  V30 4376 H 407.157 2.75173 4.74943 0
M  V30 4377 H 407.418 1.07714 4.28777 0
M  V30 4378 N 406.477 -1.02803 1.19454 0
M  V30 4379 C 407.725 -1.75869 0.995722 0
M  V30 4380 C 408.046 -1.89138 -0.474543 0
M  V30 4381 O 407.316 -1.42558 -1.34366 0
M  V30 4382 H 405.896 -0.651511 0.365435 0
M  V30 4383 H 408.558 -1.24004 1.50363 0
M  V30 4384 H 407.654 -2.76661 1.44447 0
M  V30 4385 N 407.956 -0.998596 -1.21925 0
M  V30 4386 C 409.186 -0.695276 -1.94549 0
M  V30 4387 C 409.594 0.745079 -1.73911 0
M  V30 4388 O 408.937 1.51507 -1.03881 0
M  V30 4389 C 408.999 -0.928485 -3.47303 0
M  V30 4390 C 408.663 -2.35443 -3.91683 0
M  V30 4391 C 409.66 -3.33428 -3.98901 0
M  V30 4392 C 407.345 -2.69038 -4.24174 0
M  V30 4393 C 409.339 -4.63079 -4.37992 0
M  V30 4394 C 407.026 -3.98906 -4.62944 0
M  V30 4395 C 408.024 -4.95738 -4.69822 0
M  V30 4396 O 407.712 -6.23285 -5.07711 0
M  V30 4397 H 407.444 -0.255902 -0.625692 0
M  V30 4398 H 409.998 -1.33767 -1.5587 0
M  V30 4399 H 408.228 -0.228917 -3.86022 0
M  V30 4400 H 409.917 -0.619539 -4.01144 0
M  V30 4401 H 410.683 -3.08807 -3.73983 0
M  V30 4402 H 406.562 -1.94367 -4.18022 0
M  V30 4403 H 410.106 -5.38658 -4.43275 0
M  V30 4404 H 406.003 -4.23314 -4.87314 0
M  V30 4405 H 406.771 -6.27306 -5.25766 0
M  V30 4406 N 409.434 1.37368 -0.772513 0
M  V30 4407 C 410.683 1.98918 -0.333861 0
M  V30 4408 C 410.996 1.62017 1.09589 0
M  V30 4409 O 412.202 2.16676 1.63596 0
M  V30 4410 C 410.658 3.55735 -0.545971 0
M  V30 4411 C 410.266 4.01573 -1.98603 0
M  V30 4412 C 412.01 4.24156 -0.170979 0
M  V30 4413 C 409.917 5.51102 -2.1457 0
M  V30 4414 H 408.847 0.744214 -0.121085 0
M  V30 4415 H 411.498 1.56888 -0.95175 0
M  V30 4416 H 409.88 3.95748 0.141387 0
M  V30 4417 H 411.054 3.72803 -2.7084 0
M  V30 4418 H 409.369 3.45937 -2.31769 0
M  V30 4419 H 411.966 5.34024 -0.26878 0
M  V30 4420 H 412.309 4.06917 0.878855 0
M  V30 4421 H 412.842 3.89447 -0.810914 0
M  V30 4422 H 409.581 5.73268 -3.17875 0
M  V30 4423 H 409.101 5.81554 -1.46817 0
M  V30 4424 H 410.78 6.17083 -1.94468 0
M  V30 4425 N 410.912 0.523116 1.48665 0
M  V30 4426 C 412.189 -0.0775449 1.95446 0
M  V30 4427 C 412.569 -1.5197 1.4652 0
M  V30 4428 O 411.917 -2.17876 0.688657 0
M  V30 4429 C 412.127 0.0326135 3.48985 0
M  V30 4430 C 413.475 -0.130141 4.24401 0
M  V30 4431 O 414.499 -0.0415142 3.56176 0
M  V30 4432 O 413.358 -0.31491 5.45592 0
M  V30 4433 H 410.452 -0.0831012 0.822814 0
M  V30 4434 H 412.998 0.587227 1.59216 0
M  V30 4435 H 411.77 1.03748 3.77296 0
M  V30 4436 H 411.393 -0.671317 3.91892 0
M  V30 4437 N 412.39 -1.55475 0.257931 0
M  V30 4438 C 413.636 -1.99502 -0.364266 0
M  V30 4439 C 413.969 -1.146 -1.56782 0
M  V30 4440 O 413.244 -0.211968 -1.93342 0
M  V30 4441 C 413.527 -3.51917 -0.763333 0
M  V30 4442 C 413.38 -4.4758 0.446371 0
M  V30 4443 C 414.699 -4.09742 -1.60623 0
M  V30 4444 H 411.818 -0.725277 -0.130929 0
M  V30 4445 H 414.46 -1.8653 0.361446 0
M  V30 4446 H 412.61 -3.63101 -1.38166 0
M  V30 4447 H 414.282 -4.48362 1.08487 0
M  V30 4448 H 412.525 -4.19947 1.08753 0
M  V30 4449 H 413.196 -5.51862 0.123645 0
M  V30 4450 H 415.672 -4.01727 -1.08418 0
M  V30 4451 H 414.548 -5.16631 -1.85429 0
M  V30 4452 H 414.809 -3.58889 -2.58169 0
M  V30 4453 N 413.868 0.0150385 -1.57593 0
M  V30 4454 C 414.816 1.02958 -2.08572 0
M  V30 4455 C 415.81 1.36554 -1.00246 0
M  V30 4456 O 417.016 1.35295 -1.18724 0
M  V30 4457 H 413.391 0.349619 -0.665786 0
M  V30 4458 H 415.362 0.573932 -2.92829 0
M  V30 4459 C 414.111 2.31752 -2.59203 0
M  V30 4460 H 413.434 2.06765 -3.42182 0
M  V30 4461 H 414.874 3.01053 -2.98568 0
M  V30 4462 C 413.333 3.01692 -1.49945 0
M  V30 4463 O 413.863 3.92083 -0.873704 0
M  V30 4464 N 412.069 2.6326 -1.23056 0
M  V30 4465 H 411.616 1.89838 -1.74125 0
M  V30 4466 H 411.574 3.10372 -0.501685 0
M  V30 4467 N 415.346 1.54954 0.287554 0
M  V30 4468 C 416.278 1.83224 1.37701 0
M  V30 4469 C 417.291 0.715898 1.46215 0
M  V30 4470 O 418.48 0.993565 1.48292 0
M  V30 4471 C 415.58 1.96723 2.75959 0
M  V30 4472 C 414.753 3.27253 2.90215 0
M  V30 4473 C 413.812 3.30998 4.09056 0
M  V30 4474 O 412.838 4.04457 4.00503 0
M  V30 4475 N 414.04 2.57353 5.20336 0
M  V30 4476 H 416.805 2.77254 1.138 0
M  V30 4477 H 414.366 1.54694 0.477652 0
M  V30 4478 H 416.358 1.96615 3.5373 0
M  V30 4479 H 414.928 1.09626 2.92747 0
M  V30 4480 H 414.148 3.40022 1.99447 0
M  V30 4481 H 415.436 4.13365 2.96659 0
M  V30 4482 H 414.834 1.97327 5.30169 0
M  V30 4483 H 413.391 2.62984 5.96391 0
M  V30 4484 N 416.824 -0.551391 1.4764 0
M  V30 4485 C 418.071 -1.3083 1.54563 0
M  V30 4486 C 418.399 -1.93359 0.210361 0
M  V30 4487 O 417.654 -1.78721 -0.797332 0
M  V30 4488 C 417.953 -2.43469 2.61644 0
M  V30 4489 C 417.619 -1.98732 4.04742 0
M  V30 4490 C 416.281 -1.86248 4.43695 0
M  V30 4491 C 418.633 -1.64659 4.94507 0
M  V30 4492 C 415.961 -1.37995 5.70241 0
M  V30 4493 C 418.313 -1.17875 6.21521 0
M  V30 4494 C 416.977 -1.03992 6.5935 0
M  V30 4495 H 416.247 -0.478741 0.565587 0
M  V30 4496 H 418.894 -0.617697 1.81264 0
M  V30 4497 H 417.199 -3.18109 2.28722 0
M  V30 4498 H 418.896 -3.01642 2.64222 0
M  V30 4499 H 415.486 -2.09393 3.73968 0
M  V30 4500 H 419.67 -1.73174 4.65107 0
M  V30 4501 H 414.926 -1.25915 5.98294 0
M  V30 4502 H 419.1 -0.905739 6.90485 0
M  V30 4503 H 416.727 -0.663794 7.57296 0
M  V30 4504 N 418.302 -1.35869 -0.798587 0
M  V30 4505 C 419.53 -1.32722 -1.58722 0
M  V30 4506 C 419.945 0.0935631 -1.88568 0
M  V30 4507 O 419.302 1.04784 -1.49421 0
M  V30 4508 C 419.353 -2.13974 -2.91371 0
M  V30 4509 O 419.074 -3.50514 -2.62815 0
M  V30 4510 C 420.575 -2.18504 -3.85708 0
M  V30 4511 H 417.795 -0.45562 -0.492596 0
M  V30 4512 H 420.339 -1.78837 -0.991843 0
M  V30 4513 H 418.494 -1.71438 -3.47402 0
M  V30 4514 H 418.908 -3.92806 -3.47568 0
M  V30 4515 H 420.382 -2.79732 -4.75872 0
M  V30 4516 H 420.859 -1.18597 -4.22885 0
M  V30 4517 H 421.465 -2.61236 -3.35612 0
M  V30 4518 N 419.78 1.02168 -1.19998 0
M  V30 4519 C 420.71 2.12488 -0.96804 0
M  V30 4520 C 421.691 1.69799 0.101185 0
M  V30 4521 O 422.876 1.94121 -0.0552993 0
M  V30 4522 C 420.006 3.43479 -0.513776 0
M  V30 4523 C 418.96 3.99884 -1.52566 0
M  V30 4524 C 418.286 5.26582 -0.928214 0
M  V30 4525 C 419.586 4.33861 -2.90795 0
M  V30 4526 H 421.28 2.32149 -1.89069 0
M  V30 4527 H 418.826 1.11564 -0.910468 0
M  V30 4528 H 420.779 4.20036 -0.338774 0
M  V30 4529 H 419.503 3.23561 0.444493 0
M  V30 4530 H 418.162 3.25429 -1.68794 0
M  V30 4531 H 417.81 5.02986 0.0378289 0
M  V30 4532 H 417.51 5.65284 -1.60397 0
M  V30 4533 H 419.034 6.05799 -0.764167 0
M  V30 4534 H 420.448 5.01327 -2.78109 0
M  V30 4535 H 418.845 4.83664 -3.55231 0
M  V30 4536 H 419.915 3.42848 -3.42904 0
M  V30 4537 N 421.258 1.00505 1.21394 0
M  V30 4538 C 422.221 0.570459 2.21987 0
M  V30 4539 C 423.221 -0.353211 1.56873 0
M  V30 4540 O 424.411 -0.14349 1.73608 0
M  V30 4541 C 421.543 -0.168555 3.40483 0
M  V30 4542 H 422.736 1.46021 2.6195 0
M  V30 4543 H 420.289 0.793565 1.34656 0
M  V30 4544 H 421.024 -1.07374 3.06009 0
M  V30 4545 H 420.809 0.494823 3.88965 0
M  V30 4546 H 422.299 -0.460362 4.15055 0
M  V30 4547 N 422.737 -1.36956 0.779787 0
M  V30 4548 C 423.684 -2.30175 0.169697 0
M  V30 4549 C 424.654 -1.51501 -0.68094 0
M  V30 4550 O 425.839 -1.80042 -0.631629 0
M  V30 4551 C 422.979 -3.37985 -0.697131 0
M  V30 4552 C 422.092 -4.31661 0.170992 0
M  V30 4553 C 421.227 -5.2655 -0.701298 0
M  V30 4554 C 420.266 -6.11867 0.168869 0
M  V30 4555 N 419.403 -6.98973 -0.661855 0
M  V30 4556 H 424.243 -2.81767 0.970135 0
M  V30 4557 H 421.78 -1.38699 0.489994 0
M  V30 4558 H 423.738 -3.99128 -1.2146 0
M  V30 4559 H 422.368 -2.87739 -1.46309 0
M  V30 4560 H 421.42 -3.71756 0.80634 0
M  V30 4561 H 422.732 -4.91644 0.841875 0
M  V30 4562 H 421.886 -5.92937 -1.28494 0
M  V30 4563 H 420.625 -4.66998 -1.40584 0
M  V30 4564 H 419.63 -5.44452 0.764986 0
M  V30 4565 H 420.855 -6.73493 0.870863 0
M  V30 4566 H 418.801 -6.41941 -1.35086 0
M  V30 4567 H 418.718 -7.55984 -0.0484447 0
M  V30 4568 H 419.986 -7.6974 -1.22963 0
M  V30 4569 O 424.254 -0.672348 -1.46839 0
M  V30 4570 H 424.945 -0.203759 -1.92625 0
M  V30 END ATOM
M  V30 BEGIN BOND
M  V30 END BOND
M  V30 END CTAB
M  END
$$$$
