drugbank_target|Q79FX8 Hydroxymycolate synthase MmaA4 (DB07413)
 OpenBabel12092120423D

  0  0  0     0  0            999 V3000
M  V30 BEGIN CTAB
M  V30 COUNTS 4809 4868 0 0 0
M  V30 BEGIN ATOM
M  V30 1 H -0.908 1.98254 -0.117106 0
M  V30 2 N 0 1.576 0 0
M  V30 3 C 0.933 2.03868 1.02534 0
M  V30 4 C 1.911 0.928543 1.3348 0
M  V30 5 O 3.095 1.19667 1.45644 0
M  V30 6 C 0.222 2.43627 2.35294 0
M  V30 7 C -0.732 3.65373 2.2001 0
M  V30 8 S 0.101 5.13292 1.52614 0
M  V30 9 C 1.257 5.56322 2.86805 0
M  V30 10 H 1.49 2.90518 0.631377 0
M  V30 11 H -0.977 1.52953 0.210867 0
M  V30 12 H 0.981 2.67203 3.11629 0
M  V30 13 H -0.358 1.57376 2.7183 0
M  V30 14 H -1.165 3.90944 3.18086 0
M  V30 15 H -1.563 3.418 1.51819 0
M  V30 16 H 0.729 5.58782 3.83104 0
M  V30 17 H 1.672 6.56266 2.65933 0
M  V30 18 H 2.08 4.83886 2.90714 0
M  V30 19 N 1.4781 -0.272755 1.55222 0
M  V30 20 C 2.7061 -1.02255 1.79865 0
M  V30 21 C 3.1211 -1.79924 0.572088 0
M  V30 22 O 2.4781 -1.76638 -0.458842 0
M  V30 23 C 2.5291 -1.98094 3.02392 0
M  V30 24 O 2.2501 -1.23572 4.20311 0
M  V30 25 C 3.7511 -2.84884 3.39641 0
M  V30 26 H 0.9711 -0.302057 0.599168 0
M  V30 27 H 3.5151 -0.303465 2.02236 0
M  V30 28 H 1.6701 -2.65465 2.82147 0
M  V30 29 H 2.0841 -1.88172 4.89583 0
M  V30 30 H 3.5581 -3.47927 4.28545 0
M  V30 31 H 4.0351 -3.54665 2.59055 0
M  V30 32 H 4.6411 -2.23003 3.62146 0
M  V30 33 N 2.9562 -1.48159 -0.537278 0
M  V30 34 C 4.3722 -1.34118 -0.865129 0
M  V30 35 C 4.5722 -0.346678 -1.98495 0
M  V30 36 O 3.6282 0.234715 -2.51407 0
M  V30 37 C 4.9412 -2.73963 -1.23954 0
M  V30 38 C 6.4892 -2.82397 -1.34984 0
M  V30 39 C 6.9642 -4.22928 -1.75772 0
M  V30 40 N 8.4552 -4.25566 -1.82887 0
M  V30 41 C 9.1902 -5.31235 -2.15817 0
M  V30 42 N 8.6862 -6.47189 -2.47222 0
M  V30 43 N 10.4792 -5.18624 -2.16761 0
M  V30 44 H 2.6302 -2.1144 0.201715 0
M  V30 45 H 4.8932 -0.947598 0.0275949 0
M  V30 46 H 4.5992 -3.48264 -0.490381 0
M  V30 47 H 4.4732 -3.0702 -2.19132 0
M  V30 48 H 6.8602 -2.08356 -2.08978 0
M  V30 49 H 6.9412 -2.5297 -0.379448 0
M  V30 50 H 6.5852 -4.97482 -1.02341 0
M  V30 51 H 6.5152 -4.49794 -2.73848 0
M  V30 52 H 9.0062 -3.41924 -1.60924 0
M  V30 53 H 9.3192 -7.23564 -2.71433 0
M  V30 54 H 7.6642 -6.50476 -2.44757 0
M  V30 55 H 10.8552 -4.27056 -1.91679 0
M  V30 56 H 11.0282 -6.01078 -2.42093 0
M  V30 57 N 4.4343 0.785586 -1.36625 0
M  V30 58 C 5.3673 1.90509 -1.25625 0
M  V30 59 C 6.3453 1.62 -0.139607 0
M  V30 60 O 7.5293 1.8591 -0.31141 0
M  V30 61 C 4.6563 3.25419 -0.939158 0
M  V30 62 C 3.7023 3.72856 -2.07077 0
M  V30 63 S 4.5353 3.88162 -3.68904 0
M  V30 64 C 5.6913 5.25942 -3.39317 0
M  V30 65 H 5.9243 1.99549 -2.20381 0
M  V30 66 H 3.4573 0.945226 -1.22085 0
M  V30 67 H 5.4153 4.03346 -0.763029 0
M  V30 68 H 4.0763 3.14099 -0.00931402 0
M  V30 69 H 3.2693 4.70624 -1.80357 0
M  V30 70 H 2.8713 3.01989 -2.20632 0
M  V30 71 H 5.1633 6.10651 -2.93447 0
M  V30 72 H 6.1063 5.57668 -4.36363 0
M  V30 73 H 6.5143 4.93224 -2.74573 0
M  V30 74 N 5.9124 1.20967 1.01018 0
M  V30 75 C 6.8754 0.965918 2.07853 0
M  V30 76 C 7.8754 -0.0610545 1.60684 0
M  V30 77 O 9.0654 0.175681 1.73312 0
M  V30 78 C 6.1974 0.455513 3.37843 0
M  V30 79 H 7.3904 1.91365 2.3091 0
M  V30 80 H 4.9434 1.02594 1.17916 0
M  V30 81 H 5.6784 -0.497381 3.20463 0
M  V30 82 H 5.4634 1.19622 3.73407 0
M  V30 83 H 6.9534 0.304667 4.16487 0
M  V30 84 N 7.3905 -1.2043 1.01659 0
M  V30 85 C 8.3005 -2.2689 0.596484 0
M  V30 86 C 9.3165 -1.70107 -0.36599 0
M  V30 87 O 10.4925 -2.00117 -0.226942 0
M  V30 88 C 7.5575 -3.4665 -0.0586659 0
M  V30 89 C 6.6185 -4.18662 0.949751 0
M  V30 90 C 5.8515 -5.32705 0.32577 0
M  V30 91 O 6.0745 -5.63656 -0.874509 0
M  V30 92 O 5.0085 -5.92803 1.04249 0
M  V30 93 H 8.8345 -2.65041 1.4828 0
M  V30 94 H 6.4195 -1.27048 0.786082 0
M  V30 95 H 8.3015 -4.19256 -0.424564 0
M  V30 96 H 6.9765 -3.10375 -0.91918 0
M  V30 97 H 5.8835 -3.48229 1.36702 0
M  V30 98 H 7.2165 -4.58878 1.78023 0
M  V30 99 N 8.8686 -0.792821 -1.36206 0
M  V30 100 C 9.8156 -0.191653 -2.30003 0
M  V30 101 C 10.7856 0.666453 -1.52143 0
M  V30 102 O 11.9706 0.61442 -1.80636 0
M  V30 103 C 9.1106 0.664848 -3.38635 0
M  V30 104 C 8.2236 -0.212175 -4.31479 0
M  V30 105 C 7.3586 0.651022 -5.27196 0
M  V30 106 C 6.3976 -0.227247 -6.11678 0
M  V30 107 N 5.5346 0.595127 -6.99573 0
M  V30 108 H 10.3746 -0.996978 -2.80828 0
M  V30 109 H 7.9116 -0.503206 -1.38225 0
M  V30 110 H 9.8696 1.17645 -4.00269 0
M  V30 111 H 8.4996 1.43557 -2.89122 0
M  V30 112 H 7.5516 -0.841777 -3.70969 0
M  V30 113 H 8.8636 -0.888751 -4.90818 0
M  V30 114 H 8.0176 1.2283 -5.94136 0
M  V30 115 H 6.7566 1.36121 -4.68319 0
M  V30 116 H 5.7616 -0.816904 -5.43697 0
M  V30 117 H 6.9866 -0.93509 -6.72631 0
M  V30 118 H 4.9326 1.28955 -6.432 0
M  V30 119 H 4.8496 -0.0236952 -7.55996 0
M  V30 120 H 6.1176 1.15613 -7.70879 0
M  V30 121 N 10.3467 1.47872 -0.545128 0
M  V30 122 C 11.7577 1.86384 -0.108581 0
M  V30 123 C 12.1087 1.45309 1.31832 0
M  V30 124 O 11.2337 0.850641 1.9898 0
M  V30 125 C 11.8287 3.38265 -0.190274 0
M  V30 126 C 10.3877 3.75914 0.191164 0
M  V30 127 C 9.5347 2.71926 -0.543273 0
M  V30 128 H 12.4857 1.39561 -0.755537 0
M  V30 129 H 12.5067 3.75831 0.594217 0
M  V30 130 H 12.0187 3.6813 -1.2289 0
M  V30 131 H 10.1197 3.51665 1.23136 0
M  V30 132 H 10.2327 4.78836 -0.158987 0
M  V30 133 H 8.5967 2.54697 0.0122495 0
M  V30 134 H 9.3797 3.04634 -1.58282 0
M  V30 135 N 11.8248 0.280983 1.55075 0
M  V30 136 C 13.0738 -0.334784 1.98902 0
M  V30 137 C 13.3868 -1.56534 1.17288 0
M  V30 138 O 14.5928 -2.25443 1.51287 0
M  V30 139 C 13.0488 -0.646994 3.54037 0
M  V30 140 C 12.6568 0.564085 4.44435 0
M  V30 141 C 14.4008 -1.22506 4.06439 0
M  V30 142 C 12.3078 0.226137 5.90967 0
M  V30 143 H 11.2378 -0.128866 0.742906 0
M  V30 144 H 13.8888 0.386556 1.79382 0
M  V30 145 H 12.2708 -1.42739 3.6938 0
M  V30 146 H 13.4448 1.34082 4.40861 0
M  V30 147 H 11.7598 1.0594 4.02698 0
M  V30 148 H 14.3568 -1.49182 5.13468 0
M  V30 149 H 14.6998 -2.16085 3.55827 0
M  V30 150 H 15.2328 -0.50682 3.94558 0
M  V30 151 H 11.9718 1.12996 6.45687 0
M  V30 152 H 11.4918 -0.513717 5.97596 0
M  V30 153 H 13.1708 -0.179539 6.46751 0
M  V30 154 N 13.3029 -1.57598 0.00835791 0
M  V30 155 C 14.5279 -1.95617 -0.689103 0
M  V30 156 C 14.9529 -0.883753 -1.66046 0
M  V30 157 O 14.3109 0.157352 -1.80616 0
M  V30 158 C 14.3589 -3.32736 -1.38994 0
M  V30 159 O 13.4629 -3.27631 -2.50463 0
M  V30 160 H 12.8039 -0.638379 -0.182668 0
M  V30 161 H 15.3339 -2.045 0.064036 0
M  V30 162 H 15.3439 -3.68494 -1.75147 0
M  V30 163 H 14.0189 -4.1034 -0.677778 0
M  V30 164 H 12.5959 -3.03561 -2.16576 0
M  V30 165 N 14.781 0.264519 -1.55364 0
M  V30 166 C 16.192 0.834936 -1.6699 0
M  V30 167 C 16.543 1.86718 -0.602552 0
M  V30 168 O 15.668 2.14899 0.254425 0
M  V30 169 C 16.263 1.5212 -3.02729 0
M  V30 170 C 14.822 2.03954 -3.16354 0
M  V30 171 C 13.969 0.884498 -2.62815 0
M  V30 172 H 16.92 0.0406869 -1.58648 0
M  V30 173 H 16.941 2.38853 -2.96191 0
M  V30 174 H 16.453 0.769668 -3.80392 0
M  V30 175 H 14.554 2.82041 -2.43482 0
M  V30 176 H 14.667 2.24902 -4.23032 0
M  V30 177 H 13.031 1.2802 -2.20188 0
M  V30 178 H 13.814 0.14634 -3.42988 0
M  V30 179 N 16.2591 1.48442 0.529413 0
M  V30 180 C 17.4871 1.60151 1.30994 0
M  V30 181 C 17.9021 0.261985 1.86973 0
M  V30 182 O 17.2591 -0.748805 1.66431 0
M  V30 183 C 17.3101 2.64854 2.46038 0
M  V30 184 O 17.0311 3.93608 1.92365 0
M  V30 185 C 18.5321 2.87007 3.37849 0
M  V30 186 H 15.7521 0.539971 0.398338 0
M  V30 187 H 18.2961 1.94273 0.638597 0
M  V30 188 H 16.4511 2.33589 3.09055 0
M  V30 189 H 16.8651 4.51055 2.67675 0
M  V30 190 H 18.3391 3.64068 4.14919 0
M  V30 191 H 18.8161 1.95852 3.93114 0
M  V30 192 H 19.4221 3.19579 2.80623 0
M  V30 193 N 17.7372 -0.778329 1.37039 0
M  V30 194 C 18.6842 -1.89139 1.32269 0
M  V30 195 C 19.6542 -1.65017 0.189387 0
M  V30 196 O 20.8392 -1.87024 0.377693 0
M  V30 197 C 17.9792 -3.26112 1.12894 0
M  V30 198 C 17.0922 -3.62233 2.35396 0
M  V30 199 C 16.2272 -4.8838 2.08946 0
M  V30 200 C 15.2662 -5.17212 3.2735 0
M  V30 201 N 14.4032 -6.34546 3.00492 0
M  V30 202 H 19.2432 -1.92552 2.27437 0
M  V30 203 H 16.7802 -0.941473 1.13025 0
M  V30 204 H 18.7382 -4.05116 0.996835 0
M  V30 205 H 17.3682 -3.22091 0.213758 0
M  V30 206 H 16.4202 -2.78265 2.5937 0
M  V30 207 H 17.7322 -3.79481 3.23721 0
M  V30 208 H 16.8862 -5.75274 1.92729 0
M  V30 209 H 15.6252 -4.73222 1.17949 0
M  V30 210 H 14.6302 -4.28796 3.44113 0
M  V30 211 H 15.8552 -5.34283 4.19188 0
M  V30 212 H 13.8012 -6.20759 2.12118 0
M  V30 213 H 13.7182 -6.52179 3.82358 0
M  V30 214 H 14.9862 -7.24394 2.87879 0
M  V30 215 N 19.2153 -1.21501 -1.00376 0
M  V30 216 C 20.4433 -1.059 -1.77744 0
M  V30 217 C 20.8583 0.391125 -1.84704 0
M  V30 218 O 20.2153 1.27133 -1.30933 0
M  V30 219 C 20.2663 -1.65111 -3.21591 0
M  V30 220 O 19.9873 -3.0445 -3.15027 0
M  V30 221 C 21.4883 -1.54637 -4.15454 0
M  V30 222 H 18.7083 -0.371825 -0.558558 0
M  V30 223 H 21.2523 -1.60865 -1.26264 0
M  V30 224 H 19.4073 -1.14235 -3.70175 0
M  V30 225 H 19.8213 -3.3278 -4.0541 0
M  V30 226 H 21.2953 -2.00808 -5.14179 0
M  V30 227 H 21.7723 -0.501022 -4.36333 0
M  V30 228 H 22.3783 -2.04767 -3.72761 0
M  V30 229 N 20.6934 1.19889 -1.02296 0
M  V30 230 C 22.1094 1.41462 -0.738954 0
M  V30 231 C 22.3094 1.89721 0.678846 0
M  V30 232 O 21.3654 2.07016 1.4457 0
M  V30 233 C 22.6784 2.43083 -1.77005 0
M  V30 234 C 24.2264 2.5684 -1.78892 0
M  V30 235 C 24.7014 3.61709 -2.80945 0
M  V30 236 N 26.1924 3.69199 -2.79725 0
M  V30 237 C 26.9274 4.50019 -3.55345 0
M  V30 238 N 26.4234 5.34592 -4.40662 0
M  V30 239 N 28.2164 4.44612 -3.43914 0
M  V30 240 H 20.3674 0.868827 -1.93817 0
M  V30 241 H 22.6304 0.44399 -0.837602 0
M  V30 242 H 22.3364 2.14636 -2.78612 0
M  V30 243 H 22.2104 3.4217 -1.58744 0
M  V30 244 H 24.5974 2.84614 -0.779674 0
M  V30 245 H 24.6784 1.57927 -2.01228 0
M  V30 246 H 24.3224 3.34678 -3.82038 0
M  V30 247 H 24.2524 4.60259 -2.5587 0
M  V30 248 H 26.7434 3.08794 -2.17842 0
M  V30 249 H 27.0564 5.93363 -4.95116 0
M  V30 250 H 25.4014 5.34073 -4.44737 0
M  V30 251 H 28.5924 3.7758 -2.76679 0
M  V30 252 H 28.7654 5.0736 -4.031 0
M  V30 253 N 22.1715 0.800033 1.35784 0
M  V30 254 C 23.3995 0.389606 2.03199 0
M  V30 255 C 23.8145 -0.997375 1.60306 0
M  V30 256 O 23.1715 -1.64154 0.797481 0
M  V30 257 C 23.2225 0.455855 3.58614 0
M  V30 258 O 22.9435 1.78815 3.99946 0
M  V30 259 C 24.4445 0.0374032 4.43284 0
M  V30 260 H 21.6645 0.159132 0.651857 0
M  V30 261 H 24.2085 1.08183 1.73541 0
M  V30 262 H 22.3635 -0.188057 3.86943 0
M  V30 263 H 22.7775 1.74636 4.94573 0
M  V30 264 H 24.2515 0.134882 5.51835 0
M  V30 265 H 24.7285 -1.01651 4.27275 0
M  V30 266 H 25.3345 0.654215 4.20238 0
M  V30 267 N 23.6496 -1.47581 0.552962 0
M  V30 268 C 25.0656 -1.5818 0.212424 0
M  V30 269 C 25.2656 -1.55213 -1.28496 0
M  V30 270 O 24.3216 -1.45329 -2.06484 0
M  V30 271 C 25.6346 -2.88865 0.835318 0
M  V30 272 C 27.1826 -3.0244 0.806156 0
M  V30 273 C 27.6576 -4.35819 1.40804 0
M  V30 274 N 29.1486 -4.42444 1.37103 0
M  V30 275 C 29.8836 -5.44202 1.80641 0
M  V30 276 N 29.3796 -6.52795 2.32015 0
M  V30 277 N 31.1726 -5.35222 1.71738 0
M  V30 278 H 23.3236 -1.47753 1.52587 0
M  V30 279 H 25.5866 -0.702941 0.636064 0
M  V30 280 H 25.2926 -2.9676 1.88749 0
M  V30 281 H 25.1666 -3.7579 0.325848 0
M  V30 282 H 27.5536 -2.94144 -0.237317 0
M  V30 283 H 27.6346 -2.17068 1.35334 0
M  V30 284 H 27.2786 -4.44871 2.45056 0
M  V30 285 H 27.2086 -5.19916 0.836338 0
M  V30 286 H 29.6996 -3.6456 0.995202 0
M  V30 287 H 30.0126 -7.26609 2.63171 0
M  V30 288 H 28.3576 -6.53696 2.36023 0
M  V30 289 H 31.5486 -4.49284 1.31382 0
M  V30 290 H 31.7216 -6.14389 2.05987 0
M  V30 291 N 25.1277 -0.289203 -1.54924 0
M  V30 292 C 26.3747 0.323519 -1.99899 0
M  V30 293 C 26.7027 1.54797 -1.17762 0
M  V30 294 O 25.9577 1.94237 -0.238835 0
M  V30 295 C 26.2567 0.736119 -3.49737 0
M  V30 296 C 25.9227 -0.385276 -4.49251 0
M  V30 297 C 24.5847 -0.693156 -4.76181 0
M  V30 298 C 26.9367 -1.14021 -5.08575 0
M  V30 299 C 24.2647 -1.7593 -5.59701 0
M  V30 300 C 26.6167 -2.19619 -5.93254 0
M  V30 301 C 25.2807 -2.51026 -6.185 0
M  V30 302 H 24.5507 0.118384 -0.731482 0
M  V30 303 H 27.1977 -0.405847 -1.8715 0
M  V30 304 H 25.5027 1.54539 -3.60035 0
M  V30 305 H 27.1997 1.22118 -3.81953 0
M  V30 306 H 23.7897 -0.135202 -4.28387 0
M  V30 307 H 27.9737 -0.915611 -4.87781 0
M  V30 308 H 23.2297 -2.0075 -5.77503 0
M  V30 309 H 27.4037 -2.78581 -6.38252 0
M  V30 310 H 25.0307 -3.33772 -6.83008 0
M  V30 311 N 26.6058 1.57591 -0.0167156 0
M  V30 312 C 27.5158 2.1291 0.98521 0
M  V30 313 C 28.5318 1.07834 1.36557 0
M  V30 314 O 29.7078 1.39826 1.44951 0
M  V30 315 C 26.7728 2.63512 2.25305 0
M  V30 316 C 25.8338 3.83256 1.93426 0
M  V30 317 C 25.0668 4.31435 3.14165 0
M  V30 318 O 25.2898 3.78851 4.26413 0
M  V30 319 O 24.2238 5.23416 2.97186 0
M  V30 320 H 28.0498 2.98772 0.544888 0
M  V30 321 H 25.6348 1.48012 0.203141 0
M  V30 322 H 27.5168 2.96183 2.99756 0
M  V30 323 H 26.1918 1.8074 2.68542 0
M  V30 324 H 25.0988 3.55531 1.16398 0
M  V30 325 H 26.4318 4.67153 1.55013 0
M  V30 326 N 28.0839 -0.256276 1.55502 0
M  V30 327 C 29.3609 -1.00789 1.67633 0
M  V30 328 C 29.7409 -2.03706 0.553826 0
M  V30 329 O 29.0889 -2.24145 -0.443969 0
M  V30 330 C 29.2989 -1.64968 3.07549 0
M  V30 331 C 30.6469 -2.15505 3.65845 0
M  V30 332 O 31.6709 -1.74925 3.1029 0
M  V30 333 O 30.5299 -2.89986 4.63217 0
M  V30 334 H 27.6239 -0.468553 0.681459 0
M  V30 335 H 30.1699 -0.250806 1.67836 0
M  V30 336 H 28.9419 -0.904785 3.80696 0
M  V30 337 H 28.5649 -2.47321 3.11317 0
M  V30 338 N 29.562 -1.4872 -0.521534 0
M  V30 339 C 30.811 -1.56419 -1.27341 0
M  V30 340 C 31.124 -0.246805 -1.94037 0
M  V30 341 O 32.33 -0.202122 -2.70747 0
M  V30 342 C 30.786 -2.75896 -2.31105 0
M  V30 343 C 30.394 -4.14311 -1.70441 0
M  V30 344 C 32.138 -2.92913 -3.07249 0
M  V30 345 C 30.045 -5.25038 -2.72194 0
M  V30 346 H 28.975 -0.582344 -0.478949 0
M  V30 347 H 31.626 -1.75071 -0.549779 0
M  V30 348 H 30.008 -2.50697 -3.06541 0
M  V30 349 H 31.182 -4.49564 -1.01136 0
M  V30 350 H 29.497 -4.02482 -1.06759 0
M  V30 351 H 32.094 -3.72805 -3.83302 0
M  V30 352 H 32.437 -2.02689 -3.63625 0
M  V30 353 H 32.97 -3.18054 -2.38928 0
M  V30 354 H 29.709 -6.17255 -2.20627 0
M  V30 355 H 29.229 -4.94263 -3.39801 0
M  V30 356 H 30.908 -5.53508 -3.35019 0
M  V30 357 N 31.0401 0.771051 -1.3745 0
M  V30 358 C 31.9721 1.89352 -1.29146 0
M  V30 359 C 32.9851 1.61477 -0.207124 0
M  V30 360 O 34.1741 1.72382 -0.463324 0
M  V30 361 C 31.2741 3.24596 -0.974195 0
M  V30 362 C 30.4471 3.80111 -2.16413 0
M  V30 363 C 29.5061 4.93832 -1.81703 0
M  V30 364 O 28.5321 5.09382 -2.54006 0
M  V30 365 N 29.7341 5.75483 -0.761573 0
M  V30 366 H 32.4991 1.96991 -2.25864 0
M  V30 367 H 30.0601 0.950191 -1.31084 0
M  V30 368 H 32.0521 3.98193 -0.722828 0
M  V30 369 H 30.6221 3.12454 -0.0955527 0
M  V30 370 H 29.8421 2.98284 -2.57721 0
M  V30 371 H 31.1301 4.13932 -2.95867 0
M  V30 372 H 30.5281 5.65469 -0.161609 0
M  V30 373 H 29.0851 6.49302 -0.570064 0
M  V30 374 N 32.5182 1.22032 0.997298 0
M  V30 375 C 33.4812 0.987909 2.06816 0
M  V30 376 C 34.4812 -0.0440084 1.6074 0
M  V30 377 O 35.6712 0.194053 1.73116 0
M  V30 378 C 32.8032 0.49132 3.37341 0
M  V30 379 H 33.9962 1.93803 2.28868 0
M  V30 380 H 31.5492 1.03838 1.16822 0
M  V30 381 H 32.2842 -0.463364 3.20973 0
M  V30 382 H 32.0692 1.23575 3.72118 0
M  V30 383 H 33.5592 0.348824 4.16141 0
M  V30 384 N 33.9963 -1.19345 1.0293 0
M  V30 385 C 34.9463 -2.20472 0.58104 0
M  V30 386 C 35.9303 -1.56578 -0.370442 0
M  V30 387 O 37.1223 -1.75963 -0.191344 0
M  V30 388 C 34.2513 -3.43236 -0.066306 0
M  V30 389 C 33.3373 -4.14274 0.907642 0
M  V30 390 N 33.7283 -4.61492 2.07023 0
M  V30 391 C 32.0263 -4.39966 0.731177 0
M  V30 392 C 32.7273 -5.1605 2.68454 0
M  V30 393 N 31.7033 -5.06875 1.96414 0
M  V30 394 H 35.5053 -2.54659 1.46717 0
M  V30 395 H 33.0193 -1.35423 0.896345 0
M  V30 396 H 35.0163 -4.14927 -0.405068 0
M  V30 397 H 33.6763 -3.10549 -0.948118 0
M  V30 398 H 34.6873 -4.56304 2.44963 0
M  V30 399 H 31.3643 -4.17377 -0.101507 0
M  V30 400 H 32.7543 -5.6287 3.66915 0
M  V30 401 N 35.4744 -0.807222 -1.35358 0
M  V30 402 C 36.7044 -0.399796 -2.02695 0
M  V30 403 C 37.1124 0.994176 -1.60974 0
M  V30 404 O 36.4554 1.65209 -0.803226 0
M  V30 405 C 36.5174 -0.404445 -3.57218 0
M  V30 406 C 36.1814 -1.74904 -4.22206 0
M  V30 407 C 37.1784 -2.70743 -4.4384 0
M  V30 408 C 34.8634 -2.03322 -4.5931 0
M  V30 409 C 36.8574 -3.93183 -5.01683 0
M  V30 410 C 34.5444 -3.26026 -5.16866 0
M  V30 411 C 35.5424 -4.20774 -5.37994 0
M  V30 412 O 35.2304 -5.41312 -5.94337 0
M  V30 413 H 34.9624 -0.160517 -0.656666 0
M  V30 414 H 37.5164 -1.09235 -1.73945 0
M  V30 415 H 35.7464 0.344707 -3.85161 0
M  V30 416 H 37.4354 -0.0192429 -4.05895 0
M  V30 417 H 38.2014 -2.5008 -4.15554 0
M  V30 418 H 34.0804 -1.30384 -4.42178 0
M  V30 419 H 37.6244 -4.6715 -5.1809 0
M  V30 420 H 33.5214 -3.46559 -5.44579 0
M  V30 421 H 34.2894 -5.42618 -6.12787 0
M  V30 422 N 36.9525 1.47285 -0.560781 0
M  V30 423 C 38.2295 1.9558 0.0277798 0
M  V30 424 C 38.6095 1.5034 1.48192 0
M  V30 425 O 37.9575 0.743882 2.16052 0
M  V30 426 C 38.1675 3.48789 -0.121418 0
M  V30 427 C 39.5155 4.24594 0.0220912 0
M  V30 428 O 40.5395 3.56166 -0.0491439 0
M  V30 429 O 39.3985 5.46217 0.175958 0
M  V30 430 H 36.4925 0.824663 0.0621342 0
M  V30 431 H 39.0385 1.5767 -0.627556 0
M  V30 432 H 37.8105 3.74533 -1.13316 0
M  V30 433 H 37.4335 3.93473 0.571366 0
M  V30 434 N 38.4306 0.297415 1.54768 0
M  V30 435 C 39.6766 -0.313376 2.00364 0
M  V30 436 C 40.0096 -1.53815 1.18553 0
M  V30 437 O 39.2846 -1.92739 0.261103 0
M  V30 438 C 39.5676 -0.673525 3.53745 0
M  V30 439 C 39.4206 0.560133 4.46299 0
M  V30 440 C 40.7396 -1.50143 4.13697 0
M  V30 441 H 37.8586 -0.112428 0.728374 0
M  V30 442 H 40.5006 0.4088 1.8555 0
M  V30 443 H 38.6506 -1.28881 3.665 0
M  V30 444 H 40.3226 1.19863 4.45455 0
M  V30 445 H 38.5656 1.19405 4.17043 0
M  V30 446 H 39.2366 0.26405 5.51368 0
M  V30 447 H 41.7126 -0.981588 4.04356 0
M  V30 448 H 40.5886 -1.72221 5.21182 0
M  V30 449 H 40.8496 -2.48952 3.65343 0
M  V30 450 N 39.9087 -1.5758 0.0250728 0
M  V30 451 C 41.1337 -1.96337 -0.668317 0
M  V30 452 C 41.5587 -0.901314 -1.651 0
M  V30 453 O 40.9167 0.138187 -1.80773 0
M  V30 454 C 40.9647 -3.34191 -1.35457 0
M  V30 455 O 40.0687 -3.30269 -2.46974 0
M  V30 456 H 39.4097 -0.640281 -0.175887 0
M  V30 457 H 41.9397 -2.0442 0.0857224 0
M  V30 458 H 41.9497 -3.70331 -1.71228 0
M  V30 459 H 40.6247 -4.11036 -0.634218 0
M  V30 460 H 39.2017 -3.05841 -2.13344 0
M  V30 461 N 41.3868 0.248026 -1.55636 0
M  V30 462 C 42.6638 0.998988 -1.68165 0
M  V30 463 C 43.0438 2.03409 -0.564621 0
M  V30 464 O 42.3918 2.24378 0.432076 0
M  V30 465 C 42.6018 1.63334 -3.0842 0
M  V30 466 C 43.9498 2.13562 -3.66983 0
M  V30 467 O 44.9738 1.73277 -3.11213 0
M  V30 468 O 43.8328 2.87526 -4.64749 0
M  V30 469 H 40.9268 0.464933 -0.683935 0
M  V30 470 H 43.4728 0.241902 -1.67967 0
M  V30 471 H 42.2448 0.884583 -3.8117 0
M  V30 472 H 41.8678 2.45666 -3.12624 0
M  V30 473 N 42.8649 1.48995 0.513639 0
M  V30 474 C 44.1419 1.48338 1.27495 0
M  V30 475 C 44.5219 0.204065 2.10111 0
M  V30 476 O 43.8699 -0.813881 2.13514 0
M  V30 477 C 44.0799 2.75498 2.14247 0
M  V30 478 C 45.4279 3.24484 2.73852 0
M  V30 479 O 46.4519 2.76528 2.24523 0
M  V30 480 O 45.3109 4.07974 3.6362 0
M  V30 481 H 42.4049 0.593149 0.576284 0
M  V30 482 H 44.9509 1.61246 0.528948 0
M  V30 483 H 43.7229 3.60109 1.53092 0
M  V30 484 H 43.3459 2.6539 2.96064 0
M  V30 485 N 44.343 -0.763751 1.37857 0
M  V30 486 C 45.59 -1.52257 1.33506 0
M  V30 487 C 45.918 -1.94343 -0.078022 0
M  V30 488 O 45.173 -1.64958 -1.05297 0
M  V30 489 C 45.472 -2.79499 2.22745 0
M  V30 490 C 45.138 -2.56426 3.70886 0
M  V30 491 C 43.8 -2.49842 4.11257 0
M  V30 492 C 46.152 -2.36008 4.64704 0
M  V30 493 C 43.48 -2.20841 5.43549 0
M  V30 494 C 45.832 -2.0853 5.97242 0
M  V30 495 C 44.496 -2.00396 6.36709 0
M  V30 496 H 43.766 -0.557149 0.488534 0
M  V30 497 H 46.413 -0.879073 1.70131 0
M  V30 498 H 44.718 -3.48447 1.79142 0
M  V30 499 H 46.415 -3.37413 2.16688 0
M  V30 500 H 43.005 -2.62416 3.38874 0
M  V30 501 H 47.189 -2.40079 4.34368 0
M  V30 502 H 42.445 -2.13045 5.73081 0
M  V30 503 H 46.619 -1.91732 6.69486 0
M  V30 504 H 44.246 -1.77688 7.39142 0
M  V30 505 N 45.8211 -1.22559 -0.990812 0
M  V30 506 C 47.0681 -1.05141 -1.73065 0
M  V30 507 C 47.3961 0.413191 -1.9006 0
M  V30 508 O 46.6511 1.32257 -1.44245 0
M  V30 509 C 46.9501 -1.71011 -3.13831 0
M  V30 510 C 46.6161 -3.20911 -3.16745 0
M  V30 511 C 45.2781 -3.61812 -3.17247 0
M  V30 512 C 47.6301 -4.16846 -3.12872 0
M  V30 513 C 44.9581 -4.97127 -3.1158 0
M  V30 514 C 47.3101 -5.5214 -3.08746 0
M  V30 515 C 45.9741 -5.92419 -3.07565 0
M  V30 516 H 45.2441 -0.384738 -0.633291 0
M  V30 517 H 47.8911 -1.5235 -1.16025 0
M  V30 518 H 46.1961 -1.16133 -3.74193 0
M  V30 519 H 47.8931 -1.55023 -3.69823 0
M  V30 520 H 44.4831 -2.88344 -3.17105 0
M  V30 521 H 48.6671 -3.86263 -3.11632 0
M  V30 522 H 43.9231 -5.27562 -3.09012 0
M  V30 523 H 48.0971 -6.26201 -3.04705 0
M  V30 524 H 45.7241 -6.97236 -3.02929 0
M  V30 525 N 47.2992 1.18797 -1.03562 0
M  V30 526 C 48.2622 2.20464 -0.626769 0
M  V30 527 C 49.2622 1.57721 0.313173 0
M  V30 528 O 50.4522 1.73917 0.0992615 0
M  V30 529 C 47.5842 3.40802 0.0818498 0
M  V30 530 H 48.7772 2.58149 -1.5264 0
M  V30 531 H 46.3302 1.32593 -0.827578 0
M  V30 532 H 47.0652 3.08642 0.995518 0
M  V30 533 H 46.8502 3.8758 -0.593652 0
M  V30 534 H 48.3402 4.16092 0.354584 0
M  V30 535 N 48.7773 0.814389 1.34928 0
M  V30 536 C 49.7073 0.244827 2.32213 0
M  V30 537 C 50.6883 -0.634024 1.57842 0
M  V30 538 O 51.8733 -0.562676 1.8587 0
M  V30 539 C 49.0033 -0.601106 3.42058 0
M  V30 540 C 47.9573 0.179896 4.27622 0
M  V30 541 C 47.2833 -0.788237 5.28858 0
M  V30 542 C 48.5833 1.38329 5.03649 0
M  V30 543 H 50.2773 1.05763 2.80097 0
M  V30 544 H 47.8233 0.510029 1.34665 0
M  V30 545 H 49.7763 -1.00968 4.09125 0
M  V30 546 H 48.5003 -1.44688 2.92802 0
M  V30 547 H 47.1593 0.569739 3.62146 0
M  V30 548 H 46.8073 -1.62973 4.75866 0
M  V30 549 H 46.5073 -0.269942 5.8698 0
M  V30 550 H 48.0313 -1.19485 5.98795 0
M  V30 551 H 49.4453 1.04918 5.63618 0
M  V30 552 H 47.8423 1.83662 5.71304 0
M  V30 553 H 48.9123 2.16592 4.33839 0
M  V30 554 N 50.2554 -1.46986 0.568584 0
M  V30 555 C 51.5024 -2.02441 0.0487986 0
M  V30 556 C 51.8304 -1.44169 -1.30559 0
M  V30 557 O 51.0854 -0.591213 -1.86556 0
M  V30 558 C 51.3844 -3.57306 -0.081836 0
M  V30 559 C 51.0504 -4.34552 1.20313 0
M  V30 560 C 49.7124 -4.55376 1.5552 0
M  V30 561 C 52.0644 -4.79016 2.05411 0
M  V30 562 C 49.3924 -5.17913 2.7565 0
M  V30 563 C 51.7444 -5.42879 3.24754 0
M  V30 564 C 50.4084 -5.61933 3.60261 0
M  V30 565 H 49.6784 -0.740785 0.0178567 0
M  V30 566 H 52.3254 -1.76525 0.742384 0
M  V30 567 H 50.6304 -3.8228 -0.858463 0
M  V30 568 H 52.3274 -3.97876 -0.499546 0
M  V30 569 H 48.9174 -4.18631 0.919014 0
M  V30 570 H 53.1014 -4.62696 1.79516 0
M  V30 571 H 48.3574 -5.30858 3.03315 0
M  V30 572 H 52.5314 -5.76293 3.90973 0
M  V30 573 H 50.1584 -6.10161 4.53439 0
M  V30 574 N 51.7335 -0.305618 -1.54608 0
M  V30 575 C 52.6655 0.602161 -2.21149 0
M  V30 576 C 53.6785 1.09394 -1.20569 0
M  V30 577 O 54.8675 1.0106 -1.47136 0
M  V30 578 C 51.9675 1.83692 -2.84799 0
M  V30 579 C 51.1405 1.48686 -4.11353 0
M  V30 580 C 50.1995 2.57725 -4.58764 0
M  V30 581 O 49.2255 2.22623 -5.23858 0
M  V30 582 N 50.4275 3.88346 -4.31471 0
M  V30 583 H 53.1925 0.0324966 -2.99682 0
M  V30 584 H 50.7535 -0.128021 -1.61393 0
M  V30 585 H 52.7455 2.55994 -3.13448 0
M  V30 586 H 51.3155 2.31486 -2.10078 0
M  V30 587 H 50.5355 0.596269 -3.89664 0
M  V30 588 H 51.8235 1.22842 -4.93748 0
M  V30 589 H 51.2215 4.19671 -3.79331 0
M  V30 590 H 49.7785 4.56932 -4.64818 0
M  V30 591 N 53.2116 1.57565 -0.0334293 0
M  V30 592 C 54.4886 1.83282 0.683163 0
M  V30 593 C 54.8686 0.91823 1.90084 0
M  V30 594 O 54.2166 -0.025113 2.28486 0
M  V30 595 C 54.4266 3.32599 1.0573 0
M  V30 596 C 55.7746 3.99179 1.44711 0
M  V30 597 O 56.7986 3.3712 1.15015 0
M  V30 598 O 55.6576 5.08565 2.0006 0
M  V30 599 H 52.7516 0.755869 0.335546 0
M  V30 600 H 55.2976 1.69589 -0.0614402 0
M  V30 601 H 54.0696 3.90834 0.190828 0
M  V30 602 H 53.6926 3.51415 1.85993 0
M  V30 603 N 54.6897 -0.239769 1.55765 0
M  V30 604 C 56.1007 -0.808263 1.68297 0
M  V30 605 C 56.4517 -1.85736 0.632181 0
M  V30 606 O 55.5767 -2.15277 -0.220204 0
M  V30 607 C 56.1717 -1.47284 3.05111 0
M  V30 608 C 54.7307 -1.98895 3.19559 0
M  V30 609 C 53.8777 -0.842575 2.64189 0
M  V30 610 H 56.8287 -0.0154422 1.58692 0
M  V30 611 H 56.8497 -2.34111 2.99954 0
M  V30 612 H 56.3617 -0.709053 3.81568 0
M  V30 613 H 54.4627 -2.78132 2.47938 0
M  V30 614 H 54.5757 -2.18143 4.26556 0
M  V30 615 H 52.9397 -1.24501 2.22197 0
M  V30 616 H 53.7227 -0.0917552 3.43177 0
M  V30 617 N 56.1678 -1.49265 -0.50573 0
M  V30 618 C 57.3958 -1.62215 -1.28429 0
M  V30 619 C 57.8108 -0.291697 -1.86533 0
M  V30 620 O 57.1678 0.722233 -1.67601 0
M  V30 621 C 57.2188 -2.68735 -2.41793 0
M  V30 622 O 56.9398 -3.96619 -1.86078 0
M  V30 623 C 58.4408 -2.92346 -3.3324 0
M  V30 624 H 55.6608 -0.546239 -0.389697 0
M  V30 625 H 58.2048 -1.95265 -0.607609 0
M  V30 626 H 56.3598 -2.38476 -3.053 0
M  V30 627 H 56.7738 -4.55256 -2.60465 0
M  V30 628 H 58.2478 -3.70623 -4.09075 0
M  V30 629 H 58.7248 -2.02081 -3.89948 0
M  V30 630 H 59.3308 -3.24003 -2.75503 0
M  V30 631 N 57.6459 0.756429 -1.3826 0
M  V30 632 C 59.0619 1.0591 -1.19395 0
M  V30 633 C 59.2619 2.01459 -0.0406567 0
M  V30 634 O 58.3179 2.44909 0.614467 0
M  V30 635 C 59.6309 1.64191 -2.51916 0
M  V30 636 C 61.1789 1.76376 -2.58574 0
M  V30 637 C 61.6539 2.38069 -3.91264 0
M  V30 638 N 63.1449 2.45503 -3.92788 0
M  V30 639 C 63.8799 2.94126 -4.92217 0
M  V30 640 N 63.3759 3.42805 -6.02043 0
M  V30 641 N 65.1689 2.9314 -4.7961 0
M  V30 642 H 57.3199 0.122313 -2.12048 0
M  V30 643 H 59.5829 0.116892 -0.940766 0
M  V30 644 H 59.2889 1.01451 -3.3675 0
M  V30 645 H 59.1629 2.6329 -2.70108 0
M  V30 646 H 61.5499 2.38244 -1.74137 0
M  V30 647 H 61.6309 0.759894 -2.44252 0
M  V30 648 H 61.2749 1.76835 -4.76121 0
M  V30 649 H 61.2049 3.39091 -4.02895 0
M  V30 650 H 63.6959 2.1107 -3.13461 0
M  V30 651 H 64.0089 3.78354 -6.73846 0
M  V30 652 H 62.3539 3.4087 -6.05667 0
M  V30 653 H 65.5449 2.54419 -3.92923 0
M  V30 654 H 65.7179 3.30721 -5.5725 0
M  V30 655 N 59.124 1.23083 0.984299 0
M  V30 656 C 60.352 1.08714 1.76037 0
M  V30 657 C 60.767 -0.361691 1.85303 0
M  V30 658 O 60.124 -1.25034 1.32939 0
M  V30 659 C 60.175 1.70206 3.18923 0
M  V30 660 O 59.896 3.09423 3.10144 0
M  V30 661 C 61.397 1.61227 4.12941 0
M  V30 662 H 58.617 0.380664 0.552572 0
M  V30 663 H 61.161 1.62853 1.23689 0
M  V30 664 H 59.316 1.20109 3.6831 0
M  V30 665 H 59.73 3.39188 4.00065 0
M  V30 666 H 61.204 2.08962 5.10919 0
M  V30 667 H 61.681 0.570375 4.35481 0
M  V30 668 H 62.287 2.10671 3.69456 0
M  V30 669 N 60.6021 -1.18246 1.0419 0
M  V30 670 C 61.8321 -1.91916 0.764961 0
M  V30 671 C 62.2401 -1.76485 -0.681898 0
M  V30 672 O 61.5831 -1.09275 -1.47664 0
M  V30 673 C 61.6451 -3.4373 1.05309 0
M  V30 674 C 61.3091 -3.8294 2.4941 0
M  V30 675 C 62.3061 -3.86621 3.47592 0
M  V30 676 C 59.9911 -4.142 2.84155 0
M  V30 677 C 61.9851 -4.21013 4.78568 0
M  V30 678 C 59.6721 -4.48262 4.15337 0
M  V30 679 C 60.6701 -4.51645 5.12353 0
M  V30 680 O 60.3581 -4.84911 6.41183 0
M  V30 681 H 60.0901 -0.61606 0.278292 0
M  V30 682 H 62.6441 -1.50947 1.39299 0
M  V30 683 H 60.8741 -3.84946 0.367933 0
M  V30 684 H 62.5631 -3.9865 0.763752 0
M  V30 685 H 63.3291 -3.62607 3.22089 0
M  V30 686 H 59.2081 -4.10743 2.09311 0
M  V30 687 H 62.7521 -4.23568 5.54289 0
M  V30 688 H 58.6491 -4.71737 4.40607 0
M  V30 689 H 59.4171 -5.02809 6.45852 0
M  V30 690 N 62.0802 -0.821533 -1.34494 0
M  V30 691 C 63.3052 -0.420873 -2.03085 0
M  V30 692 C 63.7302 0.964915 -1.61465 0
M  V30 693 O 63.0882 1.62763 -0.798607 0
M  V30 694 C 63.1362 -0.529414 -3.56693 0
M  V30 695 O 62.2402 0.451302 -4.09923 0
M  V30 696 H 61.5812 -0.173489 -0.640935 0
M  V30 697 H 64.1112 -1.11157 -1.71771 0
M  V30 698 H 64.1212 -0.404671 -4.05988 0
M  V30 699 H 62.7962 -1.54014 -3.86332 0
M  V30 700 H 61.3732 0.285558 -3.71805 0
M  V30 701 N 63.5583 1.46682 -0.576371 0
M  V30 702 C 64.7983 2.04306 -0.0621356 0
M  V30 703 C 65.1623 1.4389 1.2712 0
M  V30 704 O 66.3633 1.92675 1.87429 0
M  V30 705 C 64.6343 3.57399 0.00927922 0
M  V30 706 S 66.1933 4.36309 0.466859 0
M  V30 707 H 63.0113 0.710167 -0.0344016 0
M  V30 708 H 65.6133 1.79807 -0.767437 0
M  V30 709 H 64.3173 3.98889 -0.965178 0
M  V30 710 H 63.8483 3.86424 0.737547 0
M  V30 711 H 65.8633 4.6533 1.72287 0
M  V30 712 N 65.0364 0.313813 1.54444 0
M  V30 713 C 65.9994 -0.54379 2.22656 0
M  V30 714 C 66.9994 -1.05124 1.21678 0
M  V30 715 O 68.1894 -0.945225 1.46325 0
M  V30 716 C 65.3214 -1.75427 2.92298 0
M  V30 717 H 66.5144 0.0523599 2.99854 0
M  V30 718 H 64.0674 0.0647834 1.56166 0
M  V30 719 H 64.8024 -2.38991 2.19211 0
M  V30 720 H 64.5874 -1.39791 3.66334 0
M  V30 721 H 66.0774 -2.36325 3.44297 0
M  V30 722 N 66.5145 -1.57545 0.0417849 0
M  V30 723 C 67.7445 -1.96339 -0.642995 0
M  V30 724 C 68.1525 -0.917536 -1.65463 0
M  V30 725 O 67.4955 0.107747 -1.83384 0
M  V30 726 C 67.5575 -3.31333 -1.39494 0
M  V30 727 C 67.2215 -4.53796 -0.540204 0
M  V30 728 C 68.2185 -5.19553 0.189806 0
M  V30 729 C 65.9035 -5.0006 -0.473886 0
M  V30 730 C 67.8975 -6.29904 0.974674 0
M  V30 731 C 65.5845 -6.10289 0.314677 0
M  V30 732 C 66.5825 -6.75072 1.03765 0
M  V30 733 O 66.2705 -7.83183 1.81327 0
M  V30 734 H 66.0025 -0.651241 -0.181277 0
M  V30 735 H 68.5565 -2.05148 0.101665 0
M  V30 736 H 66.7865 -3.19052 -2.18502 0
M  V30 737 H 68.4755 -3.54942 -1.96904 0
M  V30 738 H 69.2415 -4.84774 0.147981 0
M  V30 739 H 65.1205 -4.49433 -1.0262 0
M  V30 740 H 68.6645 -6.80401 1.5395 0
M  V30 741 H 64.5615 -6.44506 0.358174 0
M  V30 742 H 65.3295 -7.99913 1.73438 0
M  V30 743 N 67.9926 0.231505 -1.5589 0
M  V30 744 C 69.2396 0.957352 -1.78441 0
M  V30 745 C 69.5676 1.84726 -0.60882 0
M  V30 746 O 68.8226 1.91416 0.40725 0
M  V30 747 C 69.1216 1.83577 -3.0665 0
M  V30 748 C 68.7876 1.09993 -4.37278 0
M  V30 749 C 67.4496 0.896629 -4.72773 0
M  V30 750 C 69.8016 0.579558 -5.17968 0
M  V30 751 C 67.1296 0.160896 -5.86479 0
M  V30 752 C 69.4816 -0.142783 -6.32439 0
M  V30 753 C 68.1456 -0.357427 -6.66542 0
M  V30 754 H 67.4156 0.35032 -0.65296 0
M  V30 755 H 70.0626 0.226259 -1.90159 0
M  V30 756 H 68.3676 2.63441 -2.90011 0
M  V30 757 H 70.0646 2.39934 -3.21298 0
M  V30 758 H 66.6546 1.26835 -4.09403 0
M  V30 759 H 70.8386 0.724125 -4.90989 0
M  V30 760 H 66.0946 -0.0157293 -6.11398 0
M  V30 761 H 70.2686 -0.553559 -6.94196 0
M  V30 762 H 67.8956 -0.929466 -7.54497 0
M  V30 763 N 69.4707 1.49531 0.497807 0
M  V30 764 C 70.3807 1.69176 1.62532 0
M  V30 765 C 71.3967 0.5744 1.64246 0
M  V30 766 O 72.5727 0.849497 1.82608 0
M  V30 767 C 69.6377 1.75695 2.98885 0
M  V30 768 C 68.6987 2.9929 3.07773 0
M  V30 769 C 67.9317 3.05488 4.37622 0
M  V30 770 O 68.1547 2.19192 5.26603 0
M  V30 771 O 67.0887 3.9798 4.51548 0
M  V30 772 H 70.9147 2.647 1.48887 0
M  V30 773 H 68.4997 1.3331 0.674441 0
M  V30 774 H 70.3817 1.82317 3.79919 0
M  V30 775 H 69.0567 0.8335 3.12785 0
M  V30 776 H 67.9637 2.98183 2.25915 0
M  V30 777 H 69.2967 3.91125 2.98801 0
M  V30 778 N 70.9488 -0.749086 1.3866 0
M  V30 779 C 72.3598 -1.32664 1.31366 0
M  V30 780 C 72.7108 -1.96179 -0.028484 0
M  V30 781 O 71.8358 -1.9537 -0.93057 0
M  V30 782 C 72.4308 -2.41219 2.37905 0
M  V30 783 C 70.9898 -2.94684 2.34176 0
M  V30 784 C 70.1368 -1.68108 2.20533 0
M  V30 785 H 73.0878 -0.547628 1.48952 0
M  V30 786 H 73.1088 -3.21268 2.0388 0
M  V30 787 H 72.6208 -1.94962 3.35576 0
M  V30 788 H 70.7218 -3.45258 1.401 0
M  V30 789 H 70.8348 -3.48757 3.2849 0
M  V30 790 H 69.1988 -1.91907 1.67463 0
M  V30 791 H 69.9818 -1.23923 3.20153 0
M  V30 792 N 72.4269 -1.23603 -0.977757 0
M  V30 793 C 73.8379 -1.06424 -1.53398 0
M  V30 794 C 74.1889 0.367578 -1.92726 0
M  V30 795 O 73.3139 1.25465 -1.76316 0
M  V30 796 C 73.9089 -1.92568 -2.78753 0
M  V30 797 C 72.4679 -1.79642 -3.30765 0
M  V30 798 C 71.6149 -1.88111 -2.03739 0
M  V30 799 H 74.5659 -1.37227 -0.797152 0
M  V30 800 H 74.5869 -1.45203 -3.51705 0
M  V30 801 H 74.0989 -2.96771 -2.50098 0
M  V30 802 H 72.1999 -0.782325 -3.64294 0
M  V30 803 H 72.3129 -2.63174 -4.00345 0
M  V30 804 H 70.6769 -1.31723 -2.17994 0
M  V30 805 H 71.4599 -2.93875 -1.77461 0
M  V30 806 N 73.905 1.17692 -1.04816 0
M  V30 807 C 74.815 2.25229 -0.65643 0
M  V30 808 C 75.831 1.71018 0.320761 0
M  V30 809 O 77.007 2.00649 0.173805 0
M  V30 810 C 74.072 3.46684 -0.0332629 0
M  V30 811 C 73.133 4.15997 -1.06042 0
M  V30 812 C 72.366 5.31654 -0.466893 0
M  V30 813 O 72.589 5.65777 0.724758 0
M  V30 814 O 71.523 5.89831 -1.1993 0
M  V30 815 H 75.349 2.61016 -1.55255 0
M  V30 816 H 72.934 1.24919 -0.81949 0
M  V30 817 H 74.816 4.20234 0.313256 0
M  V30 818 H 73.491 3.12703 0.836566 0
M  V30 819 H 72.398 3.44482 -1.45886 0
M  V30 820 H 73.731 4.53996 -1.90127 0
M  V30 821 N 75.3831 0.828654 1.34056 0
M  V30 822 C 76.3131 0.269443 2.3194 0
M  V30 823 C 77.2941 -0.617247 1.58506 0
M  V30 824 O 78.4791 -0.542931 1.86456 0
M  V30 825 C 75.6091 -0.564793 3.42677 0
M  V30 826 C 74.5631 0.225241 4.27407 0
M  V30 827 C 73.8891 -0.7321 5.29664 0
M  V30 828 C 75.1891 1.43663 5.02154 0
M  V30 829 H 76.8831 1.08728 2.7896 0
M  V30 830 H 74.4291 0.524283 1.34117 0
M  V30 831 H 76.3821 -0.966233 4.10173 0
M  V30 832 H 75.1061 -1.41574 2.9432 0
M  V30 833 H 73.7651 0.608117 3.61521 0
M  V30 834 H 73.4131 -1.57916 4.77568 0
M  V30 835 H 73.1131 -0.20767 5.87233 0
M  V30 836 H 74.6371 -1.13128 6.00029 0
M  V30 837 H 76.0511 1.1089 5.62473 0
M  V30 838 H 74.4481 1.89711 5.69324 0
M  V30 839 H 75.5181 2.21181 4.31517 0
M  V30 840 N 76.8612 -1.46375 0.584142 0
M  V30 841 C 78.0892 -2.06761 0.0759296 0
M  V30 842 C 78.5042 -1.43266 -1.22965 0
M  V30 843 O 77.8612 -0.538458 -1.74376 0
M  V30 844 C 77.9122 -3.61375 -0.0950384 0
M  V30 845 O 77.6332 -4.22495 1.15887 0
M  V30 846 C 79.1342 -4.38693 -0.637434 0
M  V30 847 H 76.3542 -0.668479 0.0581075 0
M  V30 848 H 78.8982 -1.8798 0.805218 0
M  V30 849 H 77.0532 -3.79578 -0.774554 0
M  V30 850 H 77.4672 -5.15385 0.973598 0
M  V30 851 H 78.9412 -5.47464 -0.706237 0
M  V30 852 H 79.4182 -4.06836 -1.65472 0
M  V30 853 H 80.0242 -4.25299 0.00725967 0
M  V30 854 N 78.3393 -0.321999 -1.54275 0
M  V30 855 C 79.2693 0.537411 -2.27231 0
M  V30 856 C 80.2503 1.12064 -1.27968 0
M  V30 857 O 81.4353 1.14606 -1.56777 0
M  V30 858 C 78.5653 1.69919 -3.02894 0
M  V30 859 C 77.5193 1.24534 -4.09482 0
M  V30 860 C 76.8453 2.49394 -4.72977 0
M  V30 861 C 78.1453 0.361335 -5.21049 0
M  V30 862 H 79.8393 -0.0711406 -2.99315 0
M  V30 863 H 77.3853 -0.0356555 -1.43956 0
M  V30 864 H 79.3383 2.30668 -3.52662 0
M  V30 865 H 78.0623 2.33431 -2.28424 0
M  V30 866 H 76.7213 0.660782 -3.60596 0
M  V30 867 H 76.3693 3.11265 -3.95124 0
M  V30 868 H 76.0693 2.19718 -5.44975 0
M  V30 869 H 77.5933 3.10908 -5.25517 0
M  V30 870 H 79.0073 0.875072 -5.66582 0
M  V30 871 H 77.4043 0.157428 -5.99893 0
M  V30 872 H 78.4743 -0.60822 -4.8107 0
M  V30 873 N 79.8174 1.5752 -0.0501392 0
M  V30 874 C 80.7274 2.14952 0.939827 0
M  V30 875 C 81.7434 1.10706 1.34239 0
M  V30 876 O 82.9194 1.42869 1.41952 0
M  V30 877 C 79.9844 2.68232 2.19665 0
M  V30 878 C 79.0454 3.87272 1.85253 0
M  V30 879 C 78.2784 4.38002 3.04943 0
M  V30 880 O 78.5014 3.87811 4.18281 0
M  V30 881 O 77.4354 5.29602 2.86017 0
M  V30 882 H 81.2614 2.9986 0.481392 0
M  V30 883 H 78.8464 1.4841 0.171699 0
M  V30 884 H 80.7284 3.02475 2.93406 0
M  V30 885 H 79.4034 1.86395 2.64648 0
M  V30 886 H 78.3104 3.5792 1.0883 0
M  V30 887 H 79.6434 4.70336 1.4507 0
M  V30 888 N 81.2955 -0.223234 1.56011 0
M  V30 889 C 82.2055 -1.29766 1.95443 0
M  V30 890 C 83.2215 -1.51373 0.858028 0
M  V30 891 O 84.3975 -1.64536 1.16146 0
M  V30 892 C 81.4625 -2.62772 2.26167 0
M  V30 893 C 80.5235 -2.49482 3.49367 0
M  V30 894 C 79.7565 -3.76145 3.78616 0
M  V30 895 O 79.9795 -4.79087 3.09568 0
M  V30 896 O 78.9135 -3.73358 4.72109 0
M  V30 897 H 82.7395 -0.99309 2.87004 0
M  V30 898 H 80.3245 -0.425958 1.43199 0
M  V30 899 H 82.2065 -3.41327 2.47131 0
M  V30 900 H 80.8815 -2.92913 1.37781 0
M  V30 901 H 79.7885 -1.69133 3.33684 0
M  V30 902 H 81.1215 -2.2428 4.38131 0
M  V30 903 N 82.7736 -1.49793 -0.48987 0
M  V30 904 C 83.7366 -1.66752 -1.57246 0
M  V30 905 C 84.7366 -0.538867 -1.51502 0
M  V30 906 O 85.9266 -0.805545 -1.54456 0
M  V30 907 C 83.0586 -1.67528 -2.96896 0
M  V30 908 H 84.2516 -2.63321 -1.43534 0
M  V30 909 H 81.8046 -1.38992 -0.714914 0
M  V30 910 H 82.5396 -0.725837 -3.16073 0
M  V30 911 H 82.3246 -2.49504 -3.02473 0
M  V30 912 H 83.8146 -1.82667 -3.7553 0
M  V30 913 N 84.2517 0.741722 -1.39055 0
M  V30 914 C 85.1837 1.8657 -1.33133 0
M  V30 915 C 86.1967 1.61001 -0.241329 0
M  V30 916 O 87.3857 1.7136 -0.499784 0
M  V30 917 C 84.4857 3.22457 -1.04283 0
M  V30 918 C 83.6587 3.75435 -2.24427 0
M  V30 919 C 82.7177 4.89867 -1.92138 0
M  V30 920 O 81.7437 5.03879 -2.64754 0
M  V30 921 N 82.9457 5.73738 -0.88347 0
M  V30 922 H 85.7107 1.92156 -2.29991 0
M  V30 923 H 83.2717 0.922172 -1.3307 0
M  V30 924 H 85.2637 3.9657 -0.807128 0
M  V30 925 H 83.8337 3.12181 -0.161807 0
M  V30 926 H 83.0537 2.92751 -2.6399 0
M  V30 927 H 84.3417 4.07563 -3.04581 0
M  V30 928 H 83.7397 5.64999 -0.281517 0
M  V30 929 H 82.2967 6.47947 -0.707662 0
M  V30 930 N 85.7298 1.2412 0.971189 0
M  V30 931 C 86.9598 1.10415 1.7462 0
M  V30 932 C 87.3678 -0.346462 1.86001 0
M  V30 933 O 86.7108 -1.25104 1.34517 0
M  V30 934 C 86.7728 1.66596 3.18568 0
M  V30 935 C 86.4368 3.15446 3.3067 0
M  V30 936 C 87.4338 4.12636 3.16271 0
M  V30 937 C 85.1188 3.55337 3.55022 0
M  V30 938 C 87.1128 5.47699 3.26044 0
M  V30 939 C 84.7998 4.90542 3.64434 0
M  V30 940 C 85.7978 5.86532 3.49956 0
M  V30 941 O 85.4858 7.19279 3.59017 0
M  V30 942 H 85.2178 0.386616 0.55453 0
M  V30 943 H 87.7718 1.64633 1.22821 0
M  V30 944 H 86.0018 1.06808 3.71657 0
M  V30 945 H 87.6908 1.48232 3.77865 0
M  V30 946 H 88.4568 3.8316 2.97344 0
M  V30 947 H 84.3358 2.8113 3.65359 0
M  V30 948 H 87.8798 6.22603 3.14661 0
M  V30 949 H 83.7768 5.19691 3.82873 0
M  V30 950 H 84.5448 7.27153 3.75754 0
M  V30 951 N 87.2079 -1.17134 1.05439 0
M  V30 952 C 88.1709 -2.19439 0.661764 0
M  V30 953 C 89.1709 -1.58199 -0.288042 0
M  V30 954 O 90.3609 -1.74053 -0.0715803 0
M  V30 955 C 87.4929 -3.40889 -0.0276209 0
M  V30 956 H 88.6859 -2.55688 1.56728 0
M  V30 957 H 86.2389 -1.31259 0.848567 0
M  V30 958 H 86.9739 -3.10187 -0.94629 0
M  V30 959 H 86.7589 -3.86586 0.655238 0
M  V30 960 H 88.2489 -4.16603 -0.288342 0
M  V30 961 N 88.686 -0.835752 -1.33615 0
M  V30 962 C 89.633 -0.26473 -2.29277 0
M  V30 963 C 90.603 0.617712 -1.54187 0
M  V30 964 O 91.788 0.556641 -1.825 0
M  V30 965 C 88.928 0.556777 -3.40579 0
M  V30 966 C 88.041 -0.349339 -4.30585 0
M  V30 967 C 87.176 0.482969 -5.29 0
M  V30 968 C 86.215 -0.421732 -6.10645 0
M  V30 969 N 85.352 0.372262 -7.01112 0
M  V30 970 H 90.192 -1.08582 -2.77514 0
M  V30 971 H 87.729 -0.546927 -1.36554 0
M  V30 972 H 89.687 1.04852 -4.03809 0
M  V30 973 H 88.317 1.34286 -2.93542 0
M  V30 974 H 87.369 -0.959372 -3.68104 0
M  V30 975 H 88.681 -1.04445 -4.87742 0
M  V30 976 H 87.835 1.03866 -5.97743 0
M  V30 977 H 86.574 1.21153 -4.72412 0
M  V30 978 H 85.579 -0.989464 -5.40823 0
M  V30 979 H 86.804 -1.14861 -6.69316 0
M  V30 980 H 84.75 1.08426 -6.46977 0
M  V30 981 H 84.667 -0.264198 -7.55538 0
M  V30 982 H 85.935 0.910293 -7.74167 0
M  V30 983 N 90.1641 1.46063 -0.591896 0
M  V30 984 C 91.4101 2.02638 -0.0811191 0
M  V30 985 C 91.7431 1.4613 1.27905 0
M  V30 986 O 91.0181 0.629908 1.84017 0
M  V30 987 C 91.3011 3.60091 -0.0252436 0
M  V30 988 C 91.1541 4.26965 -1.41496 0
M  V30 989 C 92.4731 4.3496 0.670685 0
M  V30 990 H 89.5921 0.73635 -0.0309524 0
M  V30 991 H 92.2341 1.741 -0.760859 0
M  V30 992 H 90.3841 3.84535 0.553624 0
M  V30 993 H 92.0561 4.13756 -2.0397 0
M  V30 994 H 90.2991 3.85971 -1.98011 0
M  V30 995 H 90.9701 5.35781 -1.32825 0
M  V30 996 H 93.4461 4.15716 0.178825 0
M  V30 997 H 92.3221 5.44686 0.678837 0
M  V30 998 H 92.5831 4.06685 1.73379 0
M  V30 999 N 91.6422 0.330177 1.54103 0
M  V30 1000 C 92.9192 -0.325007 1.92881 0
M  V30 1001 C 93.2992 -1.6934 1.26045 0
M  V30 1002 O 92.6472 -2.24855 0.406526 0
M  V30 1003 C 92.8572 -0.410634 3.46576 0
M  V30 1004 C 94.2052 -0.667801 4.19316 0
M  V30 1005 O 95.2292 -0.49329 3.52768 0
M  V30 1006 O 94.0882 -1.00491 5.37181 0
M  V30 1007 H 91.1822 -0.186873 0.80561 0
M  V30 1008 H 93.7282 0.380376 1.65382 0
M  V30 1009 H 92.5002 0.550164 3.87413 0
M  V30 1010 H 92.1232 -1.16333 3.802 0
M  V30 1011 N 93.1203 -1.57491 0.0584922 0
M  V30 1012 C 94.0503 -2.14988 -0.911178 0
M  V30 1013 C 95.0313 -1.07343 -1.31952 0
M  V30 1014 O 96.2163 -1.35318 -1.39294 0
M  V30 1015 C 93.3463 -2.70078 -2.18347 0
M  V30 1016 C 92.3003 -3.82771 -1.91495 0
M  V30 1017 C 91.6263 -4.24408 -3.25241 0
M  V30 1018 C 92.9263 -5.07592 -1.23075 0
M  V30 1019 H 94.6203 -2.96263 -0.432246 0
M  V30 1020 H 92.1663 -1.42512 -0.206469 0
M  V30 1021 H 94.1193 -3.08943 -2.86587 0
M  V30 1022 H 92.8433 -1.86005 -2.68458 0
M  V30 1023 H 91.5023 -3.44389 -1.25664 0
M  V30 1024 H 91.1503 -3.37275 -3.73168 0
M  V30 1025 H 90.8503 -5.00366 -3.08071 0
M  V30 1026 H 92.3743 -4.65879 -3.94701 0
M  V30 1027 H 93.7883 -5.43857 -1.81362 0
M  V30 1028 H 92.1853 -5.88741 -1.16207 0
M  V30 1029 H 93.2553 -4.84454 -0.207847 0
M  V30 1030 N 94.5984 0.214957 -1.56127 0
M  V30 1031 C 95.5464 1.28601 -1.93816 0
M  V30 1032 C 96.5404 1.48175 -0.821016 0
M  V30 1033 O 97.7464 1.49271 -1.0059 0
M  V30 1034 H 94.1214 0.431302 -0.616022 0
M  V30 1035 H 96.0924 0.940991 -2.83175 0
M  V30 1036 C 94.8414 2.62779 -2.27689 0
M  V30 1037 H 94.1644 2.48527 -3.13168 0
M  V30 1038 H 95.6044 3.36517 -2.57939 0
M  V30 1039 C 94.0634 3.18285 -1.10436 0
M  V30 1040 O 94.5934 4.00002 -0.368945 0
M  V30 1041 N 92.7994 2.7675 -0.886433 0
M  V30 1042 H 92.3464 2.10404 -1.48619 0
M  V30 1043 H 92.3044 3.14229 -0.103656 0
M  V30 1044 N 96.0765 1.50051 0.48192 0
M  V30 1045 C 97.0065 1.71046 1.58951 0
M  V30 1046 C 97.9875 0.559288 1.60642 0
M  V30 1047 O 99.1725 0.797243 1.77081 0
M  V30 1048 C 96.3025 1.79462 2.97339 0
M  V30 1049 C 95.2565 2.94558 3.10515 0
M  V30 1050 C 94.5825 2.88105 4.50444 0
M  V30 1051 C 95.8825 4.35227 2.88747 0
M  V30 1052 H 97.5765 2.6378 1.41635 0
M  V30 1053 H 95.1225 1.26936 0.679942 0
M  V30 1054 H 97.0755 1.92734 3.74742 0
M  V30 1055 H 95.7995 0.833412 3.15788 0
M  V30 1056 H 94.4585 2.80918 2.35543 0
M  V30 1057 H 94.1065 1.89853 4.65795 0
M  V30 1058 H 93.8065 3.65366 4.60197 0
M  V30 1059 H 95.3305 3.03412 5.29881 0
M  V30 1060 H 96.7445 4.49449 3.55905 0
M  V30 1061 H 95.1415 5.13856 3.09955 0
M  V30 1062 H 96.2115 4.48347 1.84696 0
M  V30 1063 N 97.5546 -0.734337 1.39446 0
M  V30 1064 C 98.8316 -1.48579 1.27215 0
M  V30 1065 C 99.2116 -2.1077 -0.117968 0
M  V30 1066 O 98.5596 -1.98646 -1.12924 0
M  V30 1067 C 98.7696 -2.53667 2.39696 0
M  V30 1068 C 100.118 -3.20031 2.79044 0
M  V30 1069 O 101.142 -2.6398 2.39151 0
M  V30 1070 O 100.001 -4.21455 3.47905 0
M  V30 1071 H 97.0946 -0.659816 0.49857 0
M  V30 1072 H 99.6406 -0.768106 1.51322 0
M  V30 1073 H 98.4126 -2.06096 3.32626 0
M  V30 1074 H 98.0356 -3.32994 2.17258 0
M  V30 1075 N 99.0327 -1.24633 -0.964593 0
M  V30 1076 C 99.9797 -1.04144 -2.05968 0
M  V30 1077 C 100.95 0.046262 -1.66036 0
M  V30 1078 O 102.135 -0.108972 -1.90489 0
M  V30 1079 C 99.2747 -0.65563 -3.38815 0
M  V30 1080 C 98.3877 -1.81714 -3.91923 0
M  V30 1081 C 97.5227 -1.37662 -5.13052 0
M  V30 1082 C 96.5617 -2.50788 -5.58365 0
M  V30 1083 N 95.6987 -2.07582 -6.70712 0
M  V30 1084 H 100.539 -1.9787 -2.22827 0
M  V30 1085 H 98.0757 -0.9855 -1.09208 0
M  V30 1086 H 100.034 -0.412954 -4.15151 0
M  V30 1087 H 98.6637 0.244627 -3.21872 0
M  V30 1088 H 97.7157 -2.1734 -3.12198 0
M  V30 1089 H 99.0277 -2.66705 -4.21509 0
M  V30 1090 H 98.1817 -1.093 -5.96773 0
M  V30 1091 H 96.9207 -0.497293 -4.85158 0
M  V30 1092 H 95.9257 -2.79906 -4.73215 0
M  V30 1093 H 97.1507 -3.39283 -5.88272 0
M  V30 1094 H 95.0967 -1.22051 -6.44546 0
M  V30 1095 H 95.0137 -2.86125 -6.99763 0
M  V30 1096 H 96.2817 -1.82369 -7.57867 0
M  V30 1097 N 100.511 1.16574 -1.06058 0
M  V30 1098 C 101.441 2.23057 -0.690488 0
M  V30 1099 C 102.422 1.67141 0.315901 0
M  V30 1100 O 103.607 1.93253 0.191556 0
M  V30 1101 C 100.737 3.47222 -0.073625 0
M  V30 1102 C 99.6908 4.16016 -1.00573 0
M  V30 1103 C 99.0168 5.34104 -0.252289 0
M  V30 1104 C 100.317 4.67264 -2.33371 0
M  V30 1105 H 102.011 2.54271 -1.58072 0
M  V30 1106 H 99.5568 1.22218 -0.76149 0
M  V30 1107 H 101.51 4.20939 0.19714 0
M  V30 1108 H 100.234 3.15302 0.85161 0
M  V30 1109 H 98.8928 3.44223 -1.2612 0
M  V30 1110 H 98.5408 4.98437 0.675988 0
M  V30 1111 H 98.2408 5.81072 -0.873455 0
M  V30 1112 H 99.7648 6.10599 0.0109857 0
M  V30 1113 H 101.179 5.32573 -2.12223 0
M  V30 1114 H 99.5758 5.24843 -2.90963 0
M  V30 1115 H 100.646 3.83602 -2.96611 0
M  V30 1116 N 101.989 0.842826 1.3317 0
M  V30 1117 C 103.266 0.362216 1.92217 0
M  V30 1118 C 103.646 -1.15289 1.76838 0
M  V30 1119 O 102.994 -1.96914 1.15919 0
M  V30 1120 C 103.204 0.813495 3.39387 0
M  V30 1121 C 104.552 0.823804 4.16532 0
M  V30 1122 O 105.576 0.757358 3.48055 0
M  V30 1123 O 104.435 0.915193 5.38782 0
M  V30 1124 H 101.529 0.103317 0.820521 0
M  V30 1125 H 104.075 0.928942 1.42017 0
M  V30 1126 H 102.847 1.85624 3.4447 0
M  V30 1127 H 102.47 0.223561 3.96971 0
M  V30 1128 N 103.467 -1.45747 0.599634 0
M  V30 1129 C 104.397 -2.33235 -0.111306 0
M  V30 1130 C 105.378 -1.46359 -0.866781 0
M  V30 1131 O 106.563 -1.75146 -0.838904 0
M  V30 1132 C 103.693 -3.28932 -1.11451 0
M  V30 1133 C 102.647 -4.25381 -0.472772 0
M  V30 1134 C 101.973 -5.1071 -1.58365 0
M  V30 1135 C 103.273 -5.18831 0.600948 0
M  V30 1136 H 104.967 -2.92927 0.61919 0
M  V30 1137 H 102.513 -1.40857 0.299215 0
M  V30 1138 H 104.466 -3.89002 -1.62036 0
M  V30 1139 H 103.19 -2.67381 -1.8755 0
M  V30 1140 H 101.849 -3.66598 0.0121472 0
M  V30 1141 H 101.497 -4.45533 -2.33473 0
M  V30 1142 H 101.197 -5.7604 -1.15982 0
M  V30 1143 H 102.721 -5.73647 -2.09194 0
M  V30 1144 H 104.135 -5.73019 0.179491 0
M  V30 1145 H 102.532 -5.92595 0.946076 0
M  V30 1146 H 103.602 -4.6174 1.48068 0
M  V30 1147 N 104.945 -0.338344 -1.53925 0
M  V30 1148 C 105.892 0.520845 -2.24846 0
M  V30 1149 C 106.862 1.09976 -1.24477 0
M  V30 1150 O 108.047 1.13735 -1.53196 0
M  V30 1151 C 105.187 1.6685 -3.02084 0
M  V30 1152 C 104.3 1.11739 -4.17299 0
M  V30 1153 C 103.435 2.23193 -4.82036 0
M  V30 1154 C 102.474 1.65407 -5.89328 0
M  V30 1155 N 101.611 2.70582 -6.47866 0
M  V30 1156 H 106.451 -0.0904881 -2.97863 0
M  V30 1157 H 103.988 -0.0564282 -1.46992 0
M  V30 1158 H 105.946 2.34407 -3.45122 0
M  V30 1159 H 104.576 2.2509 -2.31375 0
M  V30 1160 H 103.628 0.332919 -3.7894 0
M  V30 1161 H 104.94 0.654677 -4.94485 0
M  V30 1162 H 104.094 2.98626 -5.28117 0
M  V30 1163 H 102.833 2.72807 -4.04262 0
M  V30 1164 H 101.838 0.884779 -5.42634 0
M  V30 1165 H 103.063 1.16652 -6.69006 0
M  V30 1166 H 101.009 3.1946 -5.72959 0
M  V30 1167 H 100.926 2.28917 -7.20509 0
M  V30 1168 H 102.194 3.45799 -6.98601 0
M  V30 1169 N 106.423 1.57458 -0.0668435 0
M  V30 1170 C 107.834 1.80776 0.466558 0
M  V30 1171 C 108.185 0.980361 1.69951 0
M  V30 1172 O 107.31 0.201441 2.1546 0
M  V30 1173 C 107.905 3.27881 0.85321 0
M  V30 1174 C 106.464 3.52062 1.3315 0
M  V30 1175 C 105.611 2.75513 0.314264 0
M  V30 1176 H 108.562 1.5598 -0.292588 0
M  V30 1177 H 108.583 3.39659 1.715 0
M  V30 1178 H 108.095 3.88075 -0.0443439 0
M  V30 1179 H 106.196 2.97167 2.24772 0
M  V30 1180 H 106.309 4.60762 1.31285 0
M  V30 1181 H 104.673 2.42123 0.790492 0
M  V30 1182 H 105.456 3.38442 -0.575477 0
M  V30 1183 N 107.901 -0.206675 1.56239 0
M  V30 1184 C 109.149 -0.927007 1.79586 0
M  V30 1185 C 109.47 -1.8427 0.637929 0
M  V30 1186 O 108.74 -1.92849 -0.344398 0
M  V30 1187 H 107.32 -0.345292 0.662407 0
M  V30 1188 H 109.982 -0.21496 1.93711 0
M  V30 1189 H 109.078 -1.52501 2.72305 0
M  V30 1190 N 109.379 -1.50304 -0.473955 0
M  V30 1191 C 110.312 -1.63595 -1.59097 0
M  V30 1192 C 111.29 -0.484142 -1.55225 0
M  V30 1193 O 112.474 -0.703271 -1.7489 0
M  V30 1194 C 109.601 -1.61589 -2.97669 0
M  V30 1195 C 108.647 -2.82295 -3.19705 0
M  V30 1196 S 109.48 -4.43635 -2.99913 0
M  V30 1197 C 110.636 -4.44317 -4.40832 0
M  V30 1198 H 110.869 -2.58082 -1.47583 0
M  V30 1199 H 108.402 -1.39531 -0.661087 0
M  V30 1200 H 110.36 -1.61116 -3.7756 0
M  V30 1201 H 109.021 -0.683421 -3.06575 0
M  V30 1202 H 108.214 -2.77188 -4.20931 0
M  V30 1203 H 107.816 -2.8032 -2.47582 0
M  V30 1204 H 110.108 -4.17703 -5.33414 0
M  V30 1205 H 111.051 -5.45911 -4.50984 0
M  V30 1206 H 111.459 -3.74059 -4.22777 0
M  V30 1207 N 110.857 0.726932 -1.39834 0
M  V30 1208 C 112.085 1.51613 -1.40787 0
M  V30 1209 C 112.5 1.88799 -0.00451505 0
M  V30 1210 O 111.857 1.54662 0.968809 0
M  V30 1211 C 111.908 2.79863 -2.28821 0
M  V30 1212 O 111.629 2.44253 -3.63692 0
M  V30 1213 C 113.13 3.73837 -2.38245 0
M  V30 1214 H 110.35 0.468264 -0.480593 0
M  V30 1215 H 112.894 0.897607 -1.83748 0
M  V30 1216 H 111.049 3.38027 -1.89252 0
M  V30 1217 H 111.463 3.26695 -4.1033 0
M  V30 1218 H 112.937 4.60699 -3.04073 0
M  V30 1219 H 113.414 4.16153 -1.40403 0
M  V30 1220 H 114.02 3.21589 -2.78317 0
M  V30 1221 N 112.336 1.25143 0.95797 0
M  V30 1222 C 113.266 1.07711 2.07173 0
M  V30 1223 C 114.247 -0.0128462 1.70095 0
M  V30 1224 O 115.432 0.156061 1.93572 0
M  V30 1225 C 112.562 0.691503 3.40346 0
M  V30 1226 C 111.516 1.73132 3.9142 0
M  V30 1227 C 110.842 1.20049 5.21049 0
M  V30 1228 C 112.142 3.1294 4.1817 0
M  V30 1229 H 113.836 2.00873 2.22014 0
M  V30 1230 H 111.382 0.967191 1.06684 0
M  V30 1231 H 113.335 0.556505 4.17709 0
M  V30 1232 H 112.059 -0.275819 3.25433 0
M  V30 1233 H 110.718 1.8547 3.16222 0
M  V30 1234 H 110.366 0.223499 5.02503 0
M  V30 1235 H 110.066 1.89545 5.56189 0
M  V30 1236 H 111.59 1.07782 6.01012 0
M  V30 1237 H 113.004 3.03775 4.86203 0
M  V30 1238 H 111.401 3.79875 4.64559 0
M  V30 1239 H 112.471 3.6025 3.24573 0
M  V30 1240 N 113.814 -1.1601 1.06675 0
M  V30 1241 C 114.744 -2.22688 0.702307 0
M  V30 1242 C 115.725 -1.67306 -0.307032 0
M  V30 1243 O 116.91 -1.93352 -0.181305 0
M  V30 1244 C 114.04 -3.47178 0.092038 0
M  V30 1245 C 112.994 -4.15477 1.02777 0
M  V30 1246 C 112.32 -5.33963 0.28061 0
M  V30 1247 C 113.62 -4.66019 2.35846 0
M  V30 1248 H 115.314 -2.53429 1.59419 0
M  V30 1249 H 112.86 -1.21813 0.767961 0
M  V30 1250 H 114.813 -4.21037 -0.174814 0
M  V30 1251 H 113.537 -3.15749 -0.834877 0
M  V30 1252 H 112.196 -3.43549 1.27944 0
M  V30 1253 H 111.844 -4.98788 -0.649545 0
M  V30 1254 H 111.544 -5.806 0.904258 0
M  V30 1255 H 113.068 -6.10596 0.021396 0
M  V30 1256 H 114.482 -5.3144 2.15045 0
M  V30 1257 H 112.879 -5.23293 2.93743 0
M  V30 1258 H 113.949 -3.82023 2.98641 0
M  V30 1259 N 115.292 -0.849877 -1.32721 0
M  V30 1260 C 116.569 -0.372405 -1.92022 0
M  V30 1261 C 116.949 1.1435 -1.77447 0
M  V30 1262 O 116.297 1.96296 -1.16962 0
M  V30 1263 C 116.507 -0.831482 -3.3895 0
M  V30 1264 C 117.855 -0.845882 -4.16089 0
M  V30 1265 O 118.879 -0.775806 -3.47649 0
M  V30 1266 O 117.738 -0.943753 -5.38289 0
M  V30 1267 H 114.832 -0.107667 -0.819961 0
M  V30 1268 H 117.378 -0.93646 -1.41522 0
M  V30 1269 H 116.15 -1.87448 -3.4348 0
M  V30 1270 H 115.773 -0.24461 -3.96847 0
M  V30 1271 N 116.77 1.45427 -0.607355 0
M  V30 1272 C 118.019 2.01452 -0.100036 0
M  V30 1273 C 118.332 1.48159 1.27704 0
M  V30 1274 O 119.538 1.96159 1.87707 0
M  V30 1275 C 117.994 3.59672 -0.128158 0
M  V30 1276 C 117.602 4.21962 -1.50507 0
M  V30 1277 C 119.346 4.23262 0.323932 0
M  V30 1278 C 117.253 5.72333 -1.48959 0
M  V30 1279 H 116.183 0.75325 -0.0336299 0
M  V30 1280 H 118.834 1.66901 -0.76265 0
M  V30 1281 H 117.216 3.91411 0.601105 0
M  V30 1282 H 118.39 4.01796 -2.25602 0
M  V30 1283 H 116.705 3.70565 -1.89923 0
M  V30 1284 H 119.302 5.33522 0.354691 0
M  V30 1285 H 119.645 3.93921 1.34656 0
M  V30 1286 H 120.178 3.96239 -0.352056 0
M  V30 1287 H 116.917 6.06373 -2.48981 0
M  V30 1288 H 116.437 5.94691 -0.781214 0
M  V30 1289 H 118.116 6.35525 -1.21313 0
M  V30 1290 N 118.248 0.346503 1.53744 0
M  V30 1291 C 119.496 -0.248612 2.00565 0
M  V30 1292 C 119.817 -1.5083 1.23593 0
M  V30 1293 O 119.087 -1.92858 0.343912 0
M  V30 1294 H 117.667 -0.0948564 0.740953 0
M  V30 1295 H 120.329 0.468341 1.89189 0
M  V30 1296 H 119.425 -0.488994 3.08245 0
M  V30 1297 N 119.726 -1.57421 0.075193 0
M  V30 1298 C 120.966 -1.95495 -0.596757 0
M  V30 1299 C 121.33 -0.954886 -1.66571 0
M  V30 1300 O 122.531 -1.22341 -2.39345 0
M  V30 1301 C 120.802 -3.382 -1.15566 0
M  V30 1302 S 122.361 -3.98254 -1.84226 0
M  V30 1303 H 119.179 -0.683649 -0.195307 0
M  V30 1304 H 121.781 -1.94925 0.149859 0
M  V30 1305 H 120.485 -4.08766 -0.36588 0
M  V30 1306 H 120.016 -3.42321 -1.93856 0
M  V30 1307 H 122.031 -3.85435 -3.12497 0
M  V30 1308 N 121.204 0.198386 -1.56346 0
M  V30 1309 C 122.452 0.91747 -1.80075 0
M  V30 1310 C 122.773 1.83929 -0.647692 0
M  V30 1311 O 122.043 1.93029 0.334166 0
M  V30 1312 H 120.623 0.341774 -0.664228 0
M  V30 1313 H 123.285 0.204684 -1.93822 0
M  V30 1314 H 122.381 1.51055 -2.7311 0
M  V30 1315 N 122.682 1.50554 0.465978 0
M  V30 1316 C 123.928 1.63006 1.21658 0
M  V30 1317 C 124.283 0.328613 1.89573 0
M  V30 1318 O 123.576 -0.673813 1.79361 0
M  V30 1319 C 123.77 2.75152 2.28093 0
M  V30 1320 C 123.599 4.16075 1.7062 0
M  V30 1321 C 122.369 4.82408 1.50368 0
M  V30 1322 C 124.567 5.00145 1.1983 0
M  V30 1323 N 122.549 6.07532 0.881924 0
M  V30 1324 C 123.92 6.16035 0.700083 0
M  V30 1325 C 125.975 4.85882 1.08733 0
M  V30 1326 C 124.678 7.19228 0.101835 0
M  V30 1327 C 126.704 5.89257 0.503016 0
M  V30 1328 C 126.066 7.04398 0.0152005 0
M  V30 1329 H 122.165 0.650596 0.433877 0
M  V30 1330 H 124.749 1.8769 0.517746 0
M  V30 1331 H 122.92 2.52181 2.95397 0
M  V30 1332 H 124.652 2.76935 2.95109 0
M  V30 1333 H 121.407 4.39788 1.75737 0
M  V30 1334 H 121.831 6.7443 0.589312 0
M  V30 1335 H 126.473 3.97144 1.4504 0
M  V30 1336 H 124.191 8.07637 -0.273426 0
M  V30 1337 H 127.777 5.80286 0.419451 0
M  V30 1338 H 126.657 7.83021 -0.429856 0
M  V30 1339 N 124.16 -0.719506 1.40217 0
M  V30 1340 C 125.408 -1.47641 1.3801 0
M  V30 1341 C 125.729 -1.94992 -0.018145 0
M  V30 1342 O 124.999 -1.70073 -0.972207 0
M  V30 1343 H 123.579 -0.547744 0.507923 0
M  V30 1344 H 126.241 -0.853187 1.75233 0
M  V30 1345 H 125.337 -2.35112 2.05253 0
M  V30 1346 N 125.638 -1.25649 -0.95132 0
M  V30 1347 C 126.866 -1.13343 -1.73092 0
M  V30 1348 C 127.281 0.312434 -1.86197 0
M  V30 1349 O 126.638 1.21465 -1.36207 0
M  V30 1350 C 126.689 -1.78602 -3.14299 0
M  V30 1351 O 126.41 -3.17537 -3.01831 0
M  V30 1352 C 127.911 -1.72119 -4.08522 0
M  V30 1353 H 125.131 -0.395181 -0.542285 0
M  V30 1354 H 127.675 -1.66076 -1.19328 0
M  V30 1355 H 125.83 -1.29832 -3.64996 0
M  V30 1356 H 126.244 -3.49676 -3.90931 0
M  V30 1357 H 127.718 -2.22435 -5.052 0
M  V30 1358 H 128.195 -0.685635 -4.33815 0
M  V30 1359 H 128.801 -2.20393 -3.63741 0
M  V30 1360 N 127.117 1.15442 -1.07289 0
M  V30 1361 C 128.345 1.90096 -0.81676 0
M  V30 1362 C 128.76 1.7798 0.629966 0
M  V30 1363 O 128.117 1.1313 1.43206 0
M  V30 1364 C 128.168 3.40466 -1.21512 0
M  V30 1365 O 127.889 3.52232 -2.60508 0
M  V30 1366 C 129.39 4.32145 -0.988198 0
M  V30 1367 H 126.61 0.602495 -0.295366 0
M  V30 1368 H 129.154 1.4627 -1.42918 0
M  V30 1369 H 127.309 3.81958 -0.647039 0
M  V30 1370 H 127.723 4.45549 -2.76742 0
M  V30 1371 H 129.197 5.36072 -1.31645 0
M  V30 1372 H 129.674 4.39135 0.0755063 0
M  V30 1373 H 130.28 3.96395 -1.54115 0
M  V30 1374 N 128.595 0.856903 1.32268 0
M  V30 1375 C 129.528 0.247937 2.26849 0
M  V30 1376 C 130.506 -0.615382 1.50505 0
M  V30 1377 O 131.69 -0.571689 1.79622 0
M  V30 1378 C 128.817 -0.650093 3.32403 0
M  V30 1379 C 127.863 0.140138 4.2627 0
M  V30 1380 S 128.696 1.51004 5.13769 0
M  V30 1381 C 129.852 0.61778 6.22844 0
M  V30 1382 H 130.085 1.04971 2.78152 0
M  V30 1383 H 127.618 0.654665 1.39834 0
M  V30 1384 H 129.576 -1.16256 3.93694 0
M  V30 1385 H 128.237 -1.4257 2.7988 0
M  V30 1386 H 127.43 -0.543945 5.01056 0
M  V30 1387 H 127.032 0.584267 3.69408 0
M  V30 1388 H 129.324 -0.177053 6.77269 0
M  V30 1389 H 130.267 1.33636 6.95375 0
M  V30 1390 H 130.675 0.191124 5.64176 0
M  V30 1391 N 130.073 -1.45103 0.615059 0
M  V30 1392 C 131.489 -1.57137 0.279322 0
M  V30 1393 C 131.689 -1.60523 -1.21797 0
M  V30 1394 O 130.745 -1.53956 -2.00134 0
M  V30 1395 C 132.058 -2.85062 0.957083 0
M  V30 1396 C 133.606 -2.98749 0.933706 0
M  V30 1397 C 134.081 -4.29455 1.59162 0
M  V30 1398 N 135.572 -4.36231 1.55746 0
M  V30 1399 C 136.307 -5.36051 2.0356 0
M  V30 1400 N 135.803 -6.42367 2.59494 0
M  V30 1401 N 137.596 -5.27456 1.94284 0
M  V30 1402 H 129.747 -1.41148 1.58717 0
M  V30 1403 H 132.01 -0.675331 0.665306 0
M  V30 1404 H 131.716 -2.88488 2.01166 0
M  V30 1405 H 131.59 -3.7407 0.48494 0
M  V30 1406 H 133.977 -2.94886 -0.112347 0
M  V30 1407 H 134.058 -2.11132 1.44419 0
M  V30 1408 H 133.702 -4.34077 2.63704 0
M  V30 1409 H 133.632 -5.15901 1.0561 0
M  V30 1410 H 136.123 -3.60011 1.14893 0
M  V30 1411 H 136.436 -7.14793 2.93752 0
M  V30 1412 H 134.781 -6.43097 2.63537 0
M  V30 1413 H 137.972 -4.43308 1.5032 0
M  V30 1414 H 138.145 -6.05099 2.3186 0
M  V30 1415 N 131.551 -0.354651 -1.53558 0
M  V30 1416 C 132.967 -0.00315426 -1.596 0
M  V30 1417 C 133.167 1.47741 -1.37021 0
M  V30 1418 O 132.223 2.23759 -1.16996 0
M  V30 1419 C 133.536 -0.44929 -2.97325 0
M  V30 1420 C 135.084 -0.402578 -3.104 0
M  V30 1421 C 135.559 -0.824355 -4.5052 0
M  V30 1422 N 137.05 -0.778979 -4.56603 0
M  V30 1423 C 137.785 -1.07715 -5.63192 0
M  V30 1424 N 137.281 -1.44405 -6.77583 0
M  V30 1425 N 139.074 -1.00066 -5.53121 0
M  V30 1426 H 131.225 -1.31893 -1.66487 0
M  V30 1427 H 133.488 -0.538388 -0.780284 0
M  V30 1428 H 133.194 -1.48202 -3.1895 0
M  V30 1429 H 133.068 0.169772 -3.76818 0
M  V30 1430 H 135.455 0.621004 -2.88492 0
M  V30 1431 H 135.536 -1.05699 -2.32941 0
M  V30 1432 H 135.18 -1.846 -4.73165 0
M  V30 1433 H 135.11 -0.147304 -5.26394 0
M  V30 1434 H 137.601 -0.508528 -3.74463 0
M  V30 1435 H 137.914 -1.65612 -7.54846 0
M  V30 1436 H 136.259 -1.4826 -6.79002 0
M  V30 1437 H 139.45 -0.713293 -4.62633 0
M  V30 1438 H 139.623 -1.23638 -6.36096 0
M  V30 1439 N 133.029 1.57378 -0.0835403 0
M  V30 1440 C 133.992 2.12252 0.864959 0
M  V30 1441 C 134.992 1.04916 1.21858 0
M  V30 1442 O 136.182 1.30853 1.14991 0
M  V30 1443 C 133.314 2.63358 2.16461 0
M  V30 1444 H 134.507 2.97371 0.388676 0
M  V30 1445 H 132.06 1.55423 0.165317 0
M  V30 1446 H 132.795 1.81727 2.686 0
M  V30 1447 H 132.58 3.41826 1.92087 0
M  V30 1448 H 134.07 3.05847 2.84337 0
M  V30 1449 N 134.507 -0.190092 1.56449 0
M  V30 1450 C 135.753 -0.911052 1.81184 0
M  V30 1451 C 136.086 -1.82699 0.658396 0
M  V30 1452 O 135.361 -1.91491 -0.340775 0
M  V30 1453 C 135.644 -1.72297 3.16205 0
M  V30 1454 C 135.497 -0.831419 4.42049 0
M  V30 1455 C 136.816 -2.69454 3.47969 0
M  V30 1456 H 133.935 -0.32977 0.659106 0
M  V30 1457 H 136.577 -0.178169 1.89163 0
M  V30 1458 H 134.727 -2.34778 3.09534 0
M  V30 1459 H 136.399 -0.220929 4.60771 0
M  V30 1460 H 134.642 -0.138406 4.33579 0
M  V30 1461 H 135.313 -1.43461 5.33032 0
M  V30 1462 H 137.789 -2.17104 3.54972 0
M  V30 1463 H 136.665 -3.23342 4.43555 0
M  V30 1464 H 136.926 -3.48744 2.71717 0
M  V30 1465 N 135.985 -1.50799 -0.457987 0
M  V30 1466 C 136.895 -1.73426 -1.57989 0
M  V30 1467 C 137.911 -0.617745 -1.62665 0
M  V30 1468 O 139.087 -0.897614 -1.80291 0
M  V30 1469 C 136.152 -1.83557 -2.94122 0
M  V30 1470 C 135.213 -3.07345 -2.99729 0
M  V30 1471 C 134.446 -3.16983 -4.29368 0
M  V30 1472 O 134.669 -2.33077 -5.20607 0
M  V30 1473 O 133.603 -4.09812 -4.40837 0
M  V30 1474 H 137.429 -2.68555 -1.41817 0
M  V30 1475 H 135.014 -1.35052 -0.638859 0
M  V30 1476 H 136.896 -1.92326 -3.74952 0
M  V30 1477 H 135.571 -0.916137 -3.10465 0
M  V30 1478 H 134.478 -3.04068 -2.1793 0
M  V30 1479 H 135.811 -3.9891 -2.88326 0
M  V30 1480 N 137.463 0.71206 -1.40597 0
M  V30 1481 C 138.879 1.02058 -1.22704 0
M  V30 1482 C 139.079 2.01228 -0.104729 0
M  V30 1483 O 138.135 2.4674 0.53624 0
M  V30 1484 C 139.448 1.56094 -2.57012 0
M  V30 1485 C 140.996 1.6806 -2.64054 0
M  V30 1486 C 141.471 2.25501 -3.9864 0
M  V30 1487 N 142.962 2.32882 -4.004 0
M  V30 1488 C 143.697 2.78317 -5.01325 0
M  V30 1489 N 143.193 3.23478 -6.12645 0
M  V30 1490 N 144.986 2.77733 -4.88693 0
M  V30 1491 H 137.137 0.0547896 -2.12329 0
M  V30 1492 H 139.4 0.0869027 -0.944008 0
M  V30 1493 H 139.106 0.906865 -3.39807 0
M  V30 1494 H 138.98 2.54564 -2.78347 0
M  V30 1495 H 141.367 2.32583 -1.81629 0
M  V30 1496 H 141.448 0.681802 -2.46546 0
M  V30 1497 H 141.092 1.61598 -4.81506 0
M  V30 1498 H 141.022 3.26102 -4.13479 0
M  V30 1499 H 143.513 2.00991 -3.20017 0
M  V30 1500 H 143.826 3.56725 -6.85542 0
M  V30 1501 H 142.171 3.21429 -6.16205 0
M  V30 1502 H 145.362 2.4179 -4.00818 0
M  V30 1503 H 145.535 3.12826 -5.67489 0
M  V30 1504 N 138.941 1.26152 0.944643 0
M  V30 1505 C 140.188 1.11492 1.69044 0
M  V30 1506 C 140.516 -0.342366 1.91463 0
M  V30 1507 O 139.771 -1.26812 1.49054 0
M  V30 1508 C 140.07 1.82541 3.07268 0
M  V30 1509 C 139.736 3.32445 3.04616 0
M  V30 1510 C 138.398 3.73337 3.036 0
M  V30 1511 C 140.75 4.28171 2.97185 0
M  V30 1512 C 138.078 5.08348 2.92915 0
M  V30 1513 C 140.43 5.63218 2.88041 0
M  V30 1514 C 139.094 6.03426 2.85366 0
M  V30 1515 H 138.364 0.407977 0.618576 0
M  V30 1516 H 141.011 1.56551 1.10291 0
M  V30 1517 H 139.316 1.29941 3.69625 0
M  V30 1518 H 141.013 1.68642 3.63815 0
M  V30 1519 H 137.603 2.99915 3.06185 0
M  V30 1520 H 141.787 3.97563 2.97081 0
M  V30 1521 H 137.043 5.38667 2.89219 0
M  V30 1522 H 141.217 6.37078 2.81254 0
M  V30 1523 H 138.844 7.07999 2.76842 0
M  V30 1524 N 140.419 -1.14872 1.07899 0
M  V30 1525 C 141.696 -1.81928 0.71845 0
M  V30 1526 C 142.076 -1.95417 -0.798455 0
M  V30 1527 O 141.424 -1.50997 -1.715 0
M  V30 1528 C 141.634 -3.17937 1.43935 0
M  V30 1529 C 142.982 -3.93501 1.59506 0
M  V30 1530 O 144.006 -3.27509 1.40058 0
M  V30 1531 O 142.865 -5.1183 1.91551 0
M  V30 1532 H 139.959 -0.78628 0.256305 0
M  V30 1533 H 142.505 -1.21934 1.18026 0
M  V30 1534 H 141.277 -3.0325 2.47295 0
M  V30 1535 H 140.9 -3.85619 0.968687 0
M  V30 1536 N 141.898 -0.863906 -1.31812 0
M  V30 1537 C 143.144 -0.472535 -1.97218 0
M  V30 1538 C 143.477 0.971394 -1.68159 0
M  V30 1539 O 142.752 1.68309 -0.974798 0
M  V30 1540 C 143.035 -0.723054 -3.52766 0
M  V30 1541 C 142.888 -2.21608 -3.91421 0
M  V30 1542 C 144.207 -0.185522 -4.39709 0
M  V30 1543 H 141.326 -0.173158 -0.71637 0
M  V30 1544 H 143.968 -1.08403 -1.56041 0
M  V30 1545 H 142.118 -0.202577 -3.87971 0
M  V30 1546 H 143.79 -2.80334 -3.66347 0
M  V30 1547 H 142.033 -2.691 -3.40246 0
M  V30 1548 H 142.704 -2.34203 -4.99853 0
M  V30 1549 H 145.18 -0.630726 -4.11292 0
M  V30 1550 H 144.056 -0.390306 -5.47511 0
M  V30 1551 H 144.317 0.912229 -4.32586 0
M  V30 1552 N 143.376 1.44774 -0.622745 0
M  V30 1553 C 144.324 2.32387 0.0994683 0
M  V30 1554 C 145.318 1.46859 0.844326 0
M  V30 1555 O 146.524 1.63254 0.758174 0
M  V30 1556 H 142.899 0.750273 0.0509291 0
M  V30 1557 H 144.87 2.91062 -0.65767 0
M  V30 1558 C 143.619 3.30723 1.07319 0
M  V30 1559 H 142.942 3.96541 0.509462 0
M  V30 1560 H 144.382 3.94725 1.54817 0
M  V30 1561 C 142.841 2.59021 2.15429 0
M  V30 1562 O 143.371 2.38286 3.23393 0
M  V30 1563 N 141.577 2.189 1.91131 0
M  V30 1564 H 141.124 2.35964 1.03337 0
M  V30 1565 H 141.082 1.71251 2.63668 0
M  V30 1566 N 144.854 0.36279 1.53368 0
M  V30 1567 C 146.1 -0.228113 2.01513 0
M  V30 1568 C 146.433 -1.48648 1.2497 0
M  V30 1569 O 145.708 -1.91459 0.342616 0
M  V30 1570 C 145.991 -0.522884 3.56284 0
M  V30 1571 C 145.844 0.74892 4.43521 0
M  V30 1572 C 147.163 -1.32461 4.19693 0
M  V30 1573 H 144.282 -0.0814343 0.732487 0
M  V30 1574 H 146.924 0.48713 1.83649 0
M  V30 1575 H 145.074 -1.1322 3.71636 0
M  V30 1576 H 146.746 1.38648 4.39971 0
M  V30 1577 H 144.989 1.36986 4.11603 0
M  V30 1578 H 145.66 0.497667 5.49752 0
M  V30 1579 H 148.136 -0.809203 4.08156 0
M  V30 1580 H 147.012 -1.49961 5.28018 0
M  V30 1581 H 147.273 -2.33232 3.75573 0
M  V30 1582 N 146.332 -1.57332 0.0918853 0
M  V30 1583 C 147.581 -1.93412 -0.572249 0
M  V30 1584 C 147.894 -0.975515 -1.69538 0
M  V30 1585 O 149.1 -1.22991 -2.42045 0
M  V30 1586 C 147.556 -3.43648 -1.0693 0
M  V30 1587 C 147.164 -4.47994 0.0239049 0
M  V30 1588 C 148.908 -3.88695 -1.70635 0
M  V30 1589 C 146.815 -5.89381 -0.488319 0
M  V30 1590 H 145.745 -0.721939 -0.217532 0
M  V30 1591 H 148.396 -1.82735 0.167369 0
M  V30 1592 H 146.778 -3.49466 -1.8625 0
M  V30 1593 H 147.952 -4.53815 0.799277 0
M  V30 1594 H 146.267 -4.12536 0.565946 0
M  V30 1595 H 148.864 -4.91725 -2.10025 0
M  V30 1596 H 149.207 -3.27166 -2.57426 0
M  V30 1597 H 149.74 -3.85564 -0.979023 0
M  V30 1598 H 146.479 -6.54602 0.342906 0
M  V30 1599 H 145.999 -5.87037 -1.23077 0
M  V30 1600 H 147.678 -6.39863 -0.958317 0
M  V30 1601 N 147.81 0.181792 -1.56548 0
M  V30 1602 C 149.058 0.89832 -1.81038 0
M  V30 1603 C 149.379 1.83232 -0.667164 0
M  V30 1604 O 148.649 1.93372 0.313673 0
M  V30 1605 H 147.229 0.33471 -0.667816 0
M  V30 1606 H 149.891 0.184116 -1.94028 0
M  V30 1607 H 148.987 1.4815 -2.74696 0
M  V30 1608 N 149.288 1.51039 0.449983 0
M  V30 1609 C 150.218 1.74379 1.55288 0
M  V30 1610 C 151.199 0.593236 1.5942 0
M  V30 1611 O 152.384 0.834625 1.7535 0
M  V30 1612 C 149.514 1.85728 2.93466 0
M  V30 1613 C 148.468 3.01078 3.04197 0
M  V30 1614 C 147.794 2.97595 4.44231 0
M  V30 1615 C 149.094 4.41254 2.7945 0
M  V30 1616 H 150.788 2.66725 1.36008 0
M  V30 1617 H 148.334 1.2835 0.652864 0
M  V30 1618 H 150.287 2.0064 3.70569 0
M  V30 1619 H 149.011 0.900207 3.13949 0
M  V30 1620 H 147.67 2.85851 2.29531 0
M  V30 1621 H 147.318 1.99691 4.61663 0
M  V30 1622 H 147.018 3.75046 4.52343 0
M  V30 1623 H 148.542 3.14583 5.23326 0
M  V30 1624 H 149.956 4.56897 3.46292 0
M  V30 1625 H 148.353 5.20315 2.98985 0
M  V30 1626 H 149.423 4.52164 1.75144 0
M  V30 1627 N 150.766 -0.704594 1.40972 0
M  V30 1628 C 151.994 -1.49354 1.43182 0
M  V30 1629 C 152.409 -1.88768 0.0345508 0
M  V30 1630 O 151.766 -1.56184 -0.944081 0
M  V30 1631 C 151.817 -2.76187 2.33244 0
M  V30 1632 O 151.538 -2.38436 3.67532 0
M  V30 1633 C 153.039 -3.7 2.44162 0
M  V30 1634 H 150.259 -0.460559 0.487982 0
M  V30 1635 H 152.803 -0.868261 1.85153 0
M  V30 1636 H 150.958 -3.34974 1.94606 0
M  V30 1637 H 151.372 -3.20126 4.15475 0
M  V30 1638 H 152.846 -4.55803 3.11364 0
M  V30 1639 H 153.323 -4.13867 1.47006 0
M  V30 1640 H 153.929 -3.17121 2.83398 0
M  V30 1641 N 152.244 -1.26651 -0.937939 0
M  V30 1642 C 153.174 -1.10993 -2.05433 0
M  V30 1643 C 154.155 -0.0142161 -1.70094 0
M  V30 1644 O 155.34 -0.186837 -1.93299 0
M  V30 1645 C 152.47 -0.745561 -3.39203 0
M  V30 1646 C 151.424 -1.79337 -3.88616 0
M  V30 1647 C 150.75 -1.28324 -5.19073 0
M  V30 1648 C 152.05 -3.19553 -4.13138 0
M  V30 1649 H 153.744 -2.0438 -2.1879 0
M  V30 1650 H 151.29 -0.984041 -1.05131 0
M  V30 1651 H 153.243 -0.622888 -4.16771 0
M  V30 1652 H 151.967 0.22401 -3.25831 0
M  V30 1653 H 150.626 -1.90477 -3.13231 0
M  V30 1654 H 150.274 -0.303414 -5.02084 0
M  V30 1655 H 149.974 -1.98369 -5.53103 0
M  V30 1656 H 151.498 -1.1733 -5.99221 0
M  V30 1657 H 152.912 -3.11471 -4.81309 0
M  V30 1658 H 151.309 -3.87218 -4.58457 0
M  V30 1659 H 152.379 -3.65368 -3.18801 0
M  V30 1660 N 153.722 1.14298 -1.08507 0
M  V30 1661 C 154.947 1.8976 -0.837001 0
M  V30 1662 C 155.372 1.78097 0.605228 0
M  V30 1663 O 154.73 1.12188 1.4242 0
M  V30 1664 C 154.778 3.37685 -1.26495 0
M  V30 1665 O 153.882 4.10281 -0.417514 0
M  V30 1666 H 153.223 0.590365 -0.303917 0
M  V30 1667 H 155.753 1.44672 -1.44676 0
M  V30 1668 H 155.763 3.88501 -1.24625 0
M  V30 1669 H 154.438 3.45492 -2.31534 0
M  V30 1670 H 153.015 3.69536 -0.499722 0
M  V30 1671 N 155.201 0.870884 1.31352 0
M  V30 1672 C 156.148 0.325425 2.28494 0
M  V30 1673 C 157.118 -0.576615 1.5577 0
M  V30 1674 O 158.303 -0.508059 1.83911 0
M  V30 1675 C 155.443 -0.466283 3.41935 0
M  V30 1676 C 154.556 0.463378 4.29508 0
M  V30 1677 C 153.691 -0.342544 5.30094 0
M  V30 1678 C 152.73 0.583486 6.09313 0
M  V30 1679 N 151.867 -0.186244 7.01853 0
M  V30 1680 H 156.707 1.15901 2.74538 0
M  V30 1681 H 154.244 0.58294 1.35056 0
M  V30 1682 H 156.202 -0.941085 4.06447 0
M  V30 1683 H 154.832 -1.26456 2.97 0
M  V30 1684 H 153.884 1.05663 3.65431 0
M  V30 1685 H 155.196 1.1734 4.84802 0
M  V30 1686 H 154.35 -0.879816 6.00287 0
M  V30 1687 H 153.089 -1.08585 4.75458 0
M  V30 1688 H 152.094 1.13251 5.3801 0
M  V30 1689 H 153.319 1.32566 6.66035 0
M  V30 1690 H 151.265 -0.912348 6.49625 0
M  V30 1691 H 151.182 0.464422 7.54572 0
M  V30 1692 H 152.45 -0.704716 7.76308 0
M  V30 1693 N 156.679 -1.44442 0.630414 0
M  V30 1694 C 157.627 -2.32437 -0.0871428 0
M  V30 1695 C 158.621 -1.47304 -0.836525 0
M  V30 1696 O 159.827 -1.63653 -0.749506 0
M  V30 1697 H 156.202 -0.750533 -0.0469495 0
M  V30 1698 H 158.173 -2.90709 0.673096 0
M  V30 1699 C 156.922 -3.31288 -1.05563 0
M  V30 1700 H 156.245 -3.96805 -0.488426 0
M  V30 1701 H 157.685 -3.9554 -1.52721 0
M  V30 1702 C 156.144 -2.6016 -2.14052 0
M  V30 1703 O 156.674 -2.39997 -3.22124 0
M  V30 1704 N 154.88 -2.19911 -1.89967 0
M  V30 1705 H 154.427 -2.36509 -1.02085 0
M  V30 1706 H 154.385 -1.72646 -2.62756 0
M  V30 1707 N 158.157 -0.370918 -1.53173 0
M  V30 1708 C 159.089 0.507823 -2.23503 0
M  V30 1709 C 160.102 1.04182 -1.251 0
M  V30 1710 O 161.291 0.947286 -1.5129 0
M  V30 1711 C 158.391 1.71447 -2.92334 0
M  V30 1712 C 157.564 1.31105 -4.17289 0
M  V30 1713 C 156.623 2.38035 -4.69282 0
M  V30 1714 O 155.649 2.00204 -5.32829 0
M  V30 1715 N 156.851 3.69697 -4.47554 0
M  V30 1716 H 159.616 -0.0946382 -2.99551 0
M  V30 1717 H 157.177 -0.196358 -1.60705 0
M  V30 1718 H 159.169 2.42469 -3.24023 0
M  V30 1719 H 157.739 2.22368 -2.19707 0
M  V30 1720 H 156.959 0.430462 -3.91843 0
M  V30 1721 H 158.247 1.0179 -4.98514 0
M  V30 1722 H 157.645 4.03205 -3.9679 0
M  V30 1723 H 156.202 4.36807 -4.8378 0
M  V30 1724 N 159.635 1.57281 -0.100228 0
M  V30 1725 C 160.585 2.10848 0.86759 0
M  V30 1726 C 161.569 1.02473 1.24049 0
M  V30 1727 O 162.761 1.28739 1.21471 0
M  V30 1728 C 159.89 2.69648 2.12474 0
M  V30 1729 C 158.976 3.85074 1.77704 0
M  V30 1730 N 159.367 4.92897 1.13518 0
M  V30 1731 C 157.665 3.94905 2.07282 0
M  V30 1732 C 158.366 5.73475 0.974735 0
M  V30 1733 N 157.342 5.22675 1.4937 0
M  V30 1734 H 161.144 2.91594 0.367471 0
M  V30 1735 H 158.658 1.62074 0.102829 0
M  V30 1736 H 160.655 3.06356 2.82757 0
M  V30 1737 H 159.315 1.90359 2.63047 0
M  V30 1738 H 160.326 5.11662 0.801381 0
M  V30 1739 H 157.003 3.26633 2.60033 0
M  V30 1740 H 158.393 6.70238 0.472364 0
M  V30 1741 N 161.113 -0.173488 1.56642 0
M  V30 1742 C 162.076 -1.19859 1.95362 0
M  V30 1743 C 163.076 -1.37296 0.83704 0
M  V30 1744 O 164.266 -1.34739 1.10413 0
M  V30 1745 C 161.398 -2.56405 2.24654 0
M  V30 1746 H 162.591 -0.867062 2.87092 0
M  V30 1747 H 160.144 -0.415853 1.50666 0
M  V30 1748 H 160.879 -2.94576 1.35631 0
M  V30 1749 H 160.664 -2.45115 3.06041 0
M  V30 1750 H 162.154 -3.30287 2.5554 0
M  V30 1751 N 162.591 -1.51276 -0.441967 0
M  V30 1752 C 164.007 -1.39349 -0.778083 0
M  V30 1753 C 164.207 -0.472212 -1.95889 0
M  V30 1754 O 163.263 0.0743551 -2.5239 0
M  V30 1755 C 164.576 -2.81292 -1.0628 0
M  V30 1756 C 166.124 -2.9041 -1.16751 0
M  V30 1757 C 166.599 -4.33251 -1.48519 0
M  V30 1758 N 168.09 -4.36336 -1.55453 0
M  V30 1759 C 168.825 -5.43885 -1.81596 0
M  V30 1760 N 168.321 -6.61601 -2.05562 0
M  V30 1761 N 170.114 -5.3136 -1.8334 0
M  V30 1762 H 162.265 -2.09729 0.335774 0
M  V30 1763 H 164.528 -0.943925 0.0878028 0
M  V30 1764 H 164.234 -3.50678 -0.267905 0
M  V30 1765 H 164.108 -3.20334 -1.99163 0
M  V30 1766 H 166.495 -2.21225 -1.95304 0
M  V30 1767 H 166.576 -2.54871 -0.217801 0
M  V30 1768 H 166.22 -5.02984 -0.704958 0
M  V30 1769 H 166.15 -4.66299 -2.44689 0
M  V30 1770 H 168.641 -3.51466 -1.38853 0
M  V30 1771 H 168.954 -7.39361 -2.24867 0
M  V30 1772 H 167.299 -6.64725 -2.02894 0
M  V30 1773 H 170.49 -4.38382 -1.64132 0
M  V30 1774 H 170.663 -6.15258 -2.03377 0
M  V30 1775 N 164.069 0.697108 -1.41344 0
M  V30 1776 C 165.309 1.46939 -1.42085 0
M  V30 1777 C 165.673 1.9198 -0.0280397 0
M  V30 1778 O 166.874 2.6865 0.0897504 0
M  V30 1779 C 165.145 2.64985 -2.39828 0
M  V30 1780 S 166.704 3.54147 -2.59085 0
M  V30 1781 H 163.522 0.502146 -0.503359 0
M  V30 1782 H 166.124 0.813546 -1.77769 0
M  V30 1783 H 164.828 2.30098 -3.39828 0
M  V30 1784 H 164.359 3.35464 -2.05493 0
M  V30 1785 H 166.374 4.60137 -1.85711 0
M  V30 1786 N 165.547 1.27147 0.931209 0
M  V30 1787 C 166.457 1.11372 2.06478 0
M  V30 1788 C 167.473 0.044645 1.73943 0
M  V30 1789 O 168.649 0.250417 1.99837 0
M  V30 1790 C 165.714 0.758838 3.38294 0
M  V30 1791 C 164.775 1.90841 3.84549 0
M  V30 1792 C 164.008 1.57036 5.10074 0
M  V30 1793 O 164.231 0.476645 5.68405 0
M  V30 1794 O 163.165 2.40839 5.51616 0
M  V30 1795 H 166.991 2.06493 2.22698 0
M  V30 1796 H 164.576 1.06301 1.04978 0
M  V30 1797 H 166.458 0.574098 4.17471 0
M  V30 1798 H 165.133 -0.162879 3.2329 0
M  V30 1799 H 164.04 2.14819 3.06274 0
M  V30 1800 H 165.373 2.81021 4.04089 0
M  V30 1801 N 167.025 -1.13721 1.09112 0
M  V30 1802 C 167.957 -2.1871 0.685467 0
M  V30 1803 C 168.97 -1.60527 -0.271068 0
M  V30 1804 O 170.159 -1.78407 -0.0576148 0
M  V30 1805 C 167.259 -3.38898 -0.0111255 0
M  V30 1806 C 166.432 -4.26597 0.966131 0
M  V30 1807 C 165.491 -5.25324 0.303539 0
M  V30 1808 O 164.517 -5.61213 0.950177 0
M  V30 1809 N 165.719 -5.72779 -0.943651 0
M  V30 1810 H 168.484 -2.54126 1.58871 0
M  V30 1811 H 166.045 -1.29012 0.978143 0
M  V30 1812 H 168.037 -4.02014 -0.465517 0
M  V30 1813 H 166.607 -3.01747 -0.816565 0
M  V30 1814 H 165.827 -3.60306 1.59917 0
M  V30 1815 H 167.115 -4.82048 1.6281 0
M  V30 1816 H 166.513 -5.45762 -1.48862 0
M  V30 1817 H 165.07 -6.37847 -1.34142 0
M  V30 1818 N 168.503 -0.877838 -1.30888 0
M  V30 1819 C 169.749 -0.493426 -1.96706 0
M  V30 1820 C 170.082 0.953504 -1.6918 0
M  V30 1821 O 169.357 1.67266 -0.992594 0
M  V30 1822 C 169.64 -0.760429 -3.51979 0
M  V30 1823 C 169.493 -2.25747 -3.89048 0
M  V30 1824 C 170.812 -0.232148 -4.39487 0
M  V30 1825 H 167.931 -0.180746 -0.714493 0
M  V30 1826 H 170.573 -1.10052 -1.54882 0
M  V30 1827 H 168.723 -0.243715 -3.87735 0
M  V30 1828 H 170.395 -2.84204 -3.63354 0
M  V30 1829 H 168.638 -2.72694 -3.37373 0
M  V30 1830 H 169.309 -2.39491 -4.97341 0
M  V30 1831 H 171.785 -0.674314 -4.106 0
M  V30 1832 H 170.661 -0.448355 -5.47066 0
M  V30 1833 H 170.922 0.866297 -4.33529 0
M  V30 1834 N 169.982 1.44106 -0.638065 0
M  V30 1835 C 170.912 2.33448 0.0494287 0
M  V30 1836 C 171.893 1.48606 0.827672 0
M  V30 1837 O 173.078 1.77308 0.792173 0
M  V30 1838 C 170.208 3.31771 1.02691 0
M  V30 1839 C 169.162 4.26485 0.359823 0
M  V30 1840 C 168.488 5.14729 1.44769 0
M  V30 1841 C 169.788 5.17056 -0.738296 0
M  V30 1842 H 171.482 2.91183 -0.696636 0
M  V30 1843 H 169.028 1.40014 -0.336456 0
M  V30 1844 H 170.981 3.93161 1.51666 0
M  V30 1845 H 169.705 2.7226 1.80395 0
M  V30 1846 H 168.364 3.66437 -0.10934 0
M  V30 1847 H 168.012 4.51566 2.21578 0
M  V30 1848 H 167.712 5.78913 1.00668 0
M  V30 1849 H 169.236 5.78991 1.93911 0
M  V30 1850 H 170.65 5.72342 -0.331354 0
M  V30 1851 H 169.047 5.89879 -1.10286 0
M  V30 1852 H 170.117 4.57652 -1.60258 0
M  V30 1853 N 171.46 0.379036 1.52974 0
M  V30 1854 C 172.423 -0.448865 2.24762 0
M  V30 1855 C 173.423 -0.998689 1.26027 0
M  V30 1856 O 174.613 -0.882313 1.50203 0
M  V30 1857 C 171.745 -1.62872 2.99476 0
M  V30 1858 H 172.938 0.179491 2.99362 0
M  V30 1859 H 170.491 0.13096 1.5575 0
M  V30 1860 H 171.226 -2.29479 2.29151 0
M  V30 1861 H 171.011 -1.24128 3.71934 0
M  V30 1862 H 172.501 -2.2151 3.5401 0
M  V30 1863 N 172.938 -1.57226 0.108567 0
M  V30 1864 C 174.163 -1.99604 -0.563303 0
M  V30 1865 C 174.588 -0.987563 -1.6009 0
M  V30 1866 O 173.946 0.0421687 -1.81251 0
M  V30 1867 C 173.994 -3.40902 -1.17552 0
M  V30 1868 O 173.098 -3.42896 -2.2912 0
M  V30 1869 H 172.439 -0.648704 -0.1417 0
M  V30 1870 H 174.969 -2.03679 0.193961 0
M  V30 1871 H 174.979 -3.78886 -1.51357 0
M  V30 1872 H 173.654 -4.1382 -0.415445 0
M  V30 1873 H 172.231 -3.1672 -1.96832 0
M  V30 1874 N 174.416 0.165178 -1.56732 0
M  V30 1875 C 175.665 0.879143 -1.81532 0
M  V30 1876 C 175.978 1.83144 -0.686842 0
M  V30 1877 O 177.184 2.58823 -0.819944 0
M  V30 1878 C 175.64 1.61388 -3.21686 0
M  V30 1879 C 175.248 0.704904 -4.4242 0
M  V30 1880 C 176.992 2.3157 -3.55774 0
M  V30 1881 C 174.899 1.44022 -5.73595 0
M  V30 1882 H 173.829 0.332033 -0.676957 0
M  V30 1883 H 176.48 0.132008 -1.83025 0
M  V30 1884 H 174.862 2.40599 -3.14529 0
M  V30 1885 H 176.036 -0.0506815 -4.60772 0
M  V30 1886 H 174.351 0.112419 -4.16248 0
M  V30 1887 H 176.948 2.8719 -4.51028 0
M  V30 1888 H 177.291 3.07201 -2.8095 0
M  V30 1889 H 177.824 1.59297 -3.64513 0
M  V30 1890 H 174.563 0.72612 -6.51466 0
M  V30 1891 H 174.083 2.16898 -5.5921 0
M  V30 1892 H 175.762 1.98606 -6.15764 0
M  V30 1893 N 175.894 1.51508 0.433938 0
M  V30 1894 C 177.171 1.54888 1.19453 0
M  V30 1895 C 177.551 0.315154 2.08734 0
M  V30 1896 O 176.899 -0.699558 2.17528 0
M  V30 1897 C 177.109 2.86467 1.99342 0
M  V30 1898 C 178.457 3.38545 2.56267 0
M  V30 1899 O 179.481 2.88041 2.0955 0
M  V30 1900 O 178.34 4.26675 3.41483 0
M  V30 1901 H 175.434 0.622863 0.544032 0
M  V30 1902 H 177.98 1.63823 0.442732 0
M  V30 1903 H 176.752 3.67718 1.33788 0
M  V30 1904 H 176.375 2.8071 2.8158 0
M  V30 1905 N 177.372 -0.689602 1.41712 0
M  V30 1906 C 178.6 -1.47827 1.44758 0
M  V30 1907 C 179.015 -1.88721 0.0545703 0
M  V30 1908 O 178.372 -1.57176 -0.927463 0
M  V30 1909 C 178.423 -2.73698 2.3616 0
M  V30 1910 O 178.144 -2.34524 3.7004 0
M  V30 1911 C 179.645 -3.67389 2.48072 0
M  V30 1912 H 176.865 -0.455357 0.49284 0
M  V30 1913 H 179.409 -0.848574 1.86063 0
M  V30 1914 H 177.564 -3.32891 1.98148 0
M  V30 1915 H 177.978 -3.15701 4.18847 0
M  V30 1916 H 179.452 -4.52475 3.16181 0
M  V30 1917 H 179.929 -4.12284 1.51388 0
M  V30 1918 H 180.535 -3.14097 2.86746 0
M  V30 1919 N 178.85 -1.27639 -0.924453 0
M  V30 1920 C 179.798 -1.10485 -2.04685 0
M  V30 1921 C 180.792 -0.0270421 -1.69378 0
M  V30 1922 O 181.998 -0.185008 -1.79047 0
M  V30 1923 H 178.373 -0.340546 -0.670472 0
M  V30 1924 H 180.344 -2.05566 -2.16298 0
M  V30 1925 C 179.093 -0.772229 -3.39016 0
M  V30 1926 H 178.416 -1.59351 -3.66671 0
M  V30 1927 H 179.856 -0.692097 -4.18313 0
M  V30 1928 C 178.315 0.523554 -3.32807 0
M  V30 1929 O 178.845 1.55702 -3.70297 0
M  V30 1930 N 177.051 0.520363 -2.85903 0
M  V30 1931 H 176.598 -0.32107 -2.55591 0
M  V30 1932 H 176.556 1.38742 -2.82131 0
M  V30 1933 N 180.328 1.1314 -1.09713 0
M  V30 1934 C 181.744 1.36477 -0.827423 0
M  V30 1935 C 181.944 1.93654 0.556817 0
M  V30 1936 O 181 2.15791 1.31112 0
M  V30 1937 C 182.313 2.31334 -1.92106 0
M  V30 1938 C 183.861 2.44943 -1.94864 0
M  V30 1939 C 184.336 3.4311 -3.0338 0
M  V30 1940 N 185.827 3.50662 -3.02639 0
M  V30 1941 C 186.562 4.2651 -3.83246 0
M  V30 1942 N 186.058 5.05485 -4.73768 0
M  V30 1943 N 187.851 4.2184 -3.71493 0
M  V30 1944 H 180.002 0.743807 -1.9895 0
M  V30 1945 H 182.265 0.389823 -0.864143 0
M  V30 1946 H 181.971 1.96483 -2.91698 0
M  V30 1947 H 181.845 3.31381 -1.80184 0
M  V30 1948 H 184.232 2.79079 -0.959099 0
M  V30 1949 H 184.313 1.4481 -2.10864 0
M  V30 1950 H 183.957 3.09704 -4.02549 0
M  V30 1951 H 183.887 4.43055 -2.84622 0
M  V30 1952 H 186.378 2.94315 -2.37039 0
M  V30 1953 H 186.691 5.60675 -5.3185 0
M  V30 1954 H 185.036 5.04708 -4.77802 0
M  V30 1955 H 188.227 3.5922 -3.00131 0
M  V30 1956 H 188.4 4.80697 -4.3455 0
M  V30 1957 N 181.806 0.884767 1.30421 0
M  V30 1958 C 183.031 0.517288 2.00845 0
M  V30 1959 C 183.456 -0.886779 1.65885 0
M  V30 1960 O 182.814 -1.58768 0.875354 0
M  V30 1961 C 182.862 0.698994 3.5376 0
M  V30 1962 O 181.966 -0.255208 4.1161 0
M  V30 1963 H 181.307 0.203872 0.631927 0
M  V30 1964 H 183.837 1.19225 1.66272 0
M  V30 1965 H 183.847 0.597912 4.03595 0
M  V30 1966 H 182.522 1.72271 3.78544 0
M  V30 1967 H 181.099 -0.10784 3.72744 0
M  V30 1968 N 183.284 -1.43765 0.645699 0
M  V30 1969 C 184.7 -1.56509 0.312591 0
M  V30 1970 C 184.9 -1.6307 -1.18365 0
M  V30 1971 O 183.956 -1.58167 -1.96824 0
M  V30 1972 C 185.269 -2.82968 1.01733 0
M  V30 1973 C 186.817 -2.96701 0.996865 0
M  V30 1974 C 187.292 -4.25982 1.68236 0
M  V30 1975 N 188.783 -4.32829 1.64964 0
M  V30 1976 C 189.518 -5.31613 2.14885 0
M  V30 1977 N 189.014 -6.36718 2.73061 0
M  V30 1978 N 190.807 -5.23217 2.05428 0
M  V30 1979 H 182.958 -1.3775 1.61675 0
M  V30 1980 H 185.221 -0.661067 0.679481 0
M  V30 1981 H 184.927 -2.84156 2.0724 0
M  V30 1982 H 184.801 -3.72957 0.564177 0
M  V30 1983 H 187.188 -2.95058 -0.0497719 0
M  V30 1984 H 187.269 -2.08022 1.48865 0
M  V30 1985 H 186.913 -4.28386 2.72852 0
M  V30 1986 H 186.843 -5.13545 1.16529 0
M  V30 1987 H 189.334 -3.57493 1.22503 0
M  V30 1988 H 189.647 -7.08401 3.08848 0
M  V30 1989 H 187.992 -6.37362 2.77118 0
M  V30 1990 H 191.183 -4.40019 1.59689 0
M  V30 1991 H 191.356 -6.00045 2.44643 0
M  V30 1992 N 184.763 -0.387143 -1.52771 0
M  V30 1993 C 185.695 0.484089 -2.2403 0
M  V30 1994 C 186.708 1.02849 -1.26198 0
M  V30 1995 O 187.897 0.931186 -1.52286 0
M  V30 1996 C 184.997 1.68337 -2.94136 0
M  V30 1997 C 184.17 1.26672 -4.18656 0
M  V30 1998 C 183.229 2.33045 -4.7178 0
M  V30 1999 O 182.255 1.94541 -5.34923 0
M  V30 2000 N 183.457 3.64929 -4.5145 0
M  V30 2001 H 186.222 -0.126404 -2.99433 0
M  V30 2002 H 183.783 -0.213392 -1.60488 0
M  V30 2003 H 185.775 2.39019 -3.26577 0
M  V30 2004 H 184.345 2.20025 -2.22053 0
M  V30 2005 H 183.565 0.388878 -3.92277 0
M  V30 2006 H 184.853 0.964964 -4.99566 0
M  V30 2007 H 184.251 3.98974 -4.01044 0
M  V30 2008 H 182.808 4.31651 -4.88386 0
M  V30 2009 N 186.241 1.57166 -0.116904 0
M  V30 2010 C 187.487 1.95412 0.542405 0
M  V30 2011 C 187.82 1.00019 1.66463 0
M  V30 2012 O 187.095 0.0370346 1.94465 0
M  V30 2013 C 187.378 3.43615 1.07708 0
M  V30 2014 C 187.231 4.49781 -0.0415868 0
M  V30 2015 C 188.55 3.93616 1.96861 0
M  V30 2016 H 185.669 0.710543 0.195696 0
M  V30 2017 H 188.311 1.89027 -0.192038 0
M  V30 2018 H 186.461 3.49187 1.70296 0
M  V30 2019 H 188.133 4.56308 -0.676793 0
M  V30 2020 H 186.376 4.28033 -0.705019 0
M  V30 2021 H 187.047 5.50733 0.373717 0
M  V30 2022 H 189.523 3.90335 1.44146 0
M  V30 2023 H 188.399 4.97838 2.3119 0
M  V30 2024 H 188.66 3.34188 2.89432 0
M  V30 2025 N 187.719 -0.156864 1.56817 0
M  V30 2026 C 188.649 -1.19589 2.00551 0
M  V30 2027 C 189.63 -1.4536 0.883426 0
M  V30 2028 O 190.815 -1.56449 1.15054 0
M  V30 2029 C 187.945 -2.53143 2.37773 0
M  V30 2030 C 186.899 -2.41913 3.53075 0
M  V30 2031 C 186.225 -3.80088 3.76081 0
M  V30 2032 C 187.525 -1.91157 4.86062 0
M  V30 2033 H 189.219 -0.832293 2.87599 0
M  V30 2034 H 186.765 -0.398918 1.38364 0
M  V30 2035 H 188.718 -3.26047 2.66967 0
M  V30 2036 H 187.442 -2.91319 1.4765 0
M  V30 2037 H 186.101 -1.71462 3.24031 0
M  V30 2038 H 185.749 -4.15683 2.83225 0
M  V30 2039 H 185.449 -3.73439 4.53671 0
M  V30 2040 H 186.973 -4.54556 4.0769 0
M  V30 2041 H 188.387 -2.53846 5.14038 0
M  V30 2042 H 186.784 -1.95422 5.67389 0
M  V30 2043 H 187.854 -0.866673 4.77092 0
M  V30 2044 N 189.197 -1.51736 -0.425897 0
M  V30 2045 C 190.127 -1.76827 -1.52494 0
M  V30 2046 C 191.108 -0.618524 -1.58456 0
M  V30 2047 O 192.293 -0.862416 -1.74 0
M  V30 2048 C 189.423 -1.90374 -2.90474 0
M  V30 2049 C 188.377 -3.0588 -2.99369 0
M  V30 2050 C 187.703 -3.04625 -4.3944 0
M  V30 2051 C 189.003 -4.45644 -2.72394 0
M  V30 2052 H 190.697 -2.68855 -1.31748 0
M  V30 2053 H 188.243 -1.29372 -0.632362 0
M  V30 2054 H 190.196 -2.0651 -3.6733 0
M  V30 2055 H 188.92 -0.95004 -3.12477 0
M  V30 2056 H 187.579 -2.89467 -2.24954 0
M  V30 2057 H 187.227 -2.0701 -4.58428 0
M  V30 2058 H 186.927 -3.82195 -4.46319 0
M  V30 2059 H 188.451 -3.22869 -5.18255 0
M  V30 2060 H 189.865 -4.62348 -3.38979 0
M  V30 2061 H 188.262 -5.25006 -2.9067 0
M  V30 2062 H 189.332 -4.54893 -1.67929 0
M  V30 2063 N 190.675 0.682077 -1.42076 0
M  V30 2064 C 191.607 1.80755 -1.40926 0
M  V30 2065 C 192.62 1.59833 -0.309398 0
M  V30 2066 O 193.809 1.69087 -0.572014 0
M  V30 2067 C 190.909 3.17744 -1.17865 0
M  V30 2068 C 190.082 3.65578 -2.40149 0
M  V30 2069 C 189.141 4.81277 -2.12742 0
M  V30 2070 O 188.167 4.92197 -2.85887 0
M  V30 2071 N 189.369 5.69474 -1.12602 0
M  V30 2072 H 192.134 1.82229 -2.37935 0
M  V30 2073 H 189.695 0.864903 -1.36861 0
M  V30 2074 H 191.687 3.9279 -0.9746 0
M  V30 2075 H 190.257 3.11214 -0.294068 0
M  V30 2076 H 189.477 2.81291 -2.76169 0
M  V30 2077 H 190.765 3.94278 -3.21593 0
M  V30 2078 H 190.163 5.63297 -0.520899 0
M  V30 2079 H 188.72 6.44363 -0.981842 0
M  V30 2080 N 192.153 1.28127 0.917671 0
M  V30 2081 C 193.401 1.14825 1.66312 0
M  V30 2082 C 193.722 -0.304379 1.9261 0
M  V30 2083 O 192.992 -1.21149 1.53947 0
M  V30 2084 H 191.572 0.421953 0.616413 0
M  V30 2085 H 194.234 1.608 1.10134 0
M  V30 2086 H 193.33 1.68489 2.62712 0
M  V30 2087 N 193.631 -1.12557 1.10312 0
M  V30 2088 C 194.877 -1.84515 0.855901 0
M  V30 2089 C 195.232 -1.82409 -0.611936 0
M  V30 2090 O 194.525 -1.25778 -1.44535 0
M  V30 2091 C 194.719 -3.31462 1.33669 0
M  V30 2092 C 194.548 -3.47879 2.84974 0
M  V30 2093 C 193.318 -3.61589 3.52961 0
M  V30 2094 C 195.516 -3.43152 3.83081 0
M  V30 2095 N 193.498 -3.66359 4.926 0
M  V30 2096 C 194.869 -3.54401 5.08724 0
M  V30 2097 C 196.924 -3.2661 3.75807 0
M  V30 2098 C 195.627 -3.50815 6.2795 0
M  V30 2099 C 197.653 -3.24335 4.94531 0
M  V30 2100 C 197.015 -3.36144 6.19021 0
M  V30 2101 H 193.114 -0.690967 0.366182 0
M  V30 2102 H 195.698 -1.34763 1.40524 0
M  V30 2103 H 193.869 -3.7976 0.814686 0
M  V30 2104 H 195.601 -3.91272 1.03385 0
M  V30 2105 H 192.356 -3.63652 3.03404 0
M  V30 2106 H 192.78 -3.72411 5.65366 0
M  V30 2107 H 197.422 -3.16375 2.80476 0
M  V30 2108 H 195.14 -3.5982 7.23571 0
M  V30 2109 H 198.726 -3.12719 4.9061 0
M  V30 2110 H 197.606 -3.34357 7.09348 0
M  V30 2111 N 195.109 -0.891671 -1.2995 0
M  V30 2112 C 196.019 -0.367691 -2.31701 0
M  V30 2113 C 197.035 0.533486 -1.6562 0
M  V30 2114 O 198.211 0.424997 -1.96865 0
M  V30 2115 C 195.276 0.403406 -3.44345 0
M  V30 2116 C 194.337 -0.528328 -4.26037 0
M  V30 2117 C 193.57 0.206063 -5.33302 0
M  V30 2118 O 193.793 1.43119 -5.52153 0
M  V30 2119 O 192.727 -0.447281 -6.00236 0
M  V30 2120 H 196.553 -1.21163 -2.78484 0
M  V30 2121 H 194.138 -0.655725 -1.34241 0
M  V30 2122 H 196.02 0.839753 -4.12948 0
M  V30 2123 H 194.695 1.22354 -2.99685 0
M  V30 2124 H 193.602 -1.01362 -3.60106 0
M  V30 2125 H 194.935 -1.31465 -4.74318 0
M  V30 2126 N 196.587 1.43421 -0.653314 0
M  V30 2127 C 197.864 1.95361 -0.0966581 0
M  V30 2128 C 198.244 1.59461 1.38331 0
M  V30 2129 O 197.592 0.879777 2.10884 0
M  V30 2130 C 197.802 3.47311 -0.342988 0
M  V30 2131 C 199.15 4.23875 -0.24798 0
M  V30 2132 O 200.174 3.55133 -0.275553 0
M  V30 2133 O 199.033 5.4623 -0.171771 0
M  V30 2134 H 196.127 0.826945 0.00956291 0
M  V30 2135 H 198.673 1.5336 -0.726558 0
M  V30 2136 H 197.445 3.66569 -1.36906 0
M  V30 2137 H 197.068 3.9631 0.319975 0
M  V30 2138 N 198.065 0.39524 1.52563 0
M  V30 2139 C 199.312 -0.185044 2.01653 0
M  V30 2140 C 199.64 -1.46317 1.28146 0
M  V30 2141 O 198.895 -1.9213 0.372074 0
M  V30 2142 C 199.194 -0.493444 3.53977 0
M  V30 2143 C 198.86 0.69384 4.4553 0
M  V30 2144 C 197.522 1.01954 4.70275 0
M  V30 2145 C 199.874 1.48785 4.99512 0
M  V30 2146 C 197.202 2.14069 5.46252 0
M  V30 2147 C 199.554 2.59965 5.76716 0
M  V30 2148 C 198.218 2.93037 5.99738 0
M  V30 2149 H 197.488 -0.0677123 0.7379 0
M  V30 2150 H 200.135 0.533807 1.8391 0
M  V30 2151 H 198.44 -1.29369 3.69825 0
M  V30 2152 H 200.137 -0.955163 3.89458 0
M  V30 2153 H 196.727 0.429987 4.26438 0
M  V30 2154 H 200.911 1.24946 4.80315 0
M  V30 2155 H 196.167 2.40056 5.62302 0
M  V30 2156 H 200.341 3.21887 6.17545 0
M  V30 2157 H 197.968 3.8003 6.58393 0
M  V30 2158 N 199.544 -1.57102 0.125237 0
M  V30 2159 C 200.507 -2.14471 -0.80838 0
M  V30 2160 C 201.507 -1.0811 -1.19033 0
M  V30 2161 O 202.697 -1.33856 -1.11482 0
M  V30 2162 C 199.829 -2.69005 -2.09402 0
M  V30 2163 H 201.022 -2.98297 -0.309696 0
M  V30 2164 H 198.575 -1.55807 -0.124051 0
M  V30 2165 H 199.31 -1.88785 -2.63687 0
M  V30 2166 H 199.095 -3.46799 -1.82957 0
M  V30 2167 H 200.585 -3.13278 -2.76128 0
M  V30 2168 N 201.022 0.148545 -1.56898 0
M  V30 2169 C 201.932 1.20293 -2.01412 0
M  V30 2170 C 202.948 1.47107 -0.929273 0
M  V30 2171 O 204.124 1.58807 -1.23863 0
M  V30 2172 C 201.189 2.51682 -2.38447 0
M  V30 2173 C 200.25 2.32529 -3.60872 0
M  V30 2174 C 199.483 3.57653 -3.96132 0
M  V30 2175 O 199.706 4.63771 -3.32073 0
M  V30 2176 O 198.64 3.50408 -4.89385 0
M  V30 2177 H 202.466 0.855025 -2.91416 0
M  V30 2178 H 200.051 0.357151 -1.45068 0
M  V30 2179 H 201.933 3.29147 -2.63135 0
M  V30 2180 H 200.608 2.86006 -1.51599 0
M  V30 2181 H 199.515 1.53019 -3.41373 0
M  V30 2182 H 200.848 2.03121 -4.48333 0
M  V30 2183 N 202.5 1.5196 0.417844 0
M  V30 2184 C 203.911 1.57851 0.997 0
M  V30 2185 C 204.262 0.413714 1.91789 0
M  V30 2186 O 203.387 -0.467057 2.113 0
M  V30 2187 C 203.982 2.86085 1.81496 0
M  V30 2188 C 202.541 2.94483 2.34428 0
M  V30 2189 C 201.688 2.52707 1.14169 0
M  V30 2190 H 204.639 1.57455 0.198392 0
M  V30 2191 H 204.66 2.70947 2.67148 0
M  V30 2192 H 204.172 3.70842 1.14446 0
M  V30 2193 H 202.273 2.142 3.04875 0
M  V30 2194 H 202.386 3.98546 2.65891 0
M  V30 2195 H 200.75 2.06353 1.49301 0
M  V30 2196 H 201.533 3.39828 0.486999 0
M  V30 2197 N 203.978 -0.674533 1.42435 0
M  V30 2198 C 205.224 -1.43671 1.43131 0
M  V30 2199 C 205.557 -1.94142 0.0476021 0
M  V30 2200 O 204.832 -1.70924 -0.928188 0
M  V30 2201 C 205.115 -2.63355 2.45594 0
M  V30 2202 C 204.968 -2.18514 3.93156 0
M  V30 2203 C 206.287 -3.65571 2.45043 0
M  V30 2204 H 203.406 -0.521077 0.521198 0
M  V30 2205 H 206.048 -0.766551 1.7385 0
M  V30 2206 H 204.198 -3.2053 2.19528 0
M  V30 2207 H 205.87 -1.66504 4.30202 0
M  V30 2208 H 204.113 -1.50086 4.07009 0
M  V30 2209 H 204.784 -3.04484 4.60428 0
M  V30 2210 H 207.26 -3.18113 2.68223 0
M  V30 2211 H 206.136 -4.46893 3.18713 0
M  V30 2212 H 206.397 -4.16716 1.47649 0
M  V30 2213 N 205.456 -1.28612 -0.910864 0
M  V30 2214 C 206.733 -1.06632 -1.63979 0
M  V30 2215 C 207.113 0.393351 -2.07403 0
M  V30 2216 O 206.461 1.37999 -1.82122 0
M  V30 2217 C 206.671 -2.0436 -2.8291 0
M  V30 2218 C 208.019 -2.34666 -3.5386 0
M  V30 2219 O 209.043 -2.02467 -2.93062 0
M  V30 2220 O 207.902 -2.89631 -4.63439 0
M  V30 2221 H 204.996 -0.407737 -0.7195 0
M  V30 2222 H 207.542 -1.39942 -0.959914 0
M  V30 2223 H 206.314 -3.02727 -2.47936 0
M  V30 2224 H 205.937 -1.71714 -3.58609 0
M  V30 2225 N 206.934 1.1197 -1.10907 0
M  V30 2226 C 208.35 1.35591 -0.841852 0
M  V30 2227 C 208.55 1.94233 0.536246 0
M  V30 2228 O 207.606 2.1717 1.28816 0
M  V30 2229 C 208.919 2.29284 -1.94549 0
M  V30 2230 C 210.467 2.42862 -1.97451 0
M  V30 2231 C 210.942 3.39873 -3.07002 0
M  V30 2232 N 212.433 3.47433 -3.06341 0
M  V30 2233 C 213.168 4.22421 -3.87748 0
M  V30 2234 N 212.664 5.00432 -4.79103 0
M  V30 2235 N 214.457 4.17876 -3.75946 0
M  V30 2236 H 206.608 0.722664 -1.99728 0
M  V30 2237 H 208.871 0.380635 -0.868229 0
M  V30 2238 H 208.577 1.93378 -2.93765 0
M  V30 2239 H 208.451 3.29452 -1.83688 0
M  V30 2240 H 210.838 2.78046 -0.988645 0
M  V30 2241 H 210.919 1.42566 -2.12388 0
M  V30 2242 H 210.563 3.05417 -4.05811 0
M  V30 2243 H 210.493 4.40011 -2.89306 0
M  V30 2244 H 212.984 2.91784 -2.40147 0
M  V30 2245 H 213.297 5.55002 -5.37766 0
M  V30 2246 H 211.642 4.99612 -4.83128 0
M  V30 2247 H 214.833 3.56016 -3.03924 0
M  V30 2248 H 215.006 4.76061 -4.39624 0
M  V30 2249 N 208.412 0.89855 1.29475 0
M  V30 2250 C 209.661 0.519863 1.94885 0
M  V30 2251 C 209.974 -0.9383 1.71625 0
M  V30 2252 O 211.18 -1.42445 2.31131 0
M  V30 2253 C 209.636 0.878836 3.49005 0
M  V30 2254 C 209.244 2.35569 3.81066 0
M  V30 2255 C 210.988 0.570004 4.20656 0
M  V30 2256 C 208.895 2.65558 5.28425 0
M  V30 2257 H 207.825 0.190692 0.729488 0
M  V30 2258 H 210.476 1.09539 1.47219 0
M  V30 2259 H 208.858 0.232253 3.95318 0
M  V30 2260 H 210.032 3.04773 3.45616 0
M  V30 2261 H 208.347 2.63343 3.22552 0
M  V30 2262 H 210.944 0.770925 5.29113 0
M  V30 2263 H 211.287 -0.491404 4.1339 0
M  V30 2264 H 211.82 1.17438 3.8007 0
M  V30 2265 H 208.559 3.70493 5.40754 0
M  V30 2266 H 208.079 2.00977 5.65127 0
M  V30 2267 H 209.758 2.51765 5.96006 0
M  V30 2268 N 209.89 -1.43072 0.660911 0
M  V30 2269 C 211.136 -2.0202 0.177708 0
M  V30 2270 C 211.469 -1.52066 -1.20787 0
M  V30 2271 O 210.744 -0.716987 -1.80802 0
M  V30 2272 C 211.027 -3.59561 0.197019 0
M  V30 2273 C 210.88 -4.19727 1.61706 0
M  V30 2274 C 212.199 -4.37664 -0.462396 0
M  V30 2275 H 209.318 -0.734034 0.0660494 0
M  V30 2276 H 211.96 -1.70272 0.843058 0
M  V30 2277 H 210.11 -3.86739 -0.369527 0
M  V30 2278 H 211.782 -4.03553 2.23479 0
M  V30 2279 H 210.025 -3.76084 2.16201 0
M  V30 2280 H 210.696 -5.28834 1.58237 0
M  V30 2281 H 213.172 -4.16095 0.0197215 0
M  V30 2282 H 212.048 -5.47305 -0.418188 0
M  V30 2283 H 212.309 -4.14493 -1.53778 0
M  V30 2284 N 211.368 -0.403325 -1.52352 0
M  V30 2285 C 212.593 0.176499 -2.06648 0
M  V30 2286 C 213.018 1.38577 -1.27193 0
M  V30 2287 O 212.376 1.7879 -0.300637 0
M  V30 2288 C 212.424 0.511061 -3.5696 0
M  V30 2289 O 211.528 1.60294 -3.79973 0
M  V30 2290 H 210.869 0.0167337 -0.663789 0
M  V30 2291 H 213.399 -0.574848 -1.96359 0
M  V30 2292 H 213.409 0.771362 -4.00642 0
M  V30 2293 H 212.084 -0.37296 -4.14224 0
M  V30 2294 H 210.661 1.33526 -3.48174 0
M  V30 2295 N 212.846 1.57033 -0.133567 0
M  V30 2296 C 214.095 1.94861 0.520768 0
M  V30 2297 C 214.408 1.02012 1.66892 0
M  V30 2298 O 215.614 1.29365 2.38699 0
M  V30 2299 C 214.07 3.46362 0.977809 0
M  V30 2300 C 213.678 4.47773 -0.142674 0
M  V30 2301 C 215.422 3.93083 1.60269 0
M  V30 2302 C 213.329 5.90468 0.331883 0
M  V30 2303 H 212.259 0.727453 0.198315 0
M  V30 2304 H 214.91 1.82227 -0.215759 0
M  V30 2305 H 213.292 3.54282 1.7692 0
M  V30 2306 H 214.466 4.51536 -0.919317 0
M  V30 2307 H 212.781 4.10891 -0.675124 0
M  V30 2308 H 215.378 4.97121 1.96914 0
M  V30 2309 H 215.721 3.33876 2.48662 0
M  V30 2310 H 216.254 3.88025 0.876453 0
M  V30 2311 H 212.993 6.53463 -0.516341 0
M  V30 2312 H 212.513 5.90094 1.07469 0
M  V30 2313 H 214.192 6.42179 0.788332 0
M  V30 2314 N 214.325 -0.140222 1.56975 0
M  V30 2315 C 215.235 -1.19223 2.02047 0
M  V30 2316 C 216.251 -1.46612 0.937062 0
M  V30 2317 O 217.427 -1.58148 1.24704 0
M  V30 2318 C 214.492 -2.50414 2.39778 0
M  V30 2319 C 213.553 -2.30612 3.621 0
M  V30 2320 C 212.786 -3.55547 3.98023 0
M  V30 2321 O 213.009 -4.62004 3.34528 0
M  V30 2322 O 211.943 -3.47808 4.91237 0
M  V30 2323 H 215.769 -0.839559 2.91865 0
M  V30 2324 H 213.354 -0.349453 1.45256 0
M  V30 2325 H 215.236 -3.27747 2.64877 0
M  V30 2326 H 213.911 -2.85198 1.53114 0
M  V30 2327 H 212.818 -1.51207 3.4218 0
M  V30 2328 H 214.151 -2.00741 4.49404 0
M  V30 2329 N 215.803 -1.52179 -0.40978 0
M  V30 2330 C 216.766 -1.74853 -1.48186 0
M  V30 2331 C 217.766 -0.618417 -1.48433 0
M  V30 2332 O 218.956 -0.886286 -1.49969 0
M  V30 2333 C 216.088 -1.8303 -2.87598 0
M  V30 2334 H 217.281 -2.70559 -1.29374 0
M  V30 2335 H 214.834 -1.42586 -0.640233 0
M  V30 2336 H 215.569 -0.89236 -3.11781 0
M  V30 2337 H 215.354 -2.65187 -2.88822 0
M  V30 2338 H 216.844 -2.02316 -3.65319 0
M  V30 2339 N 217.281 0.66697 -1.42791 0
M  V30 2340 C 218.528 1.42699 -1.43678 0
M  V30 2341 C 218.856 1.94419 -0.0560425 0
M  V30 2342 O 218.111 1.7182 0.936831 0
M  V30 2343 C 218.41 2.6349 -2.4147 0
M  V30 2344 C 218.076 2.30267 -3.8767 0
M  V30 2345 C 216.738 2.20918 -4.27491 0
M  V30 2346 C 219.09 2.03435 -4.79858 0
M  V30 2347 C 216.418 1.82873 -5.57471 0
M  V30 2348 C 218.77 1.66892 -6.10188 0
M  V30 2349 C 217.434 1.56058 -6.49001 0
M  V30 2350 H 216.704 0.522171 -0.525755 0
M  V30 2351 H 219.351 0.759785 -1.75783 0
M  V30 2352 H 217.656 3.35279 -2.0272 0
M  V30 2353 H 219.353 3.21684 -2.39417 0
M  V30 2354 H 215.943 2.38449 -3.56146 0
M  V30 2355 H 220.127 2.09586 -4.49875 0
M  V30 2356 H 215.383 1.7306 -5.86396 0
M  V30 2357 H 219.557 1.45157 -6.81104 0
M  V30 2358 H 217.184 1.26348 -7.49627 0
M  V30 2359 N 218.759 1.29093 0.90403 0
M  V30 2360 C 219.669 1.15727 2.0407 0
M  V30 2361 C 220.685 0.0815308 1.73809 0
M  V30 2362 O 221.861 0.292749 1.99261 0
M  V30 2363 C 218.926 0.830424 3.36608 0
M  V30 2364 C 217.987 1.98955 3.80415 0
M  V30 2365 C 217.22 1.6782 5.06628 0
M  V30 2366 O 217.443 0.597105 5.67266 0
M  V30 2367 O 216.377 2.52486 5.46383 0
M  V30 2368 H 220.203 2.11171 2.18267 0
M  V30 2369 H 217.788 1.08504 1.027 0
M  V30 2370 H 219.67 0.662521 4.16159 0
M  V30 2371 H 218.345 -0.0942678 3.23563 0
M  V30 2372 H 217.252 2.21267 3.01648 0
M  V30 2373 H 218.585 2.89529 3.98037 0
M  V30 2374 N 220.237 -1.11381 1.11499 0
M  V30 2375 C 221.187 -2.15555 0.74298 0
M  V30 2376 C 222.171 -1.58894 -0.253276 0
M  V30 2377 O 223.363 -1.76897 -0.0602918 0
M  V30 2378 C 220.492 -3.42782 0.188481 0
M  V30 2379 C 219.578 -4.064 1.21244 0
M  V30 2380 N 219.969 -4.44864 2.40685 0
M  V30 2381 C 218.267 -4.3333 1.05552 0
M  V30 2382 C 218.968 -4.94715 3.05994 0
M  V30 2383 N 217.944 -4.90909 2.33472 0
M  V30 2384 H 221.746 -2.43074 1.65203 0
M  V30 2385 H 219.26 -1.28401 0.994329 0
M  V30 2386 H 221.257 -4.16789 -0.0961693 0
M  V30 2387 H 219.917 -3.16727 -0.715149 0
M  V30 2388 H 220.928 -4.36876 2.78136 0
M  V30 2389 H 217.605 -4.1698 0.208372 0
M  V30 2390 H 218.995 -5.34103 4.07656 0
M  V30 2391 N 221.715 -0.905404 -1.28997 0
M  V30 2392 C 222.962 -0.534248 -1.95325 0
M  V30 2393 C 223.29 0.920535 -1.71337 0
M  V30 2394 O 222.545 1.66861 -1.02254 0
M  V30 2395 C 222.844 -0.779906 -3.48787 0
M  V30 2396 C 222.51 -2.21293 -3.92861 0
M  V30 2397 C 221.172 -2.60475 -4.04606 0
M  V30 2398 C 223.524 -3.14587 -4.15553 0
M  V30 2399 C 220.852 -3.9212 -4.36416 0
M  V30 2400 C 223.204 -4.45787 -4.48839 0
M  V30 2401 C 221.868 -4.84834 -4.58794 0
M  V30 2402 H 221.138 -0.195495 -0.714747 0
M  V30 2403 H 223.785 -1.14514 -1.53488 0
M  V30 2404 H 222.09 -0.0861365 -3.91705 0
M  V30 2405 H 223.787 -0.472029 -3.98212 0
M  V30 2406 H 220.377 -1.89887 -3.84241 0
M  V30 2407 H 224.561 -2.85528 -4.0594 0
M  V30 2408 H 219.817 -4.22086 -4.42327 0
M  V30 2409 H 223.991 -5.18098 -4.65346 0
M  V30 2410 H 221.618 -5.86877 -4.83197 0
M  V30 2411 N 223.193 1.4272 -0.668489 0
M  V30 2412 C 224.441 2.01226 -0.187769 0
M  V30 2413 C 224.762 1.53092 1.2078 0
M  V30 2414 O 224.032 0.74993 1.80977 0
M  V30 2415 H 222.612 0.744041 -0.0664272 0
M  V30 2416 H 225.274 1.74723 -0.863583 0
M  V30 2417 H 224.37 3.11556 -0.184166 0
M  V30 2418 N 224.671 0.411399 1.52136 0
M  V30 2419 C 225.621 -0.430376 2.23901 0
M  V30 2420 C 226.605 -1.0116 1.25121 0
M  V30 2421 O 227.797 -0.934044 1.50348 0
M  V30 2422 C 224.926 -1.54527 3.06556 0
M  V30 2423 C 224.012 -0.9747 4.12747 0
M  V30 2424 N 224.403 -0.130991 5.0563 0
M  V30 2425 C 222.701 -1.24497 4.28271 0
M  V30 2426 C 223.402 0.186689 5.814 0
M  V30 2427 N 222.378 -0.42304 5.41951 0
M  V30 2428 H 226.18 0.220509 2.93072 0
M  V30 2429 H 223.694 0.221952 1.60876 0
M  V30 2430 H 225.691 -2.16093 3.56524 0
M  V30 2431 H 224.351 -2.19875 2.38925 0
M  V30 2432 H 225.362 0.23349 5.17373 0
M  V30 2433 H 222.039 -1.89787 3.7187 0
M  V30 2434 H 223.429 0.871673 6.66222 0
M  V30 2435 N 226.149 -1.5696 0.141893 0
M  V30 2436 C 227.059 -2.20066 -0.812905 0
M  V30 2437 C 228.075 -1.18344 -1.27557 0
M  V30 2438 O 229.251 -1.50902 -1.33381 0
M  V30 2439 C 226.316 -2.80583 -2.03652 0
M  V30 2440 C 225.377 -3.97414 -1.62359 0
M  V30 2441 C 224.61 -4.55036 -2.78887 0
M  V30 2442 O 224.833 -4.11538 -3.94959 0
M  V30 2443 O 223.767 -5.45376 -2.54653 0
M  V30 2444 H 227.593 -3.02157 -0.305746 0
M  V30 2445 H 225.178 -1.49159 -0.0848799 0
M  V30 2446 H 227.06 -3.19067 -2.75272 0
M  V30 2447 H 225.735 -2.01508 -2.5333 0
M  V30 2448 H 224.642 -3.63656 -0.877775 0
M  V30 2449 H 225.975 -4.77994 -1.17401 0
M  V30 2450 N 227.627 0.131896 -1.57047 0
M  V30 2451 C 228.575 1.18146 -2.0036 0
M  V30 2452 C 229.569 1.43614 -0.898406 0
M  V30 2453 O 230.775 1.43729 -1.08361 0
M  V30 2454 H 227.15 0.398042 -0.638018 0
M  V30 2455 H 229.121 0.789564 -2.87765 0
M  V30 2456 C 227.87 2.50341 -2.41298 0
M  V30 2457 H 227.193 2.31578 -3.25902 0
M  V30 2458 H 228.633 3.22371 -2.75414 0
M  V30 2459 C 227.092 3.11984 -1.27153 0
M  V30 2460 O 227.622 3.97484 -0.580459 0
M  V30 2461 N 225.828 2.71662 -1.03189 0
M  V30 2462 H 225.375 2.02231 -1.59564 0
M  V30 2463 H 225.333 3.13238 -0.270077 0
M  V30 2464 N 229.106 1.52395 0.401703 0
M  V30 2465 C 230.336 1.70429 1.1678 0
M  V30 2466 C 230.744 0.416702 1.84554 0
M  V30 2467 O 230.087 -0.617697 1.73003 0
M  V30 2468 C 230.149 2.78919 2.26814 0
M  V30 2469 C 229.813 4.20437 1.79113 0
M  V30 2470 C 230.81 5.04028 1.27482 0
M  V30 2471 C 228.495 4.66704 1.85722 0
M  V30 2472 C 230.489 6.31961 0.830913 0
M  V30 2473 C 228.176 5.94625 1.40942 0
M  V30 2474 C 229.174 6.77082 0.897128 0
M  V30 2475 O 228.862 8.02607 0.455822 0
M  V30 2476 H 228.594 0.574272 0.356634 0
M  V30 2477 H 231.148 1.99767 0.477724 0
M  V30 2478 H 229.378 2.44973 2.99207 0
M  V30 2479 H 231.067 2.8548 2.88541 0
M  V30 2480 H 231.833 4.69471 1.21744 0
M  V30 2481 H 227.712 4.0262 2.24539 0
M  V30 2482 H 231.256 6.96271 0.430368 0
M  V30 2483 H 227.153 6.28688 1.46362 0
M  V30 2484 H 227.921 8.16453 0.578457 0
M  V30 2485 N 230.584 -0.659388 1.43143 0
M  V30 2486 C 231.861 -1.41627 1.34912 0
M  V30 2487 C 232.241 -2.11099 -0.00607785 0
M  V30 2488 O 231.589 -2.04353 -1.02236 0
M  V30 2489 C 231.799 -2.40604 2.52805 0
M  V30 2490 C 233.147 -3.04789 2.95616 0
M  V30 2491 O 234.171 -2.50932 2.52807 0
M  V30 2492 O 233.03 -4.02421 3.69756 0
M  V30 2493 H 230.124 -0.63246 0.532844 0
M  V30 2494 H 232.67 -0.686814 1.5518 0
M  V30 2495 H 231.442 -1.88174 3.43083 0
M  V30 2496 H 231.065 -3.21009 2.34604 0
M  V30 2497 N 232.062 -1.29571 -0.897171 0
M  V30 2498 C 233.339 -1.08365 -1.62839 0
M  V30 2499 C 233.719 0.371331 -2.07808 0
M  V30 2500 O 233.067 1.3606 -1.83576 0
M  V30 2501 C 233.277 -2.0735 -2.80726 0
M  V30 2502 C 234.625 -2.38406 -3.51351 0
M  V30 2503 O 235.649 -2.05564 -2.90898 0
M  V30 2504 O 234.508 -2.9453 -4.60341 0
M  V30 2505 H 231.602 -0.415345 -0.715134 0
M  V30 2506 H 234.148 -1.40952 -0.945018 0
M  V30 2507 H 232.92 -3.05339 -2.44711 0
M  V30 2508 H 232.543 -1.75507 -3.56767 0
M  V30 2509 N 233.54 1.10788 -1.12088 0
M  V30 2510 C 234.787 1.82671 -0.873931 0
M  V30 2511 C 235.115 1.85004 0.600311 0
M  V30 2512 O 234.37 1.30365 1.45957 0
M  V30 2513 C 234.669 3.29294 -1.38926 0
M  V30 2514 C 234.335 3.47113 -2.87791 0
M  V30 2515 C 232.997 3.51684 -3.28439 0
M  V30 2516 C 235.349 3.52808 -3.83635 0
M  V30 2517 C 232.677 3.59513 -4.63646 0
M  V30 2518 C 235.029 3.62169 -5.18668 0
M  V30 2519 C 233.693 3.65003 -5.58864 0
M  V30 2520 H 232.963 0.668441 -0.319794 0
M  V30 2521 H 235.61 1.30613 -1.40045 0
M  V30 2522 H 233.915 3.83894 -0.783122 0
M  V30 2523 H 235.612 3.83416 -1.17443 0
M  V30 2524 H 232.202 3.4423 -2.5535 0
M  V30 2525 H 236.386 3.4853 -3.53328 0
M  V30 2526 H 231.642 3.59987 -4.94185 0
M  V30 2527 H 235.816 3.6552 -5.92763 0
M  V30 2528 H 233.443 3.70822 -6.63623 0
M  V30 2529 N 235.018 0.912232 1.28515 0
M  V30 2530 C 236.265 0.544599 1.95039 0
M  V30 2531 C 236.593 -0.911435 1.71823 0
M  V30 2532 O 235.848 -1.66317 1.03137 0
M  V30 2533 C 236.147 0.798392 3.48368 0
M  V30 2534 C 235.813 2.23374 3.91682 0
M  V30 2535 C 234.475 2.62617 4.03219 0
M  V30 2536 C 236.827 3.16786 4.13879 0
M  V30 2537 C 234.155 3.94429 4.3433 0
M  V30 2538 C 236.507 4.48161 4.46469 0
M  V30 2539 C 235.171 4.8726 4.56217 0
M  V30 2540 H 234.441 0.199283 0.7137 0
M  V30 2541 H 237.088 1.15327 1.52879 0
M  V30 2542 H 235.393 0.106908 3.91654 0
M  V30 2543 H 237.09 0.493141 3.97956 0
M  V30 2544 H 233.68 1.91922 3.83228 0
M  V30 2545 H 237.864 2.87677 4.0442 0
M  V30 2546 H 233.12 4.24426 4.40082 0
M  V30 2547 H 237.294 5.20559 4.62592 0
M  V30 2548 H 234.921 5.89431 4.80078 0
M  V30 2549 N 236.496 -1.42363 0.676048 0
M  V30 2550 C 237.443 -2.308 -0.00150904 0
M  V30 2551 C 238.413 -1.46032 -0.791444 0
M  V30 2552 O 239.598 -1.74861 -0.76344 0
M  V30 2553 C 236.738 -3.31883 -0.945919 0
M  V30 2554 C 235.851 -4.31741 -0.149675 0
M  V30 2555 C 234.986 -5.19898 -1.08995 0
M  V30 2556 C 234.025 -6.11434 -0.285465 0
M  V30 2557 N 233.162 -6.92138 -1.17851 0
M  V30 2558 H 238.002 -2.88187 0.758455 0
M  V30 2559 H 235.539 -1.41952 0.38576 0
M  V30 2560 H 237.497 -3.89019 -1.50731 0
M  V30 2561 H 236.127 -2.76093 -1.6725 0
M  V30 2562 H 235.179 -3.76713 0.528359 0
M  V30 2563 H 236.491 -4.96534 0.474866 0
M  V30 2564 H 235.645 -5.81772 -1.72123 0
M  V30 2565 H 234.384 -4.55284 -1.74837 0
M  V30 2566 H 233.389 -5.48627 0.359018 0
M  V30 2567 H 234.614 -6.78097 0.368883 0
M  V30 2568 H 232.56 -6.30152 -1.82332 0
M  V30 2569 H 232.477 -7.53542 -0.609082 0
M  V30 2570 H 233.745 -7.58499 -1.79722 0
M  V30 2571 N 237.974 -0.419461 -1.51915 0
M  V30 2572 C 239.39 -0.0708431 -1.59443 0
M  V30 2573 C 239.59 1.41796 -1.43164 0
M  V30 2574 O 238.646 2.18596 -1.26381 0
M  V30 2575 C 239.959 -0.574991 -2.95151 0
M  V30 2576 C 241.507 -0.533867 -3.08413 0
M  V30 2577 C 241.982 -1.01469 -4.46618 0
M  V30 2578 N 243.473 -0.971939 -4.52888 0
M  V30 2579 C 244.208 -1.31505 -5.58116 0
M  V30 2580 N 243.704 -1.73014 -6.70849 0
M  V30 2581 N 245.497 -1.23436 -5.48379 0
M  V30 2582 H 237.648 -1.38836 -1.60743 0
M  V30 2583 H 239.911 -0.570998 -0.756747 0
M  V30 2584 H 239.617 -1.61597 -3.12377 0
M  V30 2585 H 239.491 0.00979777 -3.77199 0
M  V30 2586 H 241.878 0.498086 -2.90866 0
M  V30 2587 H 241.959 -1.15484 -2.28248 0
M  V30 2588 H 241.603 -2.04502 -4.6491 0
M  V30 2589 H 241.533 -0.370433 -5.25295 0
M  V30 2590 H 244.024 -0.666893 -3.71969 0
M  V30 2591 H 244.337 -1.97479 -7.47143 0
M  V30 2592 H 242.682 -1.76926 -6.72103 0
M  V30 2593 H 245.873 -0.908869 -4.59192 0
M  V30 2594 H 246.046 -1.50506 -6.30279 0
M  V30 2595 N 239.452 1.56882 -0.150215 0
M  V30 2596 C 240.692 1.98119 0.502804 0
M  V30 2597 C 241.056 1.03327 1.61826 0
M  V30 2598 O 242.257 1.33621 2.33236 0
M  V30 2599 C 240.528 3.43329 0.992988 0
M  V30 2600 S 242.087 4.0659 1.65015 0
M  V30 2601 H 238.905 0.692189 0.162467 0
M  V30 2602 H 241.507 1.93988 -0.242689 0
M  V30 2603 H 240.211 4.10046 0.170436 0
M  V30 2604 H 239.742 3.5118 1.77303 0
M  V30 2605 H 241.757 3.99906 2.93752 0
M  V30 2606 N 240.93 -0.123565 1.57115 0
M  V30 2607 C 242.177 -0.832153 1.84612 0
M  V30 2608 C 242.505 -1.80093 0.734627 0
M  V30 2609 O 241.76 -1.93766 -0.27442 0
M  V30 2610 C 242.059 -1.62016 3.18568 0
M  V30 2611 C 241.725 -0.796084 4.43817 0
M  V30 2612 C 240.387 -0.568816 4.77826 0
M  V30 2613 C 242.739 -0.221364 5.2073 0
M  V30 2614 C 240.067 0.243499 5.86194 0
M  V30 2615 C 242.419 0.578117 6.29953 0
M  V30 2616 C 241.083 0.815744 6.62497 0
M  V30 2617 H 240.353 -0.304507 0.675542 0
M  V30 2618 H 243 -0.0947248 1.91266 0
M  V30 2619 H 241.305 -2.42837 3.0747 0
M  V30 2620 H 243.002 -2.17231 3.37064 0
M  V30 2621 H 239.592 -0.983307 4.17168 0
M  V30 2622 H 243.776 -0.384173 4.94811 0
M  V30 2623 H 239.032 0.436871 6.09837 0
M  V30 2624 H 243.206 1.03046 6.88734 0
M  V30 2625 H 240.833 1.44701 7.46301 0
M  V30 2626 N 242.408 -1.52605 -0.393616 0
M  V30 2627 C 243.356 -1.77688 -1.50099 0
M  V30 2628 C 244.35 -0.644615 -1.56656 0
M  V30 2629 O 245.556 -0.826997 -1.59877 0
M  V30 2630 H 241.931 -0.562159 -0.499481 0
M  V30 2631 H 243.902 -2.7043 -1.26135 0
M  V30 2632 C 242.651 -1.95858 -2.87289 0
M  V30 2633 H 241.974 -2.8241 -2.82992 0
M  V30 2634 H 243.414 -2.174 -3.64024 0
M  V30 2635 C 241.873 -0.729848 -3.28899 0
M  V30 2636 O 242.403 0.0949217 -4.01588 0
M  V30 2637 N 240.609 -0.561283 -2.85128 0
M  V30 2638 H 240.156 -1.23357 -2.26143 0
M  V30 2639 H 240.114 0.2595 -3.13327 0
M  V30 2640 N 243.887 0.651787 -1.4349 0
M  V30 2641 C 245.136 1.40754 -1.44469 0
M  V30 2642 C 245.449 1.95463 -0.0731845 0
M  V30 2643 O 246.655 2.71471 0.0395721 0
M  V30 2644 C 245.111 2.54735 -2.5424 0
M  V30 2645 C 244.719 2.06628 -3.97504 0
M  V30 2646 C 246.463 3.32092 -2.64414 0
M  V30 2647 C 244.37 3.17829 -4.98737 0
M  V30 2648 H 243.3 0.528862 -0.53742 0
M  V30 2649 H 245.951 0.703365 -1.69485 0
M  V30 2650 H 244.333 3.2763 -2.22428 0
M  V30 2651 H 245.507 1.40734 -4.38783 0
M  V30 2652 H 243.822 1.42146 -3.91387 0
M  V30 2653 H 246.419 4.14952 -3.37223 0
M  V30 2654 H 246.762 3.80217 -1.69532 0
M  V30 2655 H 247.295 2.66279 -2.95534 0
M  V30 2656 H 244.034 2.74671 -5.95177 0
M  V30 2657 H 243.554 3.82429 -4.62069 0
M  V30 2658 H 245.233 3.82937 -5.21505 0
M  V30 2659 N 245.365 1.30045 0.890287 0
M  V30 2660 C 246.298 1.10301 1.99772 0
M  V30 2661 C 247.276 0.0121631 1.62595 0
M  V30 2662 O 248.46 0.16469 1.87779 0
M  V30 2663 C 245.587 0.681125 3.31781 0
M  V30 2664 C 244.633 1.77206 3.87944 0
M  V30 2665 S 245.466 3.37335 4.15891 0
M  V30 2666 C 246.622 2.97036 5.50927 0
M  V30 2667 H 246.855 2.04057 2.16213 0
M  V30 2668 H 244.388 1.14299 1.03804 0
M  V30 2669 H 246.346 0.444439 4.08087 0
M  V30 2670 H 245.007 -0.236981 3.13205 0
M  V30 2671 H 244.2 1.42903 4.83316 0
M  V30 2672 H 243.802 1.96275 3.18358 0
M  V30 2673 H 246.094 2.44666 6.31779 0
M  V30 2674 H 247.037 3.91296 5.90164 0
M  V30 2675 H 247.445 2.35057 5.13233 0
M  V30 2676 N 246.843 -1.10192 1.12674 0
M  V30 2677 C 248.254 -1.63707 0.897604 0
M  V30 2678 C 248.605 -1.87812 -0.567546 0
M  V30 2679 O 247.73 -1.62196 -1.43253 0
M  V30 2680 C 248.325 -2.974 1.62292 0
M  V30 2681 C 246.884 -3.47772 1.43986 0
M  V30 2682 C 246.031 -2.22332 1.65722 0
M  V30 2683 H 248.982 -0.936587 1.28116 0
M  V30 2684 H 249.003 -3.64986 1.07541 0
M  V30 2685 H 248.515 -2.79824 2.68924 0
M  V30 2686 H 246.616 -3.70487 0.396206 0
M  V30 2687 H 246.729 -4.25723 2.19765 0
M  V30 2688 H 245.093 -2.30599 1.08149 0
M  V30 2689 H 245.876 -2.07285 2.73657 0
M  V30 2690 N 248.321 -0.919034 -1.28029 0
M  V30 2691 C 249.284 -0.416182 -2.2539 0
M  V30 2692 C 250.284 0.460438 -1.54067 0
M  V30 2693 O 251.474 0.262744 -1.72207 0
M  V30 2694 C 248.606 0.402707 -3.38513 0
M  V30 2695 H 249.799 -1.27629 -2.71387 0
M  V30 2696 H 247.352 -0.698919 -1.39803 0
M  V30 2697 H 248.087 1.282 -2.97885 0
M  V30 2698 H 247.872 -0.225698 -3.9145 0
M  V30 2699 H 249.362 0.745191 -4.10897 0
M  V30 2700 N 249.799 1.42003 -0.683588 0
M  V30 2701 C 251.076 1.95112 -0.138075 0
M  V30 2702 C 251.456 1.62359 1.34918 0
M  V30 2703 O 250.804 0.924311 2.08971 0
M  V30 2704 C 251.014 3.46505 -0.416581 0
M  V30 2705 C 252.362 4.23254 -0.337834 0
M  V30 2706 O 253.386 3.54468 -0.35082 0
M  V30 2707 O 252.245 5.45743 -0.287596 0
M  V30 2708 H 249.339 0.826961 -0.00797996 0
M  V30 2709 H 251.885 1.51784 -0.758924 0
M  V30 2710 H 250.657 3.63582 -1.4465 0
M  V30 2711 H 250.28 3.969 0.235839 0
M  V30 2712 N 251.277 0.427512 1.51691 0
M  V30 2713 C 252.525 -0.141948 2.01601 0
M  V30 2714 C 252.846 -1.44067 1.31414 0
M  V30 2715 O 252.116 -1.90763 0.445658 0
M  V30 2716 H 250.696 -0.0554468 0.744939 0
M  V30 2717 H 253.358 0.567968 1.86441 0
M  V30 2718 H 252.454 -0.324913 3.10404 0
M  V30 2719 N 252.755 -1.56801 0.158532 0
M  V30 2720 C 254.171 -1.5837 -0.197774 0
M  V30 2721 C 254.371 -1.17334 -1.63814 0
M  V30 2722 O 253.427 -0.878988 -2.36707 0
M  V30 2723 C 254.74 -3.00615 0.0714459 0
M  V30 2724 C 256.288 -3.12999 0.00864533 0
M  V30 2725 C 256.763 -4.57313 0.250685 0
M  V30 2726 N 258.254 -4.62777 0.198014 0
M  V30 2727 C 258.989 -5.72271 0.359642 0
M  V30 2728 N 258.485 -6.90371 0.579625 0
M  V30 2729 N 260.278 -5.61318 0.296438 0
M  V30 2730 H 252.429 -1.81765 1.09887 0
M  V30 2731 H 254.692 -0.841849 0.435884 0
M  V30 2732 H 254.398 -3.35068 1.06874 0
M  V30 2733 H 254.272 -3.71683 -0.642757 0
M  V30 2734 H 256.659 -2.7838 -0.979217 0
M  V30 2735 H 256.74 -2.44393 0.755359 0
M  V30 2736 H 256.384 -4.92639 1.2357 0
M  V30 2737 H 256.314 -5.24061 -0.516489 0
M  V30 2738 H 258.805 -3.77885 0.0331115 0
M  V30 2739 H 259.118 -7.69689 0.69275 0
M  V30 2740 H 257.463 -6.92264 0.616087 0
M  V30 2741 H 260.654 -4.67932 0.125258 0
M  V30 2742 H 260.827 -6.46599 0.425831 0
M  V30 2743 N 254.233 0.115231 -1.57178 0
M  V30 2744 C 255.166 1.17166 -1.95825 0
M  V30 2745 C 256.144 1.39912 -0.828463 0
M  V30 2746 O 257.328 1.54004 -1.08697 0
M  V30 2747 C 254.455 2.52478 -2.25771 0
M  V30 2748 C 253.501 2.46136 -3.48309 0
M  V30 2749 S 254.334 1.89736 -5.0076 0
M  V30 2750 C 255.49 3.26713 -5.33863 0
M  V30 2751 H 255.723 0.842103 -2.85124 0
M  V30 2752 H 253.256 0.322136 -1.51002 0
M  V30 2753 H 255.214 3.30332 -2.43702 0
M  V30 2754 H 253.875 2.82609 -1.37079 0
M  V30 2755 H 253.068 3.45819 -3.66641 0
M  V30 2756 H 252.67 1.76404 -3.29784 0
M  V30 2757 H 254.962 4.22935 -5.29275 0
M  V30 2758 H 255.905 3.13205 -6.35065 0
M  V30 2759 H 256.313 3.25316 -4.61335 0
M  V30 2760 N 255.711 1.52812 0.385517 0
M  V30 2761 C 256.939 1.71907 1.15133 0
M  V30 2762 C 257.354 0.439004 1.83625 0
M  V30 2763 O 256.711 -0.586765 1.7281 0
M  V30 2764 C 256.762 2.87099 2.19673 0
M  V30 2765 O 256.483 4.10151 1.53973 0
M  V30 2766 C 257.984 3.17902 3.08955 0
M  V30 2767 H 255.204 0.575479 0.345057 0
M  V30 2768 H 257.748 1.99476 0.45052 0
M  V30 2769 H 255.903 2.61982 2.85384 0
M  V30 2770 H 256.317 4.74514 2.23465 0
M  V30 2771 H 257.791 4.01959 3.7833 0
M  V30 2772 H 258.268 2.3243 3.72657 0
M  V30 2773 H 258.874 3.44871 2.48885 0
M  V30 2774 N 257.189 -0.644168 1.43834 0
M  V30 2775 C 258.435 -1.40603 1.46146 0
M  V30 2776 C 258.768 -1.93997 0.0887717 0
M  V30 2777 O 258.043 -1.72854 -0.891724 0
M  V30 2778 C 258.326 -2.58086 2.51124 0
M  V30 2779 C 258.179 -2.10126 3.97702 0
M  V30 2780 C 259.498 -3.60291 2.52742 0
M  V30 2781 H 256.617 -0.509905 0.532134 0
M  V30 2782 H 259.259 -0.729502 1.75437 0
M  V30 2783 H 257.409 -3.15801 2.26278 0
M  V30 2784 H 259.081 -1.57342 4.33637 0
M  V30 2785 H 257.324 -1.41419 4.10101 0
M  V30 2786 H 257.995 -2.94649 4.66783 0
M  V30 2787 H 260.471 -3.12352 2.7491 0
M  V30 2788 H 259.347 -4.40032 3.28121 0
M  V30 2789 H 259.608 -4.1349 1.56455 0
M  V30 2790 N 258.668 -1.30515 -0.883378 0
M  V30 2791 C 259.6 -1.12846 -1.99496 0
M  V30 2792 C 260.613 -0.0712571 -1.62644 0
M  V30 2793 O 261.802 -0.317432 -1.75655 0
M  V30 2794 C 258.902 -0.699123 -3.3161 0
M  V30 2795 C 258.075 -1.83842 -3.96889 0
M  V30 2796 C 257.134 -1.39737 -5.07307 0
M  V30 2797 O 256.16 -2.10485 -5.28852 0
M  V30 2798 N 257.362 -0.277279 -5.79837 0
M  V30 2799 H 260.127 -2.08585 -2.15203 0
M  V30 2800 H 257.688 -1.22672 -1.05656 0
M  V30 2801 H 259.68 -0.387044 -4.02845 0
M  V30 2802 H 258.25 0.166276 -3.12157 0
M  V30 2803 H 257.47 -2.31853 -3.18807 0
M  V30 2804 H 258.758 -2.60187 -4.37241 0
M  V30 2805 H 258.156 0.3122 -5.64838 0
M  V30 2806 H 256.713 -0.0246623 -6.51795 0
M  V30 2807 N 260.146 1.09593 -1.13257 0
M  V30 2808 C 261.371 1.8604 -0.916732 0
M  V30 2809 C 261.796 1.80504 0.529146 0
M  V30 2810 O 261.154 1.18127 1.37534 0
M  V30 2811 C 261.202 3.32017 -1.40703 0
M  V30 2812 O 260.306 4.08141 -0.591153 0
M  V30 2813 H 259.647 0.576943 -0.328683 0
M  V30 2814 H 262.177 1.38405 -1.50682 0
M  V30 2815 H 262.187 3.82865 -1.4099 0
M  V30 2816 H 260.862 3.35361 -2.45979 0
M  V30 2817 H 259.439 3.67084 -0.656005 0
M  V30 2818 N 261.624 0.925811 1.2754 0
M  V30 2819 C 262.849 0.580924 1.99098 0
M  V30 2820 C 263.274 -0.833555 1.68622 0
M  V30 2821 O 262.632 -1.55903 0.925422 0
M  V30 2822 C 262.68 0.811186 3.51358 0
M  V30 2823 O 261.784 -0.124129 4.12213 0
M  V30 2824 H 261.125 0.223873 0.625122 0
M  V30 2825 H 263.655 1.24455 1.62395 0
M  V30 2826 H 263.665 0.72601 4.01489 0
M  V30 2827 H 262.34 1.84227 3.72872 0
M  V30 2828 H 260.917 0.0108006 3.72898 0
M  V30 2829 N 263.102 -1.41638 0.69111 0
M  V30 2830 C 264.348 -2.01598 0.220519 0
M  V30 2831 C 264.681 -1.54594 -1.17535 0
M  V30 2832 O 263.956 -0.755177 -1.79241 0
M  V30 2833 C 264.239 -3.59062 0.273243 0
M  V30 2834 C 264.092 -4.16203 1.70573 0
M  V30 2835 C 265.411 -4.38546 -0.369457 0
M  V30 2836 H 262.53 -0.732468 0.0816045 0
M  V30 2837 H 265.172 -1.68445 0.878986 0
M  V30 2838 H 263.322 -3.87435 -0.287411 0
M  V30 2839 H 264.994 -3.98722 2.31989 0
M  V30 2840 H 263.237 -3.71414 2.2413 0
M  V30 2841 H 263.908 -5.25358 1.69419 0
M  V30 2842 H 266.384 -4.1596 0.107977 0
M  V30 2843 H 265.26 -5.48069 -0.302002 0
M  V30 2844 H 265.521 -4.17662 -1.44951 0
M  V30 2845 N 264.58 -0.43555 -1.51462 0
M  V30 2846 C 265.805 0.132627 -2.06976 0
M  V30 2847 C 266.23 1.35848 -1.30104 0
M  V30 2848 O 265.588 1.78112 -0.338493 0
M  V30 2849 C 265.636 0.43523 -3.57964 0
M  V30 2850 O 264.74 1.52198 -3.83288 0
M  V30 2851 H 264.081 0.00265 -0.663995 0
M  V30 2852 H 266.611 -0.616369 -1.95095 0
M  V30 2853 H 266.621 0.686206 -4.02188 0
M  V30 2854 H 265.296 -0.460739 -4.1334 0
M  V30 2855 H 263.873 1.2611 -3.50928 0
M  V30 2856 N 266.058 1.56714 -0.166846 0
M  V30 2857 C 267.288 2.00828 0.48494 0
M  V30 2858 C 267.696 1.04612 1.57648 0
M  V30 2859 O 267.039 0.0383201 1.8366 0
M  V30 2860 C 267.101 3.4137 1.12723 0
M  V30 2861 C 266.765 4.56654 0.177886 0
M  V30 2862 C 267.762 5.16402 -0.60207 0
M  V30 2863 C 265.447 5.02244 0.0750139 0
M  V30 2864 C 267.441 6.20167 -1.47215 0
M  V30 2865 C 265.128 6.05859 -0.798649 0
M  V30 2866 C 266.126 6.64691 -1.57082 0
M  V30 2867 O 265.814 7.66297 -2.42989 0
M  V30 2868 H 265.546 0.663587 0.128953 0
M  V30 2869 H 268.1 2.03692 -0.264365 0
M  V30 2870 H 266.33 3.35406 1.92457 0
M  V30 2871 H 268.019 3.69466 1.68076 0
M  V30 2872 H 268.785 4.82065 -0.53274 0
M  V30 2873 H 264.664 4.56167 0.665812 0
M  V30 2874 H 268.208 6.66016 -2.07531 0
M  V30 2875 H 264.105 6.39621 -0.869199 0
M  V30 2876 H 264.873 7.83601 -2.36455 0
M  V30 2877 N 267.536 -0.106894 1.57237 0
M  V30 2878 C 268.486 -1.1366 1.9765 0
M  V30 2879 C 269.47 -1.36416 0.853203 0
M  V30 2880 O 270.662 -1.37305 1.11697 0
M  V30 2881 C 267.791 -2.46 2.39455 0
M  V30 2882 C 266.877 -2.26668 3.58445 0
M  V30 2883 N 267.268 -1.77176 4.73754 0
M  V30 2884 C 265.566 -2.57279 3.64312 0
M  V30 2885 C 266.267 -1.71836 5.5574 0
M  V30 2886 N 265.243 -2.16623 4.98573 0
M  V30 2887 H 269.045 -0.74669 2.84256 0
M  V30 2888 H 266.559 -0.314483 1.59326 0
M  V30 2889 H 268.556 -3.2049 2.6663 0
M  V30 2890 H 267.216 -2.85738 1.54219 0
M  V30 2891 H 268.227 -1.46545 4.96734 0
M  V30 2892 H 264.904 -3.00622 2.89711 0
M  V30 2893 H 266.294 -1.34723 6.58255 0
M  V30 2894 N 269.014 -1.53014 -0.377408 0
M  V30 2895 C 270.425 -1.60438 -0.954798 0
M  V30 2896 C 270.776 -0.464418 -1.90624 0
M  V30 2897 O 269.901 0.41087 -2.12464 0
M  V30 2898 C 270.496 -2.90797 -1.73847 0
M  V30 2899 C 269.055 -3.00595 -2.26538 0
M  V30 2900 C 268.202 -2.55645 -1.07429 0
M  V30 2901 H 271.153 -1.57926 -0.156575 0
M  V30 2902 H 271.174 -2.77935 -2.5987 0
M  V30 2903 H 270.686 -3.73746 -1.04574 0
M  V30 2904 H 268.787 -2.22208 -2.99089 0
M  V30 2905 H 268.9 -4.05456 -2.5523 0
M  V30 2906 H 267.264 -2.10239 -1.43777 0
M  V30 2907 H 268.047 -3.41 -0.396728 0
M  V30 2908 N 270.492 0.636531 -1.44174 0
M  V30 2909 C 271.722 1.42146 -1.49927 0
M  V30 2910 C 272.13 1.88812 -0.121063 0
M  V30 2911 O 271.473 1.61126 0.882267 0
M  V30 2912 C 271.535 2.67883 -2.39748 0
M  V30 2913 C 271.199 2.43048 -3.8701 0
M  V30 2914 C 272.196 2.05216 -4.77684 0
M  V30 2915 C 269.881 2.56856 -4.3166 0
M  V30 2916 C 271.875 1.81512 -6.11009 0
M  V30 2917 C 269.562 2.32766 -5.65034 0
M  V30 2918 C 270.56 1.95152 -6.54526 0
M  V30 2919 O 270.248 1.71326 -7.85431 0
M  V30 2920 H 269.98 0.442567 -0.51099 0
M  V30 2921 H 272.534 0.786158 -1.8976 0
M  V30 2922 H 270.764 3.34032 -1.94832 0
M  V30 2923 H 272.453 3.29874 -2.36513 0
M  V30 2924 H 273.219 1.94111 -4.44462 0
M  V30 2925 H 269.098 2.85104 -3.62266 0
M  V30 2926 H 272.642 1.52077 -6.80822 0
M  V30 2927 H 268.539 2.43479 -5.97819 0
M  V30 2928 H 269.307 1.85616 -7.97176 0
M  V30 2929 N 271.97 1.30982 0.876444 0
M  V30 2930 C 272.88 1.2003 2.01569 0
M  V30 2931 C 273.896 0.11838 1.73597 0
M  V30 2932 O 275.072 0.33495 1.98595 0
M  V30 2933 C 272.137 0.901637 3.34771 0
M  V30 2934 C 271.198 2.06979 3.76109 0
M  V30 2935 C 270.431 1.78529 5.02954 0
M  V30 2936 O 270.654 0.717296 5.65872 0
M  V30 2937 O 269.588 2.64019 5.40905 0
M  V30 2938 H 273.414 2.15753 2.13739 0
M  V30 2939 H 270.999 1.10658 1.00375 0
M  V30 2940 H 272.881 0.750645 4.1466 0
M  V30 2941 H 271.556 -0.0256141 3.2369 0
M  V30 2942 H 270.463 2.27616 2.96887 0
M  V30 2943 H 271.796 2.97907 3.91807 0
M  V30 2944 N 273.449 -1.08991 1.13837 0
M  V30 2945 C 274.382 -2.15049 0.763477 0
M  V30 2946 C 275.36 -1.60629 -0.252398 0
M  V30 2947 O 276.544 -1.87958 -0.142853 0
M  V30 2948 C 273.671 -3.38441 0.132545 0
M  V30 2949 C 272.717 -4.11596 1.11763 0
M  V30 2950 S 273.55 -4.6521 2.65216 0
M  V30 2951 C 274.706 -5.91896 2.03495 0
M  V30 2952 H 274.939 -2.46518 1.66182 0
M  V30 2953 H 272.472 -1.21008 0.958976 0
M  V30 2954 H 274.43 -4.09883 -0.225074 0
M  V30 2955 H 273.091 -3.05182 -0.743135 0
M  V30 2956 H 272.284 -5.00121 0.624076 0
M  V30 2957 H 271.886 -3.46038 1.41894 0
M  V30 2958 H 274.178 -6.63156 1.38675 0
M  V30 2959 H 275.121 -6.45938 2.9012 0
M  V30 2960 H 275.529 -5.44625 1.48471 0
M  V30 2961 N 274.927 -0.932562 -1.27047 0
M  V30 2962 C 275.89 -0.440064 -2.24936 0
M  V30 2963 C 276.89 0.444071 -1.54547 0
M  V30 2964 O 278.08 0.244465 -1.72476 0
M  V30 2965 C 275.212 0.36678 -3.38921 0
M  V30 2966 H 276.405 -1.305 -2.70018 0
M  V30 2967 H 273.958 -0.713707 -1.39054 0
M  V30 2968 H 274.693 1.25033 -2.99228 0
M  V30 2969 H 274.478 -0.267204 -3.91188 0
M  V30 2970 H 275.968 0.701567 -4.11665 0
M  V30 2971 N 276.405 1.4127 -0.698611 0
M  V30 2972 C 277.368 2.29158 -0.044132 0
M  V30 2973 C 278.368 1.44529 0.704841 0
M  V30 2974 O 279.558 1.65643 0.539276 0
M  V30 2975 C 276.69 3.27459 0.947809 0
M  V30 2976 H 277.883 2.88529 -0.817994 0
M  V30 2977 H 275.436 1.49307 -0.46228 0
M  V30 2978 H 276.171 2.73073 1.74933 0
M  V30 2979 H 275.956 3.8991 0.41385 0
M  V30 2980 H 277.446 3.93311 1.40344 0
M  V30 2981 N 277.883 0.443576 1.51229 0
M  V30 2982 C 279.299 0.0962001 1.5931 0
M  V30 2983 C 279.499 -1.39501 1.45402 0
M  V30 2984 O 278.555 -2.16557 1.29843 0
M  V30 2985 C 279.868 0.621875 2.94199 0
M  V30 2986 C 281.416 0.582865 3.07525 0
M  V30 2987 C 281.891 1.08562 4.44948 0
M  V30 2988 N 283.382 1.04387 4.51284 0
M  V30 2989 C 284.117 1.40368 5.55954 0
M  V30 2990 N 283.613 1.83664 6.68011 0
M  V30 2991 N 285.406 1.32145 5.46346 0
M  V30 2992 H 277.557 1.41376 1.58514 0
M  V30 2993 H 279.82 0.582965 0.747567 0
M  V30 2994 H 279.526 1.66546 3.09767 0
M  V30 2995 H 279.4 0.0502125 3.77167 0
M  V30 2996 H 281.787 -0.451749 2.91622 0
M  V30 2997 H 281.868 1.191 2.26382 0
M  V30 2998 H 281.512 2.11873 4.61598 0
M  V30 2999 H 281.442 0.453956 5.2464 0
M  V30 3000 H 283.933 0.725986 3.70861 0
M  V30 3001 H 284.246 2.0934 7.43906 0
M  V30 3002 H 282.591 1.87596 6.69203 0
M  V30 3003 H 285.782 0.981808 4.57688 0
M  V30 3004 H 285.955 1.60514 6.27805 0
M  V30 3005 N 279.361 -1.56624 0.175154 0
M  V30 3006 C 280.609 -1.96609 -0.467885 0
M  V30 3007 C 280.93 -1.06238 -1.63519 0
M  V30 3008 O 280.2 -0.129523 -1.95471 0
M  V30 3009 H 278.78 -0.726008 -0.175845 0
M  V30 3010 H 281.442 -1.93195 0.257234 0
M  V30 3011 H 280.538 -3.00989 -0.825342 0
M  V30 3012 N 280.839 0.0985539 -1.57292 0
M  V30 3013 C 281.786 1.11981 -2.01814 0
M  V30 3014 C 282.756 1.39999 -0.89384 0
M  V30 3015 O 283.941 1.5152 -1.15958 0
M  V30 3016 C 281.081 2.43577 -2.44467 0
M  V30 3017 C 280.194 2.2232 -3.70402 0
M  V30 3018 C 279.329 3.4729 -4.01949 0
M  V30 3019 C 278.368 3.2128 -5.21005 0
M  V30 3020 N 277.505 4.38507 -5.48321 0
M  V30 3021 H 282.345 0.733149 -2.88841 0
M  V30 3022 H 279.882 0.350482 -1.42864 0
M  V30 3023 H 281.84 3.20373 -2.6724 0
M  V30 3024 H 280.47 2.80097 -1.60455 0
M  V30 3025 H 279.522 1.36343 -3.55126 0
M  V30 3026 H 280.834 1.99089 -4.57345 0
M  V30 3027 H 279.988 4.32495 -4.25479 0
M  V30 3028 H 278.727 3.73572 -3.13521 0
M  V30 3029 H 277.732 2.34468 -4.97298 0
M  V30 3030 H 278.957 2.96348 -6.11028 0
M  V30 3031 H 276.903 4.64871 -4.62851 0
M  V30 3032 H 276.82 4.18455 -6.29628 0
M  V30 3033 H 278.088 5.24787 -5.76385 0
M  V30 3034 N 282.317 1.53212 0.369288 0
M  V30 3035 C 283.264 1.79388 1.45219 0
M  V30 3036 C 284.234 0.638059 1.53356 0
M  V30 3037 O 285.419 0.879852 1.69302 0
M  V30 3038 C 282.559 1.98623 2.82211 0
M  V30 3039 C 281.672 3.26337 2.8307 0
M  V30 3040 C 280.807 3.35779 4.11614 0
M  V30 3041 C 279.846 4.5754 4.06601 0
M  V30 3042 N 278.983 4.64155 5.26787 0
M  V30 3043 H 283.823 2.71794 1.22198 0
M  V30 3044 H 281.36 1.34642 0.592444 0
M  V30 3045 H 283.318 2.07761 3.61789 0
M  V30 3046 H 281.948 1.09558 3.03639 0
M  V30 3047 H 281 3.26171 1.95747 0
M  V30 3048 H 282.312 4.15988 2.75237 0
M  V30 3049 H 281.466 3.44208 4.99606 0
M  V30 3050 H 280.205 2.44137 4.22195 0
M  V30 3051 H 279.21 4.49215 3.16996 0
M  V30 3052 H 280.435 5.50519 3.97625 0
M  V30 3053 H 278.381 3.75413 5.3796 0
M  V30 3054 H 278.298 5.47706 5.21109 0
M  V30 3055 H 279.566 4.76863 6.16621 0
M  V30 3056 N 283.795 -0.628877 1.44509 0
M  V30 3057 C 284.725 -1.75187 1.54376 0
M  V30 3058 C 285.706 -1.65411 0.396618 0
M  V30 3059 O 286.891 -1.84137 0.617031 0
M  V30 3060 C 284.021 -3.13725 1.48976 0
M  V30 3061 C 282.975 -3.38291 2.62189 0
M  V30 3062 C 282.301 -4.76883 2.41841 0
M  V30 3063 C 283.601 -3.30632 4.04326 0
M  V30 3064 H 285.295 -1.67187 2.48373 0
M  V30 3065 H 282.841 -0.802909 1.19538 0
M  V30 3066 H 284.794 -3.92064 1.54478 0
M  V30 3067 H 283.518 -3.22515 0.514961 0
M  V30 3068 H 282.177 -2.62334 2.56079 0
M  V30 3069 H 281.825 -4.82378 1.42548 0
M  V30 3070 H 281.525 -4.94278 3.17747 0
M  V30 3071 H 283.049 -5.57449 2.49165 0
M  V30 3072 H 284.463 -3.98873 4.11793 0
M  V30 3073 H 282.86 -3.59561 4.80454 0
M  V30 3074 H 283.93 -2.28404 4.27738 0
M  V30 3075 N 285.273 -1.31445 -0.869486 0
M  V30 3076 C 286.498 -1.24256 -1.66058 0
M  V30 3077 C 286.923 0.188928 -1.87149 0
M  V30 3078 O 286.281 1.13522 -1.4136 0
M  V30 3079 C 286.329 -1.9924 -3.00559 0
M  V30 3080 O 285.433 -1.33007 -3.90362 0
M  V30 3081 H 284.774 -0.428973 -0.506831 0
M  V30 3082 H 287.304 -1.73521 -1.08404 0
M  V30 3083 H 287.314 -2.08854 -3.50491 0
M  V30 3084 H 285.989 -3.03342 -2.84528 0
M  V30 3085 H 284.566 -1.31848 -3.48813 0
M  V30 3086 N 286.751 1.08385 -1.14413 0
M  V30 3087 C 287.998 1.80776 -0.912482 0
M  V30 3088 C 288.326 1.86236 0.560934 0
M  V30 3089 O 287.581 1.33431 1.43159 0
M  V30 3090 C 287.88 3.26273 -1.45879 0
M  V30 3091 C 287.546 3.4093 -2.95089 0
M  V30 3092 C 286.208 3.44638 -3.35824 0
M  V30 3093 C 288.56 3.44591 -3.91033 0
M  V30 3094 C 285.888 3.49597 -4.71167 0
M  V30 3095 C 288.24 3.51086 -5.26233 0
M  V30 3096 C 286.904 3.53067 -5.6648 0
M  V30 3097 H 286.174 0.661507 -0.333901 0
M  V30 3098 H 288.821 1.27613 -1.42784 0
M  V30 3099 H 287.126 3.82146 -0.864376 0
M  V30 3100 H 288.823 3.80839 -1.2555 0
M  V30 3101 H 285.413 3.38736 -2.62594 0
M  V30 3102 H 289.597 3.40957 -3.60641 0
M  V30 3103 H 284.853 3.49424 -5.0171 0
M  V30 3104 H 289.027 3.52864 -6.00383 0
M  V30 3105 H 286.654 3.56662 -6.71339 0
M  V30 3106 N 288.23 0.939286 1.26551 0
M  V30 3107 C 289.14 0.453432 2.30176 0
M  V30 3108 C 290.156 -0.471649 1.67486 0
M  V30 3109 O 291.332 -0.35164 1.98306 0
M  V30 3110 C 288.397 -0.275326 3.45605 0
M  V30 3111 C 287.458 0.686084 4.23782 0
M  V30 3112 C 286.691 -0.00798994 5.33699 0
M  V30 3113 O 286.914 -1.22528 5.57085 0
M  V30 3114 O 285.848 0.669746 5.98162 0
M  V30 3115 H 289.674 1.31416 2.73795 0
M  V30 3116 H 287.259 0.705095 1.31715 0
M  V30 3117 H 289.141 -0.685911 4.1578 0
M  V30 3118 H 287.816 -1.11147 3.0402 0
M  V30 3119 H 286.723 1.14658 3.56096 0
M  V30 3120 H 288.056 1.48979 4.69112 0
M  V30 3121 N 289.708 -1.40897 0.706093 0
M  V30 3122 C 290.936 -2.05373 0.250887 0
M  V30 3123 C 291.351 -1.53172 -1.10381 0
M  V30 3124 O 290.708 -0.684305 -1.69185 0
M  V30 3125 C 290.759 -3.6088 0.211571 0
M  V30 3126 O 290.48 -4.11153 1.51276 0
M  V30 3127 C 291.981 -4.42517 -0.263346 0
M  V30 3128 H 289.201 -0.66115 0.114552 0
M  V30 3129 H 291.745 -1.80479 0.961635 0
M  V30 3130 H 289.9 -3.84777 -0.450073 0
M  V30 3131 H 290.314 -5.05279 1.40689 0
M  V30 3132 H 291.788 -5.51479 -0.239718 0
M  V30 3133 H 292.265 -4.19396 -1.30397 0
M  V30 3134 H 292.871 -4.23708 0.367677 0
M  V30 3135 N 291.186 -0.45159 -1.50991 0
M  V30 3136 C 292.149 0.341117 -2.26647 0
M  V30 3137 C 293.149 0.937422 -1.30649 0
M  V30 3138 O 294.339 0.809644 -1.54241 0
M  V30 3139 C 291.471 1.48398 -3.06905 0
M  V30 3140 H 292.664 -0.322117 -2.98165 0
M  V30 3141 H 290.217 -0.205122 -1.54948 0
M  V30 3142 H 290.952 2.18284 -2.39838 0
M  V30 3143 H 290.737 1.06241 -3.77432 0
M  V30 3144 H 292.227 2.04367 -3.64176 0
M  V30 3145 N 292.664 1.56529 -0.183458 0
M  V30 3146 C 294.08 1.58664 0.172554 0
M  V30 3147 C 294.28 1.19925 1.61926 0
M  V30 3148 O 293.336 0.916534 2.35278 0
M  V30 3149 C 294.649 3.00463 -0.119262 0
M  V30 3150 C 296.197 3.12945 -0.0584396 0
M  V30 3151 C 296.672 4.56857 -0.323408 0
M  V30 3152 N 298.163 4.62403 -0.271612 0
M  V30 3153 C 298.898 5.71626 -0.450639 0
M  V30 3154 N 298.394 6.89362 -0.689384 0
M  V30 3155 N 300.187 5.60775 -0.385701 0
M  V30 3156 H 292.338 1.79994 -1.12765 0
M  V30 3157 H 294.601 0.834808 -0.449222 0
M  V30 3158 H 294.307 3.33326 -1.12192 0
M  V30 3159 H 294.181 3.72659 0.583544 0
M  V30 3160 H 296.568 2.79902 0.934805 0
M  V30 3161 H 296.649 2.4316 -0.794144 0
M  V30 3162 H 296.293 4.9061 -1.31392 0
M  V30 3163 H 296.223 5.24816 0.43305 0
M  V30 3164 H 298.714 3.77785 -0.0932256 0
M  V30 3165 H 299.027 7.68489 -0.815113 0
M  V30 3166 H 297.372 6.91196 -0.726142 0
M  V30 3167 H 300.563 4.67674 -0.199687 0
M  V30 3168 H 300.736 6.4584 -0.528646 0
M  V30 3169 N 294.142 -0.090211 1.57342 0
M  V30 3170 C 295.389 -0.792807 1.86335 0
M  V30 3171 C 295.717 -1.78494 0.772662 0
M  V30 3172 O 294.972 -1.94305 -0.233258 0
M  V30 3173 C 295.271 -1.55222 3.21933 0
M  V30 3174 C 294.937 -0.701765 4.45406 0
M  V30 3175 C 293.599 -0.467334 4.78925 0
M  V30 3176 C 295.951 -0.11086 5.21082 0
M  V30 3177 C 293.279 0.367785 5.85546 0
M  V30 3178 C 295.631 0.711609 6.28585 0
M  V30 3179 C 294.295 0.956086 6.60617 0
M  V30 3180 H 293.565 -0.290109 0.681849 0
M  V30 3181 H 296.212 -0.0541332 1.91423 0
M  V30 3182 H 294.517 -2.3626 3.12551 0
M  V30 3183 H 296.214 -2.10032 3.41595 0
M  V30 3184 H 292.804 -0.894598 4.1916 0
M  V30 3185 H 296.988 -0.279129 4.95514 0
M  V30 3186 H 292.244 0.566128 6.08773 0
M  V30 3187 H 296.418 1.17632 6.86393 0
M  V30 3188 H 294.045 1.60499 7.43064 0
M  V30 3189 N 295.62 -1.53406 -0.361157 0
M  V30 3190 C 296.869 -1.69022 -1.10066 0
M  V30 3191 C 297.182 -0.450838 -1.90333 0
M  V30 3192 O 298.388 -0.487617 -2.67085 0
M  V30 3193 C 296.844 -2.98812 -2.00598 0
M  V30 3194 C 296.452 -4.30027 -1.25621 0
M  V30 3195 C 298.196 -3.23795 -2.74513 0
M  V30 3196 C 296.103 -5.50903 -2.1508 0
M  V30 3197 H 295.033 -0.629776 -0.414606 0
M  V30 3198 H 297.684 -1.79907 -0.361348 0
M  V30 3199 H 296.066 -2.8174 -2.78278 0
M  V30 3200 H 297.24 -4.57745 -0.529739 0
M  V30 3201 H 295.555 -4.11522 -0.635496 0
M  V30 3202 H 298.152 -4.11289 -3.41681 0
M  V30 3203 H 298.495 -2.40045 -3.40123 0
M  V30 3204 H 299.028 -3.41561 -2.03914 0
M  V30 3205 H 295.767 -6.37143 -1.54041 0
M  V30 3206 H 295.287 -5.27459 -2.85565 0
M  V30 3207 H 296.966 -5.85865 -2.74538 0
M  V30 3208 N 297.098 0.621204 -1.44841 0
M  V30 3209 C 298.045 1.73267 -1.5247 0
M  V30 3210 C 299.015 1.6189 -0.371611 0
M  V30 3211 O 300.2 1.81668 -0.58321 0
M  V30 3212 C 297.34 3.11545 -1.48438 0
M  V30 3213 C 296.453 3.33827 -2.74196 0
M  V30 3214 C 295.588 4.62133 -2.61929 0
M  V30 3215 C 294.627 4.77627 -3.82804 0
M  V30 3216 N 293.764 5.97219 -3.69153 0
M  V30 3217 H 298.604 1.66082 -2.47428 0
M  V30 3218 H 296.141 0.810026 -1.22788 0
M  V30 3219 H 298.099 3.91528 -1.4409 0
M  V30 3220 H 296.729 3.1772 -0.570402 0
M  V30 3221 H 295.781 2.47715 -2.88689 0
M  V30 3222 H 297.093 3.41153 -3.6389 0
M  V30 3223 H 296.247 5.50291 -2.5547 0
M  V30 3224 H 294.986 4.57182 -1.69811 0
M  V30 3225 H 293.991 3.87896 -3.89637 0
M  V30 3226 H 295.216 4.84385 -4.75971 0
M  V30 3227 H 293.162 5.93339 -2.79794 0
M  V30 3228 H 293.079 6.05644 -4.52472 0
M  V30 3229 H 294.347 6.87912 -3.66603 0
M  V30 3230 N 298.576 1.31904 0.862503 0
M  V30 3231 C 299.823 1.22017 1.61611 0
M  V30 3232 C 300.151 -0.21991 1.93253 0
M  V30 3233 O 299.406 -1.17076 1.56817 0
M  V30 3234 C 299.705 2.01713 2.95037 0
M  V30 3235 C 299.371 3.51145 2.82857 0
M  V30 3236 C 298.033 3.91889 2.79243 0
M  V30 3237 C 300.385 4.46204 2.69353 0
M  V30 3238 C 297.713 5.25947 2.59993 0
M  V30 3239 C 300.065 5.80397 2.5164 0
M  V30 3240 C 298.729 6.20352 2.46413 0
M  V30 3241 H 297.999 0.44649 0.591378 0
M  V30 3242 H 300.646 1.63248 1.00111 0
M  V30 3243 H 298.951 1.53185 3.60613 0
M  V30 3244 H 300.648 1.91437 3.52353 0
M  V30 3245 H 297.238 3.1878 2.86491 0
M  V30 3246 H 301.422 4.15652 2.71196 0
M  V30 3247 H 296.678 5.5597 2.54376 0
M  V30 3248 H 300.852 6.53676 2.40169 0
M  V30 3249 H 298.479 7.24172 2.31256 0
M  V30 3250 N 300.054 -1.07777 1.14986 0
M  V30 3251 C 301.303 -1.79669 0.916617 0
M  V30 3252 C 301.616 -1.87474 -0.557917 0
M  V30 3253 O 302.822 -2.55845 -0.908617 0
M  V30 3254 C 301.278 -3.22848 1.59051 0
M  V30 3255 C 300.886 -3.23257 3.10176 0
M  V30 3256 C 302.63 -3.99379 1.43864 0
M  V30 3257 C 300.537 -4.61063 3.70372 0
M  V30 3258 H 299.467 -0.673349 0.33929 0
M  V30 3259 H 302.118 -1.21003 1.37951 0
M  V30 3260 H 300.5 -3.8168 1.0553 0
M  V30 3261 H 301.674 -2.74095 3.70417 0
M  V30 3262 H 299.989 -2.60222 3.25074 0
M  V30 3263 H 302.586 -5.0122 1.86232 0
M  V30 3264 H 302.929 -4.14511 0.385564 0
M  V30 3265 H 303.462 -3.47032 1.94457 0
M  V30 3266 H 300.201 -4.51135 4.7556 0
M  V30 3267 H 299.721 -5.1048 3.14913 0
M  V30 3268 H 301.4 -5.30034 3.71043 0
M  V30 3269 N 301.532 -0.945985 -1.26051 0
M  V30 3270 C 302.778 -0.597002 -1.93814 0
M  V30 3271 C 303.111 0.862484 -1.73997 0
M  V30 3272 O 302.386 1.61769 -1.07986 0
M  V30 3273 C 302.669 -0.945937 -3.47454 0
M  V30 3274 C 302.522 -2.46052 -3.76535 0
M  V30 3275 C 303.841 -0.464785 -4.37639 0
M  V30 3276 H 300.96 -0.218366 -0.703907 0
M  V30 3277 H 303.602 -1.18107 -1.48831 0
M  V30 3278 H 301.752 -0.448902 -3.85898 0
M  V30 3279 H 303.424 -3.03065 -3.47778 0
M  V30 3280 H 301.667 -2.90194 -3.22444 0
M  V30 3281 H 302.338 -2.65517 -4.83947 0
M  V30 3282 H 304.814 -0.891016 -4.06448 0
M  V30 3283 H 303.69 -0.737712 -5.4392 0
M  V30 3284 H 303.951 0.635274 -4.37512 0
M  V30 3285 N 303.011 1.40521 -0.713556 0
M  V30 3286 C 304.239 2.05237 -0.261775 0
M  V30 3287 C 304.654 1.53755 1.09567 0
M  V30 3288 O 304.011 0.693268 1.6882 0
M  V30 3289 C 304.062 3.60763 -0.230706 0
M  V30 3290 O 303.783 4.10345 -1.53455 0
M  V30 3291 C 305.284 4.42651 0.239874 0
M  V30 3292 H 302.504 0.660533 -0.118057 0
M  V30 3293 H 305.048 1.79967 -0.971192 0
M  V30 3294 H 303.203 3.8501 0.429661 0
M  V30 3295 H 303.617 5.04526 -1.43366 0
M  V30 3296 H 305.091 5.51599 0.210468 0
M  V30 3297 H 305.568 4.20082 1.28171 0
M  V30 3298 H 306.174 4.23507 -0.390142 0
M  V30 3299 N 304.489 0.459591 1.5075 0
M  V30 3300 C 305.399 -0.34613 2.32033 0
M  V30 3301 C 306.415 -1.00686 1.41909 0
M  V30 3302 O 307.591 -0.997361 1.7497 0
M  V30 3303 C 304.656 -1.42029 3.16273 0
M  V30 3304 C 303.717 -0.777362 4.22203 0
M  V30 3305 C 302.95 -1.80034 5.02418 0
M  V30 3306 O 303.173 -3.02544 4.83553 0
M  V30 3307 O 302.107 -1.37853 5.85901 0
M  V30 3308 H 305.933 0.318054 3.0203 0
M  V30 3309 H 303.518 0.221663 1.47746 0
M  V30 3310 H 305.4 -2.04275 3.68578 0
M  V30 3311 H 304.075 -2.06815 2.49016 0
M  V30 3312 H 302.982 -0.116256 3.73919 0
M  V30 3313 H 304.315 -0.172634 4.91897 0
M  V30 3314 N 305.967 -1.56429 0.191757 0
M  V30 3315 C 307.216 -1.9666 -0.448088 0
M  V30 3316 C 307.529 -1.08136 -1.62991 0
M  V30 3317 O 308.735 -1.38135 -2.33733 0
M  V30 3318 C 307.191 -3.49753 -0.848585 0
M  V30 3319 C 306.799 -4.46935 0.308764 0
M  V30 3320 C 308.543 -3.9876 -1.4557 0
M  V30 3321 C 306.45 -5.91293 -0.112506 0
M  V30 3322 H 305.38 -0.734312 -0.171179 0
M  V30 3323 H 308.031 -1.81301 0.283242 0
M  V30 3324 H 306.413 -3.60604 -1.63649 0
M  V30 3325 H 307.587 -4.47813 1.08627 0
M  V30 3326 H 305.902 -4.08102 0.827158 0
M  V30 3327 H 308.499 -5.04086 -1.78328 0
M  V30 3328 H 308.842 -3.42875 -2.36099 0
M  V30 3329 H 309.375 -3.9101 -0.731836 0
M  V30 3330 H 306.114 -6.51097 0.758514 0
M  V30 3331 H 305.634 -5.93676 -0.854941 0
M  V30 3332 H 307.313 -6.44663 -0.549448 0
M  V30 3333 N 307.445 0.0818655 -1.57387 0
M  V30 3334 C 308.692 0.782914 -1.86753 0
M  V30 3335 C 309.02 1.78082 -0.782118 0
M  V30 3336 O 308.275 1.94426 0.22295 0
M  V30 3337 C 308.574 1.53513 -3.22752 0
M  V30 3338 C 308.24 0.678134 -4.45771 0
M  V30 3339 C 306.902 0.441929 -4.79166 0
M  V30 3340 C 309.254 0.0832243 -5.21134 0
M  V30 3341 C 306.582 -0.398833 -5.85343 0
M  V30 3342 C 308.934 -0.744935 -6.28199 0
M  V30 3343 C 307.598 -0.991107 -6.60101 0
M  V30 3344 H 306.868 0.286489 -0.683378 0
M  V30 3345 H 309.515 0.0439808 -1.91449 0
M  V30 3346 H 307.82 2.34599 -3.138 0
M  V30 3347 H 309.517 2.08218 -3.42705 0
M  V30 3348 H 306.107 0.872357 -4.19628 0
M  V30 3349 H 310.291 0.252847 -4.95655 0
M  V30 3350 H 305.547 -0.598405 -6.08465 0
M  V30 3351 H 309.721 -1.21271 -6.8576 0
M  V30 3352 H 307.348 -1.64437 -7.42202 0
M  V30 3353 N 308.923 1.53595 0.353017 0
M  V30 3354 C 310.334 1.61937 0.929153 0
M  V30 3355 C 310.685 0.494686 1.89861 0
M  V30 3356 O 309.81 -0.377017 2.1309 0
M  V30 3357 C 310.405 2.93526 1.69199 0
M  V30 3358 C 308.964 3.04161 2.21727 0
M  V30 3359 C 308.111 2.57322 1.03348 0
M  V30 3360 H 311.062 1.58155 0.131431 0
M  V30 3361 H 311.083 2.82034 2.55416 0
M  V30 3362 H 310.595 3.75362 0.986144 0
M  V30 3363 H 308.696 2.26938 2.95516 0
M  V30 3364 H 308.809 4.09465 2.48748 0
M  V30 3365 H 307.173 2.12499 1.40414 0
M  V30 3366 H 307.956 3.41588 0.342428 0
M  V30 3367 N 310.401 -0.613514 1.45168 0
M  V30 3368 C 311.649 -1.36997 1.48581 0
M  V30 3369 C 311.97 -1.94589 0.126545 0
M  V30 3370 O 311.24 -1.76816 -0.843372 0
M  V30 3371 H 309.82 -0.508558 0.547154 0
M  V30 3372 H 312.482 -0.720853 1.81079 0
M  V30 3373 H 311.578 -2.1924 2.22127 0
M  V30 3374 N 311.879 -1.3236 -0.855495 0
M  V30 3375 C 313.127 -1.22629 -1.60644 0
M  V30 3376 C 313.448 0.212136 -1.93843 0
M  V30 3377 O 312.718 1.13666 -1.59552 0
M  V30 3378 H 311.298 -0.450882 -0.595579 0
M  V30 3379 H 313.96 -1.65871 -1.02337 0
M  V30 3380 H 313.056 -1.80832 -2.54374 0
M  V30 3381 N 313.357 1.07166 -1.15556 0
M  V30 3382 C 314.773 1.31899 -0.898603 0
M  V30 3383 C 314.973 1.96333 0.453383 0
M  V30 3384 O 314.029 2.22438 1.19489 0
M  V30 3385 C 315.342 2.20826 -2.04099 0
M  V30 3386 C 316.89 2.34269 -2.07574 0
M  V30 3387 C 317.365 3.26546 -3.21141 0
M  V30 3388 N 318.856 3.34127 -3.20801 0
M  V30 3389 C 319.591 4.05595 -4.05315 0
M  V30 3390 N 319.087 4.79661 -4.99897 0
M  V30 3391 N 320.88 4.01555 -3.93332 0
M  V30 3392 H 313.031 0.637302 -2.02613 0
M  V30 3393 H 315.294 0.343468 -0.883591 0
M  V30 3394 H 315 1.80744 -3.01703 0
M  V30 3395 H 314.874 3.21364 -1.97496 0
M  V30 3396 H 317.261 2.73603 -1.10568 0
M  V30 3397 H 317.342 1.33429 -2.18244 0
M  V30 3398 H 316.986 2.87931 -4.184 0
M  V30 3399 H 316.916 4.27345 -3.07708 0
M  V30 3400 H 319.407 2.81336 -2.52306 0
M  V30 3401 H 319.72 5.31694 -5.60822 0
M  V30 3402 H 318.065 4.78671 -5.03884 0
M  V30 3403 H 321.256 3.42806 -3.18751 0
M  V30 3404 H 321.429 4.56987 -4.5942 0
M  V30 3405 N 314.835 0.952656 1.25548 0
M  V30 3406 C 315.765 0.489287 2.28316 0
M  V30 3407 C 316.746 -0.463359 1.63667 0
M  V30 3408 O 317.931 -0.36274 1.90782 0
M  V30 3409 C 315.061 -0.235603 3.465 0
M  V30 3410 C 314.015 0.631593 4.23314 0
M  V30 3411 C 313.341 -0.223923 5.34231 0
M  V30 3412 C 314.641 1.90871 4.86174 0
M  V30 3413 H 316.335 1.34822 2.67326 0
M  V30 3414 H 313.881 0.649728 1.28509 0
M  V30 3415 H 315.834 -0.570882 4.17515 0
M  V30 3416 H 314.558 -1.12877 3.06474 0
M  V30 3417 H 313.217 0.949929 3.54079 0
M  V30 3418 H 312.865 -1.11678 4.90446 0
M  V30 3419 H 312.565 0.35299 5.86539 0
M  V30 3420 H 314.089 -0.554214 6.0808 0
M  V30 3421 H 315.503 1.63997 5.49343 0
M  V30 3422 H 313.9 2.43112 5.4865 0
M  V30 3423 H 314.97 2.61304 4.08471 0
M  V30 3424 N 316.313 -1.40141 0.720998 0
M  V30 3425 C 317.724 -1.83678 0.334553 0
M  V30 3426 C 318.075 -1.6027 -1.13173 0
M  V30 3427 O 317.2 -1.08643 -1.87152 0
M  V30 3428 C 317.795 -3.33437 0.600437 0
M  V30 3429 C 316.354 -3.75447 0.267642 0
M  V30 3430 C 315.501 -2.63296 0.870097 0
M  V30 3431 H 318.452 -1.29331 0.919732 0
M  V30 3432 H 318.473 -3.80269 -0.132517 0
M  V30 3433 H 317.985 -3.50442 1.66768 0
M  V30 3434 H 316.086 -3.64035 -0.794329 0
M  V30 3435 H 316.199 -4.73344 0.74042 0
M  V30 3436 H 314.563 -2.52954 0.297739 0
M  V30 3437 H 315.346 -2.83112 1.94172 0
M  V30 3438 N 317.792 -0.46758 -1.50504 0
M  V30 3439 C 319.017 0.0886943 -2.0721 0
M  V30 3440 C 319.442 1.33057 -1.32956 0
M  V30 3441 O 318.8 1.77354 -0.376197 0
M  V30 3442 C 318.848 0.359202 -3.58806 0
M  V30 3443 O 317.952 1.44034 -3.8643 0
M  V30 3444 H 317.293 -0.0114349 -0.663902 0
M  V30 3445 H 319.823 -0.657613 -1.93744 0
M  V30 3446 H 319.833 0.600742 -4.03553 0
M  V30 3447 H 318.508 -0.548311 -4.1227 0
M  V30 3448 H 317.085 1.18638 -3.53524 0
M  V30 3449 N 319.27 1.56325 -0.20005 0
M  V30 3450 C 320.498 2.02105 0.442874 0
M  V30 3451 C 320.913 1.08014 1.5485 0
M  V30 3452 O 320.27 0.0858797 1.82298 0
M  V30 3453 C 320.321 3.47549 0.994583 0
M  V30 3454 O 320.042 4.38049 -0.0669322 0
M  V30 3455 C 321.543 4.0887 1.7129 0
M  V30 3456 H 318.763 0.661807 0.110691 0
M  V30 3457 H 321.307 2.02134 -0.310207 0
M  V30 3458 H 319.462 3.48204 1.69803 0
M  V30 3459 H 319.876 5.23368 0.344462 0
M  V30 3460 H 321.35 5.12475 2.05118 0
M  V30 3461 H 321.827 3.52615 2.61838 0
M  V30 3462 H 322.433 4.12002 1.05518 0
M  V30 3463 N 320.748 -0.0735177 1.57428 0
M  V30 3464 C 321.658 -1.10547 2.06922 0
M  V30 3465 C 322.674 -1.42506 0.998402 0
M  V30 3466 O 323.85 -1.52717 1.31299 0
M  V30 3467 C 320.915 -2.40019 2.50184 0
M  V30 3468 C 319.976 -2.15046 3.71556 0
M  V30 3469 C 319.209 -3.38345 4.12745 0
M  V30 3470 O 319.432 -4.47399 3.53822 0
M  V30 3471 O 318.366 -3.2666 5.05546 0
M  V30 3472 H 322.192 -0.715013 2.95163 0
M  V30 3473 H 319.777 -0.287531 1.46607 0
M  V30 3474 H 321.659 -3.16218 2.78539 0
M  V30 3475 H 320.334 -2.78447 1.65072 0
M  V30 3476 H 319.241 -1.36558 3.48285 0
M  V30 3477 H 320.574 -1.81499 4.57514 0
M  V30 3478 N 322.226 -1.5378 -0.344866 0
M  V30 3479 C 323.159 -1.7649 -1.4466 0
M  V30 3480 C 324.137 -0.613954 -1.50563 0
M  V30 3481 O 325.321 -0.84896 -1.683 0
M  V30 3482 C 322.448 -1.86235 -2.82903 0
M  V30 3483 C 321.494 -3.08375 -2.94631 0
M  V30 3484 S 322.327 -4.67457 -2.61236 0
M  V30 3485 C 323.483 -4.80079 -4.0159 0
M  V30 3486 H 323.716 -2.69661 -1.2518 0
M  V30 3487 H 321.249 -1.44632 -0.540455 0
M  V30 3488 H 323.207 -1.92535 -3.62547 0
M  V30 3489 H 321.868 -0.940786 -2.9968 0
M  V30 3490 H 321.061 -3.11865 -3.95925 0
M  V30 3491 H 320.663 -3.00294 -2.22934 0
M  V30 3492 H 322.955 -4.61407 -4.96094 0
M  V30 3493 H 323.898 -5.82168 -4.03095 0
M  V30 3494 H 324.306 -4.08544 -3.89554 0
M  V30 3495 N 323.704 0.605807 -1.45491 0
M  V30 3496 C 324.637 1.73022 -1.48791 0
M  V30 3497 C 325.615 1.58917 -0.344112 0
M  V30 3498 O 326.799 1.80453 -0.544876 0
M  V30 3499 C 323.926 3.10865 -1.34463 0
M  V30 3500 C 322.972 3.43554 -2.5273 0
M  V30 3501 S 323.805 3.38196 -4.15191 0
M  V30 3502 C 324.961 4.78616 -4.03333 0
M  V30 3503 H 325.194 1.69961 -2.43928 0
M  V30 3504 H 322.727 0.782611 -1.33096 0
M  V30 3505 H 324.685 3.90398 -1.26884 0
M  V30 3506 H 323.346 3.1144 -0.40794 0
M  V30 3507 H 322.539 4.43924 -2.38637 0
M  V30 3508 H 322.141 2.71541 -2.5718 0
M  V30 3509 H 324.433 5.68463 -3.68587 0
M  V30 3510 H 325.376 4.97767 -5.03621 0
M  V30 3511 H 325.784 4.54381 -3.34959 0
M  V30 3512 N 325.182 1.32811 0.848464 0
M  V30 3513 C 326.428 1.23907 1.60546 0
M  V30 3514 C 326.761 -0.197161 1.93197 0
M  V30 3515 O 326.036 -1.13596 1.5788 0
M  V30 3516 C 326.319 2.10489 2.92175 0
M  V30 3517 C 326.172 3.62522 2.66266 0
M  V30 3518 C 327.491 1.97075 3.93509 0
M  V30 3519 H 324.61 0.451459 0.58254 0
M  V30 3520 H 327.252 1.62818 0.979296 0
M  V30 3521 H 325.402 1.77434 3.45614 0
M  V30 3522 H 327.074 4.05821 2.19334 0
M  V30 3523 H 325.317 3.84879 2.00126 0
M  V30 3524 H 325.988 4.18437 3.6002 0
M  V30 3525 H 328.464 2.26045 3.49346 0
M  V30 3526 H 327.34 2.59923 4.83457 0
M  V30 3527 H 327.601 0.940186 4.31987 0
M  V30 3528 N 326.66 -1.06551 1.16123 0
M  V30 3529 C 327.57 -2.17484 0.879662 0
M  V30 3530 C 328.586 -1.73377 -0.147104 0
M  V30 3531 O 329.762 -2.01379 0.0289128 0
M  V30 3532 C 326.827 -3.44591 0.381829 0
M  V30 3533 C 325.888 -4.0322 1.4735 0
M  V30 3534 C 325.121 -5.24261 0.999324 0
M  V30 3535 O 325.344 -5.70198 -0.151957 0
M  V30 3536 O 324.278 -5.74775 1.78653 0
M  V30 3537 H 328.104 -2.44075 1.80724 0
M  V30 3538 H 325.689 -1.16042 0.940992 0
M  V30 3539 H 327.571 -4.21254 0.111053 0
M  V30 3540 H 326.246 -3.19532 -0.51777 0
M  V30 3541 H 325.153 -3.2806 1.79798 0
M  V30 3542 H 326.486 -4.32568 2.34831 0
M  V30 3543 N 328.138 -0.959301 -1.25041 0
M  V30 3544 C 329.088 -0.453888 -2.23436 0
M  V30 3545 C 330.072 0.459461 -1.542 0
M  V30 3546 O 331.264 0.291752 -1.74579 0
M  V30 3547 C 328.393 0.262667 -3.42294 0
M  V30 3548 C 327.479 -0.669022 -4.1879 0
M  V30 3549 N 327.87 -1.80267 -4.72586 0
M  V30 3550 C 326.168 -0.47814 -4.4343 0
M  V30 3551 C 326.869 -2.38475 -5.3057 0
M  V30 3552 N 325.845 -1.67078 -5.17287 0
M  V30 3553 H 329.647 -1.319 -2.6264 0
M  V30 3554 H 327.161 -0.817358 -1.40332 0
M  V30 3555 H 329.158 0.641911 -4.11929 0
M  V30 3556 H 327.818 1.12432 -3.04613 0
M  V30 3557 H 328.829 -2.18442 -4.69578 0
M  V30 3558 H 325.506 0.340249 -4.16111 0
M  V30 3559 H 326.896 -3.34094 -5.8295 0
M  V30 3560 N 329.616 1.39756 -0.72842 0
M  V30 3561 C 330.864 2.00248 -0.272946 0
M  V30 3562 C 331.185 1.58077 1.14178 0
M  V30 3563 O 330.455 0.826014 1.77634 0
M  V30 3564 H 329.035 0.740554 -0.0979247 0
M  V30 3565 H 331.697 1.70903 -0.936912 0
M  V30 3566 H 330.793 3.10495 -0.316142 0
M  V30 3567 N 331.094 0.475555 1.50254 0
M  V30 3568 C 332.004 -0.321501 2.32387 0
M  V30 3569 C 333.02 -0.991755 1.42969 0
M  V30 3570 O 334.196 -0.978747 1.76018 0
M  V30 3571 C 331.261 -1.38667 3.17762 0
M  V30 3572 C 330.322 -0.732538 4.23004 0
M  V30 3573 C 329.555 -1.74695 5.04299 0
M  V30 3574 O 329.778 -2.97399 4.86734 0
M  V30 3575 O 328.712 -1.31631 5.8733 0
M  V30 3576 H 332.538 0.350071 3.01676 0
M  V30 3577 H 330.123 0.237321 1.47503 0
M  V30 3578 H 332.005 -2.00354 3.70724 0
M  V30 3579 H 330.68 -2.04163 2.51196 0
M  V30 3580 H 329.587 -0.0765902 3.74022 0
M  V30 3581 H 330.92 -0.120452 4.92053 0
M  V30 3582 N 332.573 -1.56217 0.208337 0
M  V30 3583 C 333.52 -2.19699 -0.707192 0
M  V30 3584 C 334.49 -1.14836 -1.20008 0
M  V30 3585 O 335.675 -1.4314 -1.26157 0
M  V30 3586 C 332.815 -2.87061 -1.91546 0
M  V30 3587 C 331.928 -4.06483 -1.46271 0
M  V30 3588 C 331.063 -4.61665 -2.62752 0
M  V30 3589 C 330.102 -5.73417 -2.14147 0
M  V30 3590 N 329.239 -6.22948 -3.23853 0
M  V30 3591 H 334.079 -2.97575 -0.159111 0
M  V30 3592 H 331.616 -1.46948 -0.0667874 0
M  V30 3593 H 333.574 -3.24294 -2.62468 0
M  V30 3594 H 332.204 -2.11725 -2.43664 0
M  V30 3595 H 331.256 -3.74825 -0.648886 0
M  V30 3596 H 332.568 -4.87271 -1.06622 0
M  V30 3597 H 331.722 -5.01272 -3.41776 0
M  V30 3598 H 330.461 -3.80013 -3.05682 0
M  V30 3599 H 329.466 -5.33326 -1.33581 0
M  V30 3600 H 330.691 -6.56897 -1.72232 0
M  V30 3601 H 328.637 -5.44213 -3.6629 0
M  V30 3602 H 328.554 -6.98823 -2.88414 0
M  V30 3603 H 329.822 -6.6721 -4.03052 0
M  V30 3604 N 334.051 0.0651679 -1.57465 0
M  V30 3605 C 335.014 1.06117 -2.03155 0
M  V30 3606 C 336.014 1.31204 -0.929632 0
M  V30 3607 O 337.204 1.26813 -1.19432 0
M  V30 3608 C 334.336 2.4032 -2.41783 0
M  V30 3609 H 335.529 0.667231 -2.92383 0
M  V30 3610 H 333.082 0.311075 -1.53173 0
M  V30 3611 H 333.817 2.84532 -1.55601 0
M  V30 3612 H 333.602 2.23451 -3.22199 0
M  V30 3613 H 335.092 3.11898 -2.77685 0
M  V30 3614 N 335.529 1.53961 0.336706 0
M  V30 3615 C 336.777 1.71197 1.07405 0
M  V30 3616 C 337.098 0.481475 1.88962 0
M  V30 3617 O 336.368 -0.504585 1.8929 0
M  V30 3618 H 334.948 0.631185 0.399517 0
M  V30 3619 H 337.61 1.91232 0.376323 0
M  V30 3620 H 336.706 2.58587 1.74755 0
M  V30 3621 N 337.007 -0.598083 1.45811 0
M  V30 3622 C 338.254 -1.35681 1.50323 0
M  V30 3623 C 338.582 -1.9393 0.148739 0
M  V30 3624 O 337.837 -1.76094 -0.853787 0
M  V30 3625 C 338.136 -2.51669 2.53766 0
M  V30 3626 C 337.802 -2.11508 3.98215 0
M  V30 3627 C 336.464 -2.0027 4.37545 0
M  V30 3628 C 338.816 -1.80308 4.89018 0
M  V30 3629 C 336.144 -1.56067 5.65562 0
M  V30 3630 C 338.496 -1.37589 6.17456 0
M  V30 3631 C 337.16 -1.24916 6.55708 0
M  V30 3632 H 336.43 -0.496492 0.550069 0
M  V30 3633 H 339.077 -0.675052 1.79207 0
M  V30 3634 H 337.382 -3.25225 2.18486 0
M  V30 3635 H 339.079 -3.09895 2.54492 0
M  V30 3636 H 335.669 -2.21185 3.67117 0
M  V30 3637 H 339.853 -1.87884 4.59362 0
M  V30 3638 H 335.109 -1.44886 5.93985 0
M  V30 3639 H 339.283 -1.12495 6.87254 0
M  V30 3640 H 336.91 -0.904386 7.54801 0
M  V30 3641 N 338.485 -1.33259 -0.841409 0
M  V30 3642 C 339.713 -1.27605 -1.62864 0
M  V30 3643 C 340.128 0.153507 -1.88175 0
M  V30 3644 O 339.485 1.09485 -1.46011 0
M  V30 3645 C 339.536 -2.04596 -2.98031 0
M  V30 3646 O 339.257 -3.41975 -2.73834 0
M  V30 3647 C 340.758 -2.06122 -3.92465 0
M  V30 3648 H 337.978 -0.439718 -0.506842 0
M  V30 3649 H 340.522 -1.75591 -1.04824 0
M  V30 3650 H 338.677 -1.60299 -3.5268 0
M  V30 3651 H 339.091 -3.81549 -3.59889 0
M  V30 3652 H 340.565 -2.64451 -4.84531 0
M  V30 3653 H 341.042 -1.05083 -4.26444 0
M  V30 3654 H 341.648 -2.50427 -3.43753 0
M  V30 3655 N 339.963 1.05934 -1.16686 0
M  V30 3656 C 341.209 1.79065 -0.95203 0
M  V30 3657 C 341.542 1.87147 0.518629 0
M  V30 3658 O 340.817 1.36574 1.38484 0
M  V30 3659 C 341.1 3.23359 -1.58464 0
M  V30 3660 C 340.953 3.23336 -3.12689 0
M  V30 3661 C 342.272 4.21004 -1.28232 0
M  V30 3662 H 339.391 0.65005 -0.34728 0
M  V30 3663 H 342.033 1.23868 -1.44072 0
M  V30 3664 H 340.183 3.70493 -1.16908 0
M  V30 3665 H 341.855 2.84336 -3.6325 0
M  V30 3666 H 340.098 2.61886 -3.4583 0
M  V30 3667 H 340.769 4.25144 -3.52075 0
M  V30 3668 H 343.245 3.8233 -1.64203 0
M  V30 3669 H 342.121 5.20225 -1.75092 0
M  V30 3670 H 342.382 4.41639 -0.201791 0
M  V30 3671 N 341.441 0.965919 1.2453 0
M  V30 3672 C 342.852 0.665929 1.7442 0
M  V30 3673 C 343.203 -0.818407 1.78316 0
M  V30 3674 O 342.328 -1.64037 1.41141 0
M  V30 3675 C 342.923 1.20211 3.16757 0
M  V30 3676 C 341.482 0.952059 3.6416 0
M  V30 3677 C 340.629 1.33848 2.42858 0
M  V30 3678 H 343.58 1.14144 1.10258 0
M  V30 3679 H 343.601 0.567544 3.76244 0
M  V30 3680 H 343.113 2.28244 3.13889 0
M  V30 3681 H 341.214 -0.112821 3.72429 0
M  V30 3682 H 341.327 1.59645 4.51719 0
M  V30 3683 H 339.691 0.756864 2.43195 0
M  V30 3684 H 340.474 2.42827 2.42673 0
M  V30 3685 N 342.919 -1.39368 0.735821 0
M  V30 3686 C 343.829 -2.34395 0.0979693 0
M  V30 3687 C 344.845 -1.58361 -0.720968 0
M  V30 3688 O 346.021 -1.90648 -0.649245 0
M  V30 3689 C 343.086 -3.37393 -0.797916 0
M  V30 3690 C 342.147 -4.29287 0.0333662 0
M  V30 3691 C 341.38 -5.27365 -0.819854 0
M  V30 3692 O 341.603 -5.31959 -2.05855 0
M  V30 3693 O 340.537 -6.01389 -0.248079 0
M  V30 3694 H 344.363 -2.90601 0.882315 0
M  V30 3695 H 341.948 -1.40909 0.4965 0
M  V30 3696 H 343.83 -4.00505 -1.31048 0
M  V30 3697 H 342.505 -2.83571 -1.56106 0
M  V30 3698 H 341.412 -3.69395 0.591475 0
M  V30 3699 H 342.745 -4.86317 0.758752 0
M  V30 3700 N 344.397 -0.483516 -1.5 0
M  V30 3701 C 345.808 -0.0314176 -1.86674 0
M  V30 3702 C 346.159 1.37728 -1.39733 0
M  V30 3703 O 345.284 2.02327 -0.767635 0
M  V30 3704 C 345.879 -0.0502376 -3.38763 0
M  V30 3705 C 344.438 0.346442 -3.74802 0
M  V30 3706 C 343.585 -0.430366 -2.7394 0
M  V30 3707 H 346.536 -0.697182 -1.42566 0
M  V30 3708 H 346.557 0.749116 -3.73053 0
M  V30 3709 H 346.069 -1.07563 -3.72897 0
M  V30 3710 H 344.17 1.37572 -3.46273 0
M  V30 3711 H 344.283 0.0391486 -4.79084 0
M  V30 3712 H 342.647 0.117557 -2.54429 0
M  V30 3713 H 343.43 -1.4555 -3.10918 0
M  V30 3714 N 345.875 1.56104 -0.216619 0
M  V30 3715 C 346.805 2.23063 0.690296 0
M  V30 3716 C 347.786 1.20072 1.20485 0
M  V30 3717 O 348.971 1.48643 1.24976 0
M  V30 3718 C 346.101 2.90672 1.90072 0
M  V30 3719 C 345.055 4.00092 1.5202 0
M  V30 3720 C 344.381 4.54972 2.80899 0
M  V30 3721 C 345.681 5.17398 0.71391 0
M  V30 3722 H 347.375 2.99109 0.132038 0
M  V30 3723 H 344.921 1.43866 0.0620664 0
M  V30 3724 H 346.874 3.36204 2.54057 0
M  V30 3725 H 345.598 2.12066 2.48386 0
M  V30 3726 H 344.257 3.55283 0.903839 0
M  V30 3727 H 343.905 3.73102 3.37348 0
M  V30 3728 H 343.605 5.28817 2.56176 0
M  V30 3729 H 345.129 5.0322 3.45836 0
M  V30 3730 H 346.543 5.59342 1.25735 0
M  V30 3731 H 344.94 5.97444 0.563951 0
M  V30 3732 H 346.01 4.84088 -0.280527 0
M  V30 3733 N 347.353 -0.0568162 1.57498 0
M  V30 3734 C 348.578 -0.769402 1.92601 0
M  V30 3735 C 349.003 -1.69559 0.814336 0
M  V30 3736 O 348.361 -1.79811 -0.231903 0
M  V30 3737 C 348.409 -1.52634 3.26704 0
M  V30 3738 O 347.513 -2.63797 3.16994 0
M  V30 3739 H 346.854 -0.208909 0.63028 0
M  V30 3740 H 349.384 -0.0205798 2.0459 0
M  V30 3741 H 349.394 -1.90234 3.60936 0
M  V30 3742 H 348.069 -0.846875 4.07186 0
M  V30 3743 H 346.646 -2.28943 2.94346 0
M  V30 3744 N 348.832 -1.54138 -0.328536 0
M  V30 3745 C 349.762 -1.86167 -1.40939 0
M  V30 3746 C 350.743 -0.718044 -1.54202 0
M  V30 3747 O 351.928 -0.971328 -1.68163 0
M  V30 3748 C 349.058 -2.08461 -2.77779 0
M  V30 3749 C 348.012 -3.24299 -2.7931 0
M  V30 3750 C 347.338 -3.31955 -4.19178 0
M  V30 3751 C 348.638 -4.62065 -2.43502 0
M  V30 3752 H 350.332 -2.76689 -1.14383 0
M  V30 3753 H 347.878 -1.33132 -0.548806 0
M  V30 3754 H 349.831 -2.29453 -3.53454 0
M  V30 3755 H 348.555 -1.14684 -3.05802 0
M  V30 3756 H 347.214 -3.03187 -2.0609 0
M  V30 3757 H 346.862 -2.35745 -4.44335 0
M  V30 3758 H 346.562 -4.09805 -4.2111 0
M  V30 3759 H 348.086 -3.55175 -4.96672 0
M  V30 3760 H 349.5 -4.8297 -3.08889 0
M  V30 3761 H 347.897 -5.42429 -2.56693 0
M  V30 3762 H 348.967 -4.64652 -1.38659 0
M  V30 3763 N 350.31 0.590341 -1.46126 0
M  V30 3764 C 351.726 0.912917 -1.30912 0
M  V30 3765 C 351.926 1.99616 -0.274893 0
M  V30 3766 O 350.982 2.50397 0.325197 0
M  V30 3767 C 352.295 1.3375 -2.69317 0
M  V30 3768 C 353.843 1.45077 -2.77348 0
M  V30 3769 C 354.318 1.90904 -4.16317 0
M  V30 3770 N 355.809 1.9811 -4.18696 0
M  V30 3771 C 356.544 2.34828 -5.23109 0
M  V30 3772 N 356.04 2.70393 -6.37856 0
M  V30 3773 N 357.833 2.35317 -5.10473 0
M  V30 3774 H 349.984 -0.125358 -2.1203 0
M  V30 3775 H 352.247 0.00658481 -0.947977 0
M  V30 3776 H 351.953 0.615614 -3.4627 0
M  V30 3777 H 351.827 2.30058 -2.9892 0
M  V30 3778 H 354.214 2.16353 -2.00687 0
M  V30 3779 H 354.295 0.4704 -2.51438 0
M  V30 3780 H 353.939 1.20209 -4.9347 0
M  V30 3781 H 353.869 2.89886 -4.39629 0
M  V30 3782 H 356.36 1.73146 -3.359 0
M  V30 3783 H 356.673 2.97341 -7.13308 0
M  V30 3784 H 355.018 2.68048 -6.41229 0
M  V30 3785 H 358.209 2.0695 -4.19868 0
M  V30 3786 H 358.382 2.63605 -5.9196 0
M  V30 3787 N 351.788 1.33704 0.83433 0
M  V30 3788 C 353.199 1.22813 1.4062 0
M  V30 3789 C 353.55 -0.151107 1.95617 0
M  V30 3790 O 352.675 -1.05092 1.89168 0
M  V30 3791 C 353.27 2.22355 2.55624 0
M  V30 3792 C 351.829 2.1529 3.08751 0
M  V30 3793 C 350.976 2.09589 1.8157 0
M  V30 3794 H 353.927 1.45236 0.639702 0
M  V30 3795 H 353.948 1.83391 3.33389 0
M  V30 3796 H 353.46 3.22728 2.15566 0
M  V30 3797 H 351.561 1.18235 3.53343 0
M  V30 3798 H 351.674 3.06038 3.68616 0
M  V30 3799 H 350.038 1.55134 2.02004 0
M  V30 3800 H 350.821 3.11777 1.43701 0
M  V30 3801 N 353.266 -1.05314 1.17247 0
M  V30 3802 C 354.216 -2.11313 0.856196 0
M  V30 3803 C 355.2 -1.60013 -0.168694 0
M  V30 3804 O 356.392 -1.76968 0.0335624 0
M  V30 3805 C 353.521 -3.41301 0.369917 0
M  V30 3806 C 352.607 -3.99401 1.42616 0
M  V30 3807 N 352.998 -4.31481 2.63928 0
M  V30 3808 C 351.296 -4.27126 1.28373 0
M  V30 3809 C 351.997 -4.77799 3.31787 0
M  V30 3810 N 350.973 -4.77843 2.59166 0
M  V30 3811 H 354.775 -2.33976 1.77856 0
M  V30 3812 H 352.289 -1.2295 1.06099 0
M  V30 3813 H 354.286 -4.16713 0.124897 0
M  V30 3814 H 352.946 -3.20072 -0.546253 0
M  V30 3815 H 353.957 -4.21519 3.00902 0
M  V30 3816 H 350.634 -4.15289 0.429111 0
M  V30 3817 H 352.024 -5.11743 4.35395 0
M  V30 3818 N 354.744 -0.972509 -1.24016 0
M  V30 3819 C 355.974 -0.653853 -1.9598 0
M  V30 3820 C 356.382 0.781801 -1.72292 0
M  V30 3821 O 355.725 1.53677 -1.00644 0
M  V30 3822 C 355.787 -0.854608 -3.49194 0
M  V30 3823 C 355.451 -2.27082 -3.96589 0
M  V30 3824 C 356.448 -3.24892 -4.05883 0
M  V30 3825 C 354.133 -2.5998 -4.29786 0
M  V30 3826 C 356.127 -4.53684 -4.47716 0
M  V30 3827 C 353.814 -3.88997 -4.71301 0
M  V30 3828 C 354.812 -4.85661 -4.80232 0
M  V30 3829 O 354.5 -6.12376 -5.20818 0
M  V30 3830 H 354.232 -0.242572 -0.630979 0
M  V30 3831 H 356.786 -1.30431 -1.58673 0
M  V30 3832 H 355.016 -0.146985 -3.86421 0
M  V30 3833 H 356.705 -0.534311 -4.02368 0
M  V30 3834 H 357.471 -3.00805 -3.80449 0
M  V30 3835 H 353.35 -1.85457 -4.22051 0
M  V30 3836 H 356.894 -5.29135 -4.54601 0
M  V30 3837 H 352.791 -4.12882 -4.96184 0
M  V30 3838 H 353.559 -6.16013 -5.38953 0
M  V30 3839 N 356.222 1.38976 -0.743202 0
M  V30 3840 C 357.471 1.99581 -0.291592 0
M  V30 3841 C 357.784 1.59656 1.13001 0
M  V30 3842 O 358.99 2.13157 1.68156 0
M  V30 3843 C 357.446 3.56813 -0.470391 0
M  V30 3844 C 357.054 4.05695 -1.90041 0
M  V30 3845 C 358.798 4.24423 -0.0809709 0
M  V30 3846 C 356.705 5.5553 -2.02832 0
M  V30 3847 H 355.635 0.746615 -0.105272 0
M  V30 3848 H 358.286 1.58872 -0.918258 0
M  V30 3849 H 356.668 3.95359 0.225299 0
M  V30 3850 H 357.842 3.78464 -2.62872 0
M  V30 3851 H 356.157 3.50775 -2.24379 0
M  V30 3852 H 358.754 5.34474 -0.155445 0
M  V30 3853 H 359.097 4.04962 0.96497 0
M  V30 3854 H 359.63 3.9108 -0.728124 0
M  V30 3855 H 356.369 5.79881 -3.05643 0
M  V30 3856 H 355.889 5.84537 -1.34448 0
M  V30 3857 H 357.568 6.21069 -1.81335 0
M  V30 3858 N 357.7 0.491464 1.49741 0
M  V30 3859 C 358.647 -0.292027 2.28945 0
M  V30 3860 C 359.617 -0.968973 1.34908 0
M  V30 3861 O 360.802 -0.97748 1.6386 0
M  V30 3862 C 357.942 -1.35617 3.17336 0
M  V30 3863 C 357.055 -0.691957 4.26422 0
M  V30 3864 C 356.19 -1.73572 5.02042 0
M  V30 3865 C 355.229 -1.05286 6.02977 0
M  V30 3866 N 354.366 -2.0404 6.71798 0
M  V30 3867 H 359.206 0.389654 2.95442 0
M  V30 3868 H 356.743 0.204003 1.45679 0
M  V30 3869 H 358.701 -1.98502 3.66951 0
M  V30 3870 H 357.331 -2.00674 2.52844 0
M  V30 3871 H 356.383 0.0499523 3.80367 0
M  V30 3872 H 357.695 -0.153946 4.98562 0
M  V30 3873 H 356.849 -2.43987 5.55478 0
M  V30 3874 H 355.588 -2.30757 4.29654 0
M  V30 3875 H 354.593 -0.334446 5.48782 0
M  V30 3876 H 355.818 -0.487636 6.77347 0
M  V30 3877 H 353.764 -2.60205 6.02187 0
M  V30 3878 H 353.681 -1.55279 7.39881 0
M  V30 3879 H 354.949 -2.73772 7.29842 0
M  V30 3880 N 359.178 -1.55987 0.224894 0
M  V30 3881 C 360.406 -2.02784 -0.410665 0
M  V30 3882 C 360.821 -1.10464 -1.53112 0
M  V30 3883 O 360.178 -0.114871 -1.82138 0
M  V30 3884 C 360.229 -3.49087 -0.939165 0
M  V30 3885 O 359.95 -4.37887 0.136614 0
M  V30 3886 C 361.451 -4.11543 -1.64763 0
M  V30 3887 H 358.671 -0.663484 -0.100148 0
M  V30 3888 H 361.215 -2.01614 0.342326 0
M  V30 3889 H 359.37 -3.50861 -1.64242 0
M  V30 3890 H 359.784 -5.23849 -0.261155 0
M  V30 3891 H 361.258 -5.15673 -1.96939 0
M  V30 3892 H 361.735 -3.56736 -2.56195 0
M  V30 3893 H 362.341 -4.13629 -0.989503 0
M  V30 3894 N 360.656 0.0484629 -1.57525 0
M  V30 3895 C 361.586 1.0549 -2.08313 0
M  V30 3896 C 362.567 1.38929 -0.981463 0
M  V30 3897 O 363.752 1.48151 -1.25558 0
M  V30 3898 C 360.882 2.36162 -2.54646 0
M  V30 3899 C 359.836 2.17016 -3.68901 0
M  V30 3900 C 359.162 3.53278 -4.01371 0
M  V30 3901 C 360.462 1.57219 -4.98076 0
M  V30 3902 H 362.156 0.632195 -2.92649 0
M  V30 3903 H 359.702 0.302654 -1.40784 0
M  V30 3904 H 361.655 3.06882 -2.88793 0
M  V30 3905 H 360.379 2.80456 -1.67368 0
M  V30 3906 H 359.038 1.48733 -3.35073 0
M  V30 3907 H 358.686 3.95185 -3.11188 0
M  V30 3908 H 358.386 3.41299 -4.78318 0
M  V30 3909 H 359.91 4.25391 -4.38035 0
M  V30 3910 H 361.324 2.17832 -5.30304 0
M  V30 3911 H 359.721 1.55871 -5.79503 0
M  V30 3912 H 360.791 0.535956 -4.81929 0
M  V30 3913 N 362.134 1.5431 0.320358 0
M  V30 3914 C 363.55 1.45091 0.664889 0
M  V30 3915 C 363.75 0.626382 1.91517 0
M  V30 3916 O 362.806 0.126443 2.52183 0
M  V30 3917 C 364.119 2.88848 0.83591 0
M  V30 3918 C 365.667 2.9877 0.933046 0
M  V30 3919 C 366.142 4.43683 1.13621 0
M  V30 3920 N 367.633 4.47309 1.20287 0
M  V30 3921 C 368.368 5.56595 1.37801 0
M  V30 3922 N 367.864 6.75844 1.52338 0
M  V30 3923 N 369.657 5.44248 1.40535 0
M  V30 3924 H 361.808 2.06398 -0.501374 0
M  V30 3925 H 364.071 0.933963 -0.162534 0
M  V30 3926 H 363.777 3.51698 -0.0116092 0
M  V30 3927 H 363.651 3.35148 1.73078 0
M  V30 3928 H 366.038 2.36045 1.77107 0
M  V30 3929 H 366.119 2.55796 0.0145782 0
M  V30 3930 H 365.763 5.06995 0.303032 0
M  V30 3931 H 365.693 4.84269 2.0686 0
M  V30 3932 H 368.184 3.61388 1.10485 0
M  V30 3933 H 368.497 7.54892 1.65403 0
M  V30 3934 H 366.842 6.78746 1.4943 0
M  V30 3935 H 370.033 4.50038 1.28777 0
M  V30 3936 H 370.206 6.29473 1.53842 0
M  V30 3937 N 363.613 -0.582584 1.46437 0
M  V30 3938 C 364.862 -1.337 1.5102 0
M  V30 3939 C 365.175 -1.94891 0.166359 0
M  V30 3940 O 366.381 -2.71351 0.0899954 0
M  V30 3941 C 364.837 -2.42315 2.66104 0
M  V30 3942 C 364.445 -1.87427 4.06909 0
M  V30 3943 C 366.189 -3.19099 2.79958 0
M  V30 3944 C 364.096 -2.93672 5.13333 0
M  V30 3945 H 363.026 -0.502619 0.562041 0
M  V30 3946 H 365.677 -0.621701 1.72647 0
M  V30 3947 H 364.059 -3.16645 2.37807 0
M  V30 3948 H 365.233 -1.19639 4.44998 0
M  V30 3949 H 363.548 -1.2331 3.97723 0
M  V30 3950 H 366.145 -3.9839 3.56636 0
M  V30 3951 H 366.488 -3.71695 1.87479 0
M  V30 3952 H 367.021 -2.51875 3.07902 0
M  V30 3953 H 363.76 -2.45962 6.07604 0
M  V30 3954 H 363.28 -3.59948 4.79789 0
M  V30 3955 H 364.959 -3.5762 5.39182 0
M  V30 3956 N 365.091 -1.34144 -0.827227 0
M  V30 3957 C 366.337 -1.27455 -1.58515 0
M  V30 3958 C 366.692 0.155271 -1.91772 0
M  V30 3959 O 365.985 1.10042 -1.56848 0
M  V30 3960 C 366.179 -2.09464 -2.89585 0
M  V30 3961 C 366.008 -3.60276 -2.69131 0
M  V30 3962 C 364.778 -4.29565 -2.66087 0
M  V30 3963 C 366.976 -4.54367 -2.40947 0
M  V30 3964 N 364.958 -5.66252 -2.37132 0
M  V30 3965 C 366.329 -5.79027 -2.21648 0
M  V30 3966 C 368.384 -4.43327 -2.26639 0
M  V30 3967 C 367.087 -6.93891 -1.89492 0
M  V30 3968 C 369.113 -5.58019 -1.95878 0
M  V30 3969 C 368.475 -6.81695 -1.774 0
M  V30 3970 H 364.574 -0.521614 -0.582617 0
M  V30 3971 H 367.158 -1.68811 -0.970105 0
M  V30 3972 H 365.329 -1.70411 -3.49019 0
M  V30 3973 H 367.061 -1.94453 -3.54923 0
M  V30 3974 H 363.816 -3.81959 -2.80008 0
M  V30 3975 H 364.24 -6.38338 -2.25507 0
M  V30 3976 H 368.882 -3.48333 -2.39633 0
M  V30 3977 H 366.6 -7.88871 -1.75236 0
M  V30 3978 H 370.186 -5.5142 -1.85546 0
M  V30 3979 H 369.066 -7.68942 -1.53941 0
M  V30 3980 N 366.569 1.04691 -1.17803 0
M  V30 3981 C 367.817 1.7743 -0.967617 0
M  V30 3982 C 368.138 1.88359 0.504574 0
M  V30 3983 O 367.408 1.40402 1.36617 0
M  V30 3984 H 365.988 0.657242 -0.355024 0
M  V30 3985 H 368.65 1.2638 -1.48371 0
M  V30 3986 H 367.746 2.78924 -1.40027 0
M  V30 3987 N 368.047 0.979072 1.23499 0
M  V30 3988 C 369.324 0.563674 1.87302 0
M  V30 3989 C 369.704 -0.959199 1.88049 0
M  V30 3990 O 369.052 -1.83535 1.36114 0
M  V30 3991 C 369.262 1.16822 3.28867 0
M  V30 3992 C 370.61 1.26014 4.0547 0
M  V30 3993 O 371.634 1.12158 3.38082 0
M  V30 3994 O 370.493 1.48044 5.26066 0
M  V30 3995 H 367.587 0.189602 0.804972 0
M  V30 3996 H 370.133 1.07407 1.31384 0
M  V30 3997 H 368.905 2.21049 3.22883 0
M  V30 3998 H 368.528 0.642564 3.92373 0
M  V30 3999 N 369.525 -1.3858 0.750561 0
M  V30 4000 C 370.753 -2.04471 0.316098 0
M  V30 4001 C 371.168 -1.56606 -1.05452 0
M  V30 4002 O 370.525 -0.737784 -1.66922 0
M  V30 4003 C 370.576 -3.60025 0.326275 0
M  V30 4004 O 370.297 -4.06133 1.6428 0
M  V30 4005 C 371.798 -4.43131 -0.122429 0
M  V30 4006 H 369.018 -0.65717 0.135528 0
M  V30 4007 H 371.562 -1.77329 1.01857 0
M  V30 4008 H 369.717 -3.86014 -0.327431 0
M  V30 4009 H 370.131 -5.00547 1.56693 0
M  V30 4010 H 371.605 -5.51963 -0.0641473 0
M  V30 4011 H 372.082 -4.23333 -1.16988 0
M  V30 4012 H 372.688 -4.22323 0.50229 0
M  V30 4013 N 371.003 -0.499398 -1.49478 0
M  V30 4014 C 371.933 0.269244 -2.31943 0
M  V30 4015 C 372.914 0.964054 -1.40143 0
M  V30 4016 O 374.099 0.955767 -1.69052 0
M  V30 4017 C 371.229 1.33504 -3.20615 0
M  V30 4018 C 370.183 0.760202 -4.21195 0
M  V30 4019 C 369.509 1.9264 -4.98792 0
M  V30 4020 C 370.809 -0.247661 -5.21712 0
M  V30 4021 H 372.503 -0.419082 -2.96452 0
M  V30 4022 H 370.049 -0.202988 -1.42562 0
M  V30 4023 H 372.002 1.88048 -3.77115 0
M  V30 4024 H 370.726 2.05253 -2.54045 0
M  V30 4025 H 369.385 0.23653 -3.65836 0
M  V30 4026 H 369.033 2.63154 -4.28671 0
M  V30 4027 H 368.733 1.54785 -5.66847 0
M  V30 4028 H 370.257 2.4762 -5.58137 0
M  V30 4029 H 371.671 0.209579 -5.72917 0
M  V30 4030 H 370.068 -0.541962 -5.97648 0
M  V30 4031 H 371.138 -1.16409 -4.7072 0
M  V30 4032 N 372.481 1.55866 -0.233164 0
M  V30 4033 C 373.413 2.18099 0.704668 0
M  V30 4034 C 374.426 1.15334 1.14899 0
M  V30 4035 O 375.615 1.42262 1.07814 0
M  V30 4036 C 372.715 2.7592 1.96777 0
M  V30 4037 C 371.888 4.03969 1.67713 0
M  V30 4038 C 370.947 4.46242 2.78845 0
M  V30 4039 O 369.973 5.12903 2.46818 0
M  V30 4040 N 371.175 4.12886 4.08051 0
M  V30 4041 H 373.94 2.99205 0.172258 0
M  V30 4042 H 371.501 1.61815 -0.0525945 0
M  V30 4043 H 373.493 3.01165 2.70337 0
M  V30 4044 H 372.063 1.99051 2.41034 0
M  V30 4045 H 371.283 3.86459 0.777391 0
M  V30 4046 H 372.571 4.8748 1.4574 0
M  V30 4047 H 371.969 3.59342 4.3691 0
M  V30 4048 H 370.526 4.42997 4.78118 0
M  V30 4049 N 373.959 -0.0401083 1.57549 0
M  V30 4050 C 375.184 -0.748931 1.93406 0
M  V30 4051 C 375.609 -1.68686 0.832274 0
M  V30 4052 O 374.967 -1.80047 -0.212818 0
M  V30 4053 C 375.015 -1.4916 3.28304 0
M  V30 4054 O 374.119 -2.6042 3.19774 0
M  V30 4055 H 373.46 -0.202212 0.63246 0
M  V30 4056 H 375.99 0.00112086 2.046 0
M  V30 4057 H 376 -1.86395 3.62934 0
M  V30 4058 H 374.675 -0.80364 4.08062 0
M  V30 4059 H 373.252 -2.25808 2.96758 0
M  V30 4060 N 375.437 -1.54477 -0.31217 0
M  V30 4061 C 376.385 -1.85395 -1.40469 0
M  V30 4062 C 377.379 -0.726749 -1.53019 0
M  V30 4063 O 378.585 -0.910582 -1.55269 0
M  V30 4064 H 374.96 -0.587845 -0.46898 0
M  V30 4065 H 376.931 -2.76736 -1.11623 0
M  V30 4066 C 375.68 -2.10811 -2.76503 0
M  V30 4067 H 375.003 -2.97014 -2.67625 0
M  V30 4068 H 376.443 -2.3639 -3.51988 0
M  V30 4069 C 374.902 -0.903165 -3.24568 0
M  V30 4070 O 375.432 -0.118085 -4.01526 0
M  V30 4071 N 373.638 -0.711634 -2.81752 0
M  V30 4072 H 373.185 -1.35171 -2.19286 0
M  V30 4073 H 373.143 0.0930473 -3.14262 0
M  V30 4074 N 376.915 0.57481 -1.46744 0
M  V30 4075 C 377.862 1.68329 -1.57905 0
M  V30 4076 C 378.832 1.60625 -0.422927 0
M  V30 4077 O 380.017 1.79721 -0.640711 0
M  V30 4078 C 377.157 3.06665 -1.58274 0
M  V30 4079 C 376.27 3.24935 -2.84678 0
M  V30 4080 C 375.405 4.53566 -2.76499 0
M  V30 4081 C 374.444 4.65207 -3.97806 0
M  V30 4082 N 373.581 5.85172 -3.87967 0
M  V30 4083 H 378.421 1.58127 -2.52587 0
M  V30 4084 H 375.958 0.770552 -1.25303 0
M  V30 4085 H 377.916 3.86745 -1.56473 0
M  V30 4086 H 376.546 3.15745 -0.671194 0
M  V30 4087 H 375.598 2.38405 -2.96424 0
M  V30 4088 H 376.91 3.29403 -3.7456 0
M  V30 4089 H 376.064 5.41885 -2.72848 0
M  V30 4090 H 374.803 4.51548 -1.8427 0
M  V30 4091 H 373.808 3.75304 -4.0178 0
M  V30 4092 H 375.033 4.68997 -4.9114 0
M  V30 4093 H 372.979 5.84137 -2.98529 0
M  V30 4094 H 372.896 5.90943 -4.71511 0
M  V30 4095 H 374.164 6.759 -3.88303 0
M  V30 4096 N 378.394 1.34581 0.820102 0
M  V30 4097 C 379.671 1.17675 1.56244 0
M  V30 4098 C 380.051 -0.249541 2.0962 0
M  V30 4099 O 379.399 -1.25125 1.91196 0
M  V30 4100 C 379.609 2.23364 2.6816 0
M  V30 4101 C 380.957 2.58485 3.36854 0
M  V30 4102 O 381.981 2.22175 2.78418 0
M  V30 4103 O 380.84 3.20868 4.42386 0
M  V30 4104 H 377.934 0.456333 0.689702 0
M  V30 4105 H 380.48 1.46222 0.861231 0
M  V30 4106 H 379.252 3.19087 2.26493 0
M  V30 4107 H 378.875 1.96009 3.45928 0
M  V30 4108 N 379.872 -1.04064 1.18357 0
M  V30 4109 C 380.819 -2.12077 0.910603 0
M  V30 4110 C 381.789 -1.65421 -0.15 0
M  V30 4111 O 382.974 -1.90797 -0.0103614 0
M  V30 4112 C 380.114 -3.42252 0.442472 0
M  V30 4113 C 379.227 -4.0252 1.5685 0
M  V30 4114 C 378.362 -5.20657 1.05309 0
M  V30 4115 C 377.401 -5.72955 2.1538 0
M  V30 4116 N 376.538 -6.8238 1.65233 0
M  V30 4117 H 381.378 -2.34764 1.83548 0
M  V30 4118 H 378.915 -1.15157 0.915279 0
M  V30 4119 H 380.873 -4.16921 0.152534 0
M  V30 4120 H 379.503 -3.19712 -0.445428 0
M  V30 4121 H 378.555 -3.25178 1.97391 0
M  V30 4122 H 379.867 -4.37362 2.39824 0
M  V30 4123 H 379.021 -6.0244 0.717677 0
M  V30 4124 H 377.76 -4.87318 0.19293 0
M  V30 4125 H 376.765 -4.89793 2.49766 0
M  V30 4126 H 377.99 -6.08337 3.01832 0
M  V30 4127 H 375.936 -6.50917 0.815064 0
M  V30 4128 H 375.853 -7.16286 2.41805 0
M  V30 4129 H 377.121 -7.67788 1.34619 0
M  V30 4130 N 381.35 -0.985608 -1.22978 0
M  V30 4131 C 382.313 -0.535071 -2.22867 0
M  V30 4132 C 383.313 0.378123 -1.56291 0
M  V30 4133 O 384.503 0.171092 -1.73358 0
M  V30 4134 C 381.635 0.222702 -3.40172 0
M  V30 4135 H 382.828 -1.41835 -2.6424 0
M  V30 4136 H 380.381 -0.772042 -1.35901 0
M  V30 4137 H 381.116 1.12229 -3.04262 0
M  V30 4138 H 380.901 -0.43288 -3.89703 0
M  V30 4139 H 382.391 0.526335 -4.1427 0
M  V30 4140 N 382.828 1.3818 -0.7579 0
M  V30 4141 C 384.077 1.99261 -0.312744 0
M  V30 4142 C 384.39 1.60846 1.11301 0
M  V30 4143 O 385.596 2.14929 1.65885 0
M  V30 4144 C 384.052 3.56294 -0.50821 0
M  V30 4145 C 383.66 4.03657 -1.94333 0
M  V30 4146 C 385.404 4.24313 -0.125982 0
M  V30 4147 C 383.311 5.53347 -2.08712 0
M  V30 4148 H 382.241 0.745456 -0.113185 0
M  V30 4149 H 384.892 1.57889 -0.935056 0
M  V30 4150 H 383.274 3.95575 0.183353 0
M  V30 4151 H 384.448 3.75655 -2.66871 0
M  V30 4152 H 382.763 3.48376 -2.28086 0
M  V30 4153 H 385.36 5.34279 -0.212125 0
M  V30 4154 H 385.703 4.05962 0.921964 0
M  V30 4155 H 386.236 3.90285 -0.769563 0
M  V30 4156 H 382.975 5.76607 -3.11777 0
M  V30 4157 H 382.495 5.83078 -1.4064 0
M  V30 4158 H 384.174 6.19111 -1.87912 0
M  V30 4159 N 384.306 0.507319 1.49211 0
M  V30 4160 C 385.216 -0.272136 2.33016 0
M  V30 4161 C 386.232 -0.961206 1.45041 0
M  V30 4162 O 387.408 -0.941191 1.78055 0
M  V30 4163 C 384.473 -1.31895 3.20631 0
M  V30 4164 C 383.534 -0.642648 4.24463 0
M  V30 4165 C 382.767 -1.63959 5.07891 0
M  V30 4166 O 382.99 -2.87007 4.92933 0
M  V30 4167 O 381.924 -1.19143 5.8999 0
M  V30 4168 H 385.75 0.413982 3.00865 0
M  V30 4169 H 383.335 0.268556 1.46966 0
M  V30 4170 H 385.217 -1.92446 3.7489 0
M  V30 4171 H 383.892 -1.98788 2.5547 0
M  V30 4172 H 382.799 0.00276252 3.741 0
M  V30 4173 H 384.132 -0.0160534 4.92197 0
M  V30 4174 N 385.784 -1.5574 0.241426 0
M  V30 4175 C 387.03 -1.99104 -0.385406 0
M  V30 4176 C 387.363 -1.1293 -1.57988 0
M  V30 4177 O 386.638 -0.191449 -1.93555 0
M  V30 4178 C 386.921 -3.51087 -0.800616 0
M  V30 4179 C 386.774 -4.48028 0.398874 0
M  V30 4180 C 388.093 -4.08015 -1.64959 0
M  V30 4181 H 385.212 -0.723848 -0.138614 0
M  V30 4182 H 387.854 -1.86903 0.341642 0
M  V30 4183 H 386.004 -3.61615 -1.4201 0
M  V30 4184 H 387.676 -4.49487 1.03726 0
M  V30 4185 H 385.919 -4.21077 1.04293 0
M  V30 4186 H 386.59 -5.51962 0.0651056 0
M  V30 4187 H 389.066 -4.00555 -1.12672 0
M  V30 4188 H 387.942 -5.14635 -1.90898 0
M  V30 4189 H 388.203 -3.56131 -2.61961 0
M  V30 4190 N 387.262 0.0317525 -1.57568 0
M  V30 4191 C 388.49 0.734949 -1.93407 0
M  V30 4192 C 388.905 1.69036 -0.84096 0
M  V30 4193 O 388.262 1.81582 0.182836 0
M  V30 4194 C 388.313 1.49432 -3.29169 0
M  V30 4195 O 388.034 0.577261 -4.3428 0
M  V30 4196 C 389.535 2.29492 -3.79273 0
M  V30 4197 H 386.755 0.206706 -0.638368 0
M  V30 4198 H 389.299 -0.00992046 -2.04498 0
M  V30 4199 H 387.454 2.1911 -3.19483 0
M  V30 4200 H 387.868 1.10952 -5.1263 0
M  V30 4201 H 389.342 2.78172 -4.76785 0
M  V30 4202 H 389.819 3.10794 -3.10328 0
M  V30 4203 H 390.425 1.64894 -3.92033 0
M  V30 4204 N 388.74 1.54641 0.303973 0
M  V30 4205 C 389.965 1.78092 1.06292 0
M  V30 4206 C 390.39 0.537342 1.80262 0
M  V30 4207 O 389.748 -0.511993 1.7392 0
M  V30 4208 C 389.796 2.98612 2.02147 0
M  V30 4209 O 388.9 2.71528 3.10397 0
M  V30 4210 H 388.241 0.589548 0.305497 0
M  V30 4211 H 390.771 2.01716 0.3423 0
M  V30 4212 H 390.781 3.265 2.44667 0
M  V30 4213 H 389.456 3.88785 1.47714 0
M  V30 4214 H 388.033 2.54648 2.72413 0
M  V30 4215 N 390.218 -0.567019 1.47046 0
M  V30 4216 C 391.128 -1.70247 1.6141 0
M  V30 4217 C 392.144 -1.66746 0.497157 0
M  V30 4218 O 393.32 -1.86371 0.763389 0
M  V30 4219 C 390.385 -3.06756 1.61561 0
M  V30 4220 C 389.446 -3.21399 2.84607 0
M  V30 4221 C 388.679 -4.51396 2.84741 0
M  V30 4222 O 388.902 -5.36255 1.94388 0
M  V30 4223 O 387.836 -4.69621 3.76483 0
M  V30 4224 H 391.662 -1.61073 2.57467 0
M  V30 4225 H 389.247 -0.735894 1.30019 0
M  V30 4226 H 391.129 -3.8801 1.64396 0
M  V30 4227 H 389.804 -3.16333 0.686684 0
M  V30 4228 H 388.711 -2.39579 2.8732 0
M  V30 4229 H 390.044 -3.16721 3.76761 0
M  V30 4230 N 391.696 -1.35014 -0.812953 0
M  V30 4231 C 392.606 -1.2951 -1.95613 0
M  V30 4232 C 393.622 -0.20107 -1.72834 0
M  V30 4233 O 394.798 -0.42932 -1.96771 0
M  V30 4234 C 391.863 -1.06033 -3.30088 0
M  V30 4235 C 390.924 -2.24688 -3.65805 0
M  V30 4236 C 390.157 -2.02322 -4.93864 0
M  V30 4237 O 390.38 -0.986464 -5.61805 0
M  V30 4238 O 389.314 -2.89525 -5.27692 0
M  V30 4239 H 393.14 -2.25705 -2.03202 0
M  V30 4240 H 390.725 -1.15321 -0.949811 0
M  V30 4241 H 392.607 -0.94763 -4.10607 0
M  V30 4242 H 391.282 -0.128852 -3.23443 0
M  V30 4243 H 390.189 -2.41521 -2.85689 0
M  V30 4244 H 391.522 -3.16261 -3.77147 0
M  V30 4245 N 393.175 1.03435 -1.18907 0
M  V30 4246 C 394.421 1.77005 -0.989798 0
M  V30 4247 C 394.754 1.88205 0.478816 0
M  V30 4248 O 394.029 1.39481 1.35556 0
M  V30 4249 C 394.312 3.19925 -1.65287 0
M  V30 4250 C 394.165 3.1663 -3.19477 0
M  V30 4251 C 395.484 4.18189 -1.37134 0
M  V30 4252 H 392.603 0.642538 -0.360991 0
M  V30 4253 H 395.245 1.20784 -1.46667 0
M  V30 4254 H 393.395 3.67929 -1.24741 0
M  V30 4255 H 395.067 2.76567 -3.692 0
M  V30 4256 H 393.31 2.54491 -3.51307 0
M  V30 4257 H 393.981 4.1758 -3.61013 0
M  V30 4258 H 396.457 3.78761 -1.72276 0
M  V30 4259 H 395.333 5.16394 -1.86087 0
M  V30 4260 H 395.594 4.41112 -0.295424 0
M  V30 4261 N 394.653 0.992116 1.22453 0
M  V30 4262 C 395.883 0.684949 1.94915 0
M  V30 4263 C 396.291 -0.754292 1.73514 0
M  V30 4264 O 395.634 -1.52056 1.03076 0
M  V30 4265 C 395.696 0.910054 3.47791 0
M  V30 4266 C 395.36 2.33363 3.92926 0
M  V30 4267 C 396.357 3.31308 4.00663 0
M  V30 4268 C 394.042 2.66785 4.25595 0
M  V30 4269 C 396.036 4.6075 4.40441 0
M  V30 4270 C 393.723 3.96446 4.65053 0
M  V30 4271 C 394.721 4.9324 4.72444 0
M  V30 4272 O 394.409 6.20584 5.1101 0
M  V30 4273 H 394.141 0.25258 0.62704 0
M  V30 4274 H 396.695 1.32939 1.56577 0
M  V30 4275 H 394.925 0.208443 3.86138 0
M  V30 4276 H 396.614 0.598257 4.01467 0
M  V30 4277 H 397.38 3.0682 3.75615 0
M  V30 4278 H 393.259 1.92148 4.19047 0
M  V30 4279 H 396.803 5.363 4.46126 0
M  V30 4280 H 392.7 4.20724 4.89552 0
M  V30 4281 H 393.468 6.24509 5.29085 0
M  V30 4282 N 396.131 -1.37776 0.765217 0
M  V30 4283 C 397.079 -2.32209 0.134798 0
M  V30 4284 C 398.073 -1.54607 -0.692315 0
M  V30 4285 O 399.279 -1.70052 -0.590109 0
M  V30 4286 H 395.654 -0.751591 0.0248005 0
M  V30 4287 H 397.625 -2.8297 0.947119 0
M  V30 4288 C 396.374 -3.39841 -0.735063 0
M  V30 4289 H 395.697 -3.99654 -0.107991 0
M  V30 4290 H 397.137 -4.08296 -1.14326 0
M  V30 4291 C 395.596 -2.79378 -1.88281 0
M  V30 4292 O 396.126 -2.69608 -2.97783 0
M  V30 4293 N 394.332 -2.37016 -1.68142 0
M  V30 4294 H 393.879 -2.45162 -0.790772 0
M  V30 4295 H 393.837 -1.96905 -2.45104 0
M  V30 4296 N 397.609 -0.515225 -1.4894 0
M  V30 4297 C 399.025 -0.172099 -1.58669 0
M  V30 4298 C 399.225 1.32405 -1.51892 0
M  V30 4299 O 398.281 2.10116 -1.40027 0
M  V30 4300 C 399.594 -0.761533 -2.90897 0
M  V30 4301 C 401.142 -0.728926 -3.04394 0
M  V30 4302 C 401.617 -1.29667 -4.39261 0
M  V30 4303 N 403.108 -1.25799 -4.4579 0
M  V30 4304 C 403.843 -1.66733 -5.48623 0
M  V30 4305 N 403.339 -2.15327 -6.58488 0
M  V30 4306 N 405.132 -1.58061 -5.39419 0
M  V30 4307 H 397.283 -1.48778 -1.51588 0
M  V30 4308 H 399.546 -0.617968 -0.718901 0
M  V30 4309 H 399.252 -1.81136 -3.01468 0
M  V30 4310 H 399.126 -0.230106 -3.76497 0
M  V30 4311 H 401.513 0.312098 -2.93445 0
M  V30 4312 H 401.594 -1.29766 -2.20442 0
M  V30 4313 H 401.238 -2.33655 -4.50963 0
M  V30 4314 H 401.168 -0.703752 -5.21876 0
M  V30 4315 H 403.659 -0.902102 -3.66975 0
M  V30 4316 H 403.972 -2.44594 -7.33071 0
M  V30 4317 H 402.317 -2.19311 -6.59491 0
M  V30 4318 H 405.508 -1.19906 -4.52482 0
M  V30 4319 H 405.681 -1.90284 -6.19432 0
M  V30 4320 N 399.087 1.5561 -0.249682 0
M  V30 4321 C 400.317 2.03116 0.377803 0
M  V30 4322 C 400.725 1.12822 1.51881 0
M  V30 4323 O 400.068 0.13562 1.83199 0
M  V30 4324 C 400.13 3.46866 0.944693 0
M  V30 4325 C 399.794 4.56955 -0.0644259 0
M  V30 4326 C 400.791 5.12485 -0.874957 0
M  V30 4327 C 398.476 5.01936 -0.19132 0
M  V30 4328 C 400.47 6.11491 -1.79881 0
M  V30 4329 C 398.157 6.00773 -1.11868 0
M  V30 4330 C 399.155 6.5543 -1.92095 0
M  V30 4331 O 398.843 7.5234 -2.83267 0
M  V30 4332 H 398.575 0.669489 0.0935961 0
M  V30 4333 H 401.129 2.02004 -0.371966 0
M  V30 4334 H 399.359 3.45136 1.74407 0
M  V30 4335 H 401.048 3.77856 1.48255 0
M  V30 4336 H 401.814 4.78564 -0.787523 0
M  V30 4337 H 397.693 4.59055 0.423072 0
M  V30 4338 H 401.237 6.54078 -2.42543 0
M  V30 4339 H 397.134 6.34114 -1.20703 0
M  V30 4340 H 397.902 7.69966 -2.7766 0
M  V30 4341 N 400.565 -0.0233959 1.57583 0
M  V30 4342 C 401.498 -1.05549 2.02323 0
M  V30 4343 C 402.476 -1.34843 0.908626 0
M  V30 4344 O 403.66 -1.47404 1.17491 0
M  V30 4345 C 400.787 -2.38885 2.40108 0
M  V30 4346 C 399.833 -2.2541 3.62067 0
M  V30 4347 S 400.666 -1.60217 5.1097 0
M  V30 4348 C 401.822 -2.95032 5.52003 0
M  V30 4349 H 402.055 -0.674435 2.89549 0
M  V30 4350 H 399.588 -0.23355 1.52623 0
M  V30 4351 H 401.546 -3.15562 2.62547 0
M  V30 4352 H 400.207 -2.74137 1.53323 0
M  V30 4353 H 399.4 -3.23854 3.86179 0
M  V30 4354 H 399.002 -1.56876 3.39508 0
M  V30 4355 H 401.294 -3.91357 5.53033 0
M  V30 4356 H 402.237 -2.75646 6.52246 0
M  V30 4357 H 402.645 -2.97865 4.79517 0
M  V30 4358 N 402.043 -1.548 -0.295768 0
M  V30 4359 C 402.99 -1.86113 -1.36494 0
M  V30 4360 C 403.96 -0.7105 -1.50137 0
M  V30 4361 O 405.145 -0.959626 -1.64912 0
M  V30 4362 C 402.285 -2.11861 -2.72413 0
M  V30 4363 C 401.398 -3.39471 -2.67177 0
M  V30 4364 C 400.533 -3.55035 -3.95125 0
M  V30 4365 C 399.572 -4.76418 -3.84308 0
M  V30 4366 N 398.709 -4.8876 -5.04042 0
M  V30 4367 H 403.549 -2.77314 -1.09091 0
M  V30 4368 H 401.086 -1.37315 -0.52753 0
M  V30 4369 H 403.044 -2.24786 -3.51464 0
M  V30 4370 H 401.674 -1.2392 -2.98066 0
M  V30 4371 H 400.726 -3.35139 -1.79962 0
M  V30 4372 H 402.038 -4.28646 -2.55076 0
M  V30 4373 H 401.192 -3.67653 -4.82614 0
M  V30 4374 H 399.931 -2.64002 -4.10066 0
M  V30 4375 H 398.936 -4.63827 -2.95202 0
M  V30 4376 H 400.161 -5.68863 -3.70906 0
M  V30 4377 H 398.107 -4.00652 -5.19436 0
M  V30 4378 H 398.024 -5.71945 -4.94384 0
M  V30 4379 H 399.292 -5.0574 -5.93167 0
M  V30 4380 N 403.521 0.559213 -1.47345 0
M  V30 4381 C 404.751 1.33999 -1.57251 0
M  V30 4382 C 405.159 1.87905 -0.220978 0
M  V30 4383 O 404.502 1.65577 0.795617 0
M  V30 4384 C 404.564 2.54798 -2.53611 0
M  V30 4385 C 404.228 2.22192 -3.99349 0
M  V30 4386 C 405.225 1.79607 -4.87891 0
M  V30 4387 C 402.91 2.33613 -4.44669 0
M  V30 4388 C 404.904 1.48868 -6.19772 0
M  V30 4389 C 402.591 2.02487 -5.76578 0
M  V30 4390 C 403.589 1.60183 -6.63951 0
M  V30 4391 O 403.277 1.29451 -7.93409 0
M  V30 4392 H 403.009 0.414858 -0.533731 0
M  V30 4393 H 405.563 0.684465 -1.9366 0
M  V30 4394 H 403.793 3.23235 -2.12265 0
M  V30 4395 H 405.482 3.16873 -2.53666 0
M  V30 4396 H 406.248 1.70278 -4.54126 0
M  V30 4397 H 402.127 2.65501 -3.76869 0
M  V30 4398 H 405.671 1.15775 -6.87926 0
M  V30 4399 H 401.568 2.11448 -6.09885 0
M  V30 4400 H 402.336 1.43098 -8.05894 0
M  V30 4401 N 404.999 1.35443 0.805782 0
M  V30 4402 C 405.929 1.31095 1.93226 0
M  V30 4403 C 406.91 0.185244 1.69088 0
M  V30 4404 O 408.095 0.380332 1.90439 0
M  V30 4405 C 405.225 1.08299 3.29983 0
M  V30 4406 C 404.179 2.17519 3.68605 0
M  V30 4407 C 403.505 1.79887 5.03532 0
M  V30 4408 C 404.805 3.5949 3.78898 0
M  V30 4409 H 406.499 2.25352 1.97122 0
M  V30 4410 H 404.045 1.0848 0.946996 0
M  V30 4411 H 405.998 1.03897 4.08391 0
M  V30 4412 H 404.722 0.104885 3.26432 0
M  V30 4413 H 403.381 2.2102 2.92482 0
M  V30 4414 H 403.029 0.80693 4.96485 0
M  V30 4415 H 402.729 2.53001 5.30344 0
M  V30 4416 H 404.253 1.77011 5.84379 0
M  V30 4417 H 405.667 3.58307 4.47536 0
M  V30 4418 H 404.064 4.31371 4.1718 0
M  V30 4419 H 405.134 3.95584 2.80431 0
M  V30 4420 N 406.477 -1.02803 1.19454 0
M  V30 4421 C 407.893 -1.28473 0.946937 0
M  V30 4422 C 408.093 -1.97881 -0.380202 0
M  V30 4423 O 407.149 -2.26719 -1.11151 0
M  V30 4424 C 408.462 -2.13099 2.12154 0
M  V30 4425 C 410.01 -2.26404 2.16126 0
M  V30 4426 C 410.485 -3.14402 3.33039 0
M  V30 4427 N 411.976 -3.21991 3.32981 0
M  V30 4428 C 412.711 -3.90272 4.20089 0
M  V30 4429 N 412.207 -4.60777 5.17355 0
M  V30 4430 N 414 -3.8668 4.07964 0
M  V30 4431 H 406.151 -0.561665 2.04839 0
M  V30 4432 H 408.414 -0.310438 0.89573 0
M  V30 4433 H 408.12 -1.69422 3.08203 0
M  V30 4434 H 407.994 -3.13813 2.09287 0
M  V30 4435 H 410.381 -2.69311 1.20647 0
M  V30 4436 H 410.462 -1.25237 2.23045 0
M  V30 4437 H 410.106 -2.72204 4.28798 0
M  V30 4438 H 410.036 -4.1563 3.23356 0
M  V30 4439 H 412.527 -2.71778 2.62574 0
M  V30 4440 H 412.84 -5.10513 5.80169 0
M  V30 4441 H 411.185 -4.5964 5.21302 0
M  V30 4442 H 414.376 -3.30739 3.31254 0
M  V30 4443 H 414.549 -4.39621 4.76064 0
M  V30 4444 N 407.956 -0.998596 -1.21925 0
M  V30 4445 C 409.204 -0.676325 -1.90448 0
M  V30 4446 C 409.525 0.794719 -1.78071 0
M  V30 4447 O 408.795 1.5701 -1.17152 0
M  V30 4448 H 407.375 -0.247165 -0.704925 0
M  V30 4449 H 410.037 -1.26633 -1.48156 0
M  V30 4450 H 409.133 -0.943858 -2.97486 0
M  V30 4451 N 409.434 1.37368 -0.772513 0
M  V30 4452 C 410.674 2.01512 -0.342361 0
M  V30 4453 C 411.038 1.59997 1.06136 0
M  V30 4454 O 412.239 2.16609 1.59167 0
M  V30 4455 C 410.51 3.54134 -0.482048 0
M  V30 4456 S 412.069 4.38585 -0.137272 0
M  V30 4457 H 408.887 0.698699 -0.131686 0
M  V30 4458 H 411.489 1.67552 -1.0073 0
M  V30 4459 H 410.193 3.81837 -1.50428 0
M  V30 4460 H 409.724 3.92894 0.199413 0
M  V30 4461 H 411.739 4.84594 1.06692 0
M  V30 4462 N 410.912 0.523116 1.48665 0
M  V30 4463 C 411.822 -0.247406 2.33292 0
M  V30 4464 C 412.838 -0.945769 1.46052 0
M  V30 4465 O 414.014 -0.922253 1.79043 0
M  V30 4466 C 411.079 -1.28487 3.22012 0
M  V30 4467 C 410.14 -0.597592 4.2512 0
M  V30 4468 C 409.373 -1.58563 5.09601 0
M  V30 4469 O 409.596 -2.81763 4.95949 0
M  V30 4470 O 408.53 -1.12879 5.91221 0
M  V30 4471 H 412.356 0.445869 3.00409 0
M  V30 4472 H 409.941 0.284128 1.46673 0
M  V30 4473 H 411.823 -1.88459 3.7691 0
M  V30 4474 H 410.498 -1.96068 2.57564 0
M  V30 4475 H 409.405 0.0424407 3.74076 0
M  V30 4476 H 410.738 0.0361517 4.92187 0
M  V30 4477 N 412.39 -1.55475 0.257931 0
M  V30 4478 C 413.34 -2.18506 -0.651094 0
M  V30 4479 C 414.324 -1.14431 -1.13112 0
M  V30 4480 O 415.516 -1.40305 -1.07905 0
M  V30 4481 C 412.645 -2.89653 -1.84272 0
M  V30 4482 C 411.731 -4.00996 -1.38068 0
M  V30 4483 N 412.122 -5.01816 -0.633609 0
M  V30 4484 C 410.42 -4.13753 -1.66506 0
M  V30 4485 C 411.121 -5.80371 -0.392922 0
M  V30 4486 N 410.097 -5.3505 -0.960359 0
M  V30 4487 H 413.899 -2.93811 -0.0722883 0
M  V30 4488 H 411.413 -1.62286 0.0607256 0
M  V30 4489 H 413.41 -3.33245 -2.50506 0
M  V30 4490 H 412.07 -2.15854 -2.42564 0
M  V30 4491 H 413.081 -5.17128 -0.282626 0
M  V30 4492 H 409.758 -3.51133 -2.25858 0
M  V30 4493 H 411.148 -6.7159 0.204235 0
M  V30 4494 N 413.868 0.0150385 -1.57593 0
M  V30 4495 C 415.098 0.713359 -1.93894 0
M  V30 4496 C 415.506 1.68663 -0.857289 0
M  V30 4497 O 414.849 1.82876 0.173788 0
M  V30 4498 C 414.911 1.51348 -3.26089 0
M  V30 4499 C 414.575 0.703451 -4.51554 0
M  V30 4500 C 415.572 -0.00237924 -5.199 0
M  V30 4501 C 413.257 0.653854 -4.98026 0
M  V30 4502 C 415.251 -0.746955 -6.33008 0
M  V30 4503 C 412.938 -0.0944578 -6.11027 0
M  V30 4504 C 413.936 -0.793609 -6.78374 0
M  V30 4505 O 413.624 -1.52974 -7.89211 0
M  V30 4506 H 413.356 0.204637 -0.644282 0
M  V30 4507 H 415.91 -0.0276411 -2.05381 0
M  V30 4508 H 414.14 2.29862 -3.10967 0
M  V30 4509 H 415.829 2.09572 -3.47612 0
M  V30 4510 H 416.595 0.0268803 -4.84993 0
M  V30 4511 H 412.474 1.18756 -4.45441 0
M  V30 4512 H 416.018 -1.2932 -6.85509 0
M  V30 4513 H 411.915 -0.125591 -6.45378 0
M  V30 4514 H 412.683 -1.44488 -8.05646 0
M  V30 4515 N 415.346 1.54954 0.287554 0
M  V30 4516 C 416.593 1.74873 1.02106 0
M  V30 4517 C 416.921 0.541829 1.86801 0
M  V30 4518 O 416.176 -0.475992 1.89823 0
M  V30 4519 C 416.475 2.99833 1.94512 0
M  V30 4520 C 416.141 4.33029 1.25686 0
M  V30 4521 C 414.803 4.69233 1.06649 0
M  V30 4522 C 417.155 5.15542 0.765913 0
M  V30 4523 C 414.483 5.85518 0.372222 0
M  V30 4524 C 416.835 6.32542 0.0853101 0
M  V30 4525 C 415.499 6.67398 -0.1169 0
M  V30 4526 H 414.769 0.639906 0.373632 0
M  V30 4527 H 417.416 1.89219 0.294665 0
M  V30 4528 H 415.721 2.80325 2.73725 0
M  V30 4529 H 417.418 3.1244 2.51361 0
M  V30 4530 H 414.008 4.04564 1.41512 0
M  V30 4531 H 418.192 4.88059 0.90066 0
M  V30 4532 H 413.448 6.11057 0.204695 0
M  V30 4533 H 417.622 6.95741 -0.302936 0
M  V30 4534 H 415.249 7.57357 -0.656859 0
M  V30 4535 N 416.824 -0.551391 1.4764 0
M  V30 4536 C 418.052 -1.33357 1.58189 0
M  V30 4537 C 418.467 -1.87342 0.234199 0
M  V30 4538 O 417.824 -1.65301 -0.77343 0
M  V30 4539 C 417.875 -2.49942 2.61173 0
M  V30 4540 O 417.596 -1.98187 3.90709 0
M  V30 4541 C 419.097 -3.42072 2.8196 0
M  V30 4542 H 416.317 -0.40631 0.533998 0
M  V30 4543 H 418.861 -0.667367 1.93304 0
M  V30 4544 H 417.016 -3.12489 2.28975 0
M  V30 4545 H 417.43 -2.74342 4.47031 0
M  V30 4546 H 418.904 -4.20278 3.57869 0
M  V30 4547 H 419.381 -3.95978 1.89995 0
M  V30 4548 H 419.987 -2.85336 3.15378 0
M  V30 4549 N 418.302 -1.35869 -0.798587 0
M  V30 4550 C 419.579 -1.20145 -1.54352 0
M  V30 4551 C 419.959 0.216161 -2.0999 0
M  V30 4552 O 419.307 1.22068 -1.93162 0
M  V30 4553 C 419.517 -2.27602 -2.64572 0
M  V30 4554 C 420.865 -2.63811 -3.32699 0
M  V30 4555 O 421.889 -2.26576 -2.74849 0
M  V30 4556 O 420.748 -3.27866 -4.37226 0
M  V30 4557 H 417.842 -0.467248 -0.682355 0
M  V30 4558 H 420.388 -1.47574 -0.837859 0
M  V30 4559 H 419.16 -3.2265 -2.21388 0
M  V30 4560 H 418.783 -2.01488 -3.42766 0
M  V30 4561 N 419.78 1.02168 -1.19998 0
M  V30 4562 C 420.69 2.14069 -0.959774 0
M  V30 4563 C 421.706 1.73804 0.082655 0
M  V30 4564 O 422.882 2.01133 -0.103633 0
M  V30 4565 C 419.947 3.42936 -0.509459 0
M  V30 4566 C 419.008 3.97474 -1.62213 0
M  V30 4567 C 418.241 5.2019 -1.19321 0
M  V30 4568 O 418.464 5.70369 -0.0597726 0
M  V30 4569 O 417.398 5.67749 -1.99863 0
M  V30 4570 H 421.224 2.37199 -1.89658 0
M  V30 4571 H 418.809 1.12469 -0.983411 0
M  V30 4572 H 420.691 4.20551 -0.267322 0
M  V30 4573 H 419.366 3.21234 0.398821 0
M  V30 4574 H 418.273 3.21161 -1.9185 0
M  V30 4575 H 419.606 4.23555 -2.50723 0
M  V30 4576 N 421.258 1.00505 1.21394 0
M  V30 4577 C 422.191 0.51032 2.22421 0
M  V30 4578 C 423.169 -0.436 1.56645 0
M  V30 4579 O 424.353 -0.358709 1.85055 0
M  V30 4580 C 421.48 -0.258733 3.3771 0
M  V30 4581 C 420.526 0.635395 4.2174 0
M  V30 4582 S 421.359 2.09783 4.92698 0
M  V30 4583 C 422.515 1.33862 6.11418 0
M  V30 4584 H 422.748 1.36637 2.64041 0
M  V30 4585 H 420.281 0.812991 1.31262 0
M  V30 4586 H 422.239 -0.696372 4.0455 0
M  V30 4587 H 420.9 -1.0902 2.94573 0
M  V30 4588 H 420.093 0.0430189 5.03982 0
M  V30 4589 H 419.695 1.01031 3.60095 0
M  V30 4590 H 421.987 0.612541 6.74725 0
M  V30 4591 H 422.93 2.13675 6.75092 0
M  V30 4592 H 423.338 0.846568 5.58116 0
M  V30 4593 N 422.737 -1.36956 0.779787 0
M  V30 4594 C 423.667 -2.32761 0.185651 0
M  V30 4595 C 424.648 -1.56177 -0.673989 0
M  V30 4596 O 425.833 -1.84378 -0.609797 0
M  V30 4597 C 422.963 -3.40418 -0.687964 0
M  V30 4598 C 421.917 -4.27941 0.0710102 0
M  V30 4599 C 421.243 -5.26681 -0.922573 0
M  V30 4600 C 422.543 -5.07006 1.25467 0
M  V30 4601 H 424.237 -2.82698 0.986008 0
M  V30 4602 H 421.783 -1.3592 0.475592 0
M  V30 4603 H 423.736 -4.06423 -1.11348 0
M  V30 4604 H 422.46 -2.89025 -1.52093 0
M  V30 4605 H 421.119 -3.63478 0.47739 0
M  V30 4606 H 420.767 -4.71565 -1.7503 0
M  V30 4607 H 420.467 -5.86103 -0.419237 0
M  V30 4608 H 421.991 -5.9556 -1.34686 0
M  V30 4609 H 423.405 -5.66105 0.905401 0
M  V30 4610 H 421.802 -5.75793 1.69063 0
M  V30 4611 H 422.872 -4.3921 2.05481 0
M  V30 4612 N 424.215 -0.530993 -1.48385 0
M  V30 4613 C 425.492 0.0671788 -1.95485 0
M  V30 4614 C 425.872 1.51191 -1.47324 0
M  V30 4615 O 425.22 2.17507 -0.700202 0
M  V30 4616 C 425.43 -0.0511206 -3.48963 0
M  V30 4617 C 426.778 0.107632 -4.24464 0
M  V30 4618 O 427.802 0.0226248 -3.56193 0
M  V30 4619 O 426.661 0.285972 -5.45751 0
M  V30 4620 H 423.755 0.0787365 -0.823243 0
M  V30 4621 H 426.301 -0.595662 -1.58902 0
M  V30 4622 H 425.073 -1.05747 -3.7674 0
M  V30 4623 H 424.696 0.650525 -3.92242 0
M  V30 4624 N 425.693 1.55336 -0.266172 0
M  V30 4625 C 426.933 2.01303 0.354459 0
M  V30 4626 C 427.297 1.15046 1.53715 0
M  V30 4627 O 428.498 1.50554 2.22681 0
M  V30 4628 C 426.769 3.49748 0.735579 0
M  V30 4629 S 428.328 4.1771 1.34401 0
M  V30 4630 H 425.146 0.702333 0.110674 0
M  V30 4631 H 427.748 1.91653 -0.385916 0
M  V30 4632 H 426.452 4.10181 -0.134196 0
M  V30 4633 H 425.983 3.63364 1.50764 0
M  V30 4634 H 427.998 4.20594 2.63278 0
M  V30 4635 N 427.171 -0.0066808 1.57599 0
M  V30 4636 C 428.396 -0.707738 1.94951 0
M  V30 4637 C 428.821 -1.66882 0.867868 0
M  V30 4638 O 428.179 -1.80457 -0.17458 0
M  V30 4639 C 428.227 -1.42162 3.31394 0
M  V30 4640 O 427.331 -2.53578 3.25226 0
M  V30 4641 H 426.672 -0.188752 0.636607 0
M  V30 4642 H 429.202 0.0445193 2.04552 0
M  V30 4643 H 429.212 -1.78655 3.66806 0
M  V30 4644 H 427.887 -0.716903 4.09675 0
M  V30 4645 H 426.464 -2.19463 3.01481 0
M  V30 4646 N 428.649 -1.55105 -0.279332 0
M  V30 4647 C 429.579 -1.90557 -1.34945 0
M  V30 4648 C 430.56 -0.766738 -1.51839 0
M  V30 4649 O 431.745 -1.02434 -1.64988 0
M  V30 4650 C 428.875 -2.17193 -2.71006 0
M  V30 4651 C 427.829 -3.33021 -2.68851 0
M  V30 4652 C 427.155 -3.45123 -4.08405 0
M  V30 4653 C 428.455 -4.69578 -2.28678 0
M  V30 4654 H 430.149 -2.80188 -1.05522 0
M  V30 4655 H 427.695 -1.34811 -0.506173 0
M  V30 4656 H 429.648 -2.40581 -3.45975 0
M  V30 4657 H 428.372 -1.24355 -3.01999 0
M  V30 4658 H 427.031 -3.0959 -1.9634 0
M  V30 4659 H 426.679 -2.49762 -4.3661 0
M  V30 4660 H 426.379 -4.22995 -4.07859 0
M  V30 4661 H 427.903 -3.70796 -4.85121 0
M  V30 4662 H 429.317 -4.92553 -2.93368 0
M  V30 4663 H 427.714 -5.5032 -2.39306 0
M  V30 4664 H 428.784 -4.68828 -1.23807 0
M  V30 4665 N 430.127 0.543554 -1.4793 0
M  V30 4666 C 431.373 1.30201 -1.55485 0
M  V30 4667 C 431.706 1.92925 -0.222201 0
M  V30 4668 O 430.981 1.78586 0.77053 0
M  V30 4669 C 431.264 2.40174 -2.68307 0
M  V30 4670 C 431.117 1.8223 -4.11233 0
M  V30 4671 C 432.436 3.42024 -2.76961 0
M  V30 4672 H 429.555 0.472036 -0.565996 0
M  V30 4673 H 432.197 0.606914 -1.80046 0
M  V30 4674 H 430.347 2.99463 -2.47495 0
M  V30 4675 H 432.019 1.27096 -4.43446 0
M  V30 4676 H 430.262 1.12832 -4.18869 0
M  V30 4677 H 430.933 2.61793 -4.85972 0
M  V30 4678 H 433.409 2.92672 -2.95774 0
M  V30 4679 H 432.285 4.16383 -3.57654 0
M  V30 4680 H 432.546 4.0173 -1.84568 0
M  V30 4681 N 431.605 1.3629 0.791371 0
M  V30 4682 C 432.833 1.33562 1.58016 0
M  V30 4683 C 433.248 -0.0835616 1.88615 0
M  V30 4684 O 432.605 -1.0399 1.49974 0
M  V30 4685 C 432.656 2.15517 2.90232 0
M  V30 4686 O 432.377 3.51902 2.60953 0
M  V30 4687 C 433.878 2.20546 3.84544 0
M  V30 4688 H 431.098 0.458226 0.490173 0
M  V30 4689 H 433.642 1.79361 0.982345 0
M  V30 4690 H 431.797 1.73278 3.46487 0
M  V30 4691 H 432.211 3.94644 3.4548 0
M  V30 4692 H 433.685 2.82252 4.74382 0
M  V30 4693 H 434.162 1.20838 4.2225 0
M  V30 4694 H 434.768 2.63013 3.34222 0
M  V30 4695 N 433.083 -1.0153 1.20538 0
M  V30 4696 C 434.313 -1.78487 1.04048 0
M  V30 4697 C 434.721 -1.84631 -0.413292 0
M  V30 4698 O 434.064 -1.29919 -1.29872 0
M  V30 4699 C 434.126 -3.24367 1.55003 0
M  V30 4700 C 433.79 -3.41827 3.0332 0
M  V30 4701 C 434.787 -3.30941 4.00966 0
M  V30 4702 C 432.472 -3.67602 3.42307 0
M  V30 4703 C 434.466 -3.45577 5.35589 0
M  V30 4704 C 432.153 -3.81881 4.77085 0
M  V30 4705 C 433.151 -3.70874 5.73534 0
M  V30 4706 O 432.839 -3.84714 7.05868 0
M  V30 4707 H 432.571 -0.568108 0.366373 0
M  V30 4708 H 435.125 -1.28677 1.60098 0
M  V30 4709 H 433.355 -3.75266 0.933397 0
M  V30 4710 H 435.044 -3.82963 1.34514 0
M  V30 4711 H 435.81 -3.10964 3.72191 0
M  V30 4712 H 431.689 -3.75256 2.67776 0
M  V30 4713 H 435.233 -3.36902 6.10854 0
M  V30 4714 H 431.13 -4.01359 5.0555 0
M  V30 4715 H 431.898 -4.01724 7.13134 0
M  V30 4716 N 434.561 -1.01147 -1.20859 0
M  V30 4717 C 435.491 -0.597663 -2.25722 0
M  V30 4718 C 436.472 0.384744 -1.65692 0
M  V30 4719 O 437.657 0.271303 -1.92296 0
M  V30 4720 C 434.787 0.0700149 -3.47229 0
M  V30 4721 C 433.741 -0.832843 -4.19819 0
M  V30 4722 C 433.067 -0.0312202 -5.34691 0
M  V30 4723 C 434.367 -2.1385 -4.76514 0
M  V30 4724 H 436.061 -1.47423 -2.60589 0
M  V30 4725 H 433.607 -0.710301 -1.25263 0
M  V30 4726 H 435.56 0.37103 -4.19763 0
M  V30 4727 H 434.284 0.981259 -3.11511 0
M  V30 4728 H 432.943 -1.11778 -3.49144 0
M  V30 4729 H 432.591 0.881515 -4.95215 0
M  V30 4730 H 432.291 -0.632434 -5.84187 0
M  V30 4731 H 433.815 0.26346 -6.10031 0
M  V30 4732 H 435.229 -1.9002 -5.40893 0
M  V30 4733 H 433.626 -2.69012 -5.36426 0
M  V30 4734 H 434.696 -2.80495 -3.95538 0
M  V30 4735 N 436.039 1.36541 -0.78704 0
M  V30 4736 C 436.986 2.30082 -0.181901 0
M  V30 4737 C 437.956 1.5186 0.672896 0
M  V30 4738 O 439.141 1.80374 0.622072 0
M  V30 4739 C 436.281 3.3835 0.679197 0
M  V30 4740 C 435.394 4.31565 -0.193882 0
M  V30 4741 C 434.529 5.26915 0.673364 0
M  V30 4742 C 433.568 6.11769 -0.201315 0
M  V30 4743 N 432.705 6.99315 0.624777 0
M  V30 4744 H 437.545 2.81248 -0.985064 0
M  V30 4745 H 435.082 1.38437 -0.497342 0
M  V30 4746 H 437.04 3.99767 1.19341 0
M  V30 4747 H 435.67 2.8851 1.44781 0
M  V30 4748 H 434.722 3.71323 -0.826044 0
M  V30 4749 H 436.034 4.91191 -0.867937 0
M  V30 4750 H 435.188 5.9361 1.25348 0
M  V30 4751 H 433.927 4.67737 1.38105 0
M  V30 4752 H 432.932 5.44039 -0.793849 0
M  V30 4753 H 434.157 6.73022 -0.906568 0
M  V30 4754 H 432.103 6.42648 1.3168 0
M  V30 4755 H 432.02 7.56 0.00835237 0
M  V30 4756 H 433.288 7.70382 1.18879 0
M  V30 4757 N 437.518 0.538854 1.48102 0
M  V30 4758 C 438.929 0.100679 1.86428 0
M  V30 4759 C 439.28 -1.32447 1.44749 0
M  V30 4760 O 438.405 -1.99339 0.842199 0
M  V30 4761 C 439 0.175933 3.38343 0
M  V30 4762 C 437.559 -0.207098 3.7583 0
M  V30 4763 C 436.706 0.531741 2.72154 0
M  V30 4764 H 439.657 0.749614 1.3988 0
M  V30 4765 H 439.678 -0.610144 3.75576 0
M  V30 4766 H 439.19 1.21328 3.68648 0
M  V30 4767 H 437.291 -1.24626 3.5114 0
M  V30 4768 H 437.404 0.138687 4.78899 0
M  V30 4769 H 435.768 -0.0230462 2.5469 0
M  V30 4770 H 436.551 1.56989 3.05302 0
M  V30 4771 N 438.996 -1.55193 0.274407 0
M  V30 4772 C 440.244 -1.99187 -0.341902 0
M  V30 4773 C 440.565 -1.16422 -1.56431 0
M  V30 4774 O 439.835 -0.253573 -1.94252 0
M  V30 4775 H 438.415 -0.735721 -0.129317 0
M  V30 4776 H 441.077 -1.91168 0.379578 0
M  V30 4777 H 440.173 -3.05629 -0.632253 0
M  V30 4778 N 440.474 -0.00167713 -1.576 0
M  V30 4779 C 441.437 0.974046 -2.07473 0
M  V30 4780 C 442.437 1.27143 -0.984444 0
M  V30 4781 O 443.627 1.21633 -1.24703 0
M  V30 4782 C 440.759 2.29849 -2.51759 0
M  V30 4783 H 441.952 0.54262 -2.9495 0
M  V30 4784 H 439.505 0.245829 -1.54355 0
M  V30 4785 H 440.24 2.77677 -1.67529 0
M  V30 4786 H 440.025 2.09584 -3.31386 0
M  V30 4787 H 441.515 2.9984 -2.90664 0
M  V30 4788 N 441.952 1.55251 0.271103 0
M  V30 4789 C 442.915 1.87484 1.31842 0
M  V30 4790 C 443.915 0.749545 1.42262 0
M  V30 4791 O 445.105 1.01771 1.4138 0
M  V30 4792 C 442.237 2.0818 2.69951 0
M  V30 4793 H 443.43 2.81108 1.0449 0
M  V30 4794 H 440.983 1.47771 0.509258 0
M  V30 4795 H 441.718 1.16944 3.02481 0
M  V30 4796 H 441.503 2.90114 2.63774 0
M  V30 4797 H 442.993 2.34385 3.4562 0
M  V30 4798 N 443.43 -0.535701 1.48216 0
M  V30 4799 C 444.393 -1.623 1.61838 0
M  V30 4800 C 445.393 -1.53087 0.492024 0
M  V30 4801 O 446.583 -1.5686 0.757668 0
M  V30 4802 C 443.715 -3.01907 1.58319 0
M  V30 4803 H 444.908 -1.51564 2.58783 0
M  V30 4804 H 442.461 -0.757317 1.36727 0
M  V30 4805 H 443.196 -3.18155 0.628299 0
M  V30 4806 H 442.981 -3.10003 2.40085 0
M  V30 4807 H 444.471 -3.80969 1.71033 0
M  V30 4808 O 444.947 -1.46458 -0.680617 0
M  V30 4809 H 445.638 -1.40531 -1.33307 0
M  V30 END ATOM
M  V30 BEGIN BOND
M  V30 END BOND
M  V30 END CTAB
M  END
$$$$
