drugbank_target|Q79G13 Possible cellulase CelA1 (Endoglucanase) (Endo-1,4-beta-glucanase) (FI-cmcase) (Carboxymethyl cellulase) (DB01642; DB02379; DB02467; DB03584; DB04545)
 OpenBabel12092120223D

  0  0  0     0  0            999 V3000
M  V30 BEGIN CTAB
M  V30 COUNTS 5560 5634 0 0 0
M  V30 BEGIN ATOM
M  V30 1 H -0.908 1.98254 -0.117106 0
M  V30 2 N 0 1.576 0 0
M  V30 3 C 0.933 2.03868 1.02534 0
M  V30 4 C 1.911 0.928543 1.3348 0
M  V30 5 O 3.095 1.19667 1.45644 0
M  V30 6 C 0.222 2.43627 2.35294 0
M  V30 7 C -0.732 3.65373 2.2001 0
M  V30 8 S 0.101 5.13292 1.52614 0
M  V30 9 C 1.257 5.56322 2.86805 0
M  V30 10 H 1.49 2.90518 0.631377 0
M  V30 11 H -0.977 1.52953 0.210867 0
M  V30 12 H 0.981 2.67203 3.11629 0
M  V30 13 H -0.358 1.57376 2.7183 0
M  V30 14 H -1.165 3.90944 3.18086 0
M  V30 15 H -1.563 3.418 1.51819 0
M  V30 16 H 0.729 5.58782 3.83104 0
M  V30 17 H 1.672 6.56266 2.65933 0
M  V30 18 H 2.08 4.83886 2.90714 0
M  V30 19 N 1.4781 -0.272755 1.55222 0
M  V30 20 C 2.7061 -1.02255 1.79865 0
M  V30 21 C 3.1211 -1.79924 0.572088 0
M  V30 22 O 2.4781 -1.76638 -0.458842 0
M  V30 23 C 2.5291 -1.98094 3.02392 0
M  V30 24 O 2.2501 -1.23572 4.20311 0
M  V30 25 C 3.7511 -2.84884 3.39641 0
M  V30 26 H 0.9711 -0.302057 0.599168 0
M  V30 27 H 3.5151 -0.303465 2.02236 0
M  V30 28 H 1.6701 -2.65465 2.82147 0
M  V30 29 H 2.0841 -1.88172 4.89583 0
M  V30 30 H 3.5581 -3.47927 4.28545 0
M  V30 31 H 4.0351 -3.54665 2.59055 0
M  V30 32 H 4.6411 -2.23003 3.62146 0
M  V30 33 N 2.9562 -1.48159 -0.537278 0
M  V30 34 C 4.3722 -1.34118 -0.865129 0
M  V30 35 C 4.5722 -0.346678 -1.98495 0
M  V30 36 O 3.6282 0.234715 -2.51407 0
M  V30 37 C 4.9412 -2.73963 -1.23954 0
M  V30 38 C 6.4892 -2.82397 -1.34984 0
M  V30 39 C 6.9642 -4.22928 -1.75772 0
M  V30 40 N 8.4552 -4.25566 -1.82887 0
M  V30 41 C 9.1902 -5.31235 -2.15817 0
M  V30 42 N 8.6862 -6.47189 -2.47222 0
M  V30 43 N 10.4792 -5.18624 -2.16761 0
M  V30 44 H 2.6302 -2.1144 0.201715 0
M  V30 45 H 4.8932 -0.947598 0.0275949 0
M  V30 46 H 4.5992 -3.48264 -0.490381 0
M  V30 47 H 4.4732 -3.0702 -2.19132 0
M  V30 48 H 6.8602 -2.08356 -2.08978 0
M  V30 49 H 6.9412 -2.5297 -0.379448 0
M  V30 50 H 6.5852 -4.97482 -1.02341 0
M  V30 51 H 6.5152 -4.49794 -2.73848 0
M  V30 52 H 9.0062 -3.41924 -1.60924 0
M  V30 53 H 9.3192 -7.23564 -2.71433 0
M  V30 54 H 7.6642 -6.50476 -2.44757 0
M  V30 55 H 10.8552 -4.27056 -1.91679 0
M  V30 56 H 11.0282 -6.01078 -2.42093 0
M  V30 57 N 4.4343 0.785586 -1.36625 0
M  V30 58 C 5.8503 1.08419 -1.17122 0
M  V30 59 C 6.0503 2.015 0.00208491 0
M  V30 60 O 5.1063 2.43551 0.666278 0
M  V30 61 C 6.4193 1.69498 -2.48377 0
M  V30 62 C 7.9673 1.81821 -2.54775 0
M  V30 63 C 8.4423 2.46315 -3.86126 0
M  V30 64 N 9.9333 2.53779 -3.87492 0
M  V30 65 C 10.6683 3.045 -4.85868 0
M  V30 66 N 10.1643 3.55499 -5.94637 0
M  V30 67 N 11.9573 3.03247 -4.73284 0
M  V30 68 H 4.1083 0.167264 -2.1174 0
M  V30 69 H 6.3713 0.13682 -0.938075 0
M  V30 70 H 6.0773 1.08571 -3.34522 0
M  V30 71 H 5.9513 2.6896 -2.64462 0
M  V30 72 H 8.3383 2.41884 -1.69045 0
M  V30 73 H 8.4193 0.811532 -2.42586 0
M  V30 74 H 8.0633 1.86895 -4.72263 0
M  V30 75 H 7.9933 3.47561 -3.95612 0
M  V30 76 H 10.4843 2.17672 -3.08913 0
M  V30 77 H 10.7973 3.92562 -6.65669 0
M  V30 78 H 9.1423 3.5364 -5.98301 0
M  V30 79 H 12.3333 2.62696 -3.87438 0
M  V30 80 H 12.5063 3.42467 -5.50109 0
M  V30 81 N 5.9124 1.20967 1.01018 0
M  V30 82 C 7.1404 1.04956 1.78303 0
M  V30 83 C 7.5554 -0.400915 1.84494 0
M  V30 84 O 6.9124 -1.27826 1.30257 0
M  V30 85 C 6.9634 1.63403 3.22462 0
M  V30 86 O 6.6844 3.02775 3.16637 0
M  V30 87 C 8.1854 1.52432 4.16268 0
M  V30 88 H 5.4054 0.368858 0.560522 0
M  V30 89 H 7.9494 1.60193 1.27116 0
M  V30 90 H 6.1044 1.1227 3.70775 0
M  V30 91 H 6.5184 3.30626 4.07169 0
M  V30 92 H 7.9924 1.98078 5.15237 0
M  V30 93 H 8.4694 0.477875 4.36592 0
M  V30 94 H 9.0754 2.02787 3.73841 0
M  V30 95 N 7.3905 -1.2043 1.01659 0
M  V30 96 C 8.6385 -1.89423 0.704522 0
M  V30 97 C 8.9595 -1.79231 -0.768197 0
M  V30 98 O 8.2295 -1.1947 -1.55254 0
M  V30 99 H 6.8095 -0.701178 0.257602 0
M  V30 100 H 9.4715 -1.4626 1.28818 0
M  V30 101 H 8.5675 -2.96052 0.987916 0
M  V30 102 N 8.8686 -0.792821 -1.36206 0
M  V30 103 C 9.8006 -0.151469 -2.28699 0
M  V30 104 C 10.8136 0.641262 -1.49638 0
M  V30 105 O 12.0026 0.475885 -1.72039 0
M  V30 106 C 9.1026 0.808424 -3.29117 0
M  V30 107 C 8.2756 0.0650202 -4.37352 0
M  V30 108 C 7.3346 0.941358 -5.17711 0
M  V30 109 O 6.3606 0.397352 -5.67811 0
M  V30 110 N 7.5626 2.2652 -5.3448 0
M  V30 111 H 10.3276 -0.945982 -2.84379 0
M  V30 112 H 7.8886 -0.647032 -1.48409 0
M  V30 113 H 9.8806 1.3986 -3.79765 0
M  V30 114 H 8.4506 1.5038 -2.74052 0
M  V30 115 H 7.6706 -0.706255 -3.87822 0
M  V30 116 H 8.9586 -0.447847 -5.06825 0
M  V30 117 H 8.3566 2.73128 -4.95396 0
M  V30 118 H 6.9136 2.80493 -5.88359 0
M  V30 119 N 10.3467 1.47872 -0.545128 0
M  V30 120 C 11.7627 1.5829 -0.204032 0
M  V30 121 C 11.9627 1.54529 1.29317 0
M  V30 122 O 11.0187 1.44232 2.07252 0
M  V30 123 C 12.3317 2.89304 -0.819987 0
M  V30 124 C 13.8797 3.02864 -0.790105 0
M  V30 125 C 14.3547 4.3656 -1.38491 0
M  V30 126 N 15.8457 4.43165 -1.34755 0
M  V30 127 C 16.5807 5.45153 -1.77753 0
M  V30 128 N 16.0767 6.54016 -2.2855 0
M  V30 129 N 17.8697 5.36125 -1.68897 0
M  V30 130 H 10.0207 1.4856 -1.51802 0
M  V30 131 H 12.2837 0.706305 -0.632327 0
M  V30 132 H 11.9897 2.97757 -1.87173 0
M  V30 133 H 11.8637 3.75957 -0.305915 0
M  V30 134 H 14.2507 2.94014 0.252913 0
M  V30 135 H 14.3317 2.17782 -1.34181 0
M  V30 136 H 13.9757 4.46164 -2.42693 0
M  V30 137 H 13.9057 5.20353 -0.808754 0
M  V30 138 H 16.3967 3.65083 -0.975855 0
M  V30 139 H 16.7097 7.27994 -2.59314 0
M  V30 140 H 15.0547 6.54938 -2.32553 0
M  V30 141 H 18.2457 4.49975 -1.28998 0
M  V30 142 H 18.4187 6.15472 -2.02726 0
M  V30 143 N 11.8248 0.280983 1.55075 0
M  V30 144 C 13.0708 -0.327573 2.00745 0
M  V30 145 C 13.4258 -1.53045 1.16598 0
M  V30 146 O 12.7188 -1.90221 0.229451 0
M  V30 147 C 12.9128 -0.754656 3.49342 0
M  V30 148 C 12.7418 0.40529 4.4787 0
M  V30 149 C 11.5118 0.890947 4.97383 0
M  V30 150 C 13.7098 1.24371 4.99035 0
M  V30 151 N 11.6918 2.01975 5.79724 0
M  V30 152 C 13.0628 2.22031 5.7888 0
M  V30 153 C 15.1178 1.27638 4.81262 0
M  V30 154 C 13.8208 3.22709 6.42846 0
M  V30 155 C 15.8468 2.27164 5.46031 0
M  V30 156 C 15.2088 3.23556 6.25692 0
M  V30 157 H 11.3078 -0.0848774 0.77738 0
M  V30 158 H 13.8918 0.406342 1.90413 0
M  V30 159 H 12.0628 -1.45778 3.60005 0
M  V30 160 H 13.7948 -1.34105 3.81835 0
M  V30 161 H 10.5498 0.469262 4.71269 0
M  V30 162 H 10.9738 2.58794 6.25584 0
M  V30 163 H 15.6158 0.544936 4.19274 0
M  V30 164 H 13.3338 3.96784 7.0398 0
M  V30 165 H 16.9198 2.30441 5.34217 0
M  V30 166 H 15.7998 3.99309 6.74924 0
M  V30 167 N 13.3029 -1.57598 0.00835791 0
M  V30 168 C 14.7189 -1.55764 -0.347822 0
M  V30 169 C 14.9189 -1.01186 -1.74252 0
M  V30 170 O 13.9749 -0.649371 -2.44007 0
M  V30 171 C 15.2879 -2.99927 -0.215407 0
M  V30 172 C 16.8359 -3.11656 -0.289725 0
M  V30 173 C 17.3109 -4.57621 -0.18634 0
M  V30 174 N 18.8019 -4.62557 -0.243978 0
M  V30 175 C 19.5369 -5.73094 -0.18745 0
M  V30 176 N 19.0329 -6.92753 -0.0810331 0
M  V30 177 N 20.8259 -5.61588 -0.239925 0
M  V30 178 H 12.9769 -1.91411 0.92062 0
M  V30 179 H 15.2399 -0.879562 0.353659 0
M  V30 180 H 14.9459 -3.43729 0.744512 0
M  V30 181 H 14.8199 -3.63865 -0.994097 0
M  V30 182 H 17.2069 -2.67779 -1.24009 0
M  V30 183 H 17.2879 -2.5048 0.51898 0
M  V30 184 H 16.9319 -5.02174 0.760519 0
M  V30 185 H 16.8619 -5.16752 -1.01364 0
M  V30 186 H 19.3529 -3.76481 -0.327217 0
M  V30 187 H 19.6659 -7.72787 -0.0440241 0
M  V30 188 H 18.0109 -6.94984 -0.0465419 0
M  V30 189 H 21.2019 -4.66996 -0.321317 0
M  V30 190 H 21.3749 -6.47714 -0.192407 0
M  V30 191 N 14.781 0.264519 -1.55364 0
M  V30 192 C 16.029 0.993021 -1.76021 0
M  V30 193 C 16.35 1.86511 -0.569099 0
M  V30 194 O 15.62 1.91438 0.415735 0
M  V30 195 H 14.2 0.369639 -0.649135 0
M  V30 196 H 16.862 0.286707 -1.9278 0
M  V30 197 H 15.958 1.62502 -2.66457 0
M  V30 198 N 16.2591 1.48442 0.529413 0
M  V30 199 C 17.4871 1.60151 1.30994 0
M  V30 200 C 17.9021 0.261985 1.86973 0
M  V30 201 O 17.2591 -0.748805 1.66431 0
M  V30 202 C 17.3101 2.64854 2.46038 0
M  V30 203 O 17.0311 3.93608 1.92365 0
M  V30 204 C 18.5321 2.87007 3.37849 0
M  V30 205 H 15.7521 0.539971 0.398338 0
M  V30 206 H 18.2961 1.94273 0.638597 0
M  V30 207 H 16.4511 2.33589 3.09055 0
M  V30 208 H 16.8651 4.51055 2.67675 0
M  V30 209 H 18.3391 3.64068 4.14919 0
M  V30 210 H 18.8161 1.95852 3.93114 0
M  V30 211 H 19.4221 3.19579 2.80623 0
M  V30 212 N 17.7372 -0.778329 1.37039 0
M  V30 213 C 18.6672 -1.90546 1.34962 0
M  V30 214 C 19.6482 -1.68681 0.219274 0
M  V30 215 O 20.8332 -1.89634 0.418624 0
M  V30 216 C 17.9632 -3.27734 1.14925 0
M  V30 217 C 16.9172 -3.64147 2.24902 0
M  V30 218 C 16.2432 -4.99806 1.89996 0
M  V30 219 C 17.5432 -3.71579 3.67051 0
M  V30 220 H 19.2372 -1.92541 2.29277 0
M  V30 221 H 16.7832 -0.924948 1.10366 0
M  V30 222 H 18.7362 -4.06215 1.12104 0
M  V30 223 H 17.4602 -3.26154 0.170631 0
M  V30 224 H 16.1192 -2.8797 2.26868 0
M  V30 225 H 15.7672 -4.94759 0.906796 0
M  V30 226 H 15.4672 -5.25139 2.63634 0
M  V30 227 H 16.9912 -5.80694 1.88749 0
M  V30 228 H 18.4052 -4.40227 3.67251 0
M  V30 229 H 16.8022 -4.08405 4.39688 0
M  V30 230 H 17.8722 -2.72404 4.01154 0
M  V30 231 N 19.2153 -1.21501 -1.00376 0
M  V30 232 C 20.6263 -1.03146 -1.55621 0
M  V30 233 C 20.9773 0.408375 -1.91903 0
M  V30 234 O 20.1023 1.29177 -1.73616 0
M  V30 235 C 20.6973 -1.86612 -2.82775 0
M  V30 236 C 19.2563 -1.72586 -3.34501 0
M  V30 237 C 18.4033 -1.83747 -2.07683 0
M  V30 238 H 21.3543 -1.35505 -0.826081 0
M  V30 239 H 21.3753 -1.3771 -3.54706 0
M  V30 240 H 20.8873 -2.91399 -2.56336 0
M  V30 241 H 18.9883 -0.704877 -3.65872 0
M  V30 242 H 19.1013 -2.54623 -4.05837 0
M  V30 243 H 17.4653 -1.27069 -2.20739 0
M  V30 244 H 18.2483 -2.90044 -1.83655 0
M  V30 245 N 20.6934 1.19889 -1.02296 0
M  V30 246 C 21.9414 1.89046 -0.714558 0
M  V30 247 C 22.2624 1.79636 0.758681 0
M  V30 248 O 21.5324 1.20292 1.54618 0
M  V30 249 H 20.1124 0.699802 -0.261317 0
M  V30 250 H 22.7744 1.45574 -1.29592 0
M  V30 251 H 21.8704 2.95524 -1.0036 0
M  V30 252 N 22.1715 0.800033 1.35784 0
M  V30 253 C 23.5875 0.482977 1.52117 0
M  V30 254 C 23.7875 -0.996948 1.75109 0
M  V30 255 O 22.8435 -1.78216 1.78872 0
M  V30 256 C 24.1565 1.32264 2.70049 0
M  V30 257 C 25.7045 1.31742 2.83924 0
M  V30 258 C 26.1795 2.14106 4.04874 0
M  V30 259 N 27.6705 2.11607 4.12039 0
M  V30 260 C 28.4055 2.72099 5.04727 0
M  V30 261 N 27.9015 3.41492 6.02789 0
M  V30 262 N 29.6945 2.61776 4.97423 0
M  V30 263 H 21.8455 1.75856 1.19115 0
M  V30 264 H 24.1085 0.748122 0.582252 0
M  V30 265 H 23.8145 2.37261 2.59616 0
M  V30 266 H 23.6885 0.971303 3.6448 0
M  V30 267 H 26.0755 0.275333 2.93813 0
M  V30 268 H 26.1565 1.70859 1.9037 0
M  V30 269 H 25.8005 3.18351 3.95746 0
M  V30 270 H 25.7305 1.72353 4.97596 0
M  V30 271 H 28.2215 1.61112 3.41835 0
M  V30 272 H 28.5345 3.84953 6.70098 0
M  V30 273 H 26.8795 3.45596 6.02983 0
M  V30 274 H 30.0705 2.07157 4.19766 0
M  V30 275 H 30.2435 3.0921 5.69468 0
M  V30 276 N 23.6496 -1.47581 0.552962 0
M  V30 277 C 25.0656 -1.5818 0.212424 0
M  V30 278 C 25.2656 -1.55213 -1.28496 0
M  V30 279 O 24.3216 -1.45329 -2.06484 0
M  V30 280 C 25.6346 -2.88865 0.835318 0
M  V30 281 C 27.1826 -3.0244 0.806156 0
M  V30 282 C 27.6576 -4.35819 1.40804 0
M  V30 283 N 29.1486 -4.42444 1.37103 0
M  V30 284 C 29.8836 -5.44202 1.80641 0
M  V30 285 N 29.3796 -6.52795 2.32015 0
M  V30 286 N 31.1726 -5.35222 1.71738 0
M  V30 287 H 23.3236 -1.47753 1.52587 0
M  V30 288 H 25.5866 -0.702941 0.636064 0
M  V30 289 H 25.2926 -2.9676 1.88749 0
M  V30 290 H 25.1666 -3.7579 0.325848 0
M  V30 291 H 27.5536 -2.94144 -0.237317 0
M  V30 292 H 27.6346 -2.17068 1.35334 0
M  V30 293 H 27.2786 -4.44871 2.45056 0
M  V30 294 H 27.2086 -5.19916 0.836338 0
M  V30 295 H 29.6996 -3.6456 0.995202 0
M  V30 296 H 30.0126 -7.26609 2.63171 0
M  V30 297 H 28.3576 -6.53696 2.36023 0
M  V30 298 H 31.5486 -4.49284 1.31382 0
M  V30 299 H 31.7216 -6.14389 2.05987 0
M  V30 300 N 25.1277 -0.289203 -1.54924 0
M  V30 301 C 26.5387 0.205791 -1.85562 0
M  V30 302 C 26.8897 1.54351 -1.2112 0
M  V30 303 O 26.0147 2.10435 -0.504601 0
M  V30 304 C 26.6097 0.380177 -3.3666 0
M  V30 305 C 25.1687 0.819395 -3.67373 0
M  V30 306 C 24.3157 -0.079159 -2.77187 0
M  V30 307 H 27.2667 -0.510577 -1.50262 0
M  V30 308 H 27.2877 1.21659 -3.60526 0
M  V30 309 H 26.7997 -0.593589 -3.83534 0
M  V30 310 H 24.9007 1.80413 -3.26009 0
M  V30 311 H 25.0137 0.646957 -4.74712 0
M  V30 312 H 23.3777 0.439565 -2.50878 0
M  V30 313 H 24.1607 -1.04906 -3.26878 0
M  V30 314 N 26.6058 1.57591 -0.0167156 0
M  V30 315 C 27.8518 1.92399 0.659861 0
M  V30 316 C 28.2068 0.892561 1.70444 0
M  V30 317 O 27.4998 -0.0930755 1.91374 0
M  V30 318 C 27.6938 3.3172 1.33029 0
M  V30 319 C 27.5228 4.48319 0.352174 0
M  V30 320 C 26.2928 5.05281 -0.0434883 0
M  V30 321 C 28.4908 5.12831 -0.388474 0
M  V30 322 N 26.4728 6.05399 -1.01807 0
M  V30 323 C 27.8438 6.07934 -1.2172 0
M  V30 324 C 29.8988 4.95858 -0.450513 0
M  V30 325 C 28.6018 6.87891 -2.10235 0
M  V30 326 C 30.6278 5.76413 -1.32295 0
M  V30 327 C 29.9898 6.71123 -2.13948 0
M  V30 328 H 26.0888 0.752106 0.21415 0
M  V30 329 H 28.6728 1.94532 -0.0809846 0
M  V30 330 H 26.8438 3.3043 2.04134 0
M  V30 331 H 28.5758 3.5391 1.9629 0
M  V30 332 H 25.3308 4.7246 0.328384 0
M  V30 333 H 25.7548 6.60145 -1.50123 0
M  V30 334 H 30.3968 4.22472 0.166512 0
M  V30 335 H 28.1148 7.60591 -2.72997 0
M  V30 336 H 31.7008 5.65317 -1.37508 0
M  V30 337 H 30.5808 7.3237 -2.80364 0
M  V30 338 N 28.0839 -0.256276 1.55502 0
M  V30 339 C 29.3119 -1.00342 1.8094 0
M  V30 340 C 29.7269 -1.79307 0.59114 0
M  V30 341 O 29.0839 -1.77114 -0.440081 0
M  V30 342 C 29.1349 -1.94875 3.04476 0
M  V30 343 O 28.8559 -1.19107 4.21598 0
M  V30 344 C 30.3569 -2.81266 3.42644 0
M  V30 345 H 27.5769 -0.295685 0.602338 0
M  V30 346 H 30.1209 -0.281998 2.02546 0
M  V30 347 H 28.2759 -2.62457 2.84947 0
M  V30 348 H 28.6899 -1.82969 4.91551 0
M  V30 349 H 30.1639 -3.43362 4.32211 0
M  V30 350 H 30.6409 -3.51897 2.62802 0
M  V30 351 H 31.2469 -2.1915 3.64491 0
M  V30 352 N 29.562 -1.4872 -0.521534 0
M  V30 353 C 30.978 -1.35028 -0.850855 0
M  V30 354 C 31.178 -0.367712 -1.98116 0
M  V30 355 O 30.234 0.208037 -2.51642 0
M  V30 356 C 31.547 -2.75263 -1.21041 0
M  V30 357 C 33.095 -2.83813 -1.31981 0
M  V30 358 C 33.57 -4.24769 -1.71276 0
M  V30 359 N 35.061 -4.27482 -1.78363 0
M  V30 360 C 35.796 -5.33494 -2.1017 0
M  V30 361 N 35.292 -6.49775 -2.40343 0
M  V30 362 N 37.085 -5.20894 -2.11248 0
M  V30 363 H 29.236 -2.11214 0.22413 0
M  V30 364 H 31.499 -0.947252 0.0376439 0
M  V30 365 H 31.205 -3.48765 -0.453415 0
M  V30 366 H 31.079 -3.09327 -2.15863 0
M  V30 367 H 33.466 -2.10561 -2.06756 0
M  V30 368 H 33.547 -2.53358 -0.352596 0
M  V30 369 H 33.191 -4.9854 -0.970588 0
M  V30 370 H 33.121 -4.52673 -2.69062 0
M  V30 371 H 35.612 -3.43611 -1.57288 0
M  V30 372 H 35.925 -7.26402 -2.63743 0
M  V30 373 H 34.27 -6.53035 -2.37844 0
M  V30 374 H 37.461 -4.29065 -1.87139 0
M  V30 375 H 37.634 -6.03612 -2.35704 0
M  V30 376 N 31.0401 0.771051 -1.3745 0
M  V30 377 C 32.4511 1.34737 -1.29239 0
M  V30 378 C 32.8021 1.96109 0.0596908 0
M  V30 379 O 31.9271 1.93865 0.961534 0
M  V30 380 C 32.5221 2.44973 -2.34037 0
M  V30 381 C 31.0811 2.98372 -2.29458 0
M  V30 382 C 30.2281 1.71595 -2.17831 0
M  V30 383 H 33.1791 0.571256 -1.48062 0
M  V30 384 H 33.2001 3.24471 -1.98744 0
M  V30 385 H 32.7121 2.00276 -3.32432 0
M  V30 386 H 30.8131 3.47443 -1.34589 0
M  V30 387 H 30.9261 3.53939 -3.229 0
M  V30 388 H 29.2901 1.94547 -1.64388 0
M  V30 389 H 30.0731 1.29001 -3.18141 0
M  V30 390 N 32.5182 1.22032 0.997298 0
M  V30 391 C 33.4812 0.987909 2.06816 0
M  V30 392 C 34.4812 -0.0440084 1.6074 0
M  V30 393 O 35.6712 0.194053 1.73116 0
M  V30 394 C 32.8032 0.49132 3.37341 0
M  V30 395 H 33.9962 1.93803 2.28868 0
M  V30 396 H 31.5492 1.03838 1.16822 0
M  V30 397 H 32.2842 -0.463364 3.20973 0
M  V30 398 H 32.0692 1.23575 3.72118 0
M  V30 399 H 33.5592 0.348824 4.16141 0
M  V30 400 N 33.9963 -1.19345 1.0293 0
M  V30 401 C 35.4073 -1.70725 0.755633 0
M  V30 402 C 35.7583 -1.82326 -0.724676 0
M  V30 403 O 34.8833 -1.49471 -1.56484 0
M  V30 404 C 35.4783 -3.10084 1.36503 0
M  V30 405 C 34.0373 -3.58723 1.13994 0
M  V30 406 C 33.1843 -2.35577 1.46283 0
M  V30 407 H 36.1353 -1.0418 1.19718 0
M  V30 408 H 36.1563 -3.72787 0.762217 0
M  V30 409 H 35.6683 -3.01609 2.44241 0
M  V30 410 H 33.7693 -3.72512 0.0807901 0
M  V30 411 H 33.8823 -4.42816 1.82894 0
M  V30 412 H 32.2463 -2.38935 0.88217 0
M  V30 413 H 33.0293 -2.29731 2.55105 0
M  V30 414 N 35.4744 -0.807222 -1.35358 0
M  V30 415 C 36.4374 -0.223665 -2.28106 0
M  V30 416 C 37.4374 0.589354 -1.4961 0
M  V30 417 O 38.6274 0.407745 -1.69361 0
M  V30 418 C 35.7594 0.688149 -3.33882 0
M  V30 419 H 36.9524 -1.04169 -2.81227 0
M  V30 420 H 34.5054 -0.577921 -1.45223 0
M  V30 421 H 35.2404 1.52984 -2.85948 0
M  V30 422 H 35.0254 0.10687 -3.91954 0
M  V30 423 H 36.5154 1.09075 -4.03104 0
M  V30 424 N 36.9525 1.47285 -0.560781 0
M  V30 425 C 38.1805 2.06855 -0.0430262 0
M  V30 426 C 38.5955 1.41291 1.25229 0
M  V30 427 O 37.9525 0.510648 1.7521 0
M  V30 428 C 38.0035 3.61178 0.152518 0
M  V30 429 O 37.7245 4.24285 -1.0915 0
M  V30 430 C 39.2255 4.37624 0.707145 0
M  V30 431 H 36.4455 0.669319 -0.0474652 0
M  V30 432 H 38.9895 1.89237 -0.77521 0
M  V30 433 H 37.1445 3.78298 0.834843 0
M  V30 434 H 37.5585 5.16868 -0.891482 0
M  V30 435 H 39.0325 5.46271 0.793244 0
M  V30 436 H 39.5095 4.04152 1.71923 0
M  V30 437 H 40.1155 4.25257 0.0604027 0
M  V30 438 N 38.4306 0.297415 1.54768 0
M  V30 439 C 39.6706 -0.313829 2.01976 0
M  V30 440 C 40.0346 -1.51366 1.1812 0
M  V30 441 O 41.2356 -2.19603 1.5501 0
M  V30 442 C 39.5066 -0.664964 3.51159 0
M  V30 443 S 41.0656 -1.25958 4.20333 0
M  V30 444 H 37.8836 -0.0965014 0.704421 0
M  V30 445 H 40.4856 0.424451 1.90837 0
M  V30 446 H 39.1896 0.21681 4.09827 0
M  V30 447 H 38.7206 -1.43413 3.66328 0
M  V30 448 H 40.7356 -2.54751 4.25813 0
M  V30 449 N 39.9087 -1.5758 0.0250728 0
M  V30 450 C 41.3247 -1.56124 -0.331282 0
M  V30 451 C 41.5247 -1.03029 -1.73169 0
M  V30 452 O 40.5807 -0.675215 -2.43305 0
M  V30 453 C 41.8937 -3.00139 -0.183584 0
M  V30 454 C 43.4417 -3.11946 -0.256654 0
M  V30 455 C 43.9167 -4.57793 -0.137792 0
M  V30 456 N 45.4077 -4.6279 -0.194904 0
M  V30 457 C 46.1427 -5.7326 -0.126655 0
M  V30 458 N 45.6387 -6.928 -0.00755288 0
M  V30 459 N 47.4317 -5.61811 -0.180348 0
M  V30 460 H 39.5827 -1.90424 0.94087 0
M  V30 461 H 41.8457 -0.875761 0.362968 0
M  V30 462 H 41.5517 -3.4292 0.780927 0
M  V30 463 H 41.4257 -3.64899 -0.955448 0
M  V30 464 H 43.8127 -2.69079 -1.21162 0
M  V30 465 H 43.8937 -2.49915 0.545517 0
M  V30 466 H 43.5377 -5.01339 0.813739 0
M  V30 467 H 43.4677 -5.17798 -0.958775 0
M  V30 468 H 45.9587 -3.76807 -0.287267 0
M  V30 469 H 46.2717 -7.72791 0.0379428 0
M  V30 470 H 44.6167 -6.94995 0.0271731 0
M  V30 471 H 47.8077 -4.6731 -0.271767 0
M  V30 472 H 47.9807 -6.47882 -0.123697 0
M  V30 473 N 41.3868 0.248026 -1.55636 0
M  V30 474 C 42.8028 0.596483 -1.48035 0
M  V30 475 C 43.0028 1.88386 -0.715039 0
M  V30 476 O 42.0588 2.51319 -0.243944 0
M  V30 477 C 43.3718 0.700258 -2.92433 0
M  V30 478 C 44.9198 0.792659 -3.02797 0
M  V30 479 C 45.3948 0.928005 -4.485 0
M  V30 480 N 46.8858 0.992903 -4.52433 0
M  V30 481 C 47.6208 1.11687 -5.62418 0
M  V30 482 N 47.1168 1.20645 -6.82214 0
M  V30 483 N 48.9098 1.14994 -5.50212 0
M  V30 484 H 41.0608 -0.597109 -2.03834 0
M  V30 485 H 43.3238 -0.205925 -0.925364 0
M  V30 486 H 43.0298 -0.175658 -3.51261 0
M  V30 487 H 42.9038 1.57255 -3.42857 0
M  V30 488 H 45.2908 1.65903 -2.4405 0
M  V30 489 H 45.3718 -0.104762 -2.55585 0
M  V30 490 H 45.0158 0.0661971 -5.07857 0
M  V30 491 H 44.9458 1.84045 -4.93391 0
M  V30 492 H 47.4368 0.935064 -3.66149 0
M  V30 493 H 47.7498 1.30008 -7.61786 0
M  V30 494 H 46.0948 1.17605 -6.84977 0
M  V30 495 H 49.2858 1.07643 -4.55555 0
M  V30 496 H 49.4588 1.24311 -6.35965 0
M  V30 497 N 42.8649 1.48995 0.513639 0
M  V30 498 C 43.8149 1.61127 1.61314 0
M  V30 499 C 44.7989 0.467521 1.53958 0
M  V30 500 O 45.9909 0.719826 1.61702 0
M  V30 501 C 43.1199 1.66937 2.99978 0
M  V30 502 C 42.2059 2.86847 3.12377 0
M  V30 503 N 42.5969 4.11078 2.94701 0
M  V30 504 C 40.8949 2.84521 3.43459 0
M  V30 505 C 41.5959 4.91615 3.10949 0
M  V30 506 N 40.5719 4.24739 3.3926 0
M  V30 507 H 44.3739 2.54909 1.46282 0
M  V30 508 H 41.8879 1.45593 0.719483 0
M  V30 509 H 43.8849 1.73725 3.78979 0
M  V30 510 H 42.5449 0.742831 3.16089 0
M  V30 511 H 43.5559 4.41258 2.71131 0
M  V30 512 H 40.2329 2.01192 3.65825 0
M  V30 513 H 41.6229 6.00264 3.01882 0
M  V30 514 N 44.343 -0.763751 1.37857 0
M  V30 515 C 45.273 -1.89103 1.36975 0
M  V30 516 C 46.254 -1.68439 0.237152 0
M  V30 517 O 47.439 -1.8918 0.438713 0
M  V30 518 C 44.569 -3.26496 1.18395 0
M  V30 519 C 43.523 -3.61741 2.28751 0
M  V30 520 C 42.849 -4.97762 1.95286 0
M  V30 521 C 44.149 -3.67665 3.70972 0
M  V30 522 H 45.843 -1.90099 2.31307 0
M  V30 523 H 43.389 -0.91319 1.11341 0
M  V30 524 H 45.342 -4.05003 1.16406 0
M  V30 525 H 44.066 -3.25955 0.205215 0
M  V30 526 H 42.725 -2.85547 2.29909 0
M  V30 527 H 42.373 -4.93769 0.959221 0
M  V30 528 H 42.073 -5.22313 2.69189 0
M  V30 529 H 43.597 -5.7866 1.94898 0
M  V30 530 H 45.011 -4.36307 3.719 0
M  V30 531 H 43.408 -4.03718 4.43995 0
M  V30 532 H 44.478 -2.68134 4.0402 0
M  V30 533 N 45.8211 -1.22559 -0.990812 0
M  V30 534 C 46.7841 -0.998863 -2.0629 0
M  V30 535 C 47.7841 0.0354834 -1.60761 0
M  V30 536 O 48.9741 -0.203231 -1.7301 0
M  V30 537 C 46.1061 -0.509203 -3.37076 0
M  V30 538 H 47.2991 -1.95014 -2.27837 0
M  V30 539 H 44.8521 -1.04456 -1.16269 0
M  V30 540 H 45.5871 0.446335 -3.21214 0
M  V30 541 H 45.3721 -1.25547 -3.71457 0
M  V30 542 H 46.8621 -0.370888 -4.1595 0
M  V30 543 N 47.2992 1.18797 -1.03562 0
M  V30 544 C 48.5462 1.8865 -0.736023 0
M  V30 545 C 48.8742 1.80041 0.735889 0
M  V30 546 O 48.1292 1.19179 1.55225 0
M  V30 547 C 48.4282 3.38692 -1.14117 0
M  V30 548 C 48.0942 3.67504 -2.6125 0
M  V30 549 C 46.7562 3.75078 -3.01447 0
M  V30 550 C 49.1082 3.80293 -3.56408 0
M  V30 551 C 46.4362 3.92915 -4.35701 0
M  V30 552 C 48.7882 3.99645 -4.90374 0
M  V30 553 C 47.4522 4.05453 -5.30249 0
M  V30 554 H 46.7222 0.690321 -0.26933 0
M  V30 555 H 49.3692 1.40641 -1.29971 0
M  V30 556 H 47.6742 3.88645 -0.496202 0
M  V30 557 H 49.3712 3.91072 -0.886789 0
M  V30 558 H 45.9612 3.62223 -2.29113 0
M  V30 559 H 50.1452 3.73779 -3.26501 0
M  V30 560 H 45.4012 3.95653 -4.66121 0
M  V30 561 H 49.5752 4.08482 -5.64017 0
M  V30 562 H 47.2022 4.19027 -6.34288 0
M  V30 563 N 48.7773 0.814389 1.34928 0
M  V30 564 C 50.0233 0.399013 1.98836 0
M  V30 565 C 50.3563 -1.03314 1.64438 0
M  V30 566 O 49.6313 -1.71811 0.911659 0
M  V30 567 C 49.9143 0.591629 3.55207 0
M  V30 568 C 49.7673 2.06928 3.99376 0
M  V30 569 C 51.0863 0.022199 4.40094 0
M  V30 570 H 48.2053 0.146451 0.722303 0
M  V30 571 H 50.8473 1.02537 1.59957 0
M  V30 572 H 48.9973 0.0584441 3.88456 0
M  V30 573 H 50.6693 2.66544 3.76499 0
M  V30 574 H 48.9123 2.56287 3.49999 0
M  V30 575 H 49.5833 2.1549 5.08201 0
M  V30 576 H 52.0593 0.477643 4.13349 0
M  V30 577 H 50.9353 0.186832 5.48582 0
M  V30 578 H 51.1963 -1.07215 4.28902 0
M  V30 579 N 50.2554 -1.46986 0.568584 0
M  V30 580 C 51.1654 -2.33942 -0.17555 0
M  V30 581 C 52.1814 -1.48891 -0.90041 0
M  V30 582 O 53.3574 -1.81794 -0.86676 0
M  V30 583 C 50.4224 -3.25811 -1.18524 0
M  V30 584 C 49.4834 -4.26757 -0.466582 0
M  V30 585 C 48.7164 -5.14236 -1.42817 0
M  V30 586 O 48.9394 -5.04379 -2.66379 0
M  V30 587 O 47.8734 -5.94412 -0.946453 0
M  V30 588 H 51.6994 -2.98896 0.538036 0
M  V30 589 H 49.2844 -1.4573 0.329097 0
M  V30 590 H 51.1664 -3.82527 -1.76779 0
M  V30 591 H 49.8414 -2.63471 -1.88055 0
M  V30 592 H 48.7484 -3.73769 0.157451 0
M  V30 593 H 50.0814 -4.91843 0.187485 0
M  V30 594 N 51.7335 -0.305618 -1.54608 0
M  V30 595 C 52.6635 0.561482 -2.26649 0
M  V30 596 C 53.6445 1.13415 -1.26772 0
M  V30 597 O 54.8295 1.16262 -1.55553 0
M  V30 598 C 51.9595 1.73122 -3.01075 0
M  V30 599 C 50.9135 1.2887 -4.08138 0
M  V30 600 C 50.2395 2.54396 -4.70305 0
M  V30 601 C 51.5395 0.416578 -5.20636 0
M  V30 602 H 53.2335 -0.0393902 -2.99374 0
M  V30 603 H 50.7795 -0.020385 -1.43986 0
M  V30 604 H 52.7325 2.34396 -3.50195 0
M  V30 605 H 51.4565 2.3584 -2.25936 0
M  V30 606 H 50.1155 0.698991 -3.59875 0
M  V30 607 H 49.7635 3.15439 -3.918 0
M  V30 608 H 49.4635 2.25486 -5.42614 0
M  V30 609 H 50.9875 3.16464 -5.2219 0
M  V30 610 H 52.4015 0.935116 -5.65622 0
M  V30 611 H 50.7985 0.221046 -5.99693 0
M  V30 612 H 51.8685 -0.557162 -4.81688 0
M  V30 613 N 53.2116 1.57565 -0.0334293 0
M  V30 614 C 54.6276 1.56297 0.322997 0
M  V30 615 C 54.8276 1.03945 1.7262 0
M  V30 616 O 53.8836 0.688109 2.42943 0
M  V30 617 C 55.1966 3.00232 0.167664 0
M  V30 618 C 56.7446 3.12078 0.240107 0
M  V30 619 C 57.2196 4.57859 0.113513 0
M  V30 620 N 58.7106 4.62887 0.170359 0
M  V30 621 C 59.4456 5.73319 0.0962517 0
M  V30 622 N 58.9416 6.92794 -0.0291881 0
M  V30 623 N 60.7346 5.61898 0.150551 0
M  V30 624 H 52.8856 1.89923 -0.950956 0
M  V30 625 H 55.1486 0.873824 -0.367608 0
M  V30 626 H 54.8546 3.42501 -0.799102 0
M  V30 627 H 54.7286 3.654 0.936083 0
M  V30 628 H 57.1156 2.69718 1.19733 0
M  V30 629 H 57.1966 2.49623 -0.558763 0
M  V30 630 H 56.8406 5.009 -0.840314 0
M  V30 631 H 56.7706 5.18299 0.931302 0
M  V30 632 H 59.2616 3.76954 0.26728 0
M  V30 633 H 59.5746 7.7276 -0.0789252 0
M  V30 634 H 57.9196 6.94971 -0.0640299 0
M  V30 635 H 61.1106 4.67448 0.246981 0
M  V30 636 H 61.2836 6.47938 0.0893365 0
M  V30 637 N 54.6897 -0.239769 1.55765 0
M  V30 638 C 55.6397 -1.30002 1.87306 0
M  V30 639 C 56.6237 -1.43156 0.73452 0
M  V30 640 O 57.8157 -1.46277 0.99659 0
M  V30 641 C 54.9447 -2.65409 2.17745 0
M  V30 642 C 54.0307 -2.56231 3.37945 0
M  V30 643 N 54.4217 -2.16689 4.57033 0
M  V30 644 C 52.7197 -2.87229 3.41197 0
M  V30 645 C 53.4207 -2.18318 5.39177 0
M  V30 646 N 52.3967 -2.58098 4.78421 0
M  V30 647 H 56.1987 -0.984912 2.76906 0
M  V30 648 H 53.7127 -0.448381 1.56087 0
M  V30 649 H 55.7097 -3.41934 2.38509 0
M  V30 650 H 54.3697 -2.97781 1.29448 0
M  V30 651 H 55.3807 -1.88116 4.82528 0
M  V30 652 H 52.0577 -3.24094 2.63191 0
M  V30 653 H 53.4477 -1.90025 6.44469 0
M  V30 654 N 56.1678 -1.49265 -0.50573 0
M  V30 655 C 57.3978 -1.61979 -1.28243 0
M  V30 656 C 57.8058 -0.288576 -1.86986 0
M  V30 657 O 57.1488 0.735408 -1.68337 0
M  V30 658 C 57.2108 -2.62632 -2.45489 0
M  V30 659 C 56.8748 -4.071 -2.07651 0
M  V30 660 C 57.8718 -4.94049 -1.61901 0
M  V30 661 C 55.5568 -4.52801 -2.17431 0
M  V30 662 C 57.5508 -6.24736 -1.26428 0
M  V30 663 C 55.2378 -5.83503 -1.8157 0
M  V30 664 C 56.2358 -6.69294 -1.36142 0
M  V30 665 O 55.9238 -7.9756 -1.00764 0
M  V30 666 H 55.6558 -0.54834 -0.395347 0
M  V30 667 H 58.2098 -1.96002 -0.614204 0
M  V30 668 H 56.4398 -2.2378 -3.15372 0
M  V30 669 H 58.1288 -2.64925 -3.07522 0
M  V30 670 H 58.8948 -4.5997 -1.53795 0
M  V30 671 H 54.7738 -3.86196 -2.51742 0
M  V30 672 H 58.3178 -6.91652 -0.908992 0
M  V30 673 H 54.2148 -6.17112 -1.89324 0
M  V30 674 H 54.9828 -8.10529 -1.13952 0
M  V30 675 N 57.6459 0.756429 -1.3826 0
M  V30 676 C 58.8929 1.51547 -1.34312 0
M  V30 677 C 59.2209 1.94382 0.0677144 0
M  V30 678 O 58.4759 1.65514 1.04421 0
M  V30 679 C 58.7749 2.78313 -2.24224 0
M  V30 680 C 58.4409 2.54455 -3.72241 0
M  V30 681 C 57.1029 2.47657 -4.12576 0
M  V30 682 C 59.4549 2.3354 -4.65949 0
M  V30 683 C 56.7829 2.17956 -5.44713 0
M  V30 684 C 59.1349 2.05359 -5.9834 0
M  V30 685 C 57.7989 1.97016 -6.37762 0
M  V30 686 H 57.0689 0.55455 -0.491482 0
M  V30 687 H 59.7159 0.870039 -1.70595 0
M  V30 688 H 58.0209 3.47492 -1.80987 0
M  V30 689 H 59.7179 3.36259 -2.18474 0
M  V30 690 H 56.3079 2.60616 -3.40261 0
M  V30 691 H 60.4919 2.37772 -4.35635 0
M  V30 692 H 55.7479 2.10003 -5.74203 0
M  V30 693 H 59.9219 1.88179 -6.70494 0
M  V30 694 H 57.5489 1.73766 -7.40074 0
M  V30 695 N 59.124 1.23083 0.984299 0
M  V30 696 C 60.087 1.00979 2.05757 0
M  V30 697 C 61.087 -0.0269573 1.60777 0
M  V30 698 O 62.277 0.212403 1.729 0
M  V30 699 C 59.409 0.527072 3.36801 0
M  V30 700 H 60.602 1.9622 2.26799 0
M  V30 701 H 58.155 1.05072 1.15714 0
M  V30 702 H 58.89 -0.429294 3.21446 0
M  V30 703 H 58.675 1.27515 3.70786 0
M  V30 704 H 60.165 0.392942 4.15747 0
M  V30 705 N 60.6021 -1.18246 1.0419 0
M  V30 706 C 62.0181 -1.40269 0.761366 0
M  V30 707 C 62.2181 -1.90777 -0.648578 0
M  V30 708 O 61.2741 -2.0929 -1.41258 0
M  V30 709 C 62.5871 -2.40237 1.8085 0
M  V30 710 C 64.1351 -2.53961 1.82955 0
M  V30 711 C 64.6101 -3.57194 2.86664 0
M  V30 712 N 66.1011 -3.64702 2.85563 0
M  V30 713 C 66.8361 -4.44309 3.6246 0
M  V30 714 N 66.3321 -5.27514 4.49111 0
M  V30 715 N 68.1251 -4.39084 3.50944 0
M  V30 716 H 60.2761 -0.837882 1.95175 0
M  V30 717 H 62.5391 -0.430608 0.84456 0
M  V30 718 H 62.2451 -2.10176 2.81991 0
M  V30 719 H 62.1191 -3.39601 1.64168 0
M  V30 720 H 64.5061 -2.83338 0.824855 0
M  V30 721 H 64.5871 -1.54706 2.03715 0
M  V30 722 H 64.2311 -3.28558 3.87314 0
M  V30 723 H 64.1611 -4.5613 2.6316 0
M  V30 724 H 66.6521 -3.05289 2.22727 0
M  V30 725 H 66.9651 -5.85411 5.04493 0
M  V30 726 H 65.3101 -5.2693 4.53178 0
M  V30 727 H 68.5011 -3.7313 2.82651 0
M  V30 728 H 68.6741 -5.00883 4.11121 0
M  V30 729 N 62.0802 -0.821533 -1.34494 0
M  V30 730 C 63.3262 -0.409552 -1.98622 0
M  V30 731 C 63.6592 1.0244 -1.64984 0
M  V30 732 O 62.9342 1.71325 -0.920758 0
M  V30 733 C 63.2172 -0.610458 -3.54888 0
M  V30 734 C 63.0702 -2.09043 -3.98273 0
M  V30 735 C 64.3892 -0.0455379 -4.40076 0
M  V30 736 H 61.5082 -0.15028 -0.721516 0
M  V30 737 H 64.1502 -1.03384 -1.59411 0
M  V30 738 H 62.3002 -0.079044 -3.8842 0
M  V30 739 H 63.9722 -2.68537 -3.75081 0
M  V30 740 H 62.2152 -2.58139 -3.48635 0
M  V30 741 H 62.8862 -2.18182 -5.07051 0
M  V30 742 H 65.3622 -0.499557 -4.1309 0
M  V30 743 H 64.2382 -0.215922 -5.48475 0
M  V30 744 H 64.4992 1.04939 -4.29465 0
M  V30 745 N 63.5583 1.46682 -0.576371 0
M  V30 746 C 64.4913 2.27243 0.208731 0
M  V30 747 C 65.4693 1.35238 0.902746 0
M  V30 748 O 66.6533 1.64641 0.917904 0
M  V30 749 C 63.7803 3.12802 1.29896 0
M  V30 750 C 62.8263 4.20524 0.711457 0
M  V30 751 S 63.6593 5.33548 -0.456781 0
M  V30 752 C 64.8153 6.22673 0.634798 0
M  V30 753 H 65.0483 2.93484 -0.474838 0
M  V30 754 H 62.5813 1.50069 -0.363118 0
M  V30 755 H 64.5393 3.62661 1.92321 0
M  V30 756 H 63.2003 2.45887 1.95444 0
M  V30 757 H 62.3933 4.80191 1.53076 0
M  V30 758 H 61.9953 3.73645 0.162999 0
M  V30 759 H 64.2873 6.60181 1.52209 0
M  V30 760 H 65.2303 7.0806 0.0750311 0
M  V30 761 H 65.6383 5.56684 0.936092 0
M  V30 762 N 65.0364 0.313813 1.54444 0
M  V30 763 C 66.2614 -0.296681 2.05267 0
M  V30 764 C 66.6864 -1.45757 1.18897 0
M  V30 765 O 66.0444 -1.80239 0.195886 0
M  V30 766 C 66.0924 -0.71831 3.53373 0
M  V30 767 O 65.1964 -1.82175 3.69981 0
M  V30 768 H 64.5374 -0.0554061 0.661684 0
M  V30 769 H 67.0674 0.459387 1.99376 0
M  V30 770 H 67.0774 -1.00364 3.95463 0
M  V30 771 H 65.7524 0.130821 4.15694 0
M  V30 772 H 64.3294 -1.53598 3.39797 0
M  V30 773 N 66.5145 -1.57545 0.0417849 0
M  V30 774 C 67.7395 -1.97035 -0.647455 0
M  V30 775 C 68.1645 -0.918775 -1.64135 0
M  V30 776 O 67.5225 0.119006 -1.80909 0
M  V30 777 C 67.5705 -3.35609 -1.31905 0
M  V30 778 O 66.6745 -3.3287 -2.43457 0
M  V30 779 H 66.0155 -0.64211 -0.169086 0
M  V30 780 H 68.5455 -2.04318 0.107399 0
M  V30 781 H 68.5555 -3.72126 -1.67291 0
M  V30 782 H 67.2305 -4.11685 -0.590586 0
M  V30 783 H 65.8075 -3.08087 -2.10088 0
M  V30 784 N 67.9926 0.231505 -1.5589 0
M  V30 785 C 68.9556 1.27028 -1.90779 0
M  V30 786 C 69.9556 1.40308 -0.785507 0
M  V30 787 O 71.1456 1.38744 -1.05336 0
M  V30 788 C 68.2776 2.64566 -2.14983 0
M  V30 789 H 69.4706 0.973017 -2.83677 0
M  V30 790 H 67.0236 0.471486 -1.49019 0
M  V30 791 H 67.7586 2.99406 -1.24604 0
M  V30 792 H 67.5436 2.56305 -2.96732 0
M  V30 793 H 69.0336 3.39543 -2.43105 0
M  V30 794 N 69.4707 1.49531 0.497807 0
M  V30 795 C 70.7197 1.58426 1.24837 0
M  V30 796 C 71.0327 0.277643 1.93619 0
M  V30 797 O 72.2387 0.24517 2.70391 0
M  V30 798 C 70.6947 2.79538 2.26686 0
M  V30 799 C 70.3027 4.16971 1.63828 0
M  V30 800 C 72.0467 2.97764 3.0255 0
M  V30 801 C 69.9537 5.29301 2.63807 0
M  V30 802 H 68.8837 0.58989 0.469623 0
M  V30 803 H 71.5347 1.75923 0.521857 0
M  V30 804 H 69.9167 2.55542 3.02514 0
M  V30 805 H 71.0907 4.51116 0.939711 0
M  V30 806 H 69.4057 4.04129 1.00342 0
M  V30 807 H 72.0027 3.78856 3.77323 0
M  V30 808 H 72.3457 2.08448 3.60354 0
M  V30 809 H 72.8787 3.21815 2.33838 0
M  V30 810 H 69.6177 6.20687 2.10779 0
M  V30 811 H 69.1377 4.99606 3.31894 0
M  V30 812 H 70.8167 5.58768 3.2617 0
M  V30 813 N 70.9488 -0.749086 1.3866 0
M  V30 814 C 72.1968 -1.50535 1.34847 0
M  V30 815 C 72.5178 -1.94909 -0.0595016 0
M  V30 816 O 71.7878 -1.67973 -1.00806 0
M  V30 817 H 70.3678 -0.558395 0.49619 0
M  V30 818 H 73.0298 -0.890165 1.73384 0
M  V30 819 H 72.1258 -2.39413 2.00219 0
M  V30 820 N 72.4269 -1.23603 -0.977757 0
M  V30 821 C 73.6519 -1.09735 -1.75991 0
M  V30 822 C 74.0769 0.346858 -1.84874 0
M  V30 823 O 73.4349 1.25093 -1.3123 0
M  V30 824 C 73.4829 -1.73051 -3.16363 0
M  V30 825 O 72.5869 -0.994452 -4.0023 0
M  V30 826 H 71.9279 -0.384476 -0.541364 0
M  V30 827 H 74.4579 -1.6371 -1.2272 0
M  V30 828 H 74.4679 -1.78398 -3.66931 0
M  V30 829 H 73.1429 -2.78137 -3.09213 0
M  V30 830 H 71.7199 -1.01812 -3.58732 0
M  V30 831 N 73.905 1.17692 -1.04816 0
M  V30 832 C 75.151 1.88137 -0.75711 0
M  V30 833 C 75.484 1.80604 0.713841 0
M  V30 834 O 74.759 1.21146 1.52164 0
M  V30 835 C 75.042 3.38318 -1.2334 0
M  V30 836 C 74.895 3.54622 -2.76701 0
M  V30 837 C 76.214 4.32214 -0.829415 0
M  V30 838 H 73.333 0.683163 -0.27651 0
M  V30 839 H 75.975 1.38424 -1.30149 0
M  V30 840 H 74.125 3.80787 -0.770286 0
M  V30 841 H 75.797 3.21194 -3.31107 0
M  V30 842 H 74.04 2.97026 -3.16161 0
M  V30 843 H 74.711 4.60028 -3.05088 0
M  V30 844 H 77.187 3.97565 -1.22805 0
M  V30 845 H 76.063 5.35838 -1.19033 0
M  V30 846 H 76.324 4.41294 0.266891 0
M  V30 847 N 75.3831 0.828654 1.34056 0
M  V30 848 C 76.3461 0.259927 2.27721 0
M  V30 849 C 77.3461 -0.565478 1.50529 0
M  V30 850 O 78.5361 -0.38075 1.69988 0
M  V30 851 C 75.6681 -0.634944 3.34935 0
M  V30 852 H 76.8611 1.0863 2.79534 0
M  V30 853 H 74.4141 0.600951 1.44285 0
M  V30 854 H 75.1491 -1.48416 2.88346 0
M  V30 855 H 74.9341 -0.0444999 3.92075 0
M  V30 856 H 76.4241 -1.02648 4.04788 0
M  V30 857 N 76.8612 -1.46375 0.584142 0
M  V30 858 C 78.2772 -1.57694 0.245929 0
M  V30 859 C 78.4772 -1.57903 -1.25175 0
M  V30 860 O 77.5332 -1.49676 -2.03355 0
M  V30 861 C 78.8462 -2.87028 0.896402 0
M  V30 862 C 80.3942 -3.00662 0.870127 0
M  V30 863 C 80.8692 -4.32734 1.50017 0
M  V30 864 N 82.3602 -4.39436 1.46458 0
M  V30 865 C 83.0952 -5.40248 1.92144 0
M  V30 866 N 82.5912 -6.47726 2.4581 0
M  V30 867 N 84.3842 -5.31459 1.83052 0
M  V30 868 H 76.5352 -1.44483 1.55687 0
M  V30 869 H 78.7982 -0.689291 0.650831 0
M  V30 870 H 78.5042 -2.9269 1.95002 0
M  V30 871 H 78.3782 -3.75014 0.405486 0
M  V30 872 H 80.7652 -2.94581 -0.174871 0
M  V30 873 H 80.8462 -2.14148 1.39908 0
M  V30 874 H 80.4902 -4.39573 2.54437 0
M  V30 875 H 80.4202 -5.18025 0.946432 0
M  V30 876 H 82.9112 -3.62367 1.07231 0
M  V30 877 H 83.2242 -7.20863 2.78525 0
M  V30 878 H 81.5692 -6.48542 2.49836 0
M  V30 879 H 84.7602 -4.46396 1.40883 0
M  V30 880 H 84.9332 -6.09881 2.18973 0
M  V30 881 N 78.3393 -0.321999 -1.54275 0
M  V30 882 C 79.5853 0.274234 -2.01543 0
M  V30 883 C 79.9403 1.499 -1.20614 0
M  V30 884 O 79.2333 1.89546 -0.279804 0
M  V30 885 C 79.4273 0.661769 -3.5122 0
M  V30 886 C 79.2563 -0.523892 -4.46638 0
M  V30 887 C 78.0263 -1.02251 -4.94846 0
M  V30 888 C 80.2243 -1.37558 -4.95563 0
M  V30 889 N 78.2063 -2.17274 -5.74165 0
M  V30 890 C 79.5773 -2.37301 -5.7279 0
M  V30 891 C 81.6323 -1.40353 -4.77709 0
M  V30 892 C 80.3353 -3.3964 -6.34064 0
M  V30 893 C 82.3613 -2.41562 -5.39817 0
M  V30 894 C 81.7233 -3.40031 -6.16894 0
M  V30 895 H 77.8223 0.0642367 -0.779357 0
M  V30 896 H 80.4063 -0.456683 -1.89268 0
M  V30 897 H 78.5773 1.36182 -3.63743 0
M  V30 898 H 80.3093 1.23934 -3.85256 0
M  V30 899 H 77.0643 -0.594046 -4.6986 0
M  V30 900 H 77.4883 -2.75289 -6.18502 0
M  V30 901 H 82.1303 -0.655907 -4.17681 0
M  V30 902 H 79.8483 -4.15309 -6.93213 0
M  V30 903 H 83.4343 -2.44524 -5.2792 0
M  V30 904 H 82.3143 -4.17063 -6.64099 0
M  V30 905 N 79.8174 1.5752 -0.0501392 0
M  V30 906 C 81.0664 1.91827 0.623328 0
M  V30 907 C 81.3794 0.930222 1.72065 0
M  V30 908 O 82.5854 1.1653 2.4522 0
M  V30 909 C 81.0414 3.40692 1.16003 0
M  V30 910 C 80.6494 4.479 0.0948811 0
M  V30 911 C 82.3934 3.84034 1.80881 0
M  V30 912 C 80.3004 5.87879 0.644411 0
M  V30 913 H 79.2304 0.715918 0.236596 0
M  V30 914 H 81.8814 1.83115 -0.118861 0
M  V30 915 H 80.2634 3.44405 1.9545 0
M  V30 916 H 81.4374 4.55775 -0.678675 0
M  V30 917 H 79.7524 4.13892 -0.45637 0
M  V30 918 H 82.3494 4.85984 2.22988 0
M  V30 919 H 82.6924 3.20225 2.6601 0
M  V30 920 H 83.2254 3.82833 1.0809 0
M  V30 921 H 79.9644 6.55282 -0.169229 0
M  V30 922 H 79.4844 5.83567 1.38598 0
M  V30 923 H 81.1634 6.37098 1.12763 0
M  V30 924 N 81.2955 -0.223234 1.56011 0
M  V30 925 C 82.5415 -0.949279 1.79211 0
M  V30 926 C 82.8745 -1.84054 0.619494 0
M  V30 927 O 82.1495 -1.90726 -0.381317 0
M  V30 928 C 82.4325 -1.78965 3.12479 0
M  V30 929 C 82.2855 -0.924997 4.40186 0
M  V30 930 C 83.6045 -2.76774 3.42175 0
M  V30 931 H 80.7235 -0.343676 0.651963 0
M  V30 932 H 83.3655 -0.218253 1.88742 0
M  V30 933 H 81.5155 -2.41291 3.04485 0
M  V30 934 H 83.1875 -0.318615 4.60198 0
M  V30 935 H 81.4305 -0.230344 4.33188 0
M  V30 936 H 82.1015 -1.54735 5.29869 0
M  V30 937 H 84.5775 -2.24584 3.50287 0
M  V30 938 H 83.4535 -3.32678 4.36597 0
M  V30 939 H 83.7145 -3.54429 2.64258 0
M  V30 940 N 82.7736 -1.49793 -0.48987 0
M  V30 941 C 84.1846 -1.52914 -1.07118 0
M  V30 942 C 84.5356 -0.321738 -1.93544 0
M  V30 943 O 83.6606 0.567338 -2.08831 0
M  V30 944 C 84.2556 -2.771 -1.94938 0
M  V30 945 C 82.8146 -2.82963 -2.48212 0
M  V30 946 C 81.9616 -2.46972 -1.26096 0
M  V30 947 H 84.9126 -1.56329 -0.273289 0
M  V30 948 H 84.9336 -2.57892 -2.79771 0
M  V30 949 H 84.4456 -3.64959 -1.32009 0
M  V30 950 H 82.5466 -1.99411 -3.14748 0
M  V30 951 H 82.6596 -3.85406 -2.84603 0
M  V30 952 H 81.0236 -1.98994 -1.58976 0
M  V30 953 H 81.8066 -3.37118 -0.648581 0
M  V30 954 N 84.2517 0.741722 -1.39055 0
M  V30 955 C 85.1817 1.869 -1.39966 0
M  V30 956 C 86.1627 1.6804 -0.26392 0
M  V30 957 O 87.3477 1.88458 -0.468755 0
M  V30 958 C 84.4777 3.24572 -1.23574 0
M  V30 959 C 83.4317 3.58056 -2.34477 0
M  V30 960 C 82.7577 4.94593 -2.0318 0
M  V30 961 C 84.0577 3.61716 -3.76774 0
M  V30 962 H 85.7517 1.86395 -2.34302 0
M  V30 963 H 83.2977 0.895361 -1.1278 0
M  V30 964 H 85.2507 4.031 -1.22834 0
M  V30 965 H 83.9747 3.25587 -0.257045 0
M  V30 966 H 82.6337 2.81854 -2.34423 0
M  V30 967 H 82.2817 4.92181 -1.03765 0
M  V30 968 H 81.9817 5.17964 -2.77465 0
M  V30 969 H 83.5057 5.75486 -2.04079 0
M  V30 970 H 84.9197 4.30335 -3.78794 0
M  V30 971 H 83.3167 3.96603 -4.50362 0
M  V30 972 H 84.3867 2.61672 -4.08235 0
M  V30 973 N 85.7298 1.2412 0.971189 0
M  V30 974 C 86.6598 1.05508 2.08304 0
M  V30 975 C 87.6408 -0.0308864 1.70072 0
M  V30 976 O 88.8258 0.135521 1.93727 0
M  V30 977 C 85.9558 0.655365 3.4106 0
M  V30 978 C 84.9098 1.68971 3.93234 0
M  V30 979 C 84.2358 1.14516 5.22293 0
M  V30 980 C 85.5358 3.08487 4.21465 0
M  V30 981 H 87.2298 1.98507 2.24132 0
M  V30 982 H 84.7758 0.955821 1.07704 0
M  V30 983 H 86.7288 0.51217 4.18276 0
M  V30 984 H 85.4528 -0.31032 3.25122 0
M  V30 985 H 84.1118 1.82106 3.18171 0
M  V30 986 H 83.7598 0.170189 5.02712 0
M  V30 987 H 83.4598 1.83635 5.58168 0
M  V30 988 H 84.9838 1.01401 6.02121 0
M  V30 989 H 86.3978 2.98601 4.89398 0
M  V30 990 H 84.7948 3.74926 4.68562 0
M  V30 991 H 85.8648 3.56787 3.28376 0
M  V30 992 N 87.2079 -1.17134 1.05439 0
M  V30 993 C 88.4559 -1.87085 0.764429 0
M  V30 994 C 88.7769 -1.81584 -0.710787 0
M  V30 995 O 88.0469 -1.24349 -1.51374 0
M  V30 996 H 86.6269 -0.692627 0.279779 0
M  V30 997 H 89.2889 -1.42087 1.33406 0
M  V30 998 H 88.3849 -2.92759 1.0816 0
M  V30 999 N 88.686 -0.835752 -1.33615 0
M  V30 1000 C 89.932 -0.430596 -1.98176 0
M  V30 1001 C 90.265 1.00684 -1.66061 0
M  V30 1002 O 89.54 1.70339 -0.938877 0
M  V30 1003 C 89.823 -0.648065 -3.5422 0
M  V30 1004 C 89.676 -2.13255 -3.96033 0
M  V30 1005 C 90.995 -0.0922113 -4.40003 0
M  V30 1006 H 88.114 -0.157924 -0.719881 0
M  V30 1007 H 90.756 -1.05069 -1.58305 0
M  V30 1008 H 88.906 -0.120237 -3.88314 0
M  V30 1009 H 90.578 -2.725 -3.72211 0
M  V30 1010 H 88.821 -2.61823 -3.45878 0
M  V30 1011 H 89.492 -2.23547 -5.04708 0
M  V30 1012 H 91.968 -0.543343 -4.12537 0
M  V30 1013 H 90.844 -0.274083 -5.48215 0
M  V30 1014 H 91.105 1.00378 -4.30554 0
M  V30 1015 N 90.1641 1.46063 -0.591896 0
M  V30 1016 C 91.1271 2.28854 0.125973 0
M  V30 1017 C 92.1271 1.38903 0.810107 0
M  V30 1018 O 93.3171 1.61186 0.66066 0
M  V30 1019 C 90.4491 3.19526 1.1881 0
M  V30 1020 H 91.6421 2.93802 -0.601717 0
M  V30 1021 H 89.1951 1.52325 -0.350254 0
M  V30 1022 H 89.9301 2.59345 1.94707 0
M  V30 1023 H 89.7151 3.85766 0.701936 0
M  V30 1024 H 91.2051 3.81817 1.69132 0
M  V30 1025 N 91.6422 0.330177 1.54103 0
M  V30 1026 C 92.6052 -0.520144 2.2322 0
M  V30 1027 C 93.6052 -1.03828 1.22786 0
M  V30 1028 O 94.7952 -0.929652 1.4732 0
M  V30 1029 C 91.9272 -1.72317 2.94142 0
M  V30 1030 H 93.1202 0.0841605 2.99782 0
M  V30 1031 H 90.6732 0.0813433 1.56088 0
M  V30 1032 H 91.4082 -2.36653 2.21734 0
M  V30 1033 H 91.1932 -1.35898 3.67796 0
M  V30 1034 H 92.6832 -2.3266 3.46784 0
M  V30 1035 N 93.1203 -1.57491 0.0584922 0
M  V30 1036 C 94.3663 -1.93264 -0.614558 0
M  V30 1037 C 94.6993 -0.937717 -1.7006 0
M  V30 1038 O 93.9743 0.0351652 -1.94468 0
M  V30 1039 C 94.2573 -3.3938 -1.20386 0
M  V30 1040 C 94.1103 -4.49625 -0.125375 0
M  V30 1041 C 95.4293 -3.86039 -2.11334 0
M  V30 1042 H 92.5483 -0.702791 -0.221933 0
M  V30 1043 H 95.1903 -1.8961 0.12175 0
M  V30 1044 H 93.3403 -3.42626 -1.83139 0
M  V30 1045 H 95.0123 -4.58506 0.506971 0
M  V30 1046 H 93.2553 -4.30354 0.545672 0
M  V30 1047 H 93.9263 -5.48967 -0.577861 0
M  V30 1048 H 96.4023 -3.84716 -1.58534 0
M  V30 1049 H 95.2783 -4.88914 -2.49507 0
M  V30 1050 H 95.5393 -3.23215 -3.01636 0
M  V30 1051 N 94.5984 0.214957 -1.56127 0
M  V30 1052 C 95.5614 1.24997 -1.92116 0
M  V30 1053 C 96.5614 1.39467 -0.800344 0
M  V30 1054 O 97.7514 1.37619 -1.06802 0
M  V30 1055 C 94.8834 2.62271 -2.17777 0
M  V30 1056 H 96.0764 0.942875 -2.84693 0
M  V30 1057 H 93.6294 0.455654 -1.49511 0
M  V30 1058 H 94.3644 2.98068 -1.27773 0
M  V30 1059 H 94.1494 2.53143 -2.99434 0
M  V30 1060 H 95.6394 3.36946 -2.46693 0
M  V30 1061 N 96.0765 1.50051 0.48192 0
M  V30 1062 C 97.3015 1.64508 1.26301 0
M  V30 1063 C 97.7265 0.323851 1.85291 0
M  V30 1064 O 97.0845 -0.710969 1.66778 0
M  V30 1065 C 97.1325 2.7305 2.35533 0
M  V30 1066 O 96.2365 2.3355 3.39895 0
M  V30 1067 H 95.5775 0.549978 0.372048 0
M  V30 1068 H 98.1075 1.9636 0.574786 0
M  V30 1069 H 98.1175 2.95799 2.8101 0
M  V30 1070 H 96.7925 3.68946 1.91967 0
M  V30 1071 H 95.3695 2.21205 3.00204 0
M  V30 1072 N 97.5546 -0.734337 1.39446 0
M  V30 1073 C 98.8036 -1.48937 1.36017 0
M  V30 1074 C 99.1166 -1.95557 -0.0409005 0
M  V30 1075 O 100.323 -2.70779 -0.19778 0
M  V30 1076 C 98.7786 -2.69125 2.38955 0
M  V30 1077 C 98.3866 -2.29452 3.8478 0
M  V30 1078 C 100.131 -3.46944 2.44603 0
M  V30 1079 C 98.0376 -3.46366 4.79358 0
M  V30 1080 H 96.9676 -0.559296 0.505672 0
M  V30 1081 H 99.6186 -0.800983 1.65095 0
M  V30 1082 H 98.0006 -3.40041 2.02948 0
M  V30 1083 H 99.1746 -1.66077 4.29831 0
M  V30 1084 H 97.4896 -1.64723 3.82433 0
M  V30 1085 H 100.087 -4.33907 3.12456 0
M  V30 1086 H 100.43 -3.89454 1.47076 0
M  V30 1087 H 100.963 -2.83056 2.79507 0
M  V30 1088 H 97.7016 -3.08905 5.78151 0
M  V30 1089 H 97.2216 -4.08719 4.38986 0
M  V30 1090 H 98.9006 -4.12691 4.98292 0
M  V30 1091 N 99.0327 -1.24633 -0.964593 0
M  V30 1092 C 100.281 -1.08573 -1.70459 0
M  V30 1093 C 100.602 0.375655 -1.91347 0
M  V30 1094 O 99.8717 1.26779 -1.49345 0
M  V30 1095 H 98.4517 -0.398784 -0.631649 0
M  V30 1096 H 101.114 -1.56601 -1.16026 0
M  V30 1097 H 100.21 -1.58623 -2.68785 0
M  V30 1098 N 100.511 1.16574 -1.06058 0
M  V30 1099 C 101.757 1.87324 -0.777022 0
M  V30 1100 C 102.09 1.81351 0.694645 0
M  V30 1101 O 101.365 1.22753 1.50871 0
M  V30 1102 C 101.648 3.36991 -1.26922 0
M  V30 1103 C 101.501 3.51667 -2.80447 0
M  V30 1104 C 102.82 4.3131 -0.87521 0
M  V30 1105 H 99.9388 0.680191 -0.28374 0
M  V30 1106 H 102.581 1.37036 -1.3161 0
M  V30 1107 H 100.731 3.79949 -0.81063 0
M  V30 1108 H 102.403 3.17664 -3.34495 0
M  V30 1109 H 100.646 2.93656 -3.19294 0
M  V30 1110 H 101.317 4.56766 -3.0995 0
M  V30 1111 H 103.793 3.9624 -1.27014 0
M  V30 1112 H 102.669 5.34545 -1.2471 0
M  V30 1113 H 102.93 4.41552 0.220071 0
M  V30 1114 N 101.989 0.842826 1.3317 0
M  V30 1115 C 103.238 0.436738 1.96915 0
M  V30 1116 C 103.551 -1.01025 1.67491 0
M  V30 1117 O 104.757 -1.5212 2.24881 0
M  V30 1118 C 103.213 0.730021 3.52418 0
M  V30 1119 C 102.821 2.19195 3.90714 0
M  V30 1120 C 104.565 0.391076 4.22695 0
M  V30 1121 C 102.472 2.42907 5.39212 0
M  V30 1122 H 101.402 0.15958 0.736919 0
M  V30 1123 H 104.053 1.03196 1.51733 0
M  V30 1124 H 102.435 0.0643755 3.95948 0
M  V30 1125 H 103.609 2.8984 3.58231 0
M  V30 1126 H 101.924 2.49425 3.33431 0
M  V30 1127 H 104.521 0.545817 5.31907 0
M  V30 1128 H 104.864 -0.666294 4.10933 0
M  V30 1129 H 105.397 1.01212 3.84709 0
M  V30 1130 H 102.136 3.47224 5.55982 0
M  V30 1131 H 101.656 1.76827 5.73142 0
M  V30 1132 H 103.335 2.2626 6.06148 0
M  V30 1133 N 103.467 -1.45747 0.599634 0
M  V30 1134 C 104.43 -2.28917 -0.113835 0
M  V30 1135 C 105.43 -1.3933 -0.802729 0
M  V30 1136 O 106.62 -1.61534 -0.652103 0
M  V30 1137 C 103.752 -3.20152 -1.17114 0
M  V30 1138 H 104.945 -2.93478 0.617289 0
M  V30 1139 H 102.498 -1.52137 0.358327 0
M  V30 1140 H 103.233 -2.60374 -1.93329 0
M  V30 1141 H 103.018 -3.86133 -0.681468 0
M  V30 1142 H 104.508 -3.82708 -1.67105 0
M  V30 1143 N 104.945 -0.338344 -1.53925 0
M  V30 1144 C 106.222 0.314774 -1.93051 0
M  V30 1145 C 106.602 1.68669 -1.26941 0
M  V30 1146 O 105.95 2.24636 -0.418445 0
M  V30 1147 C 106.16 0.392249 -3.46789 0
M  V30 1148 C 107.508 0.645554 -4.19664 0
M  V30 1149 O 108.532 0.474575 -3.53024 0
M  V30 1150 O 107.391 0.976408 -5.37707 0
M  V30 1151 H 104.485 0.182598 -0.80659 0
M  V30 1152 H 107.031 -0.389141 -1.65178 0
M  V30 1153 H 105.803 -0.570702 -3.87116 0
M  V30 1154 H 105.426 1.14316 -3.80812 0
M  V30 1155 N 106.423 1.57458 -0.0668435 0
M  V30 1156 C 107.834 1.80776 0.466558 0
M  V30 1157 C 108.185 0.980361 1.69951 0
M  V30 1158 O 107.31 0.201441 2.1546 0
M  V30 1159 C 107.905 3.27881 0.85321 0
M  V30 1160 C 106.464 3.52062 1.3315 0
M  V30 1161 C 105.611 2.75513 0.314264 0
M  V30 1162 H 108.562 1.5598 -0.292588 0
M  V30 1163 H 108.583 3.39659 1.715 0
M  V30 1164 H 108.095 3.88075 -0.0443439 0
M  V30 1165 H 106.196 2.97167 2.24772 0
M  V30 1166 H 106.309 4.60762 1.31285 0
M  V30 1167 H 104.673 2.42123 0.790492 0
M  V30 1168 H 105.456 3.38442 -0.575477 0
M  V30 1169 N 107.901 -0.206675 1.56239 0
M  V30 1170 C 109.147 -0.930218 1.80208 0
M  V30 1171 C 109.48 -1.83387 0.638981 0
M  V30 1172 O 108.755 -1.91119 -0.361066 0
M  V30 1173 C 109.038 -1.75641 3.1436 0
M  V30 1174 C 108.891 -0.878257 4.41142 0
M  V30 1175 C 110.21 -2.73129 3.45092 0
M  V30 1176 H 107.329 -0.336742 0.655571 0
M  V30 1177 H 109.971 -0.198222 1.88963 0
M  V30 1178 H 108.121 -2.38048 3.07027 0
M  V30 1179 H 109.793 -0.269787 4.6051 0
M  V30 1180 H 108.036 -0.184385 4.33408 0
M  V30 1181 H 108.707 -1.49106 5.3148 0
M  V30 1182 H 111.183 -2.20856 3.52649 0
M  V30 1183 H 110.059 -3.28028 4.40101 0
M  V30 1184 H 110.32 -3.51606 2.68003 0
M  V30 1185 N 109.379 -1.50304 -0.473955 0
M  V30 1186 C 110.795 -1.37667 -0.807466 0
M  V30 1187 C 110.995 -0.430555 -1.96846 0
M  V30 1188 O 110.051 0.127874 -2.52176 0
M  V30 1189 C 111.364 -2.78974 -1.12223 0
M  V30 1190 C 112.912 -2.87868 -1.22885 0
M  V30 1191 C 113.387 -4.30003 -1.57676 0
M  V30 1192 N 114.878 -4.3294 -1.64673 0
M  V30 1193 C 115.613 -5.3991 -1.93091 0
M  V30 1194 N 115.109 -6.57092 -2.1955 0
M  V30 1195 N 116.902 -5.27351 -1.94569 0
M  V30 1196 H 109.053 -2.10394 0.291212 0
M  V30 1197 H 111.316 -0.945575 0.0677609 0
M  V30 1198 H 111.022 -3.50031 -0.342229 0
M  V30 1199 H 110.896 -3.16038 -2.05913 0
M  V30 1200 H 113.283 -2.17032 -1.99953 0
M  V30 1201 H 113.364 -2.54352 -0.271814 0
M  V30 1202 H 113.008 -5.01375 -0.81149 0
M  V30 1203 H 112.938 -4.61004 -2.54525 0
M  V30 1204 H 115.429 -3.48441 -1.46277 0
M  V30 1205 H 115.742 -7.34425 -2.405 0
M  V30 1206 H 114.087 -6.60272 -2.16948 0
M  V30 1207 H 117.278 -4.34801 -1.73394 0
M  V30 1208 H 117.451 -6.10805 -2.16381 0
M  V30 1209 N 110.857 0.726932 -1.39834 0
M  V30 1210 C 112.103 1.48884 -1.377 0
M  V30 1211 C 112.436 1.94185 0.0244852 0
M  V30 1212 O 111.711 1.67361 0.990986 0
M  V30 1213 C 111.994 2.72288 -2.3565 0
M  V30 1214 C 111.847 2.32956 -3.84775 0
M  V30 1215 C 113.166 3.74414 -2.31306 0
M  V30 1216 H 110.285 0.540062 -0.5015 0
M  V30 1217 H 112.927 0.830547 -1.70886 0
M  V30 1218 H 111.077 3.28457 -2.07481 0
M  V30 1219 H 112.749 1.82356 -4.23726 0
M  V30 1220 H 110.992 1.65088 -4.01159 0
M  V30 1221 H 111.663 3.21362 -4.4881 0
M  V30 1222 H 114.139 3.27849 -2.56231 0
M  V30 1223 H 113.015 4.58414 -3.01907 0
M  V30 1224 H 113.276 4.21909 -1.32081 0
M  V30 1225 N 112.336 1.25143 0.95797 0
M  V30 1226 C 113.582 1.09855 1.70469 0
M  V30 1227 C 113.915 -0.360187 1.90831 0
M  V30 1228 O 113.19 -1.26568 1.47685 0
M  V30 1229 C 113.473 1.8497 3.08963 0
M  V30 1230 C 113.326 3.38652 2.96032 0
M  V30 1231 C 114.645 1.63016 4.08795 0
M  V30 1232 H 111.764 0.400465 0.618706 0
M  V30 1233 H 114.406 1.53933 1.11376 0
M  V30 1234 H 112.556 1.47505 3.59409 0
M  V30 1235 H 114.228 3.85772 2.52938 0
M  V30 1236 H 112.471 3.66534 2.32025 0
M  V30 1237 H 113.142 3.8642 3.94187 0
M  V30 1238 H 115.618 1.95625 3.67247 0
M  V30 1239 H 114.494 2.18015 5.03747 0
M  V30 1240 H 114.755 0.570692 4.38401 0
M  V30 1241 N 113.814 -1.1601 1.06675 0
M  V30 1242 C 115.23 -1.38622 0.790948 0
M  V30 1243 C 115.43 -1.92109 -0.607965 0
M  V30 1244 O 114.486 -2.12239 -1.36787 0
M  V30 1245 C 115.799 -2.36347 1.85905 0
M  V30 1246 C 117.347 -2.50023 1.88301 0
M  V30 1247 C 117.822 -3.51033 2.94176 0
M  V30 1248 N 119.313 -3.58563 2.93235 0
M  V30 1249 C 120.048 -4.36521 3.71803 0
M  V30 1250 N 119.544 -5.17869 4.602 0
M  V30 1251 N 121.337 -4.31541 3.60178 0
M  V30 1252 H 113.488 -0.796294 1.96908 0
M  V30 1253 H 115.751 -0.412597 0.853503 0
M  V30 1254 H 115.457 -2.04147 2.86386 0
M  V30 1255 H 115.331 -3.36042 1.71334 0
M  V30 1256 H 117.718 -2.81524 0.884769 0
M  V30 1257 H 117.799 -1.5035 2.06951 0
M  V30 1258 H 117.443 -3.20268 3.94196 0
M  V30 1259 H 117.373 -4.50445 2.72776 0
M  V30 1260 H 119.864 -3.00496 2.29152 0
M  V30 1261 H 120.177 -5.74578 5.16797 0
M  V30 1262 H 118.522 -5.17199 4.64253 0
M  V30 1263 H 121.713 -3.67051 2.90502 0
M  V30 1264 H 121.886 -4.9205 4.21653 0
M  V30 1265 N 115.292 -0.849877 -1.32721 0
M  V30 1266 C 116.255 -0.296122 -2.27279 0
M  V30 1267 C 117.255 0.541458 -1.5141 0
M  V30 1268 O 118.445 0.353658 -1.70572 0
M  V30 1269 C 115.577 0.581579 -3.35902 0
M  V30 1270 H 116.77 -1.13064 -2.77771 0
M  V30 1271 H 114.323 -0.62383 -1.43311 0
M  V30 1272 H 115.058 1.43809 -2.9067 0
M  V30 1273 H 114.843 -0.0178814 -3.92096 0
M  V30 1274 H 116.333 0.961951 -4.0637 0
M  V30 1275 N 116.77 1.45427 -0.607355 0
M  V30 1276 C 118.181 1.85756 -0.187535 0
M  V30 1277 C 118.532 1.5077 1.25551 0
M  V30 1278 O 117.657 0.93427 1.95193 0
M  V30 1279 C 118.252 3.37154 -0.333572 0
M  V30 1280 C 116.811 3.76387 0.0315542 0
M  V30 1281 C 115.958 2.69377 -0.658117 0
M  V30 1282 H 118.909 1.36231 -0.81405 0
M  V30 1283 H 118.93 3.78014 0.43428 0
M  V30 1284 H 118.442 3.62586 -1.38393 0
M  V30 1285 H 116.543 3.56571 1.0811 0
M  V30 1286 H 116.656 4.77731 -0.361935 0
M  V30 1287 H 115.02 2.5452 -0.0957873 0
M  V30 1288 H 115.803 2.97646 -1.7106 0
M  V30 1289 N 118.248 0.346503 1.53744 0
M  V30 1290 C 119.211 -0.496439 2.23759 0
M  V30 1291 C 120.211 -1.0252 1.2388 0
M  V30 1292 O 121.401 -0.913974 1.48297 0
M  V30 1293 C 118.533 -1.69187 2.95954 0
M  V30 1294 H 119.726 0.115952 2.99676 0
M  V30 1295 H 117.279 0.0978939 1.55993 0
M  V30 1296 H 118.014 -2.34288 2.24231 0
M  V30 1297 H 117.799 -1.31989 3.69217 0
M  V30 1298 H 119.289 -2.28969 3.49232 0
M  V30 1299 N 119.726 -1.57421 0.075193 0
M  V30 1300 C 120.656 -2.15942 -0.888324 0
M  V30 1301 C 121.637 -1.08737 -1.30806 0
M  V30 1302 O 122.822 -1.36787 -1.37851 0
M  V30 1303 C 119.952 -2.72379 -2.1547 0
M  V30 1304 C 118.906 -3.8478 -1.87425 0
M  V30 1305 C 118.232 -4.27834 -3.20721 0
M  V30 1306 C 119.532 -5.08869 -1.17684 0
M  V30 1307 H 121.226 -2.96705 -0.400799 0
M  V30 1308 H 118.772 -1.42723 -0.191342 0
M  V30 1309 H 120.725 -3.11965 -2.83295 0
M  V30 1310 H 119.449 -1.88841 -2.6647 0
M  V30 1311 H 118.108 -3.45703 -1.22004 0
M  V30 1312 H 117.756 -3.41214 -3.6957 0
M  V30 1313 H 117.456 -5.03605 -3.02746 0
M  V30 1314 H 118.98 -4.70039 -3.89738 0
M  V30 1315 H 120.394 -5.4575 -1.75584 0
M  V30 1316 H 118.791 -5.8994 -1.09956 0
M  V30 1317 H 119.861 -4.84648 -0.156453 0
M  V30 1318 N 121.204 0.198386 -1.56346 0
M  V30 1319 C 122.453 0.917451 -1.79627 0
M  V30 1320 C 122.766 1.8456 -0.64784 0
M  V30 1321 O 123.972 2.60504 -0.764859 0
M  V30 1322 C 122.428 1.68175 -3.18191 0
M  V30 1323 C 122.036 0.798589 -4.40825 0
M  V30 1324 C 123.78 2.39065 -3.50782 0
M  V30 1325 C 121.687 1.56157 -5.70411 0
M  V30 1326 H 120.617 0.346317 -0.669762 0
M  V30 1327 H 123.268 0.170801 -1.82703 0
M  V30 1328 H 121.65 2.47216 -3.09354 0
M  V30 1329 H 122.824 0.0470665 -4.60776 0
M  V30 1330 H 121.139 0.200686 -4.15916 0
M  V30 1331 H 123.736 2.96692 -4.44835 0
M  V30 1332 H 124.079 3.13091 -2.74371 0
M  V30 1333 H 124.612 1.66993 -3.61052 0
M  V30 1334 H 121.351 0.864142 -6.49779 0
M  V30 1335 H 120.871 2.2871 -5.54483 0
M  V30 1336 H 122.55 2.11622 -6.11412 0
M  V30 1337 N 122.682 1.50554 0.465978 0
M  V30 1338 C 123.612 1.72722 1.57128 0
M  V30 1339 C 124.593 0.576294 1.6004 0
M  V30 1340 O 125.778 0.81598 1.76225 0
M  V30 1341 C 122.908 1.82605 2.95419 0
M  V30 1342 C 121.862 2.97835 3.07373 0
M  V30 1343 C 121.188 2.92867 4.47363 0
M  V30 1344 C 122.488 4.38265 2.84114 0
M  V30 1345 H 124.182 2.65267 1.38829 0
M  V30 1346 H 121.728 1.2765 0.666441 0
M  V30 1347 H 123.681 1.96698 3.72677 0
M  V30 1348 H 122.405 0.866858 3.14886 0
M  V30 1349 H 121.064 2.83401 2.3255 0
M  V30 1350 H 120.712 1.94783 4.63755 0
M  V30 1351 H 120.412 3.70227 4.56296 0
M  V30 1352 H 121.936 3.09015 5.26633 0
M  V30 1353 H 123.35 4.53198 3.51118 0
M  V30 1354 H 121.747 5.17115 3.04487 0
M  V30 1355 H 122.817 4.50281 1.7993 0
M  V30 1356 N 124.16 -0.719506 1.40217 0
M  V30 1357 C 125.406 -1.48152 1.38488 0
M  V30 1358 C 125.739 -1.94195 -0.0141867 0
M  V30 1359 O 125.014 -1.67884 -0.982096 0
M  V30 1360 C 125.297 -2.71035 2.37091 0
M  V30 1361 C 125.15 -2.30912 3.86005 0
M  V30 1362 C 126.469 -3.73182 2.33288 0
M  V30 1363 H 123.588 -0.537395 0.504357 0
M  V30 1364 H 126.23 -0.821472 1.71324 0
M  V30 1365 H 124.38 -3.27352 2.0922 0
M  V30 1366 H 126.052 -1.80107 4.24687 0
M  V30 1367 H 124.295 -1.62958 4.02029 0
M  V30 1368 H 124.966 -3.18978 4.50508 0
M  V30 1369 H 127.442 -3.26485 2.57966 0
M  V30 1370 H 126.318 -4.56806 3.04334 0
M  V30 1371 H 126.579 -4.21202 1.34317 0
M  V30 1372 N 125.638 -1.25649 -0.95132 0
M  V30 1373 C 126.915 -1.01361 -1.67288 0
M  V30 1374 C 127.295 0.459135 -2.06046 0
M  V30 1375 O 126.643 1.43723 -1.7764 0
M  V30 1376 C 126.853 -1.95256 -2.89268 0
M  V30 1377 C 128.201 -2.23289 -3.61147 0
M  V30 1378 O 129.225 -1.93041 -2.99355 0
M  V30 1379 O 128.084 -2.74741 -4.72419 0
M  V30 1380 H 125.178 -0.38464 -0.732107 0
M  V30 1381 H 127.724 -1.36817 -1.00395 0
M  V30 1382 H 126.496 -2.94685 -2.57442 0
M  V30 1383 H 126.119 -1.60218 -3.6389 0
M  V30 1384 N 127.117 1.15442 -1.07289 0
M  V30 1385 C 128.08 2.18358 -0.696591 0
M  V30 1386 C 129.08 1.58637 0.262837 0
M  V30 1387 O 130.27 1.74145 0.0438809 0
M  V30 1388 C 127.402 3.4089 -0.0266151 0
M  V30 1389 H 128.595 2.53162 -1.60776 0
M  V30 1390 H 126.148 1.29893 -0.869342 0
M  V30 1391 H 126.883 3.11653 0.896822 0
M  V30 1392 H 126.668 3.85495 -0.716657 0
M  V30 1393 H 128.158 4.17009 0.222028 0
M  V30 1394 N 128.595 0.856903 1.32268 0
M  V30 1395 C 129.558 0.308171 2.27119 0
M  V30 1396 C 130.558 -0.533421 1.51695 0
M  V30 1397 O 131.748 -0.344607 1.70757 0
M  V30 1398 C 128.88 -0.563757 3.36206 0
M  V30 1399 H 130.073 1.14535 2.77167 0
M  V30 1400 H 127.626 0.631421 1.42978 0
M  V30 1401 H 128.361 -1.42266 2.91429 0
M  V30 1402 H 128.146 0.0386749 3.92081 0
M  V30 1403 H 129.636 -0.940386 4.06874 0
M  V30 1404 N 130.073 -1.45103 0.615059 0
M  V30 1405 C 131.021 -2.32331 -0.111791 0
M  V30 1406 C 132.015 -1.46409 -0.852102 0
M  V30 1407 O 133.221 -1.62849 -0.766821 0
M  V30 1408 H 129.596 -0.749993 -0.0549072 0
M  V30 1409 H 131.567 -2.91407 0.642225 0
M  V30 1410 C 130.316 -3.3015 -1.09071 0
M  V30 1411 H 129.639 -3.96265 -0.530485 0
M  V30 1412 H 131.079 -3.93898 -1.56908 0
M  V30 1413 C 129.538 -2.57875 -2.168 0
M  V30 1414 O 130.068 -2.36567 -3.24652 0
M  V30 1415 N 128.274 -2.17884 -1.92289 0
M  V30 1416 H 127.821 -2.35413 -1.04587 0
M  V30 1417 H 127.779 -1.6985 -2.64572 0
M  V30 1418 N 131.551 -0.354651 -1.53558 0
M  V30 1419 C 132.962 0.126902 -1.86268 0
M  V30 1420 C 133.313 1.49075 -1.27558 0
M  V30 1421 O 132.438 2.08105 -0.5934 0
M  V30 1422 C 133.033 0.237046 -3.3797 0
M  V30 1423 C 131.592 0.662842 -3.70518 0
M  V30 1424 C 130.739 -0.196652 -2.76602 0
M  V30 1425 H 133.69 -0.573849 -1.47962 0
M  V30 1426 H 133.711 1.06259 -3.65362 0
M  V30 1427 H 133.223 -0.755725 -3.80671 0
M  V30 1428 H 131.324 1.66424 -3.33367 0
M  V30 1429 H 131.437 0.445034 -4.77029 0
M  V30 1430 H 129.801 0.332763 -2.52517 0
M  V30 1431 H 130.584 -1.18676 -3.22135 0
M  V30 1432 N 133.029 1.57378 -0.0835403 0
M  V30 1433 C 133.959 2.1641 0.87686 0
M  V30 1434 C 134.94 1.09429 1.30228 0
M  V30 1435 O 136.125 1.37516 1.37124 0
M  V30 1436 C 133.255 2.73517 2.14022 0
M  V30 1437 C 132.209 3.85769 1.85381 0
M  V30 1438 C 131.535 4.29529 3.18448 0
M  V30 1439 C 132.835 5.09486 1.14984 0
M  V30 1440 H 134.529 2.96914 0.385059 0
M  V30 1441 H 132.075 1.42823 0.18377 0
M  V30 1442 H 134.028 3.13463 2.81636 0
M  V30 1443 H 132.752 1.90252 2.65465 0
M  V30 1444 H 131.411 3.46345 1.20169 0
M  V30 1445 H 131.059 3.43169 3.67755 0
M  V30 1446 H 130.759 5.05204 3.00071 0
M  V30 1447 H 132.283 4.72099 3.8724 0
M  V30 1448 H 133.697 5.46674 1.72687 0
M  V30 1449 H 132.094 5.90515 1.06826 0
M  V30 1450 H 133.164 4.84724 0.130749 0
M  V30 1451 N 134.507 -0.190092 1.56449 0
M  V30 1452 C 135.47 -1.21925 1.9408 0
M  V30 1453 C 136.47 -1.38176 0.822431 0
M  V30 1454 O 137.66 -1.35903 1.08977 0
M  V30 1455 C 134.792 -2.58773 2.21922 0
M  V30 1456 H 135.985 -0.897464 2.86157 0
M  V30 1457 H 133.538 -0.43181 1.50217 0
M  V30 1458 H 134.273 -2.95998 1.32499 0
M  V30 1459 H 134.058 -2.48348 3.03424 0
M  V30 1460 H 135.548 -3.32978 2.52022 0
M  V30 1461 N 135.985 -1.50799 -0.457987 0
M  V30 1462 C 137.233 -1.62121 -1.2067 0
M  V30 1463 C 137.554 -0.329793 -1.92191 0
M  V30 1464 O 136.824 0.653409 -1.84682 0
M  V30 1465 H 135.404 -0.597441 -0.448411 0
M  V30 1466 H 138.066 -1.87637 -0.527096 0
M  V30 1467 H 137.162 -2.43882 -1.94751 0
M  V30 1468 N 137.463 0.71206 -1.40597 0
M  V30 1469 C 138.41 1.82613 -1.41142 0
M  V30 1470 C 139.38 1.63925 -0.267903 0
M  V30 1471 O 140.565 1.85009 -0.466495 0
M  V30 1472 C 137.705 3.20354 -1.28324 0
M  V30 1473 C 136.818 3.50589 -2.52411 0
M  V30 1474 C 135.953 4.77855 -2.32009 0
M  V30 1475 C 134.992 5.01005 -3.51654 0
M  V30 1476 N 134.129 6.19487 -3.30425 0
M  V30 1477 H 138.969 1.81482 -2.36365 0
M  V30 1478 H 136.506 0.886475 -1.17388 0
M  V30 1479 H 138.464 3.99899 -1.18899 0
M  V30 1480 H 137.094 3.20705 -0.367189 0
M  V30 1481 H 136.146 2.65573 -2.72351 0
M  V30 1482 H 137.458 3.63604 -3.41458 0
M  V30 1483 H 136.612 5.65424 -2.19956 0
M  V30 1484 H 135.351 4.67056 -1.40392 0
M  V30 1485 H 134.356 4.1189 -3.64179 0
M  V30 1486 H 135.581 5.13674 -4.44202 0
M  V30 1487 H 133.527 6.09932 -2.41494 0
M  V30 1488 H 133.444 6.33194 -4.13039 0
M  V30 1489 H 134.712 7.09834 -3.22113 0
M  V30 1490 N 138.941 1.26152 0.944643 0
M  V30 1491 C 140.352 1.10454 1.50522 0
M  V30 1492 C 140.703 -0.31635 1.93633 0
M  V30 1493 O 139.828 -1.20746 1.79581 0
M  V30 1494 C 140.423 1.99891 2.73549 0
M  V30 1495 C 138.982 1.88348 3.25886 0
M  V30 1496 C 138.129 1.93447 1.9868 0
M  V30 1497 H 141.08 1.39292 0.760489 0
M  V30 1498 H 141.101 1.54477 3.47732 0
M  V30 1499 H 140.613 3.03297 2.42141 0
M  V30 1500 H 138.714 0.878636 3.62092 0
M  V30 1501 H 138.827 2.73696 3.93227 0
M  V30 1502 H 137.191 1.37456 2.14425 0
M  V30 1503 H 137.974 2.98476 1.69607 0
M  V30 1504 N 140.419 -1.14872 1.07899 0
M  V30 1505 C 141.666 -1.85789 0.805532 0
M  V30 1506 C 141.994 -1.82649 -0.668561 0
M  V30 1507 O 141.249 -1.24858 -1.50695 0
M  V30 1508 C 141.548 -3.34223 1.26609 0
M  V30 1509 C 141.214 -3.57555 2.74709 0
M  V30 1510 C 139.876 -3.63631 3.1516 0
M  V30 1511 C 142.228 -3.66803 3.70277 0
M  V30 1512 C 139.556 -3.76473 4.49983 0
M  V30 1513 C 141.908 -3.8117 5.04869 0
M  V30 1514 C 140.572 -3.85494 5.44932 0
M  V30 1515 H 139.842 -0.679849 0.294765 0
M  V30 1516 H 142.489 -1.3572 1.35101 0
M  V30 1517 H 140.794 -3.86536 0.640103 0
M  V30 1518 H 142.491 -3.87511 1.03132 0
M  V30 1519 H 139.081 -3.5347 2.42398 0
M  V30 1520 H 143.265 -3.61404 3.40149 0
M  V30 1521 H 138.521 -3.7808 4.80484 0
M  V30 1522 H 142.695 -3.87268 5.78789 0
M  V30 1523 H 140.322 -3.95197 6.49403 0
M  V30 1524 N 141.898 -0.863906 -1.31812 0
M  V30 1525 C 143.128 -0.485406 -2.00817 0
M  V30 1526 C 143.536 0.925007 -1.65046 0
M  V30 1527 O 142.879 1.61653 -0.872574 0
M  V30 1528 C 142.941 -0.555589 -3.55181 0
M  V30 1529 C 142.605 -1.92654 -4.14407 0
M  V30 1530 C 143.602 -2.89324 -4.31958 0
M  V30 1531 C 141.287 -2.2262 -4.50273 0
M  V30 1532 C 143.281 -4.14108 -4.84555 0
M  V30 1533 C 140.968 -3.47654 -5.02573 0
M  V30 1534 C 141.966 -4.43214 -5.19664 0
M  V30 1535 O 141.654 -5.66033 -5.70843 0
M  V30 1536 H 141.386 -0.188224 -0.649267 0
M  V30 1537 H 143.94 -1.16514 -1.69156 0
M  V30 1538 H 142.17 0.181037 -3.86276 0
M  V30 1539 H 143.859 -0.19138 -4.05449 0
M  V30 1540 H 144.625 -2.6748 -4.04573 0
M  V30 1541 H 140.504 -1.4902 -4.3625 0
M  V30 1542 H 144.048 -4.88703 -4.9781 0
M  V30 1543 H 139.945 -3.69345 -5.29391 0
M  V30 1544 H 140.713 -5.6812 -5.89222 0
M  V30 1545 N 143.376 1.44774 -0.622745 0
M  V30 1546 C 144.622 2.0242 -0.124083 0
M  V30 1547 C 144.955 1.4881 1.24777 0
M  V30 1548 O 144.23 0.668799 1.8264 0
M  V30 1549 C 144.513 3.59957 -0.101619 0
M  V30 1550 C 144.366 4.23867 -1.50521 0
M  V30 1551 C 145.685 4.36284 0.578272 0
M  V30 1552 H 142.804 0.735528 -0.0465645 0
M  V30 1553 H 145.446 1.72447 -0.797617 0
M  V30 1554 H 143.596 3.85623 0.471934 0
M  V30 1555 H 145.268 4.09336 -2.12701 0
M  V30 1556 H 143.511 3.81684 -2.06154 0
M  V30 1557 H 144.182 5.32843 -1.4416 0
M  V30 1558 H 146.658 4.16001 0.0906057 0
M  V30 1559 H 145.534 5.46004 0.563149 0
M  V30 1560 H 145.795 4.10271 1.64713 0
M  V30 1561 N 144.854 0.36279 1.53368 0
M  V30 1562 C 146.131 -0.284021 1.93527 0
M  V30 1563 C 146.511 -1.66628 1.29608 0
M  V30 1564 O 145.859 -2.23942 0.45413 0
M  V30 1565 C 146.069 -0.337028 3.47369 0
M  V30 1566 C 147.417 -0.578708 4.20638 0
M  V30 1567 O 148.441 -0.418352 3.53735 0
M  V30 1568 O 147.3 -0.89074 5.39192 0
M  V30 1569 H 144.394 -0.169743 0.809393 0
M  V30 1570 H 146.94 0.41537 1.64538 0
M  V30 1571 H 145.712 0.632217 3.86159 0
M  V30 1572 H 145.335 -1.08243 3.82582 0
M  V30 1573 N 146.332 -1.57332 0.0918853 0
M  V30 1574 C 147.743 -1.81496 -0.437739 0
M  V30 1575 C 148.094 -1.00727 -1.6837 0
M  V30 1576 O 147.219 -0.235694 -2.15113 0
M  V30 1577 C 147.814 -3.29197 -0.800939 0
M  V30 1578 C 146.373 -3.54136 -1.27532 0
M  V30 1579 C 145.52 -2.75979 -0.270392 0
M  V30 1580 H 148.471 -1.55494 0.317366 0
M  V30 1581 H 148.492 -3.42344 -1.66074 0
M  V30 1582 H 148.004 -3.87955 0.106078 0
M  V30 1583 H 146.105 -3.00705 -2.20016 0
M  V30 1584 H 146.218 -4.62792 -1.23938 0
M  V30 1585 H 144.582 -2.43349 -0.751872 0
M  V30 1586 H 145.365 -3.37484 0.629248 0
M  V30 1587 N 147.81 0.181792 -1.56548 0
M  V30 1588 C 148.773 1.20894 -1.94724 0
M  V30 1589 C 149.773 1.37738 -0.829747 0
M  V30 1590 O 150.963 1.35323 -1.09697 0
M  V30 1591 C 148.095 2.57593 -2.23291 0
M  V30 1592 H 149.288 0.882275 -2.86629 0
M  V30 1593 H 146.841 0.423838 -1.50444 0
M  V30 1594 H 147.576 2.95291 -1.34067 0
M  V30 1595 H 147.361 2.46735 -3.04736 0
M  V30 1596 H 148.851 3.31637 -2.53785 0
M  V30 1597 N 149.288 1.51039 0.449983 0
M  V30 1598 C 150.513 1.6715 1.22783 0
M  V30 1599 C 150.938 0.363081 1.84563 0
M  V30 1600 O 150.296 -0.675433 1.68249 0
M  V30 1601 C 150.344 2.77985 2.29689 0
M  V30 1602 O 149.448 2.40707 3.34864 0
M  V30 1603 H 148.789 0.557746 0.360299 0
M  V30 1604 H 151.319 1.97535 0.533005 0
M  V30 1605 H 151.329 3.01693 2.74673 0
M  V30 1606 H 150.004 3.72935 1.84098 0
M  V30 1607 H 148.581 2.27523 2.95445 0
M  V30 1608 N 150.766 -0.704594 1.40972 0
M  V30 1609 C 151.729 -1.80035 1.41845 0
M  V30 1610 C 152.729 -1.57774 0.310474 0
M  V30 1611 O 153.919 -1.64613 0.56992 0
M  V30 1612 C 151.051 -3.18284 1.22098 0
M  V30 1613 H 152.244 -1.80658 2.3938 0
M  V30 1614 H 149.797 -0.911329 1.26982 0
M  V30 1615 H 150.532 -3.23306 0.253672 0
M  V30 1616 H 150.317 -3.35843 2.02366 0
M  V30 1617 H 151.807 -3.98289 1.25522 0
M  V30 1618 N 152.244 -1.26651 -0.937939 0
M  V30 1619 C 153.207 -1.08546 -2.01867 0
M  V30 1620 C 154.207 -0.0327327 -1.60767 0
M  V30 1621 O 155.397 -0.276427 -1.71993 0
M  V30 1622 C 152.529 -0.651711 -3.34613 0
M  V30 1623 H 153.722 -2.04502 -2.1936 0
M  V30 1624 H 151.275 -1.09294 -1.11734 0
M  V30 1625 H 152.01 0.309696 -3.22818 0
M  V30 1626 H 151.795 -1.41189 -3.65798 0
M  V30 1627 H 153.285 -0.546973 -4.14002 0
M  V30 1628 N 153.722 1.14298 -1.08507 0
M  V30 1629 C 154.655 2.18447 -0.660004 0
M  V30 1630 C 155.633 1.59242 0.328749 0
M  V30 1631 O 156.817 1.87062 0.232367 0
M  V30 1632 C 153.944 3.38688 0.0290807 0
M  V30 1633 C 152.99 4.1646 -0.919982 0
M  V30 1634 S 153.823 4.77334 -2.42718 0
M  V30 1635 C 154.979 6.00931 -1.75024 0
M  V30 1636 H 155.212 2.54166 -1.54231 0
M  V30 1637 H 152.745 1.25446 -0.900149 0
M  V30 1638 H 154.703 4.08342 0.420378 0
M  V30 1639 H 153.364 3.01289 0.887895 0
M  V30 1640 H 152.557 5.02529 -0.384751 0
M  V30 1641 H 152.159 3.52414 -1.25223 0
M  V30 1642 H 154.451 6.69017 -1.06877 0
M  V30 1643 H 155.394 6.59044 -2.58971 0
M  V30 1644 H 155.802 5.51089 -1.22317 0
M  V30 1645 N 155.201 0.870884 1.31352 0
M  V30 1646 C 156.447 0.482987 1.96965 0
M  V30 1647 C 156.78 -0.962462 1.68672 0
M  V30 1648 O 156.055 -1.6779 0.98371 0
M  V30 1649 C 156.338 0.741752 3.52378 0
M  V30 1650 C 156.191 2.2368 3.9024 0
M  V30 1651 C 157.51 0.208838 4.39604 0
M  V30 1652 H 154.629 0.176955 0.715441 0
M  V30 1653 H 157.271 1.09229 1.55464 0
M  V30 1654 H 155.421 0.223149 3.87859 0
M  V30 1655 H 157.093 2.82273 3.64856 0
M  V30 1656 H 155.336 2.70901 3.38814 0
M  V30 1657 H 156.007 2.3685 4.98604 0
M  V30 1658 H 158.483 0.652529 4.10952 0
M  V30 1659 H 157.359 0.419336 5.47296 0
M  V30 1660 H 157.62 -0.889275 4.33064 0
M  V30 1661 N 156.679 -1.44442 0.630414 0
M  V30 1662 C 157.642 -2.29107 -0.0652523 0
M  V30 1663 C 158.642 -1.41002 -0.772995 0
M  V30 1664 O 159.832 -1.62881 -0.617692 0
M  V30 1665 C 156.964 -3.22564 -1.10296 0
M  V30 1666 H 158.157 -2.92103 0.679401 0
M  V30 1667 H 155.71 -1.51343 0.390517 0
M  V30 1668 H 156.445 -2.64416 -1.87762 0
M  V30 1669 H 156.23 -3.87491 -0.59941 0
M  V30 1670 H 157.72 -3.86167 -1.5895 0
M  V30 1671 N 158.157 -0.370918 -1.53173 0
M  V30 1672 C 159.12 0.460778 -2.24521 0
M  V30 1673 C 160.12 1.00536 -1.25496 0
M  V30 1674 O 161.31 0.890266 -1.49733 0
M  V30 1675 C 158.442 1.64457 -2.98608 0
M  V30 1676 H 159.635 -0.163613 -2.99453 0
M  V30 1677 H 157.188 -0.122699 -1.55818 0
M  V30 1678 H 157.923 2.30691 -2.2793 0
M  V30 1679 H 157.708 1.26099 -3.7127 0
M  V30 1680 H 159.198 2.23384 -3.5283 0
M  V30 1681 N 159.635 1.57281 -0.100228 0
M  V30 1682 C 161.051 1.57527 0.256416 0
M  V30 1683 C 161.251 1.11173 1.68056 0
M  V30 1684 O 160.307 0.79053 2.39806 0
M  V30 1685 C 161.62 3.00673 0.0401747 0
M  V30 1686 C 163.168 3.12815 0.107528 0
M  V30 1687 C 163.643 4.57929 -0.0807834 0
M  V30 1688 N 165.134 4.63193 -0.0261207 0
M  V30 1689 C 165.869 5.73212 -0.146999 0
M  V30 1690 N 165.365 6.92047 -0.322999 0
M  V30 1691 N 167.158 5.62031 -0.0879044 0
M  V30 1692 H 159.309 1.85718 -1.03065 0
M  V30 1693 H 161.572 0.857446 -0.404339 0
M  V30 1694 H 161.278 3.38804 -0.943649 0
M  V30 1695 H 161.152 3.69042 0.780262 0
M  V30 1696 H 163.539 2.74554 1.08186 0
M  V30 1697 H 163.62 2.47028 -0.664134 0
M  V30 1698 H 163.264 4.96886 -1.05201 0
M  V30 1699 H 163.194 5.21783 0.710635 0
M  V30 1700 H 165.685 3.77748 0.107161 0
M  V30 1701 H 165.998 7.7173 -0.406608 0
M  V30 1702 H 164.343 6.94074 -0.358733 0
M  V30 1703 H 167.534 4.68075 0.048498 0
M  V30 1704 H 167.707 6.47734 -0.185557 0
M  V30 1705 N 161.113 -0.173488 1.56642 0
M  V30 1706 C 162.061 -1.23417 1.97157 0
M  V30 1707 C 163.055 -1.45946 0.860013 0
M  V30 1708 O 164.261 -1.46551 1.04512 0
M  V30 1709 H 160.636 -0.414818 0.62724 0
M  V30 1710 H 162.607 -0.865582 2.8557 0
M  V30 1711 C 161.356 -2.5665 2.34576 0
M  V30 1712 H 160.679 -2.40137 3.19647 0
M  V30 1713 H 162.119 -3.2956 2.6677 0
M  V30 1714 C 160.578 -3.15245 1.18836 0
M  V30 1715 O 161.108 -3.98883 0.474869 0
M  V30 1716 N 159.314 -2.74303 0.959497 0
M  V30 1717 H 158.861 -2.0639 1.54146 0
M  V30 1718 H 158.819 -3.13844 0.186932 0
M  V30 1719 N 162.591 -1.51276 -0.441967 0
M  V30 1720 C 163.554 -1.7167 -1.51862 0
M  V30 1721 C 164.554 -0.586793 -1.49711 0
M  V30 1722 O 165.744 -0.854276 -1.51815 0
M  V30 1723 C 162.876 -1.76889 -2.91416 0
M  V30 1724 H 164.069 -2.67754 -1.35084 0
M  V30 1725 H 161.622 -1.41196 -0.670333 0
M  V30 1726 H 162.357 -0.826026 -3.13604 0
M  V30 1727 H 162.142 -2.59001 -2.94382 0
M  V30 1728 H 163.632 -1.94522 -3.69528 0
M  V30 1729 N 164.069 0.697108 -1.41344 0
M  V30 1730 C 165.017 1.83237 -1.43272 0
M  V30 1731 C 166.011 1.66522 -0.310947 0
M  V30 1732 O 167.217 1.73402 -0.482899 0
M  V30 1733 H 163.592 0.603802 -0.448249 0
M  V30 1734 H 165.563 1.78727 -2.38954 0
M  V30 1735 C 164.312 3.21245 -1.33029 0
M  V30 1736 H 163.635 3.34723 -2.18633 0
M  V30 1737 H 165.075 4.00763 -1.38439 0
M  V30 1738 C 163.534 3.36873 -0.0424635 0
M  V30 1739 O 164.064 3.91177 0.913421 0
M  V30 1740 N 162.27 2.90581 0.0331145 0
M  V30 1741 H 161.817 2.46577 -0.745506 0
M  V30 1742 H 161.775 3.01416 0.894199 0
M  V30 1743 N 165.547 1.27147 0.931209 0
M  V30 1744 C 166.958 1.12044 1.49342 0
M  V30 1745 C 167.309 -0.295795 1.93957 0
M  V30 1746 O 166.434 -1.18835 1.80852 0
M  V30 1747 C 167.029 2.02781 2.71414 0
M  V30 1748 C 165.588 1.91794 3.2387 0
M  V30 1749 C 164.735 1.95543 1.96617 0
M  V30 1750 H 167.686 1.40091 0.745672 0
M  V30 1751 H 167.707 1.58156 3.46074 0
M  V30 1752 H 167.219 3.05848 2.38911 0
M  V30 1753 H 165.32 0.916992 3.6114 0
M  V30 1754 H 165.433 2.77852 3.90302 0
M  V30 1755 H 163.797 1.39722 2.12955 0
M  V30 1756 H 164.58 3.00259 1.66432 0
M  V30 1757 N 167.025 -1.13721 1.09112 0
M  V30 1758 C 168.436 -1.6648 0.845068 0
M  V30 1759 C 168.787 -1.85911 -0.62701 0
M  V30 1760 O 167.912 -1.57556 -1.48341 0
M  V30 1761 C 168.507 -3.02413 1.52748 0
M  V30 1762 C 167.066 -3.52176 1.32849 0
M  V30 1763 C 166.213 -2.27492 1.58564 0
M  V30 1764 H 169.164 -0.976872 1.25072 0
M  V30 1765 H 169.185 -3.68223 0.958752 0
M  V30 1766 H 168.697 -2.88238 2.59885 0
M  V30 1767 H 166.798 -3.7156 0.278137 0
M  V30 1768 H 166.911 -4.32499 2.0611 0
M  V30 1769 H 165.275 -2.33923 1.00758 0
M  V30 1770 H 166.058 -2.15886 2.66924 0
M  V30 1771 N 168.503 -0.877838 -1.30888 0
M  V30 1772 C 169.451 -0.328662 -2.30266 0
M  V30 1773 C 170.445 0.560496 -1.59859 0
M  V30 1774 O 171.651 0.445722 -1.74394 0
M  V30 1775 H 168.026 -0.0876142 -0.746879 0
M  V30 1776 H 169.997 -1.18061 -2.74051 0
M  V30 1777 C 168.746 0.448071 -3.44801 0
M  V30 1778 H 168.069 -0.226859 -3.99156 0
M  V30 1779 H 169.509 0.797541 -4.16432 0
M  V30 1780 C 167.968 1.64239 -2.94155 0
M  V30 1781 O 168.498 2.74175 -2.93583 0
M  V30 1782 N 166.704 1.47716 -2.50256 0
M  V30 1783 H 166.251 0.582821 -2.5092 0
M  V30 1784 H 166.209 2.27765 -2.16727 0
M  V30 1785 N 169.982 1.44106 -0.638065 0
M  V30 1786 C 170.945 2.29138 0.0531013 0
M  V30 1787 C 171.945 1.41409 0.765506 0
M  V30 1788 O 173.135 1.63206 0.609046 0
M  V30 1789 C 170.267 3.23144 1.08584 0
M  V30 1790 H 171.46 2.91739 -0.694883 0
M  V30 1791 H 169.013 1.51134 -0.398538 0
M  V30 1792 H 169.748 2.65408 1.86357 0
M  V30 1793 H 169.533 3.87804 0.578852 0
M  V30 1794 H 171.023 3.87004 1.56899 0
M  V30 1795 N 171.46 0.379036 1.52974 0
M  V30 1796 C 172.37 -0.468639 2.29872 0
M  V30 1797 C 173.386 -1.08067 1.36373 0
M  V30 1798 O 174.562 -1.08871 1.69438 0
M  V30 1799 C 171.627 -1.58594 3.083 0
M  V30 1800 C 170.688 -1.00007 4.17489 0
M  V30 1801 C 169.921 -2.06413 4.92168 0
M  V30 1802 O 170.144 -3.27751 4.66835 0
M  V30 1803 O 169.078 -1.68717 5.7777 0
M  V30 1804 H 172.904 0.157508 3.03291 0
M  V30 1805 H 170.489 0.143035 1.48714 0
M  V30 1806 H 172.371 -2.23525 3.57232 0
M  V30 1807 H 171.046 -2.19724 2.37703 0
M  V30 1808 H 169.953 -0.314299 3.72777 0
M  V30 1809 H 171.286 -0.433135 4.90291 0
M  V30 1810 N 172.938 -1.57226 0.108567 0
M  V30 1811 C 173.868 -2.17778 -0.84232 0
M  V30 1812 C 174.849 -1.11487 -1.2847 0
M  V30 1813 O 176.034 -1.39681 -1.34918 0
M  V30 1814 C 173.164 -2.76888 -2.09644 0
M  V30 1815 C 172.118 -3.88669 -1.79221 0
M  V30 1816 C 171.444 -4.34541 -3.11574 0
M  V30 1817 C 172.744 -5.11251 -1.06864 0
M  V30 1818 H 174.438 -2.97489 -0.337774 0
M  V30 1819 H 171.984 -1.43097 -0.161025 0
M  V30 1820 H 173.937 -3.17904 -2.76614 0
M  V30 1821 H 172.661 -1.94451 -2.62405 0
M  V30 1822 H 171.32 -3.48213 -1.14644 0
M  V30 1823 H 170.968 -3.48977 -3.62249 0
M  V30 1824 H 170.668 -5.09914 -2.91996 0
M  V30 1825 H 172.192 -4.782 -3.7968 0
M  V30 1826 H 173.606 -5.49352 -1.63968 0
M  V30 1827 H 172.003 -5.9214 -0.974178 0
M  V30 1828 H 173.073 -4.8487 -0.0536168 0
M  V30 1829 N 174.416 0.165178 -1.56732 0
M  V30 1830 C 175.644 0.896218 -1.86482 0
M  V30 1831 C 176.059 1.75555 -0.694675 0
M  V30 1832 O 175.416 1.79379 0.33607 0
M  V30 1833 C 175.467 1.76792 -3.1532 0
M  V30 1834 O 175.188 0.943239 -4.27825 0
M  V30 1835 C 176.689 2.6081 -3.58459 0
M  V30 1836 H 173.909 0.260064 -0.618553 0
M  V30 1837 H 176.453 0.163428 -2.03846 0
M  V30 1838 H 174.608 2.45398 -2.99764 0
M  V30 1839 H 175.022 1.53998 -5.01383 0
M  V30 1840 H 176.496 3.17579 -4.51495 0
M  V30 1841 H 176.973 3.35977 -2.82872 0
M  V30 1842 H 177.579 1.97526 -3.76648 0
M  V30 1843 N 175.894 1.51508 0.433938 0
M  V30 1844 C 177.119 1.68443 1.21003 0
M  V30 1845 C 177.544 0.382636 1.84167 0
M  V30 1846 O 176.902 -0.65755 1.68956 0
M  V30 1847 C 176.95 2.80405 2.26727 0
M  V30 1848 O 176.054 2.44245 3.32292 0
M  V30 1849 H 175.395 0.561536 0.354363 0
M  V30 1850 H 177.925 1.9809 0.512024 0
M  V30 1851 H 177.935 3.0459 2.71457 0
M  V30 1852 H 176.61 3.74867 1.80132 0
M  V30 1853 H 175.187 2.30644 2.93015 0
M  V30 1854 N 177.372 -0.689602 1.41712 0
M  V30 1855 C 178.618 -1.45181 1.41599 0
M  V30 1856 C 178.951 -1.94181 0.0270081 0
M  V30 1857 O 178.226 -1.6993 -0.946265 0
M  V30 1858 C 178.509 -2.65945 2.42787 0
M  V30 1859 C 178.362 -2.22672 3.90816 0
M  V30 1860 C 179.681 -3.68149 2.41151 0
M  V30 1861 H 176.8 -0.526576 0.515642 0
M  V30 1862 H 179.442 -0.784947 1.73028 0
M  V30 1863 H 177.592 -3.2284 2.16116 0
M  V30 1864 H 179.264 -1.71058 4.28412 0
M  V30 1865 H 177.507 -1.54394 4.05395 0
M  V30 1866 H 178.178 -3.0935 4.57172 0
M  V30 1867 H 180.654 -3.2094 2.64834 0
M  V30 1868 H 179.53 -4.50248 3.13955 0
M  V30 1869 H 179.791 -4.18259 1.43221 0
M  V30 1870 N 178.85 -1.27639 -0.924453 0
M  V30 1871 C 179.813 -1.10681 -2.00705 0
M  V30 1872 C 180.813 -0.0497823 -1.60723 0
M  V30 1873 O 182.003 -0.294654 -1.7169 0
M  V30 1874 C 179.135 -0.687164 -3.33902 0
M  V30 1875 H 180.328 -2.06817 -2.17179 0
M  V30 1876 H 177.881 -1.10473 -1.10569 0
M  V30 1877 H 178.616 0.275439 -3.23128 0
M  V30 1878 H 178.401 -1.45061 -3.6428 0
M  V30 1879 H 179.891 -0.590853 -4.13399 0
M  V30 1880 N 180.328 1.1314 -1.09713 0
M  V30 1881 C 181.276 2.20717 -0.733934 0
M  V30 1882 C 182.27 1.6729 0.266506 0
M  V30 1883 O 183.476 1.79547 0.127656 0
M  V30 1884 H 179.851 0.719292 -0.21937 0
M  V30 1885 H 181.822 2.48611 -1.6503 0
M  V30 1886 C 180.571 3.47265 -0.173849 0
M  V30 1887 H 179.894 3.88716 -0.934873 0
M  V30 1888 H 181.334 4.23979 0.0423126 0
M  V30 1889 C 179.793 3.18724 1.09164 0
M  V30 1890 O 180.323 3.37762 2.17439 0
M  V30 1891 N 178.529 2.72583 1.00732 0
M  V30 1892 H 178.076 2.57291 0.126121 0
M  V30 1893 H 178.034 2.53862 1.85476 0
M  V30 1894 N 181.806 0.884767 1.30421 0
M  V30 1895 C 183.034 0.518044 2.0031 0
M  V30 1896 C 183.449 -0.893408 1.66324 0
M  V30 1897 O 182.806 -1.5875 0.900262 0
M  V30 1898 C 182.857 0.682997 3.54989 0
M  V30 1899 O 182.578 2.03888 3.87764 0
M  V30 1900 C 184.079 0.31924 4.42149 0
M  V30 1901 H 181.299 0.200265 0.640418 0
M  V30 1902 H 183.843 1.19001 1.6631 0
M  V30 1903 H 181.998 0.0584052 3.87356 0
M  V30 1904 H 182.412 2.05735 4.82466 0
M  V30 1905 H 183.886 0.485555 5.4986 0
M  V30 1906 H 184.363 -0.742717 4.32875 0
M  V30 1907 H 184.969 0.920147 4.15227 0
M  V30 1908 N 183.284 -1.43765 0.645699 0
M  V30 1909 C 184.695 -1.85193 0.236719 0
M  V30 1910 C 185.046 -1.54045 -1.21509 0
M  V30 1911 O 184.171 -0.985694 -1.92647 0
M  V30 1912 C 184.766 -3.36151 0.422845 0
M  V30 1913 C 183.325 -3.76338 0.0682492 0
M  V30 1914 C 182.472 -2.67538 0.729306 0
M  V30 1915 H 185.423 -1.34025 0.849883 0
M  V30 1916 H 185.444 -3.79032 -0.333904 0
M  V30 1917 H 184.956 -3.5879 1.47958 0
M  V30 1918 H 183.057 -3.59312 -0.986179 0
M  V30 1919 H 183.17 -4.76603 0.488469 0
M  V30 1920 H 181.534 -2.54176 0.163235 0
M  V30 1921 H 182.317 -2.93006 1.78892 0
M  V30 1922 N 184.763 -0.387143 -1.52771 0
M  V30 1923 C 185.695 0.484089 -2.2403 0
M  V30 1924 C 186.708 1.02849 -1.26198 0
M  V30 1925 O 187.897 0.931186 -1.52286 0
M  V30 1926 C 184.997 1.68337 -2.94136 0
M  V30 1927 C 184.17 1.26672 -4.18656 0
M  V30 1928 C 183.229 2.33045 -4.7178 0
M  V30 1929 O 182.255 1.94541 -5.34923 0
M  V30 1930 N 183.457 3.64929 -4.5145 0
M  V30 1931 H 186.222 -0.126404 -2.99433 0
M  V30 1932 H 183.783 -0.213392 -1.60488 0
M  V30 1933 H 185.775 2.39019 -3.26577 0
M  V30 1934 H 184.345 2.20025 -2.22053 0
M  V30 1935 H 183.565 0.388878 -3.92277 0
M  V30 1936 H 184.853 0.964964 -4.99566 0
M  V30 1937 H 184.251 3.98974 -4.01044 0
M  V30 1938 H 182.808 4.31651 -4.88386 0
M  V30 1939 N 186.241 1.57166 -0.116904 0
M  V30 1940 C 187.466 1.999 0.55271 0
M  V30 1941 C 187.891 0.996039 1.59564 0
M  V30 1942 O 187.249 -0.032556 1.81271 0
M  V30 1943 C 187.297 3.4152 1.15742 0
M  V30 1944 O 186.401 3.44106 2.27299 0
M  V30 1945 H 185.742 0.649447 0.138258 0
M  V30 1946 H 188.272 2.03573 -0.204759 0
M  V30 1947 H 188.282 3.79684 1.49346 0
M  V30 1948 H 186.957 4.14034 0.393493 0
M  V30 1949 H 185.534 3.17759 1.9515 0
M  V30 1950 N 187.719 -0.156864 1.56817 0
M  V30 1951 C 188.949 -0.885031 1.86684 0
M  V30 1952 C 189.357 -1.75696 0.701954 0
M  V30 1953 O 188.7 -1.80569 -0.337732 0
M  V30 1954 C 188.762 -1.80092 3.11138 0
M  V30 1955 C 188.426 -1.10714 4.43386 0
M  V30 1956 C 189.423 -0.465714 5.1781 0
M  V30 1957 C 187.108 -1.09959 4.90117 0
M  V30 1958 C 189.102 0.174002 6.37162 0
M  V30 1959 C 186.789 -0.456055 6.09396 0
M  V30 1960 C 187.787 0.179622 6.82764 0
M  V30 1961 O 187.475 0.812975 7.99779 0
M  V30 1962 H 187.207 -0.261813 0.623242 0
M  V30 1963 H 189.761 -0.157383 2.04796 0
M  V30 1964 H 187.991 -2.56926 2.89009 0
M  V30 1965 H 189.68 -2.40018 3.27332 0
M  V30 1966 H 190.446 -0.463427 4.82781 0
M  V30 1967 H 186.325 -1.58378 4.3294 0
M  V30 1968 H 189.869 0.670765 6.94368 0
M  V30 1969 H 185.766 -0.455975 6.43888 0
M  V30 1970 H 186.534 0.71366 8.15383 0
M  V30 1971 N 189.197 -1.51736 -0.425897 0
M  V30 1972 C 190.443 -1.66174 -1.17294 0
M  V30 1973 C 190.798 -0.37876 -1.88635 0
M  V30 1974 O 190.091 0.626021 -1.81084 0
M  V30 1975 C 190.285 -2.81103 -2.20717 0
M  V30 1976 C 190.114 -4.20453 -1.59529 0
M  V30 1977 C 188.884 -4.86225 -1.37525 0
M  V30 1978 C 191.082 -5.03146 -1.06528 0
M  V30 1979 N 189.064 -6.09657 -0.720537 0
M  V30 1980 C 190.435 -6.17674 -0.536506 0
M  V30 1981 C 192.49 -4.88594 -0.958127 0
M  V30 1982 C 191.193 -7.19245 0.0888917 0
M  V30 1983 C 193.219 -5.90383 -0.346608 0
M  V30 1984 C 192.581 -7.04191 0.171564 0
M  V30 1985 H 188.68 -0.661871 -0.416475 0
M  V30 1986 H 191.264 -1.88997 -0.467801 0
M  V30 1987 H 189.435 -2.59924 -2.88607 0
M  V30 1988 H 191.167 -2.84662 -2.87663 0
M  V30 1989 H 187.922 -4.44293 -1.64015 0
M  V30 1990 H 188.346 -6.75756 -0.410292 0
M  V30 1991 H 192.988 -4.0085 -1.34459 0
M  V30 1992 H 190.706 -8.06628 0.48746 0
M  V30 1993 H 194.292 -5.81194 -0.265451 0
M  V30 1994 H 193.172 -7.81606 0.637309 0
M  V30 1995 N 190.675 0.682077 -1.42076 0
M  V30 1996 C 191.605 1.80796 -1.47767 0
M  V30 1997 C 192.586 1.6677 -0.334954 0
M  V30 1998 O 193.771 1.863 -0.548264 0
M  V30 1999 C 190.901 3.19038 -1.37229 0
M  V30 2000 C 189.855 3.47789 -2.49453 0
M  V30 2001 C 189.181 4.8553 -2.23975 0
M  V30 2002 C 190.481 3.45411 -3.91776 0
M  V30 2003 H 192.175 1.7629 -2.41997 0
M  V30 2004 H 189.721 0.846721 -1.16476 0
M  V30 2005 H 191.674 3.97528 -1.39821 0
M  V30 2006 H 190.398 3.24204 -0.394907 0
M  V30 2007 H 189.057 2.71657 -2.46166 0
M  V30 2008 H 188.705 4.87337 -1.24547 0
M  V30 2009 H 188.405 5.0573 -2.99184 0
M  V30 2010 H 189.929 5.66312 -2.28304 0
M  V30 2011 H 191.343 4.13882 -3.96705 0
M  V30 2012 H 189.74 3.77145 -4.66778 0
M  V30 2013 H 190.81 2.44122 -4.18966 0
M  V30 2014 N 192.153 1.28127 0.917671 0
M  V30 2015 C 193.43 1.05761 1.64542 0
M  V30 2016 C 193.81 -0.404344 2.07191 0
M  V30 2017 O 193.158 -1.38963 1.81388 0
M  V30 2018 C 193.368 2.02857 2.83989 0
M  V30 2019 C 194.716 2.32786 3.551 0
M  V30 2020 O 195.74 2.0091 2.94132 0
M  V30 2021 O 194.599 2.87169 4.64969 0
M  V30 2022 H 191.693 0.403916 0.721652 0
M  V30 2023 H 194.239 1.39431 0.967322 0
M  V30 2024 H 193.011 3.01407 2.49538 0
M  V30 2025 H 192.634 1.69809 3.59514 0
M  V30 2026 N 193.631 -1.12557 1.10312 0
M  V30 2027 C 194.563 -2.17971 0.708625 0
M  V30 2028 C 195.576 -1.60806 -0.254027 0
M  V30 2029 O 196.765 -1.78458 -0.0386891 0
M  V30 2030 C 193.865 -3.38891 0.0248198 0
M  V30 2031 C 193.038 -4.25548 1.01132 0
M  V30 2032 C 192.097 -5.24972 0.35924 0
M  V30 2033 O 191.123 -5.60174 1.00965 0
M  V30 2034 N 192.325 -5.73747 -0.882847 0
M  V30 2035 H 195.09 -2.52427 1.61557 0
M  V30 2036 H 192.651 -1.27967 0.991771 0
M  V30 2037 H 194.643 -4.02485 -0.422852 0
M  V30 2038 H 193.213 -3.02596 -0.784514 0
M  V30 2039 H 192.433 -3.58589 1.6373 0
M  V30 2040 H 193.721 -4.80294 1.67914 0
M  V30 2041 H 193.119 -5.4731 -1.43065 0
M  V30 2042 H 191.676 -6.39234 -1.27369 0
M  V30 2043 N 195.109 -0.891671 -1.2995 0
M  V30 2044 C 196.072 -0.36828 -2.26222 0
M  V30 2045 C 197.072 0.493014 -1.53056 0
M  V30 2046 O 198.262 0.299213 -1.71611 0
M  V30 2047 C 195.394 0.47442 -3.37583 0
M  V30 2048 H 196.587 -1.21844 -2.74033 0
M  V30 2049 H 194.14 -0.669107 -1.41254 0
M  V30 2050 H 194.875 1.34489 -2.95099 0
M  V30 2051 H 194.66 -0.142615 -3.91841 0
M  V30 2052 H 196.15 0.83218 -4.09224 0
M  V30 2053 N 196.587 1.43421 -0.653314 0
M  V30 2054 C 197.834 2.01812 -0.166745 0
M  V30 2055 C 198.162 1.51535 1.21931 0
M  V30 2056 O 197.417 0.698975 1.82792 0
M  V30 2057 C 197.716 3.57176 -0.126623 0
M  V30 2058 C 197.382 4.26798 -1.45444 0
M  V30 2059 C 196.044 4.45534 -1.81805 0
M  V30 2060 C 198.396 4.66225 -2.32989 0
M  V30 2061 C 195.724 5.00961 -3.05377 0
M  V30 2062 C 198.076 5.23021 -3.55853 0
M  V30 2063 C 196.74 5.39973 -3.9241 0
M  V30 2064 H 196.01 0.738484 -0.0610162 0
M  V30 2065 H 198.657 1.71896 -0.84404 0
M  V30 2066 H 196.962 3.86634 0.634123 0
M  V30 2067 H 198.659 4.00112 0.266723 0
M  V30 2068 H 195.249 4.12561 -1.16153 0
M  V30 2069 H 199.433 4.51443 -2.06187 0
M  V30 2070 H 194.689 5.12271 -3.3375 0
M  V30 2071 H 198.863 5.52518 -4.23907 0
M  V30 2072 H 196.49 5.82687 -4.88242 0
M  V30 2073 N 198.065 0.39524 1.52563 0
M  V30 2074 C 199.476 -0.0774719 1.86539 0
M  V30 2075 C 199.827 -1.45641 1.31466 0
M  V30 2076 O 198.952 -2.06459 0.648367 0
M  V30 2077 C 199.547 -0.147356 3.38479 0
M  V30 2078 C 198.106 -0.564373 3.72145 0
M  V30 2079 C 197.253 0.269919 2.75983 0
M  V30 2080 H 200.204 0.612876 1.46388 0
M  V30 2081 H 200.225 -0.965343 3.68051 0
M  V30 2082 H 199.737 0.856387 3.78534 0
M  V30 2083 H 197.838 -1.57527 3.37663 0
M  V30 2084 H 197.951 -0.318402 4.78041 0
M  V30 2085 H 196.315 -0.265696 2.5331 0
M  V30 2086 H 197.098 1.27175 3.18875 0
M  V30 2087 N 199.544 -1.57102 0.125237 0
M  V30 2088 C 200.955 -1.82384 -0.399142 0
M  V30 2089 C 201.306 -1.04276 -1.66195 0
M  V30 2090 O 200.431 -0.281269 -2.14564 0
M  V30 2091 C 201.026 -3.30821 -0.730932 0
M  V30 2092 C 199.585 -3.56762 -1.19992 0
M  V30 2093 C 198.732 -2.7649 -0.211792 0
M  V30 2094 H 201.683 -1.54786 0.350277 0
M  V30 2095 H 201.704 -3.4579 -1.58775 0
M  V30 2096 H 201.216 -3.87643 0.188345 0
M  V30 2097 H 199.317 -3.05305 -2.13588 0
M  V30 2098 H 199.43 -4.65317 -1.14093 0
M  V30 2099 H 197.794 -2.4489 -0.700085 0
M  V30 2100 H 198.577 -3.36073 0.700691 0
M  V30 2101 N 201.022 0.148545 -1.56898 0
M  V30 2102 C 201.985 1.16736 -1.97244 0
M  V30 2103 C 202.985 1.35947 -0.858777 0
M  V30 2104 O 204.175 1.32966 -1.12542 0
M  V30 2105 C 201.307 2.52798 -2.28705 0
M  V30 2106 H 202.5 0.821279 -2.88435 0
M  V30 2107 H 200.053 0.391831 -1.51309 0
M  V30 2108 H 200.788 2.92381 -1.403 0
M  V30 2109 H 200.573 2.40216 -3.09901 0
M  V30 2110 H 202.063 3.26179 -2.60762 0
M  V30 2111 N 202.5 1.5196 0.417844 0
M  V30 2112 C 203.728 1.69426 1.18753 0
M  V30 2113 C 204.143 0.399955 1.84515 0
M  V30 2114 O 203.5 -0.623288 1.71527 0
M  V30 2115 C 203.551 2.82375 2.25714 0
M  V30 2116 O 203.272 4.06793 1.62638 0
M  V30 2117 C 204.773 3.11277 3.15628 0
M  V30 2118 H 201.993 0.568031 0.357186 0
M  V30 2119 H 204.537 1.98475 0.49273 0
M  V30 2120 H 202.692 2.5587 2.90877 0
M  V30 2121 H 203.106 4.69667 2.3348 0
M  V30 2122 H 204.58 3.93843 3.86771 0
M  V30 2123 H 205.057 2.24473 3.77503 0
M  V30 2124 H 205.663 3.39515 2.56144 0
M  V30 2125 N 203.978 -0.674533 1.42435 0
M  V30 2126 C 205.224 -1.43671 1.43131 0
M  V30 2127 C 205.557 -1.94142 0.0476021 0
M  V30 2128 O 204.832 -1.70924 -0.928188 0
M  V30 2129 C 205.115 -2.63355 2.45594 0
M  V30 2130 C 204.968 -2.18514 3.93156 0
M  V30 2131 C 206.287 -3.65571 2.45043 0
M  V30 2132 H 203.406 -0.521077 0.521198 0
M  V30 2133 H 206.048 -0.766551 1.7385 0
M  V30 2134 H 204.198 -3.2053 2.19528 0
M  V30 2135 H 205.87 -1.66504 4.30202 0
M  V30 2136 H 204.113 -1.50086 4.07009 0
M  V30 2137 H 204.784 -3.04484 4.60428 0
M  V30 2138 H 207.26 -3.18113 2.68223 0
M  V30 2139 H 206.136 -4.46893 3.18713 0
M  V30 2140 H 206.397 -4.16716 1.47649 0
M  V30 2141 N 205.456 -1.28612 -0.910864 0
M  V30 2142 C 206.704 -1.15705 -1.65701 0
M  V30 2143 C 207.025 0.29416 -1.92769 0
M  V30 2144 O 206.295 1.20331 -1.54588 0
M  V30 2145 H 204.875 -0.425216 -0.614167 0
M  V30 2146 H 207.537 -1.61381 -1.0928 0
M  V30 2147 H 206.633 -1.6988 -2.61815 0
M  V30 2148 N 206.934 1.1197 -1.10907 0
M  V30 2149 C 208.182 1.83225 -0.852819 0
M  V30 2150 C 208.503 1.84769 0.623341 0
M  V30 2151 O 207.773 1.3143 1.45269 0
M  V30 2152 H 206.353 0.67849 -0.312507 0
M  V30 2153 H 209.015 1.3556 -1.40033 0
M  V30 2154 H 208.111 2.87265 -1.22005 0
M  V30 2155 N 208.412 0.89855 1.29475 0
M  V30 2156 C 209.64 0.539261 1.99749 0
M  V30 2157 C 210.055 -0.875716 1.67262 0
M  V30 2158 O 209.412 -1.57786 0.917049 0
M  V30 2159 C 209.463 0.72061 3.54245 0
M  V30 2160 O 209.184 2.07989 3.8558 0
M  V30 2161 C 210.685 0.366118 4.41786 0
M  V30 2162 H 207.905 0.207047 0.638258 0
M  V30 2163 H 210.449 1.20758 1.65039 0
M  V30 2164 H 208.604 0.0994862 3.87272 0
M  V30 2165 H 209.018 2.10841 4.80257 0
M  V30 2166 H 210.492 0.543848 5.49314 0
M  V30 2167 H 210.969 -0.696763 4.33638 0
M  V30 2168 H 211.575 0.964135 4.14228 0
M  V30 2169 N 209.89 -1.43072 0.660911 0
M  V30 2170 C 211.136 -2.0202 0.177708 0
M  V30 2171 C 211.469 -1.52066 -1.20787 0
M  V30 2172 O 210.744 -0.716987 -1.80802 0
M  V30 2173 C 211.027 -3.59561 0.197019 0
M  V30 2174 C 210.88 -4.19727 1.61706 0
M  V30 2175 C 212.199 -4.37664 -0.462396 0
M  V30 2176 H 209.318 -0.734034 0.0660494 0
M  V30 2177 H 211.96 -1.70272 0.843058 0
M  V30 2178 H 210.11 -3.86739 -0.369527 0
M  V30 2179 H 211.782 -4.03553 2.23479 0
M  V30 2180 H 210.025 -3.76084 2.16201 0
M  V30 2181 H 210.696 -5.28834 1.58237 0
M  V30 2182 H 213.172 -4.16095 0.0197215 0
M  V30 2183 H 212.048 -5.47305 -0.418188 0
M  V30 2184 H 212.309 -4.14493 -1.53778 0
M  V30 2185 N 211.368 -0.403325 -1.52352 0
M  V30 2186 C 212.331 0.413051 -2.25447 0
M  V30 2187 C 213.331 0.978513 -1.276 0
M  V30 2188 O 214.521 0.858305 -1.51587 0
M  V30 2189 C 211.653 1.58087 -3.02029 0
M  V30 2190 H 212.846 -0.227094 -2.99039 0
M  V30 2191 H 210.399 -0.155722 -1.55522 0
M  V30 2192 H 211.134 2.25804 -2.32772 0
M  V30 2193 H 210.919 1.18195 -3.73861 0
M  V30 2194 H 212.409 2.1585 -3.57489 0
M  V30 2195 N 212.846 1.57033 -0.133567 0
M  V30 2196 C 214.262 1.58035 0.222944 0
M  V30 2197 C 214.462 1.14713 1.6566 0
M  V30 2198 O 213.518 0.841218 2.38075 0
M  V30 2199 C 214.831 3.00691 -0.0236116 0
M  V30 2200 C 216.379 3.12973 0.0411512 0
M  V30 2201 C 216.854 4.57654 -0.177899 0
M  V30 2202 N 218.345 4.63033 -0.124365 0
M  V30 2203 C 219.08 5.72771 -0.268553 0
M  V30 2204 N 218.576 6.91206 -0.46972 0
M  V30 2205 N 220.369 5.61718 -0.2071 0
M  V30 2206 H 212.52 1.8349 -1.06981 0
M  V30 2207 H 214.783 0.848677 -0.422436 0
M  V30 2208 H 214.489 3.36726 -1.0153 0
M  V30 2209 H 214.363 3.70614 0.701808 0
M  V30 2210 H 216.75 2.76787 1.02338 0
M  V30 2211 H 216.831 2.45564 -0.716383 0
M  V30 2212 H 216.475 4.94542 -1.15717 0
M  V30 2213 H 216.405 5.23173 0.599797 0
M  V30 2214 H 218.896 3.7789 0.027011 0
M  V30 2215 H 219.209 7.70693 -0.570212 0
M  V30 2216 H 217.554 6.93156 -0.505876 0
M  V30 2217 H 220.745 4.68072 -0.0507986 0
M  V30 2218 H 220.918 6.47195 -0.322909 0
M  V30 2219 N 214.325 -0.140222 1.56975 0
M  V30 2220 C 215.555 -0.865181 1.87612 0
M  V30 2221 C 215.963 -1.74942 0.72055 0
M  V30 2222 O 215.306 -1.80917 -0.318561 0
M  V30 2223 C 215.368 -1.76782 3.13031 0
M  V30 2224 C 215.032 -1.06005 4.44536 0
M  V30 2225 C 216.029 -0.410768 5.18275 0
M  V30 2226 C 213.714 -1.04754 4.91255 0
M  V30 2227 C 215.708 0.241572 6.36942 0
M  V30 2228 C 213.395 -0.391394 6.09845 0
M  V30 2229 C 214.393 0.252029 6.82535 0
M  V30 2230 O 214.081 0.897757 7.98871 0
M  V30 2231 H 213.813 -0.255188 0.625983 0
M  V30 2232 H 216.367 -0.135653 2.04952 0
M  V30 2233 H 214.597 -2.53846 2.91718 0
M  V30 2234 H 216.286 -2.36533 3.29859 0
M  V30 2235 H 217.052 -0.412195 4.83245 0
M  V30 2236 H 212.931 -1.53777 4.34596 0
M  V30 2237 H 216.475 0.744375 6.93617 0
M  V30 2238 H 212.372 -0.387656 6.44335 0
M  V30 2239 H 213.14 0.800102 8.1458 0
M  V30 2240 N 215.803 -1.52179 -0.40978 0
M  V30 2241 C 217.031 -1.70054 -1.17853 0
M  V30 2242 C 217.446 -0.409735 -1.843 0
M  V30 2243 O 216.803 0.614183 -1.71855 0
M  V30 2244 C 216.854 -2.83568 -2.24213 0
M  V30 2245 O 216.575 -4.0765 -1.60478 0
M  V30 2246 C 218.076 -3.12947 -3.13973 0
M  V30 2247 H 215.296 -0.569917 -0.354169 0
M  V30 2248 H 217.84 -1.98734 -0.482198 0
M  V30 2249 H 215.995 -2.57409 -2.89516 0
M  V30 2250 H 216.409 -4.70899 -2.30986 0
M  V30 2251 H 217.883 -3.95889 -3.84677 0
M  V30 2252 H 218.36 -2.26472 -3.76307 0
M  V30 2253 H 218.966 -3.40868 -2.5434 0
M  V30 2254 N 217.281 0.66697 -1.42791 0
M  V30 2255 C 218.529 1.42417 -1.43394 0
M  V30 2256 C 218.85 1.94925 -0.0542373 0
M  V30 2257 O 218.12 1.73564 0.908415 0
M  V30 2258 H 216.7 0.528515 -0.527902 0
M  V30 2259 H 219.362 0.787562 -1.78279 0
M  V30 2260 H 218.458 2.27333 -2.13837 0
M  V30 2261 N 218.759 1.29093 0.90403 0
M  V30 2262 C 219.722 1.1386 1.98919 0
M  V30 2263 C 220.722 0.0753457 1.60623 0
M  V30 2264 O 221.912 0.321931 1.71199 0
M  V30 2265 C 219.044 0.740198 3.32767 0
M  V30 2266 H 220.237 2.10246 2.13861 0
M  V30 2267 H 217.79 1.12218 1.08797 0
M  V30 2268 H 218.525 -0.223997 3.23525 0
M  V30 2269 H 218.31 1.50838 3.61926 0
M  V30 2270 H 219.8 0.656546 4.12407 0
M  V30 2271 N 220.237 -1.11381 1.11499 0
M  V30 2272 C 221.2 -2.15622 0.777153 0
M  V30 2273 C 222.2 -1.59504 -0.203779 0
M  V30 2274 O 223.39 -1.74188 0.020782 0
M  V30 2275 C 220.522 -3.40556 0.153116 0
M  V30 2276 H 221.715 -2.47021 1.70061 0
M  V30 2277 H 219.268 -1.26577 0.916952 0
M  V30 2278 H 220.003 -3.14767 -0.780536 0
M  V30 2279 H 219.788 -3.8257 0.859238 0
M  V30 2280 H 221.278 -4.17546 -0.0671044 0
M  V30 2281 N 221.715 -0.905404 -1.28997 0
M  V30 2282 C 222.647 -0.344748 -2.26592 0
M  V30 2283 C 223.66 0.512135 -1.54535 0
M  V30 2284 O 224.849 0.328368 -1.75454 0
M  V30 2285 C 221.949 0.526587 -3.34784 0
M  V30 2286 C 221.122 -0.305871 -4.36329 0
M  V30 2287 C 220.181 0.499209 -5.23827 0
M  V30 2288 O 219.207 -0.0853004 -5.69136 0
M  V30 2289 N 220.409 1.80408 -5.51755 0
M  V30 2290 H 223.174 -1.18359 -2.75338 0
M  V30 2291 H 220.735 -0.770481 -1.42391 0
M  V30 2292 H 222.727 1.07171 -3.90252 0
M  V30 2293 H 221.297 1.26613 -2.85811 0
M  V30 2294 H 220.517 -1.0324 -3.80441 0
M  V30 2295 H 221.805 -0.875773 -5.01206 0
M  V30 2296 H 221.203 2.3016 -5.16762 0
M  V30 2297 H 219.76 2.29621 -6.10014 0
M  V30 2298 N 223.193 1.4272 -0.668489 0
M  V30 2299 C 224.156 2.292 0.00448567 0
M  V30 2300 C 225.156 1.43001 0.735339 0
M  V30 2301 O 226.346 1.64461 0.57429 0
M  V30 2302 C 223.478 3.25375 1.01705 0
M  V30 2303 H 224.671 2.90199 -0.756608 0
M  V30 2304 H 222.224 1.50254 -0.430506 0
M  V30 2305 H 222.959 2.69301 1.80686 0
M  V30 2306 H 222.744 3.88944 0.496463 0
M  V30 2307 H 224.234 3.90245 1.48655 0
M  V30 2308 N 224.671 0.411399 1.52136 0
M  V30 2309 C 225.634 -0.401089 2.25663 0
M  V30 2310 C 226.634 -0.971732 1.28117 0
M  V30 2311 O 227.824 -0.850254 1.52041 0
M  V30 2312 C 224.956 -1.56483 3.02863 0
M  V30 2313 H 226.149 0.24295 2.98914 0
M  V30 2314 H 223.702 0.163968 1.55438 0
M  V30 2315 H 224.437 -2.24567 2.33967 0
M  V30 2316 H 224.222 -1.16211 3.74483 0
M  V30 2317 H 225.712 -2.13951 3.58629 0
M  V30 2318 N 226.149 -1.5696 0.141893 0
M  V30 2319 C 227.397 -1.95573 -0.509484 0
M  V30 2320 C 227.718 -1.02746 -1.65736 0
M  V30 2321 O 226.988 -0.0880311 -1.95702 0
M  V30 2322 H 225.568 -0.722115 -0.191205 0
M  V30 2323 H 228.23 -1.93697 0.216196 0
M  V30 2324 H 227.326 -2.99171 -0.889 0
M  V30 2325 N 227.627 0.131896 -1.57047 0
M  V30 2326 C 228.59 1.14638 -1.98471 0
M  V30 2327 C 229.59 1.35029 -0.873148 0
M  V30 2328 O 230.78 1.31764 -1.13946 0
M  V30 2329 C 227.912 2.50358 -2.31373 0
M  V30 2330 H 229.105 0.79064 -2.8929 0
M  V30 2331 H 226.658 0.375761 -1.51716 0
M  V30 2332 H 227.393 2.90876 -1.43393 0
M  V30 2333 H 227.178 2.36915 -3.12432 0
M  V30 2334 H 228.668 3.23395 -2.64207 0
M  V30 2335 N 229.106 1.52395 0.401703 0
M  V30 2336 C 230.039 1.70999 1.51111 0
M  V30 2337 C 231.017 0.55765 1.52738 0
M  V30 2338 O 232.201 0.785912 1.71335 0
M  V30 2339 C 229.328 1.75607 2.8962 0
M  V30 2340 C 228.374 2.97227 3.05873 0
M  V30 2341 S 229.207 4.57439 2.78405 0
M  V30 2342 C 230.363 4.64844 4.19131 0
M  V30 2343 H 230.596 2.6483 1.35102 0
M  V30 2344 H 228.129 1.42527 0.593762 0
M  V30 2345 H 230.087 1.78947 3.69443 0
M  V30 2346 H 228.748 0.828914 3.02965 0
M  V30 2347 H 227.941 2.96955 4.07227 0
M  V30 2348 H 227.543 2.91813 2.33925 0
M  V30 2349 H 229.835 4.42677 5.12877 0
M  V30 2350 H 230.778 5.66807 4.24424 0
M  V30 2351 H 231.186 3.93804 4.04448 0
M  V30 2352 N 230.584 -0.659388 1.43143 0
M  V30 2353 C 231.995 -1.24041 1.39537 0
M  V30 2354 C 232.346 -1.95963 0.0963364 0
M  V30 2355 O 231.471 -2.00892 -0.804438 0
M  V30 2356 C 232.066 -2.25601 2.52764 0
M  V30 2357 C 230.625 -2.79195 2.52443 0
M  V30 2358 C 229.772 -1.53743 2.30778 0
M  V30 2359 H 232.723 -0.451792 1.52133 0
M  V30 2360 H 232.744 -3.07651 2.23899 0
M  V30 2361 H 232.256 -1.73226 3.47296 0
M  V30 2362 H 230.357 -3.35649 1.61773 0
M  V30 2363 H 230.47 -3.2716 3.50004 0
M  V30 2364 H 228.834 -1.80869 1.79328 0
M  V30 2365 H 229.617 -1.03312 3.27386 0
M  V30 2366 N 232.062 -1.29571 -0.897171 0
M  V30 2367 C 233.308 -1.17863 -1.65034 0
M  V30 2368 C 233.641 0.268729 -1.92332 0
M  V30 2369 O 232.916 1.19378 -1.53555 0
M  V30 2370 C 233.199 -1.995 -2.99786 0
M  V30 2371 C 233.052 -3.5239 -2.79538 0
M  V30 2372 C 234.371 -1.82335 -4.00552 0
M  V30 2373 H 231.49 -0.429528 -0.598895 0
M  V30 2374 H 234.132 -1.59072 -1.03905 0
M  V30 2375 H 232.282 -1.64485 -3.51962 0
M  V30 2376 H 233.954 -3.97401 -2.34244 0
M  V30 2377 H 232.197 -3.77187 -2.14273 0
M  V30 2378 H 232.868 -4.04787 -3.75302 0
M  V30 2379 H 235.344 -2.12924 -3.57495 0
M  V30 2380 H 234.22 -2.41801 -4.92771 0
M  V30 2381 H 234.481 -0.779209 -4.35179 0
M  V30 2382 N 233.54 1.10788 -1.12088 0
M  V30 2383 C 234.47 2.19083 -0.807755 0
M  V30 2384 C 235.451 1.6858 0.226859 0
M  V30 2385 O 236.636 1.93997 0.0888475 0
M  V30 2386 C 233.766 3.46344 -0.257576 0
M  V30 2387 C 232.72 4.101 -1.22483 0
M  V30 2388 C 232.046 5.32016 -0.535052 0
M  V30 2389 C 233.346 4.54236 -2.57811 0
M  V30 2390 H 235.04 2.45534 -1.71328 0
M  V30 2391 H 232.586 1.1801 -0.825205 0
M  V30 2392 H 234.539 4.21392 -0.0262679 0
M  V30 2393 H 233.263 3.19373 0.683278 0
M  V30 2394 H 231.922 3.37054 -1.44189 0
M  V30 2395 H 231.57 5.01319 0.410827 0
M  V30 2396 H 231.27 5.75625 -1.18024 0
M  V30 2397 H 232.794 6.09799 -0.312695 0
M  V30 2398 H 234.208 5.20575 -2.40155 0
M  V30 2399 H 232.605 5.08682 -3.18375 0
M  V30 2400 H 233.675 3.6734 -3.16528 0
M  V30 2401 N 235.018 0.912232 1.28515 0
M  V30 2402 C 236.246 0.560416 1.99166 0
M  V30 2403 C 236.661 -0.857927 1.68182 0
M  V30 2404 O 236.018 -1.56805 0.933733 0
M  V30 2405 C 236.069 0.758142 3.53461 0
M  V30 2406 O 235.79 2.12067 3.83352 0
M  V30 2407 C 237.291 0.412954 4.41372 0
M  V30 2408 H 234.511 0.213805 0.636026 0
M  V30 2409 H 237.055 1.22502 1.63749 0
M  V30 2410 H 235.21 0.140556 3.87145 0
M  V30 2411 H 235.624 2.15923 4.77993 0
M  V30 2412 H 237.098 0.60208 5.48707 0
M  V30 2413 H 237.575 -0.65073 4.34353 0
M  V30 2414 H 238.181 1.00802 4.13182 0
M  V30 2415 N 236.496 -1.42363 0.676048 0
M  V30 2416 C 237.426 -2.33497 0.0124832 0
M  V30 2417 C 238.407 -1.50748 -0.787981 0
M  V30 2418 O 239.592 -1.79346 -0.744884 0
M  V30 2419 C 236.722 -3.34377 -0.938582 0
M  V30 2420 C 235.676 -4.27289 -0.246622 0
M  V30 2421 C 235.002 -5.18386 -1.31071 0
M  V30 2422 C 236.302 -5.14916 0.875125 0
M  V30 2423 H 237.996 -2.89233 0.773593 0
M  V30 2424 H 235.542 -1.39073 0.37346 0
M  V30 2425 H 237.495 -3.97044 -1.41188 0
M  V30 2426 H 236.219 -2.76947 -1.73113 0
M  V30 2427 H 234.878 -3.66018 0.206456 0
M  V30 2428 H 234.526 -4.57282 -2.09528 0
M  V30 2429 H 234.226 -5.81378 -0.852839 0
M  V30 2430 H 235.75 -5.83929 -1.78492 0
M  V30 2431 H 237.164 -5.71262 0.482983 0
M  V30 2432 H 235.561 -5.86747 1.25887 0
M  V30 2433 H 236.631 -4.53242 1.72335 0
M  V30 2434 N 237.974 -0.419461 -1.51915 0
M  V30 2435 C 239.204 0.151915 -2.06041 0
M  V30 2436 C 239.612 1.38539 -1.28855 0
M  V30 2437 O 238.955 1.80592 -0.336463 0
M  V30 2438 C 239.017 0.557119 -3.55157 0
M  V30 2439 C 238.681 -0.567054 -4.53468 0
M  V30 2440 C 239.678 -1.43379 -4.99738 0
M  V30 2441 C 237.363 -0.742693 -4.96779 0
M  V30 2442 C 239.357 -2.46102 -5.87973 0
M  V30 2443 C 237.044 -1.77322 -5.84808 0
M  V30 2444 C 238.042 -2.63078 -6.30301 0
M  V30 2445 O 237.73 -3.64364 -7.16585 0
M  V30 2446 H 237.462 0.0193293 -0.675724 0
M  V30 2447 H 240.016 -0.592073 -1.96682 0
M  V30 2448 H 238.246 1.35355 -3.62238 0
M  V30 2449 H 239.935 1.05759 -3.9188 0
M  V30 2450 H 240.701 -1.30954 -4.66986 0
M  V30 2451 H 236.58 -0.0848307 -4.60922 0
M  V30 2452 H 240.124 -3.13071 -6.23404 0
M  V30 2453 H 236.021 -1.89773 -6.16974 0
M  V30 2454 H 236.789 -3.60731 -7.34721 0
M  V30 2455 N 239.452 1.56882 -0.150215 0
M  V30 2456 C 240.7 1.9584 0.499105 0
M  V30 2457 C 241.021 1.03623 1.65188 0
M  V30 2458 O 240.291 0.0984084 1.95653 0
M  V30 2459 H 238.871 0.723119 0.187373 0
M  V30 2460 H 241.533 1.9358 -0.226466 0
M  V30 2461 H 240.629 2.99638 0.873122 0
M  V30 2462 N 240.93 -0.123565 1.57115 0
M  V30 2463 C 242.179 -0.830704 1.83799 0
M  V30 2464 C 242.492 -1.81259 0.735158 0
M  V30 2465 O 243.698 -2.56558 0.888278 0
M  V30 2466 C 242.154 -1.52802 3.25852 0
M  V30 2467 C 241.762 -0.587356 4.44133 0
M  V30 2468 C 243.506 -2.22056 3.61789 0
M  V30 2469 C 241.413 -1.28764 5.77212 0
M  V30 2470 H 240.343 -0.313967 0.685522 0
M  V30 2471 H 242.994 -0.0834359 1.8331 0
M  V30 2472 H 241.376 -2.32175 3.20797 0
M  V30 2473 H 242.55 0.172829 4.60476 0
M  V30 2474 H 240.865 -0.00201892 4.164 0
M  V30 2475 H 243.462 -2.75131 4.58483 0
M  V30 2476 H 243.805 -2.99644 2.88997 0
M  V30 2477 H 244.338 -1.49576 3.68608 0
M  V30 2478 H 241.077 -0.55314 6.53162 0
M  V30 2479 H 240.597 -2.01995 5.64764 0
M  V30 2480 H 242.276 -1.8221 6.20813 0
M  V30 2481 N 242.408 -1.52605 -0.393616 0
M  V30 2482 C 243.819 -1.59417 -0.971761 0
M  V30 2483 C 244.17 -0.444173 -1.91106 0
M  V30 2484 O 243.295 0.433382 -2.12016 0
M  V30 2485 C 243.89 -2.88936 -1.76921 0
M  V30 2486 C 242.449 -2.98175 -2.29714 0
M  V30 2487 C 241.596 -2.54491 -1.10135 0
M  V30 2488 H 244.547 -1.57751 -0.173317 0
M  V30 2489 H 244.568 -2.75163 -2.62804 0
M  V30 2490 H 244.08 -3.72616 -1.08532 0
M  V30 2491 H 242.181 -2.19024 -3.01429 0
M  V30 2492 H 242.294 -4.02726 -2.59517 0
M  V30 2493 H 240.658 -2.08702 -1.45999 0
M  V30 2494 H 241.441 -3.4056 -0.432874 0
M  V30 2495 N 243.887 0.651787 -1.4349 0
M  V30 2496 C 244.837 1.75783 -1.45205 0
M  V30 2497 C 245.821 1.57679 -0.320328 0
M  V30 2498 O 247.013 1.67767 -0.564211 0
M  V30 2499 C 244.142 3.14377 -1.3792 0
M  V30 2500 C 243.228 3.38023 -2.56127 0
M  V30 2501 N 243.619 3.32135 -3.81471 0
M  V30 2502 C 241.917 3.68747 -2.50882 0
M  V30 2503 C 242.618 3.55902 -4.60118 0
M  V30 2504 N 241.594 3.77783 -3.90872 0
M  V30 2505 H 245.396 1.69657 -2.39987 0
M  V30 2506 H 242.91 0.853508 -1.38163 0
M  V30 2507 H 244.907 3.93666 -1.37231 0
M  V30 2508 H 243.567 3.21683 -0.441596 0
M  V30 2509 H 244.578 3.11515 -4.13738 0
M  V30 2510 H 241.255 3.8316 -1.65816 0
M  V30 2511 H 242.645 3.57116 -5.69138 0
M  V30 2512 N 245.365 1.30045 0.890287 0
M  V30 2513 C 246.781 1.08261 1.17268 0
M  V30 2514 C 246.981 -0.160063 2.00863 0
M  V30 2515 O 246.037 -0.855181 2.37577 0
M  V30 2516 C 247.35 2.34323 1.8845 0
M  V30 2517 C 248.898 2.39735 2.01237 0
M  V30 2518 C 249.373 3.65625 2.7583 0
M  V30 2519 N 250.864 3.66402 2.83379 0
M  V30 2520 C 251.599 4.60498 3.41657 0
M  V30 2521 N 251.095 5.64933 4.01026 0
M  V30 2522 N 252.888 4.48051 3.39421 0
M  V30 2523 H 245.039 2.09777 0.332762 0
M  V30 2524 H 247.302 0.92446 0.209948 0
M  V30 2525 H 247.008 3.2498 1.34465 0
M  V30 2526 H 246.882 2.4256 2.88867 0
M  V30 2527 H 249.269 1.4956 2.54393 0
M  V30 2528 H 249.35 2.35476 0.999232 0
M  V30 2529 H 248.994 4.56156 2.23347 0
M  V30 2530 H 248.924 3.67144 3.77509 0
M  V30 2531 H 251.415 2.90896 2.41222 0
M  V30 2532 H 251.728 6.32841 4.43545 0
M  V30 2533 H 250.073 5.68732 3.99461 0
M  V30 2534 H 253.264 3.65649 2.92264 0
M  V30 2535 H 253.437 5.21565 3.84544 0
M  V30 2536 N 246.843 -1.10192 1.12674 0
M  V30 2537 C 248.12 -1.78717 0.794965 0
M  V30 2538 C 248.5 -1.98628 -0.714853 0
M  V30 2539 O 247.848 -1.58135 -1.64941 0
M  V30 2540 C 248.058 -3.11546 1.5729 0
M  V30 2541 C 249.406 -3.86382 1.76052 0
M  V30 2542 O 250.43 -3.21274 1.53823 0
M  V30 2543 O 249.289 -5.03246 2.13087 0
M  V30 2544 H 246.383 -0.774702 0.289423 0
M  V30 2545 H 248.929 -1.16819 1.23091 0
M  V30 2546 H 247.701 -2.92489 2.59935 0
M  V30 2547 H 247.324 -3.81164 1.13137 0
M  V30 2548 N 248.321 -0.919034 -1.28029 0
M  V30 2549 C 249.561 -0.562107 -1.96519 0
M  V30 2550 C 249.925 0.878784 -1.70708 0
M  V30 2551 O 251.126 1.34355 -2.32813 0
M  V30 2552 C 249.397 -0.868953 -3.46676 0
M  V30 2553 S 250.956 -0.619237 -4.34409 0
M  V30 2554 H 247.774 -0.2078 -0.679956 0
M  V30 2555 H 250.376 -1.18562 -1.55446 0
M  V30 2556 H 249.08 -1.91547 -3.62957 0
M  V30 2557 H 248.611 -0.234301 -3.92702 0
M  V30 2558 H 250.626 0.526995 -4.93394 0
M  V30 2559 N 249.799 1.42003 -0.683588 0
M  V30 2560 C 251.047 2.01015 -0.209101 0
M  V30 2561 C 251.368 1.54365 1.19149 0
M  V30 2562 O 250.638 0.769083 1.80172 0
M  V30 2563 H 249.218 0.743294 -0.074315 0
M  V30 2564 H 251.88 1.73798 -0.882066 0
M  V30 2565 H 250.976 3.11343 -0.2172 0
M  V30 2566 N 251.277 0.427512 1.51691 0
M  V30 2567 C 252.502 -0.143601 2.06902 0
M  V30 2568 C 252.927 -1.36536 1.29382 0
M  V30 2569 O 252.285 -1.78289 0.329043 0
M  V30 2570 C 252.333 -0.454207 3.57728 0
M  V30 2571 O 251.437 -1.54228 3.82475 0
M  V30 2572 H 250.778 -0.00617128 0.663971 0
M  V30 2573 H 253.308 0.606014 1.95419 0
M  V30 2574 H 253.318 -0.707525 4.01818 0
M  V30 2575 H 251.993 0.438812 4.13579 0
M  V30 2576 H 250.57 -1.2797 3.50254 0
M  V30 2577 N 252.755 -1.56801 0.158532 0
M  V30 2578 C 253.985 -2.00568 -0.495583 0
M  V30 2579 C 254.393 -1.03774 -1.58201 0
M  V30 2580 O 253.736 -0.0285797 -1.83678 0
M  V30 2581 C 253.798 -3.40768 -1.14532 0
M  V30 2582 C 253.462 -4.56553 -0.202101 0
M  V30 2583 C 254.459 -5.16714 0.574675 0
M  V30 2584 C 252.144 -5.02197 -0.101648 0
M  V30 2585 C 254.138 -6.20939 1.43924 0
M  V30 2586 C 251.825 -6.06274 0.766508 0
M  V30 2587 C 252.823 -6.65515 1.53555 0
M  V30 2588 O 252.511 -7.67575 2.38922 0
M  V30 2589 H 252.243 -0.662893 -0.13247 0
M  V30 2590 H 254.797 -2.03829 0.253559 0
M  V30 2591 H 253.027 -3.34381 -1.94233 0
M  V30 2592 H 254.716 -3.6857 -1.70033 0
M  V30 2593 H 255.482 -4.82341 0.507167 0
M  V30 2594 H 251.361 -4.55807 -0.689994 0
M  V30 2595 H 254.905 -6.67107 2.03996 0
M  V30 2596 H 250.802 -6.40073 0.835266 0
M  V30 2597 H 251.57 -7.84844 2.32296 0
M  V30 2598 N 254.233 0.115231 -1.57178 0
M  V30 2599 C 255.196 1.12526 -1.99676 0
M  V30 2600 C 256.196 1.34095 -0.88742 0
M  V30 2601 O 257.386 1.30548 -1.15337 0
M  V30 2602 C 254.518 2.4789 -2.34015 0
M  V30 2603 H 255.711 0.759912 -2.90113 0
M  V30 2604 H 253.264 0.359648 -1.52106 0
M  V30 2605 H 253.999 2.89339 -1.4647 0
M  V30 2606 H 253.784 2.33588 -3.14927 0
M  V30 2607 H 255.274 3.20575 -2.67622 0
M  V30 2608 N 255.711 1.52812 0.385517 0
M  V30 2609 C 256.936 1.72207 1.15583 0
M  V30 2610 C 257.361 0.441034 1.82857 0
M  V30 2611 O 256.719 -0.603465 1.70962 0
M  V30 2612 C 256.767 2.87476 2.17692 0
M  V30 2613 O 255.871 2.54693 3.24354 0
M  V30 2614 H 255.212 0.572526 0.336319 0
M  V30 2615 H 257.742 1.99618 0.448744 0
M  V30 2616 H 257.752 3.13072 2.6163 0
M  V30 2617 H 256.427 3.80408 1.68115 0
M  V30 2618 H 255.004 2.3985 2.85529 0
M  V30 2619 N 257.189 -0.644168 1.43834 0
M  V30 2620 C 258.437 -1.40117 1.45642 0
M  V30 2621 C 258.758 -1.94814 0.0852413 0
M  V30 2622 O 258.028 -1.74988 -0.880688 0
M  V30 2623 H 256.608 -0.52005 0.536243 0
M  V30 2624 H 259.27 -0.7591 1.7951 0
M  V30 2625 H 258.366 -2.23902 2.17427 0
M  V30 2626 N 258.668 -1.30515 -0.883378 0
M  V30 2627 C 259.916 -1.19194 -1.63209 0
M  V30 2628 C 260.237 0.253205 -1.93349 0
M  V30 2629 O 259.507 1.17025 -1.57105 0
M  V30 2630 H 258.087 -0.438148 -0.605009 0
M  V30 2631 H 260.749 -1.63663 -1.05832 0
M  V30 2632 H 259.845 -1.75396 -2.58153 0
M  V30 2633 N 260.146 1.09593 -1.13257 0
M  V30 2634 C 261.393 1.81734 -0.893257 0
M  V30 2635 C 261.721 1.8563 0.580656 0
M  V30 2636 O 260.976 1.31906 1.44566 0
M  V30 2637 C 261.275 3.27802 -1.42411 0
M  V30 2638 C 260.941 3.44041 -2.91456 0
M  V30 2639 C 259.603 3.48181 -3.3215 0
M  V30 2640 C 261.955 3.48719 -3.87356 0
M  V30 2641 C 259.283 3.54575 -4.67433 0
M  V30 2642 C 261.635 3.56648 -5.2248 0
M  V30 2643 C 260.299 3.59055 -5.62704 0
M  V30 2644 H 259.569 0.665011 -0.326866 0
M  V30 2645 H 262.216 1.2912 -1.41422 0
M  V30 2646 H 260.521 3.83042 -0.823795 0
M  V30 2647 H 262.218 3.82149 -1.21503 0
M  V30 2648 H 258.808 3.41502 -2.58987 0
M  V30 2649 H 262.992 3.44763 -3.57004 0
M  V30 2650 H 258.248 3.54725 -4.97976 0
M  V30 2651 H 262.422 3.59212 -5.96607 0
M  V30 2652 H 260.049 3.63763 -6.67518 0
M  V30 2653 N 261.624 0.925811 1.2754 0
M  V30 2654 C 262.587 0.428129 2.25166 0
M  V30 2655 C 263.587 -0.452261 1.54309 0
M  V30 2656 O 264.777 -0.253608 1.72344 0
M  V30 2657 C 261.909 -0.384749 3.38722 0
M  V30 2658 H 263.102 1.29066 2.70706 0
M  V30 2659 H 260.655 0.706323 1.3943 0
M  V30 2660 H 261.39 -1.26618 2.98561 0
M  V30 2661 H 261.175 0.246454 3.91325 0
M  V30 2662 H 262.665 -0.723389 4.11287 0
M  V30 2663 N 263.102 -1.41638 0.69111 0
M  V30 2664 C 264.33 -2.05628 0.22909 0
M  V30 2665 C 264.745 -1.51992 -1.11999 0
M  V30 2666 O 264.102 -0.666322 -1.69901 0
M  V30 2667 C 264.153 -3.61084 0.173283 0
M  V30 2668 O 263.874 -4.12735 1.46907 0
M  V30 2669 C 265.375 -4.42213 -0.310266 0
M  V30 2670 H 262.595 -0.662327 0.107534 0
M  V30 2671 H 265.139 -1.81489 0.942438 0
M  V30 2672 H 263.294 -3.84278 -0.490858 0
M  V30 2673 H 263.708 -5.06743 1.35322 0
M  V30 2674 H 265.182 -5.51194 -0.298196 0
M  V30 2675 H 265.659 -4.1799 -1.34838 0
M  V30 2676 H 266.265 -4.24074 0.322716 0
M  V30 2677 N 264.58 -0.43555 -1.51462 0
M  V30 2678 C 265.828 0.131254 -2.01673 0
M  V30 2679 C 266.149 1.43368 -1.32177 0
M  V30 2680 O 265.419 1.90524 -0.455769 0
M  V30 2681 H 263.999 0.0514954 -0.745223 0
M  V30 2682 H 266.661 -0.577847 -1.86137 0
M  V30 2683 H 265.757 0.308446 -3.10572 0
M  V30 2684 N 266.058 1.56714 -0.166846 0
M  V30 2685 C 267.286 2.0112 0.485644 0
M  V30 2686 C 267.701 1.04705 1.57106 0
M  V30 2687 O 267.058 0.0471923 1.82439 0
M  V30 2688 C 267.109 3.45361 1.06808 0
M  V30 2689 O 266.83 4.38092 0.0259995 0
M  V30 2690 C 268.331 4.05145 1.79924 0
M  V30 2691 H 265.551 0.65931 0.124704 0
M  V30 2692 H 268.095 2.02746 -0.267262 0
M  V30 2693 H 266.25 3.44524 1.7715 0
M  V30 2694 H 266.664 5.22519 0.455398 0
M  V30 2695 H 268.138 5.08009 2.15942 0
M  V30 2696 H 268.615 3.46982 2.69258 0
M  V30 2697 H 269.221 4.09672 1.14234 0
M  V30 2698 N 267.536 -0.106894 1.57237 0
M  V30 2699 C 268.813 -0.843526 1.76477 0
M  V30 2700 C 269.193 -1.97499 0.745464 0
M  V30 2701 O 268.541 -2.27357 -0.228306 0
M  V30 2702 C 268.751 -1.34903 3.21873 0
M  V30 2703 C 270.099 -1.79654 3.8472 0
M  V30 2704 O 271.123 -1.44554 3.2555 0
M  V30 2705 O 269.982 -2.44515 4.88748 0
M  V30 2706 H 267.076 -0.401468 0.723016 0
M  V30 2707 H 269.622 -0.0896927 1.69463 0
M  V30 2708 H 268.394 -0.53781 3.87586 0
M  V30 2709 H 268.017 -2.16522 3.33473 0
M  V30 2710 N 269.014 -1.53014 -0.377408 0
M  V30 2711 C 270.244 -1.72265 -1.14054 0
M  V30 2712 C 270.652 -0.44601 -1.83868 0
M  V30 2713 O 269.995 0.590095 -1.73964 0
M  V30 2714 C 270.057 -2.82492 -2.22348 0
M  V30 2715 C 269.721 -4.23233 -1.72402 0
M  V30 2716 C 270.718 -5.05992 -1.19448 0
M  V30 2717 C 268.403 -4.696 -1.78273 0
M  V30 2718 C 270.397 -6.33203 -0.730268 0
M  V30 2719 C 268.084 -5.96792 -1.31464 0
M  V30 2720 C 269.082 -6.78424 -0.789297 0
M  V30 2721 O 268.77 -8.0323 -0.328077 0
M  V30 2722 H 268.502 -0.579873 -0.347453 0
M  V30 2723 H 271.056 -2.00502 -0.445882 0
M  V30 2724 H 269.286 -2.49702 -2.95272 0
M  V30 2725 H 270.975 -2.90034 -2.83963 0
M  V30 2726 H 271.741 -4.71349 -1.14259 0
M  V30 2727 H 267.62 -4.06142 -2.18106 0
M  V30 2728 H 271.164 -6.96868 -0.319542 0
M  V30 2729 H 267.061 -6.30937 -1.36342 0
M  V30 2730 H 267.829 -8.1727 -0.448493 0
M  V30 2731 N 270.492 0.636531 -1.44174 0
M  V30 2732 C 271.908 0.954104 -1.27941 0
M  V30 2733 C 272.108 2.0039 -0.211248 0
M  V30 2734 O 271.164 2.49236 0.404695 0
M  V30 2735 C 272.477 1.4225 -2.64925 0
M  V30 2736 C 274.025 1.53827 -2.72592 0
M  V30 2737 C 274.5 2.04053 -4.10032 0
M  V30 2738 N 275.991 2.11331 -4.12182 0
M  V30 2739 C 276.726 2.51352 -5.15374 0
M  V30 2740 N 276.222 2.90549 -6.2893 0
M  V30 2741 N 278.015 2.51438 -5.02728 0
M  V30 2742 H 270.166 -0.0578386 -2.12321 0
M  V30 2743 H 272.429 0.0367406 -0.947288 0
M  V30 2744 H 272.135 0.725466 -3.44136 0
M  V30 2745 H 272.009 2.39451 -2.9145 0
M  V30 2746 H 274.396 2.22628 -1.93702 0
M  V30 2747 H 274.477 0.550154 -2.49814 0
M  V30 2748 H 274.121 1.35848 -4.89395 0
M  V30 2749 H 274.051 3.03726 -4.30184 0
M  V30 2750 H 276.542 1.83745 -3.30222 0
M  V30 2751 H 276.855 3.19884 -7.03487 0
M  V30 2752 H 275.2 2.88313 -6.32377 0
M  V30 2753 H 278.391 2.20203 -4.13072 0
M  V30 2754 H 278.564 2.82304 -5.83274 0
M  V30 2755 N 271.97 1.30982 0.876444 0
M  V30 2756 C 273.218 1.20058 1.62575 0
M  V30 2757 C 273.539 -0.242947 1.93481 0
M  V30 2758 O 272.809 -1.1619 1.57724 0
M  V30 2759 H 271.389 0.44135 0.602677 0
M  V30 2760 H 274.051 1.64222 1.04962 0
M  V30 2761 H 273.147 1.76762 2.57219 0
M  V30 2762 N 273.449 -1.08991 1.13837 0
M  V30 2763 C 274.695 -1.81699 0.91417 0
M  V30 2764 C 275.05 -1.84264 -0.553594 0
M  V30 2765 O 274.343 -1.30313 -1.4046 0
M  V30 2766 C 274.537 -3.27042 1.44147 0
M  V30 2767 C 274.366 -3.38637 2.95897 0
M  V30 2768 C 273.136 -3.50177 3.64286 0
M  V30 2769 C 275.334 -3.30791 3.93804 0
M  V30 2770 N 273.316 -3.50501 5.04006 0
M  V30 2771 C 274.687 -3.38037 5.19741 0
M  V30 2772 C 276.742 -3.14488 3.86007 0
M  V30 2773 C 275.445 -3.30659 6.38793 0
M  V30 2774 C 277.471 -3.08438 5.04599 0
M  V30 2775 C 276.833 -3.1628 6.29402 0
M  V30 2776 H 272.932 -0.678967 0.387979 0
M  V30 2777 H 275.516 -1.30224 1.4474 0
M  V30 2778 H 273.687 -3.76976 0.935091 0
M  V30 2779 H 275.419 -3.87785 1.1578 0
M  V30 2780 H 272.174 -3.53815 3.1482 0
M  V30 2781 H 272.598 -3.54236 5.76928 0
M  V30 2782 H 277.24 -3.07291 2.90399 0
M  V30 2783 H 274.958 -3.36618 7.34652 0
M  V30 2784 H 278.544 -2.96952 5.0031 0
M  V30 2785 H 277.424 -3.1162 7.19627 0
M  V30 2786 N 274.927 -0.932562 -1.27047 0
M  V30 2787 C 276.176 -0.571351 -1.93439 0
M  V30 2788 C 276.489 0.892467 -1.74053 0
M  V30 2789 O 277.695 1.36267 -2.34826 0
M  V30 2790 C 276.151 -0.97106 -3.46552 0
M  V30 2791 C 275.759 -2.4559 -3.74686 0
M  V30 2792 C 277.503 -0.681333 -4.18997 0
M  V30 2793 C 275.41 -2.79475 -5.21198 0
M  V30 2794 H 274.34 -0.209966 -0.724176 0
M  V30 2795 H 276.991 -1.13403 -1.44263 0
M  V30 2796 H 275.373 -0.336983 -3.94564 0
M  V30 2797 H 276.547 -3.13829 -3.37414 0
M  V30 2798 H 274.862 -2.71802 -3.15456 0
M  V30 2799 H 277.459 -0.910939 -5.26883 0
M  V30 2800 H 277.802 0.381628 -4.14547 0
M  V30 2801 H 278.335 -1.27473 -3.76823 0
M  V30 2802 H 275.074 -3.847 -5.30741 0
M  V30 2803 H 274.594 -2.1589 -5.596 0
M  V30 2804 H 276.273 -2.67478 -5.89122 0
M  V30 2805 N 276.405 1.4127 -0.698611 0
M  V30 2806 C 277.682 1.94955 -0.158762 0
M  V30 2807 C 278.062 1.63781 1.33188 0
M  V30 2808 O 277.41 0.946423 2.07979 0
M  V30 2809 C 277.62 3.46044 -0.453309 0
M  V30 2810 C 278.968 4.22872 -0.382707 0
M  V30 2811 O 279.992 3.54076 -0.388396 0
M  V30 2812 O 278.851 5.45407 -0.345463 0
M  V30 2813 H 275.945 0.82683 -0.0167505 0
M  V30 2814 H 278.491 1.50971 -0.77498 0
M  V30 2815 H 277.263 3.62028 -1.48498 0
M  V30 2816 H 276.886 3.97128 0.19373 0
M  V30 2817 N 277.883 0.443576 1.51229 0
M  V30 2818 C 278.846 -0.353132 2.26463 0
M  V30 2819 C 279.846 -0.944338 1.3015 0
M  V30 2820 O 281.036 -0.817813 1.5381 0
M  V30 2821 C 278.168 -1.50023 3.06114 0
M  V30 2822 H 279.361 0.3063 2.98332 0
M  V30 2823 H 276.914 0.196902 1.55055 0
M  V30 2824 H 277.649 -2.19553 2.38677 0
M  V30 2825 H 277.434 -1.08241 3.76864 0
M  V30 2826 H 278.924 -2.06296 3.63087 0
M  V30 2827 N 279.361 -1.56624 0.175154 0
M  V30 2828 C 280.607 -1.9729 -0.469506 0
M  V30 2829 C 280.94 -1.06128 -1.62636 0
M  V30 2830 O 280.215 -0.109183 -1.94193 0
M  V30 2831 C 280.498 -3.47375 -0.948804 0
M  V30 2832 C 280.351 -4.49317 0.208491 0
M  V30 2833 C 281.67 -4.00652 -1.82116 0
M  V30 2834 H 278.789 -0.717317 -0.16919 0
M  V30 2835 H 281.431 -1.88184 0.262062 0
M  V30 2836 H 279.581 -3.55267 -1.57219 0
M  V30 2837 H 281.253 -4.53482 0.845682 0
M  V30 2838 H 279.496 -4.25121 0.863395 0
M  V30 2839 H 280.167 -5.51741 -0.169059 0
M  V30 2840 H 282.643 -3.95416 -1.2956 0
M  V30 2841 H 281.519 -5.06075 -2.12554 0
M  V30 2842 H 281.78 -3.44699 -2.7683 0
M  V30 2843 N 280.839 0.0985539 -1.57292 0
M  V30 2844 C 281.802 1.10402 -2.00858 0
M  V30 2845 C 282.802 1.33146 -0.901593 0
M  V30 2846 O 283.992 1.29318 -1.16716 0
M  V30 2847 C 281.124 2.45394 -2.36632 0
M  V30 2848 H 282.317 0.729099 -2.90902 0
M  V30 2849 H 279.87 0.343495 -1.52479 0
M  V30 2850 H 280.605 2.87769 -1.49531 0
M  V30 2851 H 280.39 2.30235 -3.17387 0
M  V30 2852 H 281.88 3.17718 -2.71007 0
M  V30 2853 N 282.317 1.53212 0.369288 0
M  V30 2854 C 283.542 1.73423 1.1375 0
M  V30 2855 C 283.967 0.460404 1.82378 0
M  V30 2856 O 283.325 -0.585298 1.71592 0
M  V30 2857 C 283.373 2.89769 2.1463 0
M  V30 2858 O 282.477 2.58119 3.21634 0
M  V30 2859 H 281.818 0.576061 0.330227 0
M  V30 2860 H 284.348 2.00083 0.427547 0
M  V30 2861 H 284.358 3.15829 2.58294 0
M  V30 2862 H 283.033 3.8217 1.64071 0
M  V30 2863 H 281.61 2.42864 2.82969 0
M  V30 2864 N 283.795 -0.628877 1.44509 0
M  V30 2865 C 285.043 -1.38565 1.4712 0
M  V30 2866 C 285.364 -1.94712 0.105899 0
M  V30 2867 O 284.634 -1.75912 -0.862079 0
M  V30 2868 H 283.214 -0.514333 0.541729 0
M  V30 2869 H 285.876 -0.740018 1.80305 0
M  V30 2870 H 284.972 -2.21583 2.19789 0
M  V30 2871 N 285.273 -1.31445 -0.869486 0
M  V30 2872 C 286.203 -1.21727 -1.99261 0
M  V30 2873 C 287.184 -0.104359 -1.6978 0
M  V30 2874 O 288.369 -0.289038 -1.92037 0
M  V30 2875 C 285.499 -0.924317 -3.34774 0
M  V30 2876 C 284.453 -1.99685 -3.78563 0
M  V30 2877 C 283.779 -1.55658 -5.11541 0
M  V30 2878 C 285.079 -3.41003 -3.95619 0
M  V30 2879 H 286.773 -2.1569 -2.07649 0
M  V30 2880 H 284.319 -1.03839 -0.997675 0
M  V30 2881 H 286.272 -0.842934 -4.12883 0
M  V30 2882 H 284.996 0.0509793 -3.2656 0
M  V30 2883 H 283.655 -2.06813 -3.02694 0
M  V30 2884 H 283.303 -0.569132 -4.9977 0
M  V30 2885 H 283.003 -2.27409 -5.41811 0
M  V30 2886 H 284.527 -1.48928 -5.92159 0
M  V30 2887 H 285.941 -3.36547 -4.64122 0
M  V30 2888 H 284.338 -4.10975 -4.37286 0
M  V30 2889 H 285.408 -3.81754 -2.98985 0
M  V30 2890 N 286.751 1.08385 -1.14413 0
M  V30 2891 C 287.999 1.80419 -0.910679 0
M  V30 2892 C 288.32 1.86658 0.564243 0
M  V30 2893 O 287.59 1.35985 1.41014 0
M  V30 2894 H 286.17 0.668204 -0.333934 0
M  V30 2895 H 288.832 1.31037 -1.44275 0
M  V30 2896 H 287.928 2.83238 -1.31082 0
M  V30 2897 N 288.23 0.939286 1.26551 0
M  V30 2898 C 289.455 0.602008 1.98471 0
M  V30 2899 C 289.88 -0.815624 1.69497 0
M  V30 2900 O 289.238 -1.54912 0.941905 0
M  V30 2901 C 289.286 0.848407 3.50477 0
M  V30 2902 O 288.39 -0.0804009 4.12322 0
M  V30 2903 H 287.731 0.23049 0.622712 0
M  V30 2904 H 290.261 1.2617 1.61066 0
M  V30 2905 H 290.271 0.768553 4.00696 0
M  V30 2906 H 288.946 1.88171 3.70897 0
M  V30 2907 H 287.523 0.0503508 3.72866 0
M  V30 2908 N 289.708 -1.40897 0.706093 0
M  V30 2909 C 290.933 -2.05895 0.249435 0
M  V30 2910 C 291.358 -1.52823 -1.09666 0
M  V30 2911 O 290.716 -0.659589 -1.68876 0
M  V30 2912 C 290.764 -3.59872 0.22904 0
M  V30 2913 O 289.868 -4.04708 -0.792784 0
M  V30 2914 H 289.209 -0.653206 0.119241 0
M  V30 2915 H 291.739 -1.80471 0.96391 0
M  V30 2916 H 291.749 -4.07951 0.0634791 0
M  V30 2917 H 290.424 -3.97866 1.21141 0
M  V30 2918 H 289.001 -3.68111 -0.59572 0
M  V30 2919 N 291.186 -0.45159 -1.50991 0
M  V30 2920 C 292.597 0.00818571 -1.86698 0
M  V30 2921 C 292.948 1.40661 -1.3678 0
M  V30 2922 O 292.073 2.0391 -0.724546 0
M  V30 2923 C 292.668 0.0216303 -3.38793 0
M  V30 2924 C 291.227 0.425865 -3.73983 0
M  V30 2925 C 290.374 -0.372163 -2.74791 0
M  V30 2926 H 293.325 -0.666785 -1.44013 0
M  V30 2927 H 293.346 0.828078 -3.7138 0
M  V30 2928 H 292.858 -0.996288 -3.75094 0
M  V30 2929 H 290.959 1.44886 -3.43277 0
M  V30 2930 H 291.072 0.140761 -4.78893 0
M  V30 2931 H 289.436 0.171498 -2.54122 0
M  V30 2932 H 290.219 -1.38922 -3.13935 0
M  V30 2933 N 292.664 1.56529 -0.183458 0
M  V30 2934 C 293.627 2.17324 0.728223 0
M  V30 2935 C 294.627 1.12453 1.14939 0
M  V30 2936 O 295.817 1.37902 1.06437 0
M  V30 2937 C 292.949 2.76591 1.99274 0
M  V30 2938 H 294.142 2.99241 0.198772 0
M  V30 2939 H 291.695 1.5616 0.0661391 0
M  V30 2940 H 292.43 1.98441 2.56499 0
M  V30 2941 H 292.215 3.5335 1.69959 0
M  V30 2942 H 293.705 3.23311 2.6431 0
M  V30 2943 N 294.142 -0.090211 1.57342 0
M  V30 2944 C 295.37 -0.806224 1.90546 0
M  V30 2945 C 295.785 -1.72041 0.777644 0
M  V30 2946 O 295.142 -1.80778 -0.250103 0
M  V30 2947 C 295.193 -1.61546 3.23396 0
M  V30 2948 O 294.914 -0.738043 4.31839 0
M  V30 2949 C 296.415 -2.4341 3.70495 0
M  V30 2950 H 293.635 -0.230256 0.630257 0
M  V30 2951 H 296.179 -0.0659843 2.04394 0
M  V30 2952 H 294.334 -2.30816 3.11131 0
M  V30 2953 H 294.748 -1.29901 5.08159 0
M  V30 2954 H 296.222 -2.95676 4.66133 0
M  V30 2955 H 296.699 -3.22098 2.98579 0
M  V30 2956 H 297.305 -1.79331 3.85643 0
M  V30 2957 N 295.62 -1.53406 -0.361157 0
M  V30 2958 C 296.869 -1.69022 -1.10066 0
M  V30 2959 C 297.182 -0.450838 -1.90333 0
M  V30 2960 O 298.388 -0.487617 -2.67085 0
M  V30 2961 C 296.844 -2.98812 -2.00598 0
M  V30 2962 C 296.452 -4.30027 -1.25621 0
M  V30 2963 C 298.196 -3.23795 -2.74513 0
M  V30 2964 C 296.103 -5.50903 -2.1508 0
M  V30 2965 H 295.033 -0.629776 -0.414606 0
M  V30 2966 H 297.684 -1.79907 -0.361348 0
M  V30 2967 H 296.066 -2.8174 -2.78278 0
M  V30 2968 H 297.24 -4.57745 -0.529739 0
M  V30 2969 H 295.555 -4.11522 -0.635496 0
M  V30 2970 H 298.152 -4.11289 -3.41681 0
M  V30 2971 H 298.495 -2.40045 -3.40123 0
M  V30 2972 H 299.028 -3.41561 -2.03914 0
M  V30 2973 H 295.767 -6.37143 -1.54041 0
M  V30 2974 H 295.287 -5.27459 -2.85565 0
M  V30 2975 H 296.966 -5.85865 -2.74538 0
M  V30 2976 N 297.098 0.621204 -1.44841 0
M  V30 2977 C 298.347 1.37658 -1.47422 0
M  V30 2978 C 298.66 1.95264 -0.114629 0
M  V30 2979 O 299.866 2.71494 -0.0180199 0
M  V30 2980 C 298.322 2.49285 -2.59586 0
M  V30 2981 C 297.93 1.98149 -4.01797 0
M  V30 2982 C 299.674 3.26409 -2.71399 0
M  V30 2983 C 297.581 3.07178 -5.05367 0
M  V30 2984 H 296.511 0.517344 -0.548517 0
M  V30 2985 H 299.162 0.667257 -1.70938 0
M  V30 2986 H 297.544 3.22839 -2.29328 0
M  V30 2987 H 298.718 1.31395 -4.41669 0
M  V30 2988 H 297.033 1.33812 -3.94314 0
M  V30 2989 H 299.63 4.07706 -3.45948 0
M  V30 2990 H 299.973 3.76535 -1.77559 0
M  V30 2991 H 300.506 2.5995 -3.01116 0
M  V30 2992 H 297.245 2.61985 -6.00869 0
M  V30 2993 H 296.765 3.72542 -4.70077 0
M  V30 2994 H 298.444 3.71789 -5.29511 0
M  V30 2995 N 298.576 1.31904 0.862503 0
M  V30 2996 C 299.822 1.22197 1.61851 0
M  V30 2997 C 300.155 -0.217641 1.92977 0
M  V30 2998 O 299.43 -1.15264 1.56666 0
M  V30 2999 C 299.713 2.07378 2.94391 0
M  V30 3000 C 299.566 3.59678 2.70096 0
M  V30 3001 C 300.885 1.92891 3.95577 0
M  V30 3002 H 298.004 0.445255 0.587296 0
M  V30 3003 H 300.646 1.6177 0.99651 0
M  V30 3004 H 298.796 1.73758 3.47477 0
M  V30 3005 H 300.468 4.03472 2.23625 0
M  V30 3006 H 298.711 3.82735 2.04197 0
M  V30 3007 H 299.382 4.14595 3.64438 0
M  V30 3008 H 301.858 2.22327 3.51724 0
M  V30 3009 H 300.734 2.54781 4.86187 0
M  V30 3010 H 300.995 0.894315 4.3296 0
M  V30 3011 N 300.054 -1.07777 1.14986 0
M  V30 3012 C 300.964 -2.18404 0.856546 0
M  V30 3013 C 301.98 -1.73211 -0.165485 0
M  V30 3014 O 303.156 -2.01399 0.00755219 0
M  V30 3015 C 300.221 -3.44977 0.34526 0
M  V30 3016 C 299.282 -4.0476 1.43065 0
M  V30 3017 C 298.515 -5.25291 0.943663 0
M  V30 3018 O 298.738 -5.70004 -0.212426 0
M  V30 3019 O 297.672 -5.76638 1.72547 0
M  V30 3020 H 301.498 -2.45978 1.78125 0
M  V30 3021 H 299.083 -1.17033 0.928631 0
M  V30 3022 H 300.965 -4.21348 0.0663671 0
M  V30 3023 H 299.64 -3.18965 -0.551631 0
M  V30 3024 H 298.547 -3.29949 1.76309 0
M  V30 3025 H 299.88 -4.35035 2.30229 0
M  V30 3026 N 301.532 -0.945985 -1.26051 0
M  V30 3027 C 302.943 -0.638096 -1.75457 0
M  V30 3028 C 303.294 0.846672 -1.76991 0
M  V30 3029 O 302.419 1.66262 -1.38513 0
M  V30 3030 C 303.014 -1.15157 -3.18629 0
M  V30 3031 C 301.573 -0.894004 -3.65629 0
M  V30 3032 C 300.72 -1.29967 -2.44957 0
M  V30 3033 H 303.671 -1.12376 -1.1206 0
M  V30 3034 H 303.692 -0.507615 -3.77099 0
M  V30 3035 H 303.204 -2.23222 -3.1748 0
M  V30 3036 H 301.305 0.172057 -3.72203 0
M  V30 3037 H 301.418 -1.52439 -4.54202 0
M  V30 3038 H 299.782 -0.718078 -2.44368 0
M  V30 3039 H 300.565 -2.38935 -2.46505 0
M  V30 3040 N 303.011 1.40521 -0.713556 0
M  V30 3041 C 304.288 1.94775 -0.17943 0
M  V30 3042 C 304.668 1.65184 1.31444 0
M  V30 3043 O 304.016 0.968429 2.06963 0
M  V30 3044 C 304.226 3.45543 -0.489986 0
M  V30 3045 C 305.574 4.22442 -0.427536 0
M  V30 3046 O 306.598 3.53644 -0.425929 0
M  V30 3047 O 305.457 5.4501 -0.403292 0
M  V30 3048 H 302.551 0.826606 -0.0255192 0
M  V30 3049 H 305.097 1.5014 -0.790949 0
M  V30 3050 H 303.869 3.60432 -1.5233 0
M  V30 3051 H 303.492 3.97311 0.151598 0
M  V30 3052 N 304.489 0.459591 1.5075 0
M  V30 3053 C 305.452 -0.329093 2.26825 0
M  V30 3054 C 306.452 -0.930481 1.31144 0
M  V30 3055 O 307.642 -0.801453 1.54669 0
M  V30 3056 C 304.774 -1.46768 3.07688 0
M  V30 3057 H 305.967 0.337924 2.9799 0
M  V30 3058 H 303.52 0.213336 1.54837 0
M  V30 3059 H 304.255 -2.17009 2.40993 0
M  V30 3060 H 304.04 -1.04238 3.77991 0
M  V30 3061 H 305.53 -2.02433 3.65254 0
M  V30 3062 N 305.967 -1.56429 0.191757 0
M  V30 3063 C 306.897 -2.21937 -0.725696 0
M  V30 3064 C 307.878 -1.1814 -1.2238 0
M  V30 3065 O 309.063 -1.46636 -1.27325 0
M  V30 3066 C 306.193 -2.87611 -1.94672 0
M  V30 3067 C 305.147 -3.97623 -1.58366 0
M  V30 3068 C 304.473 -4.50446 -2.88102 0
M  V30 3069 C 305.773 -5.16197 -0.796133 0
M  V30 3070 H 307.467 -2.98861 -0.179606 0
M  V30 3071 H 305.013 -1.43749 -0.0849464 0
M  V30 3072 H 306.966 -3.3212 -2.59373 0
M  V30 3073 H 305.69 -2.08087 -2.51728 0
M  V30 3074 H 304.349 -3.53801 -0.960247 0
M  V30 3075 H 303.997 -3.67688 -3.43241 0
M  V30 3076 H 303.697 -5.24675 -2.64556 0
M  V30 3077 H 305.221 -4.97654 -3.53798 0
M  V30 3078 H 306.635 -5.57271 -1.34618 0
M  V30 3079 H 305.032 -5.96471 -0.658928 0
M  V30 3080 H 306.102 -4.84473 0.203478 0
M  V30 3081 N 307.445 0.0818655 -1.57387 0
M  V30 3082 C 308.408 1.08265 -2.02018 0
M  V30 3083 C 309.408 1.32183 -0.915664 0
M  V30 3084 O 310.598 1.28073 -1.18081 0
M  V30 3085 C 307.73 2.42871 -2.39221 0
M  V30 3086 H 308.923 0.698204 -2.91659 0
M  V30 3087 H 306.476 0.327303 -1.52835 0
M  V30 3088 H 307.211 2.86167 -1.52575 0
M  V30 3089 H 306.996 2.26855 -3.19811 0
M  V30 3090 H 308.486 3.14826 -2.74362 0
M  V30 3091 N 308.923 1.53595 0.353017 0
M  V30 3092 C 309.856 1.7572 1.45594 0
M  V30 3093 C 310.834 0.605961 1.50887 0
M  V30 3094 O 312.018 0.840023 1.68748 0
M  V30 3095 C 309.145 1.84732 2.83887 0
M  V30 3096 C 308.191 3.06808 2.96262 0
M  V30 3097 S 309.024 4.66065 2.63711 0
M  V30 3098 C 310.18 4.77943 4.04131 0
M  V30 3099 H 310.413 2.68994 1.26608 0
M  V30 3100 H 307.946 1.44343 0.548117 0
M  V30 3101 H 309.904 1.9061 3.63563 0
M  V30 3102 H 308.565 0.92488 3.00175 0
M  V30 3103 H 307.758 3.09761 3.97573 0
M  V30 3104 H 307.36 2.99108 2.24523 0
M  V30 3105 H 309.652 4.5877 4.98534 0
M  V30 3106 H 310.595 5.80022 4.06177 0
M  V30 3107 H 311.003 4.06472 3.91715 0
M  V30 3108 N 310.401 -0.613514 1.45168 0
M  V30 3109 C 311.364 -1.7065 1.53007 0
M  V30 3110 C 312.364 -1.5548 0.410184 0
M  V30 3111 O 313.554 -1.60656 0.673455 0
M  V30 3112 C 310.686 -3.09875 1.42093 0
M  V30 3113 H 311.879 -1.65068 2.50385 0
M  V30 3114 H 309.432 -0.828728 1.32521 0
M  V30 3115 H 310.167 -3.21039 0.458769 0
M  V30 3116 H 309.952 -3.22293 2.23315 0
M  V30 3117 H 311.442 -3.895 1.50598 0
M  V30 3118 N 311.879 -1.3236 -0.855495 0
M  V30 3119 C 313.156 -1.13491 -1.59309 0
M  V30 3120 C 313.536 0.30503 -2.08885 0
M  V30 3121 O 312.884 1.30151 -1.87811 0
M  V30 3122 C 313.094 -2.16176 -2.73987 0
M  V30 3123 C 314.442 -2.49463 -3.43589 0
M  V30 3124 O 315.466 -2.14715 -2.84211 0
M  V30 3125 O 314.325 -3.09027 -4.50738 0
M  V30 3126 H 311.419 -0.437887 -0.701559 0
M  V30 3127 H 313.965 -1.43887 -0.899696 0
M  V30 3128 H 312.737 -3.1297 -2.34873 0
M  V30 3129 H 312.36 -1.86769 -3.51003 0
M  V30 3130 N 313.357 1.07166 -1.15556 0
M  V30 3131 C 314.597 1.81391 -0.94216 0
M  V30 3132 C 314.961 1.84788 0.521272 0
M  V30 3133 O 316.162 2.54904 0.85307 0
M  V30 3134 C 314.433 3.22431 -1.54185 0
M  V30 3135 S 315.992 4.13379 -1.47183 0
M  V30 3136 H 312.81 0.624963 -0.339031 0
M  V30 3137 H 315.412 1.28725 -1.4714 0
M  V30 3138 H 314.116 3.17548 -2.59984 0
M  V30 3139 H 313.647 3.80172 -1.01156 0
M  V30 3140 H 315.662 4.94007 -0.466004 0
M  V30 3141 N 314.835 0.952656 1.25548 0
M  V30 3142 C 315.765 0.489287 2.28316 0
M  V30 3143 C 316.746 -0.463359 1.63667 0
M  V30 3144 O 317.931 -0.36274 1.90782 0
M  V30 3145 C 315.061 -0.235603 3.465 0
M  V30 3146 C 314.015 0.631593 4.23314 0
M  V30 3147 C 313.341 -0.223923 5.34231 0
M  V30 3148 C 314.641 1.90871 4.86174 0
M  V30 3149 H 316.335 1.34822 2.67326 0
M  V30 3150 H 313.881 0.649728 1.28509 0
M  V30 3151 H 315.834 -0.570882 4.17515 0
M  V30 3152 H 314.558 -1.12877 3.06474 0
M  V30 3153 H 313.217 0.949929 3.54079 0
M  V30 3154 H 312.865 -1.11678 4.90446 0
M  V30 3155 H 312.565 0.35299 5.86539 0
M  V30 3156 H 314.089 -0.554214 6.0808 0
M  V30 3157 H 315.503 1.63997 5.49343 0
M  V30 3158 H 313.9 2.43112 5.4865 0
M  V30 3159 H 314.97 2.61304 4.08471 0
M  V30 3160 N 316.313 -1.40141 0.720998 0
M  V30 3161 C 317.538 -2.05618 0.271258 0
M  V30 3162 C 317.963 -1.53978 -1.08039 0
M  V30 3163 O 317.321 -0.677463 -1.68167 0
M  V30 3164 C 317.369 -3.59609 0.267197 0
M  V30 3165 O 316.473 -4.05526 -0.749814 0
M  V30 3166 H 315.814 -0.651904 0.126162 0
M  V30 3167 H 318.344 -1.79439 0.982997 0
M  V30 3168 H 318.354 -4.0786 0.106744 0
M  V30 3169 H 317.029 -3.96559 1.25354 0
M  V30 3170 H 315.606 -3.68722 -0.556644 0
M  V30 3171 N 317.792 -0.46758 -1.50504 0
M  V30 3172 C 319.203 -0.0116166 -1.86696 0
M  V30 3173 C 319.554 1.39202 -1.38265 0
M  V30 3174 O 318.679 2.0313 -0.746132 0
M  V30 3175 C 319.274 -0.0143044 -3.38797 0
M  V30 3176 C 317.833 0.386175 -3.74414 0
M  V30 3177 C 316.98 -0.401287 -2.74381 0
M  V30 3178 H 319.931 -0.682022 -1.43297 0
M  V30 3179 H 319.952 0.788641 -3.72237 0
M  V30 3180 H 319.464 -1.03602 -3.74016 0
M  V30 3181 H 317.565 1.41237 -3.44794 0
M  V30 3182 H 317.678 0.0899596 -4.79016 0
M  V30 3183 H 316.042 0.144536 -2.5429 0
M  V30 3184 H 316.825 -1.42244 -3.12444 0
M  V30 3185 N 319.27 1.56325 -0.20005 0
M  V30 3186 C 320.547 1.89484 0.48529 0
M  V30 3187 C 320.927 1.1143 1.79294 0
M  V30 3188 O 320.275 0.216919 2.27468 0
M  V30 3189 C 320.485 3.41923 0.699243 0
M  V30 3190 C 321.833 4.12256 1.01638 0
M  V30 3191 O 322.857 3.47402 0.786792 0
M  V30 3192 O 321.716 5.26887 1.45095 0
M  V30 3193 H 318.81 0.787144 0.253639 0
M  V30 3194 H 321.356 1.67985 -0.240633 0
M  V30 3195 H 320.128 3.90658 -0.224008 0
M  V30 3196 H 319.751 3.69131 1.47744 0
M  V30 3197 N 320.748 -0.0735177 1.57428 0
M  V30 3198 C 321.68 -1.11423 2.00294 0
M  V30 3199 C 322.693 -1.35084 0.908637 0
M  V30 3200 O 323.882 -1.33355 1.18654 0
M  V30 3201 C 320.982 -2.46548 2.32523 0
M  V30 3202 C 320.155 -2.42867 3.63778 0
M  V30 3203 C 319.214 -3.60087 3.83697 0
M  V30 3204 O 318.24 -3.41595 4.55304 0
M  V30 3205 N 319.442 -4.80372 3.25919 0
M  V30 3206 H 322.207 -0.749206 2.90184 0
M  V30 3207 H 319.768 -0.262195 1.59763 0
M  V30 3208 H 321.76 -3.23607 2.43024 0
M  V30 3209 H 320.33 -2.75059 1.48531 0
M  V30 3210 H 319.55 -1.51206 3.64047 0
M  V30 3211 H 320.838 -2.37506 4.49965 0
M  V30 3212 H 320.236 -4.983 2.67795 0
M  V30 3213 H 318.793 -5.54948 3.41871 0
M  V30 3214 N 322.226 -1.5378 -0.344866 0
M  V30 3215 C 323.642 -1.44015 -0.687888 0
M  V30 3216 C 323.842 -0.595834 -1.92489 0
M  V30 3217 O 322.898 -0.0863064 -2.52352 0
M  V30 3218 C 324.211 -2.87481 -0.881758 0
M  V30 3219 C 325.759 -2.97247 -0.980459 0
M  V30 3220 C 326.234 -4.41819 -1.20665 0
M  V30 3221 N 327.725 -4.45339 -1.27389 0
M  V30 3222 C 328.46 -5.54333 -1.46639 0
M  V30 3223 N 327.956 -6.73335 -1.63071 0
M  V30 3224 N 329.749 -5.41944 -1.49176 0
M  V30 3225 H 321.9 -2.07169 0.468475 0
M  V30 3226 H 324.163 -0.93643 0.147655 0
M  V30 3227 H 323.869 -3.51672 -0.0443444 0
M  V30 3228 H 323.743 -3.32352 -1.78388 0
M  V30 3229 H 326.13 -2.33197 -1.8084 0
M  V30 3230 H 326.211 -2.5574 -0.0552713 0
M  V30 3231 H 325.855 -5.06449 -0.383652 0
M  V30 3232 H 325.785 -4.80917 -2.14539 0
M  V30 3233 H 328.276 -3.59585 -1.1622 0
M  V30 3234 H 328.589 -7.52165 -1.77391 0
M  V30 3235 H 326.934 -6.76282 -1.60209 0
M  V30 3236 H 330.125 -4.47932 -1.3592 0
M  V30 3237 H 330.298 -6.26946 -1.63837 0
M  V30 3238 N 323.704 0.605807 -1.45491 0
M  V30 3239 C 324.636 1.73031 -1.5031 0
M  V30 3240 C 325.649 1.57968 -0.393687 0
M  V30 3241 O 326.838 1.65817 -0.660839 0
M  V30 3242 C 323.938 3.11049 -1.34543 0
M  V30 3243 C 323.111 3.52334 -2.59189 0
M  V30 3244 C 322.17 4.69323 -2.37954 0
M  V30 3245 O 321.196 4.7635 -3.11575 0
M  V30 3246 N 322.398 5.62705 -1.4263 0
M  V30 3247 H 325.163 1.6936 -2.4726 0
M  V30 3248 H 322.724 0.79114 -1.41254 0
M  V30 3249 H 324.716 3.87071 -1.18144 0
M  V30 3250 H 323.286 3.09217 -0.458623 0
M  V30 3251 H 322.506 2.66256 -2.90691 0
M  V30 3252 H 323.794 3.76677 -3.42041 0
M  V30 3253 H 323.192 5.59744 -0.818758 0
M  V30 3254 H 321.749 6.38252 -1.32202 0
M  V30 3255 N 325.182 1.32811 0.848464 0
M  V30 3256 C 326.092 1.24278 1.98978 0
M  V30 3257 C 327.108 0.155176 1.73307 0
M  V30 3258 O 328.284 0.376999 1.9784 0
M  V30 3259 C 325.349 0.972444 3.32783 0
M  V30 3260 C 324.41 2.14911 3.71634 0
M  V30 3261 C 323.643 1.89157 4.99054 0
M  V30 3262 O 323.866 0.837165 5.64223 0
M  V30 3263 O 322.8 2.75433 5.35183 0
M  V30 3264 H 326.626 2.20238 2.09115 0
M  V30 3265 H 324.211 1.12762 0.980052 0
M  V30 3266 H 326.093 0.838432 4.12975 0
M  V30 3267 H 324.768 0.043051 3.23671 0
M  V30 3268 H 323.675 2.33862 2.91992 0
M  V30 3269 H 325.008 3.06151 3.85399 0
M  V30 3270 N 326.66 -1.06551 1.16123 0
M  V30 3271 C 328.076 -1.3142 0.905585 0
M  V30 3272 C 328.276 -1.96571 -0.442964 0
M  V30 3273 O 327.332 -2.23068 -1.18308 0
M  V30 3274 C 328.645 -2.19741 2.05267 0
M  V30 3275 C 330.193 -2.33165 2.08813 0
M  V30 3276 C 330.668 -3.24838 3.22868 0
M  V30 3277 N 332.159 -3.32421 3.22568 0
M  V30 3278 C 332.894 -4.0344 4.0746 0
M  V30 3279 N 332.39 -4.77003 5.02434 0
M  V30 3280 N 334.183 -3.99464 3.95456 0
M  V30 3281 H 326.334 -0.626548 2.02949 0
M  V30 3282 H 328.597 -0.338777 0.8854 0
M  V30 3283 H 328.303 -1.79142 3.02657 0
M  V30 3284 H 328.177 -3.20313 1.99198 0
M  V30 3285 H 330.564 -2.73013 1.12018 0
M  V30 3286 H 330.645 -1.3227 2.18948 0
M  V30 3287 H 330.289 -2.85708 4.19921 0
M  V30 3288 H 330.219 -4.25707 3.0997 0
M  V30 3289 H 332.71 -2.79994 2.53795 0
M  V30 3290 H 333.023 -5.28712 5.63634 0
M  V30 3291 H 331.368 -4.75992 5.06415 0
M  V30 3292 H 334.559 -3.4111 3.20564 0
M  V30 3293 H 334.732 -4.54544 4.61837 0
M  V30 3294 N 328.138 -0.959301 -1.25041 0
M  V30 3295 C 329.385 -0.616611 -1.92884 0
M  V30 3296 C 329.713 0.847036 -1.75087 0
M  V30 3297 O 328.968 1.62374 -1.09239 0
M  V30 3298 C 329.267 -0.927136 -3.45165 0
M  V30 3299 C 328.933 -2.37757 -3.83122 0
M  V30 3300 C 327.595 -2.77402 -3.93194 0
M  V30 3301 C 329.947 -3.31929 -4.01836 0
M  V30 3302 C 327.275 -4.10277 -4.19392 0
M  V30 3303 C 329.627 -4.64423 -4.29528 0
M  V30 3304 C 328.291 -5.03857 -4.37818 0
M  V30 3305 H 327.561 -0.225634 -0.705812 0
M  V30 3306 H 330.208 -1.20921 -1.48493 0
M  V30 3307 H 328.513 -0.252195 -3.90987 0
M  V30 3308 H 330.21 -0.6405 -3.95852 0
M  V30 3309 H 326.8 -2.06013 -3.75841 0
M  V30 3310 H 330.984 -3.02488 -3.93465 0
M  V30 3311 H 326.24 -4.40467 -4.24027 0
M  V30 3312 H 330.414 -5.37369 -4.42953 0
M  V30 3313 H 328.041 -6.06843 -4.57871 0
M  V30 3314 N 329.616 1.39756 -0.72842 0
M  V30 3315 C 330.893 1.94574 -0.200079 0
M  V30 3316 C 331.273 1.66569 1.29684 0
M  V30 3317 O 330.621 0.990326 2.05924 0
M  V30 3318 C 330.831 3.45004 -0.526608 0
M  V30 3319 C 332.179 4.21965 -0.472318 0
M  V30 3320 O 333.203 3.53173 -0.463413 0
M  V30 3321 O 332.062 5.44552 -0.461075 0
M  V30 3322 H 329.156 0.826289 -0.0342851 0
M  V30 3323 H 331.702 1.49293 -0.806829 0
M  V30 3324 H 330.474 3.58796 -1.56144 0
M  V30 3325 H 330.097 3.97449 0.109449 0
M  V30 3326 N 331.094 0.475555 1.50254 0
M  V30 3327 C 332.024 -0.30611 2.31485 0
M  V30 3328 C 333.005 -0.986228 1.38591 0
M  V30 3329 O 334.19 -0.982541 1.67511 0
M  V30 3330 C 331.32 -1.38588 3.1845 0
M  V30 3331 C 330.274 -0.827115 4.19932 0
M  V30 3332 C 329.6 -2.00551 4.95665 0
M  V30 3333 C 330.9 0.16463 5.2204 0
M  V30 3334 H 332.594 0.371866 2.97082 0
M  V30 3335 H 330.14 0.180282 1.42867 0
M  V30 3336 H 332.093 -1.94023 3.74076 0
M  V30 3337 H 330.817 -2.09269 2.50747 0
M  V30 3338 H 329.476 -0.294702 3.65414 0
M  V30 3339 H 329.124 -2.6994 4.2443 0
M  V30 3340 H 328.824 -1.63784 5.64313 0
M  V30 3341 H 330.348 -2.56468 5.54127 0
M  V30 3342 H 331.762 -0.300699 5.72511 0
M  V30 3343 H 330.159 0.446813 5.98434 0
M  V30 3344 H 331.229 1.08905 4.72512 0
M  V30 3345 N 332.573 -1.56217 0.208337 0
M  V30 3346 C 333.819 -1.98242 -0.427552 0
M  V30 3347 C 334.152 -1.09554 -1.60348 0
M  V30 3348 O 333.427 -0.15035 -1.93918 0
M  V30 3349 C 333.71 -3.4931 -0.874907 0
M  V30 3350 C 333.563 -4.48773 0.303751 0
M  V30 3351 C 334.882 -4.04424 -1.73577 0
M  V30 3352 H 332.001 -0.720744 -0.153936 0
M  V30 3353 H 334.643 -1.87586 0.30192 0
M  V30 3354 H 332.793 -3.58522 -1.49648 0
M  V30 3355 H 334.465 -4.51586 0.941682 0
M  V30 3356 H 332.708 -4.23194 0.953375 0
M  V30 3357 H 333.379 -5.51976 -0.0519883 0
M  V30 3358 H 335.855 -3.98075 -1.21143 0
M  V30 3359 H 334.731 -5.1047 -2.01771 0
M  V30 3360 H 334.992 -3.50494 -2.69456 0
M  V30 3361 N 334.051 0.0651679 -1.57465 0
M  V30 3362 C 335.467 0.420105 -1.53972 0
M  V30 3363 C 335.667 1.78782 -0.929474 0
M  V30 3364 O 334.723 2.46771 -0.534839 0
M  V30 3365 C 336.036 0.355084 -2.98596 0
M  V30 3366 C 337.584 0.434792 -3.09965 0
M  V30 3367 C 338.059 0.399609 -4.56253 0
M  V30 3368 N 339.55 0.459488 -4.60915 0
M  V30 3369 C 340.285 0.454584 -5.71595 0
M  V30 3370 N 339.781 0.404102 -6.9162 0
M  V30 3371 N 341.574 0.501635 -5.59857 0
M  V30 3372 H 333.725 -0.830328 -1.95498 0
M  V30 3373 H 335.988 -0.312244 -0.895102 0
M  V30 3374 H 335.694 -0.583357 -3.46828 0
M  V30 3375 H 335.568 1.16275 -3.58831 0
M  V30 3376 H 337.955 1.36366 -2.61703 0
M  V30 3377 H 338.036 -0.40157 -2.52628 0
M  V30 3378 H 337.68 -0.525436 -5.05175 0
M  V30 3379 H 337.61 1.25359 -5.11461 0
M  V30 3380 H 340.101 0.502482 -3.74544 0
M  V30 3381 H 340.414 0.404468 -7.71741 0
M  V30 3382 H 338.759 0.37069 -6.94011 0
M  V30 3383 H 341.95 0.538812 -4.64989 0
M  V30 3384 H 342.123 0.494345 -6.46112 0
M  V30 3385 N 335.529 1.53961 0.336706 0
M  V30 3386 C 336.759 1.75229 1.09446 0
M  V30 3387 C 337.167 0.494602 1.82621 0
M  V30 3388 O 336.51 -0.543764 1.75468 0
M  V30 3389 C 336.572 2.88288 2.1478 0
M  V30 3390 C 336.236 4.27656 1.6112 0
M  V30 3391 C 337.233 5.08981 1.0599 0
M  V30 3392 C 334.918 4.74161 1.6576 0
M  V30 3393 C 336.912 6.34916 0.562129 0
M  V30 3394 C 334.599 6.00067 1.15595 0
M  V30 3395 C 335.597 6.80278 0.609147 0
M  V30 3396 O 335.285 8.03818 0.114999 0
M  V30 3397 H 335.017 0.588881 0.331956 0
M  V30 3398 H 337.571 2.01614 0.392566 0
M  V30 3399 H 335.801 2.57443 2.88548 0
M  V30 3400 H 337.49 2.97461 2.76174 0
M  V30 3401 H 338.256 4.74213 1.01722 0
M  V30 3402 H 334.135 4.11781 2.07261 0
M  V30 3403 H 337.679 6.9747 0.134668 0
M  V30 3404 H 333.576 6.3433 1.19566 0
M  V30 3405 H 334.344 8.18172 0.231651 0
M  V30 3406 N 337.007 -0.598083 1.45811 0
M  V30 3407 C 337.97 -1.69018 1.54808 0
M  V30 3408 C 338.97 -1.55037 0.426652 0
M  V30 3409 O 340.16 -1.59932 0.690456 0
M  V30 3410 C 337.292 -3.0835 1.45371 0
M  V30 3411 H 338.485 -1.62403 2.52121 0
M  V30 3412 H 336.038 -0.814626 1.33392 0
M  V30 3413 H 336.773 -3.20534 0.492793 0
M  V30 3414 H 336.558 -3.19907 2.26721 0
M  V30 3415 H 338.048 -3.8788 1.54721 0
M  V30 3416 N 338.485 -1.33259 -0.841409 0
M  V30 3417 C 339.731 -1.24757 -1.59886 0
M  V30 3418 C 340.064 0.186913 -1.93298 0
M  V30 3419 O 339.339 1.12757 -1.5848 0
M  V30 3420 C 339.622 -2.12036 -2.91055 0
M  V30 3421 C 339.475 -3.63929 -2.6434 0
M  V30 3422 C 340.794 -1.9916 -3.92458 0
M  V30 3423 H 337.913 -0.454542 -0.580138 0
M  V30 3424 H 340.555 -1.63335 -0.970647 0
M  V30 3425 H 338.705 -1.79265 -3.44669 0
M  V30 3426 H 340.377 -4.06978 -2.17178 0
M  V30 3427 H 338.62 -3.85935 -1.98082 0
M  V30 3428 H 339.291 -4.20341 -3.57796 0
M  V30 3429 H 341.767 -2.27895 -3.48143 0
M  V30 3430 H 340.643 -2.62484 -4.82072 0
M  V30 3431 H 340.904 -0.963082 -4.31482 0
M  V30 3432 N 339.963 1.05934 -1.16686 0
M  V30 3433 C 341.24 1.75643 -0.860747 0
M  V30 3434 C 341.62 2.01144 0.640641 0
M  V30 3435 O 340.968 1.64147 1.58959 0
M  V30 3436 C 341.178 3.05493 -1.68745 0
M  V30 3437 C 342.526 3.79581 -1.90271 0
M  V30 3438 O 343.55 3.15344 -1.65641 0
M  V30 3439 O 342.409 4.9499 -2.31618 0
M  V30 3440 H 339.503 0.763426 -0.317977 0
M  V30 3441 H 342.049 1.1217 -1.27342 0
M  V30 3442 H 340.821 2.8264 -2.70611 0
M  V30 3443 H 340.444 3.76702 -1.27206 0
M  V30 3444 N 341.441 0.965919 1.2453 0
M  V30 3445 C 342.669 0.644385 1.96609 0
M  V30 3446 C 343.084 -0.785823 1.71669 0
M  V30 3447 O 342.441 -1.52703 0.999399 0
M  V30 3448 C 342.492 0.907375 3.49927 0
M  V30 3449 O 342.213 2.28136 3.74013 0
M  V30 3450 C 343.714 0.599784 4.39224 0
M  V30 3451 H 340.934 0.240588 0.626385 0
M  V30 3452 H 343.478 1.29337 1.58405 0
M  V30 3453 H 341.633 0.304631 3.862 0
M  V30 3454 H 342.047 2.36002 4.68405 0
M  V30 3455 H 343.521 0.834263 5.45659 0
M  V30 3456 H 343.998 -0.465921 4.36722 0
M  V30 3457 H 344.604 1.18235 4.08535 0
M  V30 3458 N 342.919 -1.39368 0.735821 0
M  V30 3459 C 343.849 -2.33234 0.111506 0
M  V30 3460 C 344.83 -1.53954 -0.723334 0
M  V30 3461 O 346.015 -1.82344 -0.668147 0
M  V30 3462 C 343.145 -3.38057 -0.795917 0
M  V30 3463 C 342.099 -4.2795 -0.065172 0
M  V30 3464 C 341.425 -5.23479 -1.08967 0
M  V30 3465 C 342.725 -5.10741 1.09273 0
M  V30 3466 H 344.419 -2.85692 0.895571 0
M  V30 3467 H 341.965 -1.37364 0.432109 0
M  V30 3468 H 343.918 -4.02675 -1.24221 0
M  V30 3469 H 342.642 -2.8404 -1.61211 0
M  V30 3470 H 341.301 -3.64813 0.361511 0
M  V30 3471 H 340.949 -4.65758 -1.89944 0
M  V30 3472 H 340.649 -5.84472 -0.605489 0
M  V30 3473 H 342.173 -5.90974 -1.53565 0
M  V30 3474 H 343.587 -5.68699 0.724841 0
M  V30 3475 H 341.984 -5.8088 1.50659 0
M  V30 3476 H 343.054 -4.45525 1.91404 0
M  V30 3477 N 344.397 -0.483516 -1.5 0
M  V30 3478 C 345.625 0.0644831 -2.06799 0
M  V30 3479 C 346.04 1.32399 -1.34596 0
M  V30 3480 O 345.397 1.77626 -0.418946 0
M  V30 3481 C 345.448 0.339927 -3.59898 0
M  V30 3482 O 345.169 -0.869635 -4.29382 0
M  V30 3483 C 346.67 0.933515 -4.33359 0
M  V30 3484 H 343.89 -0.0126333 -0.670881 0
M  V30 3485 H 346.434 -0.675864 -1.93009 0
M  V30 3486 H 344.589 1.03022 -3.7345 0
M  V30 3487 H 345.003 -0.62179 -5.20801 0
M  V30 3488 H 346.477 1.07593 -5.41413 0
M  V30 3489 H 346.954 1.92685 -3.94676 0
M  V30 3490 H 347.56 0.281221 -4.24369 0
M  V30 3491 N 345.875 1.56104 -0.216619 0
M  V30 3492 C 347.291 1.58995 0.13886 0
M  V30 3493 C 347.491 1.23333 1.59346 0
M  V30 3494 O 346.547 0.966234 2.33281 0
M  V30 3495 C 347.86 3.00143 -0.182968 0
M  V30 3496 C 349.408 3.12751 -0.124807 0
M  V30 3497 C 349.883 4.56068 -0.420241 0
M  V30 3498 N 351.374 4.61723 -0.369634 0
M  V30 3499 C 352.109 5.70542 -0.571789 0
M  V30 3500 N 351.605 6.87744 -0.835453 0
M  V30 3501 N 353.398 5.59831 -0.504563 0
M  V30 3502 H 345.549 1.77562 -1.16557 0
M  V30 3503 H 347.812 0.825091 -0.466828 0
M  V30 3504 H 347.518 3.30871 -1.19237 0
M  V30 3505 H 347.392 3.73813 0.504367 0
M  V30 3506 H 349.779 2.81822 0.875223 0
M  V30 3507 H 349.86 2.41421 -0.845544 0
M  V30 3508 H 349.504 4.87713 -1.41769 0
M  V30 3509 H 349.434 5.25617 0.321631 0
M  V30 3510 H 351.925 3.77502 -0.173338 0
M  V30 3511 H 352.238 7.66587 -0.977938 0
M  V30 3512 H 350.583 6.895 -0.872592 0
M  V30 3513 H 353.774 4.67145 -0.298842 0
M  V30 3514 H 353.947 6.44573 -0.665519 0
M  V30 3515 N 347.353 -0.0568162 1.57498 0
M  V30 3516 C 348.63 -0.786954 1.79071 0
M  V30 3517 C 349.01 -1.95028 0.80792 0
M  V30 3518 O 348.358 -2.27968 -0.155858 0
M  V30 3519 C 348.568 -1.24594 3.26002 0
M  V30 3520 C 349.916 -1.67323 3.90241 0
M  V30 3521 O 350.94 -1.34124 3.29984 0
M  V30 3522 O 349.799 -2.28842 4.9628 0
M  V30 3523 H 346.893 -0.378262 0.735423 0
M  V30 3524 H 349.439 -0.035734 1.69662 0
M  V30 3525 H 348.211 -0.41423 3.89101 0
M  V30 3526 H 347.834 -2.05803 3.40192 0
M  V30 3527 N 348.832 -1.54138 -0.328536 0
M  V30 3528 C 350.243 -1.63395 -0.903272 0
M  V30 3529 C 350.594 -0.524828 -1.8905 0
M  V30 3530 O 349.719 0.343068 -2.13663 0
M  V30 3531 C 350.314 -2.9618 -1.64507 0
M  V30 3532 C 348.873 -3.0765 -2.1686 0
M  V30 3533 C 348.02 -2.58933 -0.992416 0
M  V30 3534 H 350.971 -1.58344 -0.106253 0
M  V30 3535 H 350.992 -2.86061 -2.50897 0
M  V30 3536 H 350.504 -3.76884 -0.926302 0
M  V30 3537 H 348.605 -2.31611 -2.91868 0
M  V30 3538 H 348.718 -4.1337 -2.42202 0
M  V30 3539 H 347.082 -2.14706 -1.37016 0
M  V30 3540 H 347.865 -3.42089 -0.288041 0
M  V30 3541 N 350.31 0.590341 -1.46126 0
M  V30 3542 C 351.273 1.68194 -1.55703 0
M  V30 3543 C 352.273 1.54808 -0.434868 0
M  V30 3544 O 353.463 1.59564 -0.698928 0
M  V30 3545 C 350.595 3.07575 -1.47005 0
M  V30 3546 H 351.788 1.61064 -2.52979 0
M  V30 3547 H 349.341 0.807541 -1.33823 0
M  V30 3548 H 350.076 3.20268 -0.509785 0
M  V30 3549 H 349.861 3.187 -2.28414 0
M  V30 3550 H 351.351 3.87055 -1.56776 0
M  V30 3551 N 351.788 1.33704 0.83433 0
M  V30 3552 C 352.751 1.24244 1.92603 0
M  V30 3553 C 353.751 0.160383 1.59998 0
M  V30 3554 O 354.941 0.412228 1.69252 0
M  V30 3555 C 352.073 0.91555 3.28376 0
M  V30 3556 H 353.266 2.21287 2.02416 0
M  V30 3557 H 350.819 1.17827 1.02696 0
M  V30 3558 H 351.554 -0.0521886 3.24258 0
M  V30 3559 H 351.339 1.69811 3.53422 0
M  V30 3560 H 352.829 0.874231 4.08347 0
M  V30 3561 N 353.266 -1.05314 1.17247 0
M  V30 3562 C 354.229 -2.112 0.890357 0
M  V30 3563 C 355.229 -1.60359 -0.118943 0
M  V30 3564 O 356.419 -1.73833 0.113086 0
M  V30 3565 C 353.551 -3.39266 0.333422 0
M  V30 3566 H 354.744 -2.37659 1.82916 0
M  V30 3567 H 352.297 -1.21538 0.982758 0
M  V30 3568 H 353.032 -3.18462 -0.612587 0
M  V30 3569 H 352.817 -3.77477 1.06082 0
M  V30 3570 H 354.307 -4.17315 0.154322 0
M  V30 3571 N 354.744 -0.972509 -1.24016 0
M  V30 3572 C 355.99 -0.637978 -1.92504 0
M  V30 3573 C 356.323 0.825383 -1.75787 0
M  V30 3574 O 355.598 1.59442 -1.11393 0
M  V30 3575 C 355.881 -1.01942 -3.45369 0
M  V30 3576 C 355.734 -2.53983 -3.71231 0
M  V30 3577 C 357.053 -0.55751 -4.36555 0
M  V30 3578 H 354.172 -0.233248 -0.699117 0
M  V30 3579 H 356.814 -1.21238 -1.46292 0
M  V30 3580 H 354.964 -0.530656 -3.84859 0
M  V30 3581 H 356.636 -3.10374 -3.41271 0
M  V30 3582 H 354.879 -2.96968 -3.16216 0
M  V30 3583 H 355.55 -2.75723 -4.78206 0
M  V30 3584 H 358.026 -0.977029 -4.04467 0
M  V30 3585 H 356.902 -0.85292 -5.42233 0
M  V30 3586 H 357.163 0.542328 -4.38761 0
M  V30 3587 N 356.222 1.38976 -0.743202 0
M  V30 3588 C 357.452 2.04339 -0.304807 0
M  V30 3589 C 357.86 1.56162 1.06819 0
M  V30 3590 O 357.203 0.725284 1.68776 0
M  V30 3591 C 357.265 3.58716 -0.237369 0
M  V30 3592 C 356.929 4.29905 -1.55018 0
M  V30 3593 C 357.926 4.55987 -2.49744 0
M  V30 3594 C 355.611 4.68294 -1.81675 0
M  V30 3595 C 357.605 5.19478 -3.69353 0
M  V30 3596 C 355.292 5.31512 -3.0156 0
M  V30 3597 C 356.29 5.57037 -3.9522 0
M  V30 3598 O 355.978 6.18941 -5.12998 0
M  V30 3599 H 355.71 0.663439 -0.12971 0
M  V30 3600 H 358.264 1.78852 -1.01001 0
M  V30 3601 H 356.494 3.83133 0.524003 0
M  V30 3602 H 358.183 4.05543 0.170121 0
M  V30 3603 H 358.949 4.26767 -2.30423 0
M  V30 3604 H 354.828 4.47779 -1.09615 0
M  V30 3605 H 358.372 5.39318 -4.42473 0
M  V30 3606 H 354.269 5.60153 -3.20778 0
M  V30 3607 H 355.037 6.37433 -5.13441 0
M  V30 3608 N 357.7 0.491464 1.49741 0
M  V30 3609 C 358.946 -0.0565092 2.02721 0
M  V30 3610 C 359.279 -1.37522 1.37118 0
M  V30 3611 O 358.554 -1.87866 0.503645 0
M  V30 3612 C 358.837 -0.219051 3.59433 0
M  V30 3613 C 358.69 1.12211 4.35579 0
M  V30 3614 C 360.009 -0.964157 4.29409 0
M  V30 3615 H 357.128 -0.0190627 0.736753 0
M  V30 3616 H 359.77 0.641021 1.7886 0
M  V30 3617 H 357.92 -0.813165 3.79895 0
M  V30 3618 H 359.592 1.75437 4.26637 0
M  V30 3619 H 357.835 1.71377 3.98513 0
M  V30 3620 H 358.506 0.961794 5.43556 0
M  V30 3621 H 360.982 -0.460378 4.13545 0
M  V30 3622 H 359.858 -1.04671 5.38828 0
M  V30 3623 H 360.119 -2.00563 3.93988 0
M  V30 3624 N 359.178 -1.55987 0.224894 0
M  V30 3625 C 360.455 -1.90232 -0.455083 0
M  V30 3626 C 360.835 -1.14269 -1.77499 0
M  V30 3627 O 360.183 -0.253079 -2.27094 0
M  V30 3628 C 360.393 -3.42993 -0.644758 0
M  V30 3629 C 361.741 -4.13821 -0.950669 0
M  V30 3630 O 362.765 -3.4861 -0.731423 0
M  V30 3631 O 361.624 -5.29128 -1.36695 0
M  V30 3632 H 358.718 -0.79108 -0.241084 0
M  V30 3633 H 361.264 -1.67581 0.267327 0
M  V30 3634 H 360.036 -3.90252 0.28613 0
M  V30 3635 H 359.659 -3.71434 -1.41853 0
M  V30 3636 N 360.656 0.0484629 -1.57525 0
M  V30 3637 C 361.619 1.03956 -2.04269 0
M  V30 3638 C 362.619 1.30211 -0.943496 0
M  V30 3639 O 363.809 1.25539 -1.20771 0
M  V30 3640 C 360.941 2.37742 -2.44319 0
M  V30 3641 H 362.134 0.636182 -2.93075 0
M  V30 3642 H 359.687 0.294811 -1.53494 0
M  V30 3643 H 360.422 2.82866 -1.5861 0
M  V30 3644 H 360.207 2.20021 -3.24551 0
M  V30 3645 H 361.697 3.08936 -2.80978 0
M  V30 3646 N 362.134 1.5431 0.320358 0
M  V30 3647 C 363.382 1.72327 1.05583 0
M  V30 3648 C 363.703 0.50149 1.88441 0
M  V30 3649 O 362.973 -0.48448 1.89815 0
M  V30 3650 H 361.553 0.635387 0.3928 0
M  V30 3651 H 364.215 1.91621 0.356019 0
M  V30 3652 H 363.311 2.60426 1.72003 0
M  V30 3653 N 363.613 -0.582584 1.46437 0
M  V30 3654 C 364.563 -1.68654 1.53426 0
M  V30 3655 C 365.547 -1.55971 0.395194 0
M  V30 3656 O 366.739 -1.64884 0.643612 0
M  V30 3657 C 363.868 -3.07439 1.52762 0
M  V30 3658 C 362.954 -3.25418 2.71963 0
M  V30 3659 N 363.345 -3.13556 3.96883 0
M  V30 3660 C 361.643 -3.56357 2.68189 0
M  V30 3661 C 362.344 -3.33543 4.76575 0
M  V30 3662 N 361.32 -3.58704 4.08451 0
M  V30 3663 H 365.122 -1.58014 2.47808 0
M  V30 3664 H 362.636 -0.786617 1.42078 0
M  V30 3665 H 364.633 -3.86671 1.55857 0
M  V30 3666 H 363.293 -3.1921 0.594573 0
M  V30 3667 H 364.304 -2.9142 4.28129 0
M  V30 3668 H 360.981 -3.74812 1.83908 0
M  V30 3669 H 362.371 -3.29555 5.85528 0
M  V30 3670 N 365.091 -1.34144 -0.827227 0
M  V30 3671 C 366.316 -1.29476 -1.62021 0
M  V30 3672 C 366.741 0.129292 -1.87655 0
M  V30 3673 O 366.099 1.08967 -1.449 0
M  V30 3674 C 366.147 -2.08702 -2.94068 0
M  V30 3675 O 365.251 -1.45359 -3.85933 0
M  V30 3676 H 364.592 -0.444881 -0.492927 0
M  V30 3677 H 367.122 -1.76882 -1.02829 0
M  V30 3678 H 367.132 -2.19898 -3.43669 0
M  V30 3679 H 365.807 -3.12241 -2.74734 0
M  V30 3680 H 364.384 -1.42879 -3.44442 0
M  V30 3681 N 366.569 1.04691 -1.17803 0
M  V30 3682 C 367.985 1.29963 -0.926379 0
M  V30 3683 C 368.185 1.97251 0.411635 0
M  V30 3684 O 367.241 2.24922 1.14744 0
M  V30 3685 C 368.554 2.16447 -2.08737 0
M  V30 3686 C 370.102 2.29814 -2.12496 0
M  V30 3687 C 370.577 3.19661 -3.27995 0
M  V30 3688 N 372.068 3.27247 -3.27816 0
M  V30 3689 C 372.803 3.96906 -4.13827 0
M  V30 3690 N 372.299 4.6895 -5.09959 0
M  V30 3691 N 374.092 3.93122 -4.01761 0
M  V30 3692 H 366.243 0.594182 -2.0392 0
M  V30 3693 H 368.506 0.324649 -0.890678 0
M  V30 3694 H 368.212 1.74304 -3.05469 0
M  V30 3695 H 368.086 3.17103 -2.04268 0
M  V30 3696 H 370.473 2.71196 -1.16347 0
M  V30 3697 H 370.554 1.2877 -2.21025 0
M  V30 3698 H 370.198 2.78991 -4.24413 0
M  V30 3699 H 370.128 4.20722 -3.16703 0
M  V30 3700 H 372.619 2.75921 -2.58217 0
M  V30 3701 H 372.932 5.19679 -5.71974 0
M  V30 3702 H 371.277 4.67875 -5.13924 0
M  V30 3703 H 374.468 3.35967 -3.2595 0
M  V30 3704 H 374.641 4.47139 -4.6901 0
M  V30 3705 N 368.047 0.979072 1.23499 0
M  V30 3706 C 369.293 0.6578 1.9247 0
M  V30 3707 C 369.648 -0.799746 1.74991 0
M  V30 3708 O 368.941 -1.56922 1.09937 0
M  V30 3709 C 369.135 0.981932 3.43646 0
M  V30 3710 C 368.964 2.46944 3.75831 0
M  V30 3711 C 367.734 3.13119 3.96591 0
M  V30 3712 C 369.932 3.45006 3.81412 0
M  V30 3713 N 367.914 4.51489 4.15969 0
M  V30 3714 C 369.285 4.68778 4.05768 0
M  V30 3715 C 371.34 3.39505 3.64198 0
M  V30 3716 C 370.043 5.87723 4.14697 0
M  V30 3717 C 372.069 4.57814 3.7438 0
M  V30 3718 C 371.431 5.80381 3.99171 0
M  V30 3719 H 367.53 0.291746 0.72554 0
M  V30 3720 H 370.114 1.25626 1.48749 0
M  V30 3721 H 368.285 0.412179 3.86207 0
M  V30 3722 H 370.017 0.618068 3.99953 0
M  V30 3723 H 366.772 2.63619 3.93449 0
M  V30 3724 H 367.196 5.23221 4.29615 0
M  V30 3725 H 371.838 2.45773 3.44029 0
M  V30 3726 H 369.556 6.81874 4.33675 0
M  V30 3727 H 373.142 4.55132 3.62417 0
M  V30 3728 H 372.022 6.70398 4.06861 0
M  V30 3729 N 369.525 -1.3858 0.750561 0
M  V30 3730 C 370.455 -2.33102 0.136237 0
M  V30 3731 C 371.436 -1.54713 -0.706965 0
M  V30 3732 O 372.621 -1.83043 -0.648769 0
M  V30 3733 C 369.751 -3.38882 -0.760017 0
M  V30 3734 C 368.705 -4.27995 -0.0197785 0
M  V30 3735 C 368.031 -5.24605 -1.03408 0
M  V30 3736 C 369.331 -5.09554 1.14684 0
M  V30 3737 H 371.025 -2.84726 0.925822 0
M  V30 3738 H 368.571 -1.36898 0.446654 0
M  V30 3739 H 370.524 -4.0397 -1.19943 0
M  V30 3740 H 369.248 -2.85734 -1.58189 0
M  V30 3741 H 367.907 -3.64409 0.400184 0
M  V30 3742 H 367.555 -4.67746 -1.84994 0
M  V30 3743 H 367.255 -5.85081 -0.543464 0
M  V30 3744 H 368.779 -5.9257 -1.47288 0
M  V30 3745 H 370.193 -5.67899 0.785118 0
M  V30 3746 H 368.59 -5.7925 1.56812 0
M  V30 3747 H 369.66 -4.4347 1.96118 0
M  V30 3748 N 371.003 -0.499398 -1.49478 0
M  V30 3749 C 372.228 0.044722 -2.07352 0
M  V30 3750 C 372.653 1.30207 -1.35749 0
M  V30 3751 O 372.011 1.76516 -0.413732 0
M  V30 3752 C 372.059 0.283013 -3.59488 0
M  V30 3753 O 371.163 1.35804 -3.89398 0
M  V30 3754 H 370.504 -0.0255147 -0.66351 0
M  V30 3755 H 373.034 -0.698561 -1.92305 0
M  V30 3756 H 373.044 0.515007 -4.04737 0
M  V30 3757 H 371.719 -0.635636 -4.11014 0
M  V30 3758 H 370.296 1.11113 -3.55961 0
M  V30 3759 N 372.481 1.55866 -0.233164 0
M  V30 3760 C 373.444 2.1953 0.658715 0
M  V30 3761 C 374.444 1.16053 1.11303 0
M  V30 3762 O 375.634 1.41218 1.01996 0
M  V30 3763 C 372.766 2.82791 1.90373 0
M  V30 3764 H 373.959 2.99721 0.10347 0
M  V30 3765 H 371.512 1.56291 0.0164245 0
M  V30 3766 H 372.247 2.06501 2.50056 0
M  V30 3767 H 372.032 3.58578 1.58632 0
M  V30 3768 H 373.522 3.31556 2.53891 0
M  V30 3769 N 373.959 -0.0401083 1.57549 0
M  V30 3770 C 374.869 -1.06133 2.0922 0
M  V30 3771 C 375.885 -1.40356 1.0284 0
M  V30 3772 O 377.061 -1.49897 1.34509 0
M  V30 3773 C 374.126 -2.34658 2.55218 0
M  V30 3774 C 373.187 -2.07117 3.76033 0
M  V30 3775 C 372.42 -3.29514 4.19829 0
M  V30 3776 O 372.643 -4.39794 3.63232 0
M  V30 3777 O 371.577 -3.15863 5.12362 0
M  V30 3778 H 375.403 -0.652244 2.96613 0
M  V30 3779 H 372.988 -0.256368 1.47184 0
M  V30 3780 H 374.87 -3.10239 2.85184 0
M  V30 3781 H 373.545 -2.74883 1.70941 0
M  V30 3782 H 372.452 -1.29139 3.51104 0
M  V30 3783 H 373.785 -1.71754 4.61261 0
M  V30 3784 N 375.437 -1.54477 -0.31217 0
M  V30 3785 C 376.4 -1.83923 -1.36766 0
M  V30 3786 C 377.4 -0.711563 -1.44199 0
M  V30 3787 O 378.59 -0.979866 -1.44029 0
M  V30 3788 C 375.722 -2.0095 -2.75376 0
M  V30 3789 H 376.915 -2.78239 -1.11906 0
M  V30 3790 H 374.468 -1.46369 -0.548257 0
M  V30 3791 H 375.203 -1.08883 -3.05475 0
M  V30 3792 H 374.988 -2.83018 -2.71373 0
M  V30 3793 H 376.478 -2.2514 -3.51713 0
M  V30 3794 N 376.915 0.57481 -1.46744 0
M  V30 3795 C 377.848 1.69827 -1.52427 0
M  V30 3796 C 378.826 1.58151 -0.377744 0
M  V30 3797 O 380.01 1.79257 -0.58303 0
M  V30 3798 C 377.137 3.07943 -1.41027 0
M  V30 3799 C 376.183 3.38116 -2.59961 0
M  V30 3800 S 377.016 3.29313 -4.22272 0
M  V30 3801 C 378.172 4.69953 -4.13394 0
M  V30 3802 H 378.405 1.64748 -2.47478 0
M  V30 3803 H 375.938 0.754203 -1.34726 0
M  V30 3804 H 377.896 3.87619 -1.35137 0
M  V30 3805 H 376.557 3.10504 -0.473909 0
M  V30 3806 H 375.75 4.38762 -2.47999 0
M  V30 3807 H 375.352 2.66024 -2.62882 0
M  V30 3808 H 377.644 5.60517 -3.80562 0
M  V30 3809 H 378.587 4.86972 -5.14066 0
M  V30 3810 H 378.995 4.47174 -3.44522 0
M  V30 3811 N 378.394 1.34581 0.820102 0
M  V30 3812 C 379.357 1.2628 1.91275 0
M  V30 3813 C 380.357 0.177344 1.59819 0
M  V30 3814 O 381.547 0.430156 1.68806 0
M  V30 3815 C 378.679 0.950327 3.27386 0
M  V30 3816 H 379.872 2.23421 2.00057 0
M  V30 3817 H 377.425 1.1891 1.0144 0
M  V30 3818 H 378.16 -0.0177938 3.24295 0
M  V30 3819 H 377.945 1.73549 3.51601 0
M  V30 3820 H 379.435 0.917492 4.07396 0
M  V30 3821 N 379.872 -1.04064 1.18357 0
M  V30 3822 C 380.835 -2.10243 0.912707 0
M  V30 3823 C 381.835 -1.60477 -0.101928 0
M  V30 3824 O 383.025 -1.73703 0.131517 0
M  V30 3825 C 380.157 -3.38893 0.369387 0
M  V30 3826 H 381.35 -2.35706 1.85426 0
M  V30 3827 H 378.903 -1.20489 0.995594 0
M  V30 3828 H 379.638 -3.19094 -0.578776 0
M  V30 3829 H 379.423 -3.76331 1.1008 0
M  V30 3830 H 380.913 -4.17128 0.198575 0
M  V30 3831 N 381.35 -0.985608 -1.22978 0
M  V30 3832 C 382.766 -0.695104 -1.43668 0
M  V30 3833 C 382.966 0.736866 -1.87543 0
M  V30 3834 O 382.022 1.50868 -2.02473 0
M  V30 3835 C 383.335 -1.69447 -2.48412 0
M  V30 3836 C 384.883 -1.70909 -2.62219 0
M  V30 3837 C 385.358 -2.6969 -3.70178 0
M  V30 3838 N 386.849 -2.6824 -3.77626 0
M  V30 3839 C 387.584 -3.41339 -4.60733 0
M  V30 3840 N 387.08 -4.24015 -5.4789 0
M  V30 3841 N 388.873 -3.30079 -4.54977 0
M  V30 3842 H 381.024 -1.91054 -0.928016 0
M  V30 3843 H 383.287 -0.823553 -0.469536 0
M  V30 3844 H 382.993 -2.7188 -2.23102 0
M  V30 3845 H 382.867 -1.48147 -3.46889 0
M  V30 3846 H 385.254 -0.691785 -2.86877 0
M  V30 3847 H 385.335 -1.96276 -1.6404 0
M  V30 3848 H 384.979 -3.71566 -3.46268 0
M  V30 3849 H 384.909 -2.41595 -4.67909 0
M  V30 3850 H 387.4 -2.08243 -3.15346 0
M  V30 3851 H 387.713 -4.76636 -6.08308 0
M  V30 3852 H 386.058 -4.28104 -5.47496 0
M  V30 3853 H 389.249 -2.64937 -3.85909 0
M  V30 3854 H 389.422 -3.87308 -5.19516 0
M  V30 3855 N 382.828 1.3818 -0.7579 0
M  V30 3856 C 383.758 2.33027 -0.148597 0
M  V30 3857 C 384.739 1.55085 0.69875 0
M  V30 3858 O 385.924 1.83384 0.639053 0
M  V30 3859 C 383.054 3.3928 0.742034 0
M  V30 3860 C 382.008 4.28 -0.00291946 0
M  V30 3861 C 381.334 5.25146 1.00625 0
M  V30 3862 C 382.634 5.08938 -1.17385 0
M  V30 3863 H 384.328 2.84231 -0.940909 0
M  V30 3864 H 381.874 1.36659 -0.453908 0
M  V30 3865 H 383.827 4.046 1.17799 0
M  V30 3866 H 382.551 2.86569 1.56671 0
M  V30 3867 H 381.21 3.64192 -0.419504 0
M  V30 3868 H 380.858 4.68721 1.8251 0
M  V30 3869 H 380.558 5.85361 0.512428 0
M  V30 3870 H 382.082 5.93342 1.44143 0
M  V30 3871 H 383.496 5.67474 -0.815224 0
M  V30 3872 H 381.893 5.7841 -1.59882 0
M  V30 3873 H 382.963 4.42424 -1.98468 0
M  V30 3874 N 384.306 0.507319 1.49211 0
M  V30 3875 C 385.254 -0.281364 2.30892 0
M  V30 3876 C 386.248 -0.95687 1.39787 0
M  V30 3877 O 387.454 -0.883838 1.56807 0
M  V30 3878 H 383.829 -0.109597 0.743971 0
M  V30 3879 H 385.8 0.42744 2.95323 0
M  V30 3880 C 384.549 -1.32918 3.21291 0
M  V30 3881 H 383.872 -0.818799 3.91326 0
M  V30 3882 H 385.312 -1.85288 3.81372 0
M  V30 3883 C 383.771 -2.35074 2.41333 0
M  V30 3884 O 384.301 -3.4108 2.12197 0
M  V30 3885 N 382.507 -2.07705 2.03241 0
M  V30 3886 H 382.054 -1.2152 2.27136 0
M  V30 3887 H 382.012 -2.76283 1.50051 0
M  V30 3888 N 385.784 -1.5574 0.241426 0
M  V30 3889 C 387.061 -1.90704 -0.434881 0
M  V30 3890 C 387.441 -1.16145 -1.76277 0
M  V30 3891 O 386.789 -0.277152 -2.26813 0
M  V30 3892 C 386.999 -3.43657 -0.608343 0
M  V30 3893 C 388.347 -4.14806 -0.906725 0
M  V30 3894 O 389.371 -3.49366 -0.694408 0
M  V30 3895 O 388.23 -5.30548 -1.31075 0
M  V30 3896 H 385.324 -0.793592 -0.23268 0
M  V30 3897 H 387.87 -1.67288 0.285086 0
M  V30 3898 H 386.642 -3.89927 0.327505 0
M  V30 3899 H 386.265 -3.72918 -1.37906 0
M  V30 3900 N 387.262 0.0317525 -1.57568 0
M  V30 3901 C 388.508 0.724175 -1.8943 0
M  V30 3902 C 388.841 1.75149 -0.838836 0
M  V30 3903 O 388.116 1.93948 0.146422 0
M  V30 3904 C 388.399 1.39615 -3.31933 0
M  V30 3905 C 388.252 0.382537 -4.4817 0
M  V30 3906 C 389.571 2.33084 -3.73309 0
M  V30 3907 H 386.69 0.261797 -0.688935 0
M  V30 3908 H 389.332 -0.013017 -1.89996 0
M  V30 3909 H 387.482 2.02451 -3.31581 0
M  V30 3910 H 389.154 -0.243689 -4.60656 0
M  V30 3911 H 387.397 -0.29844 -4.32772 0
M  V30 3912 H 388.068 0.891145 -5.44759 0
M  V30 3913 H 390.544 1.80295 -3.7501 0
M  V30 3914 H 389.42 2.77084 -4.73831 0
M  V30 3915 H 389.681 3.19643 -3.05419 0
M  V30 3916 N 388.74 1.54641 0.303973 0
M  V30 3917 C 389.988 1.73437 1.0375 0
M  V30 3918 C 390.309 0.521449 1.87899 0
M  V30 3919 O 389.579 -0.46432 1.90318 0
M  V30 3920 H 388.159 0.639518 0.386039 0
M  V30 3921 H 390.821 1.91988 0.335675 0
M  V30 3922 H 389.917 2.62235 1.69231 0
M  V30 3923 N 390.218 -0.567019 1.47046 0
M  V30 3924 C 391.464 -1.32658 1.53394 0
M  V30 3925 C 391.797 -1.93254 0.19148 0
M  V30 3926 O 391.072 -1.77338 -0.798844 0
M  V30 3927 C 391.355 -2.44412 2.64452 0
M  V30 3928 C 391.208 -1.88749 4.08282 0
M  V30 3929 C 392.527 -3.46387 2.71485 0
M  V30 3930 H 389.646 -0.48098 0.558415 0
M  V30 3931 H 392.288 -0.635481 1.79058 0
M  V30 3932 H 390.438 -3.03363 2.427 0
M  V30 3933 H 392.11 -1.34134 4.41368 0
M  V30 3934 H 390.353 -1.19481 4.17021 0
M  V30 3935 H 391.024 -2.69491 4.81745 0
M  V30 3936 H 393.5 -2.9734 2.91081 0
M  V30 3937 H 392.376 -4.2202 3.50985 0
M  V30 3938 H 392.637 -4.04616 1.78153 0
M  V30 3939 N 391.696 -1.35014 -0.812953 0
M  V30 3940 C 392.944 -1.27678 -1.56661 0
M  V30 3941 C 393.265 0.150359 -1.94419 0
M  V30 3942 O 392.535 1.08532 -1.63088 0
M  V30 3943 H 391.115 -0.469602 -0.580933 0
M  V30 3944 H 393.777 -1.69043 -0.970076 0
M  V30 3945 H 392.873 -1.88833 -2.48492 0
M  V30 3946 N 393.175 1.03435 -1.18907 0
M  V30 3947 C 394.591 1.28973 -0.940111 0
M  V30 3948 C 394.791 1.97676 0.390691 0
M  V30 3949 O 393.847 2.26127 1.12352 0
M  V30 3950 C 395.16 2.14221 -2.11021 0
M  V30 3951 C 396.708 2.27547 -2.14922 0
M  V30 3952 C 397.183 3.16164 -3.31367 0
M  V30 3953 N 398.674 3.23752 -3.31269 0
M  V30 3954 C 399.409 3.92495 -4.18014 0
M  V30 3955 N 398.905 4.63515 -5.14904 0
M  V30 3956 N 400.698 3.88838 -4.05908 0
M  V30 3957 H 392.849 0.57252 -2.04538 0
M  V30 3958 H 395.112 0.315184 -0.894071 0
M  V30 3959 H 394.818 1.71054 -3.073 0
M  V30 3960 H 394.692 3.14919 -2.0762 0
M  V30 3961 H 397.079 2.69947 -1.19217 0
M  V30 3962 H 397.16 1.26418 -2.22378 0
M  V30 3963 H 396.804 2.74474 -4.27348 0
M  V30 3964 H 396.734 4.17339 -3.21148 0
M  V30 3965 H 399.225 2.73167 -2.61129 0
M  V30 3966 H 399.538 5.13583 -5.77453 0
M  V30 3967 H 397.883 4.62398 -5.18857 0
M  V30 3968 H 401.074 3.32491 -3.29495 0
M  V30 3969 H 401.247 4.4214 -4.73726 0
M  V30 3970 N 394.653 0.992116 1.22453 0
M  V30 3971 C 395.616 0.546883 2.2258 0
M  V30 3972 C 396.616 -0.369829 1.56489 0
M  V30 3973 O 397.806 -0.161896 1.73446 0
M  V30 3974 C 394.938 -0.204659 3.40285 0
M  V30 3975 H 396.131 1.43234 2.63484 0
M  V30 3976 H 393.684 0.779239 1.3549 0
M  V30 3977 H 394.419 -1.10614 3.04853 0
M  V30 3978 H 394.204 0.45354 3.89468 0
M  V30 3979 H 395.694 -0.504358 4.14543 0
M  V30 3980 N 396.131 -1.37776 0.765217 0
M  V30 3981 C 397.547 -1.53297 0.444108 0
M  V30 3982 C 397.747 -1.72515 -1.04119 0
M  V30 3983 O 396.803 -1.74278 -1.82711 0
M  V30 3984 C 398.116 -2.73328 1.25349 0
M  V30 3985 C 399.664 -2.87185 1.24473 0
M  V30 3986 C 400.139 -4.10191 2.03733 0
M  V30 3987 N 401.63 -4.17291 2.01053 0
M  V30 3988 C 402.365 -5.11488 2.59166 0
M  V30 3989 N 401.861 -6.11285 3.26041 0
M  V30 3990 N 403.654 -5.03924 2.49032 0
M  V30 3991 H 395.805 -1.23552 1.72768 0
M  V30 3992 H 398.068 -0.601103 0.733062 0
M  V30 3993 H 397.774 -2.6557 2.30577 0
M  V30 3994 H 397.648 -3.66834 0.87823 0
M  V30 3995 H 400.035 -2.94418 0.20047 0
M  V30 3996 H 400.116 -1.94657 1.65959 0
M  V30 3997 H 399.76 -4.0372 3.08176 0
M  V30 3998 H 399.69 -5.01821 1.59633 0
M  V30 3999 H 402.181 -3.45825 1.5236 0
M  V30 4000 H 402.494 -6.79678 3.67774 0
M  V30 4001 H 400.839 -6.11583 3.30138 0
M  V30 4002 H 404.03 -4.24902 1.96407 0
M  V30 4003 H 404.203 -5.77152 2.94617 0
M  V30 4004 N 397.609 -0.515225 -1.4894 0
M  V30 4005 C 398.857 0.0241671 -2.02086 0
M  V30 4006 C 399.178 1.3616 -1.3959 0
M  V30 4007 O 398.448 1.87841 -0.556121 0
M  V30 4008 H 397.028 0.0119203 -0.746905 0
M  V30 4009 H 399.69 -0.675702 -1.82812 0
M  V30 4010 H 398.786 0.143385 -3.1177 0
M  V30 4011 N 399.087 1.5561 -0.249682 0
M  V30 4012 C 400.334 1.99011 0.374287 0
M  V30 4013 C 400.662 1.13785 1.57744 0
M  V30 4014 O 399.917 0.189326 1.94782 0
M  V30 4015 C 400.216 3.4775 0.824887 0
M  V30 4016 C 399.882 4.50086 -0.270819 0
M  V30 4017 C 398.544 4.77791 -0.571746 0
M  V30 4018 C 400.896 5.11312 -1.01041 0
M  V30 4019 C 398.224 5.63997 -1.61629 0
M  V30 4020 C 400.576 5.98651 -2.0445 0
M  V30 4021 C 399.24 6.24688 -2.35204 0
M  V30 4022 H 398.51 0.728233 0.136961 0
M  V30 4023 H 401.157 1.88122 -0.358087 0
M  V30 4024 H 399.462 3.55985 1.63651 0
M  V30 4025 H 401.159 3.78721 1.31799 0
M  V30 4026 H 397.749 4.28592 -0.026136 0
M  V30 4027 H 401.933 4.89953 -0.791177 0
M  V30 4028 H 397.189 5.82425 -1.85988 0
M  V30 4029 H 401.363 6.45135 -2.62248 0
M  V30 4030 H 398.99 6.91281 -3.16282 0
M  V30 4031 N 400.565 -0.0233959 1.57583 0
M  V30 4032 C 401.79 -0.728376 1.94189 0
M  V30 4033 C 402.215 -1.67793 0.850119 0
M  V30 4034 O 401.573 -1.80262 -0.19371 0
M  V30 4035 C 401.621 -1.45669 3.29868 0
M  V30 4036 O 400.725 -2.57013 3.22518 0
M  V30 4037 H 400.066 -0.195493 0.63457 0
M  V30 4038 H 402.596 0.0228214 2.04587 0
M  V30 4039 H 402.606 -1.82535 3.6489 0
M  V30 4040 H 401.281 -0.760314 4.08891 0
M  V30 4041 H 399.858 -2.22648 2.99136 0
M  V30 4042 N 402.043 -1.548 -0.295768 0
M  V30 4043 C 402.973 -1.89115 -1.36959 0
M  V30 4044 C 403.954 -0.75059 -1.52644 0
M  V30 4045 O 405.139 -1.00678 -1.66065 0
M  V30 4046 C 402.269 -2.14307 -2.73295 0
M  V30 4047 C 401.223 -3.30151 -2.72368 0
M  V30 4048 C 400.549 -3.40772 -4.12042 0
M  V30 4049 C 401.849 -4.67126 -2.33646 0
M  V30 4050 H 403.543 -2.79053 -1.08488 0
M  V30 4051 H 401.089 -1.34266 -0.520443 0
M  V30 4052 H 403.042 -2.36898 -3.48507 0
M  V30 4053 H 401.766 -1.21145 -3.03301 0
M  V30 4054 H 400.425 -3.0749 -1.99613 0
M  V30 4055 H 400.073 -2.45117 -4.39234 0
M  V30 4056 H 399.773 -4.18645 -4.12322 0
M  V30 4057 H 401.297 -3.6563 -4.89027 0
M  V30 4058 H 402.711 -4.89414 -2.98575 0
M  V30 4059 H 401.108 -5.47751 -2.45129 0
M  V30 4060 H 402.178 -4.67489 -1.28772 0
M  V30 4061 N 403.521 0.559213 -1.47345 0
M  V30 4062 C 404.469 1.68747 -1.60085 0
M  V30 4063 C 405.463 1.628 -0.46825 0
M  V30 4064 O 406.669 1.68009 -0.645977 0
M  V30 4065 H 403.044 0.558329 -0.503759 0
M  V30 4066 H 405.015 1.55138 -2.54902 0
M  V30 4067 C 403.764 3.07103 -1.63042 0
M  V30 4068 H 403.087 3.12361 -2.49541 0
M  V30 4069 H 404.527 3.85743 -1.76006 0
M  V30 4070 C 402.986 3.34935 -0.363357 0
M  V30 4071 O 403.516 3.98102 0.536416 0
M  V30 4072 N 401.722 2.89574 -0.244 0
M  V30 4073 H 401.269 2.38348 -0.977133 0
M  V30 4074 H 401.227 3.08566 0.602836 0
M  V30 4075 N 404.999 1.35443 0.805782 0
M  V30 4076 C 406.245 1.28952 1.56522 0
M  V30 4077 C 406.578 -0.135597 1.93726 0
M  V30 4078 O 405.853 -1.08516 1.61414 0
M  V30 4079 C 406.136 2.19678 2.85331 0
M  V30 4080 C 405.989 3.7081 2.54598 0
M  V30 4081 C 407.308 2.09495 3.8704 0
M  V30 4082 H 404.427 0.469764 0.567883 0
M  V30 4083 H 407.069 1.65851 0.927001 0
M  V30 4084 H 405.219 1.8834 3.39795 0
M  V30 4085 H 406.891 4.12593 2.06312 0
M  V30 4086 H 405.134 3.91051 1.8778 0
M  V30 4087 H 405.805 4.29679 3.46525 0
M  V30 4088 H 408.281 2.37045 3.41978 0
M  V30 4089 H 407.157 2.75173 4.74943 0
M  V30 4090 H 407.418 1.07714 4.28777 0
M  V30 4091 N 406.477 -1.02803 1.19454 0
M  V30 4092 C 407.702 -1.80378 1.02364 0
M  V30 4093 C 408.127 -1.83282 -0.423007 0
M  V30 4094 O 407.485 -1.25945 -1.30413 0
M  V30 4095 C 407.533 -3.23248 1.59821 0
M  V30 4096 O 406.637 -4.04 0.828105 0
M  V30 4097 H 405.978 -0.556799 0.361761 0
M  V30 4098 H 408.508 -1.29385 1.58495 0
M  V30 4099 H 408.518 -3.73994 1.63073 0
M  V30 4100 H 407.193 -3.2045 2.65113 0
M  V30 4101 H 405.77 -3.62635 0.86891 0
M  V30 4102 N 407.956 -0.998596 -1.21925 0
M  V30 4103 C 408.904 -0.546641 -2.26085 0
M  V30 4104 C 409.898 0.405576 -1.64473 0
M  V30 4105 O 411.104 0.277471 -1.77849 0
M  V30 4106 H 407.479 -0.158403 -0.735127 0
M  V30 4107 H 409.45 -1.43645 -2.61551 0
M  V30 4108 C 408.199 0.117388 -3.47502 0
M  V30 4109 H 407.522 -0.606277 -3.95176 0
M  V30 4110 H 408.962 0.396993 -4.22137 0
M  V30 4111 C 407.421 1.35455 -3.0847 0
M  V30 4112 O 407.951 2.44944 -3.18379 0
M  V30 4113 N 406.157 1.23191 -2.63196 0
M  V30 4114 H 405.704 0.341006 -2.55333 0
M  V30 4115 H 405.662 2.06071 -2.37449 0
M  V30 4116 N 409.434 1.37368 -0.772513 0
M  V30 4117 C 410.681 1.99673 -0.337182 0
M  V30 4118 C 411.009 1.61324 1.0865 0
M  V30 4119 O 410.264 0.851377 1.7621 0
M  V30 4120 C 410.563 3.54817 -0.428876 0
M  V30 4121 C 410.229 4.12936 -1.81092 0
M  V30 4122 C 408.891 4.28523 -2.1891 0
M  V30 4123 C 411.243 4.44801 -2.71664 0
M  V30 4124 C 408.571 4.73277 -3.46735 0
M  V30 4125 C 410.923 4.90981 -3.98899 0
M  V30 4126 C 409.587 5.04773 -4.36761 0
M  V30 4127 H 408.857 0.730656 -0.123384 0
M  V30 4128 H 411.504 1.64124 -0.986686 0
M  V30 4129 H 409.809 3.90618 0.304167 0
M  V30 4130 H 411.506 4.00933 -0.0733334 0
M  V30 4131 H 408.096 4.01233 -1.50699 0
M  V30 4132 H 412.28 4.32344 -2.43706 0
M  V30 4133 H 407.536 4.82142 -3.75964 0
M  V30 4134 H 411.71 5.14603 -4.69208 0
M  V30 4135 H 409.337 5.39211 -5.35868 0
M  V30 4136 N 410.912 0.523116 1.48665 0
M  V30 4137 C 412.142 -0.00961724 2.06598 0
M  V30 4138 C 412.55 -1.29333 1.38093 0
M  V30 4139 O 411.893 -1.77846 0.46007 0
M  V30 4140 C 411.955 -0.311135 3.58151 0
M  V30 4141 C 411.619 0.878092 4.48485 0
M  V30 4142 C 412.616 1.77464 4.88674 0
M  V30 4143 C 410.301 1.08315 4.90483 0
M  V30 4144 C 412.295 2.86021 5.69623 0
M  V30 4145 C 409.982 2.17187 5.71203 0
M  V30 4146 C 410.98 3.05873 6.10681 0
M  V30 4147 O 410.668 4.12862 6.89783 0
M  V30 4148 H 410.4 0.0272658 0.67545 0
M  V30 4149 H 412.954 0.726156 1.92136 0
M  V30 4150 H 411.184 -1.10079 3.70701 0
M  V30 4151 H 412.873 -0.785125 3.98234 0
M  V30 4152 H 413.639 1.62813 4.56855 0
M  V30 4153 H 409.518 0.402149 4.59243 0
M  V30 4154 H 413.062 3.55272 6.00356 0
M  V30 4155 H 408.959 2.31824 6.02435 0
M  V30 4156 H 409.727 4.10487 7.08126 0
M  V30 4157 N 412.39 -1.55475 0.257931 0
M  V30 4158 C 413.618 -2.03609 -0.367559 0
M  V30 4159 C 414.033 -1.13687 -1.50734 0
M  V30 4160 O 413.39 -0.153479 -1.81853 0
M  V30 4161 C 413.441 -3.51001 -0.864908 0
M  V30 4162 O 413.162 -4.37499 0.229465 0
M  V30 4163 C 414.663 -4.14946 -1.55997 0
M  V30 4164 H 411.883 -0.665459 -0.0860521 0
M  V30 4165 H 414.427 -2.00843 0.385014 0
M  V30 4166 H 412.582 -3.54266 -1.56762 0
M  V30 4167 H 412.996 -5.24286 -0.14998 0
M  V30 4168 H 414.47 -5.19735 -1.85956 0
M  V30 4169 H 414.947 -3.6209 -2.4857 0
M  V30 4170 H 415.553 -4.15635 -0.901543 0
M  V30 4171 N 413.868 0.0150385 -1.57593 0
M  V30 4172 C 415.096 0.714395 -1.94175 0
M  V30 4173 C 415.511 1.68135 -0.858841 0
M  V30 4174 O 414.868 1.81766 0.163567 0
M  V30 4175 C 414.919 1.45933 -3.30735 0
M  V30 4176 O 414.64 0.531167 -4.34868 0
M  V30 4177 C 416.141 2.25456 -3.81686 0
M  V30 4178 H 413.361 0.199923 -0.640525 0
M  V30 4179 H 415.905 -0.0316096 -2.04476 0
M  V30 4180 H 414.06 2.15709 -3.21789 0
M  V30 4181 H 414.474 1.05509 -5.13778 0
M  V30 4182 H 415.948 2.731 -4.79709 0
M  V30 4183 H 416.425 3.07485 -3.13607 0
M  V30 4184 H 417.031 1.60727 -3.9376 0
M  V30 4185 N 415.346 1.54954 0.287554 0
M  V30 4186 C 416.623 1.65569 1.04146 0
M  V30 4187 C 417.003 0.512672 2.0478 0
M  V30 4188 O 416.351 -0.489038 2.23205 0
M  V30 4189 C 416.561 3.04163 1.71131 0
M  V30 4190 C 417.909 3.61429 2.22832 0
M  V30 4191 O 418.933 3.06702 1.81141 0
M  V30 4192 O 417.792 4.57281 2.9926 0
M  V30 4193 H 414.886 0.671881 0.482188 0
M  V30 4194 H 417.432 1.67297 0.28457 0
M  V30 4195 H 416.204 3.78796 0.981303 0
M  V30 4196 H 415.827 3.06271 2.53543 0
M  V30 4197 N 416.824 -0.551391 1.4764 0
M  V30 4198 C 417.734 -1.68525 1.63207 0
M  V30 4199 C 418.75 -1.6621 0.514815 0
M  V30 4200 O 419.926 -1.85551 0.783113 0
M  V30 4201 C 416.991 -3.05025 1.64805 0
M  V30 4202 C 416.052 -3.18362 2.88 0
M  V30 4203 C 415.285 -4.4835 2.89513 0
M  V30 4204 O 415.508 -5.34163 2.00065 0
M  V30 4205 O 414.442 -4.65602 3.81443 0
M  V30 4206 H 418.268 -1.58333 2.59161 0
M  V30 4207 H 415.853 -0.722063 1.30792 0
M  V30 4208 H 417.735 -3.86245 1.68502 0
M  V30 4209 H 416.41 -3.15587 0.720197 0
M  V30 4210 H 415.317 -2.36518 2.89845 0
M  V30 4211 H 416.65 -3.12707 3.80099 0
M  V30 4212 N 418.302 -1.35869 -0.798587 0
M  V30 4213 C 419.212 -1.31578 -1.94228 0
M  V30 4214 C 420.228 -0.21939 -1.72611 0
M  V30 4215 O 421.404 -0.450167 -1.96305 0
M  V30 4216 C 418.469 -1.09528 -3.28944 0
M  V30 4217 C 417.53 -2.28556 -3.63402 0
M  V30 4218 C 416.763 -2.07549 -4.9169 0
M  V30 4219 O 416.986 -1.046 -5.60727 0
M  V30 4220 O 415.92 -2.95106 -5.24591 0
M  V30 4221 H 419.746 -2.27847 -2.00796 0
M  V30 4222 H 417.331 -1.16322 -0.937526 0
M  V30 4223 H 419.213 -0.991127 -4.09579 0
M  V30 4224 H 417.888 -0.16315 -3.23289 0
M  V30 4225 H 416.795 -2.44538 -2.83112 0
M  V30 4226 H 418.128 -3.20244 -3.73771 0
M  V30 4227 N 419.78 1.02168 -1.19998 0
M  V30 4228 C 421.029 1.75091 -1.0013 0
M  V30 4229 C 421.342 1.89923 0.467835 0
M  V30 4230 O 422.548 2.59888 0.785515 0
M  V30 4231 C 421.004 3.14892 -1.74273 0
M  V30 4232 C 420.612 3.0809 -3.25245 0
M  V30 4233 C 422.356 3.9206 -1.62755 0
M  V30 4234 C 420.263 4.42867 -3.91948 0
M  V30 4235 H 419.193 0.656394 -0.37103 0
M  V30 4236 H 421.844 1.14284 -1.43567 0
M  V30 4237 H 420.226 3.7621 -1.2362 0
M  V30 4238 H 421.4 2.5611 -3.83072 0
M  V30 4239 H 419.715 2.44416 -3.3712 0
M  V30 4240 H 422.312 4.91764 -2.09934 0
M  V30 4241 H 422.655 4.12199 -0.582894 0
M  V30 4242 H 423.188 3.37359 -2.10793 0
M  V30 4243 H 419.927 4.27931 -4.96543 0
M  V30 4244 H 419.447 4.94874 -3.3891 0
M  V30 4245 H 421.126 5.11728 -3.95909 0
M  V30 4246 N 421.258 1.00505 1.21394 0
M  V30 4247 C 422.506 0.686415 1.90086 0
M  V30 4248 C 422.827 -0.785264 1.7849 0
M  V30 4249 O 422.097 -1.56387 1.17983 0
M  V30 4250 H 420.677 0.2509 0.703604 0
M  V30 4251 H 423.339 1.27417 1.47482 0
M  V30 4252 H 422.435 0.959621 2.96981 0
M  V30 4253 N 422.737 -1.36956 0.779787 0
M  V30 4254 C 423.967 -2.03459 0.358877 0
M  V30 4255 C 424.375 -1.58939 -1.02641 0
M  V30 4256 O 423.718 -0.769777 -1.66794 0
M  V30 4257 C 423.78 -3.5796 0.332393 0
M  V30 4258 C 423.444 -4.25644 1.66362 0
M  V30 4259 C 424.441 -4.49205 2.61746 0
M  V30 4260 C 422.126 -4.63313 1.94027 0
M  V30 4261 C 424.12 -5.09503 3.82996 0
M  V30 4262 C 421.807 -5.2333 3.15546 0
M  V30 4263 C 422.805 -5.46363 4.0985 0
M  V30 4264 O 422.493 -6.05122 5.29228 0
M  V30 4265 H 422.225 -0.659767 0.147254 0
M  V30 4266 H 424.779 -1.76111 1.05708 0
M  V30 4267 H 423.009 -3.84388 -0.422237 0
M  V30 4268 H 424.698 -4.05852 -0.0625389 0
M  V30 4269 H 425.464 -4.20508 2.41657 0
M  V30 4270 H 421.343 -4.44715 1.21448 0
M  V30 4271 H 424.887 -5.27397 4.56617 0
M  V30 4272 H 420.784 -5.51451 3.35517 0
M  V30 4273 H 421.552 -6.23595 5.30161 0
M  V30 4274 N 424.215 -0.530993 -1.48385 0
M  V30 4275 C 425.463 0.00273189 -2.021 0
M  V30 4276 C 425.784 1.34672 -1.41027 0
M  V30 4277 O 425.054 1.8724 -0.576012 0
M  V30 4278 H 423.634 0.00399774 -0.746989 0
M  V30 4279 H 426.296 -0.695054 -1.82085 0
M  V30 4280 H 425.392 0.11031 -3.11905 0
M  V30 4281 N 425.693 1.55336 -0.266172 0
M  V30 4282 C 426.603 2.2583 0.635458 0
M  V30 4283 C 427.619 1.28106 1.17749 0
M  V30 4284 O 428.795 1.61024 1.20968 0
M  V30 4285 C 425.86 2.95879 1.80712 0
M  V30 4286 C 424.921 4.09059 1.30265 0
M  V30 4287 C 424.154 4.75759 2.41846 0
M  V30 4288 O 424.377 4.41622 3.61007 0
M  V30 4289 O 423.311 5.63888 2.1051 0
M  V30 4290 H 427.137 3.03631 0.0646693 0
M  V30 4291 H 424.722 1.49361 -0.0339177 0
M  V30 4292 H 426.604 3.39932 2.49047 0
M  V30 4293 H 425.279 2.21002 2.36516 0
M  V30 4294 H 424.186 3.69482 0.586019 0
M  V30 4295 H 425.519 4.85811 0.790458 0
M  V30 4296 N 427.171 -0.0066808 1.57599 0
M  V30 4297 C 428.134 -0.985035 2.06953 0
M  V30 4298 C 429.134 -1.27663 0.977687 0
M  V30 4299 O 430.324 -1.22293 1.24057 0
M  V30 4300 C 427.456 -2.3118 2.50536 0
M  V30 4301 H 428.649 -0.558255 2.94658 0
M  V30 4302 H 426.202 -0.254011 1.54222 0
M  V30 4303 H 426.937 -2.78561 1.66054 0
M  V30 4304 H 426.722 -2.11338 3.3027 0
M  V30 4305 H 428.212 -3.01377 2.8907 0
M  V30 4306 N 428.649 -1.55105 -0.279332 0
M  V30 4307 C 429.898 -1.74618 -1.00952 0
M  V30 4308 C 430.211 -0.551096 -1.87676 0
M  V30 4309 O 431.417 -0.628507 -2.64125 0
M  V30 4310 C 429.873 -3.09025 -1.84476 0
M  V30 4311 C 429.481 -4.36081 -1.0265 0
M  V30 4312 C 431.225 -3.37891 -2.56963 0
M  V30 4313 C 429.132 -5.6153 -1.85576 0
M  V30 4314 H 428.062 -0.650868 -0.38064 0
M  V30 4315 H 430.713 -1.81569 -0.265475 0
M  V30 4316 H 429.095 -2.96095 -2.62952 0
M  V30 4317 H 430.269 -4.59909 -0.286354 0
M  V30 4318 H 428.584 -4.14312 -0.416464 0
M  V30 4319 H 431.181 -4.28822 -3.19399 0
M  V30 4320 H 431.524 -2.57737 -3.26921 0
M  V30 4321 H 432.057 -3.5189 -1.85522 0
M  V30 4322 H 428.796 -6.44413 -1.2005 0
M  V30 4323 H 428.316 -5.41854 -2.57204 0
M  V30 4324 H 429.995 -5.99594 -2.43096 0
M  V30 4325 N 430.127 0.543554 -1.4793 0
M  V30 4326 C 431.352 1.32995 -1.59145 0
M  V30 4327 C 431.777 1.86472 -0.246956 0
M  V30 4328 O 431.135 1.63696 0.779324 0
M  V30 4329 C 431.183 2.46623 -2.63077 0
M  V30 4330 O 430.287 3.49261 -2.19295 0
M  V30 4331 H 429.628 0.394472 -0.534124 0
M  V30 4332 H 432.158 0.655489 -1.93816 0
M  V30 4333 H 432.168 2.93001 -2.83926 0
M  V30 4334 H 430.843 2.07059 -3.60693 0
M  V30 4335 H 429.42 3.09094 -2.08603 0
M  V30 4336 N 431.605 1.3629 0.791371 0
M  V30 4337 C 432.853 1.30154 1.5461 0
M  V30 4338 C 433.174 -0.119409 1.94634 0
M  V30 4339 O 432.444 -1.05924 1.64794 0
M  V30 4340 H 431.024 0.478784 0.573389 0
M  V30 4341 H 433.686 1.70565 0.94306 0
M  V30 4342 H 432.782 1.92762 2.45457 0
M  V30 4343 N 433.083 -1.0153 1.20538 0
M  V30 4344 C 434.013 -2.11972 0.979295 0
M  V30 4345 C 434.994 -1.6985 -0.0921787 0
M  V30 4346 O 436.179 -1.94089 0.0655932 0
M  V30 4347 C 433.309 -3.43201 0.531984 0
M  V30 4348 C 432.263 -3.9907 1.54685 0
M  V30 4349 C 431.589 -5.26082 0.956127 0
M  V30 4350 C 432.889 -4.32313 2.93092 0
M  V30 4351 H 434.583 -2.31143 1.90298 0
M  V30 4352 H 432.129 -1.11079 0.916372 0
M  V30 4353 H 434.082 -4.1985 0.361044 0
M  V30 4354 H 432.806 -3.23792 -0.427327 0
M  V30 4355 H 431.465 -3.2453 1.70517 0
M  V30 4356 H 431.113 -5.02999 -0.0111538 0
M  V30 4357 H 430.813 -5.64426 1.63393 0
M  V30 4358 H 432.337 -6.05386 0.796284 0
M  V30 4359 H 433.751 -4.99845 2.80763 0
M  V30 4360 H 432.148 -4.81774 3.57791 0
M  V30 4361 H 433.218 -3.41025 3.44717 0
M  V30 4362 N 434.561 -1.01147 -1.20859 0
M  V30 4363 C 435.789 -0.716911 -1.94082 0
M  V30 4364 C 436.204 0.721568 -1.74467 0
M  V30 4365 O 435.561 1.48889 -1.05539 0
M  V30 4366 C 435.612 -1.03662 -3.46318 0
M  V30 4367 O 435.333 -2.4186 -3.65288 0
M  V30 4368 C 436.834 -0.762386 -4.36695 0
M  V30 4369 H 434.054 -0.26367 -0.617024 0
M  V30 4370 H 436.598 -1.35127 -1.53496 0
M  V30 4371 H 434.753 -0.447757 -3.84804 0
M  V30 4372 H 435.167 -2.53224 -4.59323 0
M  V30 4373 H 436.641 -1.03621 -5.42187 0
M  V30 4374 H 437.118 0.303514 -4.3815 0
M  V30 4375 H 437.724 -1.33316 -4.03865 0
M  V30 4376 N 436.039 1.36541 -0.78704 0
M  V30 4377 C 436.987 2.31965 -0.171724 0
M  V30 4378 C 437.981 1.55689 0.667631 0
M  V30 4379 O 439.187 1.70969 0.562981 0
M  V30 4380 H 435.562 0.751101 -0.0367545 0
M  V30 4381 H 437.533 2.81428 -0.992017 0
M  V30 4382 C 436.282 3.40968 0.680904 0
M  V30 4383 H 435.605 3.99775 0.0443961 0
M  V30 4384 H 437.045 4.10063 1.07815 0
M  V30 4385 C 435.504 2.82338 1.83813 0
M  V30 4386 O 436.034 2.74311 2.93456 0
M  V30 4387 N 434.24 2.39661 1.6435 0
M  V30 4388 H 433.787 2.46389 0.751668 0
M  V30 4389 H 433.745 2.00779 2.4194 0
M  V30 4390 N 437.518 0.538854 1.48102 0
M  V30 4391 C 438.766 0.00798599 2.02098 0
M  V30 4392 C 439.087 -1.33922 1.41739 0
M  V30 4393 O 438.357 -1.86932 0.585934 0
M  V30 4394 H 436.937 -3.62179e-05 0.747 0
M  V30 4395 H 439.599 0.7047 1.81714 0
M  V30 4396 H 438.695 -0.0937672 3.11959 0
M  V30 4397 N 438.996 -1.55193 0.274407 0
M  V30 4398 C 440.221 -2.04446 -0.348824 0
M  V30 4399 C 440.646 -1.15149 -1.48735 0
M  V30 4400 O 440.004 -0.149952 -1.80679 0
M  V30 4401 C 440.052 -3.51431 -0.808009 0
M  V30 4402 O 439.156 -3.65225 -1.91531 0
M  V30 4403 H 438.497 -0.66006 -0.0722276 0
M  V30 4404 H 441.027 -2.00481 0.408498 0
M  V30 4405 H 441.037 -3.92781 -1.10395 0
M  V30 4406 H 439.712 -4.15892 0.0249865 0
M  V30 4407 H 438.289 -3.35778 -1.62196 0
M  V30 4408 N 440.474 -0.00167713 -1.576 0
M  V30 4409 C 441.424 0.997744 -2.0501 0
M  V30 4410 C 442.408 1.30214 -0.94515 0
M  V30 4411 O 443.6 1.29284 -1.20891 0
M  V30 4412 C 440.729 2.2892 -2.55833 0
M  V30 4413 C 439.815 2.01437 -3.73208 0
M  V30 4414 N 440.206 1.44119 -4.84833 0
M  V30 4415 C 438.504 2.31571 -3.8117 0
M  V30 4416 C 439.205 1.33145 -5.66257 0
M  V30 4417 N 438.181 1.81763 -5.12312 0
M  V30 4418 H 441.983 0.549098 -2.88725 0
M  V30 4419 H 439.497 0.20398 -1.61114 0
M  V30 4420 H 441.494 3.01361 -2.88075 0
M  V30 4421 H 440.154 2.74436 -1.73537 0
M  V30 4422 H 441.165 1.11978 -5.0565 0
M  V30 4423 H 437.842 2.7995 -3.09732 0
M  V30 4424 H 439.232 0.890567 -6.65972 0
M  V30 4425 N 441.952 1.55251 0.271103 0
M  V30 4426 C 443.182 1.79713 1.01916 0
M  V30 4427 C 443.59 0.571613 1.80359 0
M  V30 4428 O 442.933 -0.468853 1.77616 0
M  V30 4429 C 442.995 2.97138 2.02359 0
M  V30 4430 C 442.659 4.34104 1.42837 0
M  V30 4431 C 443.656 5.13019 0.843071 0
M  V30 4432 C 441.341 4.80765 1.455 0
M  V30 4433 C 443.335 6.36729 0.292333 0
M  V30 4434 C 441.022 6.0443 0.900402 0
M  V30 4435 C 442.02 6.8225 0.32007 0
M  V30 4436 O 441.708 8.03582 -0.226031 0
M  V30 4437 H 441.44 0.602431 0.306681 0
M  V30 4438 H 443.994 2.03097 0.306701 0
M  V30 4439 H 442.224 2.6945 2.77369 0
M  V30 4440 H 443.913 3.08907 2.63309 0
M  V30 4441 H 444.679 4.781 0.815178 0
M  V30 4442 H 440.558 4.20202 1.89609 0
M  V30 4443 H 444.102 6.97414 -0.161274 0
M  V30 4444 H 439.999 6.3883 0.925541 0
M  V30 4445 H 440.767 8.18418 -0.115572 0
M  V30 4446 N 443.43 -0.535701 1.48216 0
M  V30 4447 C 444.676 -1.29375 1.56173 0
M  V30 4448 C 445.009 -1.92804 0.232429 0
M  V30 4449 O 444.284 -1.78992 -0.761048 0
M  V30 4450 C 444.567 -2.38747 2.69577 0
M  V30 4451 C 444.42 -1.80046 4.12193 0
M  V30 4452 C 445.739 -3.40551 2.78771 0
M  V30 4453 H 442.858 -0.469027 0.568491 0
M  V30 4454 H 445.5 -0.597358 1.80365 0
M  V30 4455 H 443.65 -2.98147 2.4908 0
M  V30 4456 H 445.322 -1.24742 4.44114 0
M  V30 4457 H 443.565 -1.10609 4.19462 0
M  V30 4458 H 444.236 -2.59212 4.87353 0
M  V30 4459 H 446.712 -2.91099 2.97322 0
M  V30 4460 H 445.588 -4.1448 3.59857 0
M  V30 4461 H 445.849 -4.00746 1.86696 0
M  V30 4462 N 444.908 -1.36708 -0.784132 0
M  V30 4463 C 446.157 -1.30559 -1.53744 0
M  V30 4464 C 446.47 0.111374 -1.95283 0
M  V30 4465 O 447.676 0.29527 -2.6989 0
M  V30 4466 C 446.132 -2.29098 -2.77565 0
M  V30 4467 C 445.74 -3.76258 -2.43174 0
M  V30 4468 C 447.484 -2.31936 -3.55536 0
M  V30 4469 C 445.391 -4.6656 -3.63422 0
M  V30 4470 H 444.321 -0.48518 -0.577162 0
M  V30 4471 H 446.972 -1.62101 -0.859981 0
M  V30 4472 H 445.354 -1.90557 -3.47137 0
M  V30 4473 H 446.528 -4.23565 -1.81465 0
M  V30 4474 H 444.843 -3.76246 -1.78403 0
M  V30 4475 H 447.44 -2.9661 -4.44889 0
M  V30 4476 H 447.783 -1.3294 -3.94503 0
M  V30 4477 H 448.316 -2.6912 -2.92949 0
M  V30 4478 H 445.055 -5.66638 -3.29547 0
M  V30 4479 H 444.575 -4.23966 -4.24279 0
M  V30 4480 H 446.254 -4.8309 -4.30387 0
M  V30 4481 N 446.386 1.0089 -1.21074 0
M  V30 4482 C 447.663 1.71834 -0.934469 0
M  V30 4483 C 448.043 2.0368 0.554753 0
M  V30 4484 O 447.391 1.70742 1.51854 0
M  V30 4485 C 447.601 2.98061 -1.8155 0
M  V30 4486 C 448.949 3.7117 -2.06199 0
M  V30 4487 O 449.973 3.08034 -1.78867 0
M  V30 4488 O 448.832 4.84721 -2.52404 0
M  V30 4489 H 445.926 0.749253 -0.35007 0
M  V30 4490 H 448.472 1.06668 -1.31985 0
M  V30 4491 H 447.244 2.70908 -2.82355 0
M  V30 4492 H 446.867 3.70968 -1.43068 0
M  V30 4493 N 447.864 1.01787 1.20321 0
M  V30 4494 C 449.092 0.727194 1.937 0
M  V30 4495 C 449.507 -0.712305 1.74848 0
M  V30 4496 O 448.864 -1.48327 1.06327 0
M  V30 4497 C 448.915 1.05497 3.45764 0
M  V30 4498 O 448.636 2.43794 3.64 0
M  V30 4499 C 450.137 0.785534 4.36285 0
M  V30 4500 H 447.357 0.266939 0.615617 0
M  V30 4501 H 449.901 1.35939 1.52777 0
M  V30 4502 H 448.056 0.468158 3.84561 0
M  V30 4503 H 448.47 2.55656 4.57974 0
M  V30 4504 H 449.944 1.06495 5.4163 0
M  V30 4505 H 450.421 -0.280273 4.38305 0
M  V30 4506 H 451.027 1.35456 4.03152 0
M  V30 4507 N 449.342 -1.36122 0.79427 0
M  V30 4508 C 450.567 -2.03891 0.379871 0
M  V30 4509 C 450.992 -1.59488 -0.997251 0
M  V30 4510 O 450.35 -0.765652 -1.64339 0
M  V30 4511 C 450.398 -3.57687 0.457442 0
M  V30 4512 O 449.502 -4.08931 -0.5338 0
M  V30 4513 H 448.843 -0.6443 0.160541 0
M  V30 4514 H 451.373 -1.73976 1.07673 0
M  V30 4515 H 451.383 -4.06721 0.322792 0
M  V30 4516 H 450.058 -3.89357 1.46199 0
M  V30 4517 H 448.635 -3.71154 -0.360409 0
M  V30 4518 N 450.82 -0.546701 -1.47814 0
M  V30 4519 C 452.236 -0.205717 -1.58269 0
M  V30 4520 C 452.436 1.29153 -1.54667 0
M  V30 4521 O 451.492 2.07098 -1.44453 0
M  V30 4522 C 452.805 -0.823065 -2.89216 0
M  V30 4523 C 454.353 -0.793328 -3.02779 0
M  V30 4524 C 454.828 -1.38955 -4.36412 0
M  V30 4525 N 456.319 -1.35227 -4.43021 0
M  V30 4526 C 457.054 -1.78333 -5.44963 0
M  V30 4527 N 456.55 -2.29246 -6.53772 0
M  V30 4528 N 458.343 -1.69467 -5.35945 0
M  V30 4529 H 450.494 -1.5196 -1.48398 0
M  V30 4530 H 452.757 -0.633078 -0.705632 0
M  V30 4531 H 452.463 -1.8749 -2.97558 0
M  V30 4532 H 452.337 -0.309915 -3.75925 0
M  V30 4533 H 454.724 0.249784 -2.94041 0
M  V30 4534 H 454.805 -1.34412 -2.17639 0
M  V30 4535 H 454.449 -2.43168 -4.45906 0
M  V30 4536 H 454.379 -0.814291 -5.20266 0
M  V30 4537 H 456.87 -0.979739 -3.64979 0
M  V30 4538 H 457.183 -2.60089 -7.27718 0
M  V30 4539 H 455.528 -2.3325 -6.5469 0
M  V30 4540 H 458.719 -1.29477 -4.49837 0
M  V30 4541 H 458.892 -2.03381 -6.15256 0
M  V30 4542 N 452.299 1.55045 -0.282633 0
M  V30 4543 C 453.247 2.24254 0.617478 0
M  V30 4544 C 454.241 1.24215 1.15183 0
M  V30 4545 O 455.447 1.42123 1.10459 0
M  V30 4546 H 451.822 0.719801 0.217693 0
M  V30 4547 H 453.793 2.98398 0.0110076 0
M  V30 4548 C 452.542 2.98281 1.78672 0
M  V30 4549 H 451.865 3.75053 1.38475 0
M  V30 4550 H 453.305 3.50017 2.393 0
M  V30 4551 C 451.764 2.04184 2.67975 0
M  V30 4552 O 452.294 1.59792 3.6855 0
M  V30 4553 N 450.5 1.70526 2.35307 0
M  V30 4554 H 450.047 2.06821 1.53567 0
M  V30 4555 H 450.005 1.07839 2.95327 0
M  V30 4556 N 453.777 0.010035 1.57597 0
M  V30 4557 C 455.025 -0.671371 1.90623 0
M  V30 4558 C 455.346 -1.73753 0.885151 0
M  V30 4559 O 454.616 -1.95752 -0.0760611 0
M  V30 4560 H 453.196 -0.250968 0.703579 0
M  V30 4561 H 455.858 0.0533325 1.94827 0
M  V30 4562 H 454.954 -1.13626 2.90681 0
M  V30 4563 N 455.255 -1.55392 -0.262866 0
M  V30 4564 C 456.218 -1.88181 -1.30846 0
M  V30 4565 C 457.218 -0.757079 -1.41862 0
M  V30 4566 O 458.408 -1.02519 -1.40838 0
M  V30 4567 C 455.54 -2.09609 -2.68844 0
M  V30 4568 H 456.733 -2.81659 -1.02997 0
M  V30 4569 H 454.286 -1.48039 -0.501414 0
M  V30 4570 H 455.021 -1.18547 -3.01856 0
M  V30 4571 H 454.806 -2.91508 -2.62231 0
M  V30 4572 H 456.296 -2.36215 -3.44372 0
M  V30 4573 N 456.733 0.527833 -1.48498 0
M  V30 4574 C 457.981 1.28101 -1.56316 0
M  V30 4575 C 458.302 1.9352 -0.239781 0
M  V30 4576 O 457.572 1.81433 0.738849 0
M  V30 4577 H 456.152 0.475793 -0.575873 0
M  V30 4578 H 458.814 0.614052 -1.84974 0
M  V30 4579 H 457.91 2.05916 -2.34532 0
M  V30 4580 N 458.211 1.37122 0.776871 0
M  V30 4581 C 459.622 1.28667 1.35284 0
M  V30 4582 C 459.973 -0.0680035 1.96082 0
M  V30 4583 O 459.098 -0.969743 1.93455 0
M  V30 4584 C 459.693 2.32997 2.45963 0
M  V30 4585 C 458.252 2.28191 2.99342 0
M  V30 4586 C 457.399 2.17101 1.72517 0
M  V30 4587 H 460.35 1.47819 0.577527 0
M  V30 4588 H 460.371 1.97366 3.2531 0
M  V30 4589 H 459.883 3.3158 2.01684 0
M  V30 4590 H 457.984 1.33115 3.4801 0
M  V30 4591 H 458.097 3.21397 3.55304 0
M  V30 4592 H 456.461 1.63562 1.95242 0
M  V30 4593 H 457.244 3.17591 1.30348 0
M  V30 4594 N 459.689 -1.00246 1.21608 0
M  V30 4595 C 460.652 -2.07233 0.979133 0
M  V30 4596 C 461.652 -1.6072 -0.0508219 0
M  V30 4597 O 462.842 -1.73196 0.186712 0
M  V30 4598 C 459.974 -3.37546 0.477016 0
M  V30 4599 H 461.167 -2.29687 1.92831 0
M  V30 4600 H 458.72 -1.17261 1.03342 0
M  V30 4601 H 459.455 -3.20773 -0.476966 0
M  V30 4602 H 459.24 -3.72638 1.21997 0
M  V30 4603 H 460.73 -4.16285 0.331181 0
M  V30 4604 N 461.167 -1.02423 -1.1978 0
M  V30 4605 C 462.578 -0.748389 -1.71044 0
M  V30 4606 C 462.929 0.732398 -1.82017 0
M  V30 4607 O 462.054 1.57116 -1.48807 0
M  V30 4608 C 462.649 -1.35187 -3.1066 0
M  V30 4609 C 461.208 -1.12472 -3.59203 0
M  V30 4610 C 460.355 -1.45283 -2.36195 0
M  V30 4611 H 463.306 -1.19275 -1.04686 0
M  V30 4612 H 463.327 -0.746408 -3.73107 0
M  V30 4613 H 462.839 -2.4296 -3.02642 0
M  V30 4614 H 460.94 -0.0649983 -3.72543 0
M  V30 4615 H 461.053 -1.81016 -4.43588 0
M  V30 4616 H 459.417 -0.872034 -2.39307 0
M  V30 4617 H 460.2 -2.54129 -2.30811 0
M  V30 4618 N 462.645 1.35699 -0.801477 0
M  V30 4619 C 463.922 1.9324 -0.302937 0
M  V30 4620 C 464.302 1.73209 1.20672 0
M  V30 4621 O 463.65 1.09809 2.00385 0
M  V30 4622 C 463.86 3.41728 -0.708747 0
M  V30 4623 C 465.208 4.18868 -0.695328 0
M  V30 4624 O 466.232 3.5022 -0.649971 0
M  V30 4625 O 465.091 5.41342 -0.749081 0
M  V30 4626 H 462.185 0.82331 -0.0780367 0
M  V30 4627 H 464.731 1.44806 -0.884832 0
M  V30 4628 H 463.503 3.50015 -1.74944 0
M  V30 4629 H 463.126 3.97471 -0.101384 0
M  V30 4630 N 464.123 0.554532 1.47522 0
M  V30 4631 C 465.086 -0.184174 2.28459 0
M  V30 4632 C 466.086 -0.845195 1.36796 0
M  V30 4633 O 467.276 -0.701467 1.59452 0
M  V30 4634 C 464.408 -1.26903 3.16399 0
M  V30 4635 H 465.601 0.526751 2.95238 0
M  V30 4636 H 463.154 0.311375 1.53167 0
M  V30 4637 H 463.889 -2.01244 2.54306 0
M  V30 4638 H 463.674 -0.799883 3.83854 0
M  V30 4639 H 465.164 -1.78794 3.77389 0
M  V30 4640 N 465.601 -1.54893 0.290851 0
M  V30 4641 C 467.012 -1.85584 -0.203816 0
M  V30 4642 C 467.363 -1.21285 -1.54222 0
M  V30 4643 O 466.488 -0.506841 -2.10381 0
M  V30 4644 C 467.083 -3.367 -0.376595 0
M  V30 4645 C 465.642 -3.6746 -0.815485 0
M  V30 4646 C 464.789 -2.77178 0.0821087 0
M  V30 4647 H 467.74 -1.50208 0.512175 0
M  V30 4648 H 467.761 -3.60656 -1.21275 0
M  V30 4649 H 467.273 -3.8347 0.59767 0
M  V30 4650 H 465.374 -3.26201 -1.80066 0
M  V30 4651 H 465.487 -4.7478 -0.641905 0
M  V30 4652 H 463.851 -2.50925 -0.436895 0
M  V30 4653 H 464.634 -3.26767 1.05254 0
M  V30 4654 N 467.08 -0.0183926 -1.57589 0
M  V30 4655 C 468.01 0.965596 -2.12599 0
M  V30 4656 C 468.991 1.34641 -1.0395 0
M  V30 4657 O 470.176 1.42693 -1.31729 0
M  V30 4658 C 467.306 2.25149 -2.64434 0
M  V30 4659 C 466.26 2.01175 -3.77773 0
M  V30 4660 C 465.586 3.35937 -4.15994 0
M  V30 4661 C 466.886 1.35953 -5.04296 0
M  V30 4662 H 468.58 0.507504 -2.95067 0
M  V30 4663 H 466.126 0.242671 -1.41941 0
M  V30 4664 H 468.079 2.94357 -3.01549 0
M  V30 4665 H 466.803 2.73105 -1.79112 0
M  V30 4666 H 465.462 1.34388 -3.4108 0
M  V30 4667 H 465.11 3.81631 -3.27669 0
M  V30 4668 H 464.81 3.20705 -4.92364 0
M  V30 4669 H 466.334 4.0643 -4.55683 0
M  V30 4670 H 467.748 1.95144 -5.39065 0
M  V30 4671 H 466.145 1.31152 -5.85593 0
M  V30 4672 H 467.215 0.331071 -4.83768 0
M  V30 4673 N 468.558 1.5553 0.254621 0
M  V30 4674 C 469.506 1.9048 1.33492 0
M  V30 4675 C 470.5 0.78304 1.50216 0
M  V30 4676 O 471.706 0.967582 1.51782 0
M  V30 4677 H 468.081 0.604846 0.44684 0
M  V30 4678 H 470.052 2.80688 1.01275 0
M  V30 4679 C 468.801 2.20928 2.68489 0
M  V30 4680 H 468.124 3.06742 2.56417 0
M  V30 4681 H 469.564 2.49291 3.42972 0
M  V30 4682 C 468.023 1.023 3.20993 0
M  V30 4683 O 468.553 0.267027 4.00811 0
M  V30 4684 N 466.759 0.815714 2.78917 0
M  V30 4685 H 466.306 1.43217 2.14119 0
M  V30 4686 H 466.264 0.0236532 3.14391 0
M  V30 4687 N 470.036 -0.519951 1.48776 0
M  V30 4688 C 471.282 -1.27456 1.58514 0
M  V30 4689 C 471.637 -1.90634 0.260057 0
M  V30 4690 O 470.93 -1.76815 -0.738036 0
M  V30 4691 C 471.124 -2.37864 2.6675 0
M  V30 4692 C 470.953 -1.85509 4.09654 0
M  V30 4693 C 469.723 -1.67661 4.76674 0
M  V30 4694 C 471.921 -1.37783 4.955 0
M  V30 4695 N 469.903 -1.10037 6.03958 0
M  V30 4696 C 471.274 -0.921714 6.1311 0
M  V30 4697 C 473.329 -1.26179 4.81646 0
M  V30 4698 C 472.032 -0.361057 7.18393 0
M  V30 4699 C 474.058 -0.715121 5.8706 0
M  V30 4700 C 473.42 -0.269132 7.03886 0
M  V30 4701 H 469.519 -0.457049 0.634531 0
M  V30 4702 H 472.103 -0.585073 1.85701 0
M  V30 4703 H 470.274 -3.04296 2.41367 0
M  V30 4704 H 472.006 -3.04901 2.66116 0
M  V30 4705 H 468.761 -1.91478 4.33166 0
M  V30 4706 H 469.185 -0.832067 6.71867 0
M  V30 4707 H 473.827 -1.59263 3.91657 0
M  V30 4708 H 471.545 -0.0179127 8.08098 0
M  V30 4709 H 475.131 -0.628376 5.78397 0
M  V30 4710 H 474.011 0.14729 7.84062 0
M  V30 4711 N 471.514 -1.37532 -0.769588 0
M  V30 4712 C 472.754 -1.34261 -1.54122 0
M  V30 4713 C 473.118 0.0717222 -1.91866 0
M  V30 4714 O 474.319 0.22918 -2.67821 0
M  V30 4715 C 472.59 -2.2574 -2.77086 0
M  V30 4716 S 474.149 -2.40339 -3.67127 0
M  V30 4717 H 470.967 -0.476595 -0.527615 0
M  V30 4718 H 473.569 -1.73303 -0.90479 0
M  V30 4719 H 472.273 -3.27417 -2.4744 0
M  V30 4720 H 471.804 -1.87789 -3.45686 0
M  V30 4721 H 473.819 -1.61558 -4.69163 0
M  V30 4722 N 472.992 0.995999 -1.22138 0
M  V30 4723 C 473.94 2.10673 -0.985876 0
M  V30 4724 C 474.934 1.69255 0.0699553 0
M  V30 4725 O 476.14 1.79812 -0.0822176 0
M  V30 4726 H 472.515 0.688865 -0.30161 0
M  V30 4727 H 474.486 2.27711 -1.92848 0
M  V30 4728 C 473.235 3.42881 -0.576909 0
M  V30 4729 H 472.558 3.75191 -1.38101 0
M  V30 4730 H 473.998 4.21589 -0.451518 0
M  V30 4731 C 472.457 3.29265 0.713196 0
M  V30 4732 O 472.987 3.60777 1.76643 0
M  V30 4733 N 471.193 2.82456 0.683162 0
M  V30 4734 H 470.74 2.5701 -0.174242 0
M  V30 4735 H 470.698 2.73727 1.54663 0
M  V30 4736 N 474.47 1.03057 1.19235 0
M  V30 4737 C 475.881 0.757449 1.70645 0
M  V30 4738 C 476.232 -0.722735 1.82403 0
M  V30 4739 O 475.357 -1.56325 1.49638 0
M  V30 4740 C 475.952 1.36833 3.09939 0
M  V30 4741 C 474.511 1.14375 3.58602 0
M  V30 4742 C 473.658 1.46533 2.35422 0
M  V30 4743 H 476.609 1.19828 1.04052 0
M  V30 4744 H 476.63 0.766184 3.72706 0
M  V30 4745 H 476.142 2.44562 3.01349 0
M  V30 4746 H 474.243 0.0847542 3.72504 0
M  V30 4747 H 474.356 1.83366 4.42622 0
M  V30 4748 H 472.72 0.884712 2.38841 0
M  V30 4749 H 473.503 2.55349 2.2946 0
M  V30 4750 N 475.948 -1.35272 0.808662 0
M  V30 4751 C 477.173 -2.03477 0.401475 0
M  V30 4752 C 477.598 -1.60537 -0.980279 0
M  V30 4753 O 476.956 -0.78304 -1.63518 0
M  V30 4754 C 477.004 -3.57181 0.495354 0
M  V30 4755 O 476.108 -4.09474 -0.490397 0
M  V30 4756 H 475.449 -0.642561 0.167366 0
M  V30 4757 H 477.979 -1.72824 1.09512 0
M  V30 4758 H 477.989 -4.06356 0.365912 0
M  V30 4759 H 476.664 -3.87784 1.5032 0
M  V30 4760 H 475.241 -3.71516 -0.321023 0
M  V30 4761 N 477.426 -0.562348 -1.47226 0
M  V30 4762 C 478.674 -0.0401371 -2.0206 0
M  V30 4763 C 478.995 1.3165 -1.43852 0
M  V30 4764 O 478.265 1.85976 -0.615599 0
M  V30 4765 H 476.845 -0.0118479 -0.746906 0
M  V30 4766 H 479.507 -0.73352 -1.8057 0
M  V30 4767 H 478.603 0.0441254 -3.12069 0
M  V30 4768 N 478.904 1.54736 -0.299062 0
M  V30 4769 C 480.32 1.59507 0.0543849 0
M  V30 4770 C 480.52 1.31606 1.52585 0
M  V30 4771 O 479.576 1.08853 2.27832 0
M  V30 4772 C 480.889 2.98751 -0.34181 0
M  V30 4773 C 482.437 3.1165 -0.290414 0
M  V30 4774 C 482.912 4.53199 -0.661402 0
M  V30 4775 N 484.403 4.59114 -0.613863 0
M  V30 4776 C 485.138 5.66709 -0.873417 0
M  V30 4777 N 484.634 6.82349 -1.19884 0
M  V30 4778 N 486.427 5.56369 -0.800608 0
M  V30 4779 H 478.578 1.71133 -1.25806 0
M  V30 4780 H 480.841 0.799186 -0.509908 0
M  V30 4781 H 480.547 3.24085 -1.36608 0
M  V30 4782 H 480.421 3.75961 0.305508 0
M  V30 4783 H 482.808 2.86066 0.724605 0
M  V30 4784 H 482.889 2.366 -0.972327 0
M  V30 4785 H 482.533 4.79513 -1.67422 0
M  V30 4786 H 482.463 5.26583 0.0425612 0
M  V30 4787 H 484.954 3.76053 -0.3732 0
M  V30 4788 H 485.267 7.60326 -1.38291 0
M  V30 4789 H 483.612 6.83906 -1.23685 0
M  V30 4790 H 486.803 4.64904 -0.546045 0
M  V30 4791 H 486.976 6.40139 -1.00626 0
M  V30 4792 N 480.382 0.0267497 1.57577 0
M  V30 4793 C 481.345 -0.940916 2.08996 0
M  V30 4794 C 482.345 -1.25561 1.00455 0
M  V30 4795 O 483.535 -1.19634 1.26623 0
M  V30 4796 C 480.667 -2.25814 2.55384 0
M  V30 4797 H 481.86 -0.495628 2.95776 0
M  V30 4798 H 479.413 -0.221241 1.54726 0
M  V30 4799 H 480.148 -2.74976 1.71926 0
M  V30 4800 H 479.933 -2.04285 3.34679 0
M  V30 4801 H 481.423 -2.95178 2.95398 0
M  V30 4802 N 481.861 -1.55662 -0.24637 0
M  V30 4803 C 482.791 -1.93377 -1.30873 0
M  V30 4804 C 483.772 -0.798773 -1.50179 0
M  V30 4805 O 484.957 -1.0591 -1.62778 0
M  V30 4806 C 482.087 -2.22893 -2.66338 0
M  V30 4807 C 481.041 -3.38649 -2.61727 0
M  V30 4808 C 480.367 -3.53708 -4.00992 0
M  V30 4809 C 481.667 -4.74323 -2.18666 0
M  V30 4810 H 483.361 -2.82363 -0.995552 0
M  V30 4811 H 480.907 -1.35854 -0.477464 0
M  V30 4812 H 482.86 -2.47866 -3.40794 0
M  V30 4813 H 481.584 -1.30733 -2.99293 0
M  V30 4814 H 480.243 -3.13685 -1.89729 0
M  V30 4815 H 479.891 -2.58967 -4.31214 0
M  V30 4816 H 479.591 -4.31551 -3.98795 0
M  V30 4817 H 481.115 -3.81003 -4.77147 0
M  V30 4818 H 482.529 -4.98665 -2.82854 0
M  V30 4819 H 480.926 -5.55273 -2.27579 0
M  V30 4820 H 481.996 -4.71349 -1.13834 0
M  V30 4821 N 483.339 0.512053 -1.4905 0
M  V30 4822 C 484.587 1.26436 -1.57665 0
M  V30 4823 C 484.908 1.93255 -0.260293 0
M  V30 4824 O 484.178 1.82206 0.719564 0
M  V30 4825 H 482.758 0.469658 -0.580888 0
M  V30 4826 H 485.42 0.594398 -1.85615 0
M  V30 4827 H 484.516 2.03417 -2.36702 0
M  V30 4828 N 484.817 1.37938 0.762283 0
M  V30 4829 C 485.78 1.34279 1.85747 0
M  V30 4830 C 486.78 0.244969 1.58923 0
M  V30 4831 O 487.97 0.501365 1.66829 0
M  V30 4832 C 485.102 1.08833 3.23061 0
M  V30 4833 H 486.295 2.31705 1.90401 0
M  V30 4834 H 483.848 1.23105 0.963057 0
M  V30 4835 H 484.583 0.119767 3.24079 0
M  V30 4836 H 484.368 1.88306 3.43923 0
M  V30 4837 H 485.858 1.08946 4.03138 0
M  V30 4838 N 486.295 -0.989507 1.22664 0
M  V30 4839 C 487.706 -1.54406 1.04955 0
M  V30 4840 C 488.057 -1.92366 -0.385951 0
M  V30 4841 O 487.182 -1.75111 -1.27142 0
M  V30 4842 C 487.777 -2.80578 1.89899 0
M  V30 4843 C 486.336 -3.32464 1.76478 0
M  V30 4844 C 485.483 -2.05524 1.86159 0
M  V30 4845 H 488.434 -0.810211 1.3646 0
M  V30 4846 H 488.455 -3.53075 1.4184 0
M  V30 4847 H 487.967 -2.52918 2.94371 0
M  V30 4848 H 486.068 -3.65024 0.747528 0
M  V30 4849 H 486.181 -4.02838 2.59342 0
M  V30 4850 H 484.545 -2.19241 1.29636 0
M  V30 4851 H 485.328 -1.80258 2.92168 0
M  V30 4852 N 487.773 -1.03688 -1.18687 0
M  V30 4853 C 489.184 -0.766488 -1.70241 0
M  V30 4854 C 489.535 0.713052 -1.82784 0
M  V30 4855 O 488.66 1.55529 -1.50465 0
M  V30 4856 C 489.255 -1.38475 -3.09209 0
M  V30 4857 C 487.814 -1.16276 -3.5799 0
M  V30 4858 C 486.961 -1.4778 -2.34641 0
M  V30 4859 H 489.912 -1.20378 -1.03415 0
M  V30 4860 H 489.933 -0.785939 -3.72295 0
M  V30 4861 H 489.445 -2.46157 -3.00048 0
M  V30 4862 H 487.546 -0.104508 -3.72453 0
M  V30 4863 H 487.659 -1.8571 -4.41643 0
M  V30 4864 H 486.023 -0.897366 -2.38368 0
M  V30 4865 H 486.806 -2.56562 -2.28102 0
M  V30 4866 N 489.251 1.34841 -0.815825 0
M  V30 4867 C 490.479 2.0273 -0.413294 0
M  V30 4868 C 490.894 1.61459 0.978599 0
M  V30 4869 O 490.251 0.816584 1.63212 0
M  V30 4870 C 490.302 3.58058 -0.497676 0
M  V30 4871 O 490.023 3.97832 -1.8347 0
M  V30 4872 C 491.524 4.4321 -0.0891339 0
M  V30 4873 H 488.744 0.649956 -0.166728 0
M  V30 4874 H 491.288 1.72267 -1.10201 0
M  V30 4875 H 489.443 3.87136 0.142886 0
M  V30 4876 H 489.857 4.92501 -1.80396 0
M  V30 4877 H 491.331 5.5164 -0.199274 0
M  V30 4878 H 491.808 4.28432 0.966571 0
M  V30 4879 H 492.414 4.19446 -0.703214 0
M  V30 4880 N 490.729 0.570148 1.46925 0
M  V30 4881 C 491.957 0.0561966 2.06824 0
M  V30 4882 C 492.372 -1.24326 1.42086 0
M  V30 4883 O 491.729 -1.74882 0.521794 0
M  V30 4884 C 491.78 -0.129517 3.61268 0
M  V30 4885 O 491.501 1.1185 4.23581 0
M  V30 4886 C 493.002 -0.679266 4.38065 0
M  V30 4887 H 490.222 0.0517261 0.669003 0
M  V30 4888 H 492.766 0.787243 1.8874 0
M  V30 4889 H 490.921 -0.810739 3.78822 0
M  V30 4890 H 491.335 0.924375 5.1629 0
M  V30 4891 H 492.809 -0.758445 5.46765 0
M  V30 4892 H 493.286 -1.69346 4.05239 0
M  V30 4893 H 493.892 -0.0333237 4.25287 0
M  V30 4894 N 492.207 -1.54576 0.307264 0
M  V30 4895 C 493.17 -2.22423 -0.553224 0
M  V30 4896 C 494.17 -1.21231 -1.05639 0
M  V30 4897 O 495.36 -1.45923 -0.951419 0
M  V30 4898 C 492.492 -2.91552 -1.76664 0
M  V30 4899 H 493.685 -2.99874 0.0396484 0
M  V30 4900 H 491.238 -1.56192 0.0581629 0
M  V30 4901 H 491.973 -2.18196 -2.39918 0
M  V30 4902 H 491.758 -3.65738 -1.41343 0
M  V30 4903 H 493.248 -3.43292 -2.37783 0
M  V30 4904 N 493.685 -0.035106 -1.57561 0
M  V30 4905 C 494.913 0.652258 -1.9635 0
M  V30 4906 C 495.328 1.65317 -0.911897 0
M  V30 4907 O 494.685 1.82194 0.105657 0
M  V30 4908 C 494.736 1.35337 -3.35211 0
M  V30 4909 O 494.457 0.392548 -4.36338 0
M  V30 4910 C 495.958 2.13199 -3.88666 0
M  V30 4911 H 493.178 0.179444 -0.646561 0
M  V30 4912 H 495.722 -0.0966459 -2.04271 0
M  V30 4913 H 493.877 2.05362 -3.28489 0
M  V30 4914 H 494.291 0.891097 -5.16875 0
M  V30 4915 H 495.765 2.577 -4.88154 0
M  V30 4916 H 496.242 2.97353 -3.23231 0
M  V30 4917 H 496.848 1.48118 -3.98674 0
M  V30 4918 N 495.163 1.55791 0.238111 0
M  V30 4919 C 496.126 1.90239 1.27835 0
M  V30 4920 C 497.126 0.779552 1.4064 0
M  V30 4921 O 498.316 1.04747 1.3919 0
M  V30 4922 C 495.448 2.13859 2.65475 0
M  V30 4923 H 496.641 2.83262 0.985034 0
M  V30 4924 H 494.194 1.48818 0.477799 0
M  V30 4925 H 494.929 1.23334 2.99932 0
M  V30 4926 H 494.714 2.95643 2.57561 0
M  V30 4927 H 496.204 2.41664 3.40571 0
M  V30 4928 N 496.642 -0.504142 1.49319 0
M  V30 4929 C 497.89 -1.25598 1.58334 0
M  V30 4930 C 498.211 -1.93114 0.270538 0
M  V30 4931 O 497.481 -1.82585 -0.709891 0
M  V30 4932 H 496.061 -0.466571 0.58337 0
M  V30 4933 H 498.723 -0.584547 1.85928 0
M  V30 4934 H 497.819 -2.02159 2.37778 0
M  V30 4935 N 498.12 -1.38341 -0.754957 0
M  V30 4936 C 499.083 -1.35262 -1.85032 0
M  V30 4937 C 500.083 -0.253393 -1.58791 0
M  V30 4938 O 501.273 -0.510205 -1.66561 0
M  V30 4939 C 498.405 -1.10544 -3.22479 0
M  V30 4940 H 499.598 -2.32712 -1.8917 0
M  V30 4941 H 497.151 -1.23614 -0.956515 0
M  V30 4942 H 497.886 -0.136952 -3.24011 0
M  V30 4943 H 497.671 -1.90127 -3.4292 0
M  V30 4944 H 499.161 -1.11082 -4.02555 0
M  V30 4945 N 499.598 0.982988 -1.23187 0
M  V30 4946 C 500.548 2.05962 -0.977942 0
M  V30 4947 C 501.532 1.60725 0.0751148 0
M  V30 4948 O 502.724 1.76471 -0.136683 0
M  V30 4949 C 499.853 3.38564 -0.568276 0
M  V30 4950 C 498.939 3.90407 -1.6566 0
M  V30 4951 N 499.33 4.15359 -2.88635 0
M  V30 4952 C 497.628 4.18915 -1.53058 0
M  V30 4953 C 498.329 4.57642 -3.5908 0
M  V30 4954 N 497.305 4.6192 -2.86584 0
M  V30 4955 H 501.107 2.23208 -1.91195 0
M  V30 4956 H 498.621 1.16555 -1.13087 0
M  V30 4957 H 500.618 4.15276 -0.36764 0
M  V30 4958 H 499.278 3.22712 0.358713 0
M  V30 4959 H 500.289 4.03258 -3.24966 0
M  V30 4960 H 496.966 4.12081 -0.670506 0
M  V30 4961 H 498.356 4.85488 -4.6449 0
M  V30 4962 N 501.076 1.04316 1.18135 0
M  V30 4963 C 502.039 0.640794 2.2006 0
M  V30 4964 C 503.039 -0.303124 1.57917 0
M  V30 4965 O 504.229 -0.0881855 1.73977 0
M  V30 4966 C 501.361 -0.060148 3.40847 0
M  V30 4967 H 502.554 1.54281 2.57172 0
M  V30 4968 H 500.107 0.836004 1.32063 0
M  V30 4969 H 500.842 -0.975845 3.0927 0
M  V30 4970 H 500.627 0.618319 3.87194 0
M  V30 4971 H 502.117 -0.328082 4.16309 0
M  V30 4972 N 502.554 -1.34406 0.822964 0
M  V30 4973 C 503.831 -1.92733 0.333641 0
M  V30 4974 C 504.211 -1.75107 -1.17901 0
M  V30 4975 O 503.559 -1.12983 -1.98613 0
M  V30 4976 C 503.769 -3.40557 0.763023 0
M  V30 4977 C 505.117 -4.17709 0.761879 0
M  V30 4978 O 506.141 -3.49141 0.705606 0
M  V30 4979 O 505 -5.40082 0.835109 0
M  V30 4980 H 502.094 -0.821964 0.0911249 0
M  V30 4981 H 504.64 -1.4338 0.907757 0
M  V30 4982 H 503.412 -3.47187 1.8049 0
M  V30 4983 H 503.035 -3.97259 0.164605 0
M  V30 4984 N 504.032 -0.577932 -1.46621 0
M  V30 4985 C 504.995 0.147805 -2.28723 0
M  V30 4986 C 505.995 0.823325 -1.38123 0
M  V30 4987 O 507.185 0.676011 -1.60548 0
M  V30 4988 C 504.317 1.21853 -3.18378 0
M  V30 4989 H 505.51 -0.573654 -2.94362 0
M  V30 4990 H 503.063 -0.335703 -1.52652 0
M  V30 4991 H 503.798 1.97173 -2.57475 0
M  V30 4992 H 503.583 0.738714 -3.85078 0
M  V30 4993 H 505.073 1.72768 -3.80186 0
M  V30 4994 N 505.51 1.54411 -0.315457 0
M  V30 4995 C 506.74 2.04536 0.291315 0
M  V30 4996 C 507.148 1.19162 1.4696 0
M  V30 4997 O 506.491 0.213199 1.82459 0
M  V30 4998 C 506.553 3.5056 0.796725 0
M  V30 4999 C 506.217 4.5627 -0.258178 0
M  V30 5000 C 507.214 5.08312 -1.09153 0
M  V30 5001 C 504.899 5.00672 -0.404036 0
M  V30 5002 C 506.893 6.03312 -2.05655 0
M  V30 5003 C 504.58 5.95488 -1.37248 0
M  V30 5004 C 505.578 6.46693 -2.19721 0
M  V30 5005 O 505.266 7.39648 -3.14921 0
M  V30 5006 H 504.998 0.672856 0.0651165 0
M  V30 5007 H 507.552 2.00244 -0.457308 0
M  V30 5008 H 505.782 3.52223 1.59612 0
M  V30 5009 H 507.471 3.83804 1.32096 0
M  V30 5010 H 508.237 4.74793 -0.98979 0
M  V30 5011 H 504.116 4.60436 0.22799 0
M  V30 5012 H 507.66 6.43203 -2.70067 0
M  V30 5013 H 503.557 6.28424 -1.47489 0
M  V30 5014 H 504.325 7.57496 -3.10067 0
M  V30 5015 N 506.988 0.0434614 1.5754 0
M  V30 5016 C 507.918 -0.931651 2.14109 0
M  V30 5017 C 508.899 -1.32971 1.06079 0
M  V30 5018 O 510.084 -1.40579 1.33982 0
M  V30 5019 C 507.214 -2.20914 2.67982 0
M  V30 5020 C 506.168 -1.95139 3.80926 0
M  V30 5021 C 505.494 -3.29276 4.21285 0
M  V30 5022 C 506.794 -1.27913 5.06395 0
M  V30 5023 H 508.488 -0.460497 2.95837 0
M  V30 5024 H 506.034 -0.220058 1.42309 0
M  V30 5025 H 507.987 -2.89522 3.06194 0
M  V30 5026 H 506.711 -2.70221 1.83434 0
M  V30 5027 H 505.37 -1.28945 3.43175 0
M  V30 5028 H 505.018 -3.76369 3.33699 0
M  V30 5029 H 504.718 -3.12831 4.97404 0
M  V30 5030 H 506.242 -3.99129 4.62091 0
M  V30 5031 H 507.656 -1.86544 5.42102 0
M  V30 5032 H 506.053 -1.2182 5.87605 0
M  V30 5033 H 507.123 -0.254066 4.84234 0
M  V30 5034 N 508.466 -1.55915 -0.229846 0
M  V30 5035 C 509.712 -1.79718 -0.952517 0
M  V30 5036 C 510.067 -0.61514 -1.82301 0
M  V30 5037 O 509.36 0.391098 -1.87566 0
M  V30 5038 C 509.554 -3.06845 -1.8325 0
M  V30 5039 C 509.383 -4.37302 -1.04868 0
M  V30 5040 C 508.153 -4.99749 -0.746932 0
M  V30 5041 C 510.351 -5.12599 -0.417989 0
M  V30 5042 N 508.333 -6.13871 0.0591596 0
M  V30 5043 C 509.704 -6.19488 0.251879 0
M  V30 5044 C 511.759 -4.96804 -0.33018 0
M  V30 5045 C 510.462 -7.12299 1.00115 0
M  V30 5046 C 512.488 -5.90007 0.4056 0
M  V30 5047 C 511.85 -6.96317 1.06404 0
M  V30 5048 H 507.949 -0.709382 -0.329091 0
M  V30 5049 H 510.533 -1.93406 -0.224114 0
M  V30 5050 H 508.704 -2.94456 -2.53279 0
M  V30 5051 H 510.436 -3.18874 -2.49202 0
M  V30 5052 H 507.191 -4.61518 -1.06292 0
M  V30 5053 H 507.615 -6.75497 0.450798 0
M  V30 5054 H 512.257 -4.14675 -0.824898 0
M  V30 5055 H 509.975 -7.93916 1.50741 0
M  V30 5056 H 513.561 -5.79862 0.474436 0
M  V30 5057 H 512.441 -7.67194 1.62429 0
M  V30 5058 N 509.944 0.496216 -1.49584 0
M  V30 5059 C 511.193 1.24668 -1.58558 0
M  V30 5060 C 511.506 1.9359 -0.279703 0
M  V30 5061 O 512.712 2.70365 -0.248048 0
M  V30 5062 C 511.168 2.26388 -2.79779 0
M  V30 5063 C 510.776 1.63384 -4.17145 0
M  V30 5064 C 512.52 3.02233 -2.98086 0
M  V30 5065 C 510.427 2.63243 -5.29582 0
M  V30 5066 H 509.357 0.468995 -0.590389 0
M  V30 5067 H 512.008 0.519985 -1.75978 0
M  V30 5068 H 510.39 3.02241 -2.55863 0
M  V30 5069 H 511.564 0.93491 -4.51216 0
M  V30 5070 H 509.879 0.999121 -4.04236 0
M  V30 5071 H 512.476 3.76919 -3.79257 0
M  V30 5072 H 512.819 3.60132 -2.08831 0
M  V30 5073 H 513.352 2.33495 -3.22063 0
M  V30 5074 H 510.091 2.10119 -6.20911 0
M  V30 5075 H 509.611 3.31363 -4.99959 0
M  V30 5076 H 511.29 3.25575 -5.59115 0
M  V30 5077 N 511.423 1.38739 0.74761 0
M  V30 5078 C 512.37 1.36449 1.86146 0
M  V30 5079 C 513.34 0.226098 1.64554 0
M  V30 5080 O 514.525 0.41926 1.86137 0
M  V30 5081 C 511.665 1.2013 3.23516 0
M  V30 5082 C 510.778 2.43407 3.56899 0
M  V30 5083 C 509.913 2.19773 4.83605 0
M  V30 5084 C 508.952 3.3879 5.09792 0
M  V30 5085 N 508.089 3.14553 6.27695 0
M  V30 5086 H 512.929 2.3167 1.87438 0
M  V30 5087 H 510.466 1.15094 0.916063 0
M  V30 5088 H 512.424 1.08683 4.02795 0
M  V30 5089 H 511.054 0.285453 3.21535 0
M  V30 5090 H 510.106 2.65504 2.72418 0
M  V30 5091 H 511.418 3.32094 3.72176 0
M  V30 5092 H 510.572 2.05496 5.70838 0
M  V30 5093 H 509.311 1.28461 4.70478 0
M  V30 5094 H 508.316 3.53579 4.21025 0
M  V30 5095 H 509.541 4.30986 5.24812 0
M  V30 5096 H 507.487 2.25893 6.1588 0
M  V30 5097 H 507.404 3.96791 6.435 0
M  V30 5098 H 508.672 3.03943 7.17801 0
M  V30 5099 N 512.901 -0.976442 1.23707 0
M  V30 5100 C 514.317 -1.24341 1.00058 0
M  V30 5101 C 514.517 -1.99315 -0.295932 0
M  V30 5102 O 513.573 -2.3123 -1.01435 0
M  V30 5103 C 514.886 -2.03909 2.21001 0
M  V30 5104 C 516.434 -2.17034 2.25534 0
M  V30 5105 C 516.909 -2.99994 3.46075 0
M  V30 5106 N 518.4 -3.07578 3.46338 0
M  V30 5107 C 519.135 -3.72104 4.36264 0
M  V30 5108 N 518.631 -4.3842 5.36432 0
M  V30 5109 N 520.424 -3.69029 4.23998 0
M  V30 5110 H 512.575 -0.47428 2.07037 0
M  V30 5111 H 514.838 -0.272167 0.908091 0
M  V30 5112 H 514.544 -1.56198 3.15111 0
M  V30 5113 H 514.418 -3.04654 2.22409 0
M  V30 5114 H 516.805 -2.63951 1.31961 0
M  V30 5115 H 516.886 -1.15664 2.28156 0
M  V30 5116 H 516.53 -2.53772 4.39957 0
M  V30 5117 H 516.46 -4.01541 3.40694 0
M  V30 5118 H 518.951 -2.60397 2.73865 0
M  V30 5119 H 519.264 -4.85447 6.013 0
M  V30 5120 H 517.609 -4.37116 5.40328 0
M  V30 5121 H 520.8 -3.16392 3.44984 0
M  V30 5122 H 520.973 -4.19034 4.94282 0
M  V30 5123 N 514.379 -1.04941 -1.1758 0
M  V30 5124 C 515.79 -0.784501 -1.69418 0
M  V30 5125 C 516.141 0.693625 -1.8353 0
M  V30 5126 O 515.266 1.53925 -1.52106 0
M  V30 5127 C 515.861 -1.41746 -3.07723 0
M  V30 5128 C 514.42 -1.20066 -3.56737 0
M  V30 5129 C 513.567 -1.5026 -2.33061 0
M  V30 5130 H 516.518 -1.21469 -1.02133 0
M  V30 5131 H 516.539 -0.825381 -3.7144 0
M  V30 5132 H 516.051 -2.49325 -2.9742 0
M  V30 5133 H 514.152 -0.144006 -3.72322 0
M  V30 5134 H 514.265 -1.90384 -4.39648 0
M  V30 5135 H 512.629 -0.922598 -2.37403 0
M  V30 5136 H 513.412 -2.58967 -2.25368 0
M  V30 5137 N 515.857 1.33968 -0.830081 0
M  V30 5138 C 517.105 1.97672 -0.420734 0
M  V30 5139 C 517.426 1.66111 1.02138 0
M  V30 5140 O 516.696 0.955503 1.71017 0
M  V30 5141 H 515.276 0.73125 -0.152587 0
M  V30 5142 H 517.938 1.63483 -1.0611 0
M  V30 5143 H 517.034 3.07294 -0.545588 0
M  V30 5144 N 517.335 0.585699 1.46312 0
M  V30 5145 C 518.245 -0.148236 2.34131 0
M  V30 5146 C 519.261 -0.882972 1.49932 0
M  V30 5147 O 520.437 -0.845484 1.82794 0
M  V30 5148 C 517.502 -1.14714 3.27172 0
M  V30 5149 C 516.563 -0.416746 4.27272 0
M  V30 5150 C 515.796 -1.36806 5.15868 0
M  V30 5151 O 516.019 -2.60475 5.07454 0
M  V30 5152 O 514.953 -0.877018 5.95476 0
M  V30 5153 H 518.779 0.572882 2.98248 0
M  V30 5154 H 516.364 0.346082 1.45336 0
M  V30 5155 H 518.246 -1.72303 3.84564 0
M  V30 5156 H 516.921 -1.84967 2.65648 0
M  V30 5157 H 515.828 0.201061 3.73559 0
M  V30 5158 H 517.161 0.244872 4.9159 0
M  V30 5159 N 518.813 -1.54241 0.323641 0
M  V30 5160 C 520.038 -2.05452 -0.283605 0
M  V30 5161 C 520.463 -1.19823 -1.44997 0
M  V30 5162 O 519.821 -0.207358 -1.8011 0
M  V30 5163 C 519.869 -3.53823 -0.695795 0
M  V30 5164 O 518.973 -3.71134 -1.79815 0
M  V30 5165 H 518.314 -0.662024 -0.0511917 0
M  V30 5166 H 520.844 -1.99079 0.472073 0
M  V30 5167 H 520.854 -3.96094 -0.978434 0
M  V30 5168 H 519.529 -4.15602 0.157287 0
M  V30 5169 H 518.106 -3.40768 -1.51431 0
M  V30 5170 N 520.291 -0.0518155 -1.57515 0
M  V30 5171 C 521.568 0.661727 -1.84067 0
M  V30 5172 C 521.948 1.88999 -0.940351 0
M  V30 5173 O 521.296 2.285 -0.00155404 0
M  V30 5174 C 521.506 1.01841 -3.3381 0
M  V30 5175 C 522.854 1.40043 -4.00841 0
M  V30 5176 O 523.878 1.11073 -3.38439 0
M  V30 5177 O 522.737 1.94111 -5.10865 0
M  V30 5178 H 519.831 0.326702 -0.759733 0
M  V30 5179 H 522.377 -0.0812277 -1.69505 0
M  V30 5180 H 521.149 0.145202 -3.91031 0
M  V30 5181 H 520.772 1.81879 -3.53562 0
M  V30 5182 N 521.769 1.56035 0.221574 0
M  V30 5183 C 523.017 1.78693 0.944102 0
M  V30 5184 C 523.338 0.620317 1.8487 0
M  V30 5185 O 522.608 -0.362784 1.92512 0
M  V30 5186 H 521.188 0.659082 0.351597 0
M  V30 5187 H 523.85 1.93497 0.233435 0
M  V30 5188 H 522.946 2.70837 1.55093 0
M  V30 5189 N 523.247 -0.488276 1.49845 0
M  V30 5190 C 524.475 -1.26527 1.63702 0
M  V30 5191 C 524.89 -1.8618 0.313447 0
M  V30 5192 O 524.247 -1.68432 -0.702624 0
M  V30 5193 C 524.298 -2.3864 2.71538 0
M  V30 5194 O 524.019 -1.81437 3.98763 0
M  V30 5195 C 525.52 -3.29805 2.96215 0
M  V30 5196 H 522.74 -0.383295 0.55075 0
M  V30 5197 H 525.284 -0.584779 1.95961 0
M  V30 5198 H 523.439 -3.02496 2.42023 0
M  V30 5199 H 523.853 -2.55135 4.58265 0
M  V30 5200 H 525.327 -4.04722 3.75372 0
M  V30 5201 H 525.804 -3.87563 2.06619 0
M  V30 5202 H 526.41 -2.71703 3.27196 0
M  V30 5203 N 524.725 -1.39134 -0.740242 0
M  V30 5204 C 525.965 -1.37499 -1.51239 0
M  V30 5205 C 526.329 0.0310084 -1.91975 0
M  V30 5206 O 527.53 0.172319 -2.68247 0
M  V30 5207 C 525.801 -2.31566 -2.72235 0
M  V30 5208 S 527.36 -2.48073 -3.61947 0
M  V30 5209 H 524.178 -0.48768 -0.517387 0
M  V30 5210 H 526.78 -1.75183 -0.867826 0
M  V30 5211 H 525.484 -3.32592 -2.40439 0
M  V30 5212 H 525.015 -1.9508 -3.41625 0
M  V30 5213 H 527.03 -1.71473 -4.6563 0
M  V30 5214 N 526.204 0.969867 -1.24223 0
M  V30 5215 C 527.452 1.70918 -1.0785 0
M  V30 5216 C 527.773 1.91186 0.383763 0
M  V30 5217 O 527.043 1.48806 1.27411 0
M  V30 5218 H 525.623 0.633334 -0.396103 0
M  V30 5219 H 528.285 1.16689 -1.56108 0
M  V30 5220 H 527.381 2.69455 -1.57482 0
M  V30 5221 N 527.682 1.05563 1.17022 0
M  V30 5222 C 529.098 0.777684 1.39371 0
M  V30 5223 C 529.298 -0.626269 1.91521 0
M  V30 5224 O 528.354 -1.38806 2.10924 0
M  V30 5225 C 529.667 1.83642 2.3811 0
M  V30 5226 C 531.215 1.85907 2.51809 0
M  V30 5227 C 531.69 2.90813 3.53824 0
M  V30 5228 N 533.181 2.898 3.61345 0
M  V30 5229 C 533.916 3.6762 4.40049 0
M  V30 5230 N 533.412 4.55237 5.22237 0
M  V30 5231 N 535.205 3.56044 4.34959 0
M  V30 5232 H 527.356 1.9614 0.815047 0
M  V30 5233 H 529.619 0.849527 0.420722 0
M  V30 5234 H 529.325 2.84425 2.06871 0
M  V30 5235 H 529.199 1.6812 3.37662 0
M  V30 5236 H 531.586 0.857865 2.82356 0
M  V30 5237 H 531.667 2.05506 1.52318 0
M  V30 5238 H 531.311 3.91122 3.24015 0
M  V30 5239 H 531.241 2.68465 4.53028 0
M  V30 5240 H 533.732 2.26274 3.02669 0
M  V30 5241 H 534.045 5.11291 5.79484 0
M  V30 5242 H 532.39 4.59296 5.21605 0
M  V30 5243 H 535.581 2.86986 3.69806 0
M  V30 5244 H 535.754 4.16938 4.96051 0
M  V30 5245 N 529.16 -1.33526 0.837174 0
M  V30 5246 C 530.408 -1.97446 0.431211 0
M  V30 5247 C 530.729 -1.6665 -1.01255 0
M  V30 5248 O 529.999 -0.964559 -1.70508 0
M  V30 5249 H 528.579 -0.73043 0.156463 0
M  V30 5250 H 531.241 -1.62918 1.06976 0
M  V30 5251 H 530.337 -3.07001 0.561877 0
M  V30 5252 N 530.638 -0.59345 -1.46 0
M  V30 5253 C 531.548 0.135817 -2.34207 0
M  V30 5254 C 532.564 0.875008 -1.50398 0
M  V30 5255 O 533.74 0.835778 -1.83239 0
M  V30 5256 C 530.805 1.12977 -3.27776 0
M  V30 5257 C 529.866 0.394081 -4.27487 0
M  V30 5258 C 529.099 1.34068 -5.16586 0
M  V30 5259 O 529.322 2.5778 -5.08828 0
M  V30 5260 O 528.256 0.845426 -5.95933 0
M  V30 5261 H 532.082 -0.588691 -2.9794 0
M  V30 5262 H 529.667 -0.353784 -1.45151 0
M  V30 5263 H 531.549 1.70261 -3.85473 0
M  V30 5264 H 530.224 1.83556 -2.66625 0
M  V30 5265 H 529.131 -0.220869 -3.73447 0
M  V30 5266 H 530.464 -0.270939 -4.91454 0
M  V30 5267 N 532.116 1.54067 -0.331816 0
M  V30 5268 C 533.527 1.86059 0.15454 0
M  V30 5269 C 533.878 1.25331 1.50952 0
M  V30 5270 O 533.003 0.562441 2.08963 0
M  V30 5271 C 533.598 3.37581 0.287192 0
M  V30 5272 C 532.157 3.69493 0.717773 0
M  V30 5273 C 531.304 2.76863 -0.155569 0
M  V30 5274 H 534.255 1.48797 -0.55182 0
M  V30 5275 H 534.276 3.63744 1.11671 0
M  V30 5276 H 533.788 3.81751 -0.699131 0
M  V30 5277 H 531.889 3.3086 1.71354 0
M  V30 5278 H 532.002 4.76315 0.5158 0
M  V30 5279 H 530.366 2.51995 0.370213 0
M  V30 5280 H 531.149 3.23861 -1.13881 0
M  V30 5281 N 533.594 0.0601682 1.57485 0
M  V30 5282 C 534.526 -0.94047 2.09016 0
M  V30 5283 C 535.539 -1.26897 1.01985 0
M  V30 5284 O 536.728 -1.22819 1.29529 0
M  V30 5285 C 533.828 -2.25955 2.52582 0
M  V30 5286 C 533.001 -2.11163 3.83052 0
M  V30 5287 C 532.06 -3.26273 4.12835 0
M  V30 5288 O 531.086 -3.01779 4.82616 0
M  V30 5289 N 532.288 -4.51022 3.65458 0
M  V30 5290 H 535.053 -0.500578 2.9549 0
M  V30 5291 H 532.614 -0.125852 1.6141 0
M  V30 5292 H 534.606 -3.01846 2.69575 0
M  V30 5293 H 533.176 -2.61481 1.71308 0
M  V30 5294 H 532.396 -1.19808 3.75552 0
M  V30 5295 H 533.684 -1.98517 4.68475 0
M  V30 5296 H 533.082 -4.73811 3.09062 0
M  V30 5297 H 531.639 -5.23978 3.87673 0
M  V30 5298 N 535.072 -1.5615 -0.213296 0
M  V30 5299 C 536.035 -1.92249 -1.24792 0
M  V30 5300 C 537.035 -0.801828 -1.39382 0
M  V30 5301 O 538.225 -1.06948 -1.37506 0
M  V30 5302 C 535.357 -2.18056 -2.62039 0
M  V30 5303 H 536.55 -2.84793 -0.939845 0
M  V30 5304 H 534.103 -1.49559 -0.454062 0
M  V30 5305 H 534.838 -1.2809 -2.97932 0
M  V30 5306 H 534.623 -2.99703 -2.52825 0
M  V30 5307 H 536.113 -2.47051 -3.36683 0
M  V30 5308 N 536.55 0.480323 -1.50102 0
M  V30 5309 C 537.798 1.23063 -1.60312 0
M  V30 5310 C 538.119 1.92659 -0.301226 0
M  V30 5311 O 537.389 1.83691 0.680753 0
M  V30 5312 H 535.969 0.457231 -0.590719 0
M  V30 5313 H 538.631 0.554893 -1.86834 0
M  V30 5314 H 537.727 1.9835 -2.40964 0
M  V30 5315 N 538.028 1.39524 0.732853 0
M  V30 5316 C 539.444 1.21176 1.03868 0
M  V30 5317 C 539.644 0.0748448 2.01361 0
M  V30 5318 O 538.7 -0.57281 2.45917 0
M  V30 5319 C 540.013 2.54667 1.59892 0
M  V30 5320 C 541.561 2.6153 1.71962 0
M  V30 5321 C 542.036 3.95248 2.31394 0
M  V30 5322 N 543.527 3.96899 2.38801 0
M  V30 5323 C 544.262 4.97138 2.85729 0
M  V30 5324 N 543.758 6.07775 3.32537 0
M  V30 5325 N 545.551 4.84516 2.84957 0
M  V30 5326 H 537.702 2.12225 0.086304 0
M  V30 5327 H 539.965 0.942614 0.100907 0
M  V30 5328 H 539.671 3.38423 0.95721 0
M  V30 5329 H 539.545 2.74538 2.58668 0
M  V30 5330 H 541.932 1.78156 2.35254 0
M  V30 5331 H 542.013 2.45507 0.718327 0
M  V30 5332 H 541.657 4.79054 1.68729 0
M  V30 5333 H 541.587 4.08593 3.32204 0
M  V30 5334 H 544.078 3.16998 2.05719 0
M  V30 5335 H 544.391 6.8017 3.66862 0
M  V30 5336 H 542.736 6.11366 3.30541 0
M  V30 5337 H 545.927 3.97185 2.47713 0
M  V30 5338 H 546.1 5.62783 3.21215 0
M  V30 5339 N 539.506 -0.963266 1.24736 0
M  V30 5340 C 540.753 -1.7068 1.0897 0
M  V30 5341 C 541.081 -1.90934 -0.370751 0
M  V30 5342 O 540.336 -1.47155 -1.29011 0
M  V30 5343 C 540.635 -3.09944 1.7796 0
M  V30 5344 C 540.301 -3.09518 3.27887 0
M  V30 5345 C 538.963 -3.09109 3.68789 0
M  V30 5346 C 541.315 -3.03509 4.23712 0
M  V30 5347 C 538.643 -3.00429 5.03944 0
M  V30 5348 C 540.995 -2.96371 5.5888 0
M  V30 5349 C 539.659 -2.94293 5.99123 0
M  V30 5350 H 538.929 -0.624564 0.398749 0
M  V30 5351 H 541.576 -1.12603 1.54896 0
M  V30 5352 H 539.881 -3.71513 1.2444 0
M  V30 5353 H 541.578 -3.66278 1.63222 0
M  V30 5354 H 538.168 -3.10603 2.95337 0
M  V30 5355 H 542.352 -3.0295 3.93109 0
M  V30 5356 H 537.608 -2.97183 5.34314 0
M  V30 5357 H 541.782 -2.90681 6.32833 0
M  V30 5358 H 539.409 -2.87322 7.03811 0
M  V30 5359 N 540.985 -1.06182 -1.16461 0
M  V30 5360 C 542.231 -0.779015 -1.87241 0
M  V30 5361 C 542.564 0.692715 -1.81425 0
M  V30 5362 O 541.839 1.5074 -1.22913 0
M  V30 5363 C 542.122 -1.2728 -3.36856 0
M  V30 5364 C 541.975 -2.80821 -3.51368 0
M  V30 5365 C 543.294 -0.879799 -4.31216 0
M  V30 5366 H 540.413 -0.284464 -0.679889 0
M  V30 5367 H 543.055 -1.31755 -1.36896 0
M  V30 5368 H 541.205 -0.814673 -3.79862 0
M  V30 5369 H 542.877 -3.34833 -3.17308 0
M  V30 5370 H 541.12 -3.19606 -2.93316 0
M  V30 5371 H 541.791 -3.10435 -4.56436 0
M  V30 5372 H 544.267 -1.27436 -3.96105 0
M  V30 5373 H 543.143 -1.25278 -5.34412 0
M  V30 5374 H 543.404 0.215372 -4.41575 0
M  V30 5375 N 542.463 1.3308 -0.844243 0
M  V30 5376 C 543.688 2.02341 -0.455282 0
M  V30 5377 C 544.113 1.6308 0.93737 0
M  V30 5378 O 543.471 0.826118 1.61385 0
M  V30 5379 C 543.519 3.55743 -0.58988 0
M  V30 5380 O 542.623 4.1063 0.38166 0
M  V30 5381 H 541.964 0.637898 -0.184343 0
M  V30 5382 H 544.494 1.6986 -1.14056 0
M  V30 5383 H 544.504 4.05243 -0.473522 0
M  V30 5384 H 543.179 3.83662 -1.60549 0
M  V30 5385 H 541.756 3.72236 0.22241 0
M  V30 5386 N 543.941 0.601185 1.45683 0
M  V30 5387 C 544.873 -0.159446 2.28645 0
M  V30 5388 C 545.886 -0.837882 1.39583 0
M  V30 5389 O 547.075 -0.704344 1.64016 0
M  V30 5390 C 544.175 -1.24641 3.15147 0
M  V30 5391 C 543.348 -0.656334 4.32448 0
M  V30 5392 C 542.407 -1.63337 5.00208 0
M  V30 5393 O 541.433 -1.16217 5.57209 0
M  V30 5394 N 542.635 -2.96773 4.98905 0
M  V30 5395 H 545.4 0.5524 2.94565 0
M  V30 5396 H 542.961 0.440223 1.558 0
M  V30 5397 H 544.953 -1.8997 3.57342 0
M  V30 5398 H 543.523 -1.86087 2.51178 0
M  V30 5399 H 542.743 0.174879 3.93812 0
M  V30 5400 H 544.031 -0.242211 5.08223 0
M  V30 5401 H 543.429 -3.37662 4.53873 0
M  V30 5402 H 541.986 -3.57541 5.44984 0
M  V30 5403 N 545.419 -1.53889 0.339982 0
M  V30 5404 C 546.649 -2.04973 -0.258738 0
M  V30 5405 C 547.057 -1.21485 -1.45045 0
M  V30 5406 O 546.4 -0.2422 -1.82096 0
M  V30 5407 C 546.462 -3.51783 -0.740853 0
M  V30 5408 C 546.126 -4.55802 0.330734 0
M  V30 5409 C 547.123 -5.06512 1.17226 0
M  V30 5410 C 544.808 -4.99966 0.483637 0
M  V30 5411 C 546.802 -5.99963 2.15227 0
M  V30 5412 C 544.489 -5.93229 1.46704 0
M  V30 5413 C 545.487 -6.43115 2.29981 0
M  V30 5414 O 545.175 -7.34545 3.26649 0
M  V30 5415 H 544.907 -0.673807 -0.0544037 0
M  V30 5416 H 547.461 -1.99492 0.489107 0
M  V30 5417 H 545.691 -3.54717 -1.53988 0
M  V30 5418 H 547.38 -3.85857 -1.25973 0
M  V30 5419 H 548.146 -4.73158 1.0652 0
M  V30 5420 H 544.025 -4.6074 -0.15471 0
M  V30 5421 H 547.569 -6.38825 2.80265 0
M  V30 5422 H 543.466 -6.25998 1.57468 0
M  V30 5423 H 544.234 -7.52468 3.22078 0
M  V30 5424 N 546.897 -0.0685191 -1.57451 0
M  V30 5425 C 547.86 0.885173 -2.11417 0
M  V30 5426 C 548.86 1.22853 -1.03748 0
M  V30 5427 O 550.05 1.16235 -1.2975 0
M  V30 5428 C 547.182 2.18964 -2.61281 0
M  V30 5429 H 548.375 0.417034 -2.96986 0
M  V30 5430 H 545.928 0.18014 -1.55258 0
M  V30 5431 H 546.663 2.70321 -1.79156 0
M  V30 5432 H 546.448 1.9534 -3.39977 0
M  V30 5433 H 547.938 2.87242 -3.0312 0
M  V30 5434 N 548.375 1.56261 0.205012 0
M  V30 5435 C 549.624 1.79236 0.925058 0
M  V30 5436 C 549.937 0.640011 1.84833 0
M  V30 5437 O 551.143 0.753809 2.60826 0
M  V30 5438 C 549.599 3.17475 1.69522 0
M  V30 5439 C 549.207 4.40482 0.817269 0
M  V30 5440 C 550.951 3.49766 2.4055 0
M  V30 5441 C 548.858 5.69744 1.58573 0
M  V30 5442 H 547.788 0.668287 0.349153 0
M  V30 5443 H 550.439 1.82629 0.178544 0
M  V30 5444 H 548.821 3.08304 2.48526 0
M  V30 5445 H 549.995 4.60752 0.0665988 0
M  V30 5446 H 548.31 4.15827 0.218316 0
M  V30 5447 H 550.907 4.43573 2.98575 0
M  V30 5448 H 551.25 2.73041 3.14252 0
M  V30 5449 H 551.783 3.60341 1.68522 0
M  V30 5450 H 548.522 6.49407 0.891679 0
M  V30 5451 H 548.042 5.53509 2.31059 0
M  V30 5452 H 549.721 6.1051 2.14212 0
M  V30 5453 N 549.853 -0.472356 1.50355 0
M  V30 5454 C 551.13 -1.23356 1.51798 0
M  V30 5455 C 551.51 -2.09469 0.26193 0
M  V30 5456 O 550.858 -2.15677 -0.754691 0
M  V30 5457 C 551.068 -2.06568 2.81302 0
M  V30 5458 C 552.416 -2.648 3.31913 0
M  V30 5459 O 553.44 -2.16812 2.82614 0
M  V30 5460 O 552.299 -3.52231 4.17846 0
M  V30 5461 H 549.393 -0.559707 0.608816 0
M  V30 5462 H 551.939 -0.48428 1.62643 0
M  V30 5463 H 550.711 -1.43103 3.64194 0
M  V30 5464 H 550.334 -2.88633 2.73454 0
M  V30 5465 N 551.331 -1.39911 -0.725443 0
M  V30 5466 C 552.261 -1.42138 -1.85254 0
M  V30 5467 C 553.242 -0.283513 -1.67721 0
M  V30 5468 O 554.427 -0.490717 -1.87898 0
M  V30 5469 C 551.557 -1.27354 -3.23107 0
M  V30 5470 C 550.511 -2.3864 -3.55296 0
M  V30 5471 C 549.837 -2.08939 -4.92188 0
M  V30 5472 C 551.137 -3.8097 -3.57295 0
M  V30 5473 H 552.831 -2.36461 -1.83648 0
M  V30 5474 H 550.377 -1.13817 -0.882138 0
M  V30 5475 H 552.33 -1.2753 -4.01639 0
M  V30 5476 H 551.054 -0.295025 -3.25265 0
M  V30 5477 H 549.713 -2.37696 -2.79099 0
M  V30 5478 H 549.361 -1.09502 -4.90936 0
M  V30 5479 H 549.061 -2.83491 -5.14691 0
M  V30 5480 H 550.585 -2.10781 -5.73065 0
M  V30 5481 H 551.999 -3.8379 -4.25885 0
M  V30 5482 H 550.396 -4.5496 -3.9132 0
M  V30 5483 H 551.466 -4.11261 -2.5689 0
M  V30 5484 N 552.809 0.956637 -1.25245 0
M  V30 5485 C 553.772 2.03457 -1.05537 0
M  V30 5486 C 554.772 1.60798 -0.00886317 0
M  V30 5487 O 555.962 1.72384 -0.250865 0
M  V30 5488 C 553.094 3.35543 -0.601965 0
M  V30 5489 H 554.287 2.22372 -2.01223 0
M  V30 5490 H 551.84 1.13344 -1.07623 0
M  V30 5491 H 552.575 3.22323 0.357584 0
M  V30 5492 H 552.36 3.67854 -1.35743 0
M  V30 5493 H 553.85 4.14769 -0.485454 0
M  V30 5494 N 554.287 1.06798 1.15896 0
M  V30 5495 C 555.237 0.653213 2.18443 0
M  V30 5496 C 556.221 -0.318763 1.57711 0
M  V30 5497 O 557.413 -0.133388 1.76497 0
M  V30 5498 C 554.542 0.0465785 3.43268 0
M  V30 5499 C 553.628 1.04336 4.11066 0
M  V30 5500 N 554.019 2.22084 4.54436 0
M  V30 5501 C 552.317 0.875433 4.37324 0
M  V30 5502 C 553.018 2.85276 5.06944 0
M  V30 5503 N 551.994 2.12973 5.00143 0
M  V30 5504 H 555.796 1.55011 2.49698 0
M  V30 5505 H 553.31 0.940384 1.32403 0
M  V30 5506 H 555.307 -0.26843 4.16035 0
M  V30 5507 H 553.967 -0.845504 3.13499 0
M  V30 5508 H 554.978 2.59833 4.48004 0
M  V30 5509 H 551.655 0.0357721 4.17485 0
M  V30 5510 H 553.045 3.85223 5.50503 0
M  V30 5511 N 555.766 -1.3263 0.851289 0
M  V30 5512 C 556.714 -2.30882 0.282202 0
M  V30 5513 C 557.708 -1.58697 -0.592589 0
M  V30 5514 O 558.914 -1.73461 -0.480768 0
M  V30 5515 H 555.289 -0.748492 0.0725487 0
M  V30 5516 H 557.26 -2.76374 1.12516 0
M  V30 5517 C 556.009 -3.43828 -0.517449 0
M  V30 5518 H 555.332 -3.99532 0.146392 0
M  V30 5519 H 556.772 -4.1474 -0.88128 0
M  V30 5520 C 555.231 -2.90786 -1.70133 0
M  V30 5521 O 555.761 -2.88 -2.80034 0
M  V30 5522 N 553.967 -2.4723 -1.52728 0
M  V30 5523 H 553.514 -2.49695 -0.633257 0
M  V30 5524 H 553.472 -2.12094 -2.32085 0
M  V30 5525 N 557.244 -0.608902 -1.45362 0
M  V30 5526 C 558.207 0.0992563 -2.28985 0
M  V30 5527 C 559.207 0.793841 -1.39838 0
M  V30 5528 O 560.397 0.641804 -1.61946 0
M  V30 5529 C 557.529 1.15073 -3.20891 0
M  V30 5530 H 558.722 -0.635964 -2.93079 0
M  V30 5531 H 556.275 -0.368007 -1.51906 0
M  V30 5532 H 557.01 1.91667 -2.616 0
M  V30 5533 H 556.795 0.656867 -3.86559 0
M  V30 5534 H 558.285 1.64665 -3.83765 0
M  V30 5535 N 558.722 1.53707 -0.348139 0
M  V30 5536 C 559.97 2.00591 0.246478 0
M  V30 5537 C 560.291 1.23753 1.50699 0
M  V30 5538 O 559.561 0.345964 1.92821 0
M  V30 5539 H 558.141 0.741053 0.0940679 0
M  V30 5540 H 560.803 1.89139 -0.470354 0
M  V30 5541 H 559.899 3.08297 0.485714 0
M  V30 5542 N 560.2 0.0768682 1.57412 0
M  V30 5543 C 561.132 -0.918248 2.10002 0
M  V30 5544 C 562.145 -1.25808 1.03325 0
M  V30 5545 O 563.334 -1.21438 1.30824 0
M  V30 5546 C 560.434 -2.23263 2.54964 0
M  V30 5547 C 559.607 -2.07088 3.8527 0
M  V30 5548 C 558.666 -3.21876 4.16272 0
M  V30 5549 O 557.692 -2.96643 4.8579 0
M  V30 5550 N 558.894 -4.4712 3.70221 0
M  V30 5551 H 561.659 -0.469209 2.96004 0
M  V30 5552 H 559.22 -0.108725 1.61535 0
M  V30 5553 H 561.212 -2.9897 2.72762 0
M  V30 5554 H 559.782 -2.59649 1.74072 0
M  V30 5555 H 559.002 -1.15818 3.76802 0
M  V30 5556 H 560.29 -1.93537 4.70554 0
M  V30 5557 H 559.688 -4.70506 3.1407 0
M  V30 5558 H 558.245 -5.19837 3.93209 0
M  V30 5559 O 561.717 -1.61375 -0.0636308 0
M  V30 5560 H 562.408 -1.81049 -0.688533 0
M  V30 END ATOM
M  V30 BEGIN BOND
M  V30 END BOND
M  V30 END CTAB
M  END
$$$$
