drugbank_target|Q7AUG5 2,3-dichloro-1-propanol dehalogenase (DB04782)
 OpenBabel12092120303D

  0  0  0     0  0            999 V3000
M  V30 BEGIN CTAB
M  V30 COUNTS 3895 3949 0 0 0
M  V30 BEGIN ATOM
M  V30 1 H -0.908 1.98254 -0.117106 0
M  V30 2 N 0 1.576 0 0
M  V30 3 C 0.933 2.03868 1.02534 0
M  V30 4 C 1.911 0.928543 1.3348 0
M  V30 5 O 3.095 1.19667 1.45644 0
M  V30 6 C 0.222 2.43627 2.35294 0
M  V30 7 C -0.732 3.65373 2.2001 0
M  V30 8 S 0.101 5.13292 1.52614 0
M  V30 9 C 1.257 5.56322 2.86805 0
M  V30 10 H 1.49 2.90518 0.631377 0
M  V30 11 H -0.977 1.52953 0.210867 0
M  V30 12 H 0.981 2.67203 3.11629 0
M  V30 13 H -0.358 1.57376 2.7183 0
M  V30 14 H -1.165 3.90944 3.18086 0
M  V30 15 H -1.563 3.418 1.51819 0
M  V30 16 H 0.729 5.58782 3.83104 0
M  V30 17 H 1.672 6.56266 2.65933 0
M  V30 18 H 2.08 4.83886 2.90714 0
M  V30 19 N 1.4781 -0.272755 1.55222 0
M  V30 20 C 2.7031 -1.02683 1.80197 0
M  V30 21 C 3.1281 -1.79142 0.573551 0
M  V30 22 O 2.4861 -1.74917 -0.476849 0
M  V30 23 C 2.5341 -1.9609 3.02624 0
M  V30 24 O 1.6381 -3.04863 2.77727 0
M  V30 25 H 0.9791 -0.293557 0.595584 0
M  V30 26 H 3.5091 -0.30159 2.02365 0
M  V30 27 H 3.5191 -2.38039 3.31363 0
M  V30 28 H 2.1941 -1.39851 3.91682 0
M  V30 29 H 0.7711 -2.67228 2.60084 0
M  V30 30 N 2.9562 -1.48159 -0.537278 0
M  V30 31 C 4.1842 -1.59454 -1.31841 0
M  V30 32 C 4.5992 -0.252065 -1.8711 0
M  V30 33 O 3.9562 0.757621 -1.66031 0
M  V30 34 C 4.0072 -2.63546 -2.47439 0
M  V30 35 O 3.7282 -3.92583 -1.94449 0
M  V30 36 C 5.2292 -2.85212 -3.39366 0
M  V30 37 H 2.4492 -0.53785 -0.401196 0
M  V30 38 H 4.9932 -1.93932 -0.648891 0
M  V30 39 H 3.1482 -2.31946 -3.1029 0
M  V30 40 H 3.5622 -4.49629 -2.70063 0
M  V30 41 H 5.0362 -3.61863 -4.16844 0
M  V30 42 H 5.5132 -1.93765 -3.94147 0
M  V30 43 H 6.1192 -3.18086 -2.82314 0
M  V30 44 N 4.4343 0.785586 -1.36625 0
M  V30 45 C 5.3973 1.87999 -1.31107 0
M  V30 46 C 6.3973 1.59316 -0.217959 0
M  V30 47 O 7.5873 1.67656 -0.472977 0
M  V30 48 C 4.7193 3.24861 -1.03334 0
M  V30 49 H 5.9123 1.94307 -2.2844 0
M  V30 50 H 3.4653 0.983813 -1.21453 0
M  V30 51 H 4.2003 3.24235 -0.0647432 0
M  V30 52 H 3.9853 3.4707 -1.82441 0
M  V30 53 H 5.4753 4.04929 -1.02088 0
M  V30 54 N 5.9124 1.20967 1.01018 0
M  V30 55 C 7.1614 1.01796 1.74128 0
M  V30 56 C 7.4744 -0.449691 1.90361 0
M  V30 57 O 8.6804 -0.76068 2.60626 0
M  V30 58 C 7.1364 1.7727 3.13215 0
M  V30 59 C 6.7444 3.28171 3.04972 0
M  V30 60 C 8.4884 1.66489 3.90489 0
M  V30 61 C 6.3954 3.96156 4.39107 0
M  V30 62 H 5.3254 0.377276 0.652824 0
M  V30 63 H 7.9764 1.44651 1.12909 0
M  V30 64 H 6.3584 1.27205 3.75013 0
M  V30 65 H 7.5324 3.85499 2.52443 0
M  V30 66 H 5.8474 3.39437 2.41188 0
M  V30 67 H 8.4444 2.14617 4.89738 0
M  V30 68 H 8.7874 0.6222 4.11624 0
M  V30 69 H 9.3204 2.14003 3.35332 0
M  V30 70 H 6.0594 5.00604 4.23174 0
M  V30 71 H 5.5794 3.43617 4.91617 0
M  V30 72 H 7.2584 4.00774 5.07926 0
M  V30 73 N 7.3905 -1.2043 1.01659 0
M  V30 74 C 8.6365 -1.90079 0.706963 0
M  V30 75 C 8.9695 -1.78648 -0.761474 0
M  V30 76 O 8.2445 -1.17069 -1.55323 0
M  V30 77 C 8.5275 -3.41469 1.14327 0
M  V30 78 C 8.3805 -3.61833 2.67201 0
M  V30 79 C 9.6995 -4.34261 0.714529 0
M  V30 80 H 6.8185 -0.690254 0.2583 0
M  V30 81 H 9.4605 -1.41826 1.26433 0
M  V30 82 H 7.6105 -3.82696 0.669056 0
M  V30 83 H 9.2825 -3.2986 3.22475 0
M  V30 84 H 7.5255 -3.05304 3.08175 0
M  V30 85 H 8.1965 -4.67955 2.92783 0
M  V30 86 H 10.6725 -4.00682 1.12221 0
M  V30 87 H 9.5485 -5.38806 1.04784 0
M  V30 88 H 9.8095 -4.40431 -0.383799 0
M  V30 89 N 8.8686 -0.792821 -1.36206 0
M  V30 90 C 10.0966 -0.378825 -2.03402 0
M  V30 91 C 10.5116 1.00586 -1.59774 0
M  V30 92 O 9.8686 1.64574 -0.788764 0
M  V30 93 C 9.9196 -0.43683 -3.58851 0
M  V30 94 O 9.6406 -1.76691 -4.00889 0
M  V30 95 C 11.1416 -0.0138943 -4.43298 0
M  V30 96 H 8.3616 -0.155673 -0.652692 0
M  V30 97 H 10.9056 -1.07261 -1.74113 0
M  V30 98 H 9.0606 0.208575 -3.86838 0
M  V30 99 H 9.4746 -1.72011 -4.95492 0
M  V30 100 H 10.9486 -0.105615 -5.51899 0
M  V30 101 H 11.4256 1.03915 -4.2673 0
M  V30 102 H 12.0316 -0.63192 -4.20579 0
M  V30 103 N 10.3467 1.47872 -0.545128 0
M  V30 104 C 11.2947 2.31533 0.222512 0
M  V30 105 C 12.2887 1.42177 0.920985 0
M  V30 106 O 13.4947 1.59005 0.843645 0
M  V30 107 H 9.8697 0.746519 0.0906278 0
M  V30 108 H 11.8407 2.94139 -0.50246 0
M  V30 109 C 10.5897 3.2457 1.24699 0
M  V30 110 H 9.9127 3.93283 0.718944 0
M  V30 111 H 11.3527 3.85963 1.75523 0
M  V30 112 C 9.8117 2.47237 2.28856 0
M  V30 113 O 10.3417 2.20808 3.35569 0
M  V30 114 N 8.5477 2.08461 2.02466 0
M  V30 115 H 8.0947 2.30155 1.157 0
M  V30 116 H 8.0527 1.57033 2.72375 0
M  V30 117 N 11.8248 0.280983 1.55075 0
M  V30 118 C 13.0708 -0.33461 2.00021 0
M  V30 119 C 13.4038 -1.55063 1.16915 0
M  V30 120 O 12.6788 -1.93006 0.240646 0
M  V30 121 C 12.9618 -0.711007 3.53011 0
M  V30 122 C 12.8148 0.512766 4.46868 0
M  V30 123 C 14.1338 -1.54522 4.12081 0
M  V30 124 H 11.2528 -0.120147 0.727141 0
M  V30 125 H 13.8948 0.389097 1.85973 0
M  V30 126 H 12.0448 -1.32761 3.65112 0
M  V30 127 H 13.7168 1.15131 4.46702 0
M  V30 128 H 11.9598 1.14975 4.18286 0
M  V30 129 H 12.6308 0.205556 5.51617 0
M  V30 130 H 15.1068 -1.02442 4.03293 0
M  V30 131 H 13.9828 -1.77739 5.19327 0
M  V30 132 H 14.2438 -2.52813 3.62682 0
M  V30 133 N 13.3029 -1.57598 0.00835791 0
M  V30 134 C 14.2499 -2.08945 -0.980346 0
M  V30 135 C 15.2199 -0.986738 -1.33614 0
M  V30 136 O 16.4049 -1.25968 -1.43306 0
M  V30 137 C 13.5449 -2.60425 -2.26435 0
M  V30 138 C 12.6579 -3.84628 -1.96685 0
M  V30 139 C 11.7929 -4.24579 -3.19228 0
M  V30 140 C 10.8319 -5.41596 -2.85202 0
M  V30 141 N 9.9689 -5.768 -4.00307 0
M  V30 142 H 14.8089 -2.93148 -0.535551 0
M  V30 143 H 12.3459 -1.44912 -0.252776 0
M  V30 144 H 14.3039 -2.88354 -3.01509 0
M  V30 145 H 12.9339 -1.79083 -2.68568 0
M  V30 146 H 11.9859 -3.63556 -1.11942 0
M  V30 147 H 13.2979 -4.69796 -1.67611 0
M  V30 148 H 12.4519 -4.53834 -4.02641 0
M  V30 149 H 11.1909 -3.38137 -3.51447 0
M  V30 150 H 10.1959 -5.12056 -2.00198 0
M  V30 151 H 11.4209 -6.29721 -2.54222 0
M  V30 152 H 9.3669 -4.93316 -4.32407 0
M  V30 153 H 9.2839 -6.5656 -3.74786 0
M  V30 154 H 10.5519 -6.10652 -4.84484 0
M  V30 155 N 14.781 0.264519 -1.55364 0
M  V30 156 C 15.731 1.32966 -1.85214 0
M  V30 157 C 16.715 1.44306 -0.711653 0
M  V30 158 O 17.907 1.47844 -0.973192 0
M  V30 159 C 15.036 2.68839 -2.13495 0
M  V30 160 C 14.122 2.61575 -3.33825 0
M  V30 161 N 14.513 2.23933 -4.53528 0
M  V30 162 C 12.811 2.92621 -3.36584 0
M  V30 163 C 13.512 2.26868 -5.35636 0
M  V30 164 N 12.488 2.65677 -4.74254 0
M  V30 165 H 16.29 1.02884 -2.75304 0
M  V30 166 H 13.804 0.473157 -1.55354 0
M  V30 167 H 15.801 3.45685 -2.33039 0
M  V30 168 H 14.461 2.99802 -1.24694 0
M  V30 169 H 15.472 1.95769 -4.79474 0
M  V30 170 H 12.149 3.2824 -2.58002 0
M  V30 171 H 13.539 2.00254 -6.41364 0
M  V30 172 N 16.2591 1.48442 0.529413 0
M  V30 173 C 17.5061 1.56488 1.28521 0
M  V30 174 C 17.8341 0.239042 1.93025 0
M  V30 175 O 17.0891 -0.770713 1.79885 0
M  V30 176 C 17.3881 2.6523 2.39558 0
M  V30 177 C 17.0541 4.07648 1.92702 0
M  V30 178 C 15.7161 4.46411 1.79641 0
M  V30 179 C 18.0681 4.96896 1.573 0
M  V30 180 C 15.3961 5.72226 1.29514 0
M  V30 181 C 17.7481 6.23202 1.08636 0
M  V30 182 C 16.4121 6.60821 0.941919 0
M  V30 183 H 15.6821 0.572631 0.470292 0
M  V30 184 H 18.3291 1.82161 0.59072 0
M  V30 185 H 16.6341 2.33419 3.14679 0
M  V30 186 H 18.3311 2.68671 2.97686 0
M  V30 187 H 14.9211 3.77036 2.03819 0
M  V30 188 H 19.1051 4.67626 1.66251 0
M  V30 189 H 14.3611 6.00097 1.17019 0
M  V30 190 H 18.5351 6.91753 0.803136 0
M  V30 191 H 16.1621 7.58198 0.5513 0
M  V30 192 N 17.7372 -0.778329 1.37039 0
M  V30 193 C 18.9852 -1.53361 1.31623 0
M  V30 194 C 19.3062 -1.94739 -0.100831 0
M  V30 195 O 18.5762 -1.65797 -1.04347 0
M  V30 196 H 17.1562 -0.568794 0.484234 0
M  V30 197 H 19.8182 -0.926742 1.71457 0
M  V30 198 H 18.9142 -2.43606 1.95096 0
M  V30 199 N 19.2153 -1.21501 -1.00376 0
M  V30 200 C 20.4633 -1.03095 -1.73827 0
M  V30 201 C 20.7843 0.436341 -1.90055 0
M  V30 202 O 20.0543 1.31466 -1.45236 0
M  V30 203 H 18.6343 -0.378487 -0.644016 0
M  V30 204 H 21.2963 -1.52831 -1.20949 0
M  V30 205 H 20.3923 -1.49991 -2.73695 0
M  V30 206 N 20.6934 1.19889 -1.02296 0
M  V30 207 C 21.6264 2.21639 -0.543282 0
M  V30 208 C 22.6044 1.57275 0.412698 0
M  V30 209 O 23.7884 1.85568 0.331198 0
M  V30 210 C 20.9154 3.38057 0.208571 0
M  V30 211 C 19.9614 4.20751 -0.697933 0
M  V30 212 S 20.7944 4.89529 -2.17075 0
M  V30 213 C 21.9504 6.09363 -1.42923 0
M  V30 214 H 22.1834 2.61984 -1.40541 0
M  V30 215 H 19.7164 1.30041 -0.832387 0
M  V30 216 H 21.6744 4.05539 0.63624 0
M  V30 217 H 20.3354 2.96159 1.04635 0
M  V30 218 H 19.5284 5.03862 -0.117831 0
M  V30 219 H 19.1304 3.58556 -1.06366 0
M  V30 220 H 21.4224 6.73742 -0.712637 0
M  V30 221 H 22.3654 6.71845 -2.23673 0
M  V30 222 H 22.7734 5.56798 -0.929327 0
M  V30 223 N 22.1715 0.800033 1.35784 0
M  V30 224 C 23.4195 0.376597 1.9856 0
M  V30 225 C 23.7405 -1.05812 1.63795 0
M  V30 226 O 23.0105 -1.73103 0.917171 0
M  V30 227 H 21.5905 0.136261 0.734467 0
M  V30 228 H 24.2525 1.02442 1.65806 0
M  V30 229 H 23.3485 0.477002 3.08433 0
M  V30 230 N 23.6496 -1.47581 0.552962 0
M  V30 231 C 24.8746 -2.07378 0.0300593 0
M  V30 232 C 25.2996 -1.40355 -1.25229 0
M  V30 233 O 24.6576 -0.477099 -1.7491 0
M  V30 234 C 24.7056 -3.60274 -0.153231 0
M  V30 235 O 23.8096 -3.94041 -1.21678 0
M  V30 236 H 23.1506 -0.662158 0.0494182 0
M  V30 237 H 25.6806 -1.89662 0.767434 0
M  V30 238 H 25.6906 -4.0633 -0.368761 0
M  V30 239 H 24.3656 -4.08455 0.783397 0
M  V30 240 H 22.9426 -3.59735 -0.982079 0
M  V30 241 N 25.1277 -0.289203 -1.54924 0
M  V30 242 C 26.0907 0.579144 -2.21762 0
M  V30 243 C 27.0907 1.07047 -1.1999 0
M  V30 244 O 28.2807 0.968384 -1.44803 0
M  V30 245 C 25.4127 1.80055 -2.8947 0
M  V30 246 H 26.6057 -0.00464908 -2.999 0
M  V30 247 H 24.1587 -0.0399306 -1.56249 0
M  V30 248 H 24.8937 2.42449 -2.15381 0
M  V30 249 H 24.6787 1.45602 -3.64064 0
M  V30 250 H 26.1687 2.41773 -3.40493 0
M  V30 251 N 26.6058 1.57591 -0.0167156 0
M  V30 252 C 27.5358 2.12496 0.967858 0
M  V30 253 C 28.5168 1.03807 1.34752 0
M  V30 254 O 29.7018 1.31577 1.42833 0
M  V30 255 C 26.8318 2.64194 2.25431 0
M  V30 256 C 25.7858 3.77559 2.01576 0
M  V30 257 C 25.1118 4.15636 3.36379 0
M  V30 258 C 26.4118 5.04151 1.36489 0
M  V30 259 H 28.1058 2.95013 0.510643 0
M  V30 260 H 25.6518 1.41915 0.244181 0
M  V30 261 H 27.6048 3.01236 2.94678 0
M  V30 262 H 26.3288 1.78821 2.73296 0
M  V30 263 H 24.9878 3.40937 1.34751 0
M  V30 264 H 24.6358 3.27263 3.81979 0
M  V30 265 H 24.3358 4.92022 3.21229 0
M  V30 266 H 25.8598 4.5525 4.06915 0
M  V30 267 H 27.2738 5.38857 1.95718 0
M  V30 268 H 25.6708 5.85453 1.31776 0
M  V30 269 H 26.7408 4.83733 0.336219 0
M  V30 270 N 28.0839 -0.256276 1.55502 0
M  V30 271 C 29.4999 -0.604325 1.47716 0
M  V30 272 C 29.6999 -1.88763 0.705039 0
M  V30 273 O 28.7559 -2.51445 0.230613 0
M  V30 274 C 30.0689 -0.715756 2.92057 0
M  V30 275 C 31.6169 -0.808706 3.02372 0
M  V30 276 C 32.0919 -0.951777 4.48001 0
M  V30 277 N 33.5829 -1.01688 4.519 0
M  V30 278 C 34.3179 -1.14668 5.61817 0
M  V30 279 N 33.8139 -1.24261 6.81565 0
M  V30 280 N 35.6069 -1.1791 5.49594 0
M  V30 281 H 27.7579 0.586291 2.04148 0
M  V30 282 H 30.0209 0.201015 0.926443 0
M  V30 283 H 29.7269 0.157027 3.51349 0
M  V30 284 H 29.6009 -1.59071 3.42018 0
M  V30 285 H 31.9879 -1.67195 2.43166 0
M  V30 286 H 32.0689 0.0912063 2.55637 0
M  V30 287 H 31.7129 -0.0931291 5.07815 0
M  V30 288 H 31.6429 -1.86659 4.92408 0
M  V30 289 H 34.1339 -0.954468 3.65648 0
M  V30 290 H 34.4469 -1.34046 7.61086 0
M  V30 291 H 32.7919 -1.21236 6.84344 0
M  V30 292 H 35.9829 -1.10057 4.54978 0
M  V30 293 H 36.1559 -1.27681 6.35296 0
M  V30 294 N 29.562 -1.4872 -0.521534 0
M  V30 295 C 30.492 -1.66771 -1.63431 0
M  V30 296 C 31.473 -0.516499 -1.62069 0
M  V30 297 O 32.658 -0.750013 -1.79132 0
M  V30 298 C 29.788 -1.71515 -3.01993 0
M  V30 299 C 28.742 -2.86222 -3.18216 0
M  V30 300 C 28.068 -2.76061 -4.57924 0
M  V30 301 C 29.368 -4.27419 -3.00184 0
M  V30 302 H 31.062 -2.59932 -1.48579 0
M  V30 303 H 28.608 -1.25089 -0.713358 0
M  V30 304 H 30.561 -1.82731 -3.7972 0
M  V30 305 H 29.285 -0.749393 -3.17886 0
M  V30 306 H 27.944 -2.74575 -2.42908 0
M  V30 307 H 27.592 -1.77437 -4.70665 0
M  V30 308 H 27.292 -3.53037 -4.69722 0
M  V30 309 H 28.816 -2.89256 -5.37739 0
M  V30 310 H 30.23 -4.39855 -3.67697 0
M  V30 311 H 28.627 -5.05458 -3.2347 0
M  V30 312 H 29.697 -4.43293 -1.96518 0
M  V30 313 N 31.0401 0.771051 -1.3745 0
M  V30 314 C 32.2651 1.56529 -1.36065 0
M  V30 315 C 32.6901 1.88029 0.0515859 0
M  V30 316 O 32.0481 1.49282 1.02882 0
M  V30 317 C 32.0961 2.85187 -2.20683 0
M  V30 318 O 31.2001 3.79593 -1.61193 0
M  V30 319 H 30.5411 0.47411 -0.464883 0
M  V30 320 H 33.0711 0.954269 -1.80983 0
M  V30 321 H 33.0811 3.34283 -2.33921 0
M  V30 322 H 31.7561 2.61588 -3.23334 0
M  V30 323 H 30.3331 3.38239 -1.56999 0
M  V30 324 N 32.5182 1.22032 0.997298 0
M  V30 325 C 33.4282 1.00271 2.12092 0
M  V30 326 C 34.4442 -0.047621 1.73935 0
M  V30 327 O 35.6202 0.144136 2.00884 0
M  V30 328 C 32.6852 0.578449 3.4184 0
M  V30 329 C 31.7462 1.70189 3.94125 0
M  V30 330 C 30.9792 1.29778 5.17681 0
M  V30 331 O 31.2022 0.174676 5.70132 0
M  V30 332 O 30.1362 2.11261 5.63607 0
M  V30 333 H 33.9622 1.94398 2.3333 0
M  V30 334 H 31.5472 1.00587 1.10465 0
M  V30 335 H 33.4292 0.351998 4.19927 0
M  V30 336 H 32.1042 -0.334019 3.21972 0
M  V30 337 H 31.0112 1.98282 3.1723 0
M  V30 338 H 32.3442 2.59206 4.18417 0
M  V30 339 N 33.9963 -1.19345 1.0293 0
M  V30 340 C 34.9593 -2.20793 0.615069 0
M  V30 341 C 35.9593 -1.57553 -0.321533 0
M  V30 342 O 37.1493 -1.73862 -0.108483 0
M  V30 343 C 34.2813 -3.40754 -0.0999222 0
M  V30 344 H 35.4743 -2.58955 1.51269 0
M  V30 345 H 33.0273 -1.3303 0.820534 0
M  V30 346 H 33.7623 -3.0811 -1.01187 0
M  V30 347 H 33.5473 -3.87889 0.57309 0
M  V30 348 H 35.0373 -4.15898 -0.376645 0
M  V30 349 N 35.4744 -0.807222 -1.35358 0
M  V30 350 C 36.7224 -0.387122 -1.98358 0
M  V30 351 C 37.0434 1.04942 -1.64354 0
M  V30 352 O 36.3134 1.72615 -0.926339 0
M  V30 353 H 34.8934 -0.140154 -0.733734 0
M  V30 354 H 37.5554 -1.0332 -1.6526 0
M  V30 355 H 36.6514 -0.493352 -3.08176 0
M  V30 356 N 36.9525 1.47285 -0.560781 0
M  V30 357 C 37.9025 2.27073 0.205384 0
M  V30 358 C 38.8865 1.34569 0.882044 0
M  V30 359 O 40.0785 1.58899 0.77976 0
M  V30 360 C 37.2075 3.20414 1.23247 0
M  V30 361 C 36.2935 4.20399 0.559041 0
M  V30 362 N 36.6845 5.04423 -0.372927 0
M  V30 363 C 34.9825 4.38536 0.812522 0
M  V30 364 C 35.6835 5.76655 -0.764446 0
M  V30 365 N 34.6595 5.43471 -0.11848 0
M  V30 366 H 38.4615 2.89422 -0.511117 0
M  V30 367 H 35.9755 1.57868 -0.380975 0
M  V30 368 H 37.9725 3.76262 1.79534 0
M  V30 369 H 36.6325 2.59623 1.95002 0
M  V30 370 H 37.6435 5.1248 -0.747287 0
M  V30 371 H 34.3205 3.88913 1.51832 0
M  V30 372 H 35.7105 6.54238 -1.53045 0
M  V30 373 N 38.4306 0.297415 1.54768 0
M  V30 374 C 39.6586 -0.315623 2.04478 0
M  V30 375 C 40.0736 -1.47792 1.17486 0
M  V30 376 O 39.4306 -1.81404 0.19971 0
M  V30 377 C 39.4816 -0.7753 3.53088 0
M  V30 378 O 39.2026 0.340732 4.36773 0
M  V30 379 C 40.7036 -1.45386 4.18781 0
M  V30 380 H 37.9236 -0.0690887 0.667434 0
M  V30 381 H 40.4676 0.436003 1.99798 0
M  V30 382 H 38.6226 -1.47696 3.58141 0
M  V30 383 H 39.0366 -0.0165035 5.24497 0
M  V30 384 H 40.5106 -1.72669 5.24299 0
M  V30 385 H 40.9876 -2.39275 3.68299 0
M  V30 386 H 41.5936 -0.795475 4.17795 0
M  V30 387 N 39.9087 -1.5758 0.0250728 0
M  V30 388 C 41.1547 -1.91917 -0.655413 0
M  V30 389 C 41.4877 -0.901433 -1.72011 0
M  V30 390 O 40.7627 0.0764069 -1.9435 0
M  V30 391 C 41.0457 -3.36751 -1.27558 0
M  V30 392 C 40.8987 -4.49258 -0.220719 0
M  V30 393 C 42.2177 -3.81469 -2.19475 0
M  V30 394 H 39.3367 -0.697925 -0.23679 0
M  V30 395 H 41.9787 -1.89825 0.0815036 0
M  V30 396 H 40.1287 -3.38664 -1.90365 0
M  V30 397 H 41.8007 -4.59478 0.409601 0
M  V30 398 H 40.0437 -4.31415 0.454264 0
M  V30 399 H 40.7147 -5.47618 -0.694175 0
M  V30 400 H 43.1907 -3.81266 -1.66659 0
M  V30 401 H 42.0667 -4.83512 -2.59822 0
M  V30 402 H 42.3277 -3.16744 -3.08424 0
M  V30 403 N 41.3868 0.248026 -1.55636 0
M  V30 404 C 42.3498 1.29044 -1.89421 0
M  V30 405 C 43.3498 1.41134 -0.770581 0
M  V30 406 O 44.5398 1.39854 -1.03858 0
M  V30 407 C 41.6718 2.66831 -2.12165 0
M  V30 408 H 42.8648 1.00305 -2.82629 0
M  V30 409 H 40.4178 0.487265 -1.48511 0
M  V30 410 H 41.1528 3.00711 -1.21422 0
M  V30 411 H 40.9378 2.59438 -2.93997 0
M  V30 412 H 42.4278 3.42103 -2.3949 0
M  V30 413 N 42.8649 1.48995 0.513639 0
M  V30 414 C 44.1049 1.59452 1.27885 0
M  V30 415 C 44.4689 0.269479 1.90099 0
M  V30 416 O 45.6699 0.249139 2.67643 0
M  V30 417 C 43.9409 2.71277 2.32688 0
M  V30 418 S 45.4999 3.01604 3.18717 0
M  V30 419 H 42.3179 0.562565 0.434789 0
M  V30 420 H 44.9199 1.86595 0.583301 0
M  V30 421 H 43.6239 3.66089 1.8549 0
M  V30 422 H 43.1549 2.46086 3.06929 0
M  V30 423 H 45.1699 2.42155 4.331 0
M  V30 424 N 44.343 -0.763751 1.37857 0
M  V30 425 C 45.293 -1.86765 1.30777 0
M  V30 426 C 46.277 -1.59726 0.194015 0
M  V30 427 O 47.469 -1.7172 0.42911 0
M  V30 428 C 44.598 -3.24343 1.12502 0
M  V30 429 C 43.684 -3.57307 2.28456 0
M  V30 430 N 44.075 -3.61398 3.53871 0
M  V30 431 C 42.373 -3.87517 2.20786 0
M  V30 432 C 43.074 -3.91339 4.30382 0
M  V30 433 N 42.05 -4.07649 3.59615 0
M  V30 434 H 45.852 -1.88191 2.25746 0
M  V30 435 H 43.366 -0.9606 1.30944 0
M  V30 436 H 45.363 -4.03327 1.05514 0
M  V30 437 H 44.023 -3.24175 0.184574 0
M  V30 438 H 45.034 -3.43407 3.87675 0
M  V30 439 H 41.711 -3.95125 1.34844 0
M  V30 440 H 43.101 -4.01213 5.3896 0
M  V30 441 N 45.8211 -1.22559 -0.990812 0
M  V30 442 C 47.0981 -0.959875 -1.70428 0
M  V30 443 C 47.4781 0.524455 -2.04481 0
M  V30 444 O 46.8261 1.49302 -1.72977 0
M  V30 445 C 47.0361 -1.85955 -2.95333 0
M  V30 446 C 48.3841 -2.11687 -3.68068 0
M  V30 447 O 49.4081 -1.8342 -3.05345 0
M  V30 448 O 48.2671 -2.59572 -4.80921 0
M  V30 449 H 45.3611 -0.361154 -0.743974 0
M  V30 450 H 47.9071 -1.33554 -1.04697 0
M  V30 451 H 46.6791 -2.86346 -2.66687 0
M  V30 452 H 46.3021 -1.4856 -3.68803 0
M  V30 453 N 47.2992 1.18797 -1.03562 0
M  V30 454 C 48.2092 2.25913 -0.632505 0
M  V30 455 C 49.2252 1.70668 0.338882 0
M  V30 456 O 50.4012 2.00453 0.195076 0
M  V30 457 C 47.4662 3.467 0.00350942 0
M  V30 458 C 46.5272 4.17098 -1.01624 0
M  V30 459 C 45.7602 5.32119 -0.410478 0
M  V30 460 O 45.9832 5.64976 0.784725 0
M  V30 461 O 44.9172 5.9107 -1.13667 0
M  V30 462 H 48.7432 2.62648 -1.52478 0
M  V30 463 H 46.3282 1.25781 -0.806195 0
M  V30 464 H 48.2102 4.19878 0.35781 0
M  V30 465 H 46.8852 3.11798 0.869686 0
M  V30 466 H 45.7922 3.4601 -1.42224 0
M  V30 467 H 47.1252 4.55987 -1.85301 0
M  V30 468 N 48.7773 0.814389 1.34928 0
M  V30 469 C 50.0023 0.410097 2.03305 0
M  V30 470 C 50.4273 -0.973464 1.60951 0
M  V30 471 O 49.7853 -1.63185 0.789964 0
M  V30 472 C 49.8333 0.51049 3.56968 0
M  V30 473 O 48.9373 -0.473035 4.09678 0
M  V30 474 H 48.2783 0.170088 0.641846 0
M  V30 475 H 50.8083 1.10244 1.72358 0
M  V30 476 H 50.8183 0.383135 4.06197 0
M  V30 477 H 49.4933 1.51963 3.87144 0
M  V30 478 H 48.0703 -0.305272 3.71648 0
M  V30 479 N 50.2554 -1.46986 0.568584 0
M  V30 480 C 51.5024 -2.02441 0.0487986 0
M  V30 481 C 51.8304 -1.44169 -1.30559 0
M  V30 482 O 51.0854 -0.591213 -1.86556 0
M  V30 483 C 51.3844 -3.57306 -0.081836 0
M  V30 484 C 51.0504 -4.34552 1.20313 0
M  V30 485 C 49.7124 -4.55376 1.5552 0
M  V30 486 C 52.0644 -4.79016 2.05411 0
M  V30 487 C 49.3924 -5.17913 2.7565 0
M  V30 488 C 51.7444 -5.42879 3.24754 0
M  V30 489 C 50.4084 -5.61933 3.60261 0
M  V30 490 H 49.6784 -0.740785 0.0178567 0
M  V30 491 H 52.3254 -1.76525 0.742384 0
M  V30 492 H 50.6304 -3.8228 -0.858463 0
M  V30 493 H 52.3274 -3.97876 -0.499546 0
M  V30 494 H 48.9174 -4.18631 0.919014 0
M  V30 495 H 53.1014 -4.62696 1.79516 0
M  V30 496 H 48.3574 -5.30858 3.03315 0
M  V30 497 H 52.5314 -5.76293 3.90973 0
M  V30 498 H 50.1584 -6.10161 4.53439 0
M  V30 499 N 51.7335 -0.305618 -1.54608 0
M  V30 500 C 52.6805 0.568421 -2.23691 0
M  V30 501 C 53.6505 1.12592 -1.22116 0
M  V30 502 O 54.8355 1.16959 -1.50749 0
M  V30 503 C 51.9755 1.7322 -2.98477 0
M  V30 504 C 51.0885 1.20566 -4.14835 0
M  V30 505 C 50.2235 2.33368 -4.77193 0
M  V30 506 C 49.2625 1.7787 -5.85686 0
M  V30 507 N 48.3995 2.84263 -6.4198 0
M  V30 508 H 53.2395 -0.0272867 -2.97988 0
M  V30 509 H 50.7765 -0.0252363 -1.47078 0
M  V30 510 H 52.7345 2.41675 -3.40072 0
M  V30 511 H 51.3645 2.29947 -2.26548 0
M  V30 512 H 50.4165 0.413223 -3.78149 0
M  V30 513 H 51.7285 0.759417 -4.92985 0
M  V30 514 H 50.8825 3.09761 -5.21664 0
M  V30 515 H 49.6215 2.8132 -3.98385 0
M  V30 516 H 48.6265 0.99968 -5.40635 0
M  V30 517 H 49.8515 1.30816 -6.66381 0
M  V30 518 H 47.7975 3.31541 -5.66053 0
M  V30 519 H 47.7145 2.44149 -7.15491 0
M  V30 520 H 48.9825 3.6054 -6.91109 0
M  V30 521 N 53.2116 1.57565 -0.0334293 0
M  V30 522 C 54.1436 2.0739 0.975811 0
M  V30 523 C 55.1566 0.998166 1.2861 0
M  V30 524 O 56.3456 1.27426 1.25 0
M  V30 525 C 53.4456 2.4871 2.30209 0
M  V30 526 C 52.6186 3.79413 2.17634 0
M  V30 527 C 51.6776 4.07237 3.33233 0
M  V30 528 O 50.7036 4.77425 3.09927 0
M  V30 529 N 51.9056 3.5775 4.5716 0
M  V30 530 H 54.6706 2.94598 0.55066 0
M  V30 531 H 52.2316 1.61173 0.15323 0
M  V30 532 H 54.2236 2.64413 3.06378 0
M  V30 533 H 52.7936 1.66845 2.64351 0
M  V30 534 H 52.0136 3.73465 1.26165 0
M  V30 535 H 53.3016 4.65038 2.0644 0
M  V30 536 H 52.6996 3.00976 4.78989 0
M  V30 537 H 51.2566 3.78724 5.30482 0
M  V30 538 N 54.6897 -0.239769 1.55765 0
M  V30 539 C 55.6367 -1.29696 1.90913 0
M  V30 540 C 56.6067 -1.47478 0.764164 0
M  V30 541 O 57.7917 -1.61345 1.01845 0
M  V30 542 C 54.9317 -2.64598 2.21544 0
M  V30 543 C 54.0447 -2.54765 3.48882 0
M  V30 544 C 53.1797 -3.82069 3.69049 0
M  V30 545 C 52.2187 -3.66883 4.89963 0
M  V30 546 N 51.3557 -4.86094 5.06614 0
M  V30 547 H 56.1957 -0.990224 2.81067 0
M  V30 548 H 53.7327 -0.477684 1.39128 0
M  V30 549 H 55.6907 -3.43132 2.3731 0
M  V30 550 H 54.3207 -2.93405 1.34585 0
M  V30 551 H 53.3727 -1.67763 3.41409 0
M  V30 552 H 54.6847 -2.39457 4.37563 0
M  V30 553 H 53.8387 -4.69046 3.84812 0
M  V30 554 H 52.5777 -4.00282 2.78614 0
M  V30 555 H 51.5827 -2.78289 4.74168 0
M  V30 556 H 52.8077 -3.50157 5.81865 0
M  V30 557 H 50.7537 -5.04655 4.19117 0
M  V30 558 H 50.6707 -4.73443 5.89396 0
M  V30 559 H 51.9387 -5.74549 5.26795 0
M  V30 560 N 56.1678 -1.49265 -0.50573 0
M  V30 561 C 57.4448 -1.49012 -1.26707 0
M  V30 562 C 57.8248 -0.215205 -2.1 0
M  V30 563 O 57.1728 0.802547 -2.13943 0
M  V30 564 C 57.3828 -2.7663 -2.12783 0
M  V30 565 C 58.7308 -3.25932 -2.72127 0
M  V30 566 O 59.7548 -2.77715 -2.23054 0
M  V30 567 O 58.6138 -4.09897 -3.61451 0
M  V30 568 H 55.7078 -0.596197 -0.57313 0
M  V30 569 H 58.2538 -1.61524 -0.52039 0
M  V30 570 H 57.0258 -3.60916 -1.5118 0
M  V30 571 H 56.6488 -2.66956 -2.94653 0
M  V30 572 N 57.6459 0.756429 -1.3826 0
M  V30 573 C 58.5559 1.9009 -1.37488 0
M  V30 574 C 59.5719 1.71855 -0.272366 0
M  V30 575 O 60.7479 1.94827 -0.510318 0
M  V30 576 C 57.8129 3.25421 -1.19592 0
M  V30 577 C 56.8739 3.56202 -2.39622 0
M  V30 578 C 56.1069 4.85075 -2.2257 0
M  V30 579 O 56.3299 5.57246 -1.21793 0
M  V30 580 O 55.2639 5.15269 -3.11098 0
M  V30 581 H 59.0899 1.93695 -2.33914 0
M  V30 582 H 56.6749 0.901313 -1.1915 0
M  V30 583 H 58.5569 4.06337 -1.11661 0
M  V30 584 H 57.2319 3.22634 -0.262486 0
M  V30 585 H 56.1389 2.75458 -2.53128 0
M  V30 586 H 57.4719 3.63747 -3.31586 0
M  V30 587 N 59.124 1.23083 0.984299 0
M  V30 588 C 60.054 1.03292 2.09411 0
M  V30 589 C 61.035 -0.048923 1.7003 0
M  V30 590 O 62.22 0.114967 1.93859 0
M  V30 591 C 59.35 0.619155 3.41736 0
M  V30 592 C 58.304 1.64791 3.95004 0
M  V30 593 C 57.63 1.0897 5.23478 0
M  V30 594 C 58.93 3.03999 4.24714 0
M  V30 595 H 60.624 1.96119 2.26225 0
M  V30 596 H 58.17 0.944344 1.08711 0
M  V30 597 H 60.123 0.467777 4.18796 0
M  V30 598 H 58.847 -0.344786 3.24775 0
M  V30 599 H 57.506 1.78721 3.20085 0
M  V30 600 H 57.154 0.11686 5.02864 0
M  V30 601 H 56.854 1.77704 5.60085 0
M  V30 602 H 58.378 0.950093 6.03163 0
M  V30 603 H 59.792 2.93393 4.92538 0
M  V30 604 H 58.189 3.69936 4.72512 0
M  V30 605 H 59.259 3.53285 3.32142 0
M  V30 606 N 60.6021 -1.18246 1.0419 0
M  V30 607 C 61.5121 -2.25574 0.644476 0
M  V30 608 C 62.5281 -1.70845 -0.329826 0
M  V30 609 O 63.7041 -2.00554 -0.184443 0
M  V30 610 C 60.7691 -3.46697 0.014877 0
M  V30 611 C 59.8301 -4.16554 1.03834 0
M  V30 612 C 59.0631 -5.31894 0.438692 0
M  V30 613 O 59.2861 -5.65385 -0.754752 0
M  V30 614 O 58.2201 -5.90459 1.168 0
M  V30 615 H 62.0461 -2.61836 1.53869 0
M  V30 616 H 59.6311 -1.25352 0.812854 0
M  V30 617 H 61.5131 -4.20062 -0.335538 0
M  V30 618 H 60.1881 -3.12255 -0.853138 0
M  V30 619 H 59.0951 -3.45251 1.44057 0
M  V30 620 H 60.4281 -4.54998 1.87716 0
M  V30 621 N 62.0802 -0.821533 -1.34494 0
M  V30 622 C 63.0432 -0.247847 -2.27856 0
M  V30 623 C 64.0432 0.573453 -1.50227 0
M  V30 624 O 65.2332 0.389759 -1.69784 0
M  V30 625 C 62.3652 0.652698 -3.34593 0
M  V30 626 H 63.5582 -1.07146 -2.80107 0
M  V30 627 H 61.1112 -0.593291 -1.44602 0
M  V30 628 H 61.8462 1.49943 -2.87555 0
M  V30 629 H 61.6312 0.065292 -3.92046 0
M  V30 630 H 63.1212 1.04793 -4.04238 0
M  V30 631 N 63.5583 1.46682 -0.576371 0
M  V30 632 C 64.8053 2.02412 -0.0595339 0
M  V30 633 C 65.1333 1.44859 1.29793 0
M  V30 634 O 64.3883 0.601099 1.8624 0
M  V30 635 C 64.6873 3.57345 0.062886 0
M  V30 636 C 64.3533 4.33908 -1.22616 0
M  V30 637 C 63.0153 4.54544 -1.57933 0
M  V30 638 C 65.3673 4.77919 -2.07948 0
M  V30 639 C 62.6953 5.16444 -2.78393 0
M  V30 640 C 65.0473 5.41149 -3.27629 0
M  V30 641 C 63.7113 5.60014 -3.63236 0
M  V30 642 H 62.9813 0.74068 -0.021785 0
M  V30 643 H 65.6283 1.76128 -0.751735 0
M  V30 644 H 63.9333 3.82729 0.838178 0
M  V30 645 H 65.6303 3.98136 0.478439 0
M  V30 646 H 62.2203 4.18138 -0.941202 0
M  V30 647 H 66.4043 4.61738 -1.81967 0
M  V30 648 H 61.6603 5.29242 -3.06126 0
M  V30 649 H 65.8343 5.74211 -3.94023 0
M  V30 650 H 63.4613 6.07748 -4.56669 0
M  V30 651 N 65.0364 0.313813 1.54444 0
M  V30 652 C 65.9994 -0.54379 2.22656 0
M  V30 653 C 66.9994 -1.05124 1.21678 0
M  V30 654 O 68.1894 -0.945225 1.46325 0
M  V30 655 C 65.3214 -1.75427 2.92298 0
M  V30 656 H 66.5144 0.0523599 2.99854 0
M  V30 657 H 64.0674 0.0647834 1.56166 0
M  V30 658 H 64.8024 -2.38991 2.19211 0
M  V30 659 H 64.5874 -1.39791 3.66334 0
M  V30 660 H 66.0774 -2.36325 3.44297 0
M  V30 661 N 66.5145 -1.57545 0.0417849 0
M  V30 662 C 67.4245 -2.14451 -0.951213 0
M  V30 663 C 68.4405 -1.09992 -1.34825 0
M  V30 664 O 69.6165 -1.42114 -1.42708 0
M  V30 665 C 66.6815 -2.67063 -2.21084 0
M  V30 666 C 65.7425 -3.86284 -1.87304 0
M  V30 667 C 64.9755 -4.36378 -3.07261 0
M  V30 668 O 65.1985 -3.85587 -4.20332 0
M  V30 669 O 64.1325 -5.28077 -2.88822 0
M  V30 670 H 67.9585 -2.99601 -0.497287 0
M  V30 671 H 65.5435 -1.48317 -0.179567 0
M  V30 672 H 67.4255 -3.00914 -2.95006 0
M  V30 673 H 66.1005 -1.84989 -2.65633 0
M  V30 674 H 65.0075 -3.57338 -1.10727 0
M  V30 675 H 66.3405 -4.6956 -1.47562 0
M  V30 676 N 67.9926 0.231505 -1.5589 0
M  V30 677 C 69.2206 0.974505 -1.82513 0
M  V30 678 C 69.6356 1.78344 -0.619591 0
M  V30 679 O 68.9926 1.77792 0.411848 0
M  V30 680 C 69.0436 1.90007 -3.07538 0
M  V30 681 O 68.7646 1.12385 -4.2344 0
M  V30 682 C 70.2656 2.75779 -3.47075 0
M  V30 683 H 67.4856 0.286065 -0.606966 0
M  V30 684 H 70.0296 0.249739 -2.02969 0
M  V30 685 H 68.1846 2.57891 -2.89086 0
M  V30 686 H 68.5986 1.75125 -4.944 0
M  V30 687 H 70.0726 3.36443 -4.37619 0
M  V30 688 H 70.5496 3.47672 -2.68367 0
M  V30 689 H 71.1556 2.13323 -3.67931 0
M  V30 690 N 69.4707 1.49531 0.497807 0
M  V30 691 C 70.7007 1.62657 1.27382 0
M  V30 692 C 71.1087 0.298488 1.86831 0
M  V30 693 O 70.4517 -0.72647 1.68725 0
M  V30 694 C 70.5137 2.6393 2.44093 0
M  V30 695 C 70.1777 4.08195 2.05489 0
M  V30 696 C 71.1747 4.949 1.59279 0
M  V30 697 C 68.8597 4.53948 2.15026 0
M  V30 698 C 70.8537 6.25397 1.23113 0
M  V30 699 C 68.5407 5.84458 1.78473 0
M  V30 700 C 69.5387 6.70006 1.32591 0
M  V30 701 O 69.2267 7.98083 0.965327 0
M  V30 702 H 68.9587 0.550429 0.392434 0
M  V30 703 H 71.5127 1.96325 0.603801 0
M  V30 704 H 69.7427 2.25449 3.14181 0
M  V30 705 H 71.4317 2.66552 3.06113 0
M  V30 706 H 72.1977 4.60779 1.51354 0
M  V30 707 H 68.0767 3.87525 2.4969 0
M  V30 708 H 71.6207 6.92125 0.872299 0
M  V30 709 H 67.5177 6.18107 1.86048 0
M  V30 710 H 68.2857 8.11122 1.09652 0
M  V30 711 N 70.9488 -0.749086 1.3866 0
M  V30 712 C 72.3598 -1.32664 1.31366 0
M  V30 713 C 72.7108 -1.96179 -0.028484 0
M  V30 714 O 71.8358 -1.9537 -0.93057 0
M  V30 715 C 72.4308 -2.41219 2.37905 0
M  V30 716 C 70.9898 -2.94684 2.34176 0
M  V30 717 C 70.1368 -1.68108 2.20533 0
M  V30 718 H 73.0878 -0.547628 1.48952 0
M  V30 719 H 73.1088 -3.21268 2.0388 0
M  V30 720 H 72.6208 -1.94962 3.35576 0
M  V30 721 H 70.7218 -3.45258 1.401 0
M  V30 722 H 70.8348 -3.48757 3.2849 0
M  V30 723 H 69.1988 -1.91907 1.67463 0
M  V30 724 H 69.9818 -1.23923 3.20153 0
M  V30 725 N 72.4269 -1.23603 -0.977757 0
M  V30 726 C 73.3589 -0.977369 -2.07317 0
M  V30 727 C 74.3719 0.0495845 -1.62724 0
M  V30 728 O 75.5609 -0.186261 -1.77526 0
M  V30 729 C 72.6609 -0.451216 -3.35883 0
M  V30 730 C 71.8339 -1.53896 -4.09432 0
M  V30 731 C 70.8929 -1.01721 -5.16274 0
M  V30 732 O 69.9189 -1.70676 -5.43009 0
M  V30 733 N 71.1209 0.153594 -5.80297 0
M  V30 734 H 73.8859 -1.92047 -2.30082 0
M  V30 735 H 71.4469 -1.14497 -1.14465 0
M  V30 736 H 73.4389 -0.0871574 -4.04606 0
M  V30 737 H 72.0089 0.397368 -3.10064 0
M  V30 738 H 71.2289 -2.07566 -3.35127 0
M  V30 739 H 72.5169 -2.27037 -4.55337 0
M  V30 740 H 71.9149 0.730323 -5.60966 0
M  V30 741 H 70.4719 0.458892 -6.50183 0
M  V30 742 N 73.905 1.17692 -1.04816 0
M  V30 743 C 74.835 2.23777 -0.666791 0
M  V30 744 C 75.816 1.66796 0.33361 0
M  V30 745 O 77.001 1.93039 0.212042 0
M  V30 746 C 74.131 3.47281 -0.0367933 0
M  V30 747 C 73.085 4.17059 -0.961546 0
M  V30 748 C 72.411 5.34342 -0.195626 0
M  V30 749 C 73.711 4.69713 -2.28402 0
M  V30 750 H 75.405 2.55933 -1.55367 0
M  V30 751 H 72.951 1.23019 -0.748484 0
M  V30 752 H 74.904 4.20706 0.241775 0
M  V30 753 H 73.628 3.14381 0.885004 0
M  V30 754 H 72.287 3.45541 -1.22462 0
M  V30 755 H 71.935 4.97692 0.728816 0
M  V30 756 H 71.635 5.81966 -0.811775 0
M  V30 757 H 73.159 6.10553 0.0757473 0
M  V30 758 H 74.573 5.34794 -2.06563 0
M  V30 759 H 72.97 5.279 -2.8538 0
M  V30 760 H 74.04 3.86726 -2.92525 0
M  V30 761 N 75.3831 0.828654 1.34056 0
M  V30 762 C 76.3301 0.252567 2.29414 0
M  V30 763 C 77.3001 -0.62588 1.53857 0
M  V30 764 O 78.4851 -0.566312 1.82202 0
M  V30 765 C 75.6251 -0.574831 3.40279 0
M  V30 766 C 74.7381 0.326499 4.30764 0
M  V30 767 C 73.8731 -0.511016 5.28736 0
M  V30 768 C 72.9121 0.389342 6.1086 0
M  V30 769 N 72.0491 -0.409439 7.00905 0
M  V30 770 H 76.8891 1.07108 2.78086 0
M  V30 771 H 74.4261 0.539677 1.36843 0
M  V30 772 H 76.3841 -1.06992 4.03248 0
M  V30 773 H 75.0141 -1.35841 2.92826 0
M  V30 774 H 74.0661 0.939837 3.68607 0
M  V30 775 H 75.3781 1.01857 4.88289 0
M  V30 776 H 74.5321 -1.07035 5.97184 0
M  V30 777 H 73.2711 -1.23657 4.71763 0
M  V30 778 H 72.2761 0.960769 5.4134 0
M  V30 779 H 73.5011 1.1131 6.69916 0
M  V30 780 H 71.4471 -1.11856 6.46393 0
M  V30 781 H 71.3641 0.224126 7.55668 0
M  V30 782 H 72.6321 -0.951336 7.73673 0
M  V30 783 N 76.8612 -1.46375 0.584142 0
M  V30 784 C 78.2722 -1.86031 0.157959 0
M  V30 785 C 78.6232 -1.48753 -1.27933 0
M  V30 786 O 77.7482 -0.903098 -1.96655 0
M  V30 787 C 78.3432 -3.37642 0.279892 0
M  V30 788 C 76.9022 -3.76289 -0.09143 0
M  V30 789 C 76.0492 -2.7039 0.615178 0
M  V30 790 H 79.0002 -1.37509 0.792274 0
M  V30 791 H 79.0212 -3.77275 -0.494364 0
M  V30 792 H 78.5332 -3.64742 1.32607 0
M  V30 793 H 76.6342 -3.54806 -1.13769 0
M  V30 794 H 76.7472 -4.78246 0.285886 0
M  V30 795 H 75.1112 -2.5464 0.0552833 0
M  V30 796 H 75.8942 -3.0033 1.66303 0
M  V30 797 N 78.3393 -0.321999 -1.54275 0
M  V30 798 C 79.2723 0.58718 -2.20516 0
M  V30 799 C 80.2503 1.11693 -1.18167 0
M  V30 800 O 81.4343 1.18122 -1.46899 0
M  V30 801 C 78.5613 1.80554 -2.86562 0
M  V30 802 C 77.6073 1.40718 -4.02617 0
M  V30 803 S 78.4403 0.445218 -5.33646 0
M  V30 804 C 79.5963 1.6709 -6.03185 0
M  V30 805 H 79.8293 0.0244875 -2.9729 0
M  V30 806 H 77.3623 -0.106087 -1.54035 0
M  V30 807 H 79.3203 2.50462 -3.25237 0
M  V30 808 H 77.9813 2.33942 -2.09595 0
M  V30 809 H 77.1743 2.31501 -4.47687 0
M  V30 810 H 76.7763 0.78782 -3.65608 0
M  V30 811 H 79.0683 2.60856 -6.25268 0
M  V30 812 H 80.0113 1.26239 -6.96756 0
M  V30 813 H 80.4193 1.85716 -5.33076 0
M  V30 814 N 79.8174 1.5752 -0.0501392 0
M  V30 815 C 81.0424 1.97376 0.636997 0
M  V30 816 C 81.4674 0.927466 1.63645 0
M  V30 817 O 80.8254 -0.10941 1.8097 0
M  V30 818 C 80.8734 3.36304 1.30123 0
M  V30 819 O 79.9774 3.34156 2.41689 0
M  V30 820 H 79.3184 0.642998 0.165679 0
M  V30 821 H 81.8484 2.04258 -0.118233 0
M  V30 822 H 81.8584 3.73008 1.65315 0
M  V30 823 H 80.5334 4.11993 0.568746 0
M  V30 824 H 79.1104 3.09196 2.08451 0
M  V30 825 N 81.2955 -0.223234 1.56011 0
M  V30 826 C 82.2055 -1.29766 1.95443 0
M  V30 827 C 83.2215 -1.51373 0.858028 0
M  V30 828 O 84.3975 -1.64536 1.16146 0
M  V30 829 C 81.4625 -2.62772 2.26167 0
M  V30 830 C 80.5235 -2.49482 3.49367 0
M  V30 831 C 79.7565 -3.76145 3.78616 0
M  V30 832 O 79.9795 -4.79087 3.09568 0
M  V30 833 O 78.9135 -3.73358 4.72109 0
M  V30 834 H 82.7395 -0.99309 2.87004 0
M  V30 835 H 80.3245 -0.425958 1.43199 0
M  V30 836 H 82.2065 -3.41327 2.47131 0
M  V30 837 H 80.8815 -2.92913 1.37781 0
M  V30 838 H 79.7885 -1.69133 3.33684 0
M  V30 839 H 81.1215 -2.2428 4.38131 0
M  V30 840 N 82.7736 -1.49793 -0.48987 0
M  V30 841 C 83.7056 -1.63413 -1.60713 0
M  V30 842 C 84.7186 -0.516329 -1.54395 0
M  V30 843 O 85.9076 -0.788812 -1.60125 0
M  V30 844 C 83.0076 -1.58516 -2.99543 0
M  V30 845 C 82.1806 -2.86016 -3.30928 0
M  V30 846 C 81.2396 -2.74018 -4.49222 0
M  V30 847 O 80.2656 -3.47964 -4.50455 0
M  V30 848 N 81.4676 -1.86309 -5.4979 0
M  V30 849 H 84.2326 -2.59777 -1.49452 0
M  V30 850 H 81.7936 -1.47022 -0.677955 0
M  V30 851 H 83.7856 -1.48128 -3.76617 0
M  V30 852 H 82.3556 -0.69965 -3.0467 0
M  V30 853 H 81.5756 -3.10672 -2.42645 0
M  V30 854 H 82.8636 -3.70521 -3.487 0
M  V30 855 H 82.2616 -1.2551 -5.51601 0
M  V30 856 H 80.8186 -1.81837 -6.25922 0
M  V30 857 N 84.2517 0.741722 -1.39055 0
M  V30 858 C 85.1617 1.88621 -1.39496 0
M  V30 859 C 86.1777 1.71557 -0.290578 0
M  V30 860 O 87.3537 1.94275 -0.530954 0
M  V30 861 C 84.4187 3.24134 -1.23037 0
M  V30 862 C 83.4797 3.5364 -2.43387 0
M  V30 863 C 82.7127 4.82687 -2.27703 0
M  V30 864 O 82.9357 5.55922 -1.27696 0
M  V30 865 O 81.8697 5.1194 -3.16545 0
M  V30 866 H 85.6957 1.91203 -2.35956 0
M  V30 867 H 83.2807 0.888625 -1.20099 0
M  V30 868 H 85.1627 4.0513 -1.15964 0
M  V30 869 H 83.8377 3.22337 -0.296691 0
M  V30 870 H 82.7447 2.72758 -2.56035 0
M  V30 871 H 84.0777 3.60209 -3.35425 0
M  V30 872 N 85.7298 1.2412 0.971189 0
M  V30 873 C 87.1408 1.07236 1.52831 0
M  V30 874 C 87.4918 -0.357352 1.92918 0
M  V30 875 O 86.6168 -1.24528 1.76979 0
M  V30 876 C 87.2118 1.94043 2.77728 0
M  V30 877 C 85.7708 1.81394 3.29808 0
M  V30 878 C 84.9178 1.89189 2.02738 0
M  V30 879 H 87.8688 1.37648 0.789864 0
M  V30 880 H 87.8898 1.47066 3.5093 0
M  V30 881 H 87.4018 2.98093 2.4852 0
M  V30 882 H 85.5028 0.801634 3.63874 0
M  V30 883 H 85.6158 2.65294 3.98944 0
M  V30 884 H 83.9798 1.32877 2.17292 0
M  V30 885 H 84.7628 2.94812 1.759 0
M  V30 886 N 87.2079 -1.17134 1.05439 0
M  V30 887 C 88.1709 -2.19439 0.661764 0
M  V30 888 C 89.1709 -1.58199 -0.288042 0
M  V30 889 O 90.3609 -1.74053 -0.0715803 0
M  V30 890 C 87.4929 -3.40889 -0.0276209 0
M  V30 891 H 88.6859 -2.55688 1.56728 0
M  V30 892 H 86.2389 -1.31259 0.848567 0
M  V30 893 H 86.9739 -3.10187 -0.94629 0
M  V30 894 H 86.7589 -3.86586 0.655238 0
M  V30 895 H 88.2489 -4.16603 -0.288342 0
M  V30 896 N 88.686 -0.835752 -1.33615 0
M  V30 897 C 89.596 -0.269088 -2.33052 0
M  V30 898 C 90.612 0.603251 -1.63208 0
M  V30 899 O 91.788 0.508112 -1.94885 0
M  V30 900 C 88.853 0.549091 -3.42324 0
M  V30 901 C 87.914 -0.347156 -4.27894 0
M  V30 902 C 87.147 0.43207 -5.31948 0
M  V30 903 O 87.37 1.66409 -5.45586 0
M  V30 904 O 86.304 -0.192298 -6.01593 0
M  V30 905 H 90.13 -1.09243 -2.83372 0
M  V30 906 H 87.715 -0.598198 -1.36901 0
M  V30 907 H 89.597 1.01414 -4.09015 0
M  V30 908 H 88.272 1.34955 -2.94226 0
M  V30 909 H 87.179 -0.859979 -3.64081 0
M  V30 910 H 88.512 -1.1123 -4.79467 0
M  V30 911 N 90.1641 1.46063 -0.591896 0
M  V30 912 C 91.0941 2.33172 0.123673 0
M  V30 913 C 92.0751 1.45897 0.87453 0
M  V30 914 O 93.2601 1.74698 0.848181 0
M  V30 915 C 90.3901 3.28336 1.13194 0
M  V30 916 C 89.3441 4.25124 0.495324 0
M  V30 917 C 88.6701 5.09863 1.61071 0
M  V30 918 C 89.9701 5.19143 -0.573425 0
M  V30 919 H 91.6641 2.93252 -0.603646 0
M  V30 920 H 89.2101 1.41014 -0.291741 0
M  V30 921 H 91.1631 3.88137 1.64097 0
M  V30 922 H 89.8871 2.66383 1.88965 0
M  V30 923 H 88.5461 3.66599 0.00729452 0
M  V30 924 H 88.1941 4.44288 2.35832 0
M  V30 925 H 87.8941 5.75417 1.19035 0
M  V30 926 H 89.4181 5.72529 2.12233 0
M  V30 927 H 90.8321 5.73106 -0.1491 0
M  V30 928 H 89.2291 5.93089 -0.914636 0
M  V30 929 H 90.2991 4.62519 -1.45617 0
M  V30 930 N 91.6422 0.330177 1.54103 0
M  V30 931 C 92.8912 -0.271336 1.99867 0
M  V30 932 C 93.2042 -1.52723 1.22209 0
M  V30 933 O 94.4102 -2.20515 1.58383 0
M  V30 934 C 92.8662 -0.534032 3.55916 0
M  V30 935 C 92.4742 0.705193 4.42415 0
M  V30 936 C 94.2182 -1.09514 4.1013 0
M  V30 937 C 92.1252 0.414035 5.89949 0
M  V30 938 H 91.0552 -0.105166 0.74663 0
M  V30 939 H 93.7062 0.443429 1.78062 0
M  V30 940 H 92.0882 -1.30915 3.73734 0
M  V30 941 H 93.2622 1.4804 4.36372 0
M  V30 942 H 91.5772 1.18698 3.99124 0
M  V30 943 H 94.1742 -1.3277 5.17954 0
M  V30 944 H 94.5172 -2.04656 3.62521 0
M  V30 945 H 95.0502 -0.381038 3.95971 0
M  V30 946 H 91.7892 1.33481 6.41766 0
M  V30 947 H 91.3092 -0.323336 5.98928 0
M  V30 948 H 92.9882 0.0263105 6.46995 0
M  V30 949 N 93.1203 -1.57491 0.0584922 0
M  V30 950 C 94.0303 -2.15448 -0.928414 0
M  V30 951 C 95.0463 -1.11416 -1.3365 0
M  V30 952 O 96.2223 -1.4362 -1.41193 0
M  V30 953 C 93.2873 -2.69393 -2.18239 0
M  V30 954 C 92.3483 -3.88249 -1.83196 0
M  V30 955 C 91.5813 -4.39613 -3.02616 0
M  V30 956 O 91.8043 -3.90023 -4.16219 0
M  V30 957 O 90.7383 -5.31111 -2.83204 0
M  V30 958 H 94.5643 -3.00112 -0.465483 0
M  V30 959 H 92.1493 -1.48499 -0.163826 0
M  V30 960 H 94.0313 -3.04026 -2.91798 0
M  V30 961 H 92.7063 -1.87796 -2.63656 0
M  V30 962 H 91.6133 -3.58492 -1.06931 0
M  V30 963 H 92.9463 -4.71098 -1.42573 0
M  V30 964 N 94.5984 0.214957 -1.56127 0
M  V30 965 C 95.5614 1.24997 -1.92116 0
M  V30 966 C 96.5614 1.39467 -0.800344 0
M  V30 967 O 97.7514 1.37619 -1.06802 0
M  V30 968 C 94.8834 2.62271 -2.17777 0
M  V30 969 H 96.0764 0.942875 -2.84693 0
M  V30 970 H 93.6294 0.455654 -1.49511 0
M  V30 971 H 94.3644 2.98068 -1.27773 0
M  V30 972 H 94.1494 2.53143 -2.99434 0
M  V30 973 H 95.6394 3.36946 -2.46693 0
M  V30 974 N 96.0765 1.50051 0.48192 0
M  V30 975 C 97.3225 1.60736 1.2366 0
M  V30 976 C 97.6555 0.301786 1.91841 0
M  V30 977 O 96.9305 -0.696025 1.8162 0
M  V30 978 C 97.2135 2.78009 2.28874 0
M  V30 979 C 97.0665 4.18416 1.65069 0
M  V30 980 C 98.3855 2.90867 3.30279 0
M  V30 981 H 95.5045 0.585031 0.448228 0
M  V30 982 H 98.1465 1.82402 0.531946 0
M  V30 983 H 96.2965 2.59667 2.88973 0
M  V30 984 H 97.9685 4.48322 1.0865 0
M  V30 985 H 96.2115 4.23177 0.954148 0
M  V30 986 H 96.8825 4.96381 2.41474 0
M  V30 987 H 99.3585 3.07623 2.80191 0
M  V30 988 H 98.2345 3.74566 4.01238 0
M  V30 989 H 98.4955 2.01021 3.93755 0
M  V30 990 N 97.5546 -0.734337 1.39446 0
M  V30 991 C 98.7826 -1.52358 1.39981 0
M  V30 992 C 99.1976 -1.88799 -0.0054975 0
M  V30 993 O 98.5546 -1.54146 -0.976998 0
M  V30 994 C 98.6056 -2.81072 2.27333 0
M  V30 995 O 98.3266 -2.46178 3.62392 0
M  V30 996 C 99.8276 -3.75096 2.36259 0
M  V30 997 H 97.0476 -0.470806 0.478103 0
M  V30 998 H 99.5916 -0.907339 1.83269 0
M  V30 999 H 97.7466 -3.39026 1.87457 0
M  V30 1000 H 98.1606 -3.28866 4.08592 0
M  V30 1001 H 99.6346 -4.62305 3.01626 0
M  V30 1002 H 100.112 -4.16892 1.38194 0
M  V30 1003 H 100.718 -3.23061 2.76608 0
M  V30 1004 N 99.0327 -1.24633 -0.964593 0
M  V30 1005 C 100.258 -1.11596 -1.74818 0
M  V30 1006 C 100.683 0.32723 -1.85232 0
M  V30 1007 O 100.041 1.23695 -1.32549 0
M  V30 1008 C 100.089 -1.76397 -3.1451 0
M  V30 1009 O 99.1927 -1.03685 -3.99153 0
M  V30 1010 H 98.5337 -0.390196 -0.537255 0
M  V30 1011 H 101.064 -1.65002 -1.20977 0
M  V30 1012 H 101.074 -1.8228 -3.65018 0
M  V30 1013 H 99.7487 -2.81401 -3.06246 0
M  V30 1014 H 98.3257 -1.05611 -3.57632 0
M  V30 1015 N 100.511 1.16574 -1.06058 0
M  V30 1016 C 101.474 2.19085 -0.673392 0
M  V30 1017 C 102.474 1.5835 0.279648 0
M  V30 1018 O 103.664 1.74088 0.0623488 0
M  V30 1019 C 100.796 3.40899 0.00954234 0
M  V30 1020 H 101.989 2.54853 -1.58081 0
M  V30 1021 H 99.5418 1.30808 -0.855516 0
M  V30 1022 H 100.277 3.10684 0.929826 0
M  V30 1023 H 100.062 3.86233 -0.67573 0
M  V30 1024 H 101.552 4.1675 0.266245 0
M  V30 1025 N 101.989 0.842826 1.3317 0
M  V30 1026 C 103.219 0.453397 2.01564 0
M  V30 1027 C 103.627 -0.951147 1.63554 0
M  V30 1028 O 102.97 -1.63021 0.846746 0
M  V30 1029 C 103.032 0.499013 3.5602 0
M  V30 1030 C 102.696 1.86037 4.1742 0
M  V30 1031 C 103.693 2.82416 4.36506 0
M  V30 1032 C 101.378 2.15428 4.53757 0
M  V30 1033 C 103.372 4.06346 4.91082 0
M  V30 1034 C 101.059 3.39615 5.0804 0
M  V30 1035 C 102.057 4.3489 5.26649 0
M  V30 1036 O 101.745 5.5688 5.79776 0
M  V30 1037 H 101.477 0.177871 0.652179 0
M  V30 1038 H 104.031 1.13808 1.70988 0
M  V30 1039 H 102.261 -0.242467 3.85939 0
M  V30 1040 H 103.95 0.126852 4.05702 0
M  V30 1041 H 104.716 2.6101 4.08777 0
M  V30 1042 H 100.595 1.42061 4.38565 0
M  V30 1043 H 104.139 4.80722 5.05522 0
M  V30 1044 H 100.036 3.60876 5.352 0
M  V30 1045 H 100.804 5.58674 5.98185 0
M  V30 1046 N 103.467 -1.45747 0.599634 0
M  V30 1047 C 104.715 -2.01893 0.0915472 0
M  V30 1048 C 105.036 -1.47155 -1.27946 0
M  V30 1049 O 104.306 -0.66273 -1.84349 0
M  V30 1050 H 102.886 -0.746363 0.0308524 0
M  V30 1051 H 105.548 -1.78645 0.779237 0
M  V30 1052 H 104.644 -3.1208 0.0353086 0
M  V30 1053 N 104.945 -0.338344 -1.53925 0
M  V30 1054 C 105.877 0.555117 -2.22376 0
M  V30 1055 C 106.89 1.06812 -1.22862 0
M  V30 1056 O 108.079 0.979163 -1.49247 0
M  V30 1057 C 105.179 1.77609 -2.88631 0
M  V30 1058 C 104.352 1.39927 -4.14414 0
M  V30 1059 C 103.411 2.47936 -4.64127 0
M  V30 1060 O 102.437 2.11461 -5.28463 0
M  V30 1061 N 103.639 3.79107 -4.39612 0
M  V30 1062 H 106.404 -0.0310778 -2.99684 0
M  V30 1063 H 103.965 -0.162226 -1.61085 0
M  V30 1064 H 105.957 2.49287 -3.18807 0
M  V30 1065 H 104.527 2.26978 -2.14941 0
M  V30 1066 H 103.747 0.513481 -3.90841 0
M  V30 1067 H 105.035 1.12341 -4.96243 0
M  V30 1068 H 104.433 4.11531 -3.88148 0
M  V30 1069 H 102.99 4.4697 -4.74406 0
M  V30 1070 N 106.423 1.57458 -0.0668435 0
M  V30 1071 C 107.669 1.93587 0.6043 0
M  V30 1072 C 108.002 0.946722 1.69561 0
M  V30 1073 O 107.277 -0.0248516 1.94484 0
M  V30 1074 C 107.56 3.40014 1.18585 0
M  V30 1075 C 107.413 4.49685 0.101529 0
M  V30 1076 C 108.732 3.87154 2.09284 0
M  V30 1077 H 105.851 0.703958 0.218202 0
M  V30 1078 H 108.493 1.89542 -0.131804 0
M  V30 1079 H 106.643 3.43592 1.81319 0
M  V30 1080 H 108.315 4.5823 -0.531279 0
M  V30 1081 H 106.558 4.30059 -0.568487 0
M  V30 1082 H 107.229 5.49266 0.54874 0
M  V30 1083 H 109.705 3.85551 1.56491 0
M  V30 1084 H 108.581 4.90231 2.46911 0
M  V30 1085 H 108.842 3.2481 2.99918 0
M  V30 1086 N 107.901 -0.206675 1.56239 0
M  V30 1087 C 109.178 -0.954051 1.70755 0
M  V30 1088 C 109.558 -2.01841 0.618353 0
M  V30 1089 O 108.906 -2.25444 -0.372434 0
M  V30 1090 C 109.116 -1.551 3.12642 0
M  V30 1091 C 110.464 -2.03757 3.72516 0
M  V30 1092 O 111.488 -1.64965 3.15698 0
M  V30 1093 O 110.347 -2.75103 4.72208 0
M  V30 1094 H 107.441 -0.446636 0.696021 0
M  V30 1095 H 109.987 -0.197283 1.68549 0
M  V30 1096 H 108.759 -0.783212 3.83382 0
M  V30 1097 H 108.382 -2.37291 3.19028 0
M  V30 1098 N 109.379 -1.50304 -0.473955 0
M  V30 1099 C 110.625 -1.61389 -1.22806 0
M  V30 1100 C 110.958 -0.311955 -1.91678 0
M  V30 1101 O 110.233 0.686384 -1.81986 0
M  V30 1102 C 110.516 -2.79219 -2.27396 0
M  V30 1103 C 110.369 -4.19286 -1.62848 0
M  V30 1104 C 111.688 -2.92614 -3.28732 0
M  V30 1105 H 108.807 -0.587399 -0.445119 0
M  V30 1106 H 111.449 -1.82681 -0.522265 0
M  V30 1107 H 109.599 -2.61195 -2.87592 0
M  V30 1108 H 111.271 -4.48892 -1.06271 0
M  V30 1109 H 109.514 -4.23677 -0.931693 0
M  V30 1110 H 110.185 -4.97655 -2.38838 0
M  V30 1111 H 112.661 -3.09105 -2.78556 0
M  V30 1112 H 111.537 -3.76688 -3.99246 0
M  V30 1113 H 111.798 -2.03107 -3.92683 0
M  V30 1114 N 110.857 0.726932 -1.39834 0
M  V30 1115 C 111.787 1.85405 -1.41941 0
M  V30 1116 C 112.768 1.67751 -0.281728 0
M  V30 1117 O 113.953 1.8795 -0.488717 0
M  V30 1118 C 111.083 3.23243 -1.2701 0
M  V30 1119 C 110.037 3.55549 -2.38262 0
M  V30 1120 C 109.363 4.9241 -2.08415 0
M  V30 1121 C 110.663 3.577 -3.80589 0
M  V30 1122 H 112.357 1.83899 -2.36266 0
M  V30 1123 H 109.903 0.883349 -1.13723 0
M  V30 1124 H 111.856 4.01775 -1.27103 0
M  V30 1125 H 110.58 3.25296 -0.291564 0
M  V30 1126 H 109.239 2.79351 -2.37399 0
M  V30 1127 H 108.887 4.91052 -1.0898 0
M  V30 1128 H 108.587 5.14992 -2.82943 0
M  V30 1129 H 110.111 5.73289 -2.10171 0
M  V30 1130 H 111.525 4.26293 -3.83337 0
M  V30 1131 H 109.922 3.91804 -4.54543 0
M  V30 1132 H 110.992 2.57328 -4.10987 0
M  V30 1133 N 112.336 1.25143 0.95797 0
M  V30 1134 C 113.582 1.09855 1.70469 0
M  V30 1135 C 113.915 -0.360187 1.90831 0
M  V30 1136 O 113.19 -1.26568 1.47685 0
M  V30 1137 C 113.473 1.8497 3.08963 0
M  V30 1138 C 113.326 3.38652 2.96032 0
M  V30 1139 C 114.645 1.63016 4.08795 0
M  V30 1140 H 111.764 0.400465 0.618706 0
M  V30 1141 H 114.406 1.53933 1.11376 0
M  V30 1142 H 112.556 1.47505 3.59409 0
M  V30 1143 H 114.228 3.85772 2.52938 0
M  V30 1144 H 112.471 3.66534 2.32025 0
M  V30 1145 H 113.142 3.8642 3.94187 0
M  V30 1146 H 115.618 1.95625 3.67247 0
M  V30 1147 H 114.494 2.18015 5.03747 0
M  V30 1148 H 114.755 0.570692 4.38401 0
M  V30 1149 N 113.814 -1.1601 1.06675 0
M  V30 1150 C 115.039 -1.91068 0.806706 0
M  V30 1151 C 115.464 -1.77112 -0.633485 0
M  V30 1152 O 114.822 -1.09908 -1.44187 0
M  V30 1153 C 114.87 -3.39655 1.21106 0
M  V30 1154 O 113.974 -4.10893 0.352189 0
M  V30 1155 H 113.315 -0.595125 0.294486 0
M  V30 1156 H 115.845 -1.46955 1.42356 0
M  V30 1157 H 115.855 -3.90434 1.18428 0
M  V30 1158 H 114.53 -3.49132 2.26008 0
M  V30 1159 H 113.107 -3.70285 0.440868 0
M  V30 1160 N 115.292 -0.849877 -1.32721 0
M  V30 1161 C 116.24 -0.279745 -2.30912 0
M  V30 1162 C 117.234 0.594278 -1.58634 0
M  V30 1163 O 118.44 0.482613 -1.73409 0
M  V30 1164 H 114.815 -0.0717521 -0.748569 0
M  V30 1165 H 116.786 -1.12222 -2.76494 0
M  V30 1166 C 115.535 0.521108 -3.43773 0
M  V30 1167 H 114.858 -0.142141 -3.99547 0
M  V30 1168 H 116.298 0.885693 -4.14646 0
M  V30 1169 C 114.757 1.70442 -2.90605 0
M  V30 1170 O 115.287 2.8034 -2.87702 0
M  V30 1171 N 113.493 1.52991 -2.47067 0
M  V30 1172 H 113.04 0.635914 -2.49628 0
M  V30 1173 H 112.998 2.32311 -2.11847 0
M  V30 1174 N 116.77 1.45427 -0.607355 0
M  V30 1175 C 118.047 1.9557 -0.0344566 0
M  V30 1176 C 118.427 1.54979 1.43334 0
M  V30 1177 O 117.775 0.812241 2.13576 0
M  V30 1178 C 117.985 3.48226 -0.232321 0
M  V30 1179 C 119.333 4.2445 -0.113001 0
M  V30 1180 O 120.357 3.55829 -0.162431 0
M  V30 1181 O 119.216 5.465 0.00209442 0
M  V30 1182 H 116.31 0.826222 0.0358667 0
M  V30 1183 H 118.856 1.55594 -0.6774 0
M  V30 1184 H 117.628 3.70739 -1.25174 0
M  V30 1185 H 117.251 3.95092 0.445896 0
M  V30 1186 N 118.248 0.346503 1.53744 0
M  V30 1187 C 119.497 -0.250122 2.00143 0
M  V30 1188 C 119.81 -1.51418 1.23822 0
M  V30 1189 O 121.016 -2.18823 1.60713 0
M  V30 1190 C 119.472 -0.496252 3.56462 0
M  V30 1191 C 119.08 0.752077 4.41642 0
M  V30 1192 C 120.824 -1.05157 4.11269 0
M  V30 1193 C 118.731 0.476583 5.89477 0
M  V30 1194 H 117.661 -0.0972409 0.747703 0
M  V30 1195 H 120.312 0.46229 1.77581 0
M  V30 1196 H 118.694 -1.26944 3.75102 0
M  V30 1197 H 119.868 1.5266 4.34778 0
M  V30 1198 H 118.183 1.22925 3.97842 0
M  V30 1199 H 120.78 -1.27269 5.19333 0
M  V30 1200 H 121.123 -2.00799 3.64672 0
M  V30 1201 H 121.656 -0.339019 3.96353 0
M  V30 1202 H 118.395 1.4028 6.40314 0
M  V30 1203 H 117.915 -0.259794 5.99237 0
M  V30 1204 H 119.594 0.0949315 6.4693 0
M  V30 1205 N 119.726 -1.57421 0.075193 0
M  V30 1206 C 120.973 -1.93618 -0.593146 0
M  V30 1207 C 121.301 -0.955484 -1.69413 0
M  V30 1208 O 120.556 0.0283251 -1.9568 0
M  V30 1209 C 120.855 -3.36428 -1.20626 0
M  V30 1210 C 120.521 -4.50307 -0.231078 0
M  V30 1211 C 119.183 -4.81186 0.0371936 0
M  V30 1212 C 121.535 -5.19374 0.435888 0
M  V30 1213 C 118.863 -5.78466 0.979461 0
M  V30 1214 C 121.215 -6.17665 1.3665 0
M  V30 1215 C 119.879 -6.46958 1.6432 0
M  V30 1216 H 119.149 -0.708499 -0.217047 0
M  V30 1217 H 121.796 -1.90937 0.146793 0
M  V30 1218 H 120.101 -3.35592 -2.02201 0
M  V30 1219 H 121.798 -3.61727 -1.73073 0
M  V30 1220 H 118.388 -4.26227 -0.450357 0
M  V30 1221 H 122.572 -4.95711 0.241748 0
M  V30 1222 H 117.828 -5.99487 1.20106 0
M  V30 1223 H 122.002 -6.70284 1.88924 0
M  V30 1224 H 119.629 -7.2215 2.37494 0
M  V30 1225 N 121.204 0.198386 -1.56346 0
M  V30 1226 C 122.167 1.22952 -1.93431 0
M  V30 1227 C 123.167 1.38611 -0.815092 0
M  V30 1228 O 124.357 1.36479 -1.08255 0
M  V30 1229 C 121.489 2.59946 -2.20546 0
M  V30 1230 H 122.682 0.912626 -2.85677 0
M  V30 1231 H 120.235 0.43977 -1.49986 0
M  V30 1232 H 120.97 2.96696 -1.30927 0
M  V30 1233 H 120.755 2.49953 -3.02102 0
M  V30 1234 H 122.245 3.3431 -2.50253 0
M  V30 1235 N 122.682 1.50554 0.465978 0
M  V30 1236 C 124.093 1.54599 1.04671 0
M  V30 1237 C 124.444 0.352488 1.93008 0
M  V30 1238 O 123.569 -0.534044 2.09707 0
M  V30 1239 C 124.164 2.80166 1.90505 0
M  V30 1240 C 122.723 2.86876 2.43678 0
M  V30 1241 C 121.87 2.48947 1.22151 0
M  V30 1242 H 124.821 1.56744 0.248384 0
M  V30 1243 H 124.842 2.62311 2.75633 0
M  V30 1244 H 124.354 3.67013 1.26186 0
M  V30 1245 H 122.455 2.04393 3.11536 0
M  V30 1246 H 122.568 3.89885 2.78436 0
M  V30 1247 H 120.932 2.01498 1.5579 0
M  V30 1248 H 121.715 3.38107 0.594866 0
M  V30 1249 N 124.16 -0.719506 1.40217 0
M  V30 1250 C 125.07 -1.86378 1.42479 0
M  V30 1251 C 126.086 -1.71073 0.317834 0
M  V30 1252 O 127.262 -1.93406 0.561794 0
M  V30 1253 C 124.327 -3.22136 1.28178 0
M  V30 1254 C 123.388 -3.49723 2.48982 0
M  V30 1255 C 122.621 -4.79004 2.35353 0
M  V30 1256 O 122.844 -5.53821 1.36524 0
M  V30 1257 O 121.778 -5.06839 3.2465 0
M  V30 1258 H 125.604 -1.87425 2.38968 0
M  V30 1259 H 123.189 -0.869405 1.21498 0
M  V30 1260 H 125.071 -4.03234 1.22395 0
M  V30 1261 H 123.746 -3.21825 0.347934 0
M  V30 1262 H 122.653 -2.6865 2.60342 0
M  V30 1263 H 123.986 -3.54828 3.41113 0
M  V30 1264 N 125.638 -1.25649 -0.95132 0
M  V30 1265 C 126.885 -1.10594 -1.69633 0
M  V30 1266 C 127.213 0.352515 -1.91279 0
M  V30 1267 O 126.468 1.27601 -1.4838 0
M  V30 1268 C 126.767 -1.80909 -3.08231 0
M  V30 1269 C 126.433 -3.30825 -3.06375 0
M  V30 1270 C 125.095 -3.71722 -3.05576 0
M  V30 1271 C 127.447 -4.26589 -2.99452 0
M  V30 1272 C 124.775 -5.06788 -2.95606 0
M  V30 1273 C 127.127 -5.61683 -2.91024 0
M  V30 1274 C 125.791 -6.01904 -2.88562 0
M  V30 1275 H 125.061 -0.404691 -0.620731 0
M  V30 1276 H 127.708 -1.55964 -1.11119 0
M  V30 1277 H 126.013 -1.27979 -3.70309 0
M  V30 1278 H 127.71 -1.6671 -3.64704 0
M  V30 1279 H 124.3 -2.98287 -3.07771 0
M  V30 1280 H 128.484 -3.95982 -2.99185 0
M  V30 1281 H 123.74 -5.37126 -2.92071 0
M  V30 1282 H 127.914 -6.35578 -2.84629 0
M  V30 1283 H 125.541 -7.06521 -2.80593 0
M  V30 1284 N 127.117 1.15442 -1.07289 0
M  V30 1285 C 128.049 2.19773 -0.650585 0
M  V30 1286 C 129.062 1.60076 0.296572 0
M  V30 1287 O 130.251 1.78293 0.0859905 0
M  V30 1288 C 127.351 3.38838 0.0650398 0
M  V30 1289 C 126.524 4.2808 -0.898141 0
M  V30 1290 C 125.583 5.2574 -0.219926 0
M  V30 1291 O 124.609 5.62654 -0.860773 0
M  V30 1292 N 125.811 5.71205 1.03466 0
M  V30 1293 H 128.576 2.56622 -1.54808 0
M  V30 1294 H 126.137 1.30551 -0.957494 0
M  V30 1295 H 128.129 4.01222 0.529415 0
M  V30 1296 H 126.699 3.00409 0.864466 0
M  V30 1297 H 125.919 3.62804 -1.54165 0
M  V30 1298 H 127.207 4.84577 -1.5512 0
M  V30 1299 H 126.605 5.43325 1.57526 0
M  V30 1300 H 125.162 6.35633 1.44272 0
M  V30 1301 N 128.595 0.856903 1.32268 0
M  V30 1302 C 130.006 0.515711 1.79436 0
M  V30 1303 C 130.357 -0.966586 1.70738 0
M  V30 1304 O 129.482 -1.75409 1.26731 0
M  V30 1305 C 130.077 0.929335 3.25805 0
M  V30 1306 C 128.636 0.640006 3.70919 0
M  V30 1307 C 127.783 1.12784 2.53328 0
M  V30 1308 H 130.734 1.04389 1.19535 0
M  V30 1309 H 130.755 0.246633 3.797 0
M  V30 1310 H 130.267 2.00821 3.32103 0
M  V30 1311 H 128.368 -0.428051 3.70133 0
M  V30 1312 H 128.481 1.20788 4.63624 0
M  V30 1313 H 126.845 0.548033 2.48734 0
M  V30 1314 H 127.628 2.21387 2.62379 0
M  V30 1315 N 130.073 -1.45103 0.615059 0
M  V30 1316 C 131.322 -2.01396 0.110718 0
M  V30 1317 C 131.635 -1.48834 -1.26916 0
M  V30 1318 O 132.841 -1.97152 -1.86664 0
M  V30 1319 C 131.297 -3.59599 0.14723 0
M  V30 1320 C 130.905 -4.21158 1.52743 0
M  V30 1321 C 132.649 -4.23428 -0.30148 0
M  V30 1322 C 130.556 -5.71535 1.51992 0
M  V30 1323 H 129.486 -0.753061 0.0376241 0
M  V30 1324 H 132.137 -1.66494 0.77149 0
M  V30 1325 H 130.519 -3.91724 -0.580339 0
M  V30 1326 H 131.693 -4.00594 2.2773 0
M  V30 1327 H 130.008 -3.69552 1.91886 0
M  V30 1328 H 132.605 -5.33703 -0.326392 0
M  V30 1329 H 132.948 -3.94629 -1.32565 0
M  V30 1330 H 133.481 -3.96047 0.373065 0
M  V30 1331 H 130.22 -6.05044 2.52193 0
M  V30 1332 H 129.74 -5.94268 0.81274 0
M  V30 1333 H 131.419 -6.34873 1.24681 0
M  V30 1334 N 131.551 -0.354651 -1.53558 0
M  V30 1335 C 132.828 0.294281 -1.93374 0
M  V30 1336 C 133.208 1.67313 -1.28723 0
M  V30 1337 O 132.556 2.24179 -0.442247 0
M  V30 1338 C 132.766 0.355445 -3.47185 0
M  V30 1339 C 134.114 0.601007 -4.20325 0
M  V30 1340 O 135.138 0.437106 -3.53508 0
M  V30 1341 O 133.997 0.919322 -5.38712 0
M  V30 1342 H 131.091 0.174033 -0.808481 0
M  V30 1343 H 133.637 -0.406638 -1.64756 0
M  V30 1344 H 132.409 -0.611729 -3.86489 0
M  V30 1345 H 132.032 1.1027 -3.82003 0
M  V30 1346 N 133.029 1.57378 -0.0835403 0
M  V30 1347 C 133.976 2.13384 0.879539 0
M  V30 1348 C 134.946 1.04936 1.28754 0
M  V30 1349 O 136.131 1.32662 1.37133 0
M  V30 1350 C 133.271 2.70932 2.13752 0
M  V30 1351 C 132.384 3.93575 1.7811 0
M  V30 1352 C 131.519 4.39326 2.98607 0
M  V30 1353 C 130.558 5.54587 2.59037 0
M  V30 1354 N 129.695 5.95243 3.72331 0
M  V30 1355 H 134.535 2.9537 0.395076 0
M  V30 1356 H 132.072 1.45953 0.183349 0
M  V30 1357 H 134.03 3.02411 2.87408 0
M  V30 1358 H 132.66 1.91693 2.59718 0
M  V30 1359 H 131.712 3.68483 0.94469 0
M  V30 1360 H 133.024 4.77258 1.45005 0
M  V30 1361 H 132.178 4.72528 3.80529 0
M  V30 1362 H 130.917 3.5452 3.34913 0
M  V30 1363 H 129.922 5.21024 1.75539 0
M  V30 1364 H 131.147 6.41133 2.23887 0
M  V30 1365 H 129.093 5.13385 4.08378 0
M  V30 1366 H 129.01 6.73694 3.43034 0
M  V30 1367 H 130.278 6.33072 4.54797 0
M  V30 1368 N 134.507 -0.190092 1.56449 0
M  V30 1369 C 135.737 -0.92443 1.84764 0
M  V30 1370 C 136.145 -1.77146 0.664529 0
M  V30 1371 O 135.488 -1.79812 -0.375957 0
M  V30 1372 C 135.55 -1.86651 3.07248 0
M  V30 1373 C 135.214 -1.20094 4.40938 0
M  V30 1374 C 136.211 -0.575445 5.16706 0
M  V30 1375 C 133.896 -1.2033 4.87674 0
M  V30 1376 C 135.89 0.0388111 6.37388 0
M  V30 1377 C 133.577 -0.585214 6.08291 0
M  V30 1378 C 134.575 0.0347578 6.82991 0
M  V30 1379 O 134.263 0.643147 8.01323 0
M  V30 1380 H 133.995 -0.274974 0.617548 0
M  V30 1381 H 136.549 -0.200788 2.04416 0
M  V30 1382 H 134.779 -2.62998 2.83494 0
M  V30 1383 H 136.468 -2.46907 3.22167 0
M  V30 1384 H 137.234 -0.565728 4.81689 0
M  V30 1385 H 133.113 -1.67526 4.29484 0
M  V30 1386 H 136.657 0.523329 6.95634 0
M  V30 1387 H 132.554 -0.592451 6.42775 0
M  V30 1388 H 133.322 0.540545 8.16713 0
M  V30 1389 N 135.985 -1.50799 -0.457987 0
M  V30 1390 C 136.948 -1.7005 -1.53674 0
M  V30 1391 C 137.948 -0.570881 -1.50325 0
M  V30 1392 O 139.138 -0.838126 -1.52712 0
M  V30 1393 C 136.27 -1.73788 -2.93276 0
M  V30 1394 H 137.463 -2.66306 -1.37917 0
M  V30 1395 H 135.016 -1.40477 -0.685271 0
M  V30 1396 H 135.751 -0.792717 -3.14462 0
M  V30 1397 H 135.536 -2.55864 -2.97113 0
M  V30 1398 H 137.026 -1.90591 -3.71571 0
M  V30 1399 N 137.463 0.71206 -1.40597 0
M  V30 1400 C 138.709 1.47416 -1.39271 0
M  V30 1401 C 139.042 1.942 0.00388791 0
M  V30 1402 O 138.317 1.68403 0.973179 0
M  V30 1403 C 138.6 2.69774 -2.38525 0
M  V30 1404 C 138.453 2.28861 -3.87224 0
M  V30 1405 C 139.772 3.71939 -2.35264 0
M  V30 1406 H 136.891 0.534713 -0.5072 0
M  V30 1407 H 139.533 0.812375 -1.71757 0
M  V30 1408 H 137.683 3.26238 -2.10953 0
M  V30 1409 H 139.355 1.77852 -4.25636 0
M  V30 1410 H 137.598 1.60824 -4.02887 0
M  V30 1411 H 138.269 3.16584 -4.52193 0
M  V30 1412 H 140.745 3.25113 -2.59694 0
M  V30 1413 H 139.621 4.55186 -3.06753 0
M  V30 1414 H 139.882 4.20484 -1.36549 0
M  V30 1415 N 138.941 1.26152 0.944643 0
M  V30 1416 C 139.851 1.09176 2.07648 0
M  V30 1417 C 140.867 0.0261935 1.7398 0
M  V30 1418 O 142.043 0.229208 2.00091 0
M  V30 1419 C 139.108 0.722915 3.39079 0
M  V30 1420 C 138.169 1.86752 3.86552 0
M  V30 1421 C 137.402 1.51617 5.11711 0
M  V30 1422 O 137.625 0.416331 5.68879 0
M  V30 1423 O 136.559 2.34975 5.54139 0
M  V30 1424 H 140.385 2.0412 2.24875 0
M  V30 1425 H 137.97 1.05182 1.061 0
M  V30 1426 H 139.852 0.529787 4.18056 0
M  V30 1427 H 138.527 -0.197159 3.23099 0
M  V30 1428 H 137.434 2.11558 3.08535 0
M  V30 1429 H 138.767 2.76719 4.07047 0
M  V30 1430 N 140.419 -1.14872 1.07899 0
M  V30 1431 C 141.696 -1.81928 0.71845 0
M  V30 1432 C 142.076 -1.95417 -0.798455 0
M  V30 1433 O 141.424 -1.50997 -1.715 0
M  V30 1434 C 141.634 -3.17937 1.43935 0
M  V30 1435 C 142.982 -3.93501 1.59506 0
M  V30 1436 O 144.006 -3.27509 1.40058 0
M  V30 1437 O 142.865 -5.1183 1.91551 0
M  V30 1438 H 139.959 -0.78628 0.256305 0
M  V30 1439 H 142.505 -1.21934 1.18026 0
M  V30 1440 H 141.277 -3.0325 2.47295 0
M  V30 1441 H 140.9 -3.85619 0.968687 0
M  V30 1442 N 141.898 -0.863906 -1.31812 0
M  V30 1443 C 143.128 -0.485406 -2.00817 0
M  V30 1444 C 143.536 0.925007 -1.65046 0
M  V30 1445 O 142.879 1.61653 -0.872574 0
M  V30 1446 C 142.941 -0.555589 -3.55181 0
M  V30 1447 C 142.605 -1.92654 -4.14407 0
M  V30 1448 C 143.602 -2.89324 -4.31958 0
M  V30 1449 C 141.287 -2.2262 -4.50273 0
M  V30 1450 C 143.281 -4.14108 -4.84555 0
M  V30 1451 C 140.968 -3.47654 -5.02573 0
M  V30 1452 C 141.966 -4.43214 -5.19664 0
M  V30 1453 O 141.654 -5.66033 -5.70843 0
M  V30 1454 H 141.386 -0.188224 -0.649267 0
M  V30 1455 H 143.94 -1.16514 -1.69156 0
M  V30 1456 H 142.17 0.181037 -3.86276 0
M  V30 1457 H 143.859 -0.19138 -4.05449 0
M  V30 1458 H 144.625 -2.6748 -4.04573 0
M  V30 1459 H 140.504 -1.4902 -4.3625 0
M  V30 1460 H 144.048 -4.88703 -4.9781 0
M  V30 1461 H 139.945 -3.69345 -5.29391 0
M  V30 1462 H 140.713 -5.6812 -5.89222 0
M  V30 1463 N 143.376 1.44774 -0.622745 0
M  V30 1464 C 144.792 1.56986 -0.287652 0
M  V30 1465 C 144.992 1.61167 1.20944 0
M  V30 1466 O 144.048 1.55015 1.99315 0
M  V30 1467 C 145.361 2.84551 -0.972188 0
M  V30 1468 C 146.909 2.9825 -0.949536 0
M  V30 1469 C 147.384 4.28605 -1.61437 0
M  V30 1470 N 148.875 4.35399 -1.58057 0
M  V30 1471 C 149.61 5.34964 -2.064 0
M  V30 1472 N 149.106 6.40981 -2.62897 0
M  V30 1473 N 150.899 5.26419 -1.97078 0
M  V30 1474 H 143.05 1.40304 -1.59463 0
M  V30 1475 H 145.313 0.671794 -0.668878 0
M  V30 1476 H 145.019 2.87417 -2.02693 0
M  V30 1477 H 144.893 3.73807 -0.504771 0
M  V30 1478 H 147.28 2.94941 0.0967067 0
M  V30 1479 H 147.361 2.10364 -1.45536 0
M  V30 1480 H 147.005 4.32672 -2.66002 0
M  V30 1481 H 146.935 5.15334 -1.08344 0
M  V30 1482 H 149.426 3.59397 -1.16801 0
M  V30 1483 H 149.739 7.13225 -2.97539 0
M  V30 1484 H 148.084 6.4169 -2.66943 0
M  V30 1485 H 151.275 4.42504 -1.52669 0
M  V30 1486 H 151.448 6.03861 -2.35066 0
M  V30 1487 N 144.854 0.36279 1.53368 0
M  V30 1488 C 146.102 -0.227326 2.00817 0
M  V30 1489 C 146.423 -1.49511 1.25186 0
M  V30 1490 O 145.693 -1.92482 0.364348 0
M  V30 1491 H 144.273 -0.0869923 0.741917 0
M  V30 1492 H 146.935 0.488381 1.88682 0
M  V30 1493 H 146.031 -0.456273 3.08747 0
M  V30 1494 N 146.332 -1.57332 0.0918853 0
M  V30 1495 C 147.295 -2.12708 -0.85369 0
M  V30 1496 C 148.295 -1.05561 -1.213 0
M  V30 1497 O 149.485 -1.31461 -1.14296 0
M  V30 1498 C 146.617 -2.64503 -2.15061 0
M  V30 1499 H 147.81 -2.97573 -0.3729 0
M  V30 1500 H 145.363 -1.55509 -0.157072 0
M  V30 1501 H 146.098 -1.83149 -2.67632 0
M  V30 1502 H 145.883 -3.4284 -1.90272 0
M  V30 1503 H 147.373 -3.07351 -2.82711 0
M  V30 1504 N 147.81 0.181792 -1.56548 0
M  V30 1505 C 149.056 0.901431 -1.81665 0
M  V30 1506 C 149.389 1.82347 -0.668075 0
M  V30 1507 O 148.664 1.91669 0.330615 0
M  V30 1508 C 148.947 1.70618 -3.17115 0
M  V30 1509 C 148.8 0.807964 -4.42484 0
M  V30 1510 C 150.119 2.67605 -3.49393 0
M  V30 1511 H 147.238 0.32627 -0.660846 0
M  V30 1512 H 149.88 0.168134 -1.89255 0
M  V30 1513 H 148.03 2.33133 -3.10775 0
M  V30 1514 H 149.702 0.19649 -4.60881 0
M  V30 1515 H 147.945 0.115411 -4.33646 0
M  V30 1516 H 148.616 1.40632 -5.33785 0
M  V30 1517 H 151.092 2.15218 -3.56118 0
M  V30 1518 H 149.968 3.20985 -4.45264 0
M  V30 1519 H 150.229 3.47298 -2.73563 0
M  V30 1520 N 149.288 1.51039 0.449983 0
M  V30 1521 C 150.198 1.74261 1.57067 0
M  V30 1522 C 151.214 0.626363 1.62335 0
M  V30 1523 O 152.39 0.907162 1.79812 0
M  V30 1524 C 149.455 1.85114 2.93144 0
M  V30 1525 C 148.516 3.0893 2.98095 0
M  V30 1526 C 147.749 3.19256 4.27681 0
M  V30 1527 O 147.972 2.35835 5.19363 0
M  V30 1528 O 146.906 4.12144 4.38658 0
M  V30 1529 H 150.732 2.69303 1.40391 0
M  V30 1530 H 148.317 1.35389 0.631688 0
M  V30 1531 H 150.199 1.94311 3.73926 0
M  V30 1532 H 148.874 0.932588 3.09975 0
M  V30 1533 H 147.781 3.0522 2.16314 0
M  V30 1534 H 149.114 4.00433 2.86206 0
M  V30 1535 N 150.766 -0.704594 1.40972 0
M  V30 1536 C 151.729 -1.80035 1.41845 0
M  V30 1537 C 152.729 -1.57774 0.310474 0
M  V30 1538 O 153.919 -1.64613 0.56992 0
M  V30 1539 C 151.051 -3.18284 1.22098 0
M  V30 1540 H 152.244 -1.80658 2.3938 0
M  V30 1541 H 149.797 -0.911329 1.26982 0
M  V30 1542 H 150.532 -3.23306 0.253672 0
M  V30 1543 H 150.317 -3.35843 2.02366 0
M  V30 1544 H 151.807 -3.98289 1.25522 0
M  V30 1545 N 152.244 -1.26651 -0.937939 0
M  V30 1546 C 153.174 -1.10993 -2.05433 0
M  V30 1547 C 154.155 -0.0142161 -1.70094 0
M  V30 1548 O 155.34 -0.186837 -1.93299 0
M  V30 1549 C 152.47 -0.745561 -3.39203 0
M  V30 1550 C 151.424 -1.79337 -3.88616 0
M  V30 1551 C 150.75 -1.28324 -5.19073 0
M  V30 1552 C 152.05 -3.19553 -4.13138 0
M  V30 1553 H 153.744 -2.0438 -2.1879 0
M  V30 1554 H 151.29 -0.984041 -1.05131 0
M  V30 1555 H 153.243 -0.622888 -4.16771 0
M  V30 1556 H 151.967 0.22401 -3.25831 0
M  V30 1557 H 150.626 -1.90477 -3.13231 0
M  V30 1558 H 150.274 -0.303414 -5.02084 0
M  V30 1559 H 149.974 -1.98369 -5.53103 0
M  V30 1560 H 151.498 -1.1733 -5.99221 0
M  V30 1561 H 152.912 -3.11471 -4.81309 0
M  V30 1562 H 151.309 -3.87218 -4.58457 0
M  V30 1563 H 152.379 -3.65368 -3.18801 0
M  V30 1564 N 153.722 1.14298 -1.08507 0
M  V30 1565 C 154.654 2.1907 -0.673859 0
M  V30 1566 C 155.667 1.60381 0.279577 0
M  V30 1567 O 156.856 1.78374 0.0670754 0
M  V30 1568 C 153.956 3.38888 0.0290979 0
M  V30 1569 C 153.129 4.27103 -0.943494 0
M  V30 1570 C 152.188 5.25477 -0.275676 0
M  V30 1571 O 151.214 5.61709 -0.920401 0
M  V30 1572 N 152.416 5.7227 0.974013 0
M  V30 1573 H 155.181 2.54965 -1.57521 0
M  V30 1574 H 152.742 1.29528 -0.971287 0
M  V30 1575 H 154.734 4.01761 0.48683 0
M  V30 1576 H 153.304 3.01309 0.832555 0
M  V30 1577 H 152.524 3.61149 -1.58004 0
M  V30 1578 H 153.812 4.82905 -1.60251 0
M  V30 1579 H 153.21 5.44965 1.51755 0
M  V30 1580 H 151.767 6.37127 1.37522 0
M  V30 1581 N 155.201 0.870884 1.31352 0
M  V30 1582 C 156.45 0.478408 1.95944 0
M  V30 1583 C 156.763 -0.974493 1.69597 0
M  V30 1584 O 157.969 -1.47316 2.28058 0
M  V30 1585 C 156.425 0.804609 3.50791 0
M  V30 1586 C 156.033 2.27433 3.85977 0
M  V30 1587 C 157.777 0.480648 4.2177 0
M  V30 1588 C 155.684 2.5429 5.33939 0
M  V30 1589 H 154.614 0.175175 0.733369 0
M  V30 1590 H 157.265 1.06391 1.4951 0
M  V30 1591 H 155.647 0.148347 3.95722 0
M  V30 1592 H 156.821 2.97373 3.52002 0
M  V30 1593 H 155.136 2.56442 3.28065 0
M  V30 1594 H 157.733 0.658519 5.30629 0
M  V30 1595 H 158.076 -0.578979 4.12254 0
M  V30 1596 H 158.609 1.09349 3.82476 0
M  V30 1597 H 155.348 3.58939 5.48491 0
M  V30 1598 H 154.868 1.88945 5.69263 0
M  V30 1599 H 156.547 2.39066 6.01212 0
M  V30 1600 N 156.679 -1.44442 0.630414 0
M  V30 1601 C 158.095 -1.56832 0.295973 0
M  V30 1602 C 158.295 -1.61806 -1.20088 0
M  V30 1603 O 157.351 -1.5607 -1.9849 0
M  V30 1604 C 158.664 -2.84031 0.987264 0
M  V30 1605 C 160.212 -2.97742 0.96534 0
M  V30 1606 C 160.687 -4.27743 1.63708 0
M  V30 1607 N 162.178 -4.34555 1.60364 0
M  V30 1608 C 162.913 -5.33862 2.09234 0
M  V30 1609 N 162.409 -6.39578 2.66292 0
M  V30 1610 N 164.202 -5.25366 1.99867 0
M  V30 1611 H 156.353 -1.39457 1.60205 0
M  V30 1612 H 158.616 -0.668237 0.672431 0
M  V30 1613 H 158.322 -2.86338 2.04215 0
M  V30 1614 H 158.196 -3.73534 0.524588 0
M  V30 1615 H 160.583 -2.94989 -0.0810639 0
M  V30 1616 H 160.664 -2.09589 1.4665 0
M  V30 1617 H 160.308 -4.31255 2.68293 0
M  V30 1618 H 160.238 -5.14752 1.11076 0
M  V30 1619 H 162.729 -3.58772 1.18705 0
M  V30 1620 H 163.042 -7.11637 3.01317 0
M  V30 1621 H 161.387 -6.40265 2.70343 0
M  V30 1622 H 164.578 -4.41688 1.55013 0
M  V30 1623 H 164.751 -6.02606 2.38265 0
M  V30 1624 N 158.157 -0.370918 -1.53173 0
M  V30 1625 C 159.568 0.107139 -1.86392 0
M  V30 1626 C 159.919 1.47714 -1.29132 0
M  V30 1627 O 159.044 2.07464 -0.615439 0
M  V30 1628 C 159.639 0.201187 -3.38202 0
M  V30 1629 C 158.198 0.623507 -3.712 0
M  V30 1630 C 157.345 -0.225978 -2.76378 0
M  V30 1631 H 160.296 -0.58951 -1.47345 0
M  V30 1632 H 160.317 1.02377 -3.66468 0
M  V30 1633 H 159.829 -0.796058 -3.79848 0
M  V30 1634 H 157.93 1.62879 -3.35114 0
M  V30 1635 H 158.043 0.394414 -4.77474 0
M  V30 1636 H 156.407 0.305962 -2.52856 0
M  V30 1637 H 157.19 -1.22086 -3.20858 0
M  V30 1638 N 159.635 1.57281 -0.100228 0
M  V30 1639 C 160.882 1.94537 0.562268 0
M  V30 1640 C 161.21 0.982315 1.67871 0
M  V30 1641 O 160.465 0.00280936 1.957 0
M  V30 1642 C 160.764 3.38305 1.15259 0
M  V30 1643 C 160.43 4.50618 0.159409 0
M  V30 1644 C 159.092 4.81066 -0.113741 0
M  V30 1645 C 161.444 5.18615 -0.518461 0
M  V30 1646 C 158.772 5.76835 -1.07137 0
M  V30 1647 C 161.124 6.15412 -1.46459 0
M  V30 1648 C 159.788 6.44262 -1.74592 0
M  V30 1649 H 159.058 0.711863 0.205748 0
M  V30 1650 H 161.705 1.90679 -0.17715 0
M  V30 1651 H 160.01 3.38766 1.96836 0
M  V30 1652 H 161.707 3.64435 1.67297 0
M  V30 1653 H 158.297 4.2689 0.382491 0
M  V30 1654 H 162.481 4.95264 -0.320581 0
M  V30 1655 H 157.737 5.975 -1.29628 0
M  V30 1656 H 161.911 6.67194 -1.99564 0
M  V30 1657 H 159.538 7.1828 -2.48953 0
M  V30 1658 N 161.113 -0.173488 1.56642 0
M  V30 1659 C 162.076 -1.19859 1.95362 0
M  V30 1660 C 163.076 -1.37296 0.83704 0
M  V30 1661 O 164.266 -1.34739 1.10413 0
M  V30 1662 C 161.398 -2.56405 2.24654 0
M  V30 1663 H 162.591 -0.867062 2.87092 0
M  V30 1664 H 160.144 -0.415853 1.50666 0
M  V30 1665 H 160.879 -2.94576 1.35631 0
M  V30 1666 H 160.664 -2.45115 3.06041 0
M  V30 1667 H 162.154 -3.30287 2.5554 0
M  V30 1668 N 162.591 -1.51276 -0.441967 0
M  V30 1669 C 163.521 -1.752 -1.54361 0
M  V30 1670 C 164.502 -0.601682 -1.59103 0
M  V30 1671 O 165.687 -0.843913 -1.74905 0
M  V30 1672 C 162.817 -1.87282 -2.92477 0
M  V30 1673 C 161.771 -3.02687 -3.02596 0
M  V30 1674 C 161.097 -2.99947 -4.42647 0
M  V30 1675 C 162.397 -4.4273 -2.77106 0
M  V30 1676 H 164.091 -2.67442 -1.34592 0
M  V30 1677 H 161.637 -1.28694 -0.646048 0
M  V30 1678 H 163.59 -2.02602 -3.695 0
M  V30 1679 H 162.314 -0.916844 -3.13467 0
M  V30 1680 H 160.973 -2.87065 -2.28012 0
M  V30 1681 H 160.621 -2.02136 -4.60597 0
M  V30 1682 H 160.321 -3.77439 -4.50348 0
M  V30 1683 H 161.845 -3.17354 -5.2165 0
M  V30 1684 H 163.259 -4.58727 -3.43864 0
M  V30 1685 H 161.656 -5.21893 -2.96222 0
M  V30 1686 H 162.726 -4.53087 -1.72744 0
M  V30 1687 N 164.069 0.697108 -1.41344 0
M  V30 1688 C 165.315 1.4593 -1.40827 0
M  V30 1689 C 165.648 1.94193 -0.0167098 0
M  V30 1690 O 164.923 1.69425 0.955263 0
M  V30 1691 C 165.206 2.67229 -2.41373 0
M  V30 1692 C 165.059 2.24741 -3.8963 0
M  V30 1693 C 166.378 3.69423 -2.39196 0
M  V30 1694 H 163.497 0.529303 -0.512842 0
M  V30 1695 H 166.139 0.794112 -1.72609 0
M  V30 1696 H 164.289 3.23982 -2.14401 0
M  V30 1697 H 165.961 1.73327 -4.27499 0
M  V30 1698 H 164.204 1.56542 -4.0457 0
M  V30 1699 H 164.875 3.1177 -4.55525 0
M  V30 1700 H 167.351 3.2234 -2.63128 0
M  V30 1701 H 166.227 4.51907 -3.11563 0
M  V30 1702 H 166.488 4.19012 -1.41001 0
M  V30 1703 N 165.547 1.27147 0.931209 0
M  V30 1704 C 166.495 1.09398 2.05268 0
M  V30 1705 C 167.489 0.0180591 1.6939 0
M  V30 1706 O 168.695 0.17551 1.79142 0
M  V30 1707 H 165.07 0.336986 0.672268 0
M  V30 1708 H 167.041 2.04416 2.17386 0
M  V30 1709 C 165.79 0.75424 3.39421 0
M  V30 1710 H 165.113 1.57404 3.67511 0
M  V30 1711 H 166.553 0.669903 4.18674 0
M  V30 1712 C 165.012 -0.541197 3.32525 0
M  V30 1713 O 165.542 -1.57664 3.69466 0
M  V30 1714 N 163.748 -0.535517 2.85623 0
M  V30 1715 H 163.295 0.307511 2.55758 0
M  V30 1716 H 163.253 -1.40236 2.81392 0
M  V30 1717 N 167.025 -1.13721 1.09112 0
M  V30 1718 C 167.988 -2.17222 0.731241 0
M  V30 1719 C 168.988 -1.59035 -0.237566 0
M  V30 1720 O 170.178 -1.74192 -0.0161704 0
M  V30 1721 C 167.31 -3.40804 0.0808443 0
M  V30 1722 H 168.503 -2.50573 1.64783 0
M  V30 1723 H 166.056 -1.28493 0.889897 0
M  V30 1724 H 166.791 -3.1304 -0.847127 0
M  V30 1725 H 166.576 -3.84306 0.777896 0
M  V30 1726 H 168.066 -4.1731 -0.155657 0
M  V30 1727 N 168.503 -0.877838 -1.30888 0
M  V30 1728 C 169.749 -0.493426 -1.96706 0
M  V30 1729 C 170.082 0.953504 -1.6918 0
M  V30 1730 O 169.357 1.67266 -0.992594 0
M  V30 1731 C 169.64 -0.760429 -3.51979 0
M  V30 1732 C 169.493 -2.25747 -3.89048 0
M  V30 1733 C 170.812 -0.232148 -4.39487 0
M  V30 1734 H 167.931 -0.180746 -0.714493 0
M  V30 1735 H 170.573 -1.10052 -1.54882 0
M  V30 1736 H 168.723 -0.243715 -3.87735 0
M  V30 1737 H 170.395 -2.84204 -3.63354 0
M  V30 1738 H 168.638 -2.72694 -3.37373 0
M  V30 1739 H 169.309 -2.39491 -4.97341 0
M  V30 1740 H 171.785 -0.674314 -4.106 0
M  V30 1741 H 170.661 -0.448355 -5.47066 0
M  V30 1742 H 170.922 0.866297 -4.33529 0
M  V30 1743 N 169.982 1.44106 -0.638065 0
M  V30 1744 C 170.945 2.29138 0.0531013 0
M  V30 1745 C 171.945 1.41409 0.765506 0
M  V30 1746 O 173.135 1.63206 0.609046 0
M  V30 1747 C 170.267 3.23144 1.08584 0
M  V30 1748 H 171.46 2.91739 -0.694883 0
M  V30 1749 H 169.013 1.51134 -0.398538 0
M  V30 1750 H 169.748 2.65408 1.86357 0
M  V30 1751 H 169.533 3.87804 0.578852 0
M  V30 1752 H 171.023 3.87004 1.56899 0
M  V30 1753 N 171.46 0.379036 1.52974 0
M  V30 1754 C 172.685 -0.209353 2.06341 0
M  V30 1755 C 173.11 -1.40583 1.24972 0
M  V30 1756 O 172.468 -1.79246 0.272155 0
M  V30 1757 C 172.516 -0.567786 3.56102 0
M  V30 1758 O 171.62 -1.66318 3.77375 0
M  V30 1759 H 170.961 -0.0272919 0.663439 0
M  V30 1760 H 173.491 0.543536 1.97248 0
M  V30 1761 H 173.501 -0.835003 3.99364 0
M  V30 1762 H 172.176 0.307013 4.14765 0
M  V30 1763 H 170.753 -1.39048 3.46006 0
M  V30 1764 N 172.938 -1.57226 0.108567 0
M  V30 1765 C 173.87 -2.11809 -0.875752 0
M  V30 1766 C 174.883 -1.05839 -1.23701 0
M  V30 1767 O 176.072 -1.33245 -1.18778 0
M  V30 1768 C 173.172 -2.59411 -2.18081 0
M  V30 1769 C 172.345 -3.89364 -1.99284 0
M  V30 1770 C 171.404 -4.22672 -3.13424 0
M  V30 1771 O 170.43 -4.91668 -2.86795 0
M  V30 1772 N 171.632 -3.79154 -4.3957 0
M  V30 1773 H 174.397 -2.9689 -0.409477 0
M  V30 1774 H 171.958 -1.61721 -0.076158 0
M  V30 1775 H 173.95 -2.7873 -2.93414 0
M  V30 1776 H 172.52 -1.79268 -2.5609 0
M  V30 1777 H 171.74 -3.79059 -1.08203 0
M  V30 1778 H 173.028 -4.74358 -1.84017 0
M  V30 1779 H 172.426 -3.23486 -4.64083 0
M  V30 1780 H 170.983 -4.03602 -5.11809 0
M  V30 1781 N 174.416 0.165178 -1.56732 0
M  V30 1782 C 175.349 1.23336 -1.91998 0
M  V30 1783 C 176.327 1.42476 -0.783531 0
M  V30 1784 O 177.511 1.57384 -1.03743 0
M  V30 1785 C 174.638 2.59533 -2.17625 0
M  V30 1786 C 173.684 2.57093 -3.40302 0
M  V30 1787 S 174.517 2.05571 -4.9447 0
M  V30 1788 C 175.673 3.43532 -5.23198 0
M  V30 1789 H 175.906 0.932387 -2.82301 0
M  V30 1790 H 173.439 0.370013 -1.49901 0
M  V30 1791 H 175.397 3.37918 -2.3307 0
M  V30 1792 H 174.058 2.86827 -1.28019 0
M  V30 1793 H 173.251 3.57308 -3.55453 0
M  V30 1794 H 172.853 1.86806 -3.24005 0
M  V30 1795 H 175.145 4.39559 -5.15552 0
M  V30 1796 H 176.088 3.33251 -6.2478 0
M  V30 1797 H 176.496 3.39828 -4.50752 0
M  V30 1798 N 175.894 1.51508 0.433938 0
M  V30 1799 C 176.841 1.73068 1.52696 0
M  V30 1800 C 177.811 0.572441 1.55924 0
M  V30 1801 O 178.996 0.807253 1.72882 0
M  V30 1802 C 176.136 1.86474 2.90381 0
M  V30 1803 C 175.249 3.14037 2.96656 0
M  V30 1804 C 174.384 3.18019 4.25485 0
M  V30 1805 C 173.423 4.39882 4.2564 0
M  V30 1806 N 172.56 4.41394 5.45999 0
M  V30 1807 H 177.4 2.66366 1.33615 0
M  V30 1808 H 174.937 1.32008 0.649018 0
M  V30 1809 H 176.895 1.92229 3.70275 0
M  V30 1810 H 175.525 0.965809 3.08013 0
M  V30 1811 H 174.577 3.17575 2.09404 0
M  V30 1812 H 175.889 4.0394 2.92633 0
M  V30 1813 H 175.043 3.22708 5.13755 0
M  V30 1814 H 173.782 2.2601 4.3217 0
M  V30 1815 H 172.787 4.35366 3.35763 0
M  V30 1816 H 174.012 5.33159 4.20617 0
M  V30 1817 H 171.958 3.52258 5.53399 0
M  V30 1818 H 171.875 5.25111 5.4387 0
M  V30 1819 H 173.143 4.50281 6.36292 0
M  V30 1820 N 177.372 -0.689602 1.41712 0
M  V30 1821 C 178.319 -1.80345 1.44029 0
M  V30 1822 C 179.289 -1.63478 0.293948 0
M  V30 1823 O 180.474 -1.84244 0.495869 0
M  V30 1824 C 177.614 -3.18272 1.33405 0
M  V30 1825 C 176.727 -3.46529 2.57956 0
M  V30 1826 C 175.862 -4.74103 2.39582 0
M  V30 1827 C 174.901 -4.95347 3.5958 0
M  V30 1828 N 174.038 -6.14151 3.40239 0
M  V30 1829 H 178.878 -1.77698 2.39222 0
M  V30 1830 H 176.415 -0.867688 1.18784 0
M  V30 1831 H 178.373 -3.97956 1.25246 0
M  V30 1832 H 177.003 -3.2008 0.418164 0
M  V30 1833 H 176.055 -2.61207 2.76542 0
M  V30 1834 H 177.367 -3.58126 3.47199 0
M  V30 1835 H 176.521 -5.61853 2.28924 0
M  V30 1836 H 175.26 -4.64763 1.47805 0
M  V30 1837 H 174.265 -4.06044 3.70686 0
M  V30 1838 H 175.49 -5.06542 4.52318 0
M  V30 1839 H 173.436 -6.06013 2.51167 0
M  V30 1840 H 173.353 -6.26543 4.23061 0
M  V30 1841 H 174.621 -7.04619 3.33365 0
M  V30 1842 N 178.85 -1.27639 -0.924453 0
M  V30 1843 C 180.266 -1.05113 -1.20097 0
M  V30 1844 C 180.466 0.213262 -2.00368 0
M  V30 1845 O 179.522 0.91787 -2.35226 0
M  V30 1846 C 180.835 -2.29244 -1.94596 0
M  V30 1847 C 182.383 -2.34315 -2.07522 0
M  V30 1848 C 182.858 -3.58183 -2.85427 0
M  V30 1849 N 184.349 -3.5876 -2.92994 0
M  V30 1850 C 185.084 -4.51277 -3.53746 0
M  V30 1851 N 184.58 -5.54102 -4.15863 0
M  V30 1852 N 186.373 -4.38894 -3.51181 0
M  V30 1853 H 178.524 -2.08821 -0.388264 0
M  V30 1854 H 180.787 -0.918568 -0.234385 0
M  V30 1855 H 180.493 -3.21301 -1.43034 0
M  V30 1856 H 180.367 -2.34816 -2.95197 0
M  V30 1857 H 182.754 -1.42762 -2.58269 0
M  V30 1858 H 182.835 -2.32744 -1.06131 0
M  V30 1859 H 182.479 -4.50074 -2.35363 0
M  V30 1860 H 182.409 -3.57006 -3.8711 0
M  V30 1861 H 184.9 -2.84398 -2.4885 0
M  V30 1862 H 185.213 -6.20859 -4.60168 0
M  V30 1863 H 183.558 -5.57941 -4.144 0
M  V30 1864 H 186.749 -3.57772 -3.01856 0
M  V30 1865 H 186.922 -5.11186 -3.98237 0
M  V30 1866 N 180.328 1.1314 -1.09713 0
M  V30 1867 C 181.275 2.18642 -0.739196 0
M  V30 1868 C 182.245 1.63706 0.280978 0
M  V30 1869 O 183.43 1.90111 0.161946 0
M  V30 1870 C 180.57 3.44685 -0.169102 0
M  V30 1871 C 179.683 4.13711 -1.24367 0
M  V30 1872 C 178.818 5.27379 -0.636019 0
M  V30 1873 C 177.857 5.88259 -1.69169 0
M  V30 1874 N 176.994 6.93352 -1.10485 0
M  V30 1875 H 181.834 2.48607 -1.64312 0
M  V30 1876 H 179.371 1.22066 -0.820875 0
M  V30 1877 H 181.329 4.16815 0.179256 0
M  V30 1878 H 179.959 3.15161 0.698079 0
M  V30 1879 H 179.011 3.39835 -1.70927 0
M  V30 1880 H 180.323 4.55037 -2.04311 0
M  V30 1881 H 179.477 6.06238 -0.236677 0
M  V30 1882 H 178.216 4.8731 0.194928 0
M  V30 1883 H 177.221 5.08092 -2.10055 0
M  V30 1884 H 178.446 6.30399 -2.52536 0
M  V30 1885 H 176.392 6.55335 -0.295234 0
M  V30 1886 H 176.309 7.33236 -1.84121 0
M  V30 1887 H 177.577 7.76057 -0.73181 0
M  V30 1888 N 181.806 0.884767 1.30421 0
M  V30 1889 C 183.031 0.517288 2.00845 0
M  V30 1890 C 183.456 -0.886779 1.65885 0
M  V30 1891 O 182.814 -1.58768 0.875354 0
M  V30 1892 C 182.862 0.698994 3.5376 0
M  V30 1893 O 181.966 -0.255208 4.1161 0
M  V30 1894 H 181.307 0.203872 0.631927 0
M  V30 1895 H 183.837 1.19225 1.66272 0
M  V30 1896 H 183.847 0.597912 4.03595 0
M  V30 1897 H 182.522 1.72271 3.78544 0
M  V30 1898 H 181.099 -0.10784 3.72744 0
M  V30 1899 N 183.284 -1.43765 0.645699 0
M  V30 1900 C 184.532 -2.01499 0.155731 0
M  V30 1901 C 184.853 -1.51151 -1.232 0
M  V30 1902 O 184.123 -0.721044 -1.82148 0
M  V30 1903 H 182.703 -0.745003 0.0545817 0
M  V30 1904 H 185.365 -1.76075 0.835677 0
M  V30 1905 H 184.461 -3.1181 0.134577 0
M  V30 1906 N 184.763 -0.387143 -1.52771 0
M  V30 1907 C 185.713 0.465942 -2.23188 0
M  V30 1908 C 186.697 1.03138 -1.23496 0
M  V30 1909 O 187.889 0.957845 -1.48843 0
M  V30 1910 C 185.018 1.59384 -3.04059 0
M  V30 1911 C 184.104 1.04024 -4.11144 0
M  V30 1912 N 184.495 0.211416 -5.05358 0
M  V30 1913 C 182.793 1.31295 -4.26237 0
M  V30 1914 C 183.494 -0.0941698 -5.81624 0
M  V30 1915 N 182.47 0.509207 -5.4121 0
M  V30 1916 H 186.272 -0.173856 -2.93385 0
M  V30 1917 H 183.786 -0.19633 -1.61209 0
M  V30 1918 H 185.783 2.21738 -3.53041 0
M  V30 1919 H 184.443 2.23648 -2.35397 0
M  V30 1920 H 185.454 -0.151151 -5.17679 0
M  V30 1921 H 182.131 1.95679 -3.68803 0
M  V30 1922 H 183.521 -0.765572 -6.67524 0
M  V30 1923 N 186.241 1.57166 -0.116904 0
M  V30 1924 C 187.49 1.94298 0.541407 0
M  V30 1925 C 187.803 1.00236 1.67964 0
M  V30 1926 O 189.009 1.26826 2.40057 0
M  V30 1927 C 187.465 3.45306 1.01449 0
M  V30 1928 C 187.073 4.47899 -0.0951738 0
M  V30 1929 C 188.817 3.91361 1.6443 0
M  V30 1930 C 186.724 5.90083 0.394491 0
M  V30 1931 H 185.654 0.725308 0.206019 0
M  V30 1932 H 188.305 1.82446 -0.196419 0
M  V30 1933 H 186.687 3.52385 1.80667 0
M  V30 1934 H 187.861 4.52486 -0.871374 0
M  V30 1935 H 186.176 4.11583 -0.631505 0
M  V30 1936 H 188.773 4.95004 2.02176 0
M  V30 1937 H 189.116 3.3122 2.52189 0
M  V30 1938 H 189.649 3.87073 0.917559 0
M  V30 1939 H 186.388 6.53974 -0.447004 0
M  V30 1940 H 185.908 5.88921 1.13722 0
M  V30 1941 H 187.587 6.41307 0.856399 0
M  V30 1942 N 187.719 -0.156864 1.56817 0
M  V30 1943 C 188.968 -0.869504 1.81996 0
M  V30 1944 C 189.281 -1.82777 0.696545 0
M  V30 1945 O 190.487 -2.58384 0.833658 0
M  V30 1946 C 188.943 -1.59679 3.22538 0
M  V30 1947 C 188.551 -0.681431 4.42787 0
M  V30 1948 C 190.295 -2.2968 3.56997 0
M  V30 1949 C 188.202 -1.40978 5.74351 0
M  V30 1950 H 187.132 -0.328438 0.678708 0
M  V30 1951 H 189.783 -0.1223 1.83092 0
M  V30 1952 H 188.165 -2.38927 3.158 0
M  V30 1953 H 189.339 0.0751166 4.60739 0
M  V30 1954 H 187.654 -0.0903431 4.16302 0
M  V30 1955 H 190.251 -2.84794 4.52544 0
M  V30 1956 H 190.594 -3.05707 2.82576 0
M  V30 1957 H 191.127 -1.57361 3.65352 0
M  V30 1958 H 187.866 -0.691561 6.51842 0
M  V30 1959 H 187.386 -2.13929 5.60352 0
M  V30 1960 H 189.065 -1.95337 6.16808 0
M  V30 1961 N 189.197 -1.51736 -0.425897 0
M  V30 1962 C 190.444 -1.6497 -1.17436 0
M  V30 1963 C 190.772 -0.371445 -1.9092 0
M  V30 1964 O 190.027 0.644963 -1.84767 0
M  V30 1965 C 190.326 -2.81103 -2.20717 0
M  V30 1966 C 189.992 -4.19954 -1.64162 0
M  V30 1967 C 188.654 -4.57725 -1.48462 0
M  V30 1968 C 191.006 -5.06552 -1.22696 0
M  V30 1969 C 188.334 -5.79789 -0.897873 0
M  V30 1970 C 190.686 -6.29205 -0.654464 0
M  V30 1971 C 189.35 -6.6574 -0.484456 0
M  V30 1972 H 188.62 -0.603668 -0.429727 0
M  V30 1973 H 191.267 -1.85798 -0.463829 0
M  V30 1974 H 189.572 -2.54542 -2.97852 0
M  V30 1975 H 191.269 -2.8854 -2.78471 0
M  V30 1976 H 187.859 -3.90181 -1.77361 0
M  V30 1977 H 192.043 -4.77968 -1.33642 0
M  V30 1978 H 187.299 -6.06733 -0.75402 0
M  V30 1979 H 191.473 -6.95643 -0.324694 0
M  V30 1980 H 189.1 -7.60195 -0.0276833 0
M  V30 1981 N 190.675 0.682077 -1.42076 0
M  V30 1982 C 191.924 1.43786 -1.41451 0
M  V30 1983 C 192.237 1.95574 -0.0317074 0
M  V30 1984 O 193.443 2.71326 0.0971462 0
M  V30 1985 C 191.899 2.60071 -2.48779 0
M  V30 1986 C 191.507 2.15013 -3.93031 0
M  V30 1987 C 193.251 3.37626 -2.57311 0
M  V30 1988 C 191.158 3.28336 -4.91883 0
M  V30 1989 H 190.088 0.540143 -0.526082 0
M  V30 1990 H 192.739 0.739157 -1.67955 0
M  V30 1991 H 191.121 3.32275 -2.15429 0
M  V30 1992 H 192.295 1.5001 -4.35699 0
M  V30 1993 H 190.61 1.50416 -3.88284 0
M  V30 1994 H 193.207 4.22012 -3.28345 0
M  V30 1995 H 193.55 3.83727 -1.61429 0
M  V30 1996 H 194.083 2.72488 -2.89819 0
M  V30 1997 H 190.822 2.87234 -5.89217 0
M  V30 1998 H 190.342 3.92145 -4.53853 0
M  V30 1999 H 192.021 3.93913 -5.13265 0
M  V30 2000 N 192.153 1.28127 0.917671 0
M  V30 2001 C 193.381 1.17892 1.70026 0
M  V30 2002 C 193.796 -0.262958 1.8696 0
M  V30 2003 O 193.153 -1.17811 1.3938 0
M  V30 2004 C 193.204 1.86872 3.09453 0
M  V30 2005 O 192.925 3.25428 2.93306 0
M  V30 2006 C 194.426 1.8289 4.03815 0
M  V30 2007 H 191.646 0.40942 0.531617 0
M  V30 2008 H 194.19 1.69181 1.14883 0
M  V30 2009 H 192.345 1.39464 3.61426 0
M  V30 2010 H 192.759 3.59918 3.81523 0
M  V30 2011 H 194.233 2.35751 4.99125 0
M  V30 2012 H 194.71 0.800412 4.31845 0
M  V30 2013 H 195.316 2.29959 3.57769 0
M  V30 2014 N 193.631 -1.12557 1.10312 0
M  V30 2015 C 194.856 -1.88405 0.867085 0
M  V30 2016 C 195.281 -1.79038 -0.576817 0
M  V30 2017 O 194.639 -1.14439 -1.40618 0
M  V30 2018 C 194.687 -3.3563 1.31851 0
M  V30 2019 O 193.791 -4.09565 0.482734 0
M  V30 2020 H 193.132 -0.585455 0.313271 0
M  V30 2021 H 195.662 -1.42352 1.4696 0
M  V30 2022 H 195.672 -3.86469 1.3079 0
M  V30 2023 H 194.347 -3.41765 2.37001 0
M  V30 2024 H 192.924 -3.68695 0.558448 0
M  V30 2025 N 195.109 -0.891671 -1.2995 0
M  V30 2026 C 196.072 -0.36828 -2.26222 0
M  V30 2027 C 197.072 0.493014 -1.53056 0
M  V30 2028 O 198.262 0.299213 -1.71611 0
M  V30 2029 C 195.394 0.47442 -3.37583 0
M  V30 2030 H 196.587 -1.21844 -2.74033 0
M  V30 2031 H 194.14 -0.669107 -1.41254 0
M  V30 2032 H 194.875 1.34489 -2.95099 0
M  V30 2033 H 194.66 -0.142615 -3.91841 0
M  V30 2034 H 196.15 0.83218 -4.09224 0
M  V30 2035 N 196.587 1.43421 -0.653314 0
M  V30 2036 C 197.815 2.06163 -0.174491 0
M  V30 2037 C 198.23 1.48969 1.1599 0
M  V30 2038 O 197.587 0.621042 1.71608 0
M  V30 2039 C 197.638 3.61417 -0.0774865 0
M  V30 2040 O 197.359 4.16485 -1.35912 0
M  V30 2041 C 198.86 4.41235 0.427402 0
M  V30 2042 H 196.08 0.664946 -0.0899353 0
M  V30 2043 H 198.624 1.83924 -0.893988 0
M  V30 2044 H 196.779 3.82841 0.59257 0
M  V30 2045 H 197.193 5.10153 -1.21839 0
M  V30 2046 H 198.667 5.5021 0.44423 0
M  V30 2047 H 199.144 4.14268 1.45873 0
M  V30 2048 H 199.75 4.2478 -0.210167 0
M  V30 2049 N 198.065 0.39524 1.52563 0
M  V30 2050 C 199.476 -0.0774719 1.86539 0
M  V30 2051 C 199.827 -1.45641 1.31466 0
M  V30 2052 O 198.952 -2.06459 0.648367 0
M  V30 2053 C 199.547 -0.147356 3.38479 0
M  V30 2054 C 198.106 -0.564373 3.72145 0
M  V30 2055 C 197.253 0.269919 2.75983 0
M  V30 2056 H 200.204 0.612876 1.46388 0
M  V30 2057 H 200.225 -0.965343 3.68051 0
M  V30 2058 H 199.737 0.856387 3.78534 0
M  V30 2059 H 197.838 -1.57527 3.37663 0
M  V30 2060 H 197.951 -0.318402 4.78041 0
M  V30 2061 H 196.315 -0.265696 2.5331 0
M  V30 2062 H 197.098 1.27175 3.18875 0
M  V30 2063 N 199.544 -1.57102 0.125237 0
M  V30 2064 C 200.791 -1.95407 -0.531248 0
M  V30 2065 C 201.119 -1.0089 -1.66287 0
M  V30 2066 O 200.374 -0.0339431 -1.95671 0
M  V30 2067 C 200.673 -3.40096 -1.09862 0
M  V30 2068 C 200.339 -4.50815 -0.0876989 0
M  V30 2069 C 199.001 -4.80824 0.19026 0
M  V30 2070 C 201.353 -5.17724 0.600902 0
M  V30 2071 C 198.681 -5.75058 1.163 0
M  V30 2072 C 201.033 -6.13005 1.56231 0
M  V30 2073 C 199.697 -6.41403 1.8482 0
M  V30 2074 H 198.967 -0.715046 -0.194397 0
M  V30 2075 H 201.614 -1.90373 0.207463 0
M  V30 2076 H 199.919 -3.41855 -1.91422 0
M  V30 2077 H 201.616 -3.6705 -1.61478 0
M  V30 2078 H 198.206 -4.27444 -0.314528 0
M  V30 2079 H 202.39 -4.94691 0.399333 0
M  V30 2080 H 197.646 -5.95362 1.39117 0
M  V30 2081 H 201.82 -6.63934 2.10153 0
M  V30 2082 H 199.447 -7.14229 2.60349 0
M  V30 2083 N 201.022 0.148545 -1.56898 0
M  V30 2084 C 202.27 0.859717 -1.82902 0
M  V30 2085 C 202.591 1.81775 -0.70588 0
M  V30 2086 O 201.861 1.93994 0.272586 0
M  V30 2087 H 200.441 0.320469 -0.674766 0
M  V30 2088 H 203.103 0.142918 -1.94375 0
M  V30 2089 H 202.199 1.4229 -2.77777 0
M  V30 2090 N 202.5 1.5196 0.417844 0
M  V30 2091 C 203.911 1.57851 0.997 0
M  V30 2092 C 204.262 0.413714 1.91789 0
M  V30 2093 O 203.387 -0.467057 2.113 0
M  V30 2094 C 203.982 2.86085 1.81496 0
M  V30 2095 C 202.541 2.94483 2.34428 0
M  V30 2096 C 201.688 2.52707 1.14169 0
M  V30 2097 H 204.639 1.57455 0.198392 0
M  V30 2098 H 204.66 2.70947 2.67148 0
M  V30 2099 H 204.172 3.70842 1.14446 0
M  V30 2100 H 202.273 2.142 3.04875 0
M  V30 2101 H 202.386 3.98546 2.65891 0
M  V30 2102 H 200.75 2.06353 1.49301 0
M  V30 2103 H 201.533 3.39828 0.486999 0
M  V30 2104 N 203.978 -0.674533 1.42435 0
M  V30 2105 C 205.224 -1.43521 1.4413 0
M  V30 2106 C 205.579 -1.92316 0.0567773 0
M  V30 2107 O 204.872 -1.68008 -0.921076 0
M  V30 2108 C 205.066 -2.64767 2.40069 0
M  V30 2109 C 204.895 -2.27836 3.87713 0
M  V30 2110 C 203.665 -2.17183 4.56245 0
M  V30 2111 C 205.863 -1.89466 4.78129 0
M  V30 2112 N 203.845 -1.73358 5.88915 0
M  V30 2113 C 205.216 -1.56561 5.99907 0
M  V30 2114 C 207.271 -1.7646 4.65582 0
M  V30 2115 C 205.974 -1.11957 7.10534 0
M  V30 2116 C 208 -1.3326 5.76191 0
M  V30 2117 C 207.362 -1.0128 6.97081 0
M  V30 2118 H 203.461 -0.521656 0.582579 0
M  V30 2119 H 206.045 -0.778381 1.78464 0
M  V30 2120 H 204.216 -3.28139 2.07796 0
M  V30 2121 H 205.948 -3.3136 2.32342 0
M  V30 2122 H 202.703 -2.3626 4.10461 0
M  V30 2123 H 203.127 -1.53867 6.59283 0
M  V30 2124 H 207.769 -1.99831 3.72595 0
M  V30 2125 H 205.487 -0.873318 8.03367 0
M  V30 2126 H 209.073 -1.23717 5.68494 0
M  V30 2127 H 207.953 -0.683597 7.81215 0
M  V30 2128 N 205.456 -1.28612 -0.910864 0
M  V30 2129 C 206.403 -1.12786 -2.01365 0
M  V30 2130 C 207.373 -0.024201 -1.66082 0
M  V30 2131 O 208.558 -0.189667 -1.89855 0
M  V30 2132 C 205.698 -0.798743 -3.35729 0
M  V30 2133 C 204.811 -1.98173 -3.83864 0
M  V30 2134 C 203.946 -1.59298 -5.06752 0
M  V30 2135 C 202.985 -2.74245 -5.47226 0
M  V30 2136 N 202.122 -2.35842 -6.61304 0
M  V30 2137 H 206.962 -2.07142 -2.14234 0
M  V30 2138 H 204.499 -1.03093 -1.0493 0
M  V30 2139 H 206.457 -0.588662 -4.13026 0
M  V30 2140 H 205.087 0.10789 -3.2262 0
M  V30 2141 H 204.139 -2.30386 -3.02699 0
M  V30 2142 H 205.451 -2.84343 -4.09818 0
M  V30 2143 H 204.605 -1.34513 -5.916 0
M  V30 2144 H 203.344 -0.702618 -4.82612 0
M  V30 2145 H 202.349 -2.99725 -4.60918 0
M  V30 2146 H 203.574 -3.63928 -5.73353 0
M  V30 2147 H 201.52 -1.49279 -6.38789 0
M  V30 2148 H 201.437 -3.15546 -6.86998 0
M  V30 2149 H 202.705 -2.14348 -7.4945 0
M  V30 2150 N 206.934 1.1197 -1.10907 0
M  V30 2151 C 207.844 2.21433 -0.774896 0
M  V30 2152 C 208.86 1.72478 0.229657 0
M  V30 2153 O 210.036 2.01288 0.0672008 0
M  V30 2154 C 207.101 3.4602 -0.216986 0
M  V30 2155 C 206.162 4.09791 -1.27944 0
M  V30 2156 C 205.395 5.28431 -0.748055 0
M  V30 2157 O 205.618 5.68823 0.423833 0
M  V30 2158 O 204.552 5.82644 -1.51027 0
M  V30 2159 H 208.378 2.5242 -1.68873 0
M  V30 2160 H 205.963 1.20399 -0.884555 0
M  V30 2161 H 207.845 4.21304 0.090059 0
M  V30 2162 H 206.52 3.16698 0.669633 0
M  V30 2163 H 205.427 3.36265 -1.63941 0
M  V30 2164 H 206.76 4.4328 -2.13925 0
M  V30 2165 N 208.412 0.89855 1.29475 0
M  V30 2166 C 209.342 0.39201 2.30186 0
M  V30 2167 C 210.323 -0.532359 1.61555 0
M  V30 2168 O 211.508 -0.443331 1.89072 0
M  V30 2169 C 208.638 -0.382353 3.45189 0
M  V30 2170 C 207.592 0.451483 4.25612 0
M  V30 2171 C 206.918 -0.450307 5.328 0
M  V30 2172 C 208.218 1.70079 4.93832 0
M  V30 2173 H 209.912 1.23362 2.72804 0
M  V30 2174 H 207.458 0.594638 1.31149 0
M  V30 2175 H 209.411 -0.747451 4.14718 0
M  V30 2176 H 208.135 -1.25774 3.01411 0
M  V30 2177 H 206.794 0.798897 3.57789 0
M  V30 2178 H 206.442 -1.32379 4.85268 0
M  V30 2179 H 206.142 0.103902 5.87508 0
M  V30 2180 H 207.666 -0.811623 6.05182 0
M  V30 2181 H 209.08 1.40549 5.55805 0
M  V30 2182 H 207.477 2.19623 5.58467 0
M  V30 2183 H 208.547 2.43744 4.19186 0
M  V30 2184 N 209.89 -1.43072 0.660911 0
M  V30 2185 C 211.115 -2.06584 0.183805 0
M  V30 2186 C 211.54 -1.49257 -1.14472 0
M  V30 2187 O 210.898 -0.605528 -1.70889 0
M  V30 2188 C 210.946 -3.60418 0.114434 0
M  V30 2189 O 210.05 -4.01981 -0.921137 0
M  V30 2190 H 209.391 -0.656669 0.0983994 0
M  V30 2191 H 211.921 -1.83447 0.906006 0
M  V30 2192 H 211.931 -4.07946 -0.0663394 0
M  V30 2193 H 210.606 -4.01519 1.08422 0
M  V30 2194 H 209.183 -3.66029 -0.71253 0
M  V30 2195 N 211.368 -0.403325 -1.52352 0
M  V30 2196 C 212.596 0.174012 -2.06167 0
M  V30 2197 C 213.011 1.39347 -1.27388 0
M  V30 2198 O 212.368 1.79597 -0.324201 0
M  V30 2199 C 212.419 0.530223 -3.5759 0
M  V30 2200 O 212.14 -0.640806 -4.33388 0
M  V30 2201 C 213.641 1.16192 -4.27802 0
M  V30 2202 H 210.861 0.0229464 -0.670608 0
M  V30 2203 H 213.405 -0.572604 -1.9632 0
M  V30 2204 H 211.56 1.22673 -3.67464 0
M  V30 2205 H 211.974 -0.344851 -5.23365 0
M  V30 2206 H 213.448 1.36141 -5.34948 0
M  V30 2207 H 213.925 2.13335 -3.83907 0
M  V30 2208 H 214.531 0.505775 -4.22282 0
M  V30 2209 N 212.846 1.57033 -0.133567 0
M  V30 2210 C 214.076 1.99754 0.527429 0
M  V30 2211 C 214.484 1.01245 1.59832 0
M  V30 2212 O 213.827 -0.000645496 1.837 0
M  V30 2213 C 213.889 3.38903 1.19939 0
M  V30 2214 C 213.553 4.56174 0.274709 0
M  V30 2215 C 214.55 5.17563 -0.492398 0
M  V30 2216 C 212.235 5.01972 0.18153 0
M  V30 2217 C 214.229 6.2315 -1.34027 0
M  V30 2218 C 211.916 6.07416 -0.669958 0
M  V30 2219 C 212.914 6.67874 -1.42947 0
M  V30 2220 O 212.602 7.71279 -2.2668 0
M  V30 2221 H 212.334 0.660702 0.142999 0
M  V30 2222 H 214.888 2.04207 -0.221099 0
M  V30 2223 H 213.118 3.31248 1.99528 0
M  V30 2224 H 214.807 3.65818 1.75875 0
M  V30 2225 H 215.573 4.83087 -0.430367 0
M  V30 2226 H 211.452 4.54652 0.762422 0
M  V30 2227 H 214.996 6.70268 -1.93357 0
M  V30 2228 H 210.893 6.41321 -0.73333 0
M  V30 2229 H 211.661 7.88441 -2.1978 0
M  V30 2230 N 214.325 -0.140222 1.56975 0
M  V30 2231 C 215.553 -0.866437 1.87884 0
M  V30 2232 C 215.968 -1.74428 0.722517 0
M  V30 2233 O 215.325 -1.79891 -0.30749 0
M  V30 2234 C 215.376 -1.71753 3.18093 0
M  V30 2235 O 215.097 -0.875056 4.29272 0
M  V30 2236 C 216.598 -2.55074 3.62563 0
M  V30 2237 H 213.818 -0.25019 0.622612 0
M  V30 2238 H 216.362 -0.130977 2.0408 0
M  V30 2239 H 214.517 -2.40598 3.03631 0
M  V30 2240 H 214.931 -1.46002 5.03769 0
M  V30 2241 H 216.405 -3.10356 4.5649 0
M  V30 2242 H 216.882 -3.31434 2.88181 0
M  V30 2243 H 217.488 -1.91509 3.79743 0
M  V30 2244 N 215.803 -1.52179 -0.40978 0
M  V30 2245 C 217.028 -1.70347 -1.18308 0
M  V30 2246 C 217.453 -0.411887 -1.83535 0
M  V30 2247 O 216.811 0.630587 -1.6998 0
M  V30 2248 C 216.859 -2.83977 -2.22238 0
M  V30 2249 O 215.963 -2.495 -3.28365 0
M  V30 2250 H 215.304 -0.567103 -0.345384 0
M  V30 2251 H 217.834 -1.98879 -0.480445 0
M  V30 2252 H 217.844 -3.0887 -2.66577 0
M  V30 2253 H 216.519 -3.77685 -1.74146 0
M  V30 2254 H 215.096 -2.35277 -2.89308 0
M  V30 2255 N 217.281 0.66697 -1.42791 0
M  V30 2256 C 218.244 1.76211 -1.46568 0
M  V30 2257 C 219.244 1.56896 -0.352196 0
M  V30 2258 O 220.434 1.63044 -0.613364 0
M  V30 2259 C 217.566 3.14935 -1.30494 0
M  V30 2260 H 218.759 1.74247 -2.44086 0
M  V30 2261 H 216.312 0.877342 -1.29354 0
M  V30 2262 H 217.047 3.2252 -0.339301 0
M  V30 2263 H 216.832 3.30359 -2.11199 0
M  V30 2264 H 218.322 3.94821 -1.36038 0
M  V30 2265 N 218.759 1.29093 0.90403 0
M  V30 2266 C 220.175 1.07011 1.1841 0
M  V30 2267 C 220.375 -0.181358 2.00682 0
M  V30 2268 O 219.431 -0.880331 2.36657 0
M  V30 2269 C 220.744 2.32311 1.90924 0
M  V30 2270 C 222.292 2.37587 2.03768 0
M  V30 2271 C 222.767 3.62679 2.79693 0
M  V30 2272 N 224.258 3.63376 2.87249 0
M  V30 2273 C 224.993 4.56848 3.46522 0
M  V30 2274 N 224.489 5.60648 4.06996 0
M  V30 2275 N 226.282 4.44426 3.44154 0
M  V30 2276 H 218.433 2.09412 0.354993 0
M  V30 2277 H 220.696 0.922181 0.219742 0
M  V30 2278 H 220.402 3.23536 1.37905 0
M  V30 2279 H 220.276 2.39483 2.91424 0
M  V30 2280 H 222.663 1.46853 2.55965 0
M  V30 2281 H 222.744 2.34403 1.02415 0
M  V30 2282 H 222.388 4.53762 2.28173 0
M  V30 2283 H 222.318 3.63119 3.81381 0
M  V30 2284 H 224.809 2.88321 2.44293 0
M  V30 2285 H 225.122 6.28101 4.50232 0
M  V30 2286 H 223.467 5.64463 4.05471 0
M  V30 2287 H 226.658 3.62529 2.96126 0
M  V30 2288 H 226.831 5.17457 3.90054 0
M  V30 2289 N 220.237 -1.11381 1.11499 0
M  V30 2290 C 221.2 -2.15622 0.777153 0
M  V30 2291 C 222.2 -1.59504 -0.203779 0
M  V30 2292 O 223.39 -1.74188 0.020782 0
M  V30 2293 C 220.522 -3.40556 0.153116 0
M  V30 2294 H 221.715 -2.47021 1.70061 0
M  V30 2295 H 219.268 -1.26577 0.916952 0
M  V30 2296 H 220.003 -3.14767 -0.780536 0
M  V30 2297 H 219.788 -3.8257 0.859238 0
M  V30 2298 H 221.278 -4.17546 -0.0671044 0
M  V30 2299 N 221.715 -0.905404 -1.28997 0
M  V30 2300 C 222.963 -0.533192 -1.9494 0
M  V30 2301 C 223.284 0.924618 -1.71685 0
M  V30 2302 O 222.554 1.65268 -1.05183 0
M  V30 2303 H 221.134 -0.194194 -0.721317 0
M  V30 2304 H 223.796 -1.15294 -1.57141 0
M  V30 2305 H 222.892 -0.72059 -3.03667 0
M  V30 2306 N 223.193 1.4272 -0.668489 0
M  V30 2307 C 224.156 2.292 0.00448567 0
M  V30 2308 C 225.156 1.43001 0.735339 0
M  V30 2309 O 226.346 1.64461 0.57429 0
M  V30 2310 C 223.478 3.25375 1.01705 0
M  V30 2311 H 224.671 2.90199 -0.756608 0
M  V30 2312 H 222.224 1.50254 -0.430506 0
M  V30 2313 H 222.959 2.69301 1.80686 0
M  V30 2314 H 222.744 3.88944 0.496463 0
M  V30 2315 H 224.234 3.90245 1.48655 0
M  V30 2316 N 224.671 0.411399 1.52136 0
M  V30 2317 C 225.911 -0.163143 2.03748 0
M  V30 2318 C 226.275 -1.42187 1.29022 0
M  V30 2319 O 227.476 -2.075 1.70872 0
M  V30 2320 C 225.747 -0.402651 3.55125 0
M  V30 2321 S 227.306 -0.944315 4.28519 0
M  V30 2322 H 224.124 -0.0439833 0.709638 0
M  V30 2323 H 226.726 0.56484 1.87163 0
M  V30 2324 H 225.43 0.520212 4.0709 0
M  V30 2325 H 224.961 -1.15844 3.75957 0
M  V30 2326 H 226.976 -2.22463 4.43536 0
M  V30 2327 N 226.149 -1.5696 0.141893 0
M  V30 2328 C 227.377 -2.00322 -0.517579 0
M  V30 2329 C 227.792 -1.02193 -1.58752 0
M  V30 2330 O 227.149 -0.0181619 -1.82491 0
M  V30 2331 C 227.2 -3.43618 -1.12289 0
M  V30 2332 O 226.921 -4.37995 -0.0956929 0
M  V30 2333 C 228.422 -4.02231 -1.86347 0
M  V30 2334 H 225.642 -0.657243 -0.135177 0
M  V30 2335 H 228.186 -2.03146 0.234973 0
M  V30 2336 H 226.341 -3.41662 -1.82609 0
M  V30 2337 H 226.755 -5.21729 -0.538469 0
M  V30 2338 H 228.229 -5.04509 -2.23997 0
M  V30 2339 H 228.706 -3.42655 -2.74744 0
M  V30 2340 H 229.312 -4.07802 -1.20737 0
M  V30 2341 N 227.627 0.131896 -1.57047 0
M  V30 2342 C 228.557 1.16384 -2.02428 0
M  V30 2343 C 229.538 1.43936 -0.90644 0
M  V30 2344 O 230.723 1.54599 -1.17528 0
M  V30 2345 C 227.853 2.49328 -2.4177 0
M  V30 2346 C 226.807 2.36266 -3.56879 0
M  V30 2347 C 226.133 3.74057 -3.8208 0
M  V30 2348 C 227.433 1.834 -4.89042 0
M  V30 2349 H 229.127 0.786433 -2.88887 0
M  V30 2350 H 226.673 0.376855 -1.38981 0
M  V30 2351 H 228.626 3.21759 -2.7212 0
M  V30 2352 H 227.35 2.88934 -1.52266 0
M  V30 2353 H 226.009 1.66286 -3.26718 0
M  V30 2354 H 225.657 4.11125 -2.89803 0
M  V30 2355 H 225.357 3.66174 -4.59554 0
M  V30 2356 H 226.881 4.48012 -4.1487 0
M  V30 2357 H 228.295 2.45636 -5.18011 0
M  V30 2358 H 226.692 1.8637 -5.70426 0
M  V30 2359 H 227.762 0.790662 -4.7841 0
M  V30 2360 N 229.106 1.52395 0.401703 0
M  V30 2361 C 230.069 1.75636 1.47257 0
M  V30 2362 C 231.069 0.62628 1.48103 0
M  V30 2363 O 232.259 0.894227 1.49497 0
M  V30 2364 C 229.391 1.84553 2.86624 0
M  V30 2365 H 230.584 2.71241 1.27938 0
M  V30 2366 H 228.137 1.42923 0.632662 0
M  V30 2367 H 228.872 0.908882 3.11303 0
M  V30 2368 H 228.657 2.66715 2.87412 0
M  V30 2369 H 230.147 2.04251 3.64241 0
M  V30 2370 N 230.584 -0.659388 1.43143 0
M  V30 2371 C 231.532 -1.79374 1.4808 0
M  V30 2372 C 232.526 -1.65639 0.354988 0
M  V30 2373 O 233.732 -1.7206 0.528704 0
M  V30 2374 H 230.107 -0.591705 0.4641 0
M  V30 2375 H 232.078 -1.72329 2.43609 0
M  V30 2376 C 230.827 -3.17606 1.41499 0
M  V30 2377 H 230.15 -3.28809 2.27431 0
M  V30 2378 H 231.59 -3.96951 1.49015 0
M  V30 2379 C 230.049 -3.36642 0.131765 0
M  V30 2380 O 230.579 -3.93461 -0.809386 0
M  V30 2381 N 228.785 -2.90567 0.0439396 0
M  V30 2382 H 228.332 -2.44513 0.810619 0
M  V30 2383 H 228.29 -3.03681 -0.813969 0
M  V30 2384 N 232.062 -1.29571 -0.897171 0
M  V30 2385 C 233.025 -1.14913 -1.98312 0
M  V30 2386 C 234.025 -0.0838629 -1.60581 0
M  V30 2387 O 235.215 -0.331006 -1.71026 0
M  V30 2388 C 232.347 -0.757835 -3.3237 0
M  V30 2389 H 233.54 -2.11377 -2.12743 0
M  V30 2390 H 231.093 -1.12793 -1.08201 0
M  V30 2391 H 231.828 0.206837 -3.2364 0
M  V30 2392 H 231.613 -1.52755 -3.61121 0
M  V30 2393 H 233.103 -0.678408 -4.12053 0
M  V30 2394 N 233.54 1.10788 -1.12088 0
M  V30 2395 C 234.47 2.19083 -0.807755 0
M  V30 2396 C 235.451 1.6858 0.226859 0
M  V30 2397 O 236.636 1.93997 0.0888475 0
M  V30 2398 C 233.766 3.46344 -0.257576 0
M  V30 2399 C 232.72 4.101 -1.22483 0
M  V30 2400 C 232.046 5.32016 -0.535052 0
M  V30 2401 C 233.346 4.54236 -2.57811 0
M  V30 2402 H 235.04 2.45534 -1.71328 0
M  V30 2403 H 232.586 1.1801 -0.825205 0
M  V30 2404 H 234.539 4.21392 -0.0262679 0
M  V30 2405 H 233.263 3.19373 0.683278 0
M  V30 2406 H 231.922 3.37054 -1.44189 0
M  V30 2407 H 231.57 5.01319 0.410827 0
M  V30 2408 H 231.27 5.75625 -1.18024 0
M  V30 2409 H 232.794 6.09799 -0.312695 0
M  V30 2410 H 234.208 5.20575 -2.40155 0
M  V30 2411 H 232.605 5.08682 -3.18375 0
M  V30 2412 H 233.675 3.6734 -3.16528 0
M  V30 2413 N 235.018 0.912232 1.28515 0
M  V30 2414 C 236.243 0.559774 1.99703 0
M  V30 2415 C 236.668 -0.851393 1.67729 0
M  V30 2416 O 236.026 -1.56875 0.908834 0
M  V30 2417 C 236.074 0.773874 3.52198 0
M  V30 2418 O 235.178 -0.167842 4.12058 0
M  V30 2419 H 234.519 0.21723 0.627461 0
M  V30 2420 H 237.049 1.22725 1.63706 0
M  V30 2421 H 237.059 0.683386 4.02236 0
M  V30 2422 H 235.734 1.80261 3.74805 0
M  V30 2423 H 234.311 -0.0287509 3.72889 0
M  V30 2424 N 236.496 -1.42363 0.676048 0
M  V30 2425 C 237.443 -2.308 -0.00150904 0
M  V30 2426 C 238.413 -1.46032 -0.791444 0
M  V30 2427 O 239.598 -1.74861 -0.76344 0
M  V30 2428 C 236.738 -3.31883 -0.945919 0
M  V30 2429 C 235.851 -4.31741 -0.149675 0
M  V30 2430 C 234.986 -5.19898 -1.08995 0
M  V30 2431 C 234.025 -6.11434 -0.285465 0
M  V30 2432 N 233.162 -6.92138 -1.17851 0
M  V30 2433 H 238.002 -2.88187 0.758455 0
M  V30 2434 H 235.539 -1.41952 0.38576 0
M  V30 2435 H 237.497 -3.89019 -1.50731 0
M  V30 2436 H 236.127 -2.76093 -1.6725 0
M  V30 2437 H 235.179 -3.76713 0.528359 0
M  V30 2438 H 236.491 -4.96534 0.474866 0
M  V30 2439 H 235.645 -5.81772 -1.72123 0
M  V30 2440 H 234.384 -4.55284 -1.74837 0
M  V30 2441 H 233.389 -5.48627 0.359018 0
M  V30 2442 H 234.614 -6.78097 0.368883 0
M  V30 2443 H 232.56 -6.30152 -1.82332 0
M  V30 2444 H 232.477 -7.53542 -0.609082 0
M  V30 2445 H 233.745 -7.58499 -1.79722 0
M  V30 2446 N 237.974 -0.419461 -1.51915 0
M  V30 2447 C 238.884 0.407528 -2.31033 0
M  V30 2448 C 239.9 1.04413 -1.3919 0
M  V30 2449 O 241.076 1.0434 -1.72265 0
M  V30 2450 C 238.141 1.50365 -3.12396 0
M  V30 2451 C 237.202 0.889029 -4.19994 0
M  V30 2452 C 236.435 1.93291 -4.97468 0
M  V30 2453 O 236.658 3.15259 -4.75361 0
M  V30 2454 O 235.592 1.53339 -5.8204 0
M  V30 2455 H 239.418 -0.237865 -3.02767 0
M  V30 2456 H 237.003 -0.182413 -1.48282 0
M  V30 2457 H 238.885 2.13975 -3.63032 0
M  V30 2458 H 237.56 2.13345 -2.43445 0
M  V30 2459 H 236.467 0.215353 -3.7348 0
M  V30 2460 H 237.8 0.302991 -4.91267 0
M  V30 2461 N 239.452 1.56882 -0.150215 0
M  V30 2462 C 240.382 2.19935 0.784284 0
M  V30 2463 C 241.363 1.14854 1.25469 0
M  V30 2464 O 242.548 1.43209 1.31168 0
M  V30 2465 C 239.678 2.82349 2.02229 0
M  V30 2466 C 238.632 3.93285 1.68853 0
M  V30 2467 C 237.958 4.42649 2.99944 0
M  V30 2468 C 239.258 5.13904 0.932714 0
M  V30 2469 H 240.952 2.9828 0.258781 0
M  V30 2470 H 238.498 1.43473 0.123029 0
M  V30 2471 H 240.451 3.25126 2.68088 0
M  V30 2472 H 239.175 2.0134 2.57157 0
M  V30 2473 H 237.834 3.5113 1.05371 0
M  V30 2474 H 237.482 3.58458 3.52869 0
M  V30 2475 H 237.182 5.17476 2.78374 0
M  V30 2476 H 238.706 4.88099 3.66868 0
M  V30 2477 H 240.12 5.53506 1.49345 0
M  V30 2478 H 238.517 5.94515 0.81684 0
M  V30 2479 H 239.587 4.84842 -0.0749568 0
M  V30 2480 N 240.93 -0.123565 1.57115 0
M  V30 2481 C 242.178 -0.83051 1.84247 0
M  V30 2482 C 242.499 -1.80629 0.73471 0
M  V30 2483 O 241.769 -1.94403 -0.241688 0
M  V30 2484 H 240.349 -0.309694 0.679778 0
M  V30 2485 H 243.011 -0.111976 1.94578 0
M  V30 2486 H 242.107 -1.37852 2.80006 0
M  V30 2487 N 242.408 -1.52605 -0.393616 0
M  V30 2488 C 243.318 -1.79971 -1.50492 0
M  V30 2489 C 244.334 -0.686181 -1.59899 0
M  V30 2490 O 245.51 -0.973274 -1.76322 0
M  V30 2491 C 242.575 -1.95867 -2.86072 0
M  V30 2492 C 241.636 -3.19781 -2.86424 0
M  V30 2493 C 240.869 -3.34909 -4.15538 0
M  V30 2494 O 241.092 -2.54948 -5.10253 0
M  V30 2495 O 240.026 -4.28141 -4.23059 0
M  V30 2496 H 243.852 -2.74328 -1.30299 0
M  V30 2497 H 241.437 -1.3764 -0.581005 0
M  V30 2498 H 243.319 -2.08056 -3.66457 0
M  V30 2499 H 241.994 -1.04699 -3.063 0
M  V30 2500 H 240.901 -3.13038 -2.04837 0
M  V30 2501 H 242.234 -4.1078 -2.71147 0
M  V30 2502 N 243.887 0.651787 -1.4349 0
M  V30 2503 C 245.117 1.43728 -1.48411 0
M  V30 2504 C 245.525 1.8893 -0.10103 0
M  V30 2505 O 244.868 1.60182 0.899307 0
M  V30 2506 C 244.93 2.70411 -2.36893 0
M  V30 2507 C 244.594 2.4714 -3.8441 0
M  V30 2508 C 245.591 2.10271 -4.75481 0
M  V30 2509 C 243.276 2.6142 -4.28912 0
M  V30 2510 C 245.27 1.87982 -6.0905 0
M  V30 2511 C 242.957 2.38746 -5.62533 0
M  V30 2512 C 243.955 2.02083 -6.5242 0
M  V30 2513 O 243.643 1.79647 -7.8357 0
M  V30 2514 H 243.375 0.447962 -0.506267 0
M  V30 2515 H 245.929 0.80624 -1.88915 0
M  V30 2516 H 244.159 3.36079 -1.91278 0
M  V30 2517 H 245.848 3.32364 -2.33 0
M  V30 2518 H 246.614 1.98814 -4.42378 0
M  V30 2519 H 242.493 2.88931 -3.59222 0
M  V30 2520 H 246.037 1.5929 -6.7917 0
M  V30 2521 H 241.934 2.49806 -5.95203 0
M  V30 2522 H 242.702 1.9406 -7.95162 0
M  V30 2523 N 245.365 1.30045 0.890287 0
M  V30 2524 C 246.313 1.15873 2.01683 0
M  V30 2525 C 247.307 0.0719403 1.69247 0
M  V30 2526 O 248.513 0.232414 1.78493 0
M  V30 2527 H 244.888 0.358203 0.661207 0
M  V30 2528 H 246.859 2.11229 2.10772 0
M  V30 2529 C 245.608 0.861842 3.36849 0
M  V30 2530 H 244.931 1.69016 3.62317 0
M  V30 2531 H 246.371 0.802762 4.16331 0
M  V30 2532 C 244.83 -0.435132 3.34078 0
M  V30 2533 O 245.36 -1.4583 3.74295 0
M  V30 2534 N 243.566 -0.444377 2.87182 0
M  V30 2535 H 243.113 0.388723 2.5465 0
M  V30 2536 H 243.071 -1.31213 2.85711 0
M  V30 2537 N 246.843 -1.10192 1.12674 0
M  V30 2538 C 248.092 -1.81573 0.8783 0
M  V30 2539 C 248.405 -1.86249 -0.597557 0
M  V30 2540 O 249.611 -2.5386 -0.962681 0
M  V30 2541 C 248.067 -3.26149 1.52167 0
M  V30 2542 C 247.675 -3.29763 3.03249 0
M  V30 2543 C 249.419 -4.0234 1.3536 0
M  V30 2544 C 247.326 -4.68815 3.60508 0
M  V30 2545 H 246.256 -0.680394 0.324931 0
M  V30 2546 H 248.907 -1.23902 1.35353 0
M  V30 2547 H 247.289 -3.83832 0.974104 0
M  V30 2548 H 248.463 -2.8189 3.6452 0
M  V30 2549 H 246.778 -2.67059 3.19481 0
M  V30 2550 H 249.375 -5.05058 1.75559 0
M  V30 2551 H 249.718 -4.15235 0.297554 0
M  V30 2552 H 250.251 -3.51079 1.87052 0
M  V30 2553 H 246.99 -4.61121 4.65884 0
M  V30 2554 H 246.51 -5.17045 3.04014 0
M  V30 2555 H 248.189 -5.37785 3.59717 0
M  V30 2556 N 248.321 -0.919034 -1.28029 0
M  V30 2557 C 249.732 -0.600735 -1.76771 0
M  V30 2558 C 250.083 0.884024 -1.75156 0
M  V30 2559 O 249.208 1.69163 -1.34956 0
M  V30 2560 C 249.803 -1.08372 -3.21 0
M  V30 2561 C 248.362 -0.816248 -3.67443 0
M  V30 2562 C 247.509 -1.24742 -2.47658 0
M  V30 2563 H 250.46 -1.09974 -1.14418 0
M  V30 2564 H 250.481 -0.427512 -3.78091 0
M  V30 2565 H 249.993 -2.16437 -3.22144 0
M  V30 2566 H 248.094 0.250968 -3.71754 0
M  V30 2567 H 248.207 -1.4277 -4.57333 0
M  V30 2568 H 246.571 -0.666083 -2.45836 0
M  V30 2569 H 247.354 -2.33653 -2.51518 0
M  V30 2570 N 249.799 1.42003 -0.683588 0
M  V30 2571 C 251.045 2.01712 -0.209825 0
M  V30 2572 C 251.378 1.53968 1.18353 0
M  V30 2573 O 250.653 0.745661 1.79639 0
M  V30 2574 C 250.936 3.59202 -0.254197 0
M  V30 2575 C 250.789 4.17102 -1.68363 0
M  V30 2576 C 252.108 4.38344 0.392709 0
M  V30 2577 H 249.227 0.732891 -0.0777189 0
M  V30 2578 H 251.869 1.68909 -0.87004 0
M  V30 2579 H 250.019 3.87278 0.307954 0
M  V30 2580 H 251.691 3.99946 -2.29871 0
M  V30 2581 H 249.934 3.72597 -2.22157 0
M  V30 2582 H 250.605 5.26249 -1.6663 0
M  V30 2583 H 253.081 4.16011 -0.0859162 0
M  V30 2584 H 251.957 5.47901 0.331063 0
M  V30 2585 H 252.218 4.16887 1.47164 0
M  V30 2586 N 251.277 0.427512 1.51691 0
M  V30 2587 C 252.524 -0.142229 2.02 0
M  V30 2588 C 252.852 -1.43566 1.31221 0
M  V30 2589 O 252.107 -1.91298 0.412744 0
M  V30 2590 C 252.406 -0.418249 3.54944 0
M  V30 2591 C 252.072 0.788187 4.43958 0
M  V30 2592 C 250.734 1.11906 4.68007 0
M  V30 2593 C 253.086 1.59347 4.96244 0
M  V30 2594 C 250.414 2.25608 5.41588 0
M  V30 2595 C 252.766 2.7214 5.71072 0
M  V30 2596 C 251.43 3.05692 5.93387 0
M  V30 2597 H 250.7 -0.0520451 0.73917 0
M  V30 2598 H 253.347 0.572697 1.82736 0
M  V30 2599 H 251.652 -1.21496 3.72486 0
M  V30 2600 H 253.349 -0.872339 3.91397 0
M  V30 2601 H 249.939 0.520344 4.2543 0
M  V30 2602 H 254.123 1.35106 4.77556 0
M  V30 2603 H 249.379 2.51929 5.57083 0
M  V30 2604 H 253.553 3.34914 6.10578 0
M  V30 2605 H 251.18 3.9391 6.50184 0
M  V30 2606 N 252.755 -1.56801 0.158532 0
M  V30 2607 C 253.718 -2.16138 -0.762705 0
M  V30 2608 C 254.718 -1.1061 -1.16713 0
M  V30 2609 O 255.908 -1.36191 -1.08617 0
M  V30 2610 C 253.04 -2.73386 -2.03649 0
M  V30 2611 H 254.233 -2.98886 -0.246354 0
M  V30 2612 H 251.786 -1.56035 -0.0909744 0
M  V30 2613 H 252.521 -1.94335 -2.59623 0
M  V30 2614 H 252.306 -3.50601 -1.75559 0
M  V30 2615 H 253.796 -3.19065 -2.6942 0
M  V30 2616 N 254.233 0.115231 -1.57178 0
M  V30 2617 C 255.482 0.820945 -1.84237 0
M  V30 2618 C 255.795 1.80866 -0.744761 0
M  V30 2619 O 257.001 2.56083 -0.901871 0
M  V30 2620 C 255.457 1.51072 -3.26658 0
M  V30 2621 C 255.065 0.563795 -4.44438 0
M  V30 2622 C 256.809 2.20134 -3.62962 0
M  V30 2623 C 254.716 1.25701 -5.77887 0
M  V30 2624 H 253.646 0.310328 -0.687177 0
M  V30 2625 H 256.297 0.0737134 -1.83352 0
M  V30 2626 H 254.679 2.30471 -3.22024 0
M  V30 2627 H 255.853 -0.197247 -4.60378 0
M  V30 2628 H 254.168 -0.0200638 -4.16395 0
M  V30 2629 H 256.765 2.72696 -4.59936 0
M  V30 2630 H 257.108 2.98107 -2.90582 0
M  V30 2631 H 257.641 1.47619 -3.69396 0
M  V30 2632 H 254.38 0.518493 -6.53446 0
M  V30 2633 H 253.9 1.98997 -5.65827 0
M  V30 2634 H 255.579 1.78915 -6.2177 0
M  V30 2635 N 255.711 1.52812 0.385517 0
M  V30 2636 C 256.959 1.67694 1.12797 0
M  V30 2637 C 257.28 0.421115 1.90399 0
M  V30 2638 O 256.55 -0.564551 1.87589 0
M  V30 2639 H 255.13 0.618155 0.419396 0
M  V30 2640 H 257.792 1.89938 0.436972 0
M  V30 2641 H 256.888 2.52896 1.82894 0
M  V30 2642 N 257.189 -0.644168 1.43834 0
M  V30 2643 C 258.6 -1.22554 1.40845 0
M  V30 2644 C 258.951 -1.9585 0.117115 0
M  V30 2645 O 258.076 -2.01734 -0.783086 0
M  V30 2646 C 258.671 -2.22907 2.55143 0
M  V30 2647 C 257.23 -2.76501 2.5539 0
M  V30 2648 C 256.377 -1.51287 2.32396 0
M  V30 2649 H 259.328 -0.43563 1.52604 0
M  V30 2650 H 259.349 -3.05259 2.2715 0
M  V30 2651 H 258.861 -1.69533 3.49114 0
M  V30 2652 H 256.962 -3.33914 1.65324 0
M  V30 2653 H 257.075 -3.23429 3.53455 0
M  V30 2654 H 255.439 -1.78957 1.81236 0
M  V30 2655 H 256.222 -0.998336 3.28463 0
M  V30 2656 N 258.668 -1.30515 -0.883378 0
M  V30 2657 C 259.616 -1.16941 -2.01066 0
M  V30 2658 C 260.61 -0.0809148 -1.69207 0
M  V30 2659 O 261.816 -0.241877 -1.78367 0
M  V30 2660 H 258.191 -0.361705 -0.659298 0
M  V30 2661 H 260.162 -2.12344 -2.09649 0
M  V30 2662 C 258.911 -0.879694 -3.36388 0
M  V30 2663 H 258.234 -1.70936 -3.61415 0
M  V30 2664 H 259.674 -0.82483 -4.159 0
M  V30 2665 C 258.133 0.417409 -3.34304 0
M  V30 2666 O 258.663 1.43843 -3.75063 0
M  V30 2667 N 256.869 0.429141 -2.87414 0
M  V30 2668 H 256.416 -0.402222 -2.5444 0
M  V30 2669 H 256.374 1.29696 -2.86403 0
M  V30 2670 N 260.146 1.09593 -1.13257 0
M  V30 2671 C 261.376 1.85231 -0.915049 0
M  V30 2672 C 261.784 1.81345 0.539498 0
M  V30 2673 O 261.127 1.20664 1.38513 0
M  V30 2674 C 261.189 3.34275 -1.3229 0
M  V30 2675 C 260.853 3.6191 -2.79052 0
M  V30 2676 C 261.85 3.57777 -3.77216 0
M  V30 2677 C 259.535 3.90309 -3.16171 0
M  V30 2678 C 261.529 3.81652 -5.1051 0
M  V30 2679 C 259.216 4.13839 -4.49644 0
M  V30 2680 C 260.214 4.09502 -5.46623 0
M  V30 2681 O 259.902 4.32426 -6.77689 0
M  V30 2682 H 259.634 0.591997 -0.326367 0
M  V30 2683 H 262.188 1.394 -1.50854 0
M  V30 2684 H 260.418 3.80805 -0.672667 0
M  V30 2685 H 262.107 3.9132 -1.07812 0
M  V30 2686 H 262.873 3.35865 -3.49885 0
M  V30 2687 H 258.752 3.92811 -2.41289 0
M  V30 2688 H 262.296 3.78182 -5.86195 0
M  V30 2689 H 258.193 4.35232 -4.767 0
M  V30 2690 H 258.961 4.49896 -6.83766 0
M  V30 2691 N 261.624 0.925811 1.2754 0
M  V30 2692 C 262.554 0.440748 2.29303 0
M  V30 2693 C 263.535 -0.497971 1.62648 0
M  V30 2694 O 264.72 -0.403126 1.8997 0
M  V30 2695 C 261.85 -0.309048 3.45922 0
M  V30 2696 C 260.804 0.54166 4.24559 0
M  V30 2697 C 260.13 -0.337191 5.33636 0
M  V30 2698 C 261.43 1.80516 4.90114 0
M  V30 2699 H 263.124 1.29121 2.70126 0
M  V30 2700 H 260.67 0.622323 1.29858 0
M  V30 2701 H 262.623 -0.659315 4.1621 0
M  V30 2702 H 261.347 -1.19352 3.04011 0
M  V30 2703 H 260.006 0.874609 3.56014 0
M  V30 2704 H 259.654 -1.22056 4.87966 0
M  V30 2705 H 259.354 0.228497 5.87156 0
M  V30 2706 H 260.878 -0.683072 6.06767 0
M  V30 2707 H 262.292 1.52307 5.52698 0
M  V30 2708 H 260.689 2.3142 5.53683 0
M  V30 2709 H 261.759 2.52581 4.13921 0
M  V30 2710 N 263.102 -1.41638 0.69111 0
M  V30 2711 C 264.052 -2.28 -0.000107832 0
M  V30 2712 C 265.036 -1.41964 -0.757304 0
M  V30 2713 O 266.228 -1.65274 -0.633532 0
M  V30 2714 C 263.357 -3.30209 -0.938983 0
M  V30 2715 C 262.443 -4.23725 -0.17827 0
M  V30 2716 N 262.834 -4.99017 0.825563 0
M  V30 2717 C 261.132 -4.44071 -0.414392 0
M  V30 2718 C 261.833 -5.67431 1.28052 0
M  V30 2719 N 260.809 -5.40197 0.607304 0
M  V30 2720 H 264.611 -2.83644 0.769617 0
M  V30 2721 H 262.125 -1.53797 0.521562 0
M  V30 2722 H 264.122 -3.90898 -1.44929 0
M  V30 2723 H 262.782 -2.76126 -1.70836 0
M  V30 2724 H 263.793 -5.03671 1.20566 0
M  V30 2725 H 260.47 -4.01004 -1.162 0
M  V30 2726 H 261.86 -6.37801 2.11327 0
M  V30 2727 N 264.58 -0.43555 -1.51462 0
M  V30 2728 C 265.805 0.132627 -2.06976 0
M  V30 2729 C 266.23 1.35848 -1.30104 0
M  V30 2730 O 265.588 1.78112 -0.338493 0
M  V30 2731 C 265.636 0.43523 -3.57964 0
M  V30 2732 O 264.74 1.52198 -3.83288 0
M  V30 2733 H 264.081 0.00265 -0.663995 0
M  V30 2734 H 266.611 -0.616369 -1.95095 0
M  V30 2735 H 266.621 0.686206 -4.02188 0
M  V30 2736 H 265.296 -0.460739 -4.1334 0
M  V30 2737 H 263.873 1.2611 -3.50928 0
M  V30 2738 N 266.058 1.56714 -0.166846 0
M  V30 2739 C 266.968 2.21331 0.777791 0
M  V30 2740 C 267.984 1.20358 1.25658 0
M  V30 2741 O 269.16 1.53005 1.30964 0
M  V30 2742 C 266.225 2.83787 1.99163 0
M  V30 2743 C 265.286 3.99947 1.56016 0
M  V30 2744 C 264.519 4.59415 2.71613 0
M  V30 2745 O 264.742 4.17769 3.88362 0
M  V30 2746 O 263.676 5.49359 2.45945 0
M  V30 2747 H 267.502 3.02605 0.257636 0
M  V30 2748 H 265.087 1.49275 0.0611393 0
M  V30 2749 H 266.969 3.23405 2.70161 0
M  V30 2750 H 265.644 2.05513 2.50092 0
M  V30 2751 H 264.551 3.65007 0.819809 0
M  V30 2752 H 265.884 4.79801 1.09782 0
M  V30 2753 N 267.536 -0.106894 1.57237 0
M  V30 2754 C 268.813 -0.843526 1.76477 0
M  V30 2755 C 269.193 -1.97499 0.745464 0
M  V30 2756 O 268.541 -2.27357 -0.228306 0
M  V30 2757 C 268.751 -1.34903 3.21873 0
M  V30 2758 C 270.099 -1.79654 3.8472 0
M  V30 2759 O 271.123 -1.44554 3.2555 0
M  V30 2760 O 269.982 -2.44515 4.88748 0
M  V30 2761 H 267.076 -0.401468 0.723016 0
M  V30 2762 H 269.622 -0.0896927 1.69463 0
M  V30 2763 H 268.394 -0.53781 3.87586 0
M  V30 2764 H 268.017 -2.16522 3.33473 0
M  V30 2765 N 269.014 -1.53014 -0.377408 0
M  V30 2766 C 270.239 -1.72818 -1.14668 0
M  V30 2767 C 270.664 -0.450725 -1.8262 0
M  V30 2768 O 270.022 0.59439 -1.7128 0
M  V30 2769 C 270.07 -2.88627 -2.16164 0
M  V30 2770 O 269.174 -2.56409 -3.22998 0
M  V30 2771 H 268.515 -0.574301 -0.333278 0
M  V30 2772 H 271.045 -1.99853 -0.438152 0
M  V30 2773 H 271.055 -3.14455 -2.59966 0
M  V30 2774 H 269.73 -3.81294 -1.66095 0
M  V30 2775 H 268.307 -2.4136 -2.84253 0
M  V30 2776 N 270.492 0.636531 -1.44174 0
M  V30 2777 C 271.903 1.21806 -1.41493 0
M  V30 2778 C 272.254 1.95785 -0.1275 0
M  V30 2779 O 271.379 2.02147 0.772376 0
M  V30 2780 C 271.974 2.21551 -2.56321 0
M  V30 2781 C 270.533 2.75143 -2.56853 0
M  V30 2782 C 269.68 1.50052 -2.33195 0
M  V30 2783 H 272.631 0.427531 -1.52833 0
M  V30 2784 H 272.652 3.0405 -2.28765 0
M  V30 2785 H 272.164 1.67679 -3.50008 0
M  V30 2786 H 270.265 3.33033 -1.67093 0
M  V30 2787 H 270.378 3.2155 -3.55165 0
M  V30 2788 H 268.742 1.77993 -1.82183 0
M  V30 2789 H 269.525 0.980903 -3.28988 0
M  V30 2790 N 271.97 1.30982 0.876444 0
M  V30 2791 C 273.2 1.23063 1.65949 0
M  V30 2792 C 273.608 -0.207537 1.88058 0
M  V30 2793 O 272.951 -1.14781 1.43426 0
M  V30 2794 C 273.013 1.89768 3.05333 0
M  V30 2795 C 272.677 3.39106 3.0636 0
M  V30 2796 C 273.674 4.3496 2.84791 0
M  V30 2797 C 271.359 3.80693 3.27686 0
M  V30 2798 C 273.353 5.70375 2.84519 0
M  V30 2799 C 271.04 5.16223 3.27043 0
M  V30 2800 C 272.038 6.10875 3.05485 0
M  V30 2801 O 271.726 7.43928 3.04674 0
M  V30 2802 H 271.458 0.426685 0.524324 0
M  V30 2803 H 274.012 1.7329 1.10271 0
M  V30 2804 H 272.242 1.34082 3.6271 0
M  V30 2805 H 273.931 1.75853 3.65829 0
M  V30 2806 H 274.697 4.0416 2.68103 0
M  V30 2807 H 270.576 3.07457 3.43499 0
M  V30 2808 H 274.12 6.44228 2.67611 0
M  V30 2809 H 270.017 5.4666 3.43269 0
M  V30 2810 H 270.785 7.53022 3.2078 0
M  V30 2811 N 273.449 -1.08991 1.13837 0
M  V30 2812 C 274.696 -1.81258 0.902882 0
M  V30 2813 C 275.024 -1.85936 -0.570803 0
M  V30 2814 O 274.279 -1.3267 -1.43865 0
M  V30 2815 C 274.578 -3.27042 1.44147 0
M  V30 2816 C 274.244 -3.4249 2.93276 0
M  V30 2817 C 272.906 -3.46414 3.33992 0
M  V30 2818 C 275.258 -3.4666 3.892 0
M  V30 2819 C 272.586 -3.52091 4.69307 0
M  V30 2820 C 274.938 -3.53872 5.24364 0
M  V30 2821 C 273.602 -3.56066 5.646 0
M  V30 2822 H 272.872 -0.663268 0.330388 0
M  V30 2823 H 275.519 -1.28368 1.42105 0
M  V30 2824 H 273.824 -3.82599 0.844097 0
M  V30 2825 H 275.521 -3.81499 1.23528 0
M  V30 2826 H 272.111 -3.40124 2.60794 0
M  V30 2827 H 276.295 -3.42865 3.58828 0
M  V30 2828 H 271.551 -3.52079 4.9985 0
M  V30 2829 H 275.725 -3.56043 5.98503 0
M  V30 2830 H 273.352 -3.60218 6.69438 0
M  V30 2831 N 274.927 -0.932562 -1.27047 0
M  V30 2832 C 276.157 -0.591173 -1.97961 0
M  V30 2833 C 276.565 0.836219 -1.69717 0
M  V30 2834 O 275.908 1.56801 -0.957036 0
M  V30 2835 C 275.97 -0.743082 -3.51736 0
M  V30 2836 C 275.634 -2.1435 -4.03613 0
M  V30 2837 C 276.631 -3.11815 -4.16014 0
M  V30 2838 C 274.316 -2.46175 -4.37839 0
M  V30 2839 C 276.31 -4.39211 -4.61923 0
M  V30 2840 C 273.997 -3.73806 -4.83438 0
M  V30 2841 C 274.995 -4.70137 -4.95439 0
M  V30 2842 O 274.683 -5.95496 -5.40037 0
M  V30 2843 H 274.415 -0.222375 -0.638377 0
M  V30 2844 H 276.969 -1.25317 -1.62742 0
M  V30 2845 H 275.199 -0.0239739 -3.86693 0
M  V30 2846 H 276.888 -0.40603 -4.03864 0
M  V30 2847 H 277.654 -2.88549 -3.89826 0
M  V30 2848 H 273.533 -1.71936 -4.27737 0
M  V30 2849 H 277.077 -5.14404 -4.71205 0
M  V30 2850 H 272.974 -3.96888 -5.09068 0
M  V30 2851 H 273.742 -5.98554 -5.58279 0
M  V30 2852 N 276.405 1.4127 -0.698611 0
M  V30 2853 C 277.816 1.84187 -0.305289 0
M  V30 2854 C 278.167 1.58449 1.15708 0
M  V30 2855 O 277.292 1.05651 1.88856 0
M  V30 2856 C 277.887 3.3435 -0.547314 0
M  V30 2857 C 276.446 3.75826 -0.207878 0
M  V30 2858 C 275.593 2.64647 -0.828099 0
M  V30 2859 H 278.544 1.30778 -0.89904 0
M  V30 2860 H 278.565 3.8001 0.192998 0
M  V30 2861 H 278.077 3.53051 -1.61172 0
M  V30 2862 H 276.178 3.62725 0.852143 0
M  V30 2863 H 276.291 4.74462 -0.665021 0
M  V30 2864 H 274.655 2.53395 -0.257458 0
M  V30 2865 H 275.438 2.86165 -1.89643 0
M  V30 2866 N 277.883 0.443576 1.51229 0
M  V30 2867 C 279.111 -0.11929 2.06556 0
M  V30 2868 C 279.526 -1.35921 1.31038 0
M  V30 2869 O 278.883 -1.78675 0.371704 0
M  V30 2870 C 278.934 -0.435228 3.5887 0
M  V30 2871 O 278.655 0.755486 4.31537 0
M  V30 2872 C 280.156 -1.04808 4.30732 0
M  V30 2873 H 277.376 -0.0051584 0.67098 0
M  V30 2874 H 279.92 0.624453 1.94733 0
M  V30 2875 H 278.075 -1.12887 3.70588 0
M  V30 2876 H 278.489 0.483491 5.22267 0
M  V30 2877 H 279.963 -1.2191 5.3837 0
M  V30 2878 H 280.44 -2.03081 3.89429 0
M  V30 2879 H 281.046 -0.393637 4.23474 0
M  V30 2880 N 279.361 -1.56624 0.175154 0
M  V30 2881 C 280.271 -2.21741 -0.766042 0
M  V30 2882 C 281.287 -1.21023 -1.25018 0
M  V30 2883 O 282.463 -1.53697 -1.3015 0
M  V30 2884 C 279.528 -2.84839 -1.97655 0
M  V30 2885 C 278.589 -4.00769 -1.53892 0
M  V30 2886 C 277.822 -4.60849 -2.69173 0
M  V30 2887 O 278.045 -4.19823 -3.86141 0
M  V30 2888 O 276.979 -5.50655 -2.43028 0
M  V30 2889 H 280.805 -3.02738 -0.241585 0
M  V30 2890 H 278.39 -1.49305 -0.053222 0
M  V30 2891 H 280.272 -3.24834 -2.68442 0
M  V30 2892 H 278.947 -2.06836 -2.48999 0
M  V30 2893 H 277.854 -3.65436 -0.80044 0
M  V30 2894 H 279.187 -4.80376 -1.07236 0
M  V30 2895 N 280.839 0.0985539 -1.57292 0
M  V30 2896 C 282.25 0.653457 -1.74891 0
M  V30 2897 C 282.601 1.7929 -0.796838 0
M  V30 2898 O 281.726 2.16385 0.0254886 0
M  V30 2899 C 282.321 1.19216 -3.17133 0
M  V30 2900 C 280.88 1.69316 -3.36168 0
M  V30 2901 C 280.027 0.601294 -2.70702 0
M  V30 2902 H 282.978 -0.127497 -1.58187 0
M  V30 2903 H 282.999 2.06154 -3.19814 0
M  V30 2904 H 282.511 0.362635 -3.86402 0
M  V30 2905 H 280.612 2.5468 -2.71972 0
M  V30 2906 H 280.725 1.78853 -4.44464 0
M  V30 2907 H 279.089 1.0399 -2.32504 0
M  V30 2908 H 279.872 -0.217592 -3.4261 0
M  V30 2909 N 282.317 1.53212 0.369288 0
M  V30 2910 C 283.563 1.70413 1.11046 0
M  V30 2911 C 283.918 0.448509 1.87099 0
M  V30 2912 O 283.211 -0.558382 1.83283 0
M  V30 2913 C 283.405 2.89101 2.10132 0
M  V30 2914 C 283.234 4.26084 1.43814 0
M  V30 2915 C 282.004 4.90994 1.19384 0
M  V30 2916 C 284.202 5.06754 0.877802 0
M  V30 2917 N 282.184 6.11911 0.49377 0
M  V30 2918 C 283.555 6.1924 0.306891 0
M  V30 2919 C 285.61 4.91814 0.776129 0
M  V30 2920 C 284.313 7.1842 -0.355774 0
M  V30 2921 C 286.339 5.91263 0.127252 0
M  V30 2922 C 285.701 7.03069 -0.432801 0
M  V30 2923 H 281.8 0.676872 0.391623 0
M  V30 2924 H 284.384 1.90603 0.397334 0
M  V30 2925 H 282.555 2.70456 2.78761 0
M  V30 2926 H 284.287 2.95142 2.76899 0
M  V30 2927 H 281.042 4.50074 1.47413 0
M  V30 2928 H 281.466 6.76813 0.159207 0
M  V30 2929 H 286.108 4.05564 1.19489 0
M  V30 2930 H 283.826 8.04264 -0.786499 0
M  V30 2931 H 287.412 5.81779 0.0495613 0
M  V30 2932 H 286.292 7.78702 -0.926958 0
M  V30 2933 N 283.795 -0.628877 1.44509 0
M  V30 2934 C 284.742 -1.74074 1.51549 0
M  V30 2935 C 285.712 -1.62084 0.363021 0
M  V30 2936 O 286.897 -1.81975 0.573567 0
M  V30 2937 C 284.037 -3.12328 1.46784 0
M  V30 2938 C 283.15 -3.35277 2.72422 0
M  V30 2939 C 282.285 -4.63515 2.59475 0
M  V30 2940 C 281.324 -4.7965 3.80266 0
M  V30 2941 N 280.461 -5.99168 3.65981 0
M  V30 2942 H 285.301 -1.67392 2.46544 0
M  V30 2943 H 282.838 -0.816527 1.22357 0
M  V30 2944 H 284.796 -3.92286 1.42012 0
M  V30 2945 H 283.426 -3.18018 0.553544 0
M  V30 2946 H 282.478 -2.49242 2.87372 0
M  V30 2947 H 283.79 -3.43078 3.62076 0
M  V30 2948 H 282.944 -5.51638 2.52548 0
M  V30 2949 H 281.683 -4.58076 1.67384 0
M  V30 2950 H 280.688 -3.89957 3.87574 0
M  V30 2951 H 281.913 -4.86902 4.73395 0
M  V30 2952 H 279.859 -5.94814 2.76644 0
M  V30 2953 H 279.776 -6.08035 4.49254 0
M  V30 2954 H 281.044 -6.89846 3.6295 0
M  V30 2955 N 285.273 -1.31445 -0.869486 0
M  V30 2956 C 286.501 -1.24122 -1.65534 0
M  V30 2957 C 286.916 0.193387 -1.87807 0
M  V30 2958 O 286.273 1.12557 -1.43656 0
M  V30 2959 C 286.324 -1.98229 -3.02304 0
M  V30 2960 O 286.045 -3.3609 -2.81026 0
M  V30 2961 C 287.546 -1.97751 -3.96749 0
M  V30 2962 H 284.766 -0.428868 -0.516055 0
M  V30 2963 H 287.31 -1.73328 -1.08525 0
M  V30 2964 H 285.465 -1.52782 -3.56001 0
M  V30 2965 H 285.879 -3.7383 -3.67902 0
M  V30 2966 H 287.353 -2.54114 -4.90031 0
M  V30 2967 H 287.83 -0.960137 -4.28577 0
M  V30 2968 H 288.436 -2.43079 -3.48988 0
M  V30 2969 N 286.751 1.08385 -1.14413 0
M  V30 2970 C 287.699 2.17406 -0.826888 0
M  V30 2971 C 288.693 1.6827 0.195312 0
M  V30 2972 O 289.899 1.79927 0.0513892 0
M  V30 2973 H 286.274 0.70934 -0.249681 0
M  V30 2974 H 288.245 2.41388 -1.75426 0
M  V30 2975 C 286.994 3.46215 -0.320979 0
M  V30 2976 H 286.317 3.84401 -1.0989 0
M  V30 2977 H 287.757 4.23777 -0.137549 0
M  V30 2978 C 286.216 3.23067 0.955472 0
M  V30 2979 O 286.746 3.4668 2.02918 0
M  V30 2980 N 284.952 2.7661 0.890798 0
M  V30 2981 H 284.499 2.57594 0.0168815 0
M  V30 2982 H 284.457 2.61501 1.74542 0
M  V30 2983 N 288.23 0.939286 1.26551 0
M  V30 2984 C 289.641 0.628782 1.75793 0
M  V30 2985 C 289.992 -0.856046 1.7654 0
M  V30 2986 O 289.117 -1.66994 1.3763 0
M  V30 2987 C 289.712 1.13465 3.19235 0
M  V30 2988 C 288.271 0.874601 3.66098 0
M  V30 2989 C 287.418 1.28667 2.45642 0
M  V30 2990 H 290.369 1.1178 1.12654 0
M  V30 2991 H 290.39 0.487609 3.77363 0
M  V30 2992 H 289.902 2.21535 3.1866 0
M  V30 2993 H 288.003 -0.191793 3.72106 0
M  V30 2994 H 288.116 1.50028 4.55004 0
M  V30 2995 H 286.48 0.705109 2.44745 0
M  V30 2996 H 287.263 2.37625 2.47769 0
M  V30 2997 N 289.708 -1.40897 0.706093 0
M  V30 2998 C 290.618 -2.3455 0.0482286 0
M  V30 2999 C 291.634 -1.56796 -0.754396 0
M  V30 3000 O 292.81 -1.89228 -0.689538 0
M  V30 3001 C 289.875 -3.35625 -0.869303 0
M  V30 3002 C 288.936 -4.29261 -0.0576994 0
M  V30 3003 C 288.169 -5.25508 -0.931531 0
M  V30 3004 O 288.392 -5.27472 -2.17092 0
M  V30 3005 O 287.326 -6.00727 -0.375587 0
M  V30 3006 H 291.152 -2.92407 0.820476 0
M  V30 3007 H 288.737 -1.4193 0.4665 0
M  V30 3008 H 290.619 -3.97635 -1.39514 0
M  V30 3009 H 289.294 -2.80196 -1.62086 0
M  V30 3010 H 288.201 -3.70566 0.512988 0
M  V30 3011 H 289.534 -4.87817 0.655426 0
M  V30 3012 N 291.186 -0.45159 -1.50991 0
M  V30 3013 C 292.136 0.370861 -2.24964 0
M  V30 3014 C 293.12 0.978074 -1.2776 0
M  V30 3015 O 294.312 0.893854 -1.52772 0
M  V30 3016 C 291.441 1.46344 -3.10545 0
M  V30 3017 C 290.527 0.864924 -4.15187 0
M  V30 3018 N 290.918 -0.00311354 -5.058 0
M  V30 3019 C 289.216 1.13099 -4.31422 0
M  V30 3020 C 289.917 -0.340772 -5.80701 0
M  V30 3021 N 288.893 0.279203 -5.42883 0
M  V30 3022 H 292.695 -0.298134 -2.92384 0
M  V30 3023 H 290.209 -0.264528 -1.60231 0
M  V30 3024 H 292.206 2.06565 -3.62128 0
M  V30 3025 H 290.866 2.13463 -2.4467 0
M  V30 3026 H 291.877 -0.37058 -5.16572 0
M  V30 3027 H 288.554 1.79861 -3.76771 0
M  V30 3028 H 289.944 -1.048 -6.63677 0
M  V30 3029 N 292.664 1.56529 -0.183458 0
M  V30 3030 C 293.91 1.97537 0.459036 0
M  V30 3031 C 294.243 1.06989 1.62071 0
M  V30 3032 O 293.518 0.11948 1.94133 0
M  V30 3033 C 293.801 3.47874 0.930368 0
M  V30 3034 C 293.654 4.492 -0.232317 0
M  V30 3035 C 294.973 4.01612 1.79989 0
M  V30 3036 H 292.092 0.718204 0.165383 0
M  V30 3037 H 294.734 1.88042 -0.272038 0
M  V30 3038 H 292.884 3.56095 1.55333 0
M  V30 3039 H 294.556 4.53027 -0.86972 0
M  V30 3040 H 292.799 4.24657 -0.885928 0
M  V30 3041 H 293.47 5.51823 0.139796 0
M  V30 3042 H 295.946 3.96097 1.27461 0
M  V30 3043 H 294.822 5.07195 2.09867 0
M  V30 3044 H 295.083 3.46163 2.74998 0
M  V30 3045 N 294.142 -0.090211 1.57342 0
M  V30 3046 C 295.105 -1.09335 2.01441 0
M  V30 3047 C 296.105 -1.32666 0.908641 0
M  V30 3048 O 297.295 -1.28697 1.174 0
M  V30 3049 C 294.427 -2.44136 2.3793 0
M  V30 3050 H 295.62 -0.713662 2.91285 0
M  V30 3051 H 293.173 -0.335404 1.52659 0
M  V30 3052 H 293.908 -2.86972 1.51055 0
M  V30 3053 H 293.693 -2.28548 3.18603 0
M  V30 3054 H 295.183 -3.16277 2.72688 0
M  V30 3055 N 295.62 -1.53406 -0.361157 0
M  V30 3056 C 296.57 -1.76536 -1.44287 0
M  V30 3057 C 297.554 -0.620019 -1.48474 0
M  V30 3058 O 298.746 -0.878834 -1.53641 0
M  V30 3059 C 295.875 -1.96266 -2.81664 0
M  V30 3060 C 294.961 -3.16815 -2.81938 0
M  V30 3061 N 295.352 -4.38637 -2.51855 0
M  V30 3062 C 293.65 -3.17627 -3.13096 0
M  V30 3063 C 294.351 -5.20401 -2.59919 0
M  V30 3064 N 293.327 -4.56712 -2.94814 0
M  V30 3065 H 297.129 -2.68331 -1.19899 0
M  V30 3066 H 294.643 -1.52091 -0.56938 0
M  V30 3067 H 296.64 -2.10966 -3.59582 0
M  V30 3068 H 295.3 -1.05702 -3.07013 0
M  V30 3069 H 296.311 -4.66293 -2.25369 0
M  V30 3070 H 292.988 -2.36971 -3.43731 0
M  V30 3071 H 294.378 -6.27586 -2.39969 0
M  V30 3072 N 297.098 0.621204 -1.44841 0
M  V30 3073 C 298.344 1.3826 -1.48365 0
M  V30 3074 C 298.677 1.93831 -0.119624 0
M  V30 3075 O 297.952 1.74251 0.864111 0
M  V30 3076 C 298.235 2.54058 -2.55199 0
M  V30 3077 C 298.088 2.03772 -4.00995 0
M  V30 3078 C 299.407 3.56225 -2.58442 0
M  V30 3079 H 296.526 0.501374 -0.540179 0
M  V30 3080 H 299.168 0.7015 -1.76576 0
M  V30 3081 H 297.318 3.12162 -2.31274 0
M  V30 3082 H 298.99 1.50423 -4.36086 0
M  V30 3083 H 297.233 1.34876 -4.12299 0
M  V30 3084 H 297.904 2.87185 -4.71411 0
M  V30 3085 H 300.38 3.07939 -2.79844 0
M  V30 3086 H 299.256 4.34756 -3.3508 0
M  V30 3087 H 299.517 4.10949 -1.63013 0
M  V30 3088 N 298.576 1.31904 0.862503 0
M  V30 3089 C 299.523 1.20182 1.9704 0
M  V30 3090 C 300.493 0.0858247 1.65878 0
M  V30 3091 O 301.678 0.26 1.8902 0
M  V30 3092 C 298.818 0.922797 3.32533 0
M  V30 3093 C 297.931 2.12284 3.76244 0
M  V30 3094 C 297.066 1.77996 5.00491 0
M  V30 3095 C 296.105 2.94366 5.36671 0
M  V30 3096 N 295.242 2.60223 6.52095 0
M  V30 3097 H 300.082 2.14951 2.06398 0
M  V30 3098 H 297.619 1.06917 1.01031 0
M  V30 3099 H 299.577 0.741548 4.10557 0
M  V30 3100 H 298.207 0.0119227 3.22798 0
M  V30 3101 H 297.259 2.41461 2.9394 0
M  V30 3102 H 298.571 2.99357 3.98982 0
M  V30 3103 H 297.725 1.56377 5.862 0
M  V30 3104 H 296.464 0.881252 4.79672 0
M  V30 3105 H 295.469 3.16625 4.49476 0
M  V30 3106 H 296.694 3.84957 5.59451 0
M  V30 3107 H 294.64 1.72884 6.32809 0
M  V30 3108 H 294.557 3.40827 6.74814 0
M  V30 3109 H 295.825 2.42016 7.40978 0
M  V30 3110 N 300.054 -1.07777 1.14986 0
M  V30 3111 C 301.001 -2.14867 0.842672 0
M  V30 3112 C 301.971 -1.6486 -0.202552 0
M  V30 3113 O 303.156 -1.90668 -0.0710568 0
M  V30 3114 C 300.296 -3.43486 0.333363 0
M  V30 3115 C 299.409 -4.07306 1.43965 0
M  V30 3116 C 298.544 -5.23744 0.886914 0
M  V30 3117 C 297.583 -5.79517 1.97043 0
M  V30 3118 N 296.72 -6.87291 1.4344 0
M  V30 3119 H 301.56 -2.40485 1.75986 0
M  V30 3120 H 299.097 -1.1801 0.878179 0
M  V30 3121 H 301.055 -4.17195 0.0198163 0
M  V30 3122 H 299.685 -3.18133 -0.546916 0
M  V30 3123 H 298.737 -3.31293 1.86946 0
M  V30 3124 H 300.049 -4.44771 2.25788 0
M  V30 3125 H 299.203 -6.04419 0.525651 0
M  V30 3126 H 297.942 -4.87685 0.0377957 0
M  V30 3127 H 296.947 -4.97491 2.34057 0
M  V30 3128 H 298.172 -6.17632 2.82325 0
M  V30 3129 H 296.118 -6.5318 0.607567 0
M  V30 3130 H 296.035 -7.23617 2.18895 0
M  V30 3131 H 297.303 -7.71682 1.10124 0
M  V30 3132 N 301.532 -0.945985 -1.26051 0
M  V30 3133 C 302.778 -0.597002 -1.93814 0
M  V30 3134 C 303.111 0.862484 -1.73997 0
M  V30 3135 O 302.386 1.61769 -1.07986 0
M  V30 3136 C 302.669 -0.945937 -3.47454 0
M  V30 3137 C 302.522 -2.46052 -3.76535 0
M  V30 3138 C 303.841 -0.464785 -4.37639 0
M  V30 3139 H 300.96 -0.218366 -0.703907 0
M  V30 3140 H 303.602 -1.18107 -1.48831 0
M  V30 3141 H 301.752 -0.448902 -3.85898 0
M  V30 3142 H 303.424 -3.03065 -3.47778 0
M  V30 3143 H 301.667 -2.90194 -3.22444 0
M  V30 3144 H 302.338 -2.65517 -4.83947 0
M  V30 3145 H 304.814 -0.891016 -4.06448 0
M  V30 3146 H 303.69 -0.737712 -5.4392 0
M  V30 3147 H 303.951 0.635274 -4.37512 0
M  V30 3148 N 303.011 1.40521 -0.713556 0
M  V30 3149 C 304.239 2.05237 -0.261775 0
M  V30 3150 C 304.654 1.53755 1.09567 0
M  V30 3151 O 304.011 0.693268 1.6882 0
M  V30 3152 C 304.062 3.60763 -0.230706 0
M  V30 3153 O 303.783 4.10345 -1.53455 0
M  V30 3154 C 305.284 4.42651 0.239874 0
M  V30 3155 H 302.504 0.660533 -0.118057 0
M  V30 3156 H 305.048 1.79967 -0.971192 0
M  V30 3157 H 303.203 3.8501 0.429661 0
M  V30 3158 H 303.617 5.04526 -1.43366 0
M  V30 3159 H 305.091 5.51599 0.210468 0
M  V30 3160 H 305.568 4.20082 1.28171 0
M  V30 3161 H 306.174 4.23507 -0.390142 0
M  V30 3162 N 304.489 0.459591 1.5075 0
M  V30 3163 C 305.452 -0.329093 2.26825 0
M  V30 3164 C 306.452 -0.930481 1.31144 0
M  V30 3165 O 307.642 -0.801453 1.54669 0
M  V30 3166 C 304.774 -1.46768 3.07688 0
M  V30 3167 H 305.967 0.337924 2.9799 0
M  V30 3168 H 303.52 0.213336 1.54837 0
M  V30 3169 H 304.255 -2.17009 2.40993 0
M  V30 3170 H 304.04 -1.04238 3.77991 0
M  V30 3171 H 305.53 -2.02433 3.65254 0
M  V30 3172 N 305.967 -1.56429 0.191757 0
M  V30 3173 C 306.897 -2.21937 -0.725696 0
M  V30 3174 C 307.878 -1.1814 -1.2238 0
M  V30 3175 O 309.063 -1.46636 -1.27325 0
M  V30 3176 C 306.193 -2.87611 -1.94672 0
M  V30 3177 C 305.147 -3.97623 -1.58366 0
M  V30 3178 C 304.473 -4.50446 -2.88102 0
M  V30 3179 C 305.773 -5.16197 -0.796133 0
M  V30 3180 H 307.467 -2.98861 -0.179606 0
M  V30 3181 H 305.013 -1.43749 -0.0849464 0
M  V30 3182 H 306.966 -3.3212 -2.59373 0
M  V30 3183 H 305.69 -2.08087 -2.51728 0
M  V30 3184 H 304.349 -3.53801 -0.960247 0
M  V30 3185 H 303.997 -3.67688 -3.43241 0
M  V30 3186 H 303.697 -5.24675 -2.64556 0
M  V30 3187 H 305.221 -4.97654 -3.53798 0
M  V30 3188 H 306.635 -5.57271 -1.34618 0
M  V30 3189 H 305.032 -5.96471 -0.658928 0
M  V30 3190 H 306.102 -4.84473 0.203478 0
M  V30 3191 N 307.445 0.0818655 -1.57387 0
M  V30 3192 C 308.377 1.12484 -1.997 0
M  V30 3193 C 309.39 1.35564 -0.90146 0
M  V30 3194 O 310.579 1.33982 -1.17945 0
M  V30 3195 C 307.679 2.47778 -2.31213 0
M  V30 3196 C 306.852 2.44793 -3.62485 0
M  V30 3197 C 305.911 3.62117 -3.81782 0
M  V30 3198 O 304.937 3.44005 -4.53486 0
M  V30 3199 N 306.139 4.82094 -3.23367 0
M  V30 3200 H 308.904 0.764585 -2.89783 0
M  V30 3201 H 306.465 0.270664 -1.59621 0
M  V30 3202 H 308.457 3.24891 -2.41304 0
M  V30 3203 H 307.027 2.75843 -1.4707 0
M  V30 3204 H 306.247 1.53134 -3.6324 0
M  V30 3205 H 307.535 2.39889 -4.48699 0
M  V30 3206 H 306.933 4.99713 -2.65148 0
M  V30 3207 H 305.49 5.56753 -3.38923 0
M  V30 3208 N 308.923 1.53595 0.353017 0
M  V30 3209 C 310.339 1.43648 0.695516 0
M  V30 3210 C 310.539 0.585617 1.92802 0
M  V30 3211 O 309.595 0.0729223 2.52395 0
M  V30 3212 C 310.908 2.8701 0.896991 0
M  V30 3213 C 312.456 2.96723 0.996209 0
M  V30 3214 C 312.931 4.41173 1.23007 0
M  V30 3215 N 314.422 4.44657 1.29749 0
M  V30 3216 C 315.157 5.53547 1.49577 0
M  V30 3217 N 314.653 6.72461 1.66639 0
M  V30 3218 N 316.446 5.41145 1.52048 0
M  V30 3219 H 308.597 2.07415 -0.457481 0
M  V30 3220 H 310.86 0.9372 -0.142687 0
M  V30 3221 H 310.566 3.51644 0.0629938 0
M  V30 3222 H 310.44 3.31401 1.80148 0
M  V30 3223 H 312.827 2.32235 1.82074 0
M  V30 3224 H 312.908 2.55707 0.0688331 0
M  V30 3225 H 312.552 5.06238 0.410505 0
M  V30 3226 H 312.482 4.79772 2.17086 0
M  V30 3227 H 314.973 3.58963 1.18126 0
M  V30 3228 H 315.286 7.51214 1.81378 0
M  V30 3229 H 313.631 6.75423 1.63794 0
M  V30 3230 H 316.822 4.47205 1.38294 0
M  V30 3231 H 316.995 6.26068 1.67159 0
M  V30 3232 N 310.401 -0.613514 1.45168 0
M  V30 3233 C 311.331 -1.7354 1.56225 0
M  V30 3234 C 312.312 -1.64981 0.41414 0
M  V30 3235 O 313.497 -1.83472 0.636526 0
M  V30 3236 C 310.627 -3.12128 1.52295 0
M  V30 3237 C 309.581 -3.35491 2.65762 0
M  V30 3238 C 308.907 -4.74291 2.46885 0
M  V30 3239 C 310.207 -3.26325 4.0781 0
M  V30 3240 H 311.901 -1.64543 2.50132 0
M  V30 3241 H 309.447 -0.790185 1.20383 0
M  V30 3242 H 311.4 -3.90404 1.58628 0
M  V30 3243 H 310.124 -3.2195 0.549139 0
M  V30 3244 H 308.783 -2.59603 2.58847 0
M  V30 3245 H 308.431 -4.80839 1.47657 0
M  V30 3246 H 308.131 -4.9088 3.22972 0
M  V30 3247 H 309.655 -5.54775 2.55063 0
M  V30 3248 H 311.069 -3.94483 4.16 0
M  V30 3249 H 309.466 -3.54445 4.8424 0
M  V30 3250 H 310.536 -2.23855 4.30136 0
M  V30 3251 N 311.879 -1.3236 -0.855495 0
M  V30 3252 C 313.127 -1.22629 -1.60644 0
M  V30 3253 C 313.448 0.212136 -1.93843 0
M  V30 3254 O 312.718 1.13666 -1.59552 0
M  V30 3255 H 311.298 -0.450882 -0.595579 0
M  V30 3256 H 313.96 -1.65871 -1.02337 0
M  V30 3257 H 313.056 -1.80832 -2.54374 0
M  V30 3258 N 313.357 1.07166 -1.15556 0
M  V30 3259 C 314.585 1.83514 -0.955519 0
M  V30 3260 C 315 1.82163 0.49621 0
M  V30 3261 O 314.357 1.23441 1.34419 0
M  V30 3262 C 314.408 3.30515 -1.46432 0
M  V30 3263 O 314.129 3.31937 -2.85918 0
M  V30 3264 C 315.63 4.23625 -1.30603 0
M  V30 3265 H 312.85 0.578926 -0.339244 0
M  V30 3266 H 315.394 1.35265 -1.53374 0
M  V30 3267 H 313.549 3.76106 -0.928584 0
M  V30 3268 H 313.963 4.23794 -3.09029 0
M  V30 3269 H 315.437 5.24831 -1.71047 0
M  V30 3270 H 315.914 4.38485 -0.250441 0
M  V30 3271 H 316.52 3.83871 -1.83094 0
M  V30 3272 N 314.835 0.952656 1.25548 0
M  V30 3273 C 315.767 0.428609 2.25157 0
M  V30 3274 C 316.78 -0.454428 1.56329 0
M  V30 3275 O 317.969 -0.263023 1.76552 0
M  V30 3276 C 315.069 -0.401972 3.36508 0
M  V30 3277 C 314.242 0.467601 4.34893 0
M  V30 3278 C 313.301 -0.30445 5.25319 0
M  V30 3279 O 312.327 0.296473 5.68427 0
M  V30 3280 N 313.529 -1.59805 5.5807 0
M  V30 3281 H 316.294 1.28497 2.70756 0
M  V30 3282 H 313.855 0.822798 1.39433 0
M  V30 3283 H 315.847 -0.926134 3.9396 0
M  V30 3284 H 314.417 -1.15918 2.90313 0
M  V30 3285 H 313.637 1.17288 3.76347 0
M  V30 3286 H 314.925 1.06119 4.97611 0
M  V30 3287 H 314.323 -2.10823 5.24948 0
M  V30 3288 H 312.88 -2.06822 6.18116 0
M  V30 3289 N 316.313 -1.40141 0.720998 0
M  V30 3290 C 317.26 -2.30688 0.071919 0
M  V30 3291 C 318.23 -1.48476 -0.744584 0
M  V30 3292 O 319.415 -1.77201 -0.707423 0
M  V30 3293 C 316.555 -3.34724 -0.839855 0
M  V30 3294 C 315.668 -4.31998 -0.0122438 0
M  V30 3295 C 314.803 -5.23102 -0.923995 0
M  V30 3296 C 313.842 -6.12033 -0.0907969 0
M  V30 3297 N 312.979 -6.95537 -0.957718 0
M  V30 3298 H 317.819 -2.85628 0.849755 0
M  V30 3299 H 315.356 -1.40653 0.430726 0
M  V30 3300 H 317.314 -3.93618 -1.38279 0
M  V30 3301 H 315.944 -2.81274 -1.58381 0
M  V30 3302 H 314.996 -3.74841 0.64794 0
M  V30 3303 H 316.308 -4.94772 0.632595 0
M  V30 3304 H 315.462 -5.86953 -1.53527 0
M  V30 3305 H 314.201 -4.60615 -1.60264 0
M  V30 3306 H 313.206 -5.47207 0.533377 0
M  V30 3307 H 314.431 -6.76581 0.584428 0
M  V30 3308 H 312.377 -6.35633 -1.62192 0
M  V30 3309 H 312.294 -7.55099 -0.36904 0
M  V30 3310 H 313.562 -7.63832 -1.555 0
M  V30 3311 N 317.792 -0.46758 -1.50504 0
M  V30 3312 C 318.702 0.33382 -2.32213 0
M  V30 3313 C 319.718 0.999323 -1.42441 0
M  V30 3314 O 320.894 0.988068 -1.75497 0
M  V30 3315 C 317.959 1.4035 -3.17022 0
M  V30 3316 C 317.02 0.754961 -4.2261 0
M  V30 3317 C 316.253 1.77367 -5.03365 0
M  V30 3318 O 316.476 2.99976 -4.8515 0
M  V30 3319 O 315.41 1.34744 -5.86624 0
M  V30 3320 H 319.236 -0.334067 -3.01857 0
M  V30 3321 H 316.821 -0.229496 -1.47627 0
M  V30 3322 H 318.703 2.02318 -3.69656 0
M  V30 3323 H 317.378 2.05492 -2.5011 0
M  V30 3324 H 316.285 0.0964244 -3.73976 0
M  V30 3325 H 317.618 0.146545 -4.91982 0
M  V30 3326 N 319.27 1.56325 -0.20005 0
M  V30 3327 C 320.2 2.22318 0.713916 0
M  V30 3328 C 321.181 1.18788 1.21752 0
M  V30 3329 O 322.366 1.47309 1.26545 0
M  V30 3330 C 319.496 2.88639 1.93144 0
M  V30 3331 C 318.45 3.98457 1.56255 0
M  V30 3332 C 317.776 4.51967 2.85709 0
M  V30 3333 C 319.076 5.16612 0.768747 0
M  V30 3334 H 320.77 2.98952 0.163755 0
M  V30 3335 H 318.316 1.43792 0.0773219 0
M  V30 3336 H 320.269 3.33491 2.57608 0
M  V30 3337 H 318.993 2.09419 2.50621 0
M  V30 3338 H 317.652 3.54305 0.941471 0
M  V30 3339 H 317.3 3.69503 3.41287 0
M  V30 3340 H 317 5.26071 2.6177 0
M  V30 3341 H 318.524 4.99523 3.51154 0
M  V30 3342 H 319.938 5.57977 1.3166 0
M  V30 3343 H 318.335 5.96812 0.627286 0
M  V30 3344 H 319.405 4.84358 -0.229168 0
M  V30 3345 N 320.748 -0.0735177 1.57428 0
M  V30 3346 C 321.996 -0.771472 1.86796 0
M  V30 3347 C 322.317 -1.78201 0.791804 0
M  V30 3348 O 321.587 -1.95074 -0.179718 0
M  V30 3349 H 320.167 -0.28791 0.689287 0
M  V30 3350 H 322.829 -0.0500161 1.94836 0
M  V30 3351 H 321.925 -1.28874 2.8425 0
M  V30 3352 N 322.226 -1.5378 -0.344866 0
M  V30 3353 C 323.136 -1.84667 -1.4469 0
M  V30 3354 C 324.152 -0.736704 -1.57635 0
M  V30 3355 O 325.328 -1.02888 -1.73136 0
M  V30 3356 C 322.393 -2.04869 -2.79696 0
M  V30 3357 C 321.454 -3.28731 -2.76106 0
M  V30 3358 C 320.687 -3.4796 -4.04673 0
M  V30 3359 O 320.91 -2.71052 -5.01883 0
M  V30 3360 O 319.844 -4.41383 -4.09224 0
M  V30 3361 H 323.67 -2.78334 -1.21506 0
M  V30 3362 H 321.255 -1.39418 -0.536921 0
M  V30 3363 H 323.137 -2.19609 -3.59652 0
M  V30 3364 H 321.812 -1.14391 -3.02814 0
M  V30 3365 H 320.719 -3.19396 -1.94774 0
M  V30 3366 H 322.052 -4.19198 -2.57941 0
M  V30 3367 N 323.704 0.605807 -1.45491 0
M  V30 3368 C 324.634 1.72709 -1.57143 0
M  V30 3369 C 325.615 1.6476 -0.422884 0
M  V30 3370 O 326.8 1.83132 -0.646247 0
M  V30 3371 C 323.93 3.11316 -1.53948 0
M  V30 3372 C 322.884 3.34077 -2.67537 0
M  V30 3373 C 322.21 4.72975 -2.49397 0
M  V30 3374 C 323.51 3.24158 -4.09535 0
M  V30 3375 H 325.204 1.63214 -2.51001 0
M  V30 3376 H 322.75 0.78379 -1.208 0
M  V30 3377 H 324.703 3.89557 -1.60696 0
M  V30 3378 H 323.427 3.21655 -0.566205 0
M  V30 3379 H 322.086 2.58227 -2.6022 0
M  V30 3380 H 321.734 4.8005 -1.50205 0
M  V30 3381 H 321.434 4.8916 -3.25571 0
M  V30 3382 H 322.958 5.53414 -2.58002 0
M  V30 3383 H 324.372 3.92271 -4.18086 0
M  V30 3384 H 322.769 3.51872 -4.86113 0
M  V30 3385 H 323.839 2.2157 -4.31317 0
M  V30 3386 N 325.182 1.32811 0.848464 0
M  V30 3387 C 326.428 1.23907 1.60546 0
M  V30 3388 C 326.761 -0.197161 1.93197 0
M  V30 3389 O 326.036 -1.13596 1.5788 0
M  V30 3390 C 326.319 2.10489 2.92175 0
M  V30 3391 C 326.172 3.62522 2.66266 0
M  V30 3392 C 327.491 1.97075 3.93509 0
M  V30 3393 H 324.61 0.451459 0.58254 0
M  V30 3394 H 327.252 1.62818 0.979296 0
M  V30 3395 H 325.402 1.77434 3.45614 0
M  V30 3396 H 327.074 4.05821 2.19334 0
M  V30 3397 H 325.317 3.84879 2.00126 0
M  V30 3398 H 325.988 4.18437 3.6002 0
M  V30 3399 H 328.464 2.26045 3.49346 0
M  V30 3400 H 327.34 2.59923 4.83457 0
M  V30 3401 H 327.601 0.940186 4.31987 0
M  V30 3402 N 326.66 -1.06551 1.16123 0
M  V30 3403 C 327.623 -2.12132 0.867906 0
M  V30 3404 C 328.623 -1.60224 -0.135944 0
M  V30 3405 O 329.813 -1.73943 0.0946422 0
M  V30 3406 C 326.945 -3.396 0.297419 0
M  V30 3407 H 328.138 -2.39586 1.80385 0
M  V30 3408 H 325.691 -1.22574 0.969812 0
M  V30 3409 H 326.426 -3.17794 -0.64633 0
M  V30 3410 H 326.211 -3.78581 1.02073 0
M  V30 3411 H 327.701 -4.17455 0.110052 0
M  V30 3412 N 328.138 -0.959301 -1.25041 0
M  V30 3413 C 329.385 -0.616611 -1.92884 0
M  V30 3414 C 329.713 0.847036 -1.75087 0
M  V30 3415 O 328.968 1.62374 -1.09239 0
M  V30 3416 C 329.267 -0.927136 -3.45165 0
M  V30 3417 C 328.933 -2.37757 -3.83122 0
M  V30 3418 C 327.595 -2.77402 -3.93194 0
M  V30 3419 C 329.947 -3.31929 -4.01836 0
M  V30 3420 C 327.275 -4.10277 -4.19392 0
M  V30 3421 C 329.627 -4.64423 -4.29528 0
M  V30 3422 C 328.291 -5.03857 -4.37818 0
M  V30 3423 H 327.561 -0.225634 -0.705812 0
M  V30 3424 H 330.208 -1.20921 -1.48493 0
M  V30 3425 H 328.513 -0.252195 -3.90987 0
M  V30 3426 H 330.21 -0.6405 -3.95852 0
M  V30 3427 H 326.8 -2.06013 -3.75841 0
M  V30 3428 H 330.984 -3.02488 -3.93465 0
M  V30 3429 H 326.24 -4.40467 -4.24027 0
M  V30 3430 H 330.414 -5.37369 -4.42953 0
M  V30 3431 H 328.041 -6.06843 -4.57871 0
M  V30 3432 N 329.616 1.39756 -0.72842 0
M  V30 3433 C 330.546 2.33289 -0.0991354 0
M  V30 3434 C 331.527 1.53568 0.731489 0
M  V30 3435 O 332.712 1.81987 0.677807 0
M  V30 3436 C 329.842 3.3763 0.813834 0
M  V30 3437 C 328.796 4.2791 0.0878663 0
M  V30 3438 C 328.122 5.22894 1.11741 0
M  V30 3439 C 329.422 5.11314 -1.06563 0
M  V30 3440 H 331.116 2.86163 -0.880408 0
M  V30 3441 H 328.662 1.37591 -0.424819 0
M  V30 3442 H 330.615 4.0201 1.26355 0
M  V30 3443 H 329.339 2.83181 1.62715 0
M  V30 3444 H 327.998 3.65 -0.342159 0
M  V30 3445 H 327.646 4.64744 1.92412 0
M  V30 3446 H 327.346 5.84143 0.636477 0
M  V30 3447 H 328.87 5.90151 1.56697 0
M  V30 3448 H 330.284 5.69076 -0.694671 0
M  V30 3449 H 328.681 5.81671 -1.47577 0
M  V30 3450 H 329.751 4.46534 -1.89038 0
M  V30 3451 N 331.094 0.475555 1.50254 0
M  V30 3452 C 332.057 -0.305016 2.27161 0
M  V30 3453 C 333.057 -0.916519 1.32123 0
M  V30 3454 O 334.247 -0.785003 1.5551 0
M  V30 3455 C 331.379 -1.43496 3.09227 0
M  V30 3456 H 332.572 0.369511 2.97615 0
M  V30 3457 H 330.125 0.229747 1.54602 0
M  V30 3458 H 330.86 -2.14441 2.43281 0
M  V30 3459 H 330.645 -1.00223 3.79075 0
M  V30 3460 H 332.135 -1.98548 3.67381 0
M  V30 3461 N 332.573 -1.56217 0.208337 0
M  V30 3462 C 333.798 -2.02782 -0.435222 0
M  V30 3463 C 334.223 -1.08738 -1.53485 0
M  V30 3464 O 333.581 -0.0731855 -1.81152 0
M  V30 3465 C 333.629 -3.47687 -0.956335 0
M  V30 3466 O 332.733 -3.56773 -2.06849 0
M  V30 3467 H 332.074 -0.656403 -0.100158 0
M  V30 3468 H 334.604 -2.02033 0.3231 0
M  V30 3469 H 334.614 -3.87745 -1.26955 0
M  V30 3470 H 333.289 -4.15624 -0.15143 0
M  V30 3471 H 331.866 -3.28597 -1.76292 0
M  V30 3472 N 334.051 0.0651679 -1.57465 0
M  V30 3473 C 335.299 0.761555 -1.87202 0
M  V30 3474 C 335.62 1.77778 -0.801243 0
M  V30 3475 O 334.89 1.95166 0.16937 0
M  V30 3476 H 333.47 0.284251 -0.690804 0
M  V30 3477 H 336.132 0.0396827 -1.9486 0
M  V30 3478 H 335.228 1.27365 -2.84929 0
M  V30 3479 N 335.529 1.53961 0.336706 0
M  V30 3480 C 336.754 1.75797 1.10046 0
M  V30 3481 C 337.179 0.498985 1.81361 0
M  V30 3482 O 336.537 -0.548769 1.72795 0
M  V30 3483 C 336.585 2.94257 2.08436 0
M  V30 3484 O 335.689 2.64883 3.16087 0
M  V30 3485 H 335.03 0.582936 0.317934 0
M  V30 3486 H 337.56 2.00945 0.38501 0
M  V30 3487 H 337.57 3.21237 2.51537 0
M  V30 3488 H 336.245 3.85564 1.55927 0
M  V30 3489 H 334.822 2.48812 2.77753 0
M  V30 3490 N 337.007 -0.598083 1.45811 0
M  V30 3491 C 338.247 -1.36802 1.5187 0
M  V30 3492 C 338.611 -1.9133 0.160224 0
M  V30 3493 O 339.812 -2.6863 0.0955302 0
M  V30 3494 C 338.083 -2.47835 2.57513 0
M  V30 3495 S 339.642 -3.35458 2.82866 0
M  V30 3496 H 336.46 -0.466278 0.536755 0
M  V30 3497 H 339.062 -0.689152 1.82951 0
M  V30 3498 H 337.766 -2.06141 3.54872 0
M  V30 3499 H 337.297 -3.20512 2.28114 0
M  V30 3500 H 339.312 -4.46251 2.16967 0
M  V30 3501 N 338.485 -1.33259 -0.841409 0
M  V30 3502 C 339.762 -1.15174 -1.58096 0
M  V30 3503 C 340.142 0.282858 -2.09196 0
M  V30 3504 O 339.49 1.28151 -1.89181 0
M  V30 3505 C 339.7 -2.1907 -2.71679 0
M  V30 3506 C 341.048 -2.53093 -3.40924 0
M  V30 3507 O 342.072 -2.17717 -2.81918 0
M  V30 3508 O 340.931 -3.1379 -4.47435 0
M  V30 3509 H 338.025 -0.445303 -0.696875 0
M  V30 3510 H 340.571 -1.44833 -0.884385 0
M  V30 3511 H 339.343 -3.15443 -2.31541 0
M  V30 3512 H 338.966 -1.90481 -3.49002 0
M  V30 3513 N 339.963 1.05934 -1.16686 0
M  V30 3514 C 341.193 1.82226 -0.973515 0
M  V30 3515 C 341.601 1.8297 0.481532 0
M  V30 3516 O 340.944 1.25009 1.34604 0
M  V30 3517 C 341.006 3.29897 -1.42858 0
M  V30 3518 C 340.67 3.52849 -2.90425 0
M  V30 3519 C 341.667 3.45595 -3.88407 0
M  V30 3520 C 339.352 3.80053 -3.28428 0
M  V30 3521 C 341.346 3.65217 -5.22394 0
M  V30 3522 C 339.033 3.99325 -4.62583 0
M  V30 3523 C 340.031 3.91905 -5.59374 0
M  V30 3524 O 339.719 4.10647 -6.91104 0
M  V30 3525 H 339.451 0.581314 -0.345036 0
M  V30 3526 H 342.005 1.3453 -1.55212 0
M  V30 3527 H 340.235 3.78472 -0.793477 0
M  V30 3528 H 341.924 3.87692 -1.20207 0
M  V30 3529 H 342.69 3.24564 -3.60393 0
M  V30 3530 H 338.569 3.84936 -2.53664 0
M  V30 3531 H 342.113 3.59341 -5.9793 0
M  V30 3532 H 338.01 4.19846 -4.90306 0
M  V30 3533 H 338.778 4.27915 -6.97733 0
M  V30 3534 N 341.441 0.965919 1.2453 0
M  V30 3535 C 342.371 0.513476 2.27784 0
M  V30 3536 C 343.352 -0.445974 1.6415 0
M  V30 3537 O 344.537 -0.342485 1.91156 0
M  V30 3538 C 341.667 -0.198839 3.4673 0
M  V30 3539 C 340.621 0.676456 4.2262 0
M  V30 3540 C 339.947 -0.167248 5.34438 0
M  V30 3541 C 341.247 1.96017 4.84123 0
M  V30 3542 H 342.941 1.3765 2.65881 0
M  V30 3543 H 340.487 0.663321 1.27813 0
M  V30 3544 H 342.44 -0.526567 4.18097 0
M  V30 3545 H 341.164 -1.0962 3.07654 0
M  V30 3546 H 339.823 0.98743 3.53052 0
M  V30 3547 H 339.471 -1.0647 4.91603 0
M  V30 3548 H 339.171 0.415181 5.86131 0
M  V30 3549 H 340.695 -0.489688 6.08633 0
M  V30 3550 H 342.109 1.69814 5.47573 0
M  V30 3551 H 340.506 2.48918 5.4604 0
M  V30 3552 H 341.576 2.65622 4.05676 0
M  V30 3553 N 342.919 -1.39368 0.735821 0
M  V30 3554 C 344.147 -2.04795 0.294393 0
M  V30 3555 C 344.562 -1.55478 -1.07107 0
M  V30 3556 O 343.919 -0.720038 -1.67695 0
M  V30 3557 C 343.97 -3.6035 0.288071 0
M  V30 3558 O 343.691 -4.07852 1.59963 0
M  V30 3559 C 345.192 -4.42976 -0.169422 0
M  V30 3560 H 342.412 -0.658571 0.128551 0
M  V30 3561 H 344.956 -1.78399 0.999701 0
M  V30 3562 H 343.111 -3.85645 -0.368355 0
M  V30 3563 H 343.525 -5.02181 1.51375 0
M  V30 3564 H 344.999 -5.51864 -0.122687 0
M  V30 3565 H 345.476 -4.22068 -1.21472 0
M  V30 3566 H 346.082 -4.22832 0.457469 0
M  V30 3567 N 344.397 -0.483516 -1.5 0
M  V30 3568 C 345.645 0.067027 -2.01989 0
M  V30 3569 C 345.966 1.3909 -1.36671 0
M  V30 3570 O 345.236 1.88978 -0.516152 0
M  V30 3571 H 343.816 0.0277606 -0.746484 0
M  V30 3572 H 346.478 -0.636773 -1.84204 0
M  V30 3573 H 345.574 0.209484 -3.11396 0
M  V30 3574 N 345.875 1.56104 -0.216619 0
M  V30 3575 C 346.807 2.17339 0.72776 0
M  V30 3576 C 347.82 1.14109 1.16116 0
M  V30 3577 O 349.009 1.4111 1.09317 0
M  V30 3578 C 346.109 2.73818 1.99693 0
M  V30 3579 C 345.282 4.02168 1.71988 0
M  V30 3580 C 344.341 4.43259 2.83562 0
M  V30 3581 O 343.367 5.10257 2.52244 0
M  V30 3582 N 344.569 4.08535 4.12407 0
M  V30 3583 H 347.334 2.99005 0.203983 0
M  V30 3584 H 344.895 1.61861 -0.0354289 0
M  V30 3585 H 346.887 2.9828 2.73516 0
M  V30 3586 H 345.457 1.96483 2.43132 0
M  V30 3587 H 344.677 3.85612 0.818337 0
M  V30 3588 H 345.965 4.85907 1.50903 0
M  V30 3589 H 345.363 3.54687 4.40696 0
M  V30 3590 H 343.92 4.37901 4.8279 0
M  V30 3591 N 347.353 -0.0568162 1.57498 0
M  V30 3592 C 348.599 -0.75422 1.88253 0
M  V30 3593 C 348.932 -1.76461 0.810865 0
M  V30 3594 O 348.207 -1.93691 -0.177259 0
M  V30 3595 C 348.49 -1.44878 3.2967 0
M  V30 3596 C 348.343 -0.453789 4.47505 0
M  V30 3597 C 349.662 -2.38994 3.69554 0
M  V30 3598 H 346.781 -0.272724 0.684683 0
M  V30 3599 H 349.423 -0.0172113 1.89992 0
M  V30 3600 H 347.573 -2.077 3.28318 0
M  V30 3601 H 349.245 0.170371 4.60985 0
M  V30 3602 H 347.488 0.229552 4.33192 0
M  V30 3603 H 348.159 -0.977699 5.43273 0
M  V30 3604 H 350.635 -1.86239 3.72095 0
M  V30 3605 H 349.511 -2.84587 4.69363 0
M  V30 3606 H 349.772 -3.24461 3.00296 0
M  V30 3607 N 348.832 -1.54138 -0.328536 0
M  V30 3608 C 350.079 -1.72105 -1.06706 0
M  V30 3609 C 350.407 -0.492111 -1.88171 0
M  V30 3610 O 349.662 0.526153 -1.88494 0
M  V30 3611 C 349.961 -2.9457 -2.02393 0
M  V30 3612 C 349.627 -4.29544 -1.37122 0
M  V30 3613 C 348.289 -4.6624 -1.19052 0
M  V30 3614 C 350.641 -5.1333 -0.902331 0
M  V30 3615 C 347.969 -5.84325 -0.527331 0
M  V30 3616 C 350.321 -6.32094 -0.252988 0
M  V30 3617 C 348.985 -6.67473 -0.0600901 0
M  V30 3618 H 348.255 -0.629775 -0.390466 0
M  V30 3619 H 350.902 -1.88372 -0.34473 0
M  V30 3620 H 349.207 -2.72969 -2.81061 0
M  V30 3621 H 350.904 -3.05665 -2.59557 0
M  V30 3622 H 347.494 -4.0067 -1.52188 0
M  V30 3623 H 351.678 -4.855 -1.02974 0
M  V30 3624 H 346.934 -6.103 -0.366634 0
M  V30 3625 H 351.108 -6.96299 0.118366 0
M  V30 3626 H 348.735 -7.58832 0.455828 0
M  V30 3627 N 350.31 0.590341 -1.46126 0
M  V30 3628 C 351.556 1.34874 -1.52252 0
M  V30 3629 C 351.911 1.91658 -0.168807 0
M  V30 3630 O 351.204 1.73093 0.821556 0
M  V30 3631 C 351.398 2.5032 -2.55097 0
M  V30 3632 C 351.227 2.04843 -4.00337 0
M  V30 3633 C 349.997 1.90213 -4.68132 0
M  V30 3634 C 352.195 1.61267 -4.88362 0
M  V30 3635 N 350.177 1.38727 -5.9802 0
M  V30 3636 C 351.548 1.21319 -6.08015 0
M  V30 3637 C 353.603 1.49015 -4.75078 0
M  V30 3638 C 352.306 0.7034 -7.15852 0
M  V30 3639 C 354.332 0.994401 -5.8298 0
M  V30 3640 C 353.694 0.604659 -7.018 0
M  V30 3641 H 349.793 0.486803 -0.612002 0
M  V30 3642 H 352.377 0.673007 -1.82698 0
M  V30 3643 H 350.548 3.15466 -2.26574 0
M  V30 3644 H 352.28 3.1725 -2.51266 0
M  V30 3645 H 349.035 2.11927 -4.23537 0
M  V30 3646 H 349.459 1.15168 -6.67132 0
M  V30 3647 H 354.101 1.77768 -3.83612 0
M  V30 3648 H 351.819 0.403446 -8.07092 0
M  V30 3649 H 355.405 0.903621 -5.7474 0
M  V30 3650 H 354.285 0.226963 -7.83871 0
M  V30 3651 N 351.788 1.33704 0.83433 0
M  V30 3652 C 352.718 1.26967 1.95963 0
M  V30 3653 C 353.699 0.149337 1.69443 0
M  V30 3654 O 354.884 0.339852 1.91203 0
M  V30 3655 C 352.014 1.01275 3.32206 0
M  V30 3656 C 350.968 2.09652 3.73136 0
M  V30 3657 C 350.294 1.69166 5.07235 0
M  V30 3658 C 351.594 3.51372 3.86439 0
M  V30 3659 H 353.288 2.2112 2.01857 0
M  V30 3660 H 350.834 1.06447 0.969793 0
M  V30 3661 H 352.787 0.952106 4.10503 0
M  V30 3662 H 351.511 0.0356203 3.26581 0
M  V30 3663 H 350.17 2.14766 2.97104 0
M  V30 3664 H 349.818 0.701437 4.98085 0
M  V30 3665 H 349.518 2.41694 5.35591 0
M  V30 3666 H 351.042 1.64576 5.88003 0
M  V30 3667 H 352.456 3.48734 4.55036 0
M  V30 3668 H 350.853 4.22425 4.26236 0
M  V30 3669 H 351.923 3.89546 2.88759 0
M  V30 3670 N 353.266 -1.05314 1.17247 0
M  V30 3671 C 354.229 -2.112 0.890357 0
M  V30 3672 C 355.229 -1.60359 -0.118943 0
M  V30 3673 O 356.419 -1.73833 0.113086 0
M  V30 3674 C 353.551 -3.39266 0.333422 0
M  V30 3675 H 354.744 -2.37659 1.82916 0
M  V30 3676 H 352.297 -1.21538 0.982758 0
M  V30 3677 H 353.032 -3.18462 -0.612587 0
M  V30 3678 H 352.817 -3.77477 1.06082 0
M  V30 3679 H 354.307 -4.17315 0.154322 0
M  V30 3680 N 354.744 -0.972509 -1.24016 0
M  V30 3681 C 355.992 -0.635776 -1.91839 0
M  V30 3682 C 356.313 0.832312 -1.76345 0
M  V30 3683 O 355.583 1.5946 -1.13795 0
M  V30 3684 H 354.163 -0.232157 -0.710009 0
M  V30 3685 H 356.825 -1.23462 -1.50809 0
M  V30 3686 H 355.921 -0.880545 -2.99421 0
M  V30 3687 N 356.222 1.38976 -0.743202 0
M  V30 3688 C 357.47 1.99948 -0.29417 0
M  V30 3689 C 357.791 1.59279 1.12495 0
M  V30 3690 O 357.061 0.844808 1.76748 0
M  V30 3691 H 355.641 0.739473 -0.105774 0
M  V30 3692 H 358.303 1.699 -0.954986 0
M  V30 3693 H 357.399 3.10142 -0.349056 0
M  V30 3694 N 357.7 0.491464 1.49741 0
M  V30 3695 C 358.947 -0.0564256 2.02421 0
M  V30 3696 C 359.275 -1.37872 1.37192 0
M  V30 3697 O 358.53 -1.89375 0.493508 0
M  V30 3698 C 358.829 -0.267329 3.56399 0
M  V30 3699 C 358.495 0.975775 4.40215 0
M  V30 3700 C 357.157 1.31655 4.62839 0
M  V30 3701 C 359.509 1.80251 4.89039 0
M  V30 3702 C 356.837 2.48375 5.31532 0
M  V30 3703 C 359.189 2.96116 5.59015 0
M  V30 3704 C 357.853 3.30585 5.79888 0
M  V30 3705 H 357.123 -0.0206476 0.740712 0
M  V30 3706 H 359.77 0.649686 1.80143 0
M  V30 3707 H 358.075 -1.05588 3.77304 0
M  V30 3708 H 359.772 -0.705549 3.94744 0
M  V30 3709 H 356.362 0.700315 4.2284 0
M  V30 3710 H 360.546 1.55239 4.71396 0
M  V30 3711 H 355.802 2.7533 5.45897 0
M  V30 3712 H 359.976 3.60509 5.95824 0
M  V30 3713 H 357.603 4.21132 6.32892 0
M  V30 3714 N 359.178 -1.55987 0.224894 0
M  V30 3715 C 360.589 -1.84553 -0.282345 0
M  V30 3716 C 360.94 -1.14634 -1.59227 0
M  V30 3717 O 360.065 -0.417155 -2.12341 0
M  V30 3718 C 360.66 -3.348 -0.519062 0
M  V30 3719 C 359.219 -3.63671 -0.970604 0
M  V30 3720 C 358.366 -2.77277 -0.0355261 0
M  V30 3721 H 361.317 -1.52245 0.448006 0
M  V30 3722 H 361.338 -3.55187 -1.36463 0
M  V30 3723 H 360.85 -3.8566 0.43449 0
M  V30 3724 H 358.951 -3.1827 -1.9374 0
M  V30 3725 H 359.064 -4.71631 -0.842698 0
M  V30 3726 H 357.428 -2.48846 -0.542927 0
M  V30 3727 H 358.211 -3.30937 0.913003 0
M  V30 3728 N 360.656 0.0484629 -1.57525 0
M  V30 3729 C 361.589 1.08755 -2.00618 0
M  V30 3730 C 362.567 1.36272 -0.887058 0
M  V30 3731 O 363.751 1.49255 -1.15131 0
M  V30 3732 C 360.878 2.42675 -2.36277 0
M  V30 3733 C 359.924 2.31142 -3.58435 0
M  V30 3734 S 360.757 1.68326 -5.08357 0
M  V30 3735 C 361.913 3.03776 -5.47239 0
M  V30 3736 H 362.146 0.720415 -2.88439 0
M  V30 3737 H 359.679 0.257801 -1.52233 0
M  V30 3738 H 361.637 3.19699 -2.57494 0
M  V30 3739 H 360.298 2.76541 -1.48942 0
M  V30 3740 H 359.491 3.29957 -3.80978 0
M  V30 3741 H 359.093 1.62258 -3.36969 0
M  V30 3742 H 361.385 4.00106 -5.46737 0
M  V30 3743 H 362.328 2.85988 -6.47778 0
M  V30 3744 H 362.736 3.05456 -4.74718 0
M  V30 3745 N 362.134 1.5431 0.320358 0
M  V30 3746 C 363.383 1.7188 1.05546 0
M  V30 3747 C 363.696 0.501143 1.89071 0
M  V30 3748 O 364.902 0.558258 2.65699 0
M  V30 3749 C 363.358 3.04025 1.92605 0
M  V30 3750 C 362.966 4.33207 1.14176 0
M  V30 3751 C 364.71 3.30959 2.65832 0
M  V30 3752 C 362.617 5.56412 2.00399 0
M  V30 3753 H 361.547 0.640547 0.397763 0
M  V30 3754 H 364.198 1.80802 0.313522 0
M  V30 3755 H 362.58 2.89019 2.7071 0
M  V30 3756 H 363.754 4.58989 0.40819 0
M  V30 3757 H 362.069 4.13062 0.526165 0
M  V30 3758 H 364.666 4.20203 3.30656 0
M  V30 3759 H 365.009 2.48979 3.33639 0
M  V30 3760 H 365.542 3.46847 1.94787 0
M  V30 3761 H 362.281 6.41004 1.37094 0
M  V30 3762 H 361.801 5.34844 2.7148 0
M  V30 3763 H 363.48 5.92938 2.58908 0
M  V30 3764 N 363.613 -0.582584 1.46437 0
M  V30 3765 C 364.523 -1.71949 1.59595 0
M  V30 3766 C 365.539 -1.67264 0.479443 0
M  V30 3767 O 366.715 -1.87171 0.743579 0
M  V30 3768 C 363.78 -3.08452 1.58298 0
M  V30 3769 C 362.841 -3.244 2.81182 0
M  V30 3770 C 362.074 -4.54391 2.79937 0
M  V30 3771 O 362.297 -5.38287 1.8869 0
M  V30 3772 O 361.231 -4.73588 3.71481 0
M  V30 3773 H 365.057 -1.63795 2.55744 0
M  V30 3774 H 362.642 -0.749643 1.29231 0
M  V30 3775 H 364.524 -3.89732 1.60271 0
M  V30 3776 H 363.199 -3.17043 0.653094 0
M  V30 3777 H 362.106 -2.42613 2.84763 0
M  V30 3778 H 363.439 -3.20699 3.7338 0
M  V30 3779 N 365.091 -1.34144 -0.827227 0
M  V30 3780 C 366.507 -1.13732 -1.11969 0
M  V30 3781 C 366.707 0.0640463 -2.01398 0
M  V30 3782 O 365.763 0.740856 -2.41387 0
M  V30 3783 C 367.076 -2.43047 -1.77055 0
M  V30 3784 C 368.624 -2.49063 -1.89569 0
M  V30 3785 C 369.099 -3.78369 -2.58072 0
M  V30 3786 N 370.59 -3.79505 -2.65575 0
M  V30 3787 C 371.325 -4.76274 -3.19297 0
M  V30 3788 N 370.821 -5.83424 -3.73616 0
M  V30 3789 N 372.614 -4.63735 -3.17658 0
M  V30 3790 H 364.765 -2.11126 -0.232296 0
M  V30 3791 H 367.028 -0.933424 -0.165602 0
M  V30 3792 H 366.734 -3.31025 -1.18807 0
M  V30 3793 H 366.608 -2.56066 -2.76966 0
M  V30 3794 H 368.995 -1.61527 -2.46968 0
M  V30 3795 H 369.076 -2.39975 -0.885745 0
M  V30 3796 H 368.72 -4.66293 -2.01329 0
M  V30 3797 H 368.65 -3.84737 -3.59562 0
M  V30 3798 H 371.141 -3.02074 -2.27068 0
M  V30 3799 H 371.454 -6.53282 -4.12846 0
M  V30 3800 H 369.799 -5.87143 -3.71871 0
M  V30 3801 H 372.99 -3.79177 -2.74486 0
M  V30 3802 H 373.163 -5.39318 -3.59221 0
M  V30 3803 N 366.569 1.04691 -1.17803 0
M  V30 3804 C 367.815 1.78181 -0.980977 0
M  V30 3805 C 368.17 1.86191 0.484825 0
M  V30 3806 O 367.463 1.35436 1.35527 0
M  V30 3807 C 367.657 3.21467 -1.56186 0
M  V30 3808 C 367.486 3.27422 -3.08261 0
M  V30 3809 C 366.256 3.36415 -3.77032 0
M  V30 3810 C 368.454 3.15947 -4.0581 0
M  V30 3811 N 366.436 3.31554 -5.16667 0
M  V30 3812 C 367.807 3.18514 -5.31929 0
M  V30 3813 C 369.862 2.99945 -3.97413 0
M  V30 3814 C 368.565 3.06723 -6.50625 0
M  V30 3815 C 370.591 2.89497 -5.15699 0
M  V30 3816 C 369.953 2.92702 -6.40706 0
M  V30 3817 H 366.052 0.6641 -0.412911 0
M  V30 3818 H 368.636 1.24762 -1.49474 0
M  V30 3819 H 366.807 3.73245 -1.07436 0
M  V30 3820 H 368.539 3.8322 -1.30093 0
M  V30 3821 H 365.294 3.41887 -3.27735 0
M  V30 3822 H 365.718 3.3258 -5.89678 0
M  V30 3823 H 370.36 2.96302 -3.01604 0
M  V30 3824 H 368.078 3.0912 -7.46639 0
M  V30 3825 H 371.664 2.78179 -5.10987 0
M  V30 3826 H 370.544 2.84697 -7.30696 0
M  V30 3827 N 368.047 0.979072 1.23499 0
M  V30 3828 C 369.458 0.684391 1.73704 0
M  V30 3829 C 369.809 -0.799448 1.79174 0
M  V30 3830 O 368.934 -1.62531 1.42873 0
M  V30 3831 C 369.529 1.23564 3.15464 0
M  V30 3832 C 368.088 0.99063 3.6313 0
M  V30 3833 C 367.235 1.36416 2.41425 0
M  V30 3834 H 370.186 1.15307 1.09041 0
M  V30 3835 H 370.207 0.607417 3.7562 0
M  V30 3836 H 369.719 2.31561 3.1145 0
M  V30 3837 H 367.82 -0.0733136 3.72528 0
M  V30 3838 H 367.933 1.64427 4.5 0
M  V30 3839 H 366.297 0.782616 2.42378 0
M  V30 3840 H 367.08 2.45387 2.40083 0
M  V30 3841 N 369.525 -1.3858 0.750561 0
M  V30 3842 C 370.773 -1.99789 0.30477 0
M  V30 3843 C 371.094 -1.59874 -1.11649 0
M  V30 3844 O 370.364 -0.85417 -1.76297 0
M  V30 3845 H 368.944 -0.738902 0.109694 0
M  V30 3846 H 371.606 -1.69391 0.963983 0
M  V30 3847 H 370.702 -3.09952 0.365499 0
M  V30 3848 N 371.003 -0.499398 -1.49478 0
M  V30 3849 C 371.936 0.326491 -2.25852 0
M  V30 3850 C 372.914 0.971776 -1.30366 0
M  V30 3851 O 374.098 1.00219 -1.59651 0
M  V30 3852 C 371.225 1.45969 -3.05632 0
M  V30 3853 C 370.271 0.928938 -4.16261 0
M  V30 3854 S 371.104 -0.179012 -5.35201 0
M  V30 3855 C 372.26 0.957389 -6.18534 0
M  V30 3856 H 372.493 -0.321746 -2.95554 0
M  V30 3857 H 370.026 -0.284674 -1.51753 0
M  V30 3858 H 371.984 2.109 -3.52181 0
M  V30 3859 H 370.645 2.07953 -2.35402 0
M  V30 3860 H 369.838 1.77813 -4.71592 0
M  V30 3861 H 369.44 0.356869 -3.72293 0
M  V30 3862 H 371.732 1.86296 -6.51383 0
M  V30 3863 H 372.675 0.442733 -7.06715 0
M  V30 3864 H 373.083 1.224 -5.5107 0
M  V30 3865 N 372.481 1.55866 -0.233164 0
M  V30 3866 C 373.892 1.847 0.272554 0
M  V30 3867 C 374.243 1.15477 1.58617 0
M  V30 3868 O 373.368 0.42841 2.12117 0
M  V30 3869 C 373.963 3.35071 0.501299 0
M  V30 3870 C 372.522 3.6418 0.951304 0
M  V30 3871 C 371.669 2.77292 0.0208209 0
M  V30 3872 H 374.62 1.52005 -0.456074 0
M  V30 3873 H 374.641 3.55906 1.34577 0
M  V30 3874 H 374.153 3.85424 -0.454936 0
M  V30 3875 H 372.254 3.19293 1.92049 0
M  V30 3876 H 372.367 4.72071 0.817675 0
M  V30 3877 H 370.731 2.49131 0.529723 0
M  V30 3878 H 371.514 3.30448 -0.93054 0
M  V30 3879 N 373.959 -0.0401083 1.57549 0
M  V30 3880 C 374.869 -1.06133 2.0922 0
M  V30 3881 C 375.885 -1.40356 1.0284 0
M  V30 3882 O 377.061 -1.49897 1.34509 0
M  V30 3883 C 374.126 -2.34658 2.55218 0
M  V30 3884 C 373.187 -2.07117 3.76033 0
M  V30 3885 C 372.42 -3.29514 4.19829 0
M  V30 3886 O 372.643 -4.39794 3.63232 0
M  V30 3887 O 371.577 -3.15863 5.12362 0
M  V30 3888 H 375.403 -0.652244 2.96613 0
M  V30 3889 H 372.988 -0.256368 1.47184 0
M  V30 3890 H 374.87 -3.10239 2.85184 0
M  V30 3891 H 373.545 -2.74883 1.70941 0
M  V30 3892 H 372.452 -1.29139 3.51104 0
M  V30 3893 H 373.785 -1.71754 4.61261 0
M  V30 3894 O 375.476 -1.60458 -0.183159 0
M  V30 3895 H 376.167 -1.75443 -0.820934 0
M  V30 END ATOM
M  V30 BEGIN BOND
M  V30 END BOND
M  V30 END CTAB
M  END
$$$$
