drugbank_target|Q7DB61 GrlR (DB04199)
 OpenBabel12092120473D

  0  0  0     0  0            999 V3000
M  V30 BEGIN CTAB
M  V30 COUNTS 1963 1980 0 0 0
M  V30 BEGIN ATOM
M  V30 1 H -0.908 1.98254 -0.117106 0
M  V30 2 N 0 1.576 0 0
M  V30 3 C 0.933 2.03868 1.02534 0
M  V30 4 C 1.911 0.928543 1.3348 0
M  V30 5 O 3.095 1.19667 1.45644 0
M  V30 6 C 0.222 2.43627 2.35294 0
M  V30 7 C -0.732 3.65373 2.2001 0
M  V30 8 S 0.101 5.13292 1.52614 0
M  V30 9 C 1.257 5.56322 2.86805 0
M  V30 10 H 1.49 2.90518 0.631377 0
M  V30 11 H -0.977 1.52953 0.210867 0
M  V30 12 H 0.981 2.67203 3.11629 0
M  V30 13 H -0.358 1.57376 2.7183 0
M  V30 14 H -1.165 3.90944 3.18086 0
M  V30 15 H -1.563 3.418 1.51819 0
M  V30 16 H 0.729 5.58782 3.83104 0
M  V30 17 H 1.672 6.56266 2.65933 0
M  V30 18 H 2.08 4.83886 2.90714 0
M  V30 19 N 1.4781 -0.272755 1.55222 0
M  V30 20 C 2.7271 -1.00211 1.75045 0
M  V30 21 C 3.0401 -1.87441 0.559046 0
M  V30 22 O 4.2461 -2.63856 0.639698 0
M  V30 23 C 2.7021 -1.83165 3.09804 0
M  V30 24 C 2.3101 -1.008 4.36513 0
M  V30 25 C 4.0541 -2.55529 3.38977 0
M  V30 26 C 1.9611 -1.83194 5.62311 0
M  V30 27 H 0.8911 -0.377878 0.652476 0
M  V30 28 H 3.5421 -0.257776 1.8168 0
M  V30 29 H 1.9241 -2.61694 2.97207 0
M  V30 30 H 3.0981 -0.266855 4.60027 0
M  V30 31 H 1.4131 -0.398897 4.14485 0
M  V30 32 H 4.0101 -3.17578 4.30172 0
M  V30 33 H 4.3531 -3.25825 2.59121 0
M  V30 34 H 4.8861 -1.84029 3.52673 0
M  V30 35 H 1.6251 -1.17318 6.44916 0
M  V30 36 H 1.1451 -2.54905 5.4294 0
M  V30 37 H 2.8241 -2.40552 6.00619 0
M  V30 38 N 2.9562 -1.48159 -0.537278 0
M  V30 39 C 3.8892 -1.567 -1.65893 0
M  V30 40 C 4.8672 -0.41787 -1.57139 0
M  V30 41 O 6.0512 -0.628461 -1.77715 0
M  V30 42 C 3.1782 -1.48818 -3.04255 0
M  V30 43 C 2.2242 -2.68482 -3.31391 0
M  V30 44 S 3.0572 -4.30516 -3.1846 0
M  V30 45 C 4.2132 -4.2522 -4.59281 0
M  V30 46 H 4.4462 -2.5159 -1.58397 0
M  V30 47 H 1.9792 -1.36602 -0.719672 0
M  V30 48 H 3.9372 -1.44958 -3.84054 0
M  V30 49 H 2.5982 -0.552777 -3.09198 0
M  V30 50 H 1.7912 -2.59085 -4.32309 0
M  V30 51 H 1.3932 -2.69567 -2.59248 0
M  V30 52 H 3.6852 -3.94703 -5.5065 0
M  V30 53 H 4.6282 -5.26292 -4.73732 0
M  V30 54 H 5.0362 -3.55791 -4.38261 0
M  V30 55 N 4.4343 0.785586 -1.36625 0
M  V30 56 C 5.3813 1.89838 -1.31264 0
M  V30 57 C 6.3513 1.65115 -0.180633 0
M  V30 58 O 7.5363 1.87222 -0.36777 0
M  V30 59 C 4.6763 3.26706 -1.11163 0
M  V30 60 C 3.7893 3.63476 -2.33472 0
M  V30 61 C 2.9243 4.89481 -2.06353 0
M  V30 62 C 1.9633 5.18941 -3.24602 0
M  V30 63 N 1.1003 6.36131 -2.97123 0
M  V30 64 H 5.9403 1.93756 -2.26413 0
M  V30 65 H 3.4773 0.947454 -1.12524 0
M  V30 66 H 5.4353 4.05639 -0.975337 0
M  V30 67 H 4.0653 3.222 -0.196674 0
M  V30 68 H 3.1173 2.79636 -2.57891 0
M  V30 69 H 4.4293 3.81193 -3.21704 0
M  V30 70 H 3.5833 5.76288 -1.89675 0
M  V30 71 H 2.3223 4.73841 -1.15437 0
M  V30 72 H 1.3273 4.30615 -3.41834 0
M  V30 73 H 2.5523 5.36498 -4.16349 0
M  V30 74 H 0.4983 6.21875 -2.08823 0
M  V30 75 H 0.4153 6.54198 -3.78894 0
M  V30 76 H 1.6833 7.2591 -2.84033 0
M  V30 77 N 5.9124 1.20967 1.01018 0
M  V30 78 C 7.1894 0.93264 1.71934 0
M  V30 79 C 7.5694 -0.55692 2.03621 0
M  V30 80 O 6.9174 -1.52035 1.7058 0
M  V30 81 C 7.1274 1.81233 2.98254 0
M  V30 82 C 8.4754 2.05804 3.71389 0
M  V30 83 O 9.4994 1.78539 3.08225 0
M  V30 84 O 8.3584 2.51888 4.84989 0
M  V30 85 H 5.4524 0.349272 0.749625 0
M  V30 86 H 7.9984 1.31871 1.06808 0
M  V30 87 H 6.7704 2.82067 2.71208 0
M  V30 88 H 6.3934 1.42674 3.7112 0
M  V30 89 N 7.3905 -1.2043 1.01659 0
M  V30 90 C 8.6385 -1.89423 0.704522 0
M  V30 91 C 8.9595 -1.79231 -0.768197 0
M  V30 92 O 8.2295 -1.1947 -1.55254 0
M  V30 93 H 6.8095 -0.701178 0.257602 0
M  V30 94 H 9.4715 -1.4626 1.28818 0
M  V30 95 H 8.5675 -2.96052 0.987916 0
M  V30 96 N 8.8686 -0.792821 -1.36206 0
M  V30 97 C 10.1176 -0.363353 -1.984 0
M  V30 98 C 10.4306 1.07172 -1.63626 0
M  V30 99 O 11.6366 1.60362 -2.19081 0
M  V30 100 C 10.0926 -0.59872 -3.54885 0
M  V30 101 C 9.7006 -2.04543 -3.9858 0
M  V30 102 C 11.4446 -0.233926 -4.23855 0
M  V30 103 C 9.3516 -2.22727 -5.47856 0
M  V30 104 H 8.2816 -0.13212 -0.742334 0
M  V30 105 H 10.9326 -0.974935 -1.55458 0
M  V30 106 H 9.3146 0.0826222 -3.95914 0
M  V30 107 H 10.4886 -2.76345 -3.68741 0
M  V30 108 H 8.8036 -2.36879 -3.42458 0
M  V30 109 H 11.4006 -0.348027 -5.33566 0
M  V30 110 H 11.7436 0.818351 -4.08177 0
M  V30 111 H 12.2766 -0.868639 -3.882 0
M  V30 112 H 9.0156 -3.2635 -5.68486 0
M  V30 113 H 8.5356 -1.55434 -5.7931 0
M  V30 114 H 10.2146 -2.03607 -6.14128 0
M  V30 115 N 10.3467 1.47872 -0.545128 0
M  V30 116 C 11.5767 2.06589 -0.0210534 0
M  V30 117 C 11.9847 1.39997 1.27269 0
M  V30 118 O 11.3277 0.486421 1.77143 0
M  V30 119 C 11.3897 3.58574 0.257933 0
M  V30 120 C 11.0537 4.47132 -0.944573 0
M  V30 121 C 12.0507 4.85986 -1.84699 0
M  V30 122 C 9.7357 4.88821 -1.15584 0
M  V30 123 C 11.7297 5.65314 -2.94446 0
M  V30 124 C 9.4167 5.67916 -2.25642 0
M  V30 125 C 10.4147 6.06073 -3.14905 0
M  V30 126 O 10.1027 6.83578 -4.23057 0
M  V30 127 H 9.8347 0.674971 -0.0372899 0
M  V30 128 H 12.3887 1.91037 -0.754599 0
M  V30 129 H 10.6187 3.72295 1.04564 0
M  V30 130 H 12.3077 3.99356 0.72592 0
M  V30 131 H 13.0737 4.54388 -1.69577 0
M  V30 132 H 8.9527 4.58595 -0.470279 0
M  V30 133 H 12.4967 5.95016 -3.64145 0
M  V30 134 H 8.3937 5.98927 -2.40742 0
M  V30 135 H 9.1617 7.01954 -4.20954 0
M  V30 136 N 11.8248 0.280983 1.55075 0
M  V30 137 C 13.0498 -0.340154 2.04592 0
M  V30 138 C 13.4748 -1.48246 1.15779 0
M  V30 139 O 12.8328 -1.80614 0.15761 0
M  V30 140 C 12.8808 -0.793104 3.5177 0
M  V30 141 O 11.9848 -1.89981 3.66034 0
M  V30 142 H 11.3258 -0.0694289 0.66036 0
M  V30 143 H 13.8558 0.416993 2.00306 0
M  V30 144 H 13.8658 -1.08729 3.93245 0
M  V30 145 H 12.5408 0.0426163 4.15878 0
M  V30 146 H 11.1178 -1.60771 3.36463 0
M  V30 147 N 13.3029 -1.57598 0.00835791 0
M  V30 148 C 14.5519 -1.90107 -0.673968 0
M  V30 149 C 14.8649 -0.884275 -1.7447 0
M  V30 150 O 16.0709 -1.09987 -2.48224 0
M  V30 151 C 14.5269 -3.37497 -1.24995 0
M  V30 152 C 14.1349 -4.47491 -0.2136 0
M  V30 153 C 15.8789 -3.79104 -1.90999 0
M  V30 154 C 13.7859 -5.85963 -0.80005 0
M  V30 155 H 12.7159 -0.709393 -0.255495 0
M  V30 156 H 15.3669 -1.83365 0.0702693 0
M  V30 157 H 13.7489 -3.39102 -2.04513 0
M  V30 158 H 14.9229 -4.57414 0.557596 0
M  V30 159 H 13.2379 -4.14956 0.346474 0
M  V30 160 H 15.8349 -4.79901 -2.35795 0
M  V30 161 H 16.1779 -3.1306 -2.74407 0
M  V30 162 H 16.7109 -3.79833 -1.18203 0
M  V30 163 H 13.4499 -6.555 -0.00456708 0
M  V30 164 H 12.9699 -5.79687 -1.54021 0
M  V30 165 H 14.6489 -6.33884 -1.29615 0
M  V30 166 N 14.781 0.264519 -1.55364 0
M  V30 167 C 16.03 0.992812 -1.75574 0
M  V30 168 C 16.343 1.87142 -0.568979 0
M  V30 169 O 17.549 2.63513 -0.653682 0
M  V30 170 C 16.005 1.81519 -3.10771 0
M  V30 171 C 15.613 0.984839 -4.37041 0
M  V30 172 C 17.357 2.53727 -3.40327 0
M  V30 173 C 15.264 1.80209 -5.63275 0
M  V30 174 H 14.194 0.374412 -0.65447 0
M  V30 175 H 16.845 0.248138 -1.81815 0
M  V30 176 H 15.227 2.60115 -2.98591 0
M  V30 177 H 16.401 0.242455 -4.60162 0
M  V30 178 H 14.716 0.37691 -4.14691 0
M  V30 179 H 17.313 3.15292 -4.3185 0
M  V30 180 H 17.656 3.24447 -2.60845 0
M  V30 181 H 18.189 1.82156 -3.53644 0
M  V30 182 H 14.928 1.13896 -6.45529 0
M  V30 183 H 14.448 2.52022 -5.44284 0
M  V30 184 H 16.127 2.37364 -6.01887 0
M  V30 185 N 16.2591 1.48442 0.529413 0
M  V30 186 C 17.5061 1.56488 1.28521 0
M  V30 187 C 17.8341 0.239042 1.93025 0
M  V30 188 O 17.0891 -0.770713 1.79885 0
M  V30 189 C 17.3881 2.6523 2.39558 0
M  V30 190 C 17.0541 4.07648 1.92702 0
M  V30 191 C 15.7161 4.46411 1.79641 0
M  V30 192 C 18.0681 4.96896 1.573 0
M  V30 193 C 15.3961 5.72226 1.29514 0
M  V30 194 C 17.7481 6.23202 1.08636 0
M  V30 195 C 16.4121 6.60821 0.941919 0
M  V30 196 H 15.6821 0.572631 0.470292 0
M  V30 197 H 18.3291 1.82161 0.59072 0
M  V30 198 H 16.6341 2.33419 3.14679 0
M  V30 199 H 18.3311 2.68671 2.97686 0
M  V30 200 H 14.9211 3.77036 2.03819 0
M  V30 201 H 19.1051 4.67626 1.66251 0
M  V30 202 H 14.3611 6.00097 1.17019 0
M  V30 203 H 18.5351 6.91753 0.803136 0
M  V30 204 H 16.1621 7.58198 0.5513 0
M  V30 205 N 17.7372 -0.778329 1.37039 0
M  V30 206 C 18.9862 -1.53189 1.3121 0
M  V30 207 C 19.2992 -1.95328 -0.103095 0
M  V30 208 O 20.5052 -2.70012 -0.283826 0
M  V30 209 C 18.9612 -2.76591 2.30272 0
M  V30 210 C 18.5692 -2.41577 3.77286 0
M  V30 211 C 20.3132 -3.5455 2.33441 0
M  V30 212 C 18.2202 -3.61441 4.68096 0
M  V30 213 H 17.1502 -0.5751 0.487622 0
M  V30 214 H 19.8012 -0.853101 1.62464 0
M  V30 215 H 18.1832 -3.46326 1.92027 0
M  V30 216 H 19.3572 -1.79668 4.2433 0
M  V30 217 H 17.6722 -1.76806 3.76999 0
M  V30 218 H 20.2692 -4.43628 2.98493 0
M  V30 219 H 20.6122 -3.93936 1.34611 0
M  V30 220 H 21.1452 -2.91805 2.7036 0
M  V30 221 H 17.8842 -3.27142 5.6803 0
M  V30 222 H 17.4042 -4.22478 4.25761 0
M  V30 223 H 19.0832 -4.28335 4.8491 0
M  V30 224 N 19.2153 -1.21501 -1.00376 0
M  V30 225 C 20.4403 -1.05977 -1.78279 0
M  V30 226 C 20.8653 0.385994 -1.84097 0
M  V30 227 O 20.2233 1.27849 -1.28547 0
M  V30 228 C 20.2713 -1.66302 -3.19963 0
M  V30 229 O 19.3753 -0.909333 -4.0225 0
M  V30 230 H 18.7163 -0.372906 -0.549397 0
M  V30 231 H 21.2463 -1.6107 -1.26165 0
M  V30 232 H 21.2563 -1.70574 -3.70632 0
M  V30 233 H 19.9313 -2.71515 -3.15043 0
M  V30 234 H 18.5083 -0.941795 -3.60811 0
M  V30 235 N 20.6934 1.19889 -1.02296 0
M  V30 236 C 21.6414 2.24938 -0.592081 0
M  V30 237 C 22.6354 1.65257 0.372357 0
M  V30 238 O 23.8414 1.78371 0.241583 0
M  V30 239 H 20.2164 0.731787 -0.173182 0
M  V30 240 H 22.1874 2.58603 -1.48885 0
M  V30 241 C 20.9364 3.47668 0.047351 0
M  V30 242 H 20.2594 3.93875 -0.685772 0
M  V30 243 H 21.6994 4.22852 0.311862 0
M  V30 244 C 20.1584 3.11136 1.29212 0
M  V30 245 O 20.6884 3.2325 2.38479 0
M  V30 246 N 18.8944 2.65625 1.17863 0
M  V30 247 H 18.4414 2.55968 0.289493 0
M  V30 248 H 18.3994 2.41553 2.01245 0
M  V30 249 N 22.1715 0.800033 1.35784 0
M  V30 250 C 23.0815 0.207204 2.33683 0
M  V30 251 C 24.0975 -0.64631 1.61551 0
M  V30 252 O 25.2735 -0.559604 1.93469 0
M  V30 253 C 22.3385 -0.639659 3.40748 0
M  V30 254 C 21.3995 0.233585 4.28664 0
M  V30 255 C 20.6325 -0.572954 5.30616 0
M  V30 256 O 20.8555 -1.80816 5.40982 0
M  V30 257 O 19.7895 0.0327285 6.01891 0
M  V30 258 H 23.6155 1.01692 2.86169 0
M  V30 259 H 21.2005 0.561691 1.38439 0
M  V30 260 H 23.0825 -1.12223 4.06182 0
M  V30 261 H 21.7575 -1.42708 2.90544 0
M  V30 262 H 20.6645 0.763147 3.66233 0
M  V30 263 H 21.9975 0.984784 4.82248 0
M  V30 264 N 23.6496 -1.47581 0.552962 0
M  V30 265 C 24.9266 -1.95563 -0.0381515 0
M  V30 266 C 25.3066 -1.49552 -1.48988 0
M  V30 267 O 24.6546 -0.732414 -2.16444 0
M  V30 268 C 24.8646 -3.48848 0.102919 0
M  V30 269 C 26.2126 -4.24577 -0.0446082 0
M  V30 270 O 27.2366 -3.56187 0.0302548 0
M  V30 271 O 26.0956 -5.46116 -0.204923 0
M  V30 272 H 23.1896 -0.824321 -0.0665067 0
M  V30 273 H 25.7356 -1.58001 0.619186 0
M  V30 274 H 24.5076 -3.75129 1.11328 0
M  V30 275 H 24.1306 -3.93165 -0.592224 0
M  V30 276 N 25.1277 -0.289203 -1.54924 0
M  V30 277 C 26.3527 0.329299 -2.04769 0
M  V30 278 C 26.7777 1.4763 -1.16564 0
M  V30 279 O 26.1357 1.80527 -0.167186 0
M  V30 280 C 26.1837 0.774438 -3.52186 0
M  V30 281 O 25.2877 1.88038 -3.67036 0
M  V30 282 H 24.6287 0.0659259 -0.660719 0
M  V30 283 H 27.1587 -0.42761 -2.00082 0
M  V30 284 H 27.1687 1.06642 -3.93816 0
M  V30 285 H 25.8437 -0.0646707 -4.1585 0
M  V30 286 H 24.4207 1.58985 -3.3731 0
M  V30 287 N 26.6058 1.57591 -0.0167156 0
M  V30 288 C 27.8458 1.93145 0.668902 0
M  V30 289 C 28.2098 0.892406 1.7 0
M  V30 290 O 29.4108 1.13373 2.43721 0
M  V30 291 C 27.6818 3.33678 1.28039 0
M  V30 292 S 29.2408 3.91142 1.9888 0
M  V30 293 H 26.0588 0.67593 0.220545 0
M  V30 294 H 28.6608 1.95347 -0.0774105 0
M  V30 295 H 27.3648 4.07126 0.517339 0
M  V30 296 H 26.8958 3.3489 2.06427 0
M  V30 297 H 28.9108 3.73571 3.26587 0
M  V30 298 N 28.0839 -0.256276 1.55502 0
M  V30 299 C 29.3319 -0.983672 1.76545 0
M  V30 300 C 29.6529 -1.86206 0.578982 0
M  V30 301 O 28.9229 -1.91656 -0.405577 0
M  V30 302 H 27.5029 -0.366191 0.651086 0
M  V30 303 H 30.1649 -0.276479 1.92929 0
M  V30 304 H 29.2609 -1.61087 2.67315 0
M  V30 305 N 29.562 -1.4872 -0.521534 0
M  V30 306 C 30.472 -1.66569 -1.65203 0
M  V30 307 C 31.488 -0.548197 -1.65139 0
M  V30 308 O 32.664 -0.820339 -1.83936 0
M  V30 309 C 29.729 -1.70917 -3.01642 0
M  V30 310 C 28.79 -2.94356 -3.12495 0
M  V30 311 C 28.023 -2.98487 -4.42426 0
M  V30 312 O 28.246 -2.10786 -5.30024 0
M  V30 313 O 27.18 -3.90746 -4.57822 0
M  V30 314 H 31.006 -2.62298 -1.5308 0
M  V30 315 H 28.591 -1.3222 -0.695565 0
M  V30 316 H 30.473 -1.7625 -3.82771 0
M  V30 317 H 29.148 -0.783633 -3.14071 0
M  V30 318 H 28.055 -2.94552 -2.3063 0
M  V30 319 H 29.388 -3.86322 -3.04986 0
M  V30 320 N 31.0401 0.771051 -1.3745 0
M  V30 321 C 32.2881 1.52661 -1.32435 0
M  V30 322 C 32.6091 1.9479 0.0905024 0
M  V30 323 O 31.8791 1.66348 1.03466 0
M  V30 324 H 30.4591 0.566218 -0.487244 0
M  V30 325 H 33.1211 0.917636 -1.71946 0
M  V30 326 H 32.2171 2.42568 -1.96385 0
M  V30 327 N 32.5182 1.22032 0.997298 0
M  V30 328 C 33.7672 1.03637 1.73038 0
M  V30 329 C 34.0802 -0.429475 1.90827 0
M  V30 330 O 35.2862 -0.732995 2.61418 0
M  V30 331 C 33.7422 1.80582 3.11317 0
M  V30 332 C 33.3502 3.31387 3.01474 0
M  V30 333 C 35.0942 1.70621 3.88701 0
M  V30 334 C 33.0012 4.00791 4.3488 0
M  V30 335 H 31.9312 0.384179 0.648785 0
M  V30 336 H 34.5822 1.4584 1.11368 0
M  V30 337 H 32.9642 1.31175 3.73643 0
M  V30 338 H 34.1382 3.88155 2.4834 0
M  V30 339 H 32.4532 3.41976 2.37575 0
M  V30 340 H 35.0502 2.19799 4.87434 0
M  V30 341 H 35.3932 0.665823 4.10941 0
M  V30 342 H 35.9262 2.17547 3.33044 0
M  V30 343 H 32.6652 5.05064 4.1784 0
M  V30 344 H 32.1852 3.48811 4.87945 0
M  V30 345 H 33.8642 4.06139 5.03647 0
M  V30 346 N 33.9963 -1.19345 1.0293 0
M  V30 347 C 34.9263 -2.2481 0.631105 0
M  V30 348 C 35.9073 -1.66245 -0.360104 0
M  V30 349 O 37.0923 -1.92677 -0.242726 0
M  V30 350 C 34.2223 -3.47295 -0.0184607 0
M  V30 351 C 33.1763 -4.18536 0.895073 0
M  V30 352 C 32.5023 -5.34586 0.110592 0
M  V30 353 C 33.8023 -4.73287 2.209 0
M  V30 354 H 35.4963 -2.58372 1.51275 0
M  V30 355 H 33.0423 -1.24194 0.728818 0
M  V30 356 H 34.9953 -4.20268 -0.308675 0
M  V30 357 H 33.7193 -3.12933 -0.934907 0
M  V30 358 H 32.3783 -3.47446 1.16949 0
M  V30 359 H 32.0263 -4.96469 -0.807902 0
M  V30 360 H 31.7263 -5.83183 0.719087 0
M  V30 361 H 33.2503 -6.10355 -0.172871 0
M  V30 362 H 34.6643 -5.38013 1.98028 0
M  V30 363 H 33.0613 -5.32373 2.76946 0
M  V30 364 H 34.1313 -3.91331 2.86336 0
M  V30 365 N 35.4744 -0.807222 -1.35358 0
M  V30 366 C 36.7234 -0.384376 -1.98004 0
M  V30 367 C 37.0364 1.0543 -1.64754 0
M  V30 368 O 38.2424 1.58029 -2.20769 0
M  V30 369 C 36.6984 -0.636326 -3.5423 0
M  V30 370 C 36.3064 -2.08759 -3.96388 0
M  V30 371 C 38.0504 -0.278869 -4.23583 0
M  V30 372 C 35.9574 -2.28525 -5.45463 0
M  V30 373 H 34.8874 -0.139986 -0.740891 0
M  V30 374 H 37.5384 -0.991369 -1.54415 0
M  V30 375 H 35.9204 0.0406256 -3.95979 0
M  V30 376 H 37.0944 -2.8024 -3.6579 0
M  V30 377 H 35.4094 -2.40497 -3.39926 0
M  V30 378 H 38.0064 -0.404599 -5.33167 0
M  V30 379 H 38.3494 0.775012 -4.09022 0
M  V30 380 H 38.8824 -0.909764 -3.87257 0
M  V30 381 H 35.6214 -3.32361 -5.64992 0
M  V30 382 H 35.1414 -1.61569 -5.77629 0
M  V30 383 H 36.8204 -2.10109 -6.11934 0
M  V30 384 N 36.9525 1.47285 -0.560781 0
M  V30 385 C 37.8995 2.30058 0.18491 0
M  V30 386 C 38.8695 1.39281 0.904986 0
M  V30 387 O 40.0545 1.68241 0.899979 0
M  V30 388 C 37.1945 3.23317 1.20666 0
M  V30 389 C 36.3075 4.29186 0.492285 0
M  V30 390 C 35.4425 5.09592 1.49964 0
M  V30 391 C 34.4815 6.07232 0.770439 0
M  V30 392 N 33.6185 6.80584 1.72479 0
M  V30 393 H 38.4585 2.93302 -0.527048 0
M  V30 394 H 35.9955 1.44568 -0.271738 0
M  V30 395 H 37.9535 3.75811 1.81168 0
M  V30 396 H 36.5835 2.61929 1.88661 0
M  V30 397 H 35.6355 3.7972 -0.227333 0
M  V30 398 H 36.9475 4.98738 -0.0787929 0
M  V30 399 H 36.1015 5.66254 2.17809 0
M  V30 400 H 34.8405 4.3995 2.10464 0
M  V30 401 H 33.8455 5.49745 0.0780846 0
M  V30 402 H 35.0705 6.78884 0.171134 0
M  V30 403 H 33.0165 6.1367 2.3183 0
M  V30 404 H 32.9335 7.46319 1.20596 0
M  V30 405 H 34.2015 7.41818 2.39428 0
M  V30 406 N 38.4306 0.297415 1.54768 0
M  V30 407 C 39.3786 -0.596051 2.24833 0
M  V30 408 C 40.3726 -1.13992 1.25308 0
M  V30 409 O 41.5786 -1.09098 1.4317 0
M  V30 410 H 37.9536 -0.210814 0.721846 0
M  V30 411 H 39.9246 0.0174667 2.98395 0
M  V30 412 C 38.6736 -1.75818 2.99972 0
M  V30 413 H 37.9966 -1.3489 3.76357 0
M  V30 414 H 39.4366 -2.35949 3.52284 0
M  V30 415 C 37.8956 -2.66014 2.06732 0
M  V30 416 O 38.4256 -3.67009 1.63302 0
M  V30 417 N 36.6316 -2.33669 1.72763 0
M  V30 418 H 36.1786 -1.51586 2.08277 0
M  V30 419 H 36.1366 -2.94285 1.10652 0
M  V30 420 N 39.9087 -1.5758 0.0250728 0
M  V30 421 C 41.1567 -1.91255 -0.653151 0
M  V30 422 C 41.4777 -0.901691 -1.729 0
M  V30 423 O 40.7477 0.0573785 -1.95816 0
M  V30 424 H 39.3277 -0.705942 -0.244243 0
M  V30 425 H 41.9897 -1.94767 0.0719209 0
M  V30 426 H 41.0857 -2.91752 -1.10847 0
M  V30 427 N 41.3868 0.248026 -1.55636 0
M  V30 428 C 42.3348 1.32683 -1.91045 0
M  V30 429 C 43.3288 1.49883 -0.789401 0
M  V30 430 O 44.5348 1.51371 -0.974007 0
M  V30 431 H 40.9098 0.444272 -0.606734 0
M  V30 432 H 42.8808 1.00085 -2.81115 0
M  V30 433 C 41.6298 2.6755 -2.22064 0
M  V30 434 H 40.9528 2.55114 -3.07826 0
M  V30 435 H 42.3928 3.41912 -2.50743 0
M  V30 436 C 40.8518 3.20556 -1.0366 0
M  V30 437 O 41.3818 4.00695 -0.284016 0
M  V30 438 N 39.5878 2.78568 -0.82753 0
M  V30 439 H 39.1348 2.1351 -1.44123 0
M  V30 440 H 39.0928 3.14378 -0.0369803 0
M  V30 441 N 42.8649 1.48995 0.513639 0
M  V30 442 C 43.7979 1.59319 1.63379 0
M  V30 443 C 44.7759 0.442816 1.56454 0
M  V30 444 O 45.9599 0.656655 1.76693 0
M  V30 445 C 43.0869 1.5364 3.01848 0
M  V30 446 C 42.1329 2.7372 3.27078 0
M  V30 447 S 42.9659 4.35528 3.1157 0
M  V30 448 C 44.1219 4.32473 4.52458 0
M  V30 449 H 44.3549 2.54079 1.54374 0
M  V30 450 H 41.8879 1.3773 0.697849 0
M  V30 451 H 43.8459 1.51049 3.81699 0
M  V30 452 H 42.5069 0.601898 3.08279 0
M  V30 453 H 41.6999 2.6593 4.28132 0
M  V30 454 H 41.3019 2.73657 2.54927 0
M  V30 455 H 43.5939 4.03414 5.44301 0
M  V30 456 H 44.5369 5.33762 4.65299 0
M  V30 457 H 44.9449 3.62718 4.32546 0
M  V30 458 N 44.343 -0.763751 1.37857 0
M  V30 459 C 45.592 -1.51789 1.32827 0
M  V30 460 C 45.905 -1.95426 -0.0823719 0
M  V30 461 O 47.111 -2.70298 -0.255172 0
M  V30 462 C 45.567 -2.74133 2.33193 0
M  V30 463 C 45.175 -2.37562 3.79827 0
M  V30 464 C 46.919 -3.52054 2.37188 0
M  V30 465 C 44.826 -3.56456 4.71904 0
M  V30 466 H 43.756 -0.569896 0.493695 0
M  V30 467 H 46.407 -0.835822 1.63359 0
M  V30 468 H 44.789 -3.4427 1.9569 0
M  V30 469 H 45.963 -1.75157 4.26212 0
M  V30 470 H 44.278 -1.72798 3.78853 0
M  V30 471 H 46.875 -4.40437 3.03182 0
M  V30 472 H 47.218 -3.92486 1.38782 0
M  V30 473 H 47.751 -2.88921 2.7344 0
M  V30 474 H 44.49 -3.21099 5.71468 0
M  V30 475 H 44.01 -4.17938 4.30218 0
M  V30 476 H 45.689 -4.23168 4.89426 0
M  V30 477 N 45.8211 -1.22559 -0.990812 0
M  V30 478 C 47.0491 -1.07779 -1.76611 0
M  V30 479 C 47.4641 0.371513 -1.85109 0
M  V30 480 O 46.8211 1.25737 -1.32274 0
M  V30 481 C 46.8721 -1.68512 -3.19822 0
M  V30 482 O 46.5931 -3.07774 -3.1178 0
M  V30 483 C 48.0941 -1.59035 -4.13791 0
M  V30 484 H 45.3141 -0.377729 -0.554583 0
M  V30 485 H 47.8581 -1.62195 -1.24551 0
M  V30 486 H 46.0131 -1.18154 -3.68942 0
M  V30 487 H 46.4271 -3.37062 -4.01858 0
M  V30 488 H 47.9011 -2.0625 -5.1202 0
M  V30 489 H 48.3781 -0.547273 -4.35777 0
M  V30 490 H 48.9841 -2.08709 -3.70568 0
M  V30 491 N 47.2992 1.18797 -1.03562 0
M  V30 492 C 48.5472 1.88278 -0.734569 0
M  V30 493 C 48.8682 1.8043 0.739586 0
M  V30 494 O 48.1382 1.21925 1.53333 0
M  V30 495 H 46.7182 0.696991 -0.268725 0
M  V30 496 H 49.3802 1.44192 -1.31129 0
M  V30 497 H 48.4762 2.94443 -1.03489 0
M  V30 498 N 48.7773 0.814389 1.34928 0
M  V30 499 C 50.0253 0.397636 1.9815 0
M  V30 500 C 50.3463 -1.04069 1.64908 0
M  V30 501 O 49.6163 -1.72121 0.93548 0
M  V30 502 H 48.1963 0.144043 0.732981 0
M  V30 503 H 50.8583 1.04195 1.6471 0
M  V30 504 H 49.9543 0.509688 3.0791 0
M  V30 505 N 50.2554 -1.46986 0.568584 0
M  V30 506 C 51.5324 -1.95592 -0.0174074 0
M  V30 507 C 51.9124 -1.51124 -1.47393 0
M  V30 508 O 51.2604 -0.755329 -2.15655 0
M  V30 509 C 51.4704 -3.48719 0.139913 0
M  V30 510 C 52.8184 -4.246 0.000426376 0
M  V30 511 O 53.8424 -3.56135 0.0680316 0
M  V30 512 O 52.7014 -5.46302 -0.146988 0
M  V30 513 H 49.7954 -0.82498 -0.0577599 0
M  V30 514 H 52.3414 -1.57335 0.635909 0
M  V30 515 H 51.1134 -3.73927 1.15301 0
M  V30 516 H 50.7364 -3.93771 -0.550491 0
M  V30 517 N 51.7335 -0.305618 -1.54608 0
M  V30 518 C 52.9825 0.303098 -1.9941 0
M  V30 519 C 53.2955 1.54648 -1.19764 0
M  V30 520 O 54.5015 2.23007 -1.54855 0
M  V30 521 C 52.9575 0.590588 -3.55021 0
M  V30 522 C 52.5655 -0.634719 -4.43481 0
M  V30 523 C 54.3095 1.16025 -4.08336 0
M  V30 524 C 52.2165 -0.320126 -5.90533 0
M  V30 525 H 51.1465 0.117031 -0.744862 0
M  V30 526 H 53.7975 -0.415045 -1.78745 0
M  V30 527 H 52.1795 1.36845 -3.71604 0
M  V30 528 H 53.3535 -1.41079 -4.38672 0
M  V30 529 H 51.6685 -1.12333 -4.00962 0
M  V30 530 H 54.2655 1.40994 -5.15776 0
M  V30 531 H 54.6085 2.10397 -3.5922 0
M  V30 532 H 55.1415 0.443985 -3.95315 0
M  V30 533 H 51.8805 -1.23254 -6.43808 0
M  V30 534 H 51.4005 0.418579 -5.98338 0
M  V30 535 H 53.0795 0.0766241 -6.46955 0
M  V30 536 N 53.2116 1.57565 -0.0334293 0
M  V30 537 C 54.1746 2.09393 0.932048 0
M  V30 538 C 55.1746 1.00986 1.25134 0
M  V30 539 O 56.3646 1.27129 1.19096 0
M  V30 540 C 53.4966 2.56338 2.2473 0
M  V30 541 H 54.6896 2.95984 0.483085 0
M  V30 542 H 52.2426 1.54819 0.21468 0
M  V30 543 H 52.9776 1.7309 2.74245 0
M  V30 544 H 52.7626 3.35542 2.02865 0
M  V30 545 H 54.2526 2.96646 2.93923 0
M  V30 546 N 54.6897 -0.239769 1.55765 0
M  V30 547 C 55.9147 -0.988373 1.82335 0
M  V30 548 C 56.3397 -1.77886 0.611421 0
M  V30 549 O 55.6977 -1.75889 -0.439639 0
M  V30 550 C 55.7457 -1.89627 3.06715 0
M  V30 551 O 54.8497 -2.98904 2.84131 0
M  V30 552 H 54.1907 -0.280858 0.601677 0
M  V30 553 H 56.7207 -0.258597 2.02959 0
M  V30 554 H 56.7307 -2.30957 3.36338 0
M  V30 555 H 55.4057 -1.31511 3.9456 0
M  V30 556 H 53.9827 -2.61651 2.65694 0
M  V30 557 N 56.1678 -1.49265 -0.50573 0
M  V30 558 C 57.4138 -1.58748 -1.26202 0
M  V30 559 C 57.7468 -0.271227 -1.92297 0
M  V30 560 O 57.0218 0.724831 -1.80489 0
M  V30 561 C 57.3048 -2.74332 -2.33268 0
M  V30 562 C 57.1578 -4.15737 -1.71705 0
M  V30 563 C 58.4768 -2.85576 -3.34865 0
M  V30 564 H 55.5958 -0.577826 -0.457478 0
M  V30 565 H 58.2378 -1.81532 -0.560897 0
M  V30 566 H 56.3878 -2.55036 -2.93068 0
M  V30 567 H 58.0598 -4.46537 -1.15769 0
M  V30 568 H 56.3028 -4.21605 -1.02135 0
M  V30 569 H 56.9738 -4.92477 -2.49341 0
M  V30 570 H 59.4498 -3.03127 -2.8505 0
M  V30 571 H 58.3258 -3.68135 -4.07146 0
M  V30 572 H 58.5868 -1.94732 -3.96903 0
M  V30 573 N 57.6459 0.756429 -1.3826 0
M  V30 574 C 58.8759 1.54341 -1.3734 0
M  V30 575 C 59.2839 1.89159 0.0393917 0
M  V30 576 O 58.6269 1.5307 1.01565 0
M  V30 577 C 58.6889 2.87238 -2.16182 0
M  V30 578 C 58.3529 2.74973 -3.65019 0
M  V30 579 C 59.3499 2.44962 -4.58574 0
M  V30 580 C 57.0349 2.92515 -4.08338 0
M  V30 581 C 59.0289 2.32642 -5.93428 0
M  V30 582 C 56.7159 2.79815 -5.43274 0
M  V30 583 C 57.7139 2.49921 -6.35632 0
M  V30 584 O 57.4019 2.37275 -7.68086 0
M  V30 585 H 57.1339 0.484281 -0.471643 0
M  V30 586 H 59.6879 0.944152 -1.82414 0
M  V30 587 H 57.9179 3.49342 -1.65822 0
M  V30 588 H 59.6069 3.48731 -2.07705 0
M  V30 589 H 60.3729 2.31081 -4.26412 0
M  V30 590 H 56.2519 3.14781 -3.368 0
M  V30 591 H 59.7959 2.0923 -6.65484 0
M  V30 592 H 55.6929 2.93269 -5.75034 0
M  V30 593 H 56.4609 2.52509 -7.78577 0
M  V30 594 N 59.124 1.23083 0.984299 0
M  V30 595 C 60.056 0.96636 2.07832 0
M  V30 596 C 61.069 -0.0582135 1.62696 0
M  V30 597 O 62.258 0.176843 1.77622 0
M  V30 598 C 59.358 0.433397 3.36117 0
M  V30 599 C 58.531 1.51722 4.10243 0
M  V30 600 C 57.59 0.989821 5.16807 0
M  V30 601 O 56.616 1.67794 5.43906 0
M  V30 602 N 57.818 -0.184367 5.80207 0
M  V30 603 H 60.583 1.90824 2.31098 0
M  V30 604 H 58.144 1.13888 1.1507 0
M  V30 605 H 60.136 0.065699 4.04647 0
M  V30 606 H 58.706 -0.413806 3.09849 0
M  V30 607 H 57.926 2.05786 3.36223 0
M  V30 608 H 59.214 2.24619 4.56534 0
M  V30 609 H 58.612 -0.760062 5.60571 0
M  V30 610 H 57.169 -0.493366 6.4993 0
M  V30 611 N 60.6021 -1.18246 1.0419 0
M  V30 612 C 61.8501 -1.87886 0.744543 0
M  V30 613 C 62.1711 -1.8082 -0.730006 0
M  V30 614 O 61.4411 -1.22736 -1.52685 0
M  V30 615 H 60.0211 -0.695556 0.272417 0
M  V30 616 H 62.6831 -1.43494 1.31892 0
M  V30 617 H 61.7791 -2.9389 1.05049 0
M  V30 618 N 62.0802 -0.821533 -1.34494 0
M  V30 619 C 63.3262 -0.409552 -1.98622 0
M  V30 620 C 63.6592 1.0244 -1.64984 0
M  V30 621 O 62.9342 1.71325 -0.920758 0
M  V30 622 C 63.2172 -0.610458 -3.54888 0
M  V30 623 C 63.0702 -2.09043 -3.98273 0
M  V30 624 C 64.3892 -0.0455379 -4.40076 0
M  V30 625 H 61.5082 -0.15028 -0.721516 0
M  V30 626 H 64.1502 -1.03384 -1.59411 0
M  V30 627 H 62.3002 -0.079044 -3.8842 0
M  V30 628 H 63.9722 -2.68537 -3.75081 0
M  V30 629 H 62.2152 -2.58139 -3.48635 0
M  V30 630 H 62.8862 -2.18182 -5.07051 0
M  V30 631 H 65.3622 -0.499557 -4.1309 0
M  V30 632 H 64.2382 -0.215922 -5.48475 0
M  V30 633 H 64.4992 1.04939 -4.29465 0
M  V30 634 N 63.5583 1.46682 -0.576371 0
M  V30 635 C 64.4883 2.33028 0.148397 0
M  V30 636 C 65.4693 1.44961 0.889956 0
M  V30 637 O 66.6543 1.73789 0.866662 0
M  V30 638 C 63.7843 3.27117 1.1667 0
M  V30 639 C 62.7383 4.24575 0.540386 0
M  V30 640 C 62.0643 5.08126 1.6647 0
M  V30 641 C 63.3643 5.19722 -0.518331 0
M  V30 642 H 65.0583 2.93875 -0.572509 0
M  V30 643 H 62.6043 1.41315 -0.276768 0
M  V30 644 H 64.5573 3.86374 1.68204 0
M  V30 645 H 63.2813 2.64364 1.9178 0
M  V30 646 H 61.9403 3.66571 0.0461769 0
M  V30 647 H 61.5883 4.41762 2.40531 0
M  V30 648 H 61.2883 5.74122 1.25131 0
M  V30 649 H 62.8123 5.70246 2.18293 0
M  V30 650 H 64.2263 5.73232 -0.0883058 0
M  V30 651 H 62.6233 5.94026 -0.851679 0
M  V30 652 H 63.6933 4.64037 -1.40703 0
M  V30 653 N 65.0364 0.313813 1.54444 0
M  V30 654 C 66.2614 -0.296681 2.05267 0
M  V30 655 C 66.6864 -1.45757 1.18897 0
M  V30 656 O 66.0444 -1.80239 0.195886 0
M  V30 657 C 66.0924 -0.71831 3.53373 0
M  V30 658 O 65.1964 -1.82175 3.69981 0
M  V30 659 H 64.5374 -0.0554061 0.661684 0
M  V30 660 H 67.0674 0.459387 1.99376 0
M  V30 661 H 67.0774 -1.00364 3.95463 0
M  V30 662 H 65.7524 0.130821 4.15694 0
M  V30 663 H 64.3294 -1.53598 3.39797 0
M  V30 664 N 66.5145 -1.57545 0.0417849 0
M  V30 665 C 67.4245 -2.14451 -0.951213 0
M  V30 666 C 68.4405 -1.09992 -1.34825 0
M  V30 667 O 69.6165 -1.42114 -1.42708 0
M  V30 668 C 66.6815 -2.67063 -2.21084 0
M  V30 669 C 65.7425 -3.86284 -1.87304 0
M  V30 670 C 64.9755 -4.36378 -3.07261 0
M  V30 671 O 65.1985 -3.85587 -4.20332 0
M  V30 672 O 64.1325 -5.28077 -2.88822 0
M  V30 673 H 67.9585 -2.99601 -0.497287 0
M  V30 674 H 65.5435 -1.48317 -0.179567 0
M  V30 675 H 67.4255 -3.00914 -2.95006 0
M  V30 676 H 66.1005 -1.84989 -2.65633 0
M  V30 677 H 65.0075 -3.57338 -1.10727 0
M  V30 678 H 66.3405 -4.6956 -1.47562 0
M  V30 679 N 67.9926 0.231505 -1.5589 0
M  V30 680 C 69.2696 0.981096 -1.69215 0
M  V30 681 C 69.6496 2.02799 -0.586164 0
M  V30 682 O 68.9976 2.24823 0.408253 0
M  V30 683 C 69.2076 1.60054 -3.10135 0
M  V30 684 C 70.5556 2.09658 -3.69227 0
M  V30 685 O 71.5796 1.69967 -3.13033 0
M  V30 686 O 70.4386 2.8258 -4.67772 0
M  V30 687 H 67.5326 0.457653 -0.688827 0
M  V30 688 H 70.0786 0.224073 -1.68214 0
M  V30 689 H 68.8506 0.844105 -3.82087 0
M  V30 690 H 68.4736 2.42336 -3.15212 0
M  V30 691 N 69.4707 1.49531 0.497807 0
M  V30 692 C 70.3807 1.69176 1.62532 0
M  V30 693 C 71.3967 0.5744 1.64246 0
M  V30 694 O 72.5727 0.849497 1.82608 0
M  V30 695 C 69.6377 1.75695 2.98885 0
M  V30 696 C 68.6987 2.9929 3.07773 0
M  V30 697 C 67.9317 3.05488 4.37622 0
M  V30 698 O 68.1547 2.19192 5.26603 0
M  V30 699 O 67.0887 3.9798 4.51548 0
M  V30 700 H 70.9147 2.647 1.48887 0
M  V30 701 H 68.4997 1.3331 0.674441 0
M  V30 702 H 70.3817 1.82317 3.79919 0
M  V30 703 H 69.0567 0.8335 3.12785 0
M  V30 704 H 67.9637 2.98183 2.25915 0
M  V30 705 H 69.2967 3.91125 2.98801 0
M  V30 706 N 70.9488 -0.749086 1.3866 0
M  V30 707 C 72.2258 -1.4992 1.25632 0
M  V30 708 C 72.6058 -2.10633 -0.140317 0
M  V30 709 O 71.9538 -1.97437 -1.15025 0
M  V30 710 C 72.1638 -2.56195 2.36992 0
M  V30 711 C 73.5118 -3.22972 2.75634 0
M  V30 712 O 74.5358 -2.66502 2.36337 0
M  V30 713 O 73.3948 -4.25122 3.43415 0
M  V30 714 H 70.4888 -0.665067 0.491544 0
M  V30 715 H 73.0348 -0.784113 1.50498 0
M  V30 716 H 71.8068 -2.09612 3.30422 0
M  V30 717 H 71.4298 -3.35279 2.13714 0
M  V30 718 N 72.4269 -1.23603 -0.977757 0
M  V30 719 C 73.6759 -1.06377 -1.71368 0
M  V30 720 C 73.9889 0.399062 -1.91486 0
M  V30 721 O 75.1949 0.691312 -2.62551 0
M  V30 722 C 73.6509 -1.85512 -3.08404 0
M  V30 723 C 73.2589 -3.36141 -2.96164 0
M  V30 724 C 75.0029 -1.76783 -3.85938 0
M  V30 725 C 72.9099 -4.07659 -4.28449 0
M  V30 726 H 71.8399 -0.394452 -0.642591 0
M  V30 727 H 74.4909 -1.47594 -1.09034 0
M  V30 728 H 72.8729 -1.37103 -3.71509 0
M  V30 729 H 74.0469 -3.92056 -2.42133 0
M  V30 730 H 72.3619 -3.45712 -2.32104 0
M  V30 731 H 74.9589 -2.27526 -4.83876 0
M  V30 732 H 75.3019 -0.731116 -4.0983 0
M  V30 733 H 75.8349 -2.22818 -3.2954 0
M  V30 734 H 72.5739 -5.11648 -4.09752 0
M  V30 735 H 72.0939 -3.5653 -4.82334 0
M  V30 736 H 73.7729 -4.141 -4.97122 0
M  V30 737 N 73.905 1.17692 -1.04816 0
M  V30 738 C 75.154 1.87192 -0.751132 0
M  V30 739 C 75.467 1.8169 0.724441 0
M  V30 740 O 76.673 2.46625 1.13527 0
M  V30 741 C 75.129 3.35857 -1.29338 0
M  V30 742 C 74.737 3.4987 -2.79812 0
M  V30 743 C 76.481 4.10709 -1.07322 0
M  V30 744 C 74.388 4.92536 -3.27356 0
M  V30 745 H 73.318 0.701162 -0.277288 0
M  V30 746 H 75.969 1.32932 -1.26496 0
M  V30 747 H 74.351 3.89631 -0.707376 0
M  V30 748 H 75.525 3.06332 -3.44235 0
M  V30 749 H 73.84 2.88433 -3.00325 0
M  V30 750 H 76.437 5.15952 -1.4035 0
M  V30 751 H 76.78 4.16299 -0.0108001 0
M  V30 752 H 77.313 3.6313 -1.62423 0
M  V30 753 H 74.052 4.92119 -4.33012 0
M  V30 754 H 73.572 5.3676 -2.67673 0
M  V30 755 H 75.251 5.61288 -3.21815 0
M  V30 756 N 75.3831 0.828654 1.34056 0
M  V30 757 C 76.3131 0.269443 2.3194 0
M  V30 758 C 77.2941 -0.617247 1.58506 0
M  V30 759 O 78.4791 -0.542931 1.86456 0
M  V30 760 C 75.6091 -0.564793 3.42677 0
M  V30 761 C 74.5631 0.225241 4.27407 0
M  V30 762 C 73.8891 -0.7321 5.29664 0
M  V30 763 C 75.1891 1.43663 5.02154 0
M  V30 764 H 76.8831 1.08728 2.7896 0
M  V30 765 H 74.4291 0.524283 1.34117 0
M  V30 766 H 76.3821 -0.966233 4.10173 0
M  V30 767 H 75.1061 -1.41574 2.9432 0
M  V30 768 H 73.7651 0.608117 3.61521 0
M  V30 769 H 73.4131 -1.57916 4.77568 0
M  V30 770 H 73.1131 -0.20767 5.87233 0
M  V30 771 H 74.6371 -1.13128 6.00029 0
M  V30 772 H 76.0511 1.1089 5.62473 0
M  V30 773 H 74.4481 1.89711 5.69324 0
M  V30 774 H 75.5181 2.21181 4.31517 0
M  V30 775 N 76.8612 -1.46375 0.584142 0
M  V30 776 C 77.8112 -2.27371 -0.169232 0
M  V30 777 C 78.7952 -1.35955 -0.860523 0
M  V30 778 O 79.9872 -1.60119 -0.754382 0
M  V30 779 C 77.1162 -3.22334 -1.18134 0
M  V30 780 C 76.2022 -4.21235 -0.492088 0
M  V30 781 N 76.5932 -5.03766 0.453129 0
M  V30 782 C 74.8912 -4.39773 -0.742652 0
M  V30 783 C 75.5922 -5.75366 0.85609 0
M  V30 784 N 74.5682 -5.43214 0.204926 0
M  V30 785 H 78.3702 -2.88572 0.557097 0
M  V30 786 H 75.8842 -1.57242 0.406042 0
M  V30 787 H 77.8812 -3.79071 -1.73525 0
M  V30 788 H 76.5412 -2.62693 -1.90847 0
M  V30 789 H 77.5522 -5.11227 0.828723 0
M  V30 790 H 74.2292 -3.91279 -1.45625 0
M  V30 791 H 75.6192 -6.5172 1.63434 0
M  V30 792 N 78.3393 -0.321999 -1.54275 0
M  V30 793 C 79.5853 0.281461 -2.00837 0
M  V30 794 C 79.9183 1.51909 -1.20985 0
M  V30 795 O 79.1933 1.923 -0.291733 0
M  V30 796 C 79.4763 0.617162 -3.54772 0
M  V30 797 C 79.3293 -0.631064 -4.45351 0
M  V30 798 C 80.6483 1.43542 -4.16033 0
M  V30 799 H 77.7673 0.100826 -0.730071 0
M  V30 800 H 80.4093 -0.438268 -1.84876 0
M  V30 801 H 78.5593 1.23034 -3.68504 0
M  V30 802 H 80.2313 -1.26934 -4.43492 0
M  V30 803 H 78.4743 -1.26025 -4.15091 0
M  V30 804 H 79.1453 -0.351735 -5.50878 0
M  V30 805 H 81.6213 0.917134 -4.05867 0
M  V30 806 H 80.4973 1.63907 -5.23856 0
M  V30 807 H 80.7583 2.43108 -3.69257 0
M  V30 808 N 79.8174 1.5752 -0.0501392 0
M  V30 809 C 80.7674 2.07981 0.934231 0
M  V30 810 C 81.7514 0.984745 1.27246 0
M  V30 811 O 82.9434 1.24809 1.25506 0
M  V30 812 C 80.0724 2.62751 2.20945 0
M  V30 813 C 79.1584 3.79225 1.89865 0
M  V30 814 N 79.5494 4.89036 1.29142 0
M  V30 815 C 77.8474 3.88111 2.19741 0
M  V30 816 C 78.5484 5.70084 1.15669 0
M  V30 817 N 77.5244 5.17659 1.65923 0
M  V30 818 H 81.3264 2.90277 0.460053 0
M  V30 819 H 78.8404 1.61665 0.15434 0
M  V30 820 H 80.8374 2.97205 2.9236 0
M  V30 821 H 79.4974 1.81894 2.6897 0
M  V30 822 H 80.5084 5.08854 0.963756 0
M  V30 823 H 77.1854 3.18194 2.70293 0
M  V30 824 H 78.5754 6.68395 0.685356 0
M  V30 825 N 81.2955 -0.223234 1.56011 0
M  V30 826 C 82.7115 -0.572856 1.48965 0
M  V30 827 C 82.9115 -1.87225 0.74492 0
M  V30 828 O 81.9675 -2.50899 0.283896 0
M  V30 829 C 83.2805 -0.653646 2.9351 0
M  V30 830 C 84.8285 -0.744386 3.0402 0
M  V30 831 C 85.3035 -0.856535 4.49919 0
M  V30 832 N 86.7945 -0.9208 4.53955 0
M  V30 833 C 87.5295 -1.02726 5.64123 0
M  V30 834 N 87.0255 -1.09777 6.84047 0
M  V30 835 N 88.8185 -1.06226 5.51971 0
M  V30 836 H 80.9695 0.629462 2.02858 0
M  V30 837 H 83.2325 0.220621 0.921971 0
M  V30 838 H 82.9385 0.231518 3.50937 0
M  V30 839 H 82.8125 -1.51781 3.45315 0
M  V30 840 H 85.1995 -1.61999 2.46658 0
M  V30 841 H 85.2805 0.14541 2.55386 0
M  V30 842 H 84.9245 0.0146069 5.07898 0
M  V30 843 H 84.8545 -1.76172 4.96257 0
M  V30 844 H 87.3455 -0.876694 3.6759 0
M  V30 845 H 87.6585 -1.17872 7.63758 0
M  V30 846 H 86.0035 -1.06693 6.86762 0
M  V30 847 H 89.1945 -1.00382 4.5721 0
M  V30 848 H 89.3675 -1.14177 6.37862 0
M  V30 849 N 82.7736 -1.49793 -0.48987 0
M  V30 850 C 84.0036 -1.6333 -1.26518 0
M  V30 851 C 84.4116 -0.308392 -1.8667 0
M  V30 852 O 83.7546 0.717512 -1.69108 0
M  V30 853 C 83.8166 -2.6522 -2.4269 0
M  V30 854 C 83.4806 -4.09279 -2.03321 0
M  V30 855 C 84.4776 -4.95738 -1.56652 0
M  V30 856 C 82.1626 -4.55082 -2.12616 0
M  V30 857 C 84.1566 -6.26041 -1.19795 0
M  V30 858 C 81.8436 -5.85396 -1.75371 0
M  V30 859 C 82.8416 -6.707 -1.29036 0
M  V30 860 O 82.5296 -7.98584 -0.92299 0
M  V30 861 H 82.2616 -0.552502 -0.389509 0
M  V30 862 H 84.8156 -1.96642 -0.593381 0
M  V30 863 H 83.0456 -2.27112 -3.12981 0
M  V30 864 H 84.7346 -2.68171 -3.04695 0
M  V30 865 H 85.5006 -4.61575 -1.48908 0
M  V30 866 H 81.3796 -3.88844 -2.47631 0
M  V30 867 H 84.9236 -6.92578 -0.835582 0
M  V30 868 H 80.8206 -6.19085 -1.82768 0
M  V30 869 H 81.5886 -8.11692 -1.05349 0
M  V30 870 N 84.2517 0.741722 -1.39055 0
M  V30 871 C 85.1997 1.87702 -1.3737 0
M  V30 872 C 86.1937 1.67427 -0.257812 0
M  V30 873 O 87.3997 1.7485 -0.427489 0
M  V30 874 H 83.7747 0.617757 -0.428812 0
M  V30 875 H 85.7457 1.86239 -2.33147 0
M  V30 876 C 84.4947 3.25315 -1.22741 0
M  V30 877 H 83.8177 3.41509 -2.07873 0
M  V30 878 H 85.2577 4.04964 -1.25618 0
M  V30 879 C 83.7167 3.36838 0.0647316 0
M  V30 880 O 84.2467 3.88073 1.03741 0
M  V30 881 N 82.4527 2.90329 0.125544 0
M  V30 882 H 81.9997 2.48823 -0.666682 0
M  V30 883 H 81.9577 2.98418 0.989639 0
M  V30 884 N 85.7298 1.2412 0.971189 0
M  V30 885 C 86.9598 1.10415 1.7462 0
M  V30 886 C 87.3678 -0.346462 1.86001 0
M  V30 887 O 86.7108 -1.25104 1.34517 0
M  V30 888 C 86.7728 1.66596 3.18568 0
M  V30 889 C 86.4368 3.15446 3.3067 0
M  V30 890 C 87.4338 4.12636 3.16271 0
M  V30 891 C 85.1188 3.55337 3.55022 0
M  V30 892 C 87.1128 5.47699 3.26044 0
M  V30 893 C 84.7998 4.90542 3.64434 0
M  V30 894 C 85.7978 5.86532 3.49956 0
M  V30 895 O 85.4858 7.19279 3.59017 0
M  V30 896 H 85.2178 0.386616 0.55453 0
M  V30 897 H 87.7718 1.64633 1.22821 0
M  V30 898 H 86.0018 1.06808 3.71657 0
M  V30 899 H 87.6908 1.48232 3.77865 0
M  V30 900 H 88.4568 3.8316 2.97344 0
M  V30 901 H 84.3358 2.8113 3.65359 0
M  V30 902 H 87.8798 6.22603 3.14661 0
M  V30 903 H 83.7768 5.19691 3.82873 0
M  V30 904 H 84.5448 7.27153 3.75754 0
M  V30 905 N 87.2079 -1.17134 1.05439 0
M  V30 906 C 88.1179 -2.24878 0.668365 0
M  V30 907 C 89.1339 -1.71186 -0.311687 0
M  V30 908 O 90.3099 -2.00738 -0.163161 0
M  V30 909 C 87.3749 -3.46662 0.051648 0
M  V30 910 C 86.4359 -4.15429 1.08246 0
M  V30 911 C 85.6689 -5.31399 0.495082 0
M  V30 912 O 85.8919 -5.66153 -0.694743 0
M  V30 913 O 84.8259 -5.89187 1.23056 0
M  V30 914 H 88.6519 -2.60189 1.56637 0
M  V30 915 H 86.2369 -1.24482 0.826104 0
M  V30 916 H 88.1189 -4.20394 -0.290966 0
M  V30 917 H 86.7939 -3.13142 -0.819971 0
M  V30 918 H 85.7009 -3.43704 1.47711 0
M  V30 919 H 87.0339 -4.52982 1.92532 0
M  V30 920 N 88.686 -0.835752 -1.33615 0
M  V30 921 C 89.935 -0.426289 -1.97144 0
M  V30 922 C 90.248 1.01912 -1.66953 0
M  V30 923 O 91.454 1.53311 -2.24072 0
M  V30 924 C 89.91 -0.711321 -3.52801 0
M  V30 925 C 89.518 -2.1712 -3.91871 0
M  V30 926 C 91.262 -0.368654 -4.22896 0
M  V30 927 C 89.169 -2.40044 -5.40493 0
M  V30 928 H 88.099 -0.15567 -0.737755 0
M  V30 929 H 90.75 -1.0239 -1.52278 0
M  V30 930 H 89.132 -0.0433766 -3.95976 0
M  V30 931 H 90.306 -2.87936 -3.59763 0
M  V30 932 H 88.621 -2.47654 -3.34749 0
M  V30 933 H 91.218 -0.517601 -5.32189 0
M  V30 934 H 91.561 0.688078 -4.10574 0
M  V30 935 H 92.094 -0.991702 -3.8524 0
M  V30 936 H 88.833 -3.44271 -5.57815 0
M  V30 937 H 88.353 -1.73785 -5.74072 0
M  V30 938 H 90.032 -2.23042 -6.0734 0
M  V30 939 N 90.1641 1.46063 -0.591896 0
M  V30 940 C 91.5751 1.85944 -0.167822 0
M  V30 941 C 91.9261 1.49429 1.27143 0
M  V30 942 O 91.0511 0.913515 1.96173 0
M  V30 943 C 91.6461 3.37489 -0.297794 0
M  V30 944 C 90.2051 3.76332 0.0714732 0
M  V30 945 C 89.3521 2.7006 -0.629509 0
M  V30 946 H 92.3031 1.37087 -0.799555 0
M  V30 947 H 92.3241 3.77532 0.474349 0
M  V30 948 H 91.8361 3.64034 -1.3454 0
M  V30 949 H 89.9371 3.55405 1.11886 0
M  V30 950 H 90.0501 4.78088 -0.311245 0
M  V30 951 H 88.4141 2.54607 -0.0687867 0
M  V30 952 H 89.1971 2.99444 -1.67894 0
M  V30 953 N 91.6422 0.330177 1.54103 0
M  V30 954 C 92.8672 -0.274893 2.0557 0
M  V30 955 C 93.2922 -1.44487 1.20437 0
M  V30 956 O 92.6502 -1.80021 0.214991 0
M  V30 957 C 92.6982 -0.68079 3.54115 0
M  V30 958 O 91.8022 -1.7824 3.71893 0
M  V30 959 H 91.1432 -0.0483849 0.662235 0
M  V30 960 H 93.6732 0.480508 1.98878 0
M  V30 961 H 93.6832 -0.961635 3.96505 0
M  V30 962 H 92.3582 0.174903 4.15532 0
M  V30 963 H 90.9352 -1.49985 3.41407 0
M  V30 964 N 93.1203 -1.57491 0.0584922 0
M  V30 965 C 94.3663 -1.93264 -0.614558 0
M  V30 966 C 94.6993 -0.937717 -1.7006 0
M  V30 967 O 93.9743 0.0351652 -1.94468 0
M  V30 968 C 94.2573 -3.3938 -1.20386 0
M  V30 969 C 94.1103 -4.49625 -0.125375 0
M  V30 970 C 95.4293 -3.86039 -2.11334 0
M  V30 971 H 92.5483 -0.702791 -0.221933 0
M  V30 972 H 95.1903 -1.8961 0.12175 0
M  V30 973 H 93.3403 -3.42626 -1.83139 0
M  V30 974 H 95.0123 -4.58506 0.506971 0
M  V30 975 H 93.2553 -4.30354 0.545672 0
M  V30 976 H 93.9263 -5.48967 -0.577861 0
M  V30 977 H 96.4023 -3.84716 -1.58534 0
M  V30 978 H 95.2783 -4.88914 -2.49507 0
M  V30 979 H 95.5393 -3.23215 -3.01636 0
M  V30 980 N 94.5984 0.214957 -1.56127 0
M  V30 981 C 95.5284 1.2695 -1.95974 0
M  V30 982 C 96.5094 1.48539 -0.828868 0
M  V30 983 O 97.6944 1.60611 -1.09168 0
M  V30 984 C 94.8244 2.61794 -2.28214 0
M  V30 985 C 93.7784 2.54851 -3.43853 0
M  V30 986 C 93.1044 3.93785 -3.61715 0
M  V30 987 C 94.4044 2.09065 -4.78632 0
M  V30 988 H 96.0984 0.93846 -2.84312 0
M  V30 989 H 93.6444 0.449996 -1.36788 0
M  V30 990 H 95.5974 3.35731 -2.54682 0
M  V30 991 H 94.3214 2.96599 -1.36736 0
M  V30 992 H 92.9804 1.8337 -3.17444 0
M  V30 993 H 92.6284 4.25908 -2.67602 0
M  V30 994 H 92.3284 3.90019 -4.39498 0
M  V30 995 H 93.8524 4.69374 -3.90539 0
M  V30 996 H 95.2664 2.7275 -5.04262 0
M  V30 997 H 93.6634 2.16346 -5.59745 0
M  V30 998 H 94.7334 1.04315 -4.73547 0
M  V30 999 N 96.0765 1.50051 0.48192 0
M  V30 1000 C 97.0245 1.68635 1.60203 0
M  V30 1001 C 98.0185 0.552184 1.60148 0
M  V30 1002 O 99.2245 0.732377 1.64427 0
M  V30 1003 H 95.5995 0.532081 0.531407 0
M  V30 1004 H 97.5705 2.62616 1.41688 0
M  V30 1005 C 96.3195 1.78775 2.9822 0
M  V30 1006 H 95.6425 2.6543 2.98976 0
M  V30 1007 H 97.0825 1.95806 3.7608 0
M  V30 1008 C 95.5415 0.536849 3.32595 0
M  V30 1009 O 96.0715 -0.328897 4.00351 0
M  V30 1010 N 94.2775 0.394091 2.87915 0
M  V30 1011 H 93.8245 1.09962 2.32951 0
M  V30 1012 H 93.7825 -0.441737 3.11281 0
M  V30 1013 N 97.5546 -0.734337 1.39446 0
M  V30 1014 C 98.8036 -1.48937 1.36017 0
M  V30 1015 C 99.1166 -1.95557 -0.0409005 0
M  V30 1016 O 100.323 -2.70779 -0.19778 0
M  V30 1017 C 98.7786 -2.69125 2.38955 0
M  V30 1018 C 98.3866 -2.29452 3.8478 0
M  V30 1019 C 100.131 -3.46944 2.44603 0
M  V30 1020 C 98.0376 -3.46366 4.79358 0
M  V30 1021 H 96.9676 -0.559296 0.505672 0
M  V30 1022 H 99.6186 -0.800983 1.65095 0
M  V30 1023 H 98.0006 -3.40041 2.02948 0
M  V30 1024 H 99.1746 -1.66077 4.29831 0
M  V30 1025 H 97.4896 -1.64723 3.82433 0
M  V30 1026 H 100.087 -4.33907 3.12456 0
M  V30 1027 H 100.43 -3.89454 1.47076 0
M  V30 1028 H 100.963 -2.83056 2.79507 0
M  V30 1029 H 97.7016 -3.08905 5.78151 0
M  V30 1030 H 97.2216 -4.08719 4.38986 0
M  V30 1031 H 98.9006 -4.12691 4.98292 0
M  V30 1032 N 99.0327 -1.24633 -0.964593 0
M  V30 1033 C 99.9427 -1.05859 -2.09359 0
M  V30 1034 C 100.959 0.00148855 -1.74 0
M  V30 1035 O 102.135 -0.197346 -2.00431 0
M  V30 1036 C 99.1997 -0.668879 -3.40187 0
M  V30 1037 C 98.2607 -1.80578 -3.89474 0
M  V30 1038 C 97.4937 -1.43457 -5.14058 0
M  V30 1039 O 97.7167 -0.325775 -5.69469 0
M  V30 1040 O 96.6507 -2.2613 -5.57807 0
M  V30 1041 H 100.477 -2.00516 -2.28094 0
M  V30 1042 H 98.0617 -1.03481 -1.0776 0
M  V30 1043 H 99.9437 -0.463211 -4.18846 0
M  V30 1044 H 98.6187 0.248536 -3.22744 0
M  V30 1045 H 97.5257 -2.06623 -3.11862 0
M  V30 1046 H 98.8587 -2.70208 -4.11398 0
M  V30 1047 N 100.511 1.16574 -1.06058 0
M  V30 1048 C 101.443 2.2045 -0.627239 0
M  V30 1049 C 102.456 1.59752 0.313534 0
M  V30 1050 O 103.645 1.78192 0.104896 0
M  V30 1051 C 100.745 3.3875 0.100974 0
M  V30 1052 C 99.9178 4.29008 -0.852687 0
M  V30 1053 C 98.9768 5.25944 -0.164152 0
M  V30 1054 O 98.0028 5.63535 -0.801047 0
M  V30 1055 N 99.2048 5.70075 1.09518 0
M  V30 1056 H 101.97 2.58249 -1.52077 0
M  V30 1057 H 99.5308 1.3156 -0.943594 0
M  V30 1058 H 101.523 4.00638 0.57194 0
M  V30 1059 H 100.093 2.99476 0.89628 0
M  V30 1060 H 99.3128 3.64419 -1.50308 0
M  V30 1061 H 100.601 4.86195 -1.49972 0
M  V30 1062 H 99.9988 5.41624 1.6328 0
M  V30 1063 H 98.5558 6.34067 1.51006 0
M  V30 1064 N 101.989 0.842826 1.3317 0
M  V30 1065 C 103.266 0.362216 1.92217 0
M  V30 1066 C 103.646 -1.15289 1.76838 0
M  V30 1067 O 102.994 -1.96914 1.15919 0
M  V30 1068 C 103.204 0.813495 3.39387 0
M  V30 1069 C 104.552 0.823804 4.16532 0
M  V30 1070 O 105.576 0.757358 3.48055 0
M  V30 1071 O 104.435 0.915193 5.38782 0
M  V30 1072 H 101.529 0.103317 0.820521 0
M  V30 1073 H 104.075 0.928942 1.42017 0
M  V30 1074 H 102.847 1.85624 3.4447 0
M  V30 1075 H 102.47 0.223561 3.96971 0
M  V30 1076 N 103.467 -1.45747 0.599634 0
M  V30 1077 C 104.697 -2.06369 0.0977132 0
M  V30 1078 C 105.105 -1.44624 -1.21985 0
M  V30 1079 O 104.448 -0.551831 -1.75216 0
M  V30 1080 C 104.51 -3.59284 -0.124673 0
M  V30 1081 C 104.174 -4.43318 1.10987 0
M  V30 1082 C 105.171 -4.78796 2.02609 0
M  V30 1083 C 102.856 -4.84194 1.33647 0
M  V30 1084 C 104.85 -5.53997 3.15224 0
M  V30 1085 C 102.537 -5.5915 2.46565 0
M  V30 1086 C 103.535 -5.93968 3.37182 0
M  V30 1087 O 103.223 -6.67405 4.48136 0
M  V30 1088 H 102.955 -0.673122 0.0623153 0
M  V30 1089 H 105.509 -1.88104 0.824981 0
M  V30 1090 H 103.739 -3.75919 -0.906745 0
M  V30 1091 H 105.428 -4.01775 -0.577201 0
M  V30 1092 H 106.194 -4.47781 1.86325 0
M  V30 1093 H 102.073 -4.56534 0.64016 0
M  V30 1094 H 105.617 -5.81091 3.85978 0
M  V30 1095 H 101.514 -5.89579 2.62805 0
M  V30 1096 H 102.282 -6.85847 4.46717 0
M  V30 1097 N 104.945 -0.338344 -1.53925 0
M  V30 1098 C 105.877 0.555117 -2.22376 0
M  V30 1099 C 106.89 1.06812 -1.22862 0
M  V30 1100 O 108.079 0.979163 -1.49247 0
M  V30 1101 C 105.179 1.77609 -2.88631 0
M  V30 1102 C 104.352 1.39927 -4.14414 0
M  V30 1103 C 103.411 2.47936 -4.64127 0
M  V30 1104 O 102.437 2.11461 -5.28463 0
M  V30 1105 N 103.639 3.79107 -4.39612 0
M  V30 1106 H 106.404 -0.0310778 -2.99684 0
M  V30 1107 H 103.965 -0.162226 -1.61085 0
M  V30 1108 H 105.957 2.49287 -3.18807 0
M  V30 1109 H 104.527 2.26978 -2.14941 0
M  V30 1110 H 103.747 0.513481 -3.90841 0
M  V30 1111 H 105.035 1.12341 -4.96243 0
M  V30 1112 H 104.433 4.11531 -3.88148 0
M  V30 1113 H 102.99 4.4697 -4.74406 0
M  V30 1114 N 106.423 1.57458 -0.0668435 0
M  V30 1115 C 107.353 2.15468 0.899764 0
M  V30 1116 C 108.334 1.08042 1.31381 0
M  V30 1117 O 109.519 1.36054 1.38574 0
M  V30 1118 C 106.649 2.71232 2.16911 0
M  V30 1119 C 105.603 3.83781 1.89463 0
M  V30 1120 C 104.929 4.26127 3.22986 0
M  V30 1121 C 106.229 5.08238 1.20381 0
M  V30 1122 H 107.923 2.96488 0.416529 0
M  V30 1123 H 105.469 1.4262 0.198908 0
M  V30 1124 H 107.422 3.10458 2.84945 0
M  V30 1125 H 106.146 1.87426 2.67468 0
M  V30 1126 H 104.805 3.45051 1.23836 0
M  V30 1127 H 104.453 3.39249 3.71374 0
M  V30 1128 H 104.153 5.01993 3.05413 0
M  V30 1129 H 105.677 4.67966 3.92225 0
M  V30 1130 H 107.091 5.44811 1.78475 0
M  V30 1131 H 105.488 5.89349 1.13083 0
M  V30 1132 H 106.558 4.84558 0.182153 0
M  V30 1133 N 107.901 -0.206675 1.56239 0
M  V30 1134 C 109.147 -0.930218 1.80208 0
M  V30 1135 C 109.48 -1.83387 0.638981 0
M  V30 1136 O 108.755 -1.91119 -0.361066 0
M  V30 1137 C 109.038 -1.75641 3.1436 0
M  V30 1138 C 108.891 -0.878257 4.41142 0
M  V30 1139 C 110.21 -2.73129 3.45092 0
M  V30 1140 H 107.329 -0.336742 0.655571 0
M  V30 1141 H 109.971 -0.198222 1.88963 0
M  V30 1142 H 108.121 -2.38048 3.07027 0
M  V30 1143 H 109.793 -0.269787 4.6051 0
M  V30 1144 H 108.036 -0.184385 4.33408 0
M  V30 1145 H 108.707 -1.49106 5.3148 0
M  V30 1146 H 111.183 -2.20856 3.52649 0
M  V30 1147 H 110.059 -3.28028 4.40101 0
M  V30 1148 H 110.32 -3.51606 2.68003 0
M  V30 1149 N 109.379 -1.50304 -0.473955 0
M  V30 1150 C 110.628 -1.60392 -1.22301 0
M  V30 1151 C 110.941 -0.308411 -1.93153 0
M  V30 1152 O 112.147 -0.288156 -2.69966 0
M  V30 1153 C 110.603 -2.83109 -2.2221 0
M  V30 1154 C 110.211 -4.19524 -1.57173 0
M  V30 1155 C 111.955 -3.0254 -2.97775 0
M  V30 1156 C 109.862 -5.33431 -2.55353 0
M  V30 1157 H 108.792 -0.597286 -0.460179 0
M  V30 1158 H 111.443 -1.76731 -0.493803 0
M  V30 1159 H 109.825 -2.60322 -2.9841 0
M  V30 1160 H 110.999 -4.52554 -0.867824 0
M  V30 1161 H 109.314 -4.05674 -0.939002 0
M  V30 1162 H 111.911 -3.84811 -3.71248 0
M  V30 1163 H 112.254 -2.14154 -3.56992 0
M  V30 1164 H 112.787 -3.25494 -2.28688 0
M  V30 1165 H 109.526 -6.23962 -2.00878 0
M  V30 1166 H 109.046 -5.04823 -3.23904 0
M  V30 1167 H 110.725 -5.63887 -3.17239 0
M  V30 1168 N 110.857 0.726932 -1.39834 0
M  V30 1169 C 112.268 1.30558 -1.3346 0
M  V30 1170 C 112.619 1.962 -0.00273003 0
M  V30 1171 O 111.744 1.96826 0.899371 0
M  V30 1172 C 112.339 2.37404 -2.41713 0
M  V30 1173 C 110.898 2.90921 -2.38835 0
M  V30 1174 C 110.045 1.64578 -2.2318 0
M  V30 1175 H 112.996 0.523862 -1.49804 0
M  V30 1176 H 113.017 3.17984 -2.08966 0
M  V30 1177 H 112.529 1.89599 -3.38635 0
M  V30 1178 H 110.63 3.42985 -1.45575 0
M  V30 1179 H 110.743 3.43487 -3.33997 0
M  V30 1180 H 109.107 1.89219 -1.70494 0
M  V30 1181 H 109.89 1.18814 -3.22084 0
M  V30 1182 N 112.336 1.25143 0.95797 0
M  V30 1183 C 113.283 1.05235 2.05412 0
M  V30 1184 C 114.253 -0.0374561 1.66058 0
M  V30 1185 O 115.438 0.119073 1.90428 0
M  V30 1186 C 112.578 0.673589 3.38462 0
M  V30 1187 C 111.691 1.8379 3.90954 0
M  V30 1188 C 110.826 1.40381 5.12315 0
M  V30 1189 C 109.865 2.53746 5.57027 0
M  V30 1190 N 109.002 2.11136 6.69601 0
M  V30 1191 H 113.842 1.99048 2.21774 0
M  V30 1192 H 111.379 0.991277 1.08683 0
M  V30 1193 H 113.337 0.434964 4.14926 0
M  V30 1194 H 111.967 -0.227554 3.21997 0
M  V30 1195 H 111.019 2.18992 3.11041 0
M  V30 1196 H 112.331 2.68937 4.20089 0
M  V30 1197 H 111.485 1.12464 5.96185 0
M  V30 1198 H 110.224 0.523015 4.84887 0
M  V30 1199 H 109.229 2.82412 4.71724 0
M  V30 1200 H 110.454 3.42398 5.86464 0
M  V30 1201 H 108.4 1.25468 6.4389 0
M  V30 1202 H 108.317 2.89832 6.98236 0
M  V30 1203 H 109.585 1.86385 7.56889 0
M  V30 1204 N 113.814 -1.1601 1.06675 0
M  V30 1205 C 114.761 -2.20525 0.680967 0
M  V30 1206 C 115.731 -1.62904 -0.324283 0
M  V30 1207 O 116.916 -1.89615 -0.212294 0
M  V30 1208 C 114.056 -3.45013 0.0776551 0
M  V30 1209 C 113.169 -4.16863 1.13355 0
M  V30 1210 C 112.304 -5.2888 0.49597 0
M  V30 1211 C 111.343 -5.92537 1.53513 0
M  V30 1212 N 110.48 -6.96038 0.920631 0
M  V30 1213 H 115.32 -2.52876 1.57663 0
M  V30 1214 H 112.857 -1.24199 0.788223 0
M  V30 1215 H 114.815 -4.16193 -0.289704 0
M  V30 1216 H 113.445 -3.132 -0.781393 0
M  V30 1217 H 112.497 -3.44248 1.61857 0
M  V30 1218 H 113.809 -4.60294 1.92174 0
M  V30 1219 H 112.963 -6.06653 0.0758604 0
M  V30 1220 H 111.702 -4.86622 -0.324062 0
M  V30 1221 H 110.707 -5.13482 1.9651 0
M  V30 1222 H 111.932 -6.36873 2.35733 0
M  V30 1223 H 109.878 -6.55888 0.12138 0
M  V30 1224 H 109.795 -7.3786 1.64616 0
M  V30 1225 H 111.063 -7.77725 0.525795 0
M  V30 1226 N 115.292 -0.849877 -1.32721 0
M  V30 1227 C 116.538 -0.451591 -1.97708 0
M  V30 1228 C 116.871 0.989175 -1.6712 0
M  V30 1229 O 116.146 1.69334 -0.956891 0
M  V30 1230 C 116.429 -0.685598 -3.53513 0
M  V30 1231 C 116.282 -2.17444 -3.93749 0
M  V30 1232 C 117.601 -0.138874 -4.39881 0
M  V30 1233 H 114.72 -0.16555 -0.718166 0
M  V30 1234 H 117.362 -1.06742 -1.57182 0
M  V30 1235 H 115.512 -0.161416 -3.88165 0
M  V30 1236 H 117.184 -2.76433 -3.693 0
M  V30 1237 H 115.427 -2.65476 -3.43081 0
M  V30 1238 H 116.098 -2.28888 -5.02309 0
M  V30 1239 H 118.574 -0.587068 -4.11938 0
M  V30 1240 H 117.45 -0.332213 -5.47894 0
M  V30 1241 H 117.711 0.95806 -4.31594 0
M  V30 1242 N 116.77 1.45427 -0.607355 0
M  V30 1243 C 117.7 2.3329 0.0989352 0
M  V30 1244 C 118.681 1.46816 0.859007 0
M  V30 1245 O 119.866 1.75588 0.829604 0
M  V30 1246 C 116.996 3.29518 1.09705 0
M  V30 1247 C 115.95 4.25626 0.450206 0
M  V30 1248 C 115.276 5.11542 1.55655 0
M  V30 1249 C 116.576 5.18505 -0.628455 0
M  V30 1250 H 118.27 2.92595 -0.634716 0
M  V30 1251 H 115.816 1.40696 -0.306681 0
M  V30 1252 H 117.769 3.89855 1.59971 0
M  V30 1253 H 116.493 2.68372 1.86129 0
M  V30 1254 H 115.152 3.66586 -0.0315886 0
M  V30 1255 H 114.8 4.46765 2.31107 0
M  V30 1256 H 114.5 5.76647 1.12925 0
M  V30 1257 H 116.024 5.74748 2.06148 0
M  V30 1258 H 117.438 5.72916 -0.209877 0
M  V30 1259 H 115.835 5.92085 -0.977489 0
M  V30 1260 H 116.905 4.60948 -1.50514 0
M  V30 1261 N 118.248 0.346503 1.53744 0
M  V30 1262 C 119.473 -0.253074 2.0585 0
M  V30 1263 C 119.898 -1.43202 1.21962 0
M  V30 1264 O 119.256 -1.79783 0.234073 0
M  V30 1265 C 119.304 -0.643193 3.54817 0
M  V30 1266 O 118.408 -1.74286 3.73762 0
M  V30 1267 H 117.749 -0.0413583 0.662711 0
M  V30 1268 H 120.279 0.501574 1.98357 0
M  V30 1269 H 120.289 -0.919526 3.97503 0
M  V30 1270 H 118.964 0.218966 4.15323 0
M  V30 1271 H 117.541 -1.46356 3.42979 0
M  V30 1272 N 119.726 -1.57421 0.075193 0
M  V30 1273 C 120.674 -2.14124 -0.908508 0
M  V30 1274 C 121.668 -1.07898 -1.30592 0
M  V30 1275 O 122.874 -1.26273 -1.28277 0
M  V30 1276 H 119.249 -0.684707 -0.310935 0
M  V30 1277 H 121.22 -2.95634 -0.405374 0
M  V30 1278 C 119.969 -2.72044 -2.16535 0
M  V30 1279 H 119.292 -3.53456 -1.86839 0
M  V30 1280 H 120.732 -3.15311 -2.83469 0
M  V30 1281 C 119.191 -1.66968 -2.92615 0
M  V30 1282 O 119.721 -1.0967 -3.86439 0
M  V30 1283 N 117.927 -1.37923 -2.55784 0
M  V30 1284 H 117.474 -1.84706 -1.79559 0
M  V30 1285 H 117.432 -0.67852 -3.06991 0
M  V30 1286 N 121.204 0.198386 -1.56346 0
M  V30 1287 C 122.481 0.944982 -1.71258 0
M  V30 1288 C 122.861 2.0151 -0.629048 0
M  V30 1289 O 122.209 2.25639 0.360473 0
M  V30 1290 C 122.419 1.5344 -3.1346 0
M  V30 1291 C 123.767 2.01778 -3.73591 0
M  V30 1292 O 124.791 1.63288 -3.16568 0
M  V30 1293 O 123.65 2.72594 -4.73661 0
M  V30 1294 H 120.744 0.442939 -0.69838 0
M  V30 1295 H 123.29 0.188342 -1.68652 0
M  V30 1296 H 122.062 0.762869 -3.83792 0
M  V30 1297 H 121.685 2.35596 -3.20282 0
M  V30 1298 N 122.682 1.50554 0.465978 0
M  V30 1299 C 123.63 1.70324 1.58406 0
M  V30 1300 C 124.624 0.569139 1.59553 0
M  V30 1301 O 125.83 0.749776 1.63641 0
M  V30 1302 H 122.205 0.537688 0.525734 0
M  V30 1303 H 124.176 2.64104 1.38894 0
M  V30 1304 C 122.925 1.81928 2.96307 0
M  V30 1305 H 122.248 2.68586 2.96144 0
M  V30 1306 H 123.688 1.99784 3.73982 0
M  V30 1307 C 122.147 0.572095 3.32007 0
M  V30 1308 O 122.677 -0.286416 4.00678 0
M  V30 1309 N 120.883 0.424606 2.87481 0
M  V30 1310 H 120.43 1.12427 2.31771 0
M  V30 1311 H 120.388 -0.408697 3.11732 0
M  V30 1312 N 124.16 -0.719506 1.40217 0
M  V30 1313 C 125.108 -1.85493 1.40339 0
M  V30 1314 C 126.102 -1.66995 0.284415 0
M  V30 1315 O 127.308 -1.74148 0.455252 0
M  V30 1316 H 123.683 -0.610857 0.438586 0
M  V30 1317 H 125.654 -1.82506 2.36081 0
M  V30 1318 C 124.403 -3.23321 1.27901 0
M  V30 1319 H 123.726 -3.38159 2.1328 0
M  V30 1320 H 125.166 -4.02914 1.32045 0
M  V30 1321 C 123.625 -3.36898 -0.0111355 0
M  V30 1322 O 124.155 -3.89674 -0.975538 0
M  V30 1323 N 122.361 -2.90492 -0.0793393 0
M  V30 1324 H 121.908 -2.47731 0.706183 0
M  V30 1325 H 121.866 -2.99955 -0.942038 0
M  V30 1326 N 125.638 -1.25649 -0.95132 0
M  V30 1327 C 126.568 -1.08808 -2.06599 0
M  V30 1328 C 127.549 0.00382547 -1.701 0
M  V30 1329 O 128.734 -0.166325 -1.93486 0
M  V30 1330 C 125.864 -0.709542 -3.39975 0
M  V30 1331 C 124.818 -1.75206 -3.90496 0
M  V30 1332 C 124.144 -1.22811 -5.20405 0
M  V30 1333 C 125.444 -3.15153 -4.16504 0
M  V30 1334 H 127.138 -2.02048 -2.20946 0
M  V30 1335 H 124.684 -0.972835 -1.06169 0
M  V30 1336 H 126.637 -0.578649 -4.17408 0
M  V30 1337 H 125.361 0.258556 -3.25575 0
M  V30 1338 H 124.02 -1.87145 -3.15234 0
M  V30 1339 H 123.668 -0.250145 -5.02378 0
M  V30 1340 H 123.368 -1.92492 -5.55176 0
M  V30 1341 H 124.892 -1.10968 -6.00432 0
M  V30 1342 H 126.306 -3.06349 -4.84586 0
M  V30 1343 H 124.703 -3.82333 -4.62538 0
M  V30 1344 H 125.773 -3.61966 -3.22658 0
M  V30 1345 N 127.117 1.15442 -1.07289 0
M  V30 1346 C 128.345 1.90096 -0.81676 0
M  V30 1347 C 128.76 1.7798 0.629966 0
M  V30 1348 O 128.117 1.1313 1.43206 0
M  V30 1349 C 128.168 3.40466 -1.21512 0
M  V30 1350 O 127.889 3.52232 -2.60508 0
M  V30 1351 C 129.39 4.32145 -0.988198 0
M  V30 1352 H 126.61 0.602495 -0.295366 0
M  V30 1353 H 129.154 1.4627 -1.42918 0
M  V30 1354 H 127.309 3.81958 -0.647039 0
M  V30 1355 H 127.723 4.45549 -2.76742 0
M  V30 1356 H 129.197 5.36072 -1.31645 0
M  V30 1357 H 129.674 4.39135 0.0755063 0
M  V30 1358 H 130.28 3.96395 -1.54115 0
M  V30 1359 N 128.595 0.856903 1.32268 0
M  V30 1360 C 129.525 0.31858 2.31316 0
M  V30 1361 C 130.506 -0.583487 1.59779 0
M  V30 1362 O 131.691 -0.503259 1.87566 0
M  V30 1363 C 128.821 -0.491979 3.43798 0
M  V30 1364 C 127.775 0.315849 4.26833 0
M  V30 1365 C 127.101 -0.619586 5.31098 0
M  V30 1366 C 128.401 1.54282 4.98993 0
M  V30 1367 H 130.095 1.14621 2.76591 0
M  V30 1368 H 127.641 0.552613 1.32974 0
M  V30 1369 H 129.594 -0.879012 4.1213 0
M  V30 1370 H 128.318 -1.35299 2.97257 0
M  V30 1371 H 126.977 0.684664 3.6015 0
M  V30 1372 H 126.625 -1.47751 4.8081 0
M  V30 1373 H 126.325 -0.0830621 5.87541 0
M  V30 1374 H 127.849 -1.00375 6.02293 0
M  V30 1375 H 129.263 1.22796 5.59995 0
M  V30 1376 H 127.66 2.01745 5.65172 0
M  V30 1377 H 128.73 2.30285 4.26728 0
M  V30 1378 N 130.073 -1.45103 0.615059 0
M  V30 1379 C 131.023 -2.27679 -0.120966 0
M  V30 1380 C 132.007 -1.3775 -0.831491 0
M  V30 1381 O 133.199 -1.61683 -0.720249 0
M  V30 1382 C 130.328 -3.24767 -1.1127 0
M  V30 1383 C 129.414 -4.22184 -0.402627 0
M  V30 1384 N 129.805 -5.02692 0.559884 0
M  V30 1385 C 128.103 -4.4125 -0.649202 0
M  V30 1386 C 128.804 -5.73421 0.977942 0
M  V30 1387 N 127.78 -5.42657 0.320104 0
M  V30 1388 H 131.582 -2.87325 0.618181 0
M  V30 1389 H 129.096 -1.56345 0.439304 0
M  V30 1390 H 131.093 -3.82666 -1.65446 0
M  V30 1391 H 129.753 -2.66682 -1.85232 0
M  V30 1392 H 130.764 -5.09354 0.936976 0
M  V30 1393 H 127.441 -3.9428 -1.37293 0
M  V30 1394 H 128.831 -6.48107 1.77222 0
M  V30 1395 N 131.551 -0.354651 -1.53558 0
M  V30 1396 C 132.791 0.238651 -2.03002 0
M  V30 1397 C 133.155 1.46878 -1.23656 0
M  V30 1398 O 134.356 2.13699 -1.63053 0
M  V30 1399 C 132.627 0.534175 -3.53386 0
M  V30 1400 S 134.186 1.10271 -4.24719 0
M  V30 1401 H 131.004 0.0702908 -0.707517 0
M  V30 1402 H 133.606 -0.494987 -1.8913 0
M  V30 1403 H 132.31 -0.368765 -4.0874 0
M  V30 1404 H 131.841 1.29718 -3.71398 0
M  V30 1405 H 133.856 2.38772 -4.34974 0
M  V30 1406 N 133.029 1.57378 -0.0835403 0
M  V30 1407 C 133.979 2.09916 0.889905 0
M  V30 1408 C 134.963 1.01151 1.25129 0
M  V30 1409 O 136.155 1.27443 1.2283 0
M  V30 1410 C 133.284 2.67379 2.15322 0
M  V30 1411 C 132.37 3.83167 1.81779 0
M  V30 1412 N 132.761 4.91665 1.18739 0
M  V30 1413 C 131.059 3.92685 2.11459 0
M  V30 1414 C 131.76 5.72409 1.0355 0
M  V30 1415 N 130.736 5.21062 1.54906 0
M  V30 1416 H 134.538 2.91188 0.398378 0
M  V30 1417 H 132.052 1.61956 0.120013 0
M  V30 1418 H 134.049 3.0334 2.8599 0
M  V30 1419 H 132.709 1.87558 2.65051 0
M  V30 1420 H 133.72 5.10784 0.855604 0
M  V30 1421 H 130.397 3.23856 2.63483 0
M  V30 1422 H 131.787 6.69699 0.543425 0
M  V30 1423 N 134.507 -0.190092 1.56449 0
M  V30 1424 C 135.753 -0.911052 1.81184 0
M  V30 1425 C 136.086 -1.82699 0.658396 0
M  V30 1426 O 135.361 -1.91491 -0.340775 0
M  V30 1427 C 135.644 -1.72297 3.16205 0
M  V30 1428 C 135.497 -0.831419 4.42049 0
M  V30 1429 C 136.816 -2.69454 3.47969 0
M  V30 1430 H 133.935 -0.32977 0.659106 0
M  V30 1431 H 136.577 -0.178169 1.89163 0
M  V30 1432 H 134.727 -2.34778 3.09534 0
M  V30 1433 H 136.399 -0.220929 4.60771 0
M  V30 1434 H 134.642 -0.138406 4.33579 0
M  V30 1435 H 135.313 -1.43461 5.33032 0
M  V30 1436 H 137.789 -2.17104 3.54972 0
M  V30 1437 H 136.665 -3.23342 4.43555 0
M  V30 1438 H 136.926 -3.48744 2.71717 0
M  V30 1439 N 135.985 -1.50799 -0.457987 0
M  V30 1440 C 137.401 -1.38515 -0.792819 0
M  V30 1441 C 137.601 -0.451409 -1.96379 0
M  V30 1442 O 136.657 0.10112 -2.52297 0
M  V30 1443 C 137.97 -2.80149 -1.09258 0
M  V30 1444 C 139.518 -2.89156 -1.19825 0
M  V30 1445 C 139.993 -4.31651 -1.53106 0
M  V30 1446 N 141.484 -4.34662 -1.60072 0
M  V30 1447 C 142.219 -5.41928 -1.87354 0
M  V30 1448 N 141.715 -6.59384 -2.12568 0
M  V30 1449 N 143.508 -5.29385 -1.88965 0
M  V30 1450 H 135.659 -2.10073 0.313511 0
M  V30 1451 H 137.922 -0.944803 0.0777862 0
M  V30 1452 H 137.628 -3.50374 -0.305084 0
M  V30 1453 H 137.502 -3.18204 -2.02549 0
M  V30 1454 H 139.889 -2.19141 -1.97639 0
M  V30 1455 H 139.97 -2.54626 -0.244821 0
M  V30 1456 H 139.614 -5.02208 -0.758266 0
M  V30 1457 H 139.544 -4.63678 -2.49621 0
M  V30 1458 H 142.035 -3.49973 -1.42573 0
M  V30 1459 H 142.348 -7.36934 -2.32696 0
M  V30 1460 H 140.693 -6.62535 -2.09933 0
M  V30 1461 H 143.884 -4.36616 -1.68772 0
M  V30 1462 H 144.057 -6.13066 -2.09891 0
M  V30 1463 N 137.463 0.71206 -1.40597 0
M  V30 1464 C 138.711 1.46907 -1.38791 0
M  V30 1465 C 139.032 1.94998 0.00780391 0
M  V30 1466 O 138.302 1.70587 0.963174 0
M  V30 1467 H 136.882 0.545043 -0.51082 0
M  V30 1468 H 139.544 0.843882 -1.75683 0
M  V30 1469 H 138.64 2.34021 -2.06496 0
M  V30 1470 N 138.941 1.26152 0.944643 0
M  V30 1471 C 139.889 1.07215 2.06417 0
M  V30 1472 C 140.883 9.2007e-05 1.694 0
M  V30 1473 O 142.089 0.1565 1.79318 0
M  V30 1474 H 138.464 0.329837 0.675805 0
M  V30 1475 H 140.435 2.02099 2.19541 0
M  V30 1476 C 139.184 0.718197 3.40202 0
M  V30 1477 H 138.507 1.53497 3.69159 0
M  V30 1478 H 139.947 0.625459 4.19361 0
M  V30 1479 C 138.406 -0.576435 3.31932 0
M  V30 1480 O 138.936 -1.61574 3.67773 0
M  V30 1481 N 137.142 -0.565781 2.85039 0
M  V30 1482 H 136.689 0.280367 2.5607 0
M  V30 1483 H 136.647 -1.43213 2.79888 0
M  V30 1484 N 140.419 -1.14872 1.07899 0
M  V30 1485 C 141.329 -2.2341 0.715915 0
M  V30 1486 C 142.345 -1.71808 -0.275306 0
M  V30 1487 O 143.521 -2.01039 -0.120545 0
M  V30 1488 C 140.586 -3.46474 0.125168 0
M  V30 1489 C 139.647 -4.13039 1.17034 0
M  V30 1490 C 138.88 -5.30229 0.607688 0
M  V30 1491 O 139.103 -5.675 -0.574497 0
M  V30 1492 O 138.037 -5.86444 1.35526 0
M  V30 1493 H 141.863 -2.56808 1.62121 0
M  V30 1494 H 139.448 -1.22702 0.852322 0
M  V30 1495 H 141.33 -4.20917 -0.201729 0
M  V30 1496 H 140.005 -3.14811 -0.753364 0
M  V30 1497 H 138.912 -3.40493 1.54968 0
M  V30 1498 H 140.245 -4.48796 2.02097 0
M  V30 1499 N 141.898 -0.863906 -1.31812 0
M  V30 1500 C 142.845 -0.313303 -2.28664 0
M  V30 1501 C 143.815 0.584868 -1.55462 0
M  V30 1502 O 145 0.517805 -1.83639 0
M  V30 1503 C 142.14 0.48441 -3.41683 0
M  V30 1504 C 141.253 -0.440594 -4.29747 0
M  V30 1505 C 140.388 0.370652 -5.29905 0
M  V30 1506 C 139.427 -0.551164 -6.09613 0
M  V30 1507 N 138.564 0.223462 -7.01744 0
M  V30 1508 H 143.404 -1.14444 -2.75148 0
M  V30 1509 H 140.941 -0.575769 -1.35364 0
M  V30 1510 H 142.899 0.962627 -4.05943 0
M  V30 1511 H 141.529 1.28029 -2.96325 0
M  V30 1512 H 140.581 -1.03724 -3.65986 0
M  V30 1513 H 141.893 -1.14767 -4.85417 0
M  V30 1514 H 141.047 0.911638 -5.99812 0
M  V30 1515 H 139.786 1.11105 -4.74876 0
M  V30 1516 H 138.791 -1.10396 -5.38603 0
M  V30 1517 H 140.016 -1.29032 -6.66729 0
M  V30 1518 H 137.962 0.946787 -6.49132 0
M  V30 1519 H 137.879 -0.424399 -7.54808 0
M  V30 1520 H 139.147 0.745876 -7.75923 0
M  V30 1521 N 143.376 1.44774 -0.622745 0
M  V30 1522 C 144.306 2.33382 0.0741861 0
M  V30 1523 C 145.287 1.47719 0.843387 0
M  V30 1524 O 146.472 1.76458 0.810934 0
M  V30 1525 C 143.602 3.30663 1.06204 0
M  V30 1526 C 142.556 4.26079 0.405037 0
M  V30 1527 C 141.882 5.13165 1.5022 0
M  V30 1528 C 143.182 5.1781 -0.683414 0
M  V30 1529 H 144.876 2.91905 -0.665713 0
M  V30 1530 H 142.422 1.40363 -0.321587 0
M  V30 1531 H 144.375 3.9153 1.55827 0
M  V30 1532 H 143.099 2.70331 1.83272 0
M  V30 1533 H 141.758 3.66532 -0.0704683 0
M  V30 1534 H 141.406 4.49191 2.26355 0
M  V30 1535 H 141.106 5.77812 1.06803 0
M  V30 1536 H 142.63 5.76902 2.00041 0
M  V30 1537 H 144.044 5.72661 -0.270631 0
M  V30 1538 H 142.441 5.91015 -1.04023 0
M  V30 1539 H 143.511 4.59326 -1.55395 0
M  V30 1540 N 144.854 0.36279 1.53368 0
M  V30 1541 C 146.101 -0.227776 2.01215 0
M  V30 1542 C 146.429 -1.49003 1.25014 0
M  V30 1543 O 145.684 -1.92876 0.331236 0
M  V30 1544 C 145.983 -0.568417 3.52851 0
M  V30 1545 C 145.649 0.59918 4.46901 0
M  V30 1546 C 144.311 0.919559 4.72332 0
M  V30 1547 C 146.663 1.38156 5.02556 0
M  V30 1548 C 143.991 2.02434 5.5067 0
M  V30 1549 C 146.343 2.47674 5.821 0
M  V30 1550 C 145.007 2.8025 6.05819 0
M  V30 1551 H 144.277 -0.083349 0.736297 0
M  V30 1552 H 146.924 0.494677 1.85001 0
M  V30 1553 H 145.229 -1.37185 3.66998 0
M  V30 1554 H 146.926 -1.03756 3.87344 0
M  V30 1555 H 143.516 0.339437 4.27254 0
M  V30 1556 H 147.7 1.14729 4.82857 0
M  V30 1557 H 142.956 2.28075 5.67267 0
M  V30 1558 H 147.13 3.08716 6.24234 0
M  V30 1559 H 144.757 3.65979 6.66306 0
M  V30 1560 N 146.332 -1.57332 0.0918853 0
M  V30 1561 C 147.578 -1.94524 -0.573425 0
M  V30 1562 C 147.911 -0.973578 -1.68033 0
M  V30 1563 O 147.186 -0.00609226 -1.94499 0
M  V30 1564 C 147.469 -3.41858 -1.13161 0
M  V30 1565 C 147.322 -4.4979 -0.0299747 0
M  V30 1566 C 148.641 -3.90435 -2.03098 0
M  V30 1567 H 145.76 -0.70734 -0.206975 0
M  V30 1568 H 148.402 -1.89309 0.161942 0
M  V30 1569 H 146.552 -3.46433 -1.7583 0
M  V30 1570 H 148.224 -4.57327 0.604112 0
M  V30 1571 H 146.467 -4.291 0.636833 0
M  V30 1572 H 147.138 -5.50069 -0.461287 0
M  V30 1573 H 149.614 -3.87992 -1.50338 0
M  V30 1574 H 148.49 -4.94097 -2.39081 0
M  V30 1575 H 148.751 -3.29541 -2.94712 0
M  V30 1576 N 147.81 0.181792 -1.56548 0
M  V30 1577 C 149.087 0.926765 -1.72251 0
M  V30 1578 C 149.467 2.00831 -0.650386 0
M  V30 1579 O 148.815 2.26008 0.336521 0
M  V30 1580 C 149.025 1.50106 -3.1507 0
M  V30 1581 C 150.373 1.97805 -3.75711 0
M  V30 1582 O 151.397 1.59922 -3.18282 0
M  V30 1583 O 150.256 2.67555 -4.76525 0
M  V30 1584 H 147.35 0.435506 -0.703039 0
M  V30 1585 H 149.896 0.170443 -1.68842 0
M  V30 1586 H 148.668 0.72212 -3.84579 0
M  V30 1587 H 148.291 2.32186 -3.22763 0
M  V30 1588 N 149.288 1.51039 0.449983 0
M  V30 1589 C 150.534 1.63322 1.20223 0
M  V30 1590 C 150.867 0.34241 1.91158 0
M  V30 1591 O 150.142 -0.657344 1.83055 0
M  V30 1592 C 150.425 2.82801 2.22925 0
M  V30 1593 C 150.278 4.21823 1.56157 0
M  V30 1594 C 151.597 2.97807 3.24035 0
M  V30 1595 H 148.716 0.594407 0.435718 0
M  V30 1596 H 151.358 1.83489 0.493136 0
M  V30 1597 H 149.508 2.65738 2.834 0
M  V30 1598 H 151.18 4.50526 0.991162 0
M  V30 1599 H 149.423 4.25105 0.864172 0
M  V30 1600 H 150.094 5.01391 2.30891 0
M  V30 1601 H 152.57 3.13497 2.73603 0
M  V30 1602 H 151.446 3.82992 3.93202 0
M  V30 1603 H 151.707 2.09328 3.89402 0
M  V30 1604 N 150.766 -0.704594 1.40972 0
M  V30 1605 C 151.996 -1.49138 1.42974 0
M  V30 1606 C 152.404 -1.89175 0.0308406 0
M  V30 1607 O 151.747 -1.56734 -0.958138 0
M  V30 1608 C 151.809 -2.79016 2.26694 0
M  V30 1609 C 151.473 -2.61236 3.74973 0
M  V30 1610 C 152.47 -2.27773 4.67349 0
M  V30 1611 C 150.155 -2.77158 4.18914 0
M  V30 1612 C 152.149 -2.10457 6.01653 0
M  V30 1613 C 149.836 -2.59459 5.53285 0
M  V30 1614 C 150.834 -2.26158 6.4447 0
M  V30 1615 O 150.522 -2.08605 7.76363 0
M  V30 1616 H 150.254 -0.466443 0.489292 0
M  V30 1617 H 152.808 -0.8758 1.85793 0
M  V30 1618 H 151.038 -3.42947 1.78673 0
M  V30 1619 H 152.727 -3.40782 2.20504 0
M  V30 1620 H 153.493 -2.15095 4.34694 0
M  V30 1621 H 149.372 -3.02064 3.48251 0
M  V30 1622 H 152.916 -1.84387 6.72791 0
M  V30 1623 H 148.813 -2.71725 5.85522 0
M  V30 1624 H 149.581 -2.23439 7.87412 0
M  V30 1625 N 152.244 -1.26651 -0.937939 0
M  V30 1626 C 153.207 -1.08546 -2.01867 0
M  V30 1627 C 154.207 -0.0327327 -1.60767 0
M  V30 1628 O 155.397 -0.276427 -1.71993 0
M  V30 1629 C 152.529 -0.651711 -3.34613 0
M  V30 1630 H 153.722 -2.04502 -2.1936 0
M  V30 1631 H 151.275 -1.09294 -1.11734 0
M  V30 1632 H 152.01 0.309696 -3.22818 0
M  V30 1633 H 151.795 -1.41189 -3.65798 0
M  V30 1634 H 153.285 -0.546973 -4.14002 0
M  V30 1635 N 153.722 1.14298 -1.08507 0
M  V30 1636 C 154.669 2.19414 -0.715965 0
M  V30 1637 C 155.639 1.63399 0.298326 0
M  V30 1638 O 156.824 1.89929 0.182101 0
M  V30 1639 C 153.964 3.44845 -0.132534 0
M  V30 1640 C 153.077 4.15007 -1.19973 0
M  V30 1641 C 152.212 5.28024 -0.580048 0
M  V30 1642 C 151.251 5.9002 -1.62921 0
M  V30 1643 N 150.388 6.94485 -1.03125 0
M  V30 1644 H 155.228 2.50336 -1.61666 0
M  V30 1645 H 152.765 1.2293 -0.807882 0
M  V30 1646 H 154.723 4.16601 0.223454 0
M  V30 1647 H 153.353 3.14403 0.731467 0
M  V30 1648 H 152.405 3.41629 -1.67313 0
M  V30 1649 H 153.717 4.57178 -1.99473 0
M  V30 1650 H 152.871 6.06455 -0.172364 0
M  V30 1651 H 151.61 4.87076 0.246603 0
M  V30 1652 H 150.615 5.10291 -2.04654 0
M  V30 1653 H 151.84 6.33042 -2.45835 0
M  V30 1654 H 149.786 6.55612 -0.225711 0
M  V30 1655 H 149.703 7.35148 -1.76334 0
M  V30 1656 H 150.971 7.7679 -0.649458 0
M  V30 1657 N 155.201 0.870884 1.31352 0
M  V30 1658 C 156.448 0.482273 1.96673 0
M  V30 1659 C 156.776 -0.965638 1.68836 0
M  V30 1660 O 156.031 -1.69514 0.977937 0
M  V30 1661 C 156.33 0.687157 3.50732 0
M  V30 1662 C 155.996 2.108 3.9859 0
M  V30 1663 C 154.658 2.49656 4.1137 0
M  V30 1664 C 157.01 3.03459 4.23748 0
M  V30 1665 C 154.338 3.80412 4.46659 0
M  V30 1666 C 156.69 4.3373 4.60501 0
M  V30 1667 C 155.354 4.725 4.71487 0
M  V30 1668 H 154.624 0.176476 0.719679 0
M  V30 1669 H 157.271 1.10405 1.56471 0
M  V30 1670 H 155.576 -0.0177476 3.91796 0
M  V30 1671 H 157.273 0.366284 3.99324 0
M  V30 1672 H 153.863 1.79633 3.8914 0
M  V30 1673 H 158.047 2.74665 4.13368 0
M  V30 1674 H 153.303 4.1021 4.53362 0
M  V30 1675 H 157.477 5.05578 4.78919 0
M  V30 1676 H 155.104 5.73859 4.98588 0
M  V30 1677 N 156.679 -1.44442 0.630414 0
M  V30 1678 C 157.928 -2.01267 0.132073 0
M  V30 1679 C 158.241 -1.50172 -1.25331 0
M  V30 1680 O 159.447 -1.9912 -1.84562 0
M  V30 1681 C 157.903 -3.59422 0.185362 0
M  V30 1682 C 157.511 -4.19514 1.57201 0
M  V30 1683 C 159.255 -4.23724 -0.256553 0
M  V30 1684 C 157.162 -5.69891 1.58045 0
M  V30 1685 H 156.092 -0.752619 0.0456092 0
M  V30 1686 H 158.743 -1.65666 0.789106 0
M  V30 1687 H 157.125 -3.92318 -0.538759 0
M  V30 1688 H 158.299 -3.98156 2.31966 0
M  V30 1689 H 156.614 -3.67496 1.95795 0
M  V30 1690 H 159.211 -5.34019 -0.269767 0
M  V30 1691 H 159.554 -3.96013 -1.28372 0
M  V30 1692 H 160.087 -3.95629 0.41505 0
M  V30 1693 H 156.826 -6.02336 2.58597 0
M  V30 1694 H 156.346 -5.93373 0.875725 0
M  V30 1695 H 158.025 -6.33515 1.31408 0
M  V30 1696 N 158.157 -0.370918 -1.53173 0
M  V30 1697 C 159.067 0.480823 -2.2962 0
M  V30 1698 C 160.083 1.08789 -1.35798 0
M  V30 1699 O 161.259 1.09768 -1.68858 0
M  V30 1700 C 158.324 1.60227 -3.07454 0
M  V30 1701 C 157.385 1.0222 -4.16953 0
M  V30 1702 C 156.618 2.0902 -4.91066 0
M  V30 1703 O 156.841 3.30222 -4.65091 0
M  V30 1704 O 155.775 1.71778 -5.76867 0
M  V30 1705 H 159.601 -0.141421 -3.03371 0
M  V30 1706 H 157.186 -0.135146 -1.48787 0
M  V30 1707 H 159.068 2.25417 -3.56041 0
M  V30 1708 H 157.743 2.20982 -2.36535 0
M  V30 1709 H 156.65 0.334064 -3.72605 0
M  V30 1710 H 157.983 0.459131 -4.90054 0
M  V30 1711 N 159.635 1.57281 -0.100228 0
M  V30 1712 C 161.046 1.81725 0.428107 0
M  V30 1713 C 161.397 1.01619 1.67833 0
M  V30 1714 O 160.522 0.247098 2.14985 0
M  V30 1715 C 161.117 3.29617 0.78347 0
M  V30 1716 C 159.676 3.54808 1.25653 0
M  V30 1717 C 158.823 2.76118 0.255752 0
M  V30 1718 H 161.774 1.55324 -0.325608 0
M  V30 1719 H 161.795 3.4322 1.64256 0
M  V30 1720 H 161.307 3.87893 -0.12665 0
M  V30 1721 H 159.408 3.01868 2.18418 0
M  V30 1722 H 159.521 4.63443 1.21482 0
M  V30 1723 H 157.885 2.43745 0.738956 0
M  V30 1724 H 158.668 3.37145 -0.647136 0
M  V30 1725 N 161.113 -0.173488 1.56642 0
M  V30 1726 C 162.043 -1.2171 1.99271 0
M  V30 1727 C 163.024 -1.46289 0.867959 0
M  V30 1728 O 164.209 -1.5766 1.13388 0
M  V30 1729 C 161.339 -2.55651 2.35074 0
M  V30 1730 C 160.293 -2.45645 3.50489 0
M  V30 1731 C 159.619 -3.84056 3.72028 0
M  V30 1732 C 160.919 -1.96302 4.84007 0
M  V30 1733 H 162.613 -0.86275 2.867 0
M  V30 1734 H 160.159 -0.413571 1.37933 0
M  V30 1735 H 162.112 -3.2886 2.63494 0
M  V30 1736 H 160.836 -2.92869 1.44552 0
M  V30 1737 H 159.495 -1.7489 3.22194 0
M  V30 1738 H 159.143 -4.18664 2.788 0
M  V30 1739 H 158.843 -3.7823 4.49684 0
M  V30 1740 H 160.367 -4.58854 4.02846 0
M  V30 1741 H 161.781 -2.59284 5.11317 0
M  V30 1742 H 160.178 -2.01429 5.65284 0
M  V30 1743 H 161.248 -0.917226 4.76146 0
M  V30 1744 N 162.591 -1.51276 -0.441967 0
M  V30 1745 C 163.837 -1.63958 -1.19355 0
M  V30 1746 C 164.17 -0.352543 -1.90973 0
M  V30 1747 O 163.445 0.647627 -1.83401 0
M  V30 1748 C 163.728 -2.83979 -2.21422 0
M  V30 1749 C 163.581 -4.22646 -1.53918 0
M  V30 1750 C 164.9 -2.99521 -3.22451 0
M  V30 1751 H 162.019 -0.596709 -0.432559 0
M  V30 1752 H 164.661 -1.83748 -0.483398 0
M  V30 1753 H 162.811 -2.67237 -2.81987 0
M  V30 1754 H 164.483 -4.51045 -0.967256 0
M  V30 1755 H 162.726 -4.25558 -0.841615 0
M  V30 1756 H 163.397 -5.02609 -2.28229 0
M  V30 1757 H 165.873 -3.14944 -2.71937 0
M  V30 1758 H 164.749 -3.85072 -3.91166 0
M  V30 1759 H 165.01 -2.11391 -3.88287 0
M  V30 1760 N 164.069 0.697108 -1.41344 0
M  V30 1761 C 165.318 1.45279 -1.39918 0
M  V30 1762 C 165.631 1.95597 -0.0109624 0
M  V30 1763 O 166.837 2.71208 0.125919 0
M  V30 1764 C 165.293 2.62695 -2.46007 0
M  V30 1765 C 164.901 2.19169 -3.90729 0
M  V30 1766 C 166.645 3.40336 -2.53715 0
M  V30 1767 C 164.552 3.33535 -4.88373 0
M  V30 1768 H 163.482 0.545692 -0.520323 0
M  V30 1769 H 166.133 0.756929 -1.67161 0
M  V30 1770 H 164.515 3.34541 -2.11892 0
M  V30 1771 H 165.689 1.54623 -4.34083 0
M  V30 1772 H 164.004 1.54525 -3.86666 0
M  V30 1773 H 166.601 4.2547 -3.2385 0
M  V30 1774 H 166.944 3.85418 -1.5735 0
M  V30 1775 H 167.477 2.75546 -2.86913 0
M  V30 1776 H 164.216 2.93468 -5.86137 0
M  V30 1777 H 163.736 3.96936 -4.49668 0
M  V30 1778 H 165.415 3.99335 -5.09059 0
M  V30 1779 N 165.547 1.27147 0.931209 0
M  V30 1780 C 166.494 1.09568 2.03134 0
M  V30 1781 C 167.464 -0.00222433 1.661 0
M  V30 1782 O 168.649 0.159439 1.90133 0
M  V30 1783 C 165.789 0.745231 3.36957 0
M  V30 1784 C 164.902 1.92041 3.86968 0
M  V30 1785 C 164.037 1.51216 5.09222 0
M  V30 1786 C 163.076 2.65504 5.5152 0
M  V30 1787 N 162.213 2.25291 6.64972 0
M  V30 1788 H 167.053 2.03708 2.17502 0
M  V30 1789 H 164.59 1.01411 1.06556 0
M  V30 1790 H 166.548 0.522878 4.1391 0
M  V30 1791 H 165.178 -0.159202 3.22407 0
M  V30 1792 H 164.23 2.25541 3.06326 0
M  V30 1793 H 165.542 2.77787 4.1429 0
M  V30 1794 H 164.696 1.25084 5.93666 0
M  V30 1795 H 163.435 0.625749 4.83669 0
M  V30 1796 H 162.44 2.92354 4.65628 0
M  V30 1797 H 163.665 3.54761 5.7907 0
M  V30 1798 H 161.611 1.39098 6.41083 0
M  V30 1799 H 161.528 3.04577 6.91931 0
M  V30 1800 H 162.796 2.02398 7.52765 0
M  V30 1801 N 167.025 -1.13721 1.09112 0
M  V30 1802 C 167.973 -2.21103 0.722219 0
M  V30 1803 C 168.967 -1.67147 -0.275374 0
M  V30 1804 O 170.173 -1.79477 -0.137176 0
M  V30 1805 H 166.548 -0.720445 0.215553 0
M  V30 1806 H 168.519 -2.49483 1.63709 0
M  V30 1807 C 167.268 -3.47352 0.15543 0
M  V30 1808 H 166.591 -3.89206 0.914246 0
M  V30 1809 H 168.031 -4.2395 -0.0647967 0
M  V30 1810 C 166.49 -3.1814 -1.10852 0
M  V30 1811 O 167.02 -3.36604 -2.19227 0
M  V30 1812 N 165.226 -2.72045 -1.02176 0
M  V30 1813 H 164.773 -2.57221 -0.139764 0
M  V30 1814 H 164.731 -2.52875 -1.8682 0
M  V30 1815 N 168.503 -0.877838 -1.30888 0
M  V30 1816 C 169.731 -0.507414 -2.00581 0
M  V30 1817 C 170.146 0.902216 -1.65848 0
M  V30 1818 O 169.503 1.59225 -0.891831 0
M  V30 1819 C 169.554 -0.664162 -3.55347 0
M  V30 1820 O 169.275 -2.01829 -3.8884 0
M  V30 1821 C 170.776 -0.295787 -4.42312 0
M  V30 1822 H 167.996 -0.196866 -0.641471 0
M  V30 1823 H 170.54 -1.18117 -1.66939 0
M  V30 1824 H 168.695 -0.0378619 -3.87381 0
M  V30 1825 H 169.109 -2.03174 -4.8355 0
M  V30 1826 H 170.583 -0.456388 -5.5011 0
M  V30 1827 H 171.06 0.765663 -4.32475 0
M  V30 1828 H 171.666 -0.898113 -4.15709 0
M  V30 1829 N 169.982 1.44106 -0.638065 0
M  V30 1830 C 171.23 2.01579 -0.145043 0
M  V30 1831 C 171.551 1.50496 1.24 0
M  V30 1832 O 170.821 0.711374 1.82527 0
M  V30 1833 H 169.401 0.745282 -0.05063 0
M  V30 1834 H 172.063 1.76516 -0.826327 0
M  V30 1835 H 171.159 3.11877 -0.118039 0
M  V30 1836 N 171.46 0.379036 1.52974 0
M  V30 1837 C 172.393 -0.504932 2.22544 0
M  V30 1838 C 173.371 -1.0723 1.22231 0
M  V30 1839 O 174.555 -1.12589 1.51182 0
M  V30 1840 C 171.682 -1.69794 2.93066 0
M  V30 1841 C 170.728 -1.25678 4.07563 0
M  V30 1842 S 171.561 -0.246852 5.34931 0
M  V30 1843 C 172.717 -1.44588 6.08971 0
M  V30 1844 H 172.95 0.0858666 2.97176 0
M  V30 1845 H 170.483 0.163183 1.53535 0
M  V30 1846 H 172.441 -2.38219 3.34308 0
M  V30 1847 H 171.102 -2.26002 2.18133 0
M  V30 1848 H 170.295 -2.14725 4.5597 0
M  V30 1849 H 169.897 -0.651584 3.6828 0
M  V30 1850 H 172.189 -2.37469 6.34519 0
M  V30 1851 H 173.132 -1.00292 7.00962 0
M  V30 1852 H 173.54 -1.65804 5.39601 0
M  V30 1853 N 172.938 -1.57226 0.108567 0
M  V30 1854 C 174.349 -1.8195 -0.418464 0
M  V30 1855 C 174.7 -1.02508 -1.67292 0
M  V30 1856 O 173.825 -0.258496 -2.14851 0
M  V30 1857 C 174.42 -3.30028 -0.765979 0
M  V30 1858 C 172.979 -3.55469 -1.23769 0
M  V30 1859 C 172.126 -2.7625 -0.241106 0
M  V30 1860 H 175.077 -1.55149 0.33384 0
M  V30 1861 H 175.098 -3.44086 -1.62434 0
M  V30 1862 H 174.61 -3.87821 0.147219 0
M  V30 1863 H 172.711 -3.03022 -2.16814 0
M  V30 1864 H 172.824 -4.6408 -1.19022 0
M  V30 1865 H 171.188 -2.44133 -0.72602 0
M  V30 1866 H 171.971 -3.36797 0.665007 0
M  V30 1867 N 174.416 0.165178 -1.56732 0
M  V30 1868 C 175.348 1.22911 -1.93457 0
M  V30 1869 C 176.361 1.40152 -0.828333 0
M  V30 1870 O 177.55 1.40046 -1.10677 0
M  V30 1871 C 174.65 2.59686 -2.17753 0
M  V30 1872 C 173.823 2.63663 -3.48999 0
M  V30 1873 C 172.882 3.81845 -3.62051 0
M  V30 1874 O 171.908 3.67559 -4.34613 0
M  V30 1875 N 173.11 4.98557 -2.97357 0
M  V30 1876 H 175.875 0.917118 -2.85323 0
M  V30 1877 H 173.436 0.354895 -1.57962 0
M  V30 1878 H 175.428 3.37225 -2.23743 0
M  V30 1879 H 173.998 2.83251 -1.32242 0
M  V30 1880 H 173.218 1.72173 -3.54612 0
M  V30 1881 H 174.506 2.63336 -4.35352 0
M  V30 1882 H 173.904 5.13065 -2.38287 0
M  V30 1883 H 172.461 5.73936 -3.08934 0
M  V30 1884 N 175.894 1.51508 0.433938 0
M  V30 1885 C 177.14 1.64588 1.18484 0
M  V30 1886 C 177.473 0.362666 1.90784 0
M  V30 1887 O 176.748 -0.637892 1.83742 0
M  V30 1888 C 177.031 2.85149 2.19913 0
M  V30 1889 C 176.884 4.23456 1.51674 0
M  V30 1890 C 178.203 3.01227 3.20858 0
M  V30 1891 H 175.322 0.598994 0.429389 0
M  V30 1892 H 177.964 1.84002 0.473647 0
M  V30 1893 H 176.114 2.68729 2.80566 0
M  V30 1894 H 177.786 4.51552 0.943322 0
M  V30 1895 H 176.029 4.25998 0.819035 0
M  V30 1896 H 176.7 5.03812 2.2556 0
M  V30 1897 H 179.176 3.16382 2.70263 0
M  V30 1898 H 178.052 3.87141 3.89118 0
M  V30 1899 H 178.313 2.13447 3.8716 0
M  V30 1900 N 177.372 -0.689602 1.41712 0
M  V30 1901 C 178.602 -1.47613 1.44548 0
M  V30 1902 C 179.01 -1.89132 0.0509034 0
M  V30 1903 O 178.353 -1.57741 -0.94146 0
M  V30 1904 C 178.415 -2.76596 2.2964 0
M  V30 1905 C 178.079 -2.57245 3.77722 0
M  V30 1906 C 179.076 -2.22804 4.69739 0
M  V30 1907 C 176.761 -2.727 4.2183 0
M  V30 1908 C 178.755 -2.04064 6.03851 0
M  V30 1909 C 176.442 -2.53576 5.56006 0
M  V30 1910 C 177.44 -2.1931 6.46832 0
M  V30 1911 O 177.128 -2.00359 7.78532 0
M  V30 1912 H 176.86 -0.461227 0.494212 0
M  V30 1913 H 179.414 -0.856045 1.86711 0
M  V30 1914 H 177.644 -3.41033 1.82301 0
M  V30 1915 H 179.333 -3.38424 2.24107 0
M  V30 1916 H 180.099 -2.10473 4.36951 0
M  V30 1917 H 175.978 -2.98353 3.51435 0
M  V30 1918 H 179.522 -1.77241 6.74708 0
M  V30 1919 H 175.419 -2.65499 5.88371 0
M  V30 1920 H 176.187 -2.15075 7.89737 0
M  V30 1921 N 178.85 -1.27639 -0.924453 0
M  V30 1922 C 179.78 -1.13166 -2.04244 0
M  V30 1923 C 180.761 -0.032256 -1.70069 0
M  V30 1924 O 181.946 -0.207328 -1.9309 0
M  V30 1925 C 179.076 -0.781496 -3.38393 0
M  V30 1926 C 178.03 -1.83449 -3.86692 0
M  V30 1927 C 177.356 -1.33822 -5.17683 0
M  V30 1928 C 178.656 -3.23917 -4.09726 0
M  V30 1929 H 180.35 -2.06689 -2.1661 0
M  V30 1930 H 177.896 -0.995136 -1.04082 0
M  V30 1931 H 179.849 -0.667057 -4.16087 0
M  V30 1932 H 178.573 0.189439 -3.2605 0
M  V30 1933 H 177.232 -1.93789 -3.11193 0
M  V30 1934 H 176.88 -0.35665 -5.01734 0
M  V30 1935 H 176.58 -2.04224 -5.50968 0
M  V30 1936 H 178.104 -1.23679 -5.97943 0
M  V30 1937 H 179.518 -3.16559 -4.77978 0
M  V30 1938 H 177.915 -3.92059 -4.54324 0
M  V30 1939 H 178.985 -3.68729 -3.14908 0
M  V30 1940 N 180.328 1.1314 -1.09713 0
M  V30 1941 C 181.275 2.18642 -0.739196 0
M  V30 1942 C 182.245 1.63706 0.280978 0
M  V30 1943 O 183.43 1.90111 0.161946 0
M  V30 1944 C 180.57 3.44685 -0.169102 0
M  V30 1945 C 179.683 4.13711 -1.24367 0
M  V30 1946 C 178.818 5.27379 -0.636019 0
M  V30 1947 C 177.857 5.88259 -1.69169 0
M  V30 1948 N 176.994 6.93352 -1.10485 0
M  V30 1949 H 181.834 2.48607 -1.64312 0
M  V30 1950 H 179.371 1.22066 -0.820875 0
M  V30 1951 H 181.329 4.16815 0.179256 0
M  V30 1952 H 179.959 3.15161 0.698079 0
M  V30 1953 H 179.011 3.39835 -1.70927 0
M  V30 1954 H 180.323 4.55037 -2.04311 0
M  V30 1955 H 179.477 6.06238 -0.236677 0
M  V30 1956 H 178.216 4.8731 0.194928 0
M  V30 1957 H 177.221 5.08092 -2.10055 0
M  V30 1958 H 178.446 6.30399 -2.52536 0
M  V30 1959 H 176.392 6.55335 -0.295234 0
M  V30 1960 H 176.309 7.33236 -1.84121 0
M  V30 1961 H 177.577 7.76057 -0.73181 0
M  V30 1962 O 181.845 1.01778 1.25393 0
M  V30 1963 H 182.536 0.678396 1.81432 0
M  V30 END ATOM
M  V30 BEGIN BOND
M  V30 END BOND
M  V30 END CTAB
M  END
$$$$
