drugbank_target|Q7K6A4 S-adenosylmethionine synthase (DB11638)
 OpenBabel12092121103D

  0  0  0     0  0            999 V3000
M  V30 BEGIN CTAB
M  V30 COUNTS 6298 6362 0 0 0
M  V30 BEGIN ATOM
M  V30 1 H -0.908 1.98254 -0.117106 0
M  V30 2 N 0 1.576 0 0
M  V30 3 C 0.933 2.03868 1.02534 0
M  V30 4 C 1.911 0.928543 1.3348 0
M  V30 5 O 3.095 1.19667 1.45644 0
M  V30 6 C 0.222 2.43627 2.35294 0
M  V30 7 C -0.732 3.65373 2.2001 0
M  V30 8 S 0.101 5.13292 1.52614 0
M  V30 9 C 1.257 5.56322 2.86805 0
M  V30 10 H 1.49 2.90518 0.631377 0
M  V30 11 H -0.977 1.52953 0.210867 0
M  V30 12 H 0.981 2.67203 3.11629 0
M  V30 13 H -0.358 1.57376 2.7183 0
M  V30 14 H -1.165 3.90944 3.18086 0
M  V30 15 H -1.563 3.418 1.51819 0
M  V30 16 H 0.729 5.58782 3.83104 0
M  V30 17 H 1.672 6.56266 2.65933 0
M  V30 18 H 2.08 4.83886 2.90714 0
M  V30 19 N 1.4781 -0.272755 1.55222 0
M  V30 20 C 2.7031 -1.02683 1.80197 0
M  V30 21 C 3.1281 -1.79142 0.573551 0
M  V30 22 O 2.4861 -1.74917 -0.476849 0
M  V30 23 C 2.5341 -1.9609 3.02624 0
M  V30 24 O 1.6381 -3.04863 2.77727 0
M  V30 25 H 0.9791 -0.293557 0.595584 0
M  V30 26 H 3.5091 -0.30159 2.02365 0
M  V30 27 H 3.5191 -2.38039 3.31363 0
M  V30 28 H 2.1941 -1.39851 3.91682 0
M  V30 29 H 0.7711 -2.67228 2.60084 0
M  V30 30 N 2.9562 -1.48159 -0.537278 0
M  V30 31 C 3.8882 -1.58218 -1.65831 0
M  V30 32 C 4.9012 -0.466948 -1.5596 0
M  V30 33 O 6.0902 -0.73747 -1.62553 0
M  V30 34 C 3.1902 -1.48906 -3.04434 0
M  V30 35 C 2.3632 -2.75343 -3.3986 0
M  V30 36 C 1.4222 -2.59588 -4.57712 0
M  V30 37 O 0.4482 -3.33457 -4.61297 0
M  V30 38 N 1.6502 -1.68724 -5.55439 0
M  V30 39 H 4.4152 -2.54891 -1.57641 0
M  V30 40 H 1.9762 -1.4479 -0.724386 0
M  V30 41 H 3.9682 -1.36072 -3.81139 0
M  V30 42 H 2.5382 -0.602368 -3.06741 0
M  V30 43 H 1.7582 -3.02795 -2.52406 0
M  V30 44 H 3.0462 -3.5924 -3.60311 0
M  V30 45 H 2.4442 -1.07898 -5.55315 0
M  V30 46 H 1.0012 -1.61832 -6.3139 0
M  V30 47 N 4.4343 0.785586 -1.36625 0
M  V30 48 C 5.3643 1.91259 -1.33949 0
M  V30 49 C 6.3453 1.68795 -0.210325 0
M  V30 50 O 7.5303 1.89854 -0.408561 0
M  V30 51 C 4.6603 3.28339 -1.13186 0
M  V30 52 C 3.6143 3.65335 -2.22967 0
M  V30 53 C 2.9403 5.00806 -1.87342 0
M  V30 54 C 4.2403 3.7352 -3.65075 0
M  V30 55 H 5.9343 1.93755 -2.28253 0
M  V30 56 H 3.4803 0.930788 -1.09874 0
M  V30 57 H 5.4333 4.06804 -1.09948 0
M  V30 58 H 4.1573 3.2624 -0.153332 0
M  V30 59 H 2.8163 2.89169 -2.25337 0
M  V30 60 H 2.4643 4.95233 -0.880545 0
M  V30 61 H 2.1643 5.26529 -2.60846 0
M  V30 62 H 3.6883 5.81687 -1.85667 0
M  V30 63 H 5.1023 4.42168 -3.64911 0
M  V30 64 H 3.4993 4.10731 -4.37516 0
M  V30 65 H 4.5693 2.74527 -3.99703 0
M  V30 66 N 5.9124 1.20967 1.01018 0
M  V30 67 C 6.8594 0.964281 2.09691 0
M  V30 68 C 7.8294 -0.107853 1.65749 0
M  V30 69 O 9.0144 0.0381987 1.90762 0
M  V30 70 C 6.1544 0.52943 3.41015 0
M  V30 71 C 5.2674 1.67043 3.98398 0
M  V30 72 C 4.4024 1.18525 5.17808 0
M  V30 73 C 3.4414 2.29892 5.67288 0
M  V30 74 N 2.5784 1.82546 6.77954 0
M  V30 75 H 7.4184 1.89463 2.30017 0
M  V30 76 H 4.9554 0.944289 1.1279 0
M  V30 77 H 6.9134 0.258588 4.16398 0
M  V30 78 H 5.5434 -0.363919 3.20742 0
M  V30 79 H 4.5954 2.05603 3.20049 0
M  V30 80 H 5.9074 2.50877 4.31117 0
M  V30 81 H 5.0614 0.870762 6.00419 0
M  V30 82 H 3.8004 0.316887 4.86669 0
M  V30 83 H 2.8054 2.6215 4.83278 0
M  V30 84 H 4.0304 3.17216 6.00459 0
M  V30 85 H 1.9764 0.980454 6.48632 0
M  V30 86 H 1.8934 2.59956 7.09901 0
M  V30 87 H 3.1614 1.54115 7.64113 0
M  V30 88 N 7.3905 -1.2043 1.01659 0
M  V30 89 C 8.6395 -1.89118 0.701237 0
M  V30 90 C 8.9525 -1.79705 -0.772358 0
M  V30 91 O 10.1585 -2.43528 -1.20026 0
M  V30 92 C 8.6145 -3.39168 1.20388 0
M  V30 93 C 8.2225 -3.57166 2.70438 0
M  V30 94 C 9.9665 -4.1341 0.963953 0
M  V30 95 C 7.8735 -5.01042 3.14183 0
M  V30 96 H 6.8035 -0.708267 0.2586 0
M  V30 97 H 9.4545 -1.36239 1.22927 0
M  V30 98 H 7.8365 -3.91369 0.603824 0
M  V30 99 H 9.0105 -3.15351 3.35992 0
M  V30 100 H 7.3255 -2.96294 2.92572 0
M  V30 101 H 9.9225 -5.19491 1.26621 0
M  V30 102 H 10.2655 -4.16181 -0.099578 0
M  V30 103 H 10.7985 -3.67309 1.52738 0
M  V30 104 H 7.5375 -5.03426 4.19812 0
M  V30 105 H 7.0575 -5.43668 2.53348 0
M  V30 106 H 8.7365 -5.69623 3.0682 0
M  V30 107 N 8.8686 -0.792821 -1.36206 0
M  V30 108 C 9.8156 -0.191653 -2.30003 0
M  V30 109 C 10.7856 0.666453 -1.52143 0
M  V30 110 O 11.9706 0.61442 -1.80636 0
M  V30 111 C 9.1106 0.664848 -3.38635 0
M  V30 112 C 8.2236 -0.212175 -4.31479 0
M  V30 113 C 7.3586 0.651022 -5.27196 0
M  V30 114 C 6.3976 -0.227247 -6.11678 0
M  V30 115 N 5.5346 0.595127 -6.99573 0
M  V30 116 H 10.3746 -0.996978 -2.80828 0
M  V30 117 H 7.9116 -0.503206 -1.38225 0
M  V30 118 H 9.8696 1.17645 -4.00269 0
M  V30 119 H 8.4996 1.43557 -2.89122 0
M  V30 120 H 7.5516 -0.841777 -3.70969 0
M  V30 121 H 8.8636 -0.888751 -4.90818 0
M  V30 122 H 8.0176 1.2283 -5.94136 0
M  V30 123 H 6.7566 1.36121 -4.68319 0
M  V30 124 H 5.7616 -0.816904 -5.43697 0
M  V30 125 H 6.9866 -0.93509 -6.72631 0
M  V30 126 H 4.9326 1.28955 -6.432 0
M  V30 127 H 4.8496 -0.0236952 -7.55996 0
M  V30 128 H 6.1176 1.15613 -7.70879 0
M  V30 129 N 10.3467 1.47872 -0.545128 0
M  V30 130 C 11.7627 1.5829 -0.204032 0
M  V30 131 C 11.9627 1.54529 1.29317 0
M  V30 132 O 11.0187 1.44232 2.07252 0
M  V30 133 C 12.3317 2.89304 -0.819987 0
M  V30 134 C 13.8797 3.02864 -0.790105 0
M  V30 135 C 14.3547 4.3656 -1.38491 0
M  V30 136 N 15.8457 4.43165 -1.34755 0
M  V30 137 C 16.5807 5.45153 -1.77753 0
M  V30 138 N 16.0767 6.54016 -2.2855 0
M  V30 139 N 17.8697 5.36125 -1.68897 0
M  V30 140 H 10.0207 1.4856 -1.51802 0
M  V30 141 H 12.2837 0.706305 -0.632327 0
M  V30 142 H 11.9897 2.97757 -1.87173 0
M  V30 143 H 11.8637 3.75957 -0.305915 0
M  V30 144 H 14.2507 2.94014 0.252913 0
M  V30 145 H 14.3317 2.17782 -1.34181 0
M  V30 146 H 13.9757 4.46164 -2.42693 0
M  V30 147 H 13.9057 5.20353 -0.808754 0
M  V30 148 H 16.3967 3.65083 -0.975855 0
M  V30 149 H 16.7097 7.27994 -2.59314 0
M  V30 150 H 15.0547 6.54938 -2.32553 0
M  V30 151 H 18.2457 4.49975 -1.28998 0
M  V30 152 H 18.4187 6.15472 -2.02726 0
M  V30 153 N 11.8248 0.280983 1.55075 0
M  V30 154 C 13.0728 -0.333455 1.9933 0
M  V30 155 C 13.3938 -1.55937 1.17085 0
M  V30 156 O 12.6638 -1.94143 0.261805 0
M  V30 157 H 11.2438 -0.126197 0.736263 0
M  V30 158 H 13.9058 0.387678 1.91005 0
M  V30 159 H 13.0018 -0.619292 3.05894 0
M  V30 160 N 13.3029 -1.57598 0.00835791 0
M  V30 161 C 14.2509 -2.10078 -0.998508 0
M  V30 162 C 15.2449 -1.02262 -1.35051 0
M  V30 163 O 16.4509 -1.20719 -1.33518 0
M  V30 164 H 12.8259 -0.670903 -0.339696 0
M  V30 165 H 14.7969 -2.93648 -0.530398 0
M  V30 166 C 13.5459 -2.62615 -2.27879 0
M  V30 167 H 12.8689 -3.45213 -2.01662 0
M  V30 168 H 14.3089 -3.03004 -2.96588 0
M  V30 169 C 12.7679 -1.54407 -2.99433 0
M  V30 170 O 13.2979 -0.931812 -3.90743 0
M  V30 171 N 11.5039 -1.2695 -2.61404 0
M  V30 172 H 11.0509 -1.76924 -1.87232 0
M  V30 173 H 11.0089 -0.547704 -3.09593 0
M  V30 174 N 14.781 0.264519 -1.55364 0
M  V30 175 C 16.028 0.994986 -1.7637 0
M  V30 176 C 16.356 1.85976 -0.5695 0
M  V30 177 O 15.611 1.90509 0.44776 0
M  V30 178 C 15.91 1.9004 -3.02687 0
M  V30 179 C 15.576 1.19243 -4.34847 0
M  V30 180 C 14.238 0.996709 -4.70764 0
M  V30 181 C 16.59 0.689296 -5.16622 0
M  V30 182 C 13.918 0.285261 -5.86006 0
M  V30 183 C 16.27 -0.00860079 -6.32599 0
M  V30 184 C 14.934 -0.215963 -6.67151 0
M  V30 185 H 14.204 0.364091 -0.645383 0
M  V30 186 H 16.851 0.266543 -1.89636 0
M  V30 187 H 15.156 2.69533 -2.84357 0
M  V30 188 H 16.853 2.46695 -3.16137 0
M  V30 189 H 13.443 1.3549 -4.06621 0
M  V30 190 H 17.627 0.828108 -4.89342 0
M  V30 191 H 12.883 0.113961 -6.11294 0
M  V30 192 H 17.057 -0.406186 -6.95214 0
M  V30 193 H 14.684 -0.769217 -7.56298 0
M  V30 194 N 16.2591 1.48442 0.529413 0
M  V30 195 C 17.1891 1.65902 1.64313 0
M  V30 196 C 18.1701 0.507897 1.6234 0
M  V30 197 O 19.3551 0.740503 1.79528 0
M  V30 198 C 16.4851 1.69911 3.02898 0
M  V30 199 C 15.4391 2.8453 3.19729 0
M  V30 200 C 14.7651 2.73629 4.59381 0
M  V30 201 C 16.0651 4.25821 3.02447 0
M  V30 202 H 17.7591 2.5914 1.49955 0
M  V30 203 H 15.3051 1.24709 0.719982 0
M  V30 204 H 17.2581 1.80715 3.80684 0
M  V30 205 H 15.9821 0.732524 3.18279 0
M  V30 206 H 14.6411 2.73283 2.44361 0
M  V30 207 H 14.2891 1.74938 4.71599 0
M  V30 208 H 13.9891 3.50541 4.71588 0
M  V30 209 H 15.5131 2.86401 5.39265 0
M  V30 210 H 16.9271 4.37898 3.70024 0
M  V30 211 H 15.3241 5.03735 3.26146 0
M  V30 212 H 16.3941 4.42244 1.98867 0
M  V30 213 N 17.7372 -0.778329 1.37039 0
M  V30 214 C 18.9842 -1.53665 1.31884 0
M  V30 215 C 19.3122 -1.9425 -0.0986303 0
M  V30 216 O 18.5672 -1.63832 -1.07041 0
M  V30 217 C 18.8662 -2.81845 2.19768 0
M  V30 218 C 18.5322 -2.60345 3.68146 0
M  V30 219 C 17.1942 -2.5419 4.08584 0
M  V30 220 C 19.5462 -2.40923 4.62175 0
M  V30 221 C 16.8742 -2.26594 5.41177 0
M  V30 222 C 19.2262 -2.14852 5.94997 0
M  V30 223 C 17.8902 -2.07137 6.34547 0
M  V30 224 H 17.1602 -0.562299 0.482598 0
M  V30 225 H 19.8072 -0.897069 1.69189 0
M  V30 226 H 18.1122 -3.50328 1.75436 0
M  V30 227 H 19.8092 -3.39692 2.13097 0
M  V30 228 H 16.3992 -2.65996 3.36072 0
M  V30 229 H 20.5832 -2.44673 4.31797 0
M  V30 230 H 15.8392 -2.19111 5.70789 0
M  V30 231 H 20.0132 -1.98822 6.67415 0
M  V30 232 H 17.6402 -1.85518 7.37216 0
M  V30 233 N 19.2153 -1.21501 -1.00376 0
M  V30 234 C 20.4433 -1.059 -1.77744 0
M  V30 235 C 20.8583 0.391125 -1.84704 0
M  V30 236 O 20.2153 1.27133 -1.30933 0
M  V30 237 C 20.2663 -1.65111 -3.21591 0
M  V30 238 O 19.9873 -3.0445 -3.15027 0
M  V30 239 C 21.4883 -1.54637 -4.15454 0
M  V30 240 H 18.7083 -0.371825 -0.558558 0
M  V30 241 H 21.2523 -1.60865 -1.26264 0
M  V30 242 H 19.4073 -1.14235 -3.70175 0
M  V30 243 H 19.8213 -3.3278 -4.0541 0
M  V30 244 H 21.2953 -2.00808 -5.14179 0
M  V30 245 H 21.7723 -0.501022 -4.36333 0
M  V30 246 H 22.3783 -2.04767 -3.72761 0
M  V30 247 N 20.6934 1.19889 -1.02296 0
M  V30 248 C 21.9184 1.9393 -0.735237 0
M  V30 249 C 22.3434 1.74639 0.698782 0
M  V30 250 O 21.7014 1.04481 1.48167 0
M  V30 251 C 21.7494 3.43916 -1.08417 0
M  V30 252 O 20.8534 4.11917 -0.199446 0
M  V30 253 H 20.1944 0.605645 -0.272196 0
M  V30 254 H 22.7244 1.52137 -1.36804 0
M  V30 255 H 22.7344 3.9456 -1.03856 0
M  V30 256 H 21.4094 3.5728 -2.12894 0
M  V30 257 H 19.9864 3.71666 -0.303136 0
M  V30 258 N 22.1715 0.800033 1.35784 0
M  V30 259 C 23.0815 0.207204 2.33683 0
M  V30 260 C 24.0975 -0.64631 1.61551 0
M  V30 261 O 25.2735 -0.559604 1.93469 0
M  V30 262 C 22.3385 -0.639659 3.40748 0
M  V30 263 C 21.3995 0.233585 4.28664 0
M  V30 264 C 20.6325 -0.572954 5.30616 0
M  V30 265 O 20.8555 -1.80816 5.40982 0
M  V30 266 O 19.7895 0.0327285 6.01891 0
M  V30 267 H 23.6155 1.01692 2.86169 0
M  V30 268 H 21.2005 0.561691 1.38439 0
M  V30 269 H 23.0825 -1.12223 4.06182 0
M  V30 270 H 21.7575 -1.42708 2.90544 0
M  V30 271 H 20.6645 0.763147 3.66233 0
M  V30 272 H 21.9975 0.984784 4.82248 0
M  V30 273 N 23.6496 -1.47581 0.552962 0
M  V30 274 C 24.8746 -2.07378 0.0300593 0
M  V30 275 C 25.2996 -1.40355 -1.25229 0
M  V30 276 O 24.6576 -0.477099 -1.7491 0
M  V30 277 C 24.7056 -3.60274 -0.153231 0
M  V30 278 O 23.8096 -3.94041 -1.21678 0
M  V30 279 H 23.1506 -0.662158 0.0494182 0
M  V30 280 H 25.6806 -1.89662 0.767434 0
M  V30 281 H 25.6906 -4.0633 -0.368761 0
M  V30 282 H 24.3656 -4.08455 0.783397 0
M  V30 283 H 22.9426 -3.59735 -0.982079 0
M  V30 284 N 25.1277 -0.289203 -1.54924 0
M  V30 285 C 26.3737 0.323998 -2.00195 0
M  V30 286 C 26.7067 1.54441 -1.17735 0
M  V30 287 O 25.9817 1.92875 -0.250878 0
M  V30 288 C 26.2647 0.692276 -3.53383 0
M  V30 289 C 26.1177 -0.536457 -4.46589 0
M  V30 290 C 27.4367 1.52335 -4.12895 0
M  V30 291 H 24.5557 0.116289 -0.727768 0
M  V30 292 H 27.1977 -0.398954 -1.85764 0
M  V30 293 H 25.3477 1.30822 -3.65811 0
M  V30 294 H 27.0197 -1.17499 -4.46085 0
M  V30 295 H 25.2627 -1.17192 -4.1767 0
M  V30 296 H 25.9337 -0.234806 -5.515 0
M  V30 297 H 28.4097 1.00302 -4.0383 0
M  V30 298 H 27.2857 1.74982 -5.20262 0
M  V30 299 H 27.5467 2.50886 -3.64018 0
M  V30 300 N 26.6058 1.57591 -0.0167156 0
M  V30 301 C 27.5538 2.10604 0.987353 0
M  V30 302 C 28.5478 1.02977 1.34507 0
M  V30 303 O 29.7538 1.21425 1.32875 0
M  V30 304 H 26.1288 0.672695 0.336134 0
M  V30 305 H 28.0998 2.93925 0.514817 0
M  V30 306 C 26.8488 2.6382 2.26483 0
M  V30 307 H 26.1718 3.46278 1.99829 0
M  V30 308 H 27.6118 3.04573 2.94977 0
M  V30 309 C 26.0708 1.55992 2.9861 0
M  V30 310 O 26.6008 0.952521 3.90243 0
M  V30 311 N 24.8068 1.28335 2.60727 0
M  V30 312 H 24.3538 1.77914 1.86291 0
M  V30 313 H 24.3118 0.564115 3.09298 0
M  V30 314 N 28.0839 -0.256276 1.55502 0
M  V30 315 C 28.9939 -1.33882 1.92647 0
M  V30 316 C 30.0099 -1.53159 0.825727 0
M  V30 317 O 31.1859 -1.66963 1.12629 0
M  V30 318 C 28.2509 -2.6751 2.20543 0
M  V30 319 C 27.3119 -2.56836 3.43997 0
M  V30 320 C 26.5449 -3.84092 3.70553 0
M  V30 321 O 26.7679 -4.85545 2.99336 0
M  V30 322 O 25.7019 -3.83288 4.64084 0
M  V30 323 H 29.5279 -1.05374 2.84833 0
M  V30 324 H 27.1129 -0.456237 1.42263 0
M  V30 325 H 28.9949 -3.46492 2.39835 0
M  V30 326 H 27.6699 -2.9577 1.31536 0
M  V30 327 H 26.5769 -1.76172 3.30021 0
M  V30 328 H 27.9099 -2.33523 4.33275 0
M  V30 329 N 29.562 -1.4872 -0.521534 0
M  V30 330 C 30.81 -1.56857 -1.27437 0
M  V30 331 C 31.131 -0.247982 -1.93417 0
M  V30 332 O 30.401 0.731151 -1.81744 0
M  V30 333 H 28.981 -0.577885 -0.473347 0
M  V30 334 H 31.643 -1.85233 -0.606205 0
M  V30 335 H 30.739 -2.35402 -2.0492 0
M  V30 336 N 31.0401 0.771051 -1.3745 0
M  V30 337 C 31.9901 1.87456 -1.29785 0
M  V30 338 C 32.9741 1.59827 -0.185541 0
M  V30 339 O 34.1661 1.71945 -0.419997 0
M  V30 340 C 31.2951 3.24935 -1.1078 0
M  V30 341 C 30.3811 3.58514 -2.26558 0
M  V30 342 N 30.7721 3.6327 -3.5195 0
M  V30 343 C 29.0701 3.88683 -2.18727 0
M  V30 344 C 29.7711 3.93616 -4.283 0
M  V30 345 N 28.7471 4.09551 -3.57448 0
M  V30 346 H 32.5491 1.89386 -2.24745 0
M  V30 347 H 30.0631 0.967531 -1.30432 0
M  V30 348 H 32.0601 4.03881 -1.03374 0
M  V30 349 H 30.7201 3.24268 -0.16738 0
M  V30 350 H 31.7311 3.45458 -3.85848 0
M  V30 351 H 28.4081 3.95834 -1.32746 0
M  V30 352 H 29.7981 4.04066 -5.36824 0
M  V30 353 N 32.5182 1.22032 0.997298 0
M  V30 354 C 33.9292 1.0397 1.55071 0
M  V30 355 C 34.2802 -0.398192 1.92117 0
M  V30 356 O 33.4052 -1.28254 1.74298 0
M  V30 357 C 34.0002 1.88109 2.81781 0
M  V30 358 C 32.5592 1.74357 3.33581 0
M  V30 359 C 31.7062 1.84846 2.06706 0
M  V30 360 H 34.6572 1.35941 0.818883 0
M  V30 361 H 34.6782 1.39589 3.53971 0
M  V30 362 H 34.1902 2.92754 2.54787 0
M  V30 363 H 32.2912 0.72427 3.65493 0
M  V30 364 H 32.4042 2.56772 4.04481 0
M  V30 365 H 30.7682 1.28238 2.20062 0
M  V30 366 H 31.5512 2.91014 1.82114 0
M  V30 367 N 33.9963 -1.19345 1.0293 0
M  V30 368 C 35.2733 -1.84811 0.640642 0
M  V30 369 C 35.6533 -1.91855 -0.88062 0
M  V30 370 O 35.0013 -1.43587 -1.7775 0
M  V30 371 C 35.2113 -3.23755 1.30321 0
M  V30 372 C 36.5593 -3.99912 1.42673 0
M  V30 373 O 37.5833 -3.33155 1.26041 0
M  V30 374 O 36.4423 -5.19494 1.6967 0
M  V30 375 H 33.5363 -0.796443 0.222726 0
M  V30 376 H 36.0823 -1.26831 1.12748 0
M  V30 377 H 34.8543 -3.13466 2.34211 0
M  V30 378 H 34.4773 -3.89381 0.804261 0
M  V30 379 N 35.4744 -0.807222 -1.35358 0
M  V30 380 C 36.4214 -0.216037 -2.29787 0
M  V30 381 C 37.3914 0.650278 -1.52842 0
M  V30 382 O 38.5764 0.595227 -1.81278 0
M  V30 383 C 35.7164 0.628893 -3.39321 0
M  V30 384 C 34.8294 -0.257927 -4.31229 0
M  V30 385 C 33.9644 0.595069 -5.27856 0
M  V30 386 C 33.0034 -0.292111 -6.11403 0
M  V30 387 N 32.1404 0.520895 -7.00165 0
M  V30 388 H 36.9804 -1.02671 -2.79755 0
M  V30 389 H 34.5174 -0.517839 -1.37684 0
M  V30 390 H 36.4754 1.13393 -4.01494 0
M  V30 391 H 35.1054 1.40482 -2.90628 0
M  V30 392 H 34.1574 -0.881076 -3.70056 0
M  V30 393 H 35.4694 -0.940759 -4.89848 0
M  V30 394 H 34.6234 1.16522 -5.95405 0
M  V30 395 H 33.3624 1.31146 -4.69736 0
M  V30 396 H 32.3674 -0.874525 -5.428 0
M  V30 397 H 33.5924 -1.00638 -6.71602 0
M  V30 398 H 31.5384 1.22125 -6.44532 0
M  V30 399 H 31.4554 -0.103877 -7.55929 0
M  V30 400 H 32.7234 1.0743 -7.72062 0
M  V30 401 N 36.9525 1.47285 -0.560781 0
M  V30 402 C 38.2015 2.01668 -0.035895 0
M  V30 403 C 38.5145 1.44021 1.32353 0
M  V30 404 O 39.7205 1.90088 1.93853 0
M  V30 405 C 38.1765 3.59897 -0.0136659 0
M  V30 406 C 37.7845 4.26536 -1.37006 0
M  V30 407 C 39.5285 4.22017 0.458425 0
M  V30 408 C 37.4355 5.76782 -1.30675 0
M  V30 409 H 36.3655 0.753938 -0.00964879 0
M  V30 410 H 39.0165 1.69243 -0.709166 0
M  V30 411 H 37.3985 3.89301 0.725325 0
M  V30 412 H 38.5725 4.0877 -2.12705 0
M  V30 413 H 36.8875 3.76419 -1.78038 0
M  V30 414 H 39.4845 5.32124 0.524247 0
M  V30 415 H 39.8275 3.89437 1.4712 0
M  V30 416 H 40.3605 3.97159 -0.225818 0
M  V30 417 H 37.0995 6.13988 -2.29564 0
M  V30 418 H 36.6195 5.96875 -0.591622 0
M  V30 419 H 38.2985 6.39063 -1.01033 0
M  V30 420 N 38.4306 0.297415 1.54768 0
M  V30 421 C 39.6706 -0.313829 2.01976 0
M  V30 422 C 40.0346 -1.51366 1.1812 0
M  V30 423 O 41.2356 -2.19603 1.5501 0
M  V30 424 C 39.5066 -0.664964 3.51159 0
M  V30 425 S 41.0656 -1.25958 4.20333 0
M  V30 426 H 37.8836 -0.0965014 0.704421 0
M  V30 427 H 40.4856 0.424451 1.90837 0
M  V30 428 H 39.1896 0.21681 4.09827 0
M  V30 429 H 38.7206 -1.43413 3.66328 0
M  V30 430 H 40.7356 -2.54751 4.25813 0
M  V30 431 N 39.9087 -1.5758 0.0250728 0
M  V30 432 C 41.1857 -1.82917 -0.692873 0
M  V30 433 C 41.5657 -0.908137 -1.90568 0
M  V30 434 O 40.9137 0.0372298 -2.2847 0
M  V30 435 C 41.1237 -3.32034 -1.07492 0
M  V30 436 C 42.4717 -3.98406 -1.46826 0
M  V30 437 O 43.4957 -3.36505 -1.16801 0
M  V30 438 O 42.3547 -5.07497 -2.02754 0
M  V30 439 H 39.4487 -0.754079 -0.33955 0
M  V30 440 H 41.9947 -1.69619 0.0524456 0
M  V30 441 H 40.7667 -3.90728 -0.211552 0
M  V30 442 H 40.3897 -3.50424 -1.87854 0
M  V30 443 N 41.3868 0.248026 -1.55636 0
M  V30 444 C 42.3188 1.32993 -1.8667 0
M  V30 445 C 43.3318 1.44345 -0.752877 0
M  V30 446 O 44.5208 1.45715 -1.03098 0
M  V30 447 C 41.6208 2.70863 -2.03682 0
M  V30 448 C 40.7938 2.81792 -3.34532 0
M  V30 449 C 39.8528 4.005 -3.41301 0
M  V30 450 O 38.8788 3.9008 -4.14519 0
M  V30 451 N 40.0808 5.13618 -2.70512 0
M  V30 452 H 42.8458 1.06707 -2.8006 0
M  V30 453 H 40.4068 0.438129 -1.55859 0
M  V30 454 H 42.3988 3.48612 -2.05553 0
M  V30 455 H 40.9688 2.89862 -1.17041 0
M  V30 456 H 40.1888 1.90729 -3.44987 0
M  V30 457 H 41.4768 2.86043 -4.20781 0
M  V30 458 H 40.8748 5.24975 -2.10755 0
M  V30 459 H 39.4318 5.89505 -2.78077 0
M  V30 460 N 42.8649 1.48995 0.513639 0
M  V30 461 C 44.1139 1.57093 1.2651 0
M  V30 462 C 44.4269 0.257091 1.93903 0
M  V30 463 O 45.6329 0.216478 2.70636 0
M  V30 464 C 44.0889 2.77118 2.29638 0
M  V30 465 C 43.6969 4.15209 1.68241 0
M  V30 466 C 45.4409 2.94538 3.05692 0
M  V30 467 C 43.3479 5.26474 2.69406 0
M  V30 468 H 42.2779 0.584876 0.475854 0
M  V30 469 H 44.9289 1.7536 0.540487 0
M  V30 470 H 43.3109 2.52319 3.05207 0
M  V30 471 H 44.4849 4.50094 0.987505 0
M  V30 472 H 42.7999 4.03042 1.04623 0
M  V30 473 H 45.3969 3.74832 3.8132 0
M  V30 474 H 45.7399 2.04614 3.62545 0
M  V30 475 H 46.2729 3.19316 2.37238 0
M  V30 476 H 43.0119 6.18417 2.17351 0
M  V30 477 H 42.5319 4.96058 3.37175 0
M  V30 478 H 44.2109 5.55277 3.32078 0
M  V30 479 N 44.343 -0.763751 1.37857 0
M  V30 480 C 45.568 -1.55805 1.36893 0
M  V30 481 C 45.993 -1.88054 -0.0416135 0
M  V30 482 O 45.351 -1.49825 -1.02089 0
M  V30 483 C 45.399 -2.84012 2.22192 0
M  V30 484 O 44.503 -3.78732 1.63204 0
M  V30 485 H 43.844 -0.471638 0.46739 0
M  V30 486 H 46.374 -0.944657 1.81487 0
M  V30 487 H 46.384 -3.33037 2.35691 0
M  V30 488 H 45.059 -2.59869 3.24716 0
M  V30 489 H 43.636 -3.37402 1.58791 0
M  V30 490 N 45.8211 -1.22559 -0.990812 0
M  V30 491 C 47.0981 -0.959875 -1.70428 0
M  V30 492 C 47.4781 0.524455 -2.04481 0
M  V30 493 O 46.8261 1.49302 -1.72977 0
M  V30 494 C 47.0361 -1.85955 -2.95333 0
M  V30 495 C 48.3841 -2.11687 -3.68068 0
M  V30 496 O 49.4081 -1.8342 -3.05345 0
M  V30 497 O 48.2671 -2.59572 -4.80921 0
M  V30 498 H 45.3611 -0.361154 -0.743974 0
M  V30 499 H 47.9071 -1.33554 -1.04697 0
M  V30 500 H 46.6791 -2.86346 -2.66687 0
M  V30 501 H 46.3021 -1.4856 -3.68803 0
M  V30 502 N 47.2992 1.18797 -1.03562 0
M  V30 503 C 48.2622 2.20464 -0.626769 0
M  V30 504 C 49.2622 1.57721 0.313173 0
M  V30 505 O 50.4522 1.73917 0.0992615 0
M  V30 506 C 47.5842 3.40802 0.0818498 0
M  V30 507 H 48.7772 2.58149 -1.5264 0
M  V30 508 H 46.3302 1.32593 -0.827578 0
M  V30 509 H 47.0652 3.08642 0.995518 0
M  V30 510 H 46.8502 3.8758 -0.593652 0
M  V30 511 H 48.3402 4.16092 0.354584 0
M  V30 512 N 48.7773 0.814389 1.34928 0
M  V30 513 C 50.0263 0.394871 1.97797 0
M  V30 514 C 50.3393 -1.04555 1.65311 0
M  V30 515 O 51.5453 -1.56856 2.21604 0
M  V30 516 C 50.0013 0.655103 3.53888 0
M  V30 517 C 49.6093 2.10858 3.95276 0
M  V30 518 C 51.3533 0.301329 4.23429 0
M  V30 519 C 49.2603 2.31415 5.44244 0
M  V30 520 H 48.1903 0.143913 0.740139 0
M  V30 521 H 50.8413 0.999544 1.53888 0
M  V30 522 H 49.2233 -0.0196253 3.95995 0
M  V30 523 H 50.3973 2.82176 3.64298 0
M  V30 524 H 48.7123 2.42297 3.38646 0
M  V30 525 H 51.3093 0.432869 5.32945 0
M  V30 526 H 51.6523 -0.75331 4.09428 0
M  V30 527 H 52.1853 0.930288 3.86769 0
M  V30 528 H 48.9243 3.35353 5.63222 0
M  V30 529 H 48.4443 1.6463 5.76764 0
M  V30 530 H 50.1233 2.13352 6.10811 0
M  V30 531 N 50.2554 -1.46986 0.568584 0
M  V30 532 C 51.1854 -2.32946 -0.160753 0
M  V30 533 C 52.1664 -1.44487 -0.897631 0
M  V30 534 O 53.3514 -1.73327 -0.875867 0
M  V30 535 C 50.4814 -3.26494 -1.18403 0
M  V30 536 C 49.4354 -4.24282 -0.562895 0
M  V30 537 C 48.7614 -5.07236 -1.69163 0
M  V30 538 C 50.0614 -5.19989 0.490761 0
M  V30 539 H 51.7554 -2.94175 0.556916 0
M  V30 540 H 49.3014 -1.4146 0.26927 0
M  V30 541 H 51.2544 -3.85477 -1.70251 0
M  V30 542 H 49.9784 -2.63343 -1.93179 0
M  V30 543 H 48.6374 -3.66541 -0.0656164 0
M  V30 544 H 48.2854 -4.4048 -2.42871 0
M  V30 545 H 47.9854 -5.7345 -1.28174 0
M  V30 546 H 49.5094 -5.6908 -2.21314 0
M  V30 547 H 50.9234 -5.73271 0.0579047 0
M  V30 548 H 49.3204 -5.94469 0.820165 0
M  V30 549 H 50.3904 -4.64777 1.3824 0
M  V30 550 N 51.7335 -0.305618 -1.54608 0
M  V30 551 C 53.0105 0.355652 -1.92339 0
M  V30 552 C 53.3905 1.71324 -1.23335 0
M  V30 553 O 52.7385 2.25473 -0.370702 0
M  V30 554 C 52.9485 0.46572 -3.45879 0
M  V30 555 C 54.2965 0.734426 -4.182 0
M  V30 556 O 55.3205 0.54935 -3.51938 0
M  V30 557 O 54.1795 1.09024 -5.35515 0
M  V30 558 H 51.2735 0.199666 -0.802535 0
M  V30 559 H 53.8195 -0.354017 -1.65966 0
M  V30 560 H 52.5915 -0.488461 -3.88239 0
M  V30 561 H 52.2145 1.22367 -3.78301 0
M  V30 562 N 53.2116 1.57565 -0.0334293 0
M  V30 563 C 54.4366 1.96689 0.657895 0
M  V30 564 C 54.8616 0.910057 1.64619 0
M  V30 565 O 54.2196 -0.128598 1.80843 0
M  V30 566 C 54.2676 3.34905 1.33683 0
M  V30 567 O 53.3716 3.31574 2.45219 0
M  V30 568 H 52.7126 0.641205 0.172489 0
M  V30 569 H 55.2426 2.04372 -0.0965621 0
M  V30 570 H 55.2526 3.71234 1.69262 0
M  V30 571 H 53.9276 4.11366 0.612411 0
M  V30 572 H 52.5046 3.06968 2.11719 0
M  V30 573 N 54.6897 -0.239769 1.55765 0
M  V30 574 C 55.9297 -0.974076 1.79697 0
M  V30 575 C 56.2937 -1.82249 0.604088 0
M  V30 576 O 57.4947 -2.58913 0.722324 0
M  V30 577 C 55.7657 -1.80595 3.08416 0
M  V30 578 S 57.3247 -2.59838 3.53596 0
M  V30 579 H 54.1427 -0.327524 0.63107 0
M  V30 580 H 56.7447 -0.241277 1.94005 0
M  V30 581 H 55.4487 -1.17249 3.93295 0
M  V30 582 H 54.9797 -2.58137 2.96865 0
M  V30 583 H 56.9947 -3.82987 3.15492 0
M  V30 584 N 56.1678 -1.49265 -0.50573 0
M  V30 585 C 57.0978 -1.68495 -1.61653 0
M  V30 586 C 58.0788 -0.53366 -1.61512 0
M  V30 587 O 59.2638 -0.76897 -1.78327 0
M  V30 588 C 56.3938 -1.74709 -3.00157 0
M  V30 589 C 55.3478 -2.89581 -3.15162 0
M  V30 590 C 54.6738 -2.80903 -4.5497 0
M  V30 591 C 55.9738 -4.30578 -2.95634 0
M  V30 592 H 57.6678 -2.61493 -1.45814 0
M  V30 593 H 55.2138 -1.25838 -0.70005 0
M  V30 594 H 57.1668 -1.86748 -3.77761 0
M  V30 595 H 55.8908 -0.783067 -3.17074 0
M  V30 596 H 54.5498 -2.77136 -2.39982 0
M  V30 597 H 54.1978 -1.82419 -4.68756 0
M  V30 598 H 53.8978 -3.57999 -4.65951 0
M  V30 599 H 55.4218 -2.94944 -5.34641 0
M  V30 600 H 56.8358 -4.4373 -3.63011 0
M  V30 601 H 55.2328 -5.0886 -3.18091 0
M  V30 602 H 56.3028 -4.45352 -1.91806 0
M  V30 603 N 57.6459 0.756429 -1.3826 0
M  V30 604 C 59.0619 1.0591 -1.19395 0
M  V30 605 C 59.2619 2.01459 -0.0406567 0
M  V30 606 O 58.3179 2.44909 0.614467 0
M  V30 607 C 59.6309 1.64191 -2.51916 0
M  V30 608 C 61.1789 1.76376 -2.58574 0
M  V30 609 C 61.6539 2.38069 -3.91264 0
M  V30 610 N 63.1449 2.45503 -3.92788 0
M  V30 611 C 63.8799 2.94126 -4.92217 0
M  V30 612 N 63.3759 3.42805 -6.02043 0
M  V30 613 N 65.1689 2.9314 -4.7961 0
M  V30 614 H 57.3199 0.122313 -2.12048 0
M  V30 615 H 59.5829 0.116892 -0.940766 0
M  V30 616 H 59.2889 1.01451 -3.3675 0
M  V30 617 H 59.1629 2.6329 -2.70108 0
M  V30 618 H 61.5499 2.38244 -1.74137 0
M  V30 619 H 61.6309 0.759894 -2.44252 0
M  V30 620 H 61.2749 1.76835 -4.76121 0
M  V30 621 H 61.2049 3.39091 -4.02895 0
M  V30 622 H 63.6959 2.1107 -3.13461 0
M  V30 623 H 64.0089 3.78354 -6.73846 0
M  V30 624 H 62.3539 3.4087 -6.05667 0
M  V30 625 H 65.5449 2.54419 -3.92923 0
M  V30 626 H 65.7179 3.30721 -5.5725 0
M  V30 627 N 59.124 1.23083 0.984299 0
M  V30 628 C 60.034 1.02515 2.11016 0
M  V30 629 C 61.05 -0.0291702 1.73976 0
M  V30 630 O 62.226 0.165434 2.00719 0
M  V30 631 C 59.291 0.614673 3.41208 0
M  V30 632 C 58.352 1.74359 3.92297 0
M  V30 633 C 57.585 1.35261 5.16275 0
M  V30 634 O 57.808 0.235136 5.69915 0
M  V30 635 O 56.742 2.17227 5.61334 0
M  V30 636 H 60.568 1.96862 2.31255 0
M  V30 637 H 58.153 1.01753 1.09392 0
M  V30 638 H 60.035 0.396518 4.1953 0
M  V30 639 H 58.71 -0.299851 3.22308 0
M  V30 640 H 57.617 2.01635 3.1511 0
M  V30 641 H 58.95 2.63629 4.15645 0
M  V30 642 N 60.6021 -1.18246 1.0419 0
M  V30 643 C 61.8791 -1.84121 0.660208 0
M  V30 644 C 62.2591 -1.92778 -0.860221 0
M  V30 645 O 61.6071 -1.45464 -1.76217 0
M  V30 646 C 61.8171 -3.22355 1.33747 0
M  V30 647 C 63.1651 -3.98376 1.46906 0
M  V30 648 O 64.1891 -3.31799 1.29568 0
M  V30 649 O 63.0481 -5.17665 1.75171 0
M  V30 650 H 60.1421 -0.794036 0.231161 0
M  V30 651 H 62.6881 -1.25628 1.14087 0
M  V30 652 H 61.4601 -3.10964 2.37522 0
M  V30 653 H 61.0831 -3.88506 0.845515 0
M  V30 654 N 62.0802 -0.821533 -1.34494 0
M  V30 655 C 63.4912 -0.467956 -1.8074 0
M  V30 656 C 63.8422 1.01151 -1.68116 0
M  V30 657 O 62.9672 1.78707 -1.22036 0
M  V30 658 C 63.5622 -0.842627 -3.28154 0
M  V30 659 C 62.1212 -0.541439 -3.72485 0
M  V30 660 C 61.2682 -1.06028 -2.56229 0
M  V30 661 H 64.2192 -1.01183 -1.22261 0
M  V30 662 H 64.2402 -0.145876 -3.8022 0
M  V30 663 H 63.7522 -1.91945 -3.37311 0
M  V30 664 H 61.8532 0.526034 -3.68868 0
M  V30 665 H 61.9662 -1.08453 -4.66663 0
M  V30 666 H 60.3302 -0.481892 -2.501 0
M  V30 667 H 61.1132 -2.14352 -2.68157 0
M  V30 668 N 63.5583 1.46682 -0.576371 0
M  V30 669 C 64.7883 2.06498 -0.0648694 0
M  V30 670 C 65.1963 1.42665 1.24271 0
M  V30 671 O 64.5393 0.523886 1.76071 0
M  V30 672 C 64.6013 3.5904 0.181816 0
M  V30 673 C 64.2653 4.45028 -1.0392 0
M  V30 674 C 65.2623 4.81959 -1.94966 0
M  V30 675 C 62.9473 4.86259 -1.25927 0
M  V30 676 C 64.9413 5.58942 -3.06371 0
M  V30 677 C 62.6283 5.63002 -2.37638 0
M  V30 678 C 63.6263 5.99257 -3.2769 0
M  V30 679 O 63.3143 6.7445 -4.37461 0
M  V30 680 H 63.0463 0.674028 -0.0515987 0
M  V30 681 H 65.6003 1.89393 -0.794951 0
M  V30 682 H 63.8303 3.74429 0.966436 0
M  V30 683 H 65.5193 4.00806 0.641047 0
M  V30 684 H 66.2853 4.50689 -1.79177 0
M  V30 685 H 62.1643 4.57494 -0.567448 0
M  V30 686 H 65.7083 5.87158 -3.76684 0
M  V30 687 H 61.6053 5.93686 -2.53392 0
M  V30 688 H 62.3733 6.92867 -4.35749 0
M  V30 689 N 65.0364 0.313813 1.54444 0
M  V30 690 C 66.2614 -0.296681 2.05267 0
M  V30 691 C 66.6864 -1.45757 1.18897 0
M  V30 692 O 66.0444 -1.80239 0.195886 0
M  V30 693 C 66.0924 -0.71831 3.53373 0
M  V30 694 O 65.1964 -1.82175 3.69981 0
M  V30 695 H 64.5374 -0.0554061 0.661684 0
M  V30 696 H 67.0674 0.459387 1.99376 0
M  V30 697 H 67.0774 -1.00364 3.95463 0
M  V30 698 H 65.7524 0.130821 4.15694 0
M  V30 699 H 64.3294 -1.53598 3.39797 0
M  V30 700 N 66.5145 -1.57545 0.0417849 0
M  V30 701 C 67.4615 -2.10977 -0.935805 0
M  V30 702 C 68.4315 -1.01486 -1.31491 0
M  V30 703 O 69.6165 -1.2898 -1.40602 0
M  V30 704 C 66.7565 -2.65169 -2.2086 0
M  V30 705 C 65.8695 -3.88714 -1.88482 0
M  V30 706 C 65.0045 -4.31254 -3.1015 0
M  V30 707 C 64.0435 -5.47524 -2.7365 0
M  V30 708 N 63.1805 -5.85162 -3.87982 0
M  V30 709 H 68.0205 -2.94218 -0.473249 0
M  V30 710 H 65.5575 -1.45415 -0.221981 0
M  V30 711 H 67.5155 -2.94685 -2.95325 0
M  V30 712 H 66.1455 -1.8474 -2.64709 0
M  V30 713 H 65.1975 -3.65849 -1.04205 0
M  V30 714 H 66.5095 -4.73245 -1.57608 0
M  V30 715 H 65.6635 -4.62273 -3.92923 0
M  V30 716 H 64.4025 -3.45516 -3.44195 0
M  V30 717 H 63.4075 -5.16187 -1.89291 0
M  V30 718 H 64.6325 -6.34971 -2.40807 0
M  V30 719 H 62.5785 -5.02377 -4.21846 0
M  V30 720 H 62.4955 -6.64362 -3.60775 0
M  V30 721 H 63.7635 -6.20791 -4.71422 0
M  V30 722 N 67.9926 0.231505 -1.5589 0
M  V30 723 C 69.2386 0.95877 -1.78705 0
M  V30 724 C 69.5716 1.8438 -0.609725 0
M  V30 725 O 68.8466 1.90521 0.391426 0
M  V30 726 C 69.1296 1.8062 -3.11526 0
M  V30 727 C 68.9826 0.948328 -4.39689 0
M  V30 728 C 70.3016 2.78585 -3.40703 0
M  V30 729 H 67.4206 0.347129 -0.650131 0
M  V30 730 H 70.0626 0.228259 -1.88624 0
M  V30 731 H 68.2126 2.42902 -3.03201 0
M  V30 732 H 69.8846 0.343016 -4.60023 0
M  V30 733 H 68.1276 0.253314 -4.3306 0
M  V30 734 H 68.7986 1.57543 -5.29041 0
M  V30 735 H 71.2746 2.26439 -3.49091 0
M  V30 736 H 70.1506 3.34988 -4.34826 0
M  V30 737 H 70.4116 3.55825 -2.62375 0
M  V30 738 N 69.4707 1.49531 0.497807 0
M  V30 739 C 70.4337 1.65916 1.58128 0
M  V30 740 C 71.4337 0.530825 1.51786 0
M  V30 741 O 72.6237 0.797342 1.54881 0
M  V30 742 C 69.7557 1.65951 2.9778 0
M  V30 743 H 70.9487 2.62556 1.44929 0
M  V30 744 H 68.5017 1.38611 0.722275 0
M  V30 745 H 69.2367 0.709065 3.16453 0
M  V30 746 H 69.0217 2.47897 3.03792 0
M  V30 747 H 70.5117 1.80673 3.76493 0
M  V30 748 N 70.9488 -0.749086 1.3866 0
M  V30 749 C 72.1888 -1.52112 1.36534 0
M  V30 750 C 72.5528 -1.91951 -0.0432316 0
M  V30 751 O 73.7538 -2.68132 -0.189396 0
M  V30 752 C 72.0248 -2.73704 2.29828 0
M  V30 753 S 73.5838 -3.63519 2.45763 0
M  V30 754 H 70.4018 -0.520482 0.484375 0
M  V30 755 H 73.0038 -0.878963 1.74627 0
M  V30 756 H 71.7078 -2.42552 3.31054 0
M  V30 757 H 71.2388 -3.4286 1.929 0
M  V30 758 H 73.2538 -4.66712 1.68505 0
M  V30 759 N 72.4269 -1.23603 -0.977757 0
M  V30 760 C 73.3369 -1.03632 -2.1047 0
M  V30 761 C 74.3529 0.0199435 -1.73989 0
M  V30 762 O 75.5289 -0.176076 -2.00629 0
M  V30 763 C 72.5939 -0.63276 -3.40877 0
M  V30 764 C 71.6549 -1.76437 -3.91367 0
M  V30 765 C 70.8879 -1.37997 -5.15551 0
M  V30 766 O 71.1109 -0.265357 -5.69782 0
M  V30 767 O 70.0449 -2.20201 -5.60174 0
M  V30 768 H 73.8709 -1.98086 -2.30208 0
M  V30 769 H 71.4559 -1.02332 -1.08851 0
M  V30 770 H 73.3379 -0.418761 -4.19314 0
M  V30 771 H 72.0129 0.282754 -3.22463 0
M  V30 772 H 70.9199 -2.03304 -3.14036 0
M  V30 773 H 72.2529 -2.6583 -4.14241 0
M  V30 774 N 73.905 1.17692 -1.04816 0
M  V30 775 C 75.151 1.88137 -0.75711 0
M  V30 776 C 75.484 1.80604 0.713841 0
M  V30 777 O 74.759 1.21146 1.52164 0
M  V30 778 C 75.042 3.38318 -1.2334 0
M  V30 779 C 74.895 3.54622 -2.76701 0
M  V30 780 C 76.214 4.32214 -0.829415 0
M  V30 781 H 73.333 0.683163 -0.27651 0
M  V30 782 H 75.975 1.38424 -1.30149 0
M  V30 783 H 74.125 3.80787 -0.770286 0
M  V30 784 H 75.797 3.21194 -3.31107 0
M  V30 785 H 74.04 2.97026 -3.16161 0
M  V30 786 H 74.711 4.60028 -3.05088 0
M  V30 787 H 77.187 3.97565 -1.22805 0
M  V30 788 H 76.063 5.35838 -1.19033 0
M  V30 789 H 76.324 4.41294 0.266891 0
M  V30 790 N 75.3831 0.828654 1.34056 0
M  V30 791 C 76.6231 0.425394 1.99924 0
M  V30 792 C 76.9871 -0.994294 1.64249 0
M  V30 793 O 78.1881 -1.50074 2.23005 0
M  V30 794 C 76.4591 0.628071 3.51838 0
M  V30 795 S 78.0181 0.318511 4.37642 0
M  V30 796 H 74.8361 0.160465 0.692656 0
M  V30 797 H 77.4381 1.07572 1.63244 0
M  V30 798 H 76.1421 1.66089 3.7529 0
M  V30 799 H 75.6731 -0.0367799 3.93383 0
M  V30 800 H 77.6881 -0.865632 4.88591 0
M  V30 801 N 76.8612 -1.46375 0.584142 0
M  V30 802 C 77.8242 -2.28784 -0.138108 0
M  V30 803 C 78.8242 -1.38471 -0.817462 0
M  V30 804 O 80.0142 -1.60833 -0.669199 0
M  V30 805 C 77.1462 -3.18892 -1.20503 0
M  V30 806 H 78.3392 -2.94117 0.586127 0
M  V30 807 H 75.8922 -1.52509 0.342171 0
M  V30 808 H 76.6272 -2.58309 -1.96079 0
M  V30 809 H 76.4122 -3.85388 -0.722384 0
M  V30 810 H 77.9022 -3.80914 -1.71155 0
M  V30 811 N 78.3393 -0.321999 -1.54275 0
M  V30 812 C 79.2863 0.544664 -2.24281 0
M  V30 813 C 80.2563 1.1129 -1.23303 0
M  V30 814 O 81.4413 1.15354 -1.51981 0
M  V30 815 C 78.5813 1.70045 -3.00298 0
M  V30 816 C 77.6943 1.16159 -4.1609 0
M  V30 817 C 76.8293 2.28293 -4.79641 0
M  V30 818 C 75.8683 1.71648 -5.8754 0
M  V30 819 N 75.0053 2.77438 -6.44959 0
M  V30 820 H 79.8453 -0.0588907 -2.97942 0
M  V30 821 H 77.3823 -0.0408345 -1.47043 0
M  V30 822 H 79.3403 2.38054 -3.42616 0
M  V30 823 H 77.9703 2.27531 -2.28975 0
M  V30 824 H 77.0223 0.373092 -3.78566 0
M  V30 825 H 78.3343 0.707087 -4.93763 0
M  V30 826 H 77.4883 3.0421 -5.2492 0
M  V30 827 H 76.2273 2.77079 -4.01346 0
M  V30 828 H 75.2323 0.942282 -5.41665 0
M  V30 829 H 76.4573 1.23741 -6.67731 0
M  V30 830 H 74.4033 3.25519 -5.69538 0
M  V30 831 H 74.3203 2.36547 -7.1804 0
M  V30 832 H 75.5883 3.53189 -6.94894 0
M  V30 833 N 79.8174 1.5752 -0.0501392 0
M  V30 834 C 80.7644 2.1147 0.924603 0
M  V30 835 C 81.7344 1.02182 1.30951 0
M  V30 836 O 82.9194 1.29723 1.39916 0
M  V30 837 C 80.0594 2.66337 2.19451 0
M  V30 838 C 79.1724 3.89708 1.86418 0
M  V30 839 C 78.3074 4.32893 3.07859 0
M  V30 840 C 77.3464 5.48967 2.70742 0
M  V30 841 N 76.4834 5.87211 3.84874 0
M  V30 842 H 81.3234 2.94465 0.457639 0
M  V30 843 H 78.8604 1.45531 0.214266 0
M  V30 844 H 80.8184 2.96247 2.93758 0
M  V30 845 H 79.4484 1.86141 2.63726 0
M  V30 846 H 78.5004 3.66396 1.02264 0
M  V30 847 H 79.8124 4.74074 1.55096 0
M  V30 848 H 78.9664 4.6435 3.90466 0
M  V30 849 H 77.7054 3.47336 3.42358 0
M  V30 850 H 76.7104 5.17183 1.86551 0
M  V30 851 H 77.9354 6.3624 2.37436 0
M  V30 852 H 75.8814 5.04607 4.19175 0
M  V30 853 H 75.7984 6.66266 3.57247 0
M  V30 854 H 77.0664 6.23282 4.68123 0
M  V30 855 N 81.2955 -0.223234 1.56011 0
M  V30 856 C 82.2435 -1.29627 1.93131 0
M  V30 857 C 83.2375 -1.48608 0.813146 0
M  V30 858 O 84.4435 -1.49802 0.997966 0
M  V30 859 H 80.8185 -0.434563 0.613726 0
M  V30 860 H 82.7895 -0.955995 2.82672 0
M  V30 861 C 81.5385 -2.63983 2.26292 0
M  V30 862 H 80.8615 -2.50185 3.11846 0
M  V30 863 H 82.3015 -3.3788 2.56151 0
M  V30 864 C 80.7605 -3.18866 1.08747 0
M  V30 865 O 81.2905 -4.00192 0.347727 0
M  V30 866 N 79.4965 -2.77217 0.871743 0
M  V30 867 H 79.0435 -2.1119 1.47501 0
M  V30 868 H 79.0015 -3.1428 0.0869905 0
M  V30 869 N 82.7736 -1.49793 -0.48987 0
M  V30 870 C 84.0036 -1.6333 -1.26518 0
M  V30 871 C 84.4116 -0.308392 -1.8667 0
M  V30 872 O 83.7546 0.717512 -1.69108 0
M  V30 873 C 83.8166 -2.6522 -2.4269 0
M  V30 874 C 83.4806 -4.09279 -2.03321 0
M  V30 875 C 84.4776 -4.95738 -1.56652 0
M  V30 876 C 82.1626 -4.55082 -2.12616 0
M  V30 877 C 84.1566 -6.26041 -1.19795 0
M  V30 878 C 81.8436 -5.85396 -1.75371 0
M  V30 879 C 82.8416 -6.707 -1.29036 0
M  V30 880 O 82.5296 -7.98584 -0.92299 0
M  V30 881 H 82.2616 -0.552502 -0.389509 0
M  V30 882 H 84.8156 -1.96642 -0.593381 0
M  V30 883 H 83.0456 -2.27112 -3.12981 0
M  V30 884 H 84.7346 -2.68171 -3.04695 0
M  V30 885 H 85.5006 -4.61575 -1.48908 0
M  V30 886 H 81.3796 -3.88844 -2.47631 0
M  V30 887 H 84.9236 -6.92578 -0.835582 0
M  V30 888 H 80.8206 -6.19085 -1.82768 0
M  V30 889 H 81.5886 -8.11692 -1.05349 0
M  V30 890 N 84.2517 0.741722 -1.39055 0
M  V30 891 C 85.5007 1.49656 -1.35225 0
M  V30 892 C 85.8137 1.95533 0.0512708 0
M  V30 893 O 87.0197 2.7067 0.212138 0
M  V30 894 C 85.4757 2.70389 -2.37525 0
M  V30 895 C 85.0837 2.31489 -3.83558 0
M  V30 896 C 86.8277 3.48236 -2.42759 0
M  V30 897 C 84.7347 3.48903 -4.77515 0
M  V30 898 H 83.6647 0.56197 -0.502699 0
M  V30 899 H 86.3157 0.809727 -1.64668 0
M  V30 900 H 84.6977 3.41113 -2.01142 0
M  V30 901 H 85.8717 1.68354 -4.28945 0
M  V30 902 H 84.1867 1.66749 -3.81554 0
M  V30 903 H 86.7837 4.35558 -3.1015 0
M  V30 904 H 87.1267 3.90229 -1.45008 0
M  V30 905 H 87.6597 2.84535 -2.78002 0
M  V30 906 H 84.3987 3.11966 -5.76504 0
M  V30 907 H 83.9187 4.11041 -4.36813 0
M  V30 908 H 85.5977 4.15328 -4.96096 0
M  V30 909 N 85.7298 1.2412 0.971189 0
M  V30 910 C 86.9768 1.07881 1.71371 0
M  V30 911 C 87.3048 -0.382901 1.90694 0
M  V30 912 O 86.5598 -1.29945 1.46331 0
M  V30 913 C 86.8588 1.75983 3.11071 0
M  V30 914 C 86.5248 3.25909 3.11599 0
M  V30 915 C 85.1868 3.66813 3.11451 0
M  V30 916 C 87.5388 4.21771 3.062 0
M  V30 917 C 84.8668 5.02021 3.03631 0
M  V30 918 C 87.2188 5.56982 2.99923 0
M  V30 919 C 85.8828 5.97237 2.98102 0
M  V30 920 H 85.1528 0.394764 0.62709 0
M  V30 921 H 87.7998 1.54176 1.13587 0
M  V30 922 H 86.1048 1.22072 3.72298 0
M  V30 923 H 87.8018 1.60887 3.6731 0
M  V30 924 H 84.3918 2.93353 3.12477 0
M  V30 925 H 88.5758 3.91172 3.05447 0
M  V30 926 H 83.8318 5.32411 3.0058 0
M  V30 927 H 88.0058 6.30969 2.94704 0
M  V30 928 H 85.6328 7.01967 2.91798 0
M  V30 929 N 87.2079 -1.17134 1.05439 0
M  V30 930 C 88.4569 -1.86791 0.761049 0
M  V30 931 C 88.7699 -1.82072 -0.714795 0
M  V30 932 O 89.9759 -2.47223 -1.12218 0
M  V30 933 C 88.4319 -3.35166 1.31117 0
M  V30 934 C 88.0399 -3.48381 2.81664 0
M  V30 935 C 89.7839 -4.10134 1.09499 0
M  V30 936 C 87.6909 -4.90793 3.29964 0
M  V30 937 H 86.6209 -0.699681 0.281002 0
M  V30 938 H 89.2719 -1.3226 1.27199 0
M  V30 939 H 87.6539 -3.8925 0.72803 0
M  V30 940 H 88.8279 -3.04502 3.45855 0
M  V30 941 H 87.1429 -2.86836 3.01851 0
M  V30 942 H 89.7399 -5.152 1.43084 0
M  V30 943 H 90.0829 -4.16287 0.0328772 0
M  V30 944 H 90.6159 -3.62264 1.64346 0
M  V30 945 H 87.3549 -4.89816 4.35616 0
M  V30 946 H 86.8749 -5.35333 2.70516 0
M  V30 947 H 88.5539 -5.59573 3.24787 0
M  V30 948 N 88.686 -0.835752 -1.33615 0
M  V30 949 C 89.933 -0.429959 -1.97883 0
M  V30 950 C 90.261 1.01006 -1.66217 0
M  V30 951 O 89.516 1.72047 -0.93265 0
M  V30 952 C 89.815 -0.593925 -3.52431 0
M  V30 953 C 89.481 -2.00158 -4.04039 0
M  V30 954 C 88.143 -2.38662 -4.17844 0
M  V30 955 C 90.495 -2.92117 -4.31644 0
M  V30 956 C 87.823 -3.68435 -4.56588 0
M  V30 957 C 90.175 -4.21368 -4.71838 0
M  V30 958 C 88.839 -4.59833 -4.83849 0
M  V30 959 H 88.109 -0.157333 -0.724104 0
M  V30 960 H 90.756 -1.06217 -1.59343 0
M  V30 961 H 89.061 0.121619 -3.91611 0
M  V30 962 H 90.758 -0.260282 -4.00154 0
M  V30 963 H 87.348 -1.69252 -3.93766 0
M  V30 964 H 91.532 -2.63608 -4.20505 0
M  V30 965 H 86.788 -3.98046 -4.64079 0
M  V30 966 H 90.962 -4.92703 -4.92155 0
M  V30 967 H 88.589 -5.60438 -5.13627 0
M  V30 968 N 90.1641 1.46063 -0.591896 0
M  V30 969 C 91.4121 2.01938 -0.0808391 0
M  V30 970 C 91.7331 1.46475 1.28725 0
M  V30 971 O 91.0031 0.652944 1.84698 0
M  V30 972 H 89.5831 0.746516 -0.0268938 0
M  V30 973 H 92.2451 1.79055 -0.769752 0
M  V30 974 H 91.3411 3.12094 -0.0187578 0
M  V30 975 N 91.6422 0.330177 1.54103 0
M  V30 976 C 92.5522 -0.541534 2.28264 0
M  V30 977 C 93.5682 -1.12351 1.32866 0
M  V30 978 O 94.7442 -1.14206 1.65888 0
M  V30 979 C 91.8092 -1.68322 3.03098 0
M  V30 980 C 90.8702 -1.13238 4.14096 0
M  V30 981 C 90.1032 -2.21966 4.85352 0
M  V30 982 O 90.3262 -3.42437 4.56172 0
M  V30 983 O 89.2602 -1.87013 5.7211 0
M  V30 984 H 93.0862 0.060938 3.03639 0
M  V30 985 H 90.6712 0.09565 1.49093 0
M  V30 986 H 92.5532 -2.34777 3.49939 0
M  V30 987 H 91.2282 -2.27176 2.30593 0
M  V30 988 H 90.1352 -0.432736 3.71589 0
M  V30 989 H 91.4682 -0.588898 4.88664 0
M  V30 990 N 93.1203 -1.57491 0.0584922 0
M  V30 991 C 94.3693 -1.92155 -0.613146 0
M  V30 992 C 94.6823 -0.939334 -1.71569 0
M  V30 993 O 95.8883 -1.17829 -2.44599 0
M  V30 994 C 94.3443 -3.41303 -1.14195 0
M  V30 995 C 93.9523 -4.47944 -0.0711265 0
M  V30 996 C 95.6963 -3.84988 -1.78841 0
M  V30 997 C 93.6033 -5.88212 -0.613225 0
M  V30 998 H 92.5333 -0.717162 -0.232796 0
M  V30 999 H 95.1843 -1.83049 0.12857 0
M  V30 1000 H 93.5663 -3.45437 -1.93621 0
M  V30 1001 H 94.7403 -4.55408 0.702836 0
M  V30 1002 H 93.0553 -4.13644 0.478313 0
M  V30 1003 H 95.6523 -4.87159 -2.20408 0
M  V30 1004 H 95.9953 -3.21632 -2.64308 0
M  V30 1005 H 96.5283 -3.83401 -1.06059 0
M  V30 1006 H 93.2673 -6.55183 0.203978 0
M  V30 1007 H 92.7873 -5.84294 -1.35501 0
M  V30 1008 H 94.4663 -6.37687 -1.09383 0
M  V30 1009 N 94.5984 0.214957 -1.56127 0
M  V30 1010 C 95.8264 0.955092 -1.83536 0
M  V30 1011 C 96.2414 1.77677 -0.638472 0
M  V30 1012 O 95.5984 1.78219 0.392968 0
M  V30 1013 C 95.6494 1.86734 -3.09536 0
M  V30 1014 O 95.3704 1.07887 -4.24608 0
M  V30 1015 C 96.8714 2.72082 -3.4998 0
M  V30 1016 H 94.0914 0.279611 -0.609966 0
M  V30 1017 H 96.6354 0.228197 -2.03223 0
M  V30 1018 H 94.7904 2.5481 -2.91806 0
M  V30 1019 H 95.2044 1.69872 -4.9623 0
M  V30 1020 H 96.6784 3.31782 -4.41163 0
M  V30 1021 H 97.1554 3.44806 -2.7204 0
M  V30 1022 H 97.7614 2.09409 -3.70173 0
M  V30 1023 N 96.0765 1.50051 0.48192 0
M  V30 1024 C 97.3045 1.64237 1.25832 0
M  V30 1025 C 97.7195 0.321336 1.86045 0
M  V30 1026 O 97.0765 -0.695478 1.68729 0
M  V30 1027 C 97.1275 2.72548 2.37487 0
M  V30 1028 O 96.8485 3.99529 1.79745 0
M  V30 1029 C 98.3495 2.9761 3.28547 0
M  V30 1030 H 95.5695 0.55237 0.380957 0
M  V30 1031 H 98.1135 1.96207 0.576467 0
M  V30 1032 H 96.2685 2.43303 3.01467 0
M  V30 1033 H 96.6825 4.59342 2.5319 0
M  V30 1034 H 98.1565 3.77084 4.03127 0
M  V30 1035 H 98.6335 2.0826 3.86684 0
M  V30 1036 H 99.2395 3.28345 2.70314 0
M  V30 1037 N 97.5546 -0.734337 1.39446 0
M  V30 1038 C 98.5016 -1.84835 1.38219 0
M  V30 1039 C 99.4716 -1.64331 0.24179 0
M  V30 1040 O 100.657 -1.85728 0.437002 0
M  V30 1041 C 97.7966 -3.22355 1.23212 0
M  V30 1042 C 96.9096 -3.5456 2.46801 0
M  V30 1043 C 96.0446 -4.81485 2.24377 0
M  V30 1044 C 95.0836 -5.06536 3.43639 0
M  V30 1045 N 94.2206 -6.24665 3.20528 0
M  V30 1046 H 99.0606 -1.85219 2.33448 0
M  V30 1047 H 96.5976 -0.905039 1.15963 0
M  V30 1048 H 98.5556 -4.0174 1.12522 0
M  V30 1049 H 97.1856 -3.21248 0.316121 0
M  V30 1050 H 96.2376 -2.69872 2.68092 0
M  V30 1051 H 97.5496 -3.6899 3.3563 0
M  V30 1052 H 96.7036 -5.68852 2.10933 0
M  V30 1053 H 95.4426 -4.6923 1.32944 0
M  V30 1054 H 94.4476 -4.17632 3.5758 0
M  V30 1055 H 95.6726 -5.20676 4.35974 0
M  V30 1056 H 93.6186 -6.13696 2.3176 0
M  V30 1057 H 93.5356 -6.39685 4.02913 0
M  V30 1058 H 94.8036 -7.14868 3.10779 0
M  V30 1059 N 99.0327 -1.24633 -0.964593 0
M  V30 1060 C 99.9957 -1.0424 -2.04124 0
M  V30 1061 C 100.996 0.00137563 -1.608 0
M  V30 1062 O 102.186 -0.239883 -1.7254 0
M  V30 1063 C 99.3177 -0.580588 -3.3592 0
M  V30 1064 H 100.511 -1.99803 -2.23649 0
M  V30 1065 H 98.0637 -1.06899 -1.14027 0
M  V30 1066 H 98.7987 0.3781 -3.22088 0
M  V30 1067 H 98.5837 -1.33398 -3.6871 0
M  V30 1068 H 100.074 -0.459034 -4.15069 0
M  V30 1069 N 100.511 1.16574 -1.06058 0
M  V30 1070 C 101.458 2.20883 -0.669263 0
M  V30 1071 C 102.428 1.62729 0.332918 0
M  V30 1072 O 103.613 1.895 0.222346 0
M  V30 1073 C 100.753 3.45049 -0.0593572 0
M  V30 1074 C 99.8658 4.17458 -1.11143 0
M  V30 1075 C 99.0008 5.29135 -0.467916 0
M  V30 1076 C 98.0398 5.93343 -1.50369 0
M  V30 1077 N 97.1768 6.96516 -0.883706 0
M  V30 1078 H 102.017 2.53709 -1.5632 0
M  V30 1079 H 99.5538 1.24616 -0.781625 0
M  V30 1080 H 101.512 4.16033 0.311771 0
M  V30 1081 H 100.142 3.12781 0.797992 0
M  V30 1082 H 99.1938 3.45101 -1.60029 0
M  V30 1083 H 100.506 4.61307 -1.89731 0
M  V30 1084 H 99.6598 6.06684 -0.0436871 0
M  V30 1085 H 98.3988 4.86443 0.349864 0
M  V30 1086 H 97.4038 5.14517 -1.93784 0
M  V30 1087 H 98.6288 6.38114 -2.32352 0
M  V30 1088 H 96.5748 6.55943 -0.086595 0
M  V30 1089 H 96.4918 7.38723 -1.607 0
M  V30 1090 H 97.7598 7.77993 -0.484543 0
M  V30 1091 N 101.989 0.842826 1.3317 0
M  V30 1092 C 103.235 0.441099 1.97945 0
M  V30 1093 C 103.568 -0.998024 1.66593 0
M  V30 1094 O 102.843 -1.69839 0.947898 0
M  V30 1095 C 103.126 0.666841 3.53872 0
M  V30 1096 C 102.979 2.15352 3.94897 0
M  V30 1097 C 104.298 0.115544 4.39948 0
M  V30 1098 H 101.417 0.161739 0.719034 0
M  V30 1099 H 104.059 1.05907 1.57746 0
M  V30 1100 H 102.209 0.140828 3.88245 0
M  V30 1101 H 103.881 2.7447 3.70761 0
M  V30 1102 H 102.124 2.63653 3.44484 0
M  V30 1103 H 102.795 2.26221 5.03516 0
M  V30 1104 H 105.271 0.565213 4.12243 0
M  V30 1105 H 104.147 0.303152 5.48062 0
M  V30 1106 H 104.408 -0.980935 4.3108 0
M  V30 1107 N 103.467 -1.45747 0.599634 0
M  V30 1108 C 104.415 -2.322 -0.136426 0
M  V30 1109 C 105.409 -1.45497 -0.867583 0
M  V30 1110 O 106.615 -1.62027 -0.78405 0
M  V30 1111 H 102.99 -0.749368 -0.0628588 0
M  V30 1112 H 104.961 -2.92072 0.611281 0
M  V30 1113 C 103.71 -3.28974 -1.12567 0
M  V30 1114 H 103.033 -3.9568 -0.572484 0
M  V30 1115 H 104.473 -3.92212 -1.61077 0
M  V30 1116 C 102.932 -2.55561 -2.19523 0
M  V30 1117 O 103.462 -2.33111 -3.27143 0
M  V30 1118 N 101.668 -2.15832 -1.94589 0
M  V30 1119 H 101.215 -2.3429 -1.07078 0
M  V30 1120 H 101.173 -1.67034 -2.66359 0
M  V30 1121 N 104.945 -0.338344 -1.53925 0
M  V30 1122 C 106.175 0.260919 -2.04946 0
M  V30 1123 C 106.583 1.45174 -1.2133 0
M  V30 1124 O 105.926 1.82122 -0.240262 0
M  V30 1125 C 105.988 0.744596 -3.51704 0
M  V30 1126 C 105.652 -0.325883 -4.55837 0
M  V30 1127 C 106.649 -1.16687 -5.06636 0
M  V30 1128 C 104.334 -0.478317 -5.00017 0
M  V30 1129 C 106.328 -2.14588 -6.00192 0
M  V30 1130 C 104.015 -1.46073 -5.93385 0
M  V30 1131 C 105.013 -2.29297 -6.4336 0
M  V30 1132 O 104.701 -3.25867 -7.34892 0
M  V30 1133 H 104.433 0.0551207 -0.673749 0
M  V30 1134 H 106.987 -0.486984 -1.99544 0
M  V30 1135 H 105.217 1.54366 -3.54553 0
M  V30 1136 H 106.906 1.26383 -3.85723 0
M  V30 1137 H 107.672 -1.06016 -4.73271 0
M  V30 1138 H 103.551 0.159613 -4.60724 0
M  V30 1139 H 107.095 -2.79585 -6.39123 0
M  V30 1140 H 102.992 -1.56802 -6.26166 0
M  V30 1141 H 103.76 -3.21278 -7.5281 0
M  V30 1142 N 106.423 1.57458 -0.0668435 0
M  V30 1143 C 107.7 1.8469 0.644132 0
M  V30 1144 C 108.08 0.958343 1.88093 0
M  V30 1145 O 107.428 0.0233579 2.28488 0
M  V30 1146 C 107.638 3.34767 0.986509 0
M  V30 1147 C 108.986 4.02159 1.36212 0
M  V30 1148 O 110.01 3.39484 1.07839 0
M  V30 1149 O 108.869 5.12694 1.89227 0
M  V30 1150 H 105.963 0.762816 0.319437 0
M  V30 1151 H 108.509 1.6942 -0.0973986 0
M  V30 1152 H 107.281 3.91151 0.107883 0
M  V30 1153 H 106.904 3.55281 1.78497 0
M  V30 1154 N 107.901 -0.206675 1.56239 0
M  V30 1155 C 108.848 -1.25617 1.93621 0
M  V30 1156 C 109.818 -1.45824 0.795274 0
M  V30 1157 O 111.003 -1.59148 1.05245 0
M  V30 1158 C 108.143 -2.59839 2.27107 0
M  V30 1159 C 107.256 -2.47308 3.54207 0
M  V30 1160 C 106.391 -3.74155 3.7707 0
M  V30 1161 C 105.43 -3.56407 4.97635 0
M  V30 1162 N 104.567 -4.75238 5.1681 0
M  V30 1163 H 109.407 -0.930383 2.83104 0
M  V30 1164 H 106.944 -0.448065 1.4011 0
M  V30 1165 H 108.902 -3.38021 2.44535 0
M  V30 1166 H 107.532 -2.90485 1.40778 0
M  V30 1167 H 106.584 -1.60483 3.4489 0
M  V30 1168 H 107.896 -2.30122 4.42544 0
M  V30 1169 H 107.05 -4.60778 3.94675 0
M  V30 1170 H 105.789 -3.94282 2.87042 0
M  V30 1171 H 104.794 -2.68168 4.79964 0
M  V30 1172 H 106.019 -3.37736 5.89161 0
M  V30 1173 H 103.965 -4.95651 4.29728 0
M  V30 1174 H 103.882 -4.60835 5.99306 0
M  V30 1175 H 105.15 -5.63246 5.38864 0
M  V30 1176 N 109.379 -1.50304 -0.473955 0
M  V30 1177 C 110.625 -1.61389 -1.22806 0
M  V30 1178 C 110.958 -0.311955 -1.91678 0
M  V30 1179 O 110.233 0.686384 -1.81986 0
M  V30 1180 C 110.516 -2.79219 -2.27396 0
M  V30 1181 C 110.369 -4.19286 -1.62848 0
M  V30 1182 C 111.688 -2.92614 -3.28732 0
M  V30 1183 H 108.807 -0.587399 -0.445119 0
M  V30 1184 H 111.449 -1.82681 -0.522265 0
M  V30 1185 H 109.599 -2.61195 -2.87592 0
M  V30 1186 H 111.271 -4.48892 -1.06271 0
M  V30 1187 H 109.514 -4.23677 -0.931693 0
M  V30 1188 H 110.185 -4.97655 -2.38838 0
M  V30 1189 H 112.661 -3.09105 -2.78556 0
M  V30 1190 H 111.537 -3.76688 -3.99246 0
M  V30 1191 H 111.798 -2.03107 -3.92683 0
M  V30 1192 N 110.857 0.726932 -1.39834 0
M  V30 1193 C 112.085 1.51613 -1.40787 0
M  V30 1194 C 112.5 1.88799 -0.00451505 0
M  V30 1195 O 111.857 1.54662 0.968809 0
M  V30 1196 C 111.908 2.79863 -2.28821 0
M  V30 1197 O 111.629 2.44253 -3.63692 0
M  V30 1198 C 113.13 3.73837 -2.38245 0
M  V30 1199 H 110.35 0.468264 -0.480593 0
M  V30 1200 H 112.894 0.897607 -1.83748 0
M  V30 1201 H 111.049 3.38027 -1.89252 0
M  V30 1202 H 111.463 3.26695 -4.1033 0
M  V30 1203 H 112.937 4.60699 -3.04073 0
M  V30 1204 H 113.414 4.16153 -1.40403 0
M  V30 1205 H 114.02 3.21589 -2.78317 0
M  V30 1206 N 112.336 1.25143 0.95797 0
M  V30 1207 C 113.752 1.01892 1.22842 0
M  V30 1208 C 113.952 -0.266311 1.99732 0
M  V30 1209 O 113.008 -0.979913 2.3271 0
M  V30 1210 C 114.321 2.24004 2.00606 0
M  V30 1211 C 115.869 2.28731 2.13662 0
M  V30 1212 C 116.344 3.5049 2.94823 0
M  V30 1213 N 117.835 3.50866 3.02403 0
M  V30 1214 C 118.57 4.4174 3.65586 0
M  V30 1215 N 118.066 5.42882 4.30408 0
M  V30 1216 N 119.859 4.29429 3.62694 0
M  V30 1217 H 112.01 2.07718 0.443493 0
M  V30 1218 H 114.273 0.912031 0.258657 0
M  V30 1219 H 113.979 3.17395 1.51503 0
M  V30 1220 H 113.853 2.26907 3.01319 0
M  V30 1221 H 116.24 1.35865 2.61963 0
M  V30 1222 H 116.321 2.29848 1.12265 0
M  V30 1223 H 115.965 4.43676 2.47213 0
M  V30 1224 H 115.895 3.46617 3.96439 0
M  V30 1225 H 118.386 2.777 2.56302 0
M  V30 1226 H 118.699 6.0844 4.76467 0
M  V30 1227 H 117.044 5.46758 4.29047 0
M  V30 1228 H 120.235 3.49643 3.11236 0
M  V30 1229 H 120.408 5.00448 4.1165 0
M  V30 1230 N 113.814 -1.1601 1.06675 0
M  V30 1231 C 115.091 -1.82679 0.699114 0
M  V30 1232 C 115.471 -1.94559 -0.819137 0
M  V30 1233 O 114.819 -1.49169 -1.73092 0
M  V30 1234 C 115.029 -3.19445 1.40555 0
M  V30 1235 C 116.377 -3.95171 1.55323 0
M  V30 1236 O 117.401 -3.28976 1.36577 0
M  V30 1237 O 116.26 -5.13833 1.86112 0
M  V30 1238 H 113.354 -0.788954 0.247951 0
M  V30 1239 H 115.9 -1.23179 1.16726 0
M  V30 1240 H 114.672 -3.05856 2.44065 0
M  V30 1241 H 114.295 -3.86625 0.927733 0
M  V30 1242 N 115.292 -0.849877 -1.32721 0
M  V30 1243 C 116.538 -0.451591 -1.97708 0
M  V30 1244 C 116.871 0.989175 -1.6712 0
M  V30 1245 O 116.146 1.69334 -0.956891 0
M  V30 1246 C 116.429 -0.685598 -3.53513 0
M  V30 1247 C 116.282 -2.17444 -3.93749 0
M  V30 1248 C 117.601 -0.138874 -4.39881 0
M  V30 1249 H 114.72 -0.16555 -0.718166 0
M  V30 1250 H 117.362 -1.06742 -1.57182 0
M  V30 1251 H 115.512 -0.161416 -3.88165 0
M  V30 1252 H 117.184 -2.76433 -3.693 0
M  V30 1253 H 115.427 -2.65476 -3.43081 0
M  V30 1254 H 116.098 -2.28888 -5.02309 0
M  V30 1255 H 118.574 -0.587068 -4.11938 0
M  V30 1256 H 117.45 -0.332213 -5.47894 0
M  V30 1257 H 117.711 0.95806 -4.31594 0
M  V30 1258 N 116.77 1.45427 -0.607355 0
M  V30 1259 C 117.7 2.3329 0.0989352 0
M  V30 1260 C 118.681 1.46816 0.859007 0
M  V30 1261 O 119.866 1.75588 0.829604 0
M  V30 1262 C 116.996 3.29518 1.09705 0
M  V30 1263 C 115.95 4.25626 0.450206 0
M  V30 1264 C 115.276 5.11542 1.55655 0
M  V30 1265 C 116.576 5.18505 -0.628455 0
M  V30 1266 H 118.27 2.92595 -0.634716 0
M  V30 1267 H 115.816 1.40696 -0.306681 0
M  V30 1268 H 117.769 3.89855 1.59971 0
M  V30 1269 H 116.493 2.68372 1.86129 0
M  V30 1270 H 115.152 3.66586 -0.0315886 0
M  V30 1271 H 114.8 4.46765 2.31107 0
M  V30 1272 H 114.5 5.76647 1.12925 0
M  V30 1273 H 116.024 5.74748 2.06148 0
M  V30 1274 H 117.438 5.72916 -0.209877 0
M  V30 1275 H 115.835 5.92085 -0.977489 0
M  V30 1276 H 116.905 4.60948 -1.50514 0
M  V30 1277 N 118.248 0.346503 1.53744 0
M  V30 1278 C 119.195 -0.508914 2.25119 0
M  V30 1279 C 120.165 -1.09315 1.25058 0
M  V30 1280 O 121.35 -1.12921 1.53797 0
M  V30 1281 C 118.49 -1.65246 3.02965 0
M  V30 1282 C 117.603 -1.09525 4.17886 0
M  V30 1283 C 116.738 -2.20634 4.83212 0
M  V30 1284 C 115.777 -1.62279 5.90196 0
M  V30 1285 N 114.914 -2.67143 6.49291 0
M  V30 1286 H 119.754 0.106283 2.9781 0
M  V30 1287 H 117.291 0.0642227 1.4696 0
M  V30 1288 H 119.249 -2.32574 3.4636 0
M  V30 1289 H 117.879 -2.2386 2.32565 0
M  V30 1290 H 116.931 -0.312818 3.79112 0
M  V30 1291 H 118.243 -0.628444 4.94825 0
M  V30 1292 H 117.397 -2.95821 5.29693 0
M  V30 1293 H 116.136 -2.70659 4.05703 0
M  V30 1294 H 115.141 -0.855989 5.43096 0
M  V30 1295 H 116.366 -1.13102 6.69615 0
M  V30 1296 H 114.312 -3.16417 5.74645 0
M  V30 1297 H 114.229 -2.25093 7.21713 0
M  V30 1298 H 115.497 -3.4209 7.00425 0
M  V30 1299 N 119.726 -1.57421 0.075193 0
M  V30 1300 C 120.676 -2.09441 -0.901025 0
M  V30 1301 C 121.66 -1.00486 -1.25663 0
M  V30 1302 O 122.852 -1.2679 -1.23504 0
M  V30 1303 C 119.981 -2.66233 -2.16737 0
M  V30 1304 C 119.067 -3.82198 -1.83808 0
M  V30 1305 N 119.458 -4.91028 -1.21345 0
M  V30 1306 C 117.756 -3.91558 -2.13538 0
M  V30 1307 C 118.457 -5.71852 -1.06585 0
M  V30 1308 N 117.433 -5.20233 -1.57667 0
M  V30 1309 H 121.235 -2.90972 -0.413815 0
M  V30 1310 H 118.749 -1.6189 -0.128601 0
M  V30 1311 H 120.746 -3.01819 -2.87595 0
M  V30 1312 H 119.406 -1.8615 -2.66042 0
M  V30 1313 H 120.417 -5.10323 -0.88268 0
M  V30 1314 H 117.094 -3.22454 -2.65197 0
M  V30 1315 H 118.484 -6.69401 -0.578933 0
M  V30 1316 N 121.204 0.198386 -1.56346 0
M  V30 1317 C 122.453 0.917451 -1.79627 0
M  V30 1318 C 122.766 1.8456 -0.64784 0
M  V30 1319 O 123.972 2.60504 -0.764859 0
M  V30 1320 C 122.428 1.68175 -3.18191 0
M  V30 1321 C 122.036 0.798589 -4.40825 0
M  V30 1322 C 123.78 2.39065 -3.50782 0
M  V30 1323 C 121.687 1.56157 -5.70411 0
M  V30 1324 H 120.617 0.346317 -0.669762 0
M  V30 1325 H 123.268 0.170801 -1.82703 0
M  V30 1326 H 121.65 2.47216 -3.09354 0
M  V30 1327 H 122.824 0.0470665 -4.60776 0
M  V30 1328 H 121.139 0.200686 -4.15916 0
M  V30 1329 H 123.736 2.96692 -4.44835 0
M  V30 1330 H 124.079 3.13091 -2.74371 0
M  V30 1331 H 124.612 1.66993 -3.61052 0
M  V30 1332 H 121.351 0.864142 -6.49779 0
M  V30 1333 H 120.871 2.2871 -5.54483 0
M  V30 1334 H 122.55 2.11622 -6.11412 0
M  V30 1335 N 122.682 1.50554 0.465978 0
M  V30 1336 C 123.93 1.61479 1.21528 0
M  V30 1337 C 124.251 0.319596 1.92363 0
M  V30 1338 O 123.521 -0.663194 1.84333 0
M  V30 1339 H 122.101 0.595055 0.451573 0
M  V30 1340 H 124.763 1.87355 0.53704 0
M  V30 1341 H 123.859 2.42846 1.96042 0
M  V30 1342 N 124.16 -0.719506 1.40217 0
M  V30 1343 C 125.39 -1.50646 1.41384 0
M  V30 1344 C 125.798 -1.89197 0.0107743 0
M  V30 1345 O 125.141 -1.55709 -0.974708 0
M  V30 1346 C 125.203 -2.81405 2.23722 0
M  V30 1347 C 124.867 -2.65199 3.72181 0
M  V30 1348 C 125.864 -2.32717 4.64907 0
M  V30 1349 C 123.549 -2.81586 4.1595 0
M  V30 1350 C 125.543 -2.16827 5.99387 0
M  V30 1351 C 123.23 -2.65313 5.50502 0
M  V30 1352 C 124.228 -2.32981 6.42035 0
M  V30 1353 O 123.916 -2.16827 7.74107 0
M  V30 1354 H 123.648 -0.471606 0.484318 0
M  V30 1355 H 126.202 -0.895456 1.84853 0
M  V30 1356 H 124.432 -3.44823 1.75026 0
M  V30 1357 H 126.121 -3.43102 2.16878 0
M  V30 1358 H 126.887 -2.19694 4.32388 0
M  V30 1359 H 122.766 -3.0574 3.45027 0
M  V30 1360 H 126.31 -1.91513 6.70797 0
M  V30 1361 H 122.207 -2.7792 5.82607 0
M  V30 1362 H 122.975 -2.31778 7.84998 0
M  V30 1363 N 125.638 -1.25649 -0.95132 0
M  V30 1364 C 126.915 -1.01361 -1.67288 0
M  V30 1365 C 127.295 0.459135 -2.06046 0
M  V30 1366 O 126.643 1.43723 -1.7764 0
M  V30 1367 C 126.853 -1.95256 -2.89268 0
M  V30 1368 C 128.201 -2.23289 -3.61147 0
M  V30 1369 O 129.225 -1.93041 -2.99355 0
M  V30 1370 O 128.084 -2.74741 -4.72419 0
M  V30 1371 H 125.178 -0.38464 -0.732107 0
M  V30 1372 H 127.724 -1.36817 -1.00395 0
M  V30 1373 H 126.496 -2.94685 -2.57442 0
M  V30 1374 H 126.119 -1.60218 -3.6389 0
M  V30 1375 N 127.117 1.15442 -1.07289 0
M  V30 1376 C 128.394 1.82306 -0.708792 0
M  V30 1377 C 128.774 1.94991 0.808807 0
M  V30 1378 O 128.122 1.50085 1.72298 0
M  V30 1379 C 128.332 3.18695 -1.42247 0
M  V30 1380 C 129.68 3.94341 -1.57417 0
M  V30 1381 O 130.704 3.28247 -1.38319 0
M  V30 1382 O 129.563 5.12839 -1.88834 0
M  V30 1383 H 126.657 0.787628 -0.252132 0
M  V30 1384 H 129.203 1.22559 -1.17377 0
M  V30 1385 H 127.975 3.04557 -2.45684 0
M  V30 1386 H 127.598 3.86128 -0.948223 0
M  V30 1387 N 128.595 0.856903 1.32268 0
M  V30 1388 C 129.505 0.306131 2.32594 0
M  V30 1389 C 130.521 -0.577209 1.64147 0
M  V30 1390 O 131.697 -0.477043 1.95669 0
M  V30 1391 C 128.762 -0.494561 3.43154 0
M  V30 1392 C 127.823 0.415186 4.27288 0
M  V30 1393 C 127.056 -0.347387 5.32568 0
M  V30 1394 O 127.279 -1.57708 5.48165 0
M  V30 1395 O 126.213 0.287982 6.01211 0
M  V30 1396 H 130.039 1.13737 2.81598 0
M  V30 1397 H 127.624 0.619902 1.35932 0
M  V30 1398 H 129.506 -0.948944 4.10576 0
M  V30 1399 H 128.181 -1.30257 2.96336 0
M  V30 1400 H 127.088 0.917793 3.62667 0
M  V30 1401 H 128.421 1.18844 4.77637 0
M  V30 1402 N 130.073 -1.45103 0.615059 0
M  V30 1403 C 131.298 -2.07064 0.117988 0
M  V30 1404 C 131.723 -1.4554 -1.19163 0
M  V30 1405 O 131.081 -0.550855 -1.72729 0
M  V30 1406 C 131.129 -3.606 -0.000288387 0
M  V30 1407 O 130.233 -3.98847 -1.04856 0
M  V30 1408 H 129.574 -0.659467 0.0774581 0
M  V30 1409 H 132.104 -1.86236 0.847186 0
M  V30 1410 H 132.114 -4.07529 -0.196091 0
M  V30 1411 H 130.789 -4.04765 0.955932 0
M  V30 1412 H 129.366 -3.63577 -0.828619 0
M  V30 1413 N 131.551 -0.354651 -1.53558 0
M  V30 1414 C 132.498 0.496968 -2.25386 0
M  V30 1415 C 133.468 1.0865 -1.25636 0
M  V30 1416 O 134.653 1.12104 -1.54394 0
M  V30 1417 C 131.793 1.63637 -3.03837 0
M  V30 1418 C 130.906 1.07307 -4.18461 0
M  V30 1419 C 130.041 2.18068 -4.84376 0
M  V30 1420 C 129.08 1.59147 -5.91049 0
M  V30 1421 N 128.217 2.63695 -6.50699 0
M  V30 1422 H 133.057 -0.122075 -2.9775 0
M  V30 1423 H 130.594 -0.0720154 -1.46924 0
M  V30 1424 H 132.552 2.30734 -3.47589 0
M  V30 1425 H 131.182 2.22623 -2.33749 0
M  V30 1426 H 130.234 0.292708 -3.79272 0
M  V30 1427 H 131.546 0.602193 -4.95152 0
M  V30 1428 H 130.7 2.93007 -5.31255 0
M  V30 1429 H 129.439 2.68504 -4.07133 0
M  V30 1430 H 128.444 0.827175 -5.43542 0
M  V30 1431 H 129.669 1.09549 -6.70206 0
M  V30 1432 H 127.615 3.13365 -5.76315 0
M  V30 1433 H 127.532 2.21263 -7.22896 0
M  V30 1434 H 128.8 3.3837 -7.02229 0
M  V30 1435 N 133.029 1.57378 -0.0835403 0
M  V30 1436 C 134.277 1.93547 0.581718 0
M  V30 1437 C 134.598 0.96524 1.69435 0
M  V30 1438 O 133.868 0.0153369 1.95894 0
M  V30 1439 H 132.448 0.714521 0.217874 0
M  V30 1440 H 135.11 1.94366 -0.144158 0
M  V30 1441 H 134.206 2.95665 0.999423 0
M  V30 1442 N 134.507 -0.190092 1.56449 0
M  V30 1443 C 135.437 -1.23816 1.97969 0
M  V30 1444 C 136.418 -1.47201 0.852395 0
M  V30 1445 O 137.603 -1.58854 1.1171 0
M  V30 1446 C 134.733 -2.5813 2.3235 0
M  V30 1447 C 133.687 -2.49348 3.47864 0
M  V30 1448 C 133.013 -3.8798 3.67934 0
M  V30 1449 C 134.313 -2.01424 4.81898 0
M  V30 1450 H 136.007 -0.89311 2.85769 0
M  V30 1451 H 133.553 -0.428177 1.37487 0
M  V30 1452 H 135.506 -3.31637 2.59991 0
M  V30 1453 H 134.23 -2.94386 1.41438 0
M  V30 1454 H 132.889 -1.78297 3.20321 0
M  V30 1455 H 132.537 -4.21597 2.74344 0
M  V30 1456 H 132.237 -3.82978 4.45648 0
M  V30 1457 H 133.761 -4.63101 3.97957 0
M  V30 1458 H 135.175 -2.64693 5.08538 0
M  V30 1459 H 133.572 -2.07413 5.63116 0
M  V30 1460 H 134.642 -0.967677 4.75146 0
M  V30 1461 N 135.985 -1.50799 -0.457987 0
M  V30 1462 C 137.262 -1.52968 -1.21902 0
M  V30 1463 C 137.642 -0.281906 -2.09209 0
M  V30 1464 O 136.99 0.734076 -2.16388 0
M  V30 1465 C 137.2 -2.8326 -2.03875 0
M  V30 1466 C 138.548 -3.34425 -2.6162 0
M  V30 1467 O 139.572 -2.8467 -2.14106 0
M  V30 1468 O 138.431 -4.21188 -3.48228 0
M  V30 1469 H 135.525 -0.614129 -0.553873 0
M  V30 1470 H 138.071 -1.63098 -0.468739 0
M  V30 1471 H 136.843 -3.65543 -1.39621 0
M  V30 1472 H 136.466 -2.76195 -2.8601 0
M  V30 1473 N 137.463 0.71206 -1.40597 0
M  V30 1474 C 138.693 1.49894 -1.42181 0
M  V30 1475 C 139.101 1.89189 -0.0208078 0
M  V30 1476 O 138.444 1.56223 0.966436 0
M  V30 1477 C 138.506 2.80215 -2.25211 0
M  V30 1478 C 138.17 2.63221 -3.73582 0
M  V30 1479 C 139.167 2.30249 -4.66135 0
M  V30 1480 C 136.852 2.79376 -4.17438 0
M  V30 1481 C 138.846 2.13645 -6.00529 0
M  V30 1482 C 136.533 2.6239 -5.51901 0
M  V30 1483 C 137.531 2.29573 -6.43262 0
M  V30 1484 O 137.219 2.12719 -7.75246 0
M  V30 1485 H 136.951 0.469031 -0.486812 0
M  V30 1486 H 139.505 0.88564 -1.85326 0
M  V30 1487 H 137.735 3.4389 -1.76852 0
M  V30 1488 H 139.424 3.41947 -2.18694 0
M  V30 1489 H 140.19 2.17398 -4.33547 0
M  V30 1490 H 136.069 3.03906 -3.46644 0
M  V30 1491 H 139.613 1.87953 -6.71803 0
M  V30 1492 H 135.51 2.74826 -5.84073 0
M  V30 1493 H 136.278 2.27611 -7.86216 0
M  V30 1494 N 138.941 1.26152 0.944643 0
M  V30 1495 C 139.888 1.07408 2.04285 0
M  V30 1496 C 140.858 -0.0198413 1.66088 0
M  V30 1497 O 142.043 0.139264 1.90291 0
M  V30 1498 C 139.183 0.70945 3.37729 0
M  V30 1499 C 138.296 1.87926 3.88983 0
M  V30 1500 C 137.431 1.45807 5.10797 0
M  V30 1501 C 136.47 2.5964 5.54305 0
M  V30 1502 N 135.607 2.18226 6.67324 0
M  V30 1503 H 140.447 2.01389 2.1965 0
M  V30 1504 H 137.984 1.00275 1.07626 0
M  V30 1505 H 139.942 0.478948 4.14442 0
M  V30 1506 H 138.572 -0.193389 3.2222 0
M  V30 1507 H 137.624 2.22279 3.08701 0
M  V30 1508 H 138.936 2.73377 4.17213 0
M  V30 1509 H 138.09 1.18781 5.94959 0
M  V30 1510 H 136.829 0.574414 4.84305 0
M  V30 1511 H 135.834 2.87399 4.68702 0
M  V30 1512 H 137.059 3.48599 5.828 0
M  V30 1513 H 135.005 1.3229 6.42523 0
M  V30 1514 H 134.922 2.97221 6.95123 0
M  V30 1515 H 136.19 1.94403 7.54869 0
M  V30 1516 N 140.419 -1.14872 1.07899 0
M  V30 1517 C 141.647 -1.89661 0.82683 0
M  V30 1518 C 142.062 -1.78312 -0.620519 0
M  V30 1519 O 141.419 -1.13888 -1.42604 0
M  V30 1520 C 141.47 -3.39817 1.23316 0
M  V30 1521 O 141.191 -3.50845 2.62372 0
M  V30 1522 C 142.692 -4.31615 1.0111 0
M  V30 1523 H 139.912 -0.60092 0.298557 0
M  V30 1524 H 142.456 -1.4551 1.43691 0
M  V30 1525 H 140.611 -3.8161 0.667286 0
M  V30 1526 H 141.025 -4.44076 2.79101 0
M  V30 1527 H 142.499 -5.35367 1.34486 0
M  V30 1528 H 142.976 -4.39169 -0.0522168 0
M  V30 1529 H 143.582 -3.95572 1.56215 0
M  V30 1530 N 141.898 -0.863906 -1.31812 0
M  V30 1531 C 142.861 -0.320212 -2.26952 0
M  V30 1532 C 143.861 0.525369 -1.51975 0
M  V30 1533 O 145.051 0.335547 -1.70938 0
M  V30 1534 C 142.183 0.545919 -3.365 0
M  V30 1535 H 143.376 -1.16004 -2.76556 0
M  V30 1536 H 140.929 -0.638995 -1.42641 0
M  V30 1537 H 141.664 1.40718 -2.92179 0
M  V30 1538 H 141.449 -0.0594674 -3.92055 0
M  V30 1539 H 142.939 0.918796 -4.07367 0
M  V30 1540 N 143.376 1.44774 -0.622745 0
M  V30 1541 C 144.286 2.34433 0.0886031 0
M  V30 1542 C 145.302 1.52131 0.844529 0
M  V30 1543 O 146.478 1.84886 0.798691 0
M  V30 1544 C 143.543 3.29986 1.0635 0
M  V30 1545 C 142.604 4.28195 0.307873 0
M  V30 1546 C 141.837 5.19183 1.23633 0
M  V30 1547 O 142.06 5.13918 2.47476 0
M  V30 1548 O 140.994 5.97515 0.725189 0
M  V30 1549 H 144.82 2.96693 -0.648599 0
M  V30 1550 H 142.405 1.44408 -0.382957 0
M  V30 1551 H 144.287 3.88825 1.6246 0
M  V30 1552 H 142.962 2.70269 1.78146 0
M  V30 1553 H 141.869 3.72927 -0.296064 0
M  V30 1554 H 143.202 4.90808 -0.3699 0
M  V30 1555 N 144.854 0.36279 1.53368 0
M  V30 1556 C 146.103 -0.22888 2.00397 0
M  V30 1557 C 146.416 -1.50096 1.25421 0
M  V30 1558 O 147.622 -2.17106 1.63025 0
M  V30 1559 C 146.078 -0.458417 3.56969 0
M  V30 1560 C 145.686 0.798877 4.4082 0
M  V30 1561 C 147.43 -1.00789 4.12361 0
M  V30 1562 C 145.337 0.539078 5.88938 0
M  V30 1563 H 144.267 -0.089305 0.748693 0
M  V30 1564 H 146.918 0.481099 1.77081 0
M  V30 1565 H 145.3 -1.22959 3.76427 0
M  V30 1566 H 146.474 1.57262 4.33134 0
M  V30 1567 H 144.789 1.27137 3.96516 0
M  V30 1568 H 147.386 -1.21754 5.20653 0
M  V30 1569 H 147.729 -1.9692 3.66781 0
M  V30 1570 H 148.262 -0.296961 3.9669 0
M  V30 1571 H 145.001 1.47064 6.3879 0
M  V30 1572 H 144.521 -0.196222 5.99479 0
M  V30 1573 H 146.2 0.163542 6.46793 0
M  V30 1574 N 146.332 -1.57332 0.0918853 0
M  V30 1575 C 147.279 -2.13847 -0.868211 0
M  V30 1576 C 148.249 -1.05618 -1.28196 0
M  V30 1577 O 149.434 -1.33387 -1.36427 0
M  V30 1578 C 146.574 -2.72062 -2.12312 0
M  V30 1579 C 145.687 -3.94514 -1.7602 0
M  V30 1580 C 144.822 -4.40903 -2.96273 0
M  V30 1581 C 143.861 -5.55953 -2.56092 0
M  V30 1582 N 142.998 -5.97209 -3.69169 0
M  V30 1583 H 147.838 -2.95575 -0.379406 0
M  V30 1584 H 145.375 -1.46048 -0.175606 0
M  V30 1585 H 147.333 -3.03931 -2.858 0
M  V30 1586 H 145.963 -1.93068 -2.58698 0
M  V30 1587 H 145.015 -3.68979 -0.925135 0
M  V30 1588 H 146.327 -4.7802 -1.42472 0
M  V30 1589 H 145.481 -4.74539 -3.78018 0
M  V30 1590 H 144.22 -3.56291 -3.33029 0
M  V30 1591 H 143.225 -5.21948 -1.72773 0
M  V30 1592 H 144.45 -6.42311 -2.20484 0
M  V30 1593 H 142.396 -5.15543 -4.05649 0
M  V30 1594 H 142.313 -6.75504 -3.39456 0
M  V30 1595 H 143.581 -6.35475 -4.51434 0
M  V30 1596 N 147.81 0.181792 -1.56548 0
M  V30 1597 C 149.056 0.901431 -1.81665 0
M  V30 1598 C 149.389 1.82347 -0.668075 0
M  V30 1599 O 148.664 1.91669 0.330615 0
M  V30 1600 C 148.947 1.70618 -3.17115 0
M  V30 1601 C 148.8 0.807964 -4.42484 0
M  V30 1602 C 150.119 2.67605 -3.49393 0
M  V30 1603 H 147.238 0.32627 -0.660846 0
M  V30 1604 H 149.88 0.168134 -1.89255 0
M  V30 1605 H 148.03 2.33133 -3.10775 0
M  V30 1606 H 149.702 0.19649 -4.60881 0
M  V30 1607 H 147.945 0.115411 -4.33646 0
M  V30 1608 H 148.616 1.40632 -5.33785 0
M  V30 1609 H 151.092 2.15218 -3.56118 0
M  V30 1610 H 149.968 3.20985 -4.45264 0
M  V30 1611 H 150.229 3.47298 -2.73563 0
M  V30 1612 N 149.288 1.51039 0.449983 0
M  V30 1613 C 150.513 1.6715 1.22783 0
M  V30 1614 C 150.938 0.363081 1.84563 0
M  V30 1615 O 150.296 -0.675433 1.68249 0
M  V30 1616 C 150.344 2.77985 2.29689 0
M  V30 1617 O 149.448 2.40707 3.34864 0
M  V30 1618 H 148.789 0.557746 0.360299 0
M  V30 1619 H 151.319 1.97535 0.533005 0
M  V30 1620 H 151.329 3.01693 2.74673 0
M  V30 1621 H 150.004 3.72935 1.84098 0
M  V30 1622 H 148.581 2.27523 2.95445 0
M  V30 1623 N 150.766 -0.704594 1.40972 0
M  V30 1624 C 152.015 -1.46018 1.39146 0
M  V30 1625 C 152.328 -1.956 0.000589254 0
M  V30 1626 O 153.534 -2.71137 -0.1403 0
M  V30 1627 C 151.99 -2.63996 2.4461 0
M  V30 1628 C 151.598 -2.21238 3.89561 0
M  V30 1629 C 153.342 -3.41677 2.51907 0
M  V30 1630 C 151.249 -3.3612 4.86598 0
M  V30 1631 H 150.179 -0.548444 0.517422 0
M  V30 1632 H 152.83 -0.765784 1.66757 0
M  V30 1633 H 151.212 -3.3566 2.10115 0
M  V30 1634 H 152.386 -1.56923 4.33257 0
M  V30 1635 H 150.701 -1.56574 3.85841 0
M  V30 1636 H 153.298 -4.27182 3.2159 0
M  V30 1637 H 153.641 -3.86247 1.55303 0
M  V30 1638 H 154.174 -2.77064 2.85448 0
M  V30 1639 H 150.913 -2.96572 5.84573 0
M  V30 1640 H 150.433 -3.99315 4.47557 0
M  V30 1641 H 152.112 -4.02029 5.06934 0
M  V30 1642 N 152.244 -1.26651 -0.937939 0
M  V30 1643 C 153.521 -1.0313 -1.66204 0
M  V30 1644 C 153.901 0.437256 -2.06522 0
M  V30 1645 O 153.249 1.41831 -1.79154 0
M  V30 1646 C 153.459 -1.98314 -2.87181 0
M  V30 1647 C 154.807 -2.27107 -3.58758 0
M  V30 1648 O 155.831 -1.96205 -2.97291 0
M  V30 1649 O 154.69 -2.79736 -4.69479 0
M  V30 1650 H 151.784 -0.392384 -0.727986 0
M  V30 1651 H 154.33 -1.37874 -0.989382 0
M  V30 1652 H 153.102 -2.97399 -2.54302 0
M  V30 1653 H 152.725 -1.64068 -3.6217 0
M  V30 1654 N 153.722 1.14298 -1.08507 0
M  V30 1655 C 154.632 2.23027 -0.727753 0
M  V30 1656 C 155.648 1.71952 0.26619 0
M  V30 1657 O 156.824 2.011 0.109882 0
M  V30 1658 C 153.889 3.46403 -0.143541 0
M  V30 1659 C 152.95 4.12413 -1.19223 0
M  V30 1660 C 152.183 5.29899 -0.635798 0
M  V30 1661 O 152.406 5.67796 0.544393 0
M  V30 1662 O 151.34 5.85717 -1.38634 0
M  V30 1663 H 155.166 2.55945 -1.63481 0
M  V30 1664 H 152.751 1.22248 -0.858817 0
M  V30 1665 H 154.633 4.21018 0.179404 0
M  V30 1666 H 153.308 3.15206 0.736659 0
M  V30 1667 H 152.215 3.39667 -1.56772 0
M  V30 1668 H 153.548 4.47718 -2.04474 0
M  V30 1669 N 155.201 0.870884 1.31352 0
M  V30 1670 C 156.133 0.28455 2.27427 0
M  V30 1671 C 157.146 -0.552927 1.53123 0
M  V30 1672 O 158.335 -0.374771 1.74521 0
M  V30 1673 C 155.435 -0.615164 3.3327 0
M  V30 1674 C 154.608 0.190079 4.36987 0
M  V30 1675 C 153.667 -0.637917 5.22319 0
M  V30 1676 O 152.693 -0.065626 5.69162 0
M  V30 1677 N 153.895 -1.94973 5.46778 0
M  V30 1678 H 156.66 1.11017 2.7838 0
M  V30 1679 H 154.221 0.732458 1.44384 0
M  V30 1680 H 156.213 -1.1748 3.87273 0
M  V30 1681 H 154.783 -1.34146 2.82354 0
M  V30 1682 H 154.003 0.931165 3.83044 0
M  V30 1683 H 155.291 0.742579 5.03352 0
M  V30 1684 H 154.689 -2.4378 5.10478 0
M  V30 1685 H 153.246 -2.45713 6.03712 0
M  V30 1686 N 156.679 -1.44442 0.630414 0
M  V30 1687 C 157.904 -2.06927 0.139944 0
M  V30 1688 C 158.329 -1.46795 -1.17613 0
M  V30 1689 O 157.687 -0.569144 -1.72135 0
M  V30 1690 C 157.735 -3.6058 0.0379581 0
M  V30 1691 O 156.839 -3.99937 -1.0062 0
M  V30 1692 H 156.18 -0.658608 0.0844483 0
M  V30 1693 H 158.71 -1.85327 0.866891 0
M  V30 1694 H 158.72 -4.07714 -0.152856 0
M  V30 1695 H 157.395 -4.03728 0.998809 0
M  V30 1696 H 155.972 -3.64436 -0.79001 0
M  V30 1697 N 158.157 -0.370918 -1.53173 0
M  V30 1698 C 159.568 0.107139 -1.86392 0
M  V30 1699 C 159.919 1.47714 -1.29132 0
M  V30 1700 O 159.044 2.07464 -0.615439 0
M  V30 1701 C 159.639 0.201187 -3.38202 0
M  V30 1702 C 158.198 0.623507 -3.712 0
M  V30 1703 C 157.345 -0.225978 -2.76378 0
M  V30 1704 H 160.296 -0.58951 -1.47345 0
M  V30 1705 H 160.317 1.02377 -3.66468 0
M  V30 1706 H 159.829 -0.796058 -3.79848 0
M  V30 1707 H 157.93 1.62879 -3.35114 0
M  V30 1708 H 158.043 0.394414 -4.77474 0
M  V30 1709 H 156.407 0.305962 -2.52856 0
M  V30 1710 H 157.19 -1.22086 -3.20858 0
M  V30 1711 N 159.635 1.57281 -0.100228 0
M  V30 1712 C 160.912 1.86014 0.604812 0
M  V30 1713 C 161.292 0.998025 1.86018 0
M  V30 1714 O 160.64 0.0718184 2.28387 0
M  V30 1715 C 160.85 3.36784 0.915278 0
M  V30 1716 C 162.198 4.04957 1.27651 0
M  V30 1717 O 163.222 3.41695 1.00613 0
M  V30 1718 O 162.081 5.16593 1.7831 0
M  V30 1719 H 159.175 0.76942 0.303185 0
M  V30 1720 H 161.721 1.69176 -0.133313 0
M  V30 1721 H 160.493 3.91292 0.0248896 0
M  V30 1722 H 160.116 3.58987 1.70921 0
M  V30 1723 N 161.113 -0.173488 1.56642 0
M  V30 1724 C 162.362 -0.888758 1.81063 0
M  V30 1725 C 162.675 -1.83506 0.67712 0
M  V30 1726 O 163.881 -2.59254 0.806206 0
M  V30 1727 C 162.337 -1.63091 3.20826 0
M  V30 1728 C 161.945 -0.728357 4.4204 0
M  V30 1729 C 163.689 -2.33454 3.54541 0
M  V30 1730 C 161.596 -1.47062 5.72823 0
M  V30 1731 H 160.526 -0.335618 0.675186 0
M  V30 1732 H 163.177 -0.141712 1.82952 0
M  V30 1733 H 161.559 -2.42263 3.13248 0
M  V30 1734 H 162.733 0.0262449 4.60793 0
M  V30 1735 H 161.048 -0.134492 4.16183 0
M  V30 1736 H 163.645 -2.89578 4.49498 0
M  V30 1737 H 163.988 -3.08687 2.79317 0
M  V30 1738 H 164.521 -1.61227 3.63663 0
M  V30 1739 H 161.26 -0.760658 6.51072 0
M  V30 1740 H 160.78 -2.1986 5.58052 0
M  V30 1741 H 162.459 -2.01868 6.14702 0
M  V30 1742 N 162.591 -1.51276 -0.441967 0
M  V30 1743 C 163.554 -1.7167 -1.51862 0
M  V30 1744 C 164.554 -0.586793 -1.49711 0
M  V30 1745 O 165.744 -0.854276 -1.51815 0
M  V30 1746 C 162.876 -1.76889 -2.91416 0
M  V30 1747 H 164.069 -2.67754 -1.35084 0
M  V30 1748 H 161.622 -1.41196 -0.670333 0
M  V30 1749 H 162.357 -0.826026 -3.13604 0
M  V30 1750 H 162.142 -2.59001 -2.94382 0
M  V30 1751 H 163.632 -1.94522 -3.69528 0
M  V30 1752 N 164.069 0.697108 -1.41344 0
M  V30 1753 C 165.001 1.8224 -1.39001 0
M  V30 1754 C 166.014 1.60152 -0.292428 0
M  V30 1755 O 167.203 1.69684 -0.554048 0
M  V30 1756 C 164.303 3.18976 -1.14489 0
M  V30 1757 C 163.476 3.68105 -2.36258 0
M  V30 1758 C 162.535 4.83506 -2.07625 0
M  V30 1759 O 161.561 4.95201 -2.8065 0
M  V30 1760 N 162.763 5.70637 -1.06555 0
M  V30 1761 H 165.528 1.84742 -2.35988 0
M  V30 1762 H 163.089 0.87937 -1.35936 0
M  V30 1763 H 165.081 3.93801 -0.932885 0
M  V30 1764 H 163.651 3.11508 -0.261043 0
M  V30 1765 H 162.871 2.84204 -2.7317 0
M  V30 1766 H 164.159 3.97667 -3.17393 0
M  V30 1767 H 163.557 5.63817 -0.461125 0
M  V30 1768 H 162.114 6.45368 -0.913444 0
M  V30 1769 N 165.547 1.27147 0.931209 0
M  V30 1770 C 166.787 1.14511 1.69312 0
M  V30 1771 C 167.151 -0.304638 1.89568 0
M  V30 1772 O 168.352 -0.553343 2.63043 0
M  V30 1773 C 166.623 1.90349 3.02493 0
M  V30 1774 S 168.182 1.93884 3.93642 0
M  V30 1775 H 165 0.408858 0.581684 0
M  V30 1776 H 167.602 1.61006 1.10893 0
M  V30 1777 H 166.306 2.94877 2.85439 0
M  V30 1778 H 165.837 1.44333 3.65966 0
M  V30 1779 H 167.852 1.03273 4.85334 0
M  V30 1780 N 167.025 -1.13721 1.09112 0
M  V30 1781 C 168.271 -1.85198 0.826414 0
M  V30 1782 C 168.604 -1.83129 -0.646319 0
M  V30 1783 O 167.879 -1.2671 -1.47563 0
M  V30 1784 C 168.162 -3.33507 1.35812 0
M  V30 1785 C 168.015 -3.44108 2.89672 0
M  V30 1786 C 169.334 -4.28838 0.989256 0
M  V30 1787 H 166.453 -0.67243 0.301675 0
M  V30 1788 H 169.095 -1.33499 1.35197 0
M  V30 1789 H 167.245 -3.77666 0.911082 0
M  V30 1790 H 168.917 -3.08684 3.428 0
M  V30 1791 H 167.16 -2.85087 3.26967 0
M  V30 1792 H 167.831 -4.48388 3.21951 0
M  V30 1793 H 170.307 -3.92734 1.37475 0
M  V30 1794 H 169.183 -5.31051 1.38838 0
M  V30 1795 H 169.444 -4.4198 -0.102924 0
M  V30 1796 N 168.503 -0.877838 -1.30888 0
M  V30 1797 C 169.453 -0.310872 -2.25871 0
M  V30 1798 C 170.437 0.556596 -1.50966 0
M  V30 1799 O 171.629 0.402187 -1.7237 0
M  V30 1800 C 168.758 0.479821 -3.3993 0
M  V30 1801 C 167.844 -0.401333 -4.22197 0
M  V30 1802 N 168.235 -1.49848 -4.83093 0
M  V30 1803 C 166.533 -0.195167 -4.45573 0
M  V30 1804 C 167.234 -2.0425 -5.44662 0
M  V30 1805 N 166.21 -1.33843 -5.26865 0
M  V30 1806 H 170.012 -1.1493 -2.70496 0
M  V30 1807 H 167.526 -0.726458 -1.45246 0
M  V30 1808 H 169.523 0.902582 -4.07012 0
M  V30 1809 H 168.183 1.31577 -2.96846 0
M  V30 1810 H 169.194 -1.88137 -4.82519 0
M  V30 1811 H 165.871 0.604192 -4.13105 0
M  V30 1812 H 167.261 -2.96345 -6.03017 0
M  V30 1813 N 169.982 1.44106 -0.638065 0
M  V30 1814 C 170.892 2.34513 0.0637334 0
M  V30 1815 C 171.908 1.53018 0.828346 0
M  V30 1816 O 173.084 1.85723 0.779036 0
M  V30 1817 C 170.149 3.31095 1.02844 0
M  V30 1818 C 169.21 4.28497 0.26244 0
M  V30 1819 C 168.443 5.20465 1.1812 0
M  V30 1820 O 168.666 5.16514 2.42011 0
M  V30 1821 O 167.6 5.98251 0.661774 0
M  V30 1822 H 171.426 2.95989 -0.68003 0
M  V30 1823 H 169.011 1.43994 -0.398252 0
M  V30 1824 H 170.893 3.90526 1.58327 0
M  V30 1825 H 169.568 2.72144 1.7527 0
M  V30 1826 H 168.475 3.72592 -0.335602 0
M  V30 1827 H 169.808 4.90388 -0.421936 0
M  V30 1828 N 171.46 0.379036 1.52974 0
M  V30 1829 C 172.408 -0.476033 2.27677 0
M  V30 1830 C 173.402 -1.0719 1.31174 0
M  V30 1831 O 174.608 -1.01355 1.48752 0
M  V30 1832 H 170.983 -0.172255 0.732006 0
M  V30 1833 H 172.954 0.175615 2.97883 0
M  V30 1834 C 171.703 -1.5967 3.0887 0
M  V30 1835 H 171.026 -1.1475 3.82978 0
M  V30 1836 H 172.466 -2.16943 3.64296 0
M  V30 1837 C 170.925 -2.54682 2.20542 0
M  V30 1838 O 171.455 -3.57836 1.82527 0
M  V30 1839 N 169.661 -2.24183 1.84907 0
M  V30 1840 H 169.208 -1.40333 2.1602 0
M  V30 1841 H 169.166 -2.88006 1.26096 0
M  V30 1842 N 172.938 -1.57226 0.108567 0
M  V30 1843 C 174.354 -1.5766 -0.248058 0
M  V30 1844 C 174.554 -1.12063 -1.67464 0
M  V30 1845 O 173.61 -0.803236 -2.39383 0
M  V30 1846 C 174.923 -3.0069 -0.0242287 0
M  V30 1847 C 176.471 -3.12868 -0.0909372 0
M  V30 1848 C 176.946 -4.57879 0.105067 0
M  V30 1849 N 178.437 -4.63172 0.0506846 0
M  V30 1850 C 179.172 -5.73126 0.177396 0
M  V30 1851 N 178.668 -6.91866 0.359696 0
M  V30 1852 N 180.461 -5.61977 0.117709 0
M  V30 1853 H 172.612 -1.85169 1.04049 0
M  V30 1854 H 174.875 -0.85529 0.40888 0
M  V30 1855 H 174.581 -3.38299 0.961604 0
M  V30 1856 H 174.455 -3.6945 -0.76068 0
M  V30 1857 H 176.842 -2.75124 -1.06729 0
M  V30 1858 H 176.923 -2.46672 0.677225 0
M  V30 1859 H 176.567 -4.96321 1.07834 0
M  V30 1860 H 176.497 -5.22153 -0.682954 0
M  V30 1861 H 178.988 -3.778 -0.0871266 0
M  V30 1862 H 179.301 -7.71503 0.447529 0
M  V30 1863 H 177.646 -6.93874 0.395536 0
M  V30 1864 H 180.837 -4.68094 -0.0236741 0
M  V30 1865 H 181.01 -6.47627 0.219905 0
M  V30 1866 N 174.416 0.165178 -1.56732 0
M  V30 1867 C 175.641 0.900253 -1.86843 0
M  V30 1868 C 176.066 1.74766 -0.695596 0
M  V30 1869 O 175.424 1.77786 0.35522 0
M  V30 1870 C 175.472 1.74777 -3.15413 0
M  V30 1871 O 174.576 2.85007 -2.98068 0
M  V30 1872 H 173.917 0.251832 -0.614391 0
M  V30 1873 H 176.447 0.161468 -2.03962 0
M  V30 1874 H 176.457 2.14646 -3.46974 0
M  V30 1875 H 175.132 1.12537 -4.00385 0
M  V30 1876 H 173.709 2.48676 -2.77875 0
M  V30 1877 N 175.894 1.51508 0.433938 0
M  V30 1878 C 177.305 1.56784 1.01369 0
M  V30 1879 C 177.656 0.393349 1.92217 0
M  V30 1880 O 176.781 -0.489441 2.10792 0
M  V30 1881 C 177.376 2.84144 1.8452 0
M  V30 1882 C 175.935 2.9198 2.37539 0
M  V30 1883 C 175.082 2.51482 1.16843 0
M  V30 1884 H 178.033 1.57236 0.215081 0
M  V30 1885 H 178.054 2.68098 2.70007 0
M  V30 1886 H 177.566 3.69607 1.18373 0
M  V30 1887 H 175.667 2.10955 3.0713 0
M  V30 1888 H 175.78 3.95704 2.70103 0
M  V30 1889 H 174.144 2.04758 1.51481 0
M  V30 1890 H 174.927 3.39293 0.523015 0
M  V30 1891 N 177.372 -0.689602 1.41712 0
M  V30 1892 C 178.282 -1.83314 1.46401 0
M  V30 1893 C 179.298 -1.7036 0.35405 0
M  V30 1894 O 180.474 -1.92171 0.602692 0
M  V30 1895 C 177.539 -3.19344 1.34982 0
M  V30 1896 C 176.6 -3.44363 2.56344 0
M  V30 1897 C 175.833 -4.73904 2.45461 0
M  V30 1898 O 176.056 -5.508 1.48241 0
M  V30 1899 O 174.99 -4.99839 3.35328 0
M  V30 1900 H 178.816 -1.82314 2.42889 0
M  V30 1901 H 176.401 -0.843438 1.23315 0
M  V30 1902 H 178.283 -4.00547 1.3092 0
M  V30 1903 H 176.958 -3.21014 0.41612 0
M  V30 1904 H 175.865 -2.63067 2.65982 0
M  V30 1905 H 177.198 -3.47512 3.48563 0
M  V30 1906 N 178.85 -1.27639 -0.924453 0
M  V30 1907 C 179.78 -1.13166 -2.04244 0
M  V30 1908 C 180.761 -0.032256 -1.70069 0
M  V30 1909 O 181.946 -0.207328 -1.9309 0
M  V30 1910 C 179.076 -0.781496 -3.38393 0
M  V30 1911 C 178.03 -1.83449 -3.86692 0
M  V30 1912 C 177.356 -1.33822 -5.17683 0
M  V30 1913 C 178.656 -3.23917 -4.09726 0
M  V30 1914 H 180.35 -2.06689 -2.1661 0
M  V30 1915 H 177.896 -0.995136 -1.04082 0
M  V30 1916 H 179.849 -0.667057 -4.16087 0
M  V30 1917 H 178.573 0.189439 -3.2605 0
M  V30 1918 H 177.232 -1.93789 -3.11193 0
M  V30 1919 H 176.88 -0.35665 -5.01734 0
M  V30 1920 H 176.58 -2.04224 -5.50968 0
M  V30 1921 H 178.104 -1.23679 -5.97943 0
M  V30 1922 H 179.518 -3.16559 -4.77978 0
M  V30 1923 H 177.915 -3.92059 -4.54324 0
M  V30 1924 H 178.985 -3.68729 -3.14908 0
M  V30 1925 N 180.328 1.1314 -1.09713 0
M  V30 1926 C 181.577 1.83838 -0.829851 0
M  V30 1927 C 181.89 1.84599 0.646728 0
M  V30 1928 O 183.096 2.51218 1.02965 0
M  V30 1929 C 181.552 3.30069 -1.43466 0
M  V30 1930 C 181.16 3.37688 -2.94399 0
M  V30 1931 C 182.904 4.05788 -1.24645 0
M  V30 1932 C 180.811 4.78209 -3.47952 0
M  V30 1933 H 179.741 0.68877 -0.306777 0
M  V30 1934 H 182.392 1.27448 -1.3202 0
M  V30 1935 H 180.774 3.8628 -0.871996 0
M  V30 1936 H 181.948 2.91456 -3.56918 0
M  V30 1937 H 180.263 2.75436 -3.12289 0
M  V30 1938 H 182.86 5.09535 -1.62107 0
M  V30 1939 H 183.203 4.15878 -0.187357 0
M  V30 1940 H 183.736 3.55915 -1.77678 0
M  V30 1941 H 180.475 4.73311 -4.53495 0
M  V30 1942 H 179.995 5.24924 -2.90198 0
M  V30 1943 H 181.674 5.47133 -3.45332 0
M  V30 1944 N 181.806 0.884767 1.30421 0
M  V30 1945 C 183.054 0.502112 1.95763 0
M  V30 1946 C 183.375 -0.951815 1.70192 0
M  V30 1947 O 182.645 -1.6692 1.0254 0
M  V30 1948 H 181.225 0.182694 0.724315 0
M  V30 1949 H 183.887 1.1278 1.58955 0
M  V30 1950 H 182.983 0.672188 3.04775 0
M  V30 1951 N 183.284 -1.43765 0.645699 0
M  V30 1952 C 184.247 -2.29163 -0.0409488 0
M  V30 1953 C 185.247 -1.41813 -0.757996 0
M  V30 1954 O 186.437 -1.63527 -0.600382 0
M  V30 1955 C 183.569 -3.23716 -1.06869 0
M  V30 1956 H 184.762 -2.91366 0.710345 0
M  V30 1957 H 182.315 -1.5092 0.406547 0
M  V30 1958 H 183.05 -2.66393 -1.84947 0
M  V30 1959 H 182.835 -3.88105 -0.558277 0
M  V30 1960 H 184.325 -3.87831 -1.54845 0
M  V30 1961 N 184.763 -0.387143 -1.52771 0
M  V30 1962 C 186.011 0.195349 -2.01154 0
M  V30 1963 C 186.332 1.475 -1.27549 0
M  V30 1964 O 185.602 1.91878 -0.394924 0
M  V30 1965 H 184.182 0.075178 -0.743207 0
M  V30 1966 H 186.844 -0.518337 -1.87881 0
M  V30 1967 H 185.94 0.407096 -3.09434 0
M  V30 1968 N 186.241 1.57166 -0.116904 0
M  V30 1969 C 187.518 1.86645 0.585049 0
M  V30 1970 C 187.898 1.0177 1.84949 0
M  V30 1971 O 187.246 0.0960379 2.28298 0
M  V30 1972 C 187.456 3.37736 0.879507 0
M  V30 1973 C 188.804 4.06289 1.23348 0
M  V30 1974 O 189.828 3.42743 0.969836 0
M  V30 1975 O 188.687 5.18455 1.7282 0
M  V30 1976 H 185.781 0.772593 0.295007 0
M  V30 1977 H 188.327 1.69025 -0.151249 0
M  V30 1978 H 187.099 3.91296 -0.0166136 0
M  V30 1979 H 186.722 3.6078 1.67103 0
M  V30 1980 N 187.719 -0.156864 1.56817 0
M  V30 1981 C 188.651 -1.21883 1.94106 0
M  V30 1982 C 189.664 -1.3971 0.835754 0
M  V30 1983 O 190.853 -1.39457 1.11418 0
M  V30 1984 C 187.953 -2.58527 2.19127 0
M  V30 1985 C 187.126 -2.61809 3.50393 0
M  V30 1986 C 186.185 -3.7992 3.64071 0
M  V30 1987 O 185.211 -3.65249 4.36557 0
M  V30 1988 N 186.413 -4.96973 2.99997 0
M  V30 1989 H 189.178 -0.901974 2.85805 0
M  V30 1990 H 186.739 -0.346513 1.58148 0
M  V30 1991 H 188.731 -3.36034 2.25529 0
M  V30 1992 H 187.301 -2.82545 1.33742 0
M  V30 1993 H 186.521 -1.7029 3.5552 0
M  V30 1994 H 187.809 -2.61024 4.36742 0
M  V30 1995 H 187.207 -5.11794 2.41004 0
M  V30 1996 H 185.764 -5.7229 3.11974 0
M  V30 1997 N 189.197 -1.51736 -0.425897 0
M  V30 1998 C 190.445 -1.64644 -1.17204 0
M  V30 1999 C 190.766 -0.370486 -1.91448 0
M  V30 2000 O 190.036 0.614088 -1.86026 0
M  V30 2001 H 188.616 -0.606819 -0.435638 0
M  V30 2002 H 191.278 -1.88713 -0.487177 0
M  V30 2003 H 190.374 -2.47958 -1.89534 0
M  V30 2004 N 190.675 0.682077 -1.42076 0
M  V30 2005 C 191.924 1.43786 -1.41451 0
M  V30 2006 C 192.237 1.95574 -0.0317074 0
M  V30 2007 O 193.443 2.71326 0.0971462 0
M  V30 2008 C 191.899 2.60071 -2.48779 0
M  V30 2009 C 191.507 2.15013 -3.93031 0
M  V30 2010 C 193.251 3.37626 -2.57311 0
M  V30 2011 C 191.158 3.28336 -4.91883 0
M  V30 2012 H 190.088 0.540143 -0.526082 0
M  V30 2013 H 192.739 0.739157 -1.67955 0
M  V30 2014 H 191.121 3.32275 -2.15429 0
M  V30 2015 H 192.295 1.5001 -4.35699 0
M  V30 2016 H 190.61 1.50416 -3.88284 0
M  V30 2017 H 193.207 4.22012 -3.28345 0
M  V30 2018 H 193.55 3.83727 -1.61429 0
M  V30 2019 H 194.083 2.72488 -2.89819 0
M  V30 2020 H 190.822 2.87234 -5.89217 0
M  V30 2021 H 190.342 3.92145 -4.53853 0
M  V30 2022 H 192.021 3.93913 -5.13265 0
M  V30 2023 N 192.153 1.28127 0.917671 0
M  V30 2024 C 193.086 1.06039 2.02067 0
M  V30 2025 C 194.064 -0.0223285 1.62585 0
M  V30 2026 O 195.248 0.124823 1.88086 0
M  V30 2027 C 192.375 0.610596 3.33151 0
M  V30 2028 C 191.421 1.68937 3.91615 0
M  V30 2029 S 192.254 3.28437 4.22953 0
M  V30 2030 C 193.41 2.85283 5.57103 0
M  V30 2031 H 193.643 1.99425 2.20493 0
M  V30 2032 H 191.176 1.12071 1.06205 0
M  V30 2033 H 193.134 0.357778 4.08938 0
M  V30 2034 H 191.795 -0.303364 3.12632 0
M  V30 2035 H 190.988 1.32619 4.86239 0
M  V30 2036 H 190.59 1.89478 3.2245 0
M  V30 2037 H 192.882 2.3121 6.36827 0
M  V30 2038 H 193.825 3.7869 5.98331 0
M  V30 2039 H 194.233 2.24118 5.18104 0
M  V30 2040 N 193.631 -1.12557 1.10312 0
M  V30 2041 C 194.878 -1.84038 0.844759 0
M  V30 2042 C 195.206 -1.84026 -0.629668 0
M  V30 2043 O 194.461 -1.28026 -1.48013 0
M  V30 2044 C 194.76 -3.31462 1.33669 0
M  V30 2045 C 194.426 -3.51647 2.82232 0
M  V30 2046 C 193.088 -3.56864 3.22802 0
M  V30 2047 C 195.44 -3.58867 3.77974 0
M  V30 2048 C 192.768 -3.66844 4.57867 0
M  V30 2049 C 195.12 -3.70375 5.1284 0
M  V30 2050 C 193.784 -3.73848 5.52986 0
M  V30 2051 H 193.054 -0.673444 0.309119 0
M  V30 2052 H 195.701 -1.32824 1.37949 0
M  V30 2053 H 194.006 -3.85091 0.721949 0
M  V30 2054 H 195.703 -3.85236 1.11329 0
M  V30 2055 H 192.293 -3.48249 2.49842 0
M  V30 2056 H 196.477 -3.54107 3.47738 0
M  V30 2057 H 191.733 -3.67804 4.88396 0
M  V30 2058 H 195.907 -3.74904 5.86873 0
M  V30 2059 H 193.534 -3.81333 6.57639 0
M  V30 2060 N 195.109 -0.891671 -1.2995 0
M  V30 2061 C 196.357 -0.512486 -1.95494 0
M  V30 2062 C 196.678 0.942776 -1.70695 0
M  V30 2063 O 195.948 1.66374 -1.03424 0
M  V30 2064 H 194.528 -0.186533 -0.723336 0
M  V30 2065 H 197.19 -1.13621 -1.58355 0
M  V30 2066 H 196.286 -0.688342 -3.04415 0
M  V30 2067 N 196.587 1.43421 -0.653314 0
M  V30 2068 C 197.817 2.05864 -0.174238 0
M  V30 2069 C 198.225 1.49052 1.16534 0
M  V30 2070 O 197.568 0.616481 1.73047 0
M  V30 2071 C 197.63 3.59499 -0.00875873 0
M  V30 2072 C 197.294 4.38893 -1.27364 0
M  V30 2073 C 198.291 4.70947 -2.20239 0
M  V30 2074 C 195.976 4.789 -1.51525 0
M  V30 2075 C 197.97 5.41916 -3.35568 0
M  V30 2076 C 195.657 5.49614 -2.67147 0
M  V30 2077 C 196.655 5.81044 -3.58994 0
M  V30 2078 O 196.343 6.50313 -4.72597 0
M  V30 2079 H 196.075 0.670345 -0.0872549 0
M  V30 2080 H 198.629 1.84913 -0.894226 0
M  V30 2081 H 196.859 3.79025 0.7666 0
M  V30 2082 H 198.548 4.0364 0.427687 0
M  V30 2083 H 199.314 4.40558 -2.02815 0
M  V30 2084 H 195.193 4.53843 -0.809158 0
M  V30 2085 H 198.737 5.66365 -4.07279 0
M  V30 2086 H 194.634 5.79419 -2.84505 0
M  V30 2087 H 195.402 6.68795 -4.71864 0
M  V30 2088 N 198.065 0.39524 1.52563 0
M  V30 2089 C 199.028 -0.425001 2.25225 0
M  V30 2090 C 200.028 -0.985266 1.27079 0
M  V30 2091 O 201.218 -0.866332 1.5113 0
M  V30 2092 C 198.35 -1.59686 3.01186 0
M  V30 2093 H 199.543 0.211233 2.99155 0
M  V30 2094 H 197.096 0.147472 1.55603 0
M  V30 2095 H 197.831 -2.27035 2.31572 0
M  V30 2096 H 197.616 -1.20176 3.73229 0
M  V30 2097 H 199.106 -2.17743 3.5634 0
M  V30 2098 N 199.544 -1.57102 0.125237 0
M  V30 2099 C 200.772 -1.99761 -0.538797 0
M  V30 2100 C 201.187 -1.00503 -1.59827 0
M  V30 2101 O 200.544 0.00119474 -1.825 0
M  V30 2102 C 200.595 -3.42408 -1.15927 0
M  V30 2103 O 200.316 -4.37869 -0.142143 0
M  V30 2104 C 201.817 -4.00232 -1.90602 0
M  V30 2105 H 199.037 -0.655772 -0.14214 0
M  V30 2106 H 201.581 -2.03383 0.213413 0
M  V30 2107 H 199.736 -3.39706 -1.86223 0
M  V30 2108 H 200.15 -5.21128 -0.593775 0
M  V30 2109 H 201.624 -5.02105 -2.29335 0
M  V30 2110 H 202.101 -3.39721 -2.78363 0
M  V30 2111 H 202.707 -4.06499 -1.25055 0
M  V30 2112 N 201.022 0.148545 -1.56898 0
M  V30 2113 C 202.299 0.890019 -1.74178 0
M  V30 2114 C 202.679 1.99407 -0.692839 0
M  V30 2115 O 202.027 2.26671 0.288505 0
M  V30 2116 C 202.237 1.43389 -3.18183 0
M  V30 2117 C 203.585 1.89791 -3.79822 0
M  V30 2118 O 204.609 1.53134 -3.21603 0
M  V30 2119 O 203.468 2.57387 -4.82093 0
M  V30 2120 H 200.562 0.420496 -0.712118 0
M  V30 2121 H 203.108 0.134591 -1.69165 0
M  V30 2122 H 201.88 0.640383 -3.86024 0
M  V30 2123 H 201.503 2.25287 -3.27615 0
M  V30 2124 N 202.5 1.5196 0.417844 0
M  V30 2125 C 203.41 1.77554 1.53336 0
M  V30 2126 C 204.426 0.660655 1.6097 0
M  V30 2127 O 205.602 0.945099 1.77848 0
M  V30 2128 C 202.667 1.91291 2.89152 0
M  V30 2129 C 201.728 3.15183 2.91475 0
M  V30 2130 C 200.961 3.28256 4.20813 0
M  V30 2131 O 201.184 2.46798 5.14244 0
M  V30 2132 O 200.118 4.21356 4.29817 0
M  V30 2133 H 203.944 2.7222 1.34647 0
M  V30 2134 H 201.529 1.36698 0.602828 0
M  V30 2135 H 203.411 2.02199 3.69721 0
M  V30 2136 H 202.086 0.998129 3.07927 0
M  V30 2137 H 200.993 3.09739 2.09791 0
M  V30 2138 H 202.326 4.06414 2.77648 0
M  V30 2139 N 203.978 -0.674533 1.42435 0
M  V30 2140 C 205.206 -1.46283 1.46317 0
M  V30 2141 C 205.621 -1.88653 0.0745836 0
M  V30 2142 O 204.978 -1.58151 -0.91074 0
M  V30 2143 C 205.029 -2.71178 2.3905 0
M  V30 2144 O 204.75 -2.30586 3.72507 0
M  V30 2145 C 206.251 -3.64738 2.51955 0
M  V30 2146 H 203.471 -0.450104 0.497642 0
M  V30 2147 H 206.015 -0.828792 1.86953 0
M  V30 2148 H 204.17 -3.3077 2.01667 0
M  V30 2149 H 204.584 -3.11241 4.22172 0
M  V30 2150 H 206.058 -4.49096 3.20962 0
M  V30 2151 H 206.535 -4.10656 1.55752 0
M  V30 2152 H 207.141 -3.11038 2.90061 0
M  V30 2153 N 205.456 -1.28612 -0.910864 0
M  V30 2154 C 206.366 -1.14643 -2.0468 0
M  V30 2155 C 207.382 -0.0723121 -1.7385 0
M  V30 2156 O 208.558 -0.282178 -1.99413 0
M  V30 2157 C 205.623 -0.812561 -3.37044 0
M  V30 2158 C 204.684 -1.96935 -3.81465 0
M  V30 2159 C 203.917 -1.65131 -5.07511 0
M  V30 2160 O 204.14 -0.567013 -5.67575 0
M  V30 2161 O 203.074 -2.49585 -5.47714 0
M  V30 2162 H 206.9 -2.1001 -2.19384 0
M  V30 2163 H 204.485 -1.07958 -1.03274 0
M  V30 2164 H 206.367 -0.640441 -4.16505 0
M  V30 2165 H 205.042 0.111426 -3.23508 0
M  V30 2166 H 203.949 -2.19664 -3.02818 0
M  V30 2167 H 205.282 -2.87414 -3.99567 0
M  V30 2168 N 206.934 1.1197 -1.10907 0
M  V30 2169 C 207.882 2.19927 -0.757303 0
M  V30 2170 C 208.876 1.67564 0.248747 0
M  V30 2171 O 210.082 1.79672 0.108605 0
M  V30 2172 H 206.457 0.716925 -0.226987 0
M  V30 2173 H 208.428 2.46847 -1.67658 0
M  V30 2174 C 207.177 3.47061 -0.210671 0
M  V30 2175 H 206.5 3.87703 -0.976049 0
M  V30 2176 H 207.94 4.24 -0.0026584 0
M  V30 2177 C 206.399 3.19864 1.05777 0
M  V30 2178 O 206.929 3.40049 2.13845 0
M  V30 2179 N 205.135 2.73636 0.978349 0
M  V30 2180 H 204.682 2.5741 0.0988246 0
M  V30 2181 H 204.64 2.55815 1.82773 0
M  V30 2182 N 208.412 0.89855 1.29475 0
M  V30 2183 C 209.642 0.538479 1.99459 0
M  V30 2184 C 210.05 -0.880922 1.67441 0
M  V30 2185 O 209.393 -1.59283 0.915127 0
M  V30 2186 C 209.455 0.649564 3.53583 0
M  V30 2187 C 209.119 2.03573 4.09154 0
M  V30 2188 C 210.116 3.00675 4.24135 0
M  V30 2189 C 207.801 2.3448 4.44212 0
M  V30 2190 C 209.795 4.26809 4.73405 0
M  V30 2191 C 207.482 3.60857 4.93179 0
M  V30 2192 C 208.48 4.56836 5.0773 0
M  V30 2193 O 208.168 5.80969 5.55635 0
M  V30 2194 H 207.9 0.205372 0.644048 0
M  V30 2195 H 210.454 1.20958 1.66007 0
M  V30 2196 H 208.684 -0.0785592 3.8662 0
M  V30 2197 H 210.373 0.29881 4.04799 0
M  V30 2198 H 211.139 2.78112 3.97339 0
M  V30 2199 H 207.018 1.60534 4.32145 0
M  V30 2200 H 210.562 5.0173 4.84678 0
M  V30 2201 H 206.459 3.83251 5.19412 0
M  V30 2202 H 207.227 5.83542 5.73952 0
M  V30 2203 N 209.89 -1.43072 0.660911 0
M  V30 2204 C 210.823 -2.28074 -0.0758862 0
M  V30 2205 C 211.801 -1.40271 -0.822362 0
M  V30 2206 O 212.985 -1.69713 -0.820352 0
M  V30 2207 C 210.112 -3.19843 -1.11437 0
M  V30 2208 C 209.158 -4.23957 -0.465069 0
M  V30 2209 S 209.991 -5.29978 0.767078 0
M  V30 2210 C 211.147 -6.25314 -0.270682 0
M  V30 2211 H 211.38 -2.90216 0.645139 0
M  V30 2212 H 208.913 -1.47697 0.449995 0
M  V30 2213 H 210.871 -3.73257 -1.70849 0
M  V30 2214 H 209.532 -2.56863 -1.80776 0
M  V30 2215 H 208.725 -4.88299 -1.24819 0
M  V30 2216 H 208.327 -3.73959 0.0551242 0
M  V30 2217 H 210.619 -6.67932 -1.13459 0
M  V30 2218 H 211.562 -7.07293 0.337916 0
M  V30 2219 H 211.97 -5.61195 -0.609937 0
M  V30 2220 N 211.368 -0.403325 -1.52352 0
M  V30 2221 C 212.779 0.0675782 -1.86578 0
M  V30 2222 C 213.13 1.44941 -1.32236 0
M  V30 2223 O 212.255 2.06112 -0.659307 0
M  V30 2224 C 212.85 0.129404 -3.38553 0
M  V30 2225 C 211.409 0.544629 -3.72439 0
M  V30 2226 C 210.556 -0.284551 -2.75836 0
M  V30 2227 H 213.507 -0.620631 -1.46061 0
M  V30 2228 H 213.528 0.94581 -3.68558 0
M  V30 2229 H 213.04 -0.87645 -3.78074 0
M  V30 2230 H 211.141 1.55734 -3.38493 0
M  V30 2231 H 211.254 0.293046 -4.78203 0
M  V30 2232 H 209.618 0.252258 -2.53448 0
M  V30 2233 H 210.401 -1.28865 -3.18196 0
M  V30 2234 N 212.846 1.57033 -0.133567 0
M  V30 2235 C 213.776 2.1909 0.807567 0
M  V30 2236 C 214.757 1.13517 1.26681 0
M  V30 2237 O 215.942 1.41809 1.32679 0
M  V30 2238 C 213.072 2.80188 2.05212 0
M  V30 2239 C 212.026 3.91471 1.73015 0
M  V30 2240 C 211.352 4.39443 3.04622 0
M  V30 2241 C 212.652 5.12886 0.987168 0
M  V30 2242 H 214.346 2.97988 0.290403 0
M  V30 2243 H 211.892 1.43335 0.138239 0
M  V30 2244 H 213.845 3.22264 2.71521 0
M  V30 2245 H 212.569 1.98601 2.59278 0
M  V30 2246 H 211.228 3.49993 1.0909 0
M  V30 2247 H 210.876 3.54695 3.56651 0
M  V30 2248 H 210.576 5.14495 2.83847 0
M  V30 2249 H 212.1 4.8418 3.72024 0
M  V30 2250 H 213.514 5.51891 1.55208 0
M  V30 2251 H 211.911 5.93615 0.87985 0
M  V30 2252 H 212.981 4.84894 -0.0235286 0
M  V30 2253 N 214.325 -0.140222 1.56975 0
M  V30 2254 C 215.553 -0.866437 1.87884 0
M  V30 2255 C 215.968 -1.74428 0.722517 0
M  V30 2256 O 215.325 -1.79891 -0.30749 0
M  V30 2257 C 215.376 -1.71753 3.18093 0
M  V30 2258 O 215.097 -0.875056 4.29272 0
M  V30 2259 C 216.598 -2.55074 3.62563 0
M  V30 2260 H 213.818 -0.25019 0.622612 0
M  V30 2261 H 216.362 -0.130977 2.0408 0
M  V30 2262 H 214.517 -2.40598 3.03631 0
M  V30 2263 H 214.931 -1.46002 5.03769 0
M  V30 2264 H 216.405 -3.10356 4.5649 0
M  V30 2265 H 216.882 -3.31434 2.88181 0
M  V30 2266 H 217.488 -1.91509 3.79743 0
M  V30 2267 N 215.803 -1.52179 -0.40978 0
M  V30 2268 C 216.753 -1.71857 -1.49831 0
M  V30 2269 C 217.737 -0.572469 -1.50372 0
M  V30 2270 O 218.929 -0.829509 -1.56359 0
M  V30 2271 C 216.058 -1.87206 -2.87765 0
M  V30 2272 C 215.144 -3.07685 -2.91875 0
M  V30 2273 N 215.535 -4.30403 -2.65683 0
M  V30 2274 C 213.833 -3.07505 -3.23043 0
M  V30 2275 C 214.534 -5.11868 -2.76344 0
M  V30 2276 N 213.51 -4.47101 -3.09195 0
M  V30 2277 H 217.312 -2.64381 -1.28375 0
M  V30 2278 H 214.826 -1.50203 -0.617479 0
M  V30 2279 H 216.823 -1.99419 -3.66111 0
M  V30 2280 H 215.483 -0.958814 -3.10221 0
M  V30 2281 H 216.494 -4.58887 -2.4009 0
M  V30 2282 H 213.171 -2.25915 -3.51096 0
M  V30 2283 H 214.561 -6.19634 -2.59814 0
M  V30 2284 N 217.281 0.66697 -1.42791 0
M  V30 2285 C 218.231 1.77313 -1.43332 0
M  V30 2286 C 219.215 1.5801 -0.303586 0
M  V30 2287 O 220.407 1.68356 -0.546385 0
M  V30 2288 C 217.536 3.15822 -1.34578 0
M  V30 2289 C 216.622 3.40721 -2.52528 0
M  V30 2290 N 217.013 3.36162 -3.77927 0
M  V30 2291 C 215.311 3.71387 -2.46956 0
M  V30 2292 C 216.012 3.60762 -4.56318 0
M  V30 2293 N 214.988 3.81908 -3.86843 0
M  V30 2294 H 218.79 1.72193 -2.38174 0
M  V30 2295 H 216.304 0.868114 -1.3725 0
M  V30 2296 H 218.301 3.951 -1.33048 0
M  V30 2297 H 216.961 3.22133 -0.407453 0
M  V30 2298 H 217.972 3.15885 -4.10411 0
M  V30 2299 H 214.649 3.84897 -1.61743 0
M  V30 2300 H 216.039 3.63132 -5.65318 0
M  V30 2301 N 218.759 1.29093 0.90403 0
M  V30 2302 C 219.989 1.19516 1.68522 0
M  V30 2303 C 220.397 -0.24738 1.87576 0
M  V30 2304 O 219.74 -1.17798 1.40959 0
M  V30 2305 C 219.802 1.83249 3.0929 0
M  V30 2306 C 219.466 3.32531 3.13484 0
M  V30 2307 C 220.463 4.28821 2.93953 0
M  V30 2308 C 218.148 3.73656 3.35688 0
M  V30 2309 C 220.142 5.64212 2.96553 0
M  V30 2310 C 217.829 5.0917 3.37919 0
M  V30 2311 C 218.827 6.04258 3.18373 0
M  V30 2312 O 218.515 7.37298 3.20385 0
M  V30 2313 H 218.247 0.415467 0.533257 0
M  V30 2314 H 220.801 1.70912 1.13922 0
M  V30 2315 H 219.031 1.26358 3.65473 0
M  V30 2316 H 220.72 1.68054 3.69476 0
M  V30 2317 H 221.486 3.98382 2.76616 0
M  V30 2318 H 217.365 3.00101 3.49943 0
M  V30 2319 H 220.909 6.38407 2.81216 0
M  V30 2320 H 216.806 5.39256 3.54787 0
M  V30 2321 H 217.574 7.46048 3.36681 0
M  V30 2322 N 220.237 -1.11381 1.11499 0
M  V30 2323 C 221.2 -2.15622 0.777153 0
M  V30 2324 C 222.2 -1.59504 -0.203779 0
M  V30 2325 O 223.39 -1.74188 0.020782 0
M  V30 2326 C 220.522 -3.40556 0.153116 0
M  V30 2327 H 221.715 -2.47021 1.70061 0
M  V30 2328 H 219.268 -1.26577 0.916952 0
M  V30 2329 H 220.003 -3.14767 -0.780536 0
M  V30 2330 H 219.788 -3.8257 0.859238 0
M  V30 2331 H 221.278 -4.17546 -0.0671044 0
M  V30 2332 N 221.715 -0.905404 -1.28997 0
M  V30 2333 C 222.943 -0.549846 -1.9946 0
M  V30 2334 C 223.358 0.866834 -1.67724 0
M  V30 2335 O 222.715 1.57298 -0.925404 0
M  V30 2336 C 222.766 -0.739387 -3.53858 0
M  V30 2337 O 222.487 -2.10031 -3.84472 0
M  V30 2338 C 223.988 -0.389541 -4.41585 0
M  V30 2339 H 221.208 -0.210429 -0.637151 0
M  V30 2340 H 223.752 -1.21632 -1.64396 0
M  V30 2341 H 221.907 -0.120023 -3.87214 0
M  V30 2342 H 222.321 -2.13385 -4.79132 0
M  V30 2343 H 223.795 -0.572972 -5.49018 0
M  V30 2344 H 224.272 0.673756 -4.34001 0
M  V30 2345 H 224.878 -0.986089 -4.1371 0
M  V30 2346 N 223.193 1.4272 -0.668489 0
M  V30 2347 C 224.123 2.335 -0.000100175 0
M  V30 2348 C 225.104 1.50328 0.795964 0
M  V30 2349 O 226.289 1.78949 0.754385 0
M  V30 2350 C 223.419 3.33874 0.956302 0
M  V30 2351 C 222.373 4.27152 0.269278 0
M  V30 2352 C 221.699 5.17684 1.33818 0
M  V30 2353 C 222.999 5.15373 -0.847805 0
M  V30 2354 H 224.693 2.89639 -0.758244 0
M  V30 2355 H 222.239 1.39269 -0.366079 0
M  V30 2356 H 224.192 3.9629 1.43292 0
M  V30 2357 H 222.916 2.76025 1.74579 0
M  V30 2358 H 221.575 3.66123 -0.187042 0
M  V30 2359 H 221.223 4.56165 2.1195 0
M  V30 2360 H 220.923 5.80918 0.883659 0
M  V30 2361 H 222.447 5.82974 1.81586 0
M  V30 2362 H 223.861 5.7151 -0.452681 0
M  V30 2363 H 222.258 5.87407 -1.22773 0
M  V30 2364 H 223.328 4.5415 -1.69929 0
M  V30 2365 N 224.671 0.411399 1.52136 0
M  V30 2366 C 225.601 -0.404015 2.29978 0
M  V30 2367 C 226.582 -1.04412 1.34284 0
M  V30 2368 O 227.767 -1.0527 1.63192 0
M  V30 2369 C 224.897 -1.5197 3.12286 0
M  V30 2370 C 223.851 -1.00448 4.16046 0
M  V30 2371 C 223.177 -2.21393 4.86712 0
M  V30 2372 C 224.477 -0.0569336 5.22269 0
M  V30 2373 H 226.171 0.245529 2.98392 0
M  V30 2374 H 223.717 0.119525 1.43503 0
M  V30 2375 H 225.67 -2.09715 3.6551 0
M  V30 2376 H 224.394 -2.19716 2.41646 0
M  V30 2377 H 223.053 -0.449421 3.63835 0
M  V30 2378 H 222.701 -2.87699 4.12599 0
M  V30 2379 H 222.401 -1.87571 5.56858 0
M  V30 2380 H 223.925 -2.7974 5.4275 0
M  V30 2381 H 225.339 -0.54325 5.7072 0
M  V30 2382 H 223.736 0.192594 5.99791 0
M  V30 2383 H 224.806 0.887663 4.76706 0
M  V30 2384 N 226.149 -1.5696 0.141893 0
M  V30 2385 C 227.397 -1.95573 -0.509484 0
M  V30 2386 C 227.718 -1.02746 -1.65736 0
M  V30 2387 O 226.988 -0.0880311 -1.95702 0
M  V30 2388 H 225.568 -0.722115 -0.191205 0
M  V30 2389 H 228.23 -1.93697 0.216196 0
M  V30 2390 H 227.326 -2.99171 -0.889 0
M  V30 2391 N 227.627 0.131896 -1.57047 0
M  V30 2392 C 228.574 1.16236 -1.99393 0
M  V30 2393 C 229.544 1.41863 -0.863943 0
M  V30 2394 O 230.729 1.53946 -1.12718 0
M  V30 2395 C 227.869 2.48708 -2.39245 0
M  V30 2396 C 226.982 2.30127 -3.65603 0
M  V30 2397 C 226.117 3.55738 -3.94492 0
M  V30 2398 C 225.156 3.32259 -5.14073 0
M  V30 2399 N 224.293 4.50039 -5.38896 0
M  V30 2400 H 229.133 0.794251 -2.87221 0
M  V30 2401 H 226.67 0.380707 -1.42088 0
M  V30 2402 H 228.628 3.25969 -2.60384 0
M  V30 2403 H 227.258 2.83437 -1.54478 0
M  V30 2404 H 226.31 1.43845 -3.52154 0
M  V30 2405 H 227.622 2.08746 -4.5302 0
M  V30 2406 H 226.776 4.41423 -4.1621 0
M  V30 2407 H 225.515 3.80138 -3.05526 0
M  V30 2408 H 224.52 2.44963 -4.92212 0
M  V30 2409 H 225.745 3.09242 -6.04604 0
M  V30 2410 H 223.691 4.74584 -4.52886 0
M  V30 2411 H 223.608 4.31716 -6.2061 0
M  V30 2412 H 224.876 5.36895 -5.65123 0
M  V30 2413 N 229.106 1.52395 0.401703 0
M  V30 2414 C 230.522 1.41363 0.740864 0
M  V30 2415 C 230.722 0.523982 1.94568 0
M  V30 2416 O 229.778 -0.00741204 2.52499 0
M  V30 2417 C 231.091 2.84011 0.987847 0
M  V30 2418 C 232.639 2.93404 1.09011 0
M  V30 2419 C 233.114 4.37036 1.3698 0
M  V30 2420 N 234.605 4.40304 1.43829 0
M  V30 2421 C 235.34 5.48508 1.67112 0
M  V30 2422 N 234.836 6.66819 1.87949 0
M  V30 2423 N 236.629 5.36034 1.69187 0
M  V30 2424 H 228.78 2.08765 -0.391262 0
M  V30 2425 H 231.043 0.941265 -0.112798 0
M  V30 2426 H 230.749 3.51265 0.174835 0
M  V30 2427 H 230.623 3.25502 1.906 0
M  V30 2428 H 233.01 2.26325 1.8937 0
M  V30 2429 H 233.091 2.55359 0.15015 0
M  V30 2430 H 232.735 5.04676 0.571353 0
M  V30 2431 H 232.665 4.72623 2.3224 0
M  V30 2432 H 235.156 3.55024 1.29486 0
M  V30 2433 H 235.469 7.45063 2.05185 0
M  V30 2434 H 233.814 6.6987 1.85199 0
M  V30 2435 H 237.005 4.42579 1.52451 0
M  V30 2436 H 237.178 6.20434 1.86993 0
M  V30 2437 N 230.584 -0.659388 1.43143 0
M  V30 2438 C 231.514 -1.78422 1.50625 0
M  V30 2439 C 232.495 -1.66216 0.361443 0
M  V30 2440 O 233.68 -1.85404 0.577834 0
M  V30 2441 C 230.81 -3.16815 1.42287 0
M  V30 2442 C 229.764 -3.43777 2.54954 0
M  V30 2443 C 229.09 -4.81905 2.31671 0
M  V30 2444 C 230.39 -3.39134 3.97222 0
M  V30 2445 H 232.084 -1.72417 2.44771 0
M  V30 2446 H 229.63 -0.828084 1.17808 0
M  V30 2447 H 231.583 -3.95253 1.46127 0
M  V30 2448 H 230.307 -3.23534 0.446435 0
M  V30 2449 H 228.966 -2.67707 2.50457 0
M  V30 2450 H 228.614 -4.85294 1.32284 0
M  V30 2451 H 228.314 -5.00906 3.07192 0
M  V30 2452 H 229.838 -5.62609 2.37284 0
M  V30 2453 H 231.252 -4.07518 4.03239 0
M  V30 2454 H 229.649 -3.69671 4.72719 0
M  V30 2455 H 230.719 -2.37426 4.22797 0
M  V30 2456 N 232.062 -1.29571 -0.897171 0
M  V30 2457 C 233.29 -1.20583 -1.68129 0
M  V30 2458 C 233.705 0.233181 -1.87354 0
M  V30 2459 O 233.062 1.15579 -1.41236 0
M  V30 2460 C 233.113 -1.91772 -3.06441 0
M  V30 2461 O 232.834 -3.30053 -2.88091 0
M  V30 2462 C 234.335 -1.89291 -4.00854 0
M  V30 2463 H 231.555 -0.417826 -0.525036 0
M  V30 2464 H 234.099 -1.70987 -1.12177 0
M  V30 2465 H 232.254 -1.45196 -3.59161 0
M  V30 2466 H 232.668 -3.65942 -3.75748 0
M  V30 2467 H 234.142 -2.43662 -4.95311 0
M  V30 2468 H 234.619 -0.869014 -4.30517 0
M  V30 2469 H 235.225 -2.35622 -3.54066 0
M  V30 2470 N 233.54 1.10788 -1.12088 0
M  V30 2471 C 234.45 2.20599 -0.798338 0
M  V30 2472 C 235.466 1.72712 0.21135 0
M  V30 2473 O 236.642 2.01348 0.0458477 0
M  V30 2474 C 233.707 3.45771 -0.253674 0
M  V30 2475 C 232.768 4.08411 -1.32283 0
M  V30 2476 C 232.001 5.27608 -0.80406 0
M  V30 2477 O 232.224 5.69241 0.363478 0
M  V30 2478 O 231.158 5.8101 -1.57198 0
M  V30 2479 H 234.984 2.50614 -1.7154 0
M  V30 2480 H 232.569 1.19454 -0.897275 0
M  V30 2481 H 234.451 4.21376 0.0453691 0
M  V30 2482 H 233.126 3.1739 0.636005 0
M  V30 2483 H 232.033 3.34507 -1.67499 0
M  V30 2484 H 233.366 4.40986 -2.18614 0
M  V30 2485 N 235.018 0.912232 1.28515 0
M  V30 2486 C 236.264 0.545405 1.95328 0
M  V30 2487 C 236.597 -0.908313 1.71649 0
M  V30 2488 O 235.872 -1.64575 1.03659 0
M  V30 2489 C 236.155 0.853483 3.4984 0
M  V30 2490 C 236.008 2.35982 3.82926 0
M  V30 2491 C 237.327 0.348589 4.38717 0
M  V30 2492 H 234.446 0.199626 0.709449 0
M  V30 2493 H 237.088 1.1412 1.5191 0
M  V30 2494 H 235.238 0.34643 3.86952 0
M  V30 2495 H 236.91 2.93738 3.55691 0
M  V30 2496 H 235.153 2.81543 3.30024 0
M  V30 2497 H 235.824 2.52593 4.90816 0
M  V30 2498 H 238.3 0.78294 4.08668 0
M  V30 2499 H 237.176 0.593242 5.45685 0
M  V30 2500 H 237.437 -0.751049 4.35674 0
M  V30 2501 N 236.496 -1.42363 0.676048 0
M  V30 2502 C 237.912 -1.55811 0.345718 0
M  V30 2503 C 238.112 -1.65544 -1.14879 0
M  V30 2504 O 237.168 -1.62306 -1.93424 0
M  V30 2505 C 238.481 -2.80746 1.07713 0
M  V30 2506 C 240.029 -2.9452 1.05958 0
M  V30 2507 C 240.504 -4.22318 1.77233 0
M  V30 2508 N 241.995 -4.29233 1.74108 0
M  V30 2509 C 242.73 -5.26935 2.26113 0
M  V30 2510 N 242.226 -6.30783 2.86505 0
M  V30 2511 N 244.019 -5.18741 2.1648 0
M  V30 2512 H 236.17 -1.34289 1.6456 0
M  V30 2513 H 238.433 -0.646506 0.69335 0
M  V30 2514 H 238.139 -2.79696 2.13221 0
M  V30 2515 H 238.013 -3.71676 0.64316 0
M  V30 2516 H 240.4 -2.95097 0.0128255 0
M  V30 2517 H 240.481 -2.04817 1.53244 0
M  V30 2518 H 240.125 -4.22502 2.81877 0
M  V30 2519 H 240.055 -5.10958 1.27396 0
M  V30 2520 H 242.546 -3.54814 1.30059 0
M  V30 2521 H 242.859 -7.01691 3.23805 0
M  V30 2522 H 241.204 -6.31341 2.90575 0
M  V30 2523 H 244.395 -4.36533 1.68987 0
M  V30 2524 H 244.568 -5.94721 2.57316 0
M  V30 2525 N 237.974 -0.419461 -1.51915 0
M  V30 2526 C 238.921 0.400927 -2.27291 0
M  V30 2527 C 239.891 1.03224 -1.30131 0
M  V30 2528 O 241.076 1.05455 -1.59009 0
M  V30 2529 C 238.216 1.50603 -3.10504 0
M  V30 2530 C 237.329 0.89462 -4.22635 0
M  V30 2531 C 236.464 1.97328 -4.93189 0
M  V30 2532 C 235.503 1.33935 -5.97267 0
M  V30 2533 N 234.64 2.3586 -6.61298 0
M  V30 2534 H 239.48 -0.248251 -2.96964 0
M  V30 2535 H 237.017 -0.134266 -1.46486 0
M  V30 2536 H 238.975 2.15783 -3.57062 0
M  V30 2537 H 237.605 2.12509 -2.42981 0
M  V30 2538 H 236.657 0.131583 -3.80172 0
M  V30 2539 H 237.969 0.391641 -4.9726 0
M  V30 2540 H 237.123 2.70211 -5.43204 0
M  V30 2541 H 235.862 2.50994 -4.18155 0
M  V30 2542 H 234.867 0.595896 -5.46561 0
M  V30 2543 H 236.092 0.810252 -6.74249 0
M  V30 2544 H 234.038 2.88639 -5.89087 0
M  V30 2545 H 233.955 1.90403 -7.3163 0
M  V30 2546 H 235.223 3.08282 -7.15949 0
M  V30 2547 N 239.452 1.56882 -0.150215 0
M  V30 2548 C 240.382 2.19935 0.784284 0
M  V30 2549 C 241.363 1.14854 1.25469 0
M  V30 2550 O 242.548 1.43209 1.31168 0
M  V30 2551 C 239.678 2.82349 2.02229 0
M  V30 2552 C 238.632 3.93285 1.68853 0
M  V30 2553 C 237.958 4.42649 2.99944 0
M  V30 2554 C 239.258 5.13904 0.932714 0
M  V30 2555 H 240.952 2.9828 0.258781 0
M  V30 2556 H 238.498 1.43473 0.123029 0
M  V30 2557 H 240.451 3.25126 2.68088 0
M  V30 2558 H 239.175 2.0134 2.57157 0
M  V30 2559 H 237.834 3.5113 1.05371 0
M  V30 2560 H 237.482 3.58458 3.52869 0
M  V30 2561 H 237.182 5.17476 2.78374 0
M  V30 2562 H 238.706 4.88099 3.66868 0
M  V30 2563 H 240.12 5.53506 1.49345 0
M  V30 2564 H 238.517 5.94515 0.81684 0
M  V30 2565 H 239.587 4.84842 -0.0749568 0
M  V30 2566 N 240.93 -0.123565 1.57115 0
M  V30 2567 C 242.178 -0.83051 1.84247 0
M  V30 2568 C 242.499 -1.80629 0.73471 0
M  V30 2569 O 241.769 -1.94403 -0.241688 0
M  V30 2570 H 240.349 -0.309694 0.679778 0
M  V30 2571 H 243.011 -0.111976 1.94578 0
M  V30 2572 H 242.107 -1.37852 2.80006 0
M  V30 2573 N 242.408 -1.52605 -0.393616 0
M  V30 2574 C 243.657 -1.66649 -1.13627 0
M  V30 2575 C 243.97 -0.410364 -1.91247 0
M  V30 2576 O 245.176 -0.430854 -2.68059 0
M  V30 2577 C 243.632 -2.9449 -2.06891 0
M  V30 2578 C 243.24 -4.27266 -1.34714 0
M  V30 2579 C 244.984 -3.17899 -2.81319 0
M  V30 2580 C 242.891 -5.46217 -2.26717 0
M  V30 2581 H 241.821 -0.62084 -0.427871 0
M  V30 2582 H 244.472 -1.791 -0.399428 0
M  V30 2583 H 242.854 -2.75774 -2.84191 0
M  V30 2584 H 244.028 -4.56518 -0.626714 0
M  V30 2585 H 242.343 -4.10081 -0.722643 0
M  V30 2586 H 244.94 -4.03949 -3.50328 0
M  V30 2587 H 245.283 -2.32777 -3.45139 0
M  V30 2588 H 245.816 -3.37159 -2.11113 0
M  V30 2589 H 242.555 -6.33733 -1.67521 0
M  V30 2590 H 242.075 -5.21283 -2.96689 0
M  V30 2591 H 243.754 -5.7991 -2.86903 0
M  V30 2592 N 243.887 0.651787 -1.4349 0
M  V30 2593 C 244.817 1.77621 -1.51569 0
M  V30 2594 C 245.798 1.66022 -0.370253 0
M  V30 2595 O 246.983 1.85095 -0.587658 0
M  V30 2596 C 244.113 3.16056 -1.43966 0
M  V30 2597 C 243.067 3.4242 -2.56774 0
M  V30 2598 C 242.393 4.8067 -2.34223 0
M  V30 2599 C 243.693 3.37023 -3.99015 0
M  V30 2600 H 245.387 1.71117 -2.45681 0
M  V30 2601 H 242.933 0.821825 -1.18246 0
M  V30 2602 H 244.886 3.94472 -1.48221 0
M  V30 2603 H 243.61 3.23293 -0.463586 0
M  V30 2604 H 242.269 2.66375 -2.51873 0
M  V30 2605 H 241.917 4.84585 -1.34856 0
M  V30 2606 H 241.617 4.9927 -3.09844 0
M  V30 2607 H 243.141 5.61342 -2.40265 0
M  V30 2608 H 244.555 4.05374 -4.05395 0
M  V30 2609 H 242.952 3.67159 -4.74673 0
M  V30 2610 H 244.022 2.3518 -4.2405 0
M  V30 2611 N 245.365 1.30045 0.890287 0
M  V30 2612 C 246.776 1.16738 1.45702 0
M  V30 2613 C 247.127 -0.233939 1.948 0
M  V30 2614 O 246.252 -1.13021 1.84541 0
M  V30 2615 C 246.847 2.11313 2.64825 0
M  V30 2616 C 245.406 2.02001 3.17604 0
M  V30 2617 C 244.553 2.01699 1.90296 0
M  V30 2618 H 247.504 1.42392 0.700726 0
M  V30 2619 H 247.525 1.69086 3.40867 0
M  V30 2620 H 247.037 3.13294 2.2906 0
M  V30 2621 H 245.138 1.03142 3.5804 0
M  V30 2622 H 245.251 2.90128 3.81264 0
M  V30 2623 H 243.615 1.46427 2.08402 0
M  V30 2624 H 244.398 3.05402 1.56795 0
M  V30 2625 N 246.843 -1.10192 1.12674 0
M  V30 2626 C 248.073 -1.85713 0.905213 0
M  V30 2627 C 248.481 -1.81056 -0.549108 0
M  V30 2628 O 247.824 -1.19927 -1.39151 0
M  V30 2629 C 247.886 -3.34972 1.30516 0
M  V30 2630 C 247.55 -3.63385 2.77129 0
M  V30 2631 C 248.547 -3.59772 3.75313 0
M  V30 2632 C 246.232 -3.91981 3.14096 0
M  V30 2633 C 248.226 -3.84354 5.08479 0
M  V30 2634 C 245.913 -4.16218 4.47443 0
M  V30 2635 C 246.911 -4.12395 5.44444 0
M  V30 2636 O 246.599 -4.36014 6.75387 0
M  V30 2637 H 246.331 -0.593719 0.323223 0
M  V30 2638 H 248.885 -1.40198 1.50112 0
M  V30 2639 H 247.115 -3.81156 0.652463 0
M  V30 2640 H 248.804 -3.91886 1.05736 0
M  V30 2641 H 249.57 -3.37716 3.48099 0
M  V30 2642 H 245.449 -3.94085 2.39202 0
M  V30 2643 H 248.993 -3.81285 5.84181 0
M  V30 2644 H 244.89 -4.37754 4.74386 0
M  V30 2645 H 245.658 -4.53516 6.8137 0
M  V30 2646 N 248.321 -0.919034 -1.28029 0
M  V30 2647 C 249.251 -0.428581 -2.29533 0
M  V30 2648 C 250.232 0.50659 -1.62381 0
M  V30 2649 O 251.417 0.413195 -1.89753 0
M  V30 2650 C 248.547 0.327388 -3.45753 0
M  V30 2651 C 247.501 -0.519137 -4.2484 0
M  V30 2652 C 246.827 0.365486 -5.33449 0
M  V30 2653 C 248.127 -1.77914 -4.91064 0
M  V30 2654 H 249.821 -1.27687 -2.70807 0
M  V30 2655 H 247.367 -0.615428 -1.30186 0
M  V30 2656 H 249.32 0.681378 -4.15855 0
M  V30 2657 H 248.044 1.20963 -3.03374 0
M  V30 2658 H 246.703 -0.855717 -3.56473 0
M  V30 2659 H 246.351 1.24642 -4.87312 0
M  V30 2660 H 246.051 -0.197356 -5.87268 0
M  V30 2661 H 247.575 0.715241 -6.06396 0
M  V30 2662 H 248.989 -1.49374 -5.53498 0
M  V30 2663 H 247.386 -2.2848 -5.54903 0
M  V30 2664 H 248.456 -2.50382 -4.15255 0
M  V30 2665 N 249.799 1.42003 -0.683588 0
M  V30 2666 C 251.047 2.01015 -0.209101 0
M  V30 2667 C 251.368 1.54365 1.19149 0
M  V30 2668 O 250.638 0.769083 1.80172 0
M  V30 2669 H 249.218 0.743294 -0.074315 0
M  V30 2670 H 251.88 1.73798 -0.882066 0
M  V30 2671 H 250.976 3.11343 -0.2172 0
M  V30 2672 N 251.277 0.427512 1.51691 0
M  V30 2673 C 252.688 -0.0378867 1.86662 0
M  V30 2674 C 253.039 -1.42819 1.34525 0
M  V30 2675 O 252.164 -2.05037 0.692014 0
M  V30 2676 C 252.759 -0.0755266 3.38716 0
M  V30 2677 C 251.318 -0.485309 3.73258 0
M  V30 2678 C 250.465 0.328399 2.75349 0
M  V30 2679 H 253.416 0.64379 1.45055 0
M  V30 2680 H 253.437 -0.887056 3.70016 0
M  V30 2681 H 252.949 0.936487 3.76632 0
M  V30 2682 H 251.05 -1.50329 3.40928 0
M  V30 2683 H 251.163 -0.21693 4.78609 0
M  V30 2684 H 249.527 -0.211905 2.53817 0
M  V30 2685 H 250.31 1.3391 3.16106 0
M  V30 2686 N 252.755 -1.56801 0.158532 0
M  V30 2687 C 254.032 -1.88131 -0.535357 0
M  V30 2688 C 254.412 -1.06638 -1.82186 0
M  V30 2689 O 253.76 -0.156533 -2.27963 0
M  V30 2690 C 253.97 -3.39949 -0.789653 0
M  V30 2691 C 255.318 -4.09416 -1.12533 0
M  V30 2692 O 256.342 -3.45194 -0.878622 0
M  V30 2693 O 255.201 -5.22855 -1.59014 0
M  V30 2694 H 252.295 -0.780143 -0.27442 0
M  V30 2695 H 254.841 -1.68564 0.19601 0
M  V30 2696 H 253.613 -3.91115 0.120353 0
M  V30 2697 H 253.236 -3.65084 -1.57479 0
M  V30 2698 N 254.233 0.115231 -1.57178 0
M  V30 2699 C 255.481 0.820727 -1.84685 0
M  V30 2700 C 255.802 1.80237 -0.744279 0
M  V30 2701 O 255.072 1.94529 0.231375 0
M  V30 2702 H 253.652 0.306084 -0.681411 0
M  V30 2703 H 256.314 0.101656 -1.94635 0
M  V30 2704 H 255.41 1.36366 -2.80733 0
M  V30 2705 N 255.711 1.52812 0.385517 0
M  V30 2706 C 256.658 1.77838 1.47113 0
M  V30 2707 C 257.628 0.621757 1.54024 0
M  V30 2708 O 258.813 0.861846 1.70226 0
M  V30 2709 C 255.953 1.95618 2.84302 0
M  V30 2710 C 255.066 3.23316 2.86515 0
M  V30 2711 C 254.201 3.31394 4.15152 0
M  V30 2712 C 253.24 4.53201 4.1143 0
M  V30 2713 N 252.377 4.58542 5.3168 0
M  V30 2714 H 257.217 2.70482 1.25073 0
M  V30 2715 H 254.754 1.34006 0.606692 0
M  V30 2716 H 256.712 2.03912 3.63972 0
M  V30 2717 H 255.342 1.06331 3.04784 0
M  V30 2718 H 254.394 3.24076 1.99195 0
M  V30 2719 H 255.706 4.13045 2.79634 0
M  V30 2720 H 254.86 3.3889 5.03228 0
M  V30 2721 H 253.599 2.39645 4.24761 0
M  V30 2722 H 252.604 4.45827 3.21742 0
M  V30 2723 H 253.829 5.46271 4.03442 0
M  V30 2724 H 251.775 3.69686 5.41912 0
M  V30 2725 H 251.692 5.42148 5.26889 0
M  V30 2726 H 252.96 4.70296 6.21644 0
M  V30 2727 N 257.189 -0.644168 1.43834 0
M  V30 2728 C 258.417 -1.43147 1.49387 0
M  V30 2729 C 258.832 -1.88452 0.114583 0
M  V30 2730 O 258.189 -1.60047 -0.876989 0
M  V30 2731 C 258.24 -2.66046 2.44748 0
M  V30 2732 O 257.961 -2.22633 3.77314 0
M  V30 2733 C 259.462 -3.59311 2.59635 0
M  V30 2734 H 256.682 -0.439447 0.507077 0
M  V30 2735 H 259.226 -0.78895 1.88669 0
M  V30 2736 H 257.381 -3.26418 2.08638 0
M  V30 2737 H 257.795 -3.02216 4.28679 0
M  V30 2738 H 259.269 -4.42187 3.30416 0
M  V30 2739 H 259.746 -4.07259 1.64427 0
M  V30 2740 H 260.352 -3.04816 2.96593 0
M  V30 2741 N 258.668 -1.30515 -0.883378 0
M  V30 2742 C 259.6 -1.12846 -1.99496 0
M  V30 2743 C 260.613 -0.0712571 -1.62644 0
M  V30 2744 O 261.802 -0.317432 -1.75655 0
M  V30 2745 C 258.902 -0.699123 -3.3161 0
M  V30 2746 C 258.075 -1.83842 -3.96889 0
M  V30 2747 C 257.134 -1.39737 -5.07307 0
M  V30 2748 O 256.16 -2.10485 -5.28852 0
M  V30 2749 N 257.362 -0.277279 -5.79837 0
M  V30 2750 H 260.127 -2.08585 -2.15203 0
M  V30 2751 H 257.688 -1.22672 -1.05656 0
M  V30 2752 H 259.68 -0.387044 -4.02845 0
M  V30 2753 H 258.25 0.166276 -3.12157 0
M  V30 2754 H 257.47 -2.31853 -3.18807 0
M  V30 2755 H 258.758 -2.60187 -4.37241 0
M  V30 2756 H 258.156 0.3122 -5.64838 0
M  V30 2757 H 256.713 -0.0246623 -6.51795 0
M  V30 2758 N 260.146 1.09593 -1.13257 0
M  V30 2759 C 261.395 1.81105 -0.887917 0
M  V30 2760 C 261.708 1.86563 0.587672 0
M  V30 2761 O 262.914 2.54367 0.949204 0
M  V30 2762 C 261.37 3.25338 -1.53895 0
M  V30 2763 C 260.978 3.28151 -3.04994 0
M  V30 2764 C 262.722 4.01617 -1.37492 0
M  V30 2765 C 260.629 4.66897 -3.6299 0
M  V30 2766 H 259.559 0.678661 -0.328534 0
M  V30 2767 H 262.21 1.23183 -1.36008 0
M  V30 2768 H 260.592 3.8331 -0.994446 0
M  V30 2769 H 261.766 2.79953 -3.66009 0
M  V30 2770 H 260.081 2.65361 -3.20893 0
M  V30 2771 H 262.678 5.04119 -1.78235 0
M  V30 2772 H 263.021 4.15072 -0.31957 0
M  V30 2773 H 263.554 3.50082 -1.88912 0
M  V30 2774 H 260.293 4.58643 -4.68323 0
M  V30 2775 H 259.813 5.15426 -3.06752 0
M  V30 2776 H 261.492 5.3587 -3.62563 0
M  V30 2777 N 261.624 0.925811 1.2754 0
M  V30 2778 C 262.852 0.581509 1.9856 0
M  V30 2779 C 263.267 -0.840041 1.69082 0
M  V30 2780 O 262.624 -1.55805 0.950312 0
M  V30 2781 C 262.675 0.795589 3.52637 0
M  V30 2782 O 262.396 2.16121 3.81082 0
M  V30 2783 C 263.897 0.459744 4.4091 0
M  V30 2784 H 261.117 0.220538 0.633722 0
M  V30 2785 H 263.661 1.24232 1.6244 0
M  V30 2786 H 261.816 0.18161 3.86974 0
M  V30 2787 H 262.23 2.2098 4.75676 0
M  V30 2788 H 263.704 0.660244 5.48037 0
M  V30 2789 H 264.181 -0.604625 4.35018 0
M  V30 2790 H 264.787 1.05178 4.12089 0
M  V30 2791 N 263.102 -1.41638 0.69111 0
M  V30 2792 C 264.351 -2.00526 0.217318 0
M  V30 2793 C 264.664 -1.55353 -1.18848 0
M  V30 2794 O 265.87 -2.06769 -1.75951 0
M  V30 2795 C 264.326 -3.58313 0.337639 0
M  V30 2796 C 263.934 -4.12469 1.74852 0
M  V30 2797 C 265.678 -4.24431 -0.0766066 0
M  V30 2798 C 263.585 -5.62675 1.82074 0
M  V30 2799 H 262.515 -0.750008 0.0774893 0
M  V30 2800 H 265.166 -1.6217 0.858661 0
M  V30 2801 H 263.548 -3.9425 -0.371879 0
M  V30 2802 H 264.722 -3.8796 2.48644 0
M  V30 2803 H 263.037 -3.58861 2.11205 0
M  V30 2804 H 265.634 -5.34683 -0.0430284 0
M  V30 2805 H 265.977 -4.01101 -1.1146 0
M  V30 2806 H 266.51 -3.93512 0.582476 0
M  V30 2807 H 263.249 -5.90826 2.83911 0
M  V30 2808 H 262.769 -5.89124 1.12661 0
M  V30 2809 H 264.448 -6.27371 1.58159 0
M  V30 2810 N 264.58 -0.43555 -1.51462 0
M  V30 2811 C 265.49 0.383001 -2.31453 0
M  V30 2812 C 266.506 1.02931 -1.4029 0
M  V30 2813 O 267.682 1.02507 -1.73362 0
M  V30 2814 C 264.747 1.47043 -3.13973 0
M  V30 2815 C 263.808 0.844433 -4.20913 0
M  V30 2816 C 263.041 1.88004 -4.9949 0
M  V30 2817 O 263.264 3.10199 -4.78678 0
M  V30 2818 O 262.198 1.47157 -5.83634 0
M  V30 2819 H 266.024 -0.269964 -3.02498 0
M  V30 2820 H 263.609 -0.19813 -1.4808 0
M  V30 2821 H 265.491 2.10113 -3.65281 0
M  V30 2822 H 264.166 2.10751 -2.45695 0
M  V30 2823 H 263.073 0.175729 -3.73687 0
M  V30 2824 H 264.406 0.250869 -4.9156 0
M  V30 2825 N 266.058 1.56714 -0.166846 0
M  V30 2826 C 267.288 2.00828 0.48494 0
M  V30 2827 C 267.696 1.04612 1.57648 0
M  V30 2828 O 267.039 0.0383201 1.8366 0
M  V30 2829 C 267.101 3.4137 1.12723 0
M  V30 2830 C 266.765 4.56654 0.177886 0
M  V30 2831 C 267.762 5.16402 -0.60207 0
M  V30 2832 C 265.447 5.02244 0.0750139 0
M  V30 2833 C 267.441 6.20167 -1.47215 0
M  V30 2834 C 265.128 6.05859 -0.798649 0
M  V30 2835 C 266.126 6.64691 -1.57082 0
M  V30 2836 O 265.814 7.66297 -2.42989 0
M  V30 2837 H 265.546 0.663587 0.128953 0
M  V30 2838 H 268.1 2.03692 -0.264365 0
M  V30 2839 H 266.33 3.35406 1.92457 0
M  V30 2840 H 268.019 3.69466 1.68076 0
M  V30 2841 H 268.785 4.82065 -0.53274 0
M  V30 2842 H 264.664 4.56167 0.665812 0
M  V30 2843 H 268.208 6.66016 -2.07531 0
M  V30 2844 H 264.105 6.39621 -0.869199 0
M  V30 2845 H 264.873 7.83601 -2.36455 0
M  V30 2846 N 267.536 -0.106894 1.57237 0
M  V30 2847 C 268.483 -1.13049 2.01217 0
M  V30 2848 C 269.453 -1.40471 0.886403 0
M  V30 2849 O 270.638 -1.52133 1.15153 0
M  V30 2850 C 267.778 -2.4487 2.43172 0
M  V30 2851 C 266.891 -2.24281 3.69218 0
M  V30 2852 C 266.026 -3.49417 4.00101 0
M  V30 2853 C 265.065 -3.24038 5.19294 0
M  V30 2854 N 264.202 -4.41409 5.45988 0
M  V30 2855 H 269.042 -0.748456 2.88448 0
M  V30 2856 H 266.579 -0.358054 1.42676 0
M  V30 2857 H 268.537 -3.21786 2.65537 0
M  V30 2858 H 267.167 -2.80944 1.58967 0
M  V30 2859 H 266.219 -1.38224 3.54398 0
M  V30 2860 H 267.531 -2.01512 4.56283 0
M  V30 2861 H 266.685 -4.34746 4.2318 0
M  V30 2862 H 265.424 -3.75229 3.11535 0
M  V30 2863 H 264.429 -2.37102 4.96047 0
M  V30 2864 H 265.654 -2.99584 6.09447 0
M  V30 2865 H 263.6 -4.67319 4.60379 0
M  V30 2866 H 263.517 -4.21788 6.274 0
M  V30 2867 H 264.785 -5.27836 5.73593 0
M  V30 2868 N 269.014 -1.53014 -0.377408 0
M  V30 2869 C 269.962 -1.7927 -1.48206 0
M  V30 2870 C 270.956 -0.661195 -1.55963 0
M  V30 2871 O 272.162 -0.843908 -1.58991 0
M  V30 2872 H 268.537 -0.567425 -0.493491 0
M  V30 2873 H 270.508 -2.71753 -1.2326 0
M  V30 2874 C 269.257 -1.98894 -2.85196 0
M  V30 2875 H 268.58 -2.85395 -2.79981 0
M  V30 2876 H 270.02 -2.21249 -3.61698 0
M  V30 2877 C 268.479 -0.764691 -3.28107 0
M  V30 2878 O 269.009 0.0523226 -4.01666 0
M  V30 2879 N 267.215 -0.591493 -2.84517 0
M  V30 2880 H 266.762 -1.25749 -2.24822 0
M  V30 2881 H 266.72 0.226253 -3.13585 0
M  V30 2882 N 270.492 0.636531 -1.44174 0
M  V30 2883 C 271.439 1.74875 -1.50624 0
M  V30 2884 C 272.409 1.62275 -0.35442 0
M  V30 2885 O 273.594 1.82276 -0.563908 0
M  V30 2886 C 270.734 3.13102 -1.45125 0
M  V30 2887 C 269.847 3.36717 -2.7064 0
M  V30 2888 C 268.982 4.64885 -2.57013 0
M  V30 2889 C 268.021 4.8166 -3.77717 0
M  V30 2890 N 267.158 6.01101 -3.62798 0
M  V30 2891 H 271.998 1.68697 -2.45653 0
M  V30 2892 H 269.535 0.823004 -1.21922 0
M  V30 2893 H 271.493 3.93034 -1.39929 0
M  V30 2894 H 270.123 3.18308 -0.536671 0
M  V30 2895 H 269.175 2.50763 -2.86046 0
M  V30 2896 H 270.487 3.44993 -3.60252 0
M  V30 2897 H 269.641 5.52969 -2.49619 0
M  V30 2898 H 268.38 4.58957 -1.64953 0
M  V30 2899 H 267.385 3.92007 -3.85501 0
M  V30 2900 H 268.61 4.89406 -4.70807 0
M  V30 2901 H 266.556 5.96273 -2.73486 0
M  V30 2902 H 266.473 6.10409 -4.46023 0
M  V30 2903 H 267.741 6.91761 -3.59286 0
M  V30 2904 N 271.97 1.30982 0.876444 0
M  V30 2905 C 273.218 1.20058 1.62575 0
M  V30 2906 C 273.539 -0.242947 1.93481 0
M  V30 2907 O 272.809 -1.1619 1.57724 0
M  V30 2908 H 271.389 0.44135 0.602677 0
M  V30 2909 H 274.051 1.64222 1.04962 0
M  V30 2910 H 273.147 1.76762 2.57219 0
M  V30 2911 N 273.449 -1.08991 1.13837 0
M  V30 2912 C 274.674 -1.85551 0.926585 0
M  V30 2913 C 275.099 -1.80782 -0.519566 0
M  V30 2914 O 274.457 -1.18855 -1.36906 0
M  V30 2915 C 274.505 -3.31266 1.42462 0
M  V30 2916 O 273.609 -4.07822 0.612789 0
M  V30 2917 H 272.95 -0.575192 0.331738 0
M  V30 2918 H 275.48 -1.37604 1.51414 0
M  V30 2919 H 275.49 -3.82112 1.43019 0
M  V30 2920 H 274.165 -3.34052 2.47754 0
M  V30 2921 H 272.742 -3.66731 0.675463 0
M  V30 2922 N 274.927 -0.932562 -1.27047 0
M  V30 2923 C 276.167 -0.582919 -1.95912 0
M  V30 2924 C 276.531 0.860629 -1.71631 0
M  V30 2925 O 277.732 1.31878 -2.34225 0
M  V30 2926 C 276.003 -0.905673 -3.45734 0
M  V30 2927 S 277.562 -0.665277 -4.33727 0
M  V30 2928 H 274.38 -0.215 -0.677714 0
M  V30 2929 H 276.982 -1.20204 -1.54179 0
M  V30 2930 H 275.686 -1.95386 -3.60905 0
M  V30 2931 H 275.217 -0.275939 -3.92431 0
M  V30 2932 H 277.232 0.474635 -4.93925 0
M  V30 2933 N 276.405 1.4127 -0.698611 0
M  V30 2934 C 277.653 2.00782 -0.230409 0
M  V30 2935 C 277.974 1.5562 1.17505 0
M  V30 2936 O 277.244 0.78815 1.79346 0
M  V30 2937 H 275.824 0.742464 -0.0821944 0
M  V30 2938 H 278.486 1.72852 -0.90045 0
M  V30 2939 H 277.582 3.11095 -0.25021 0
M  V30 2940 N 277.883 0.443576 1.51229 0
M  V30 2941 C 279.131 -0.120557 2.0174 0
M  V30 2942 C 279.452 -1.42665 1.32935 0
M  V30 2943 O 278.722 -1.9028 0.465866 0
M  V30 2944 H 277.302 -0.0475426 0.745486 0
M  V30 2945 H 279.964 0.587711 1.85828 0
M  V30 2946 H 279.06 -0.291972 3.10731 0
M  V30 2947 N 279.361 -1.56624 0.175154 0
M  V30 2948 C 280.311 -2.14747 -0.766004 0
M  V30 2949 C 281.295 -1.08275 -1.19018 0
M  V30 2950 O 282.487 -1.34388 -1.15191 0
M  V30 2951 C 279.616 -2.79478 -1.99366 0
M  V30 2952 C 278.702 -3.93114 -1.5913 0
M  V30 2953 N 279.093 -4.97752 -0.89872 0
M  V30 2954 C 277.391 -4.04345 -1.88204 0
M  V30 2955 C 278.092 -5.77473 -0.700012 0
M  V30 2956 N 277.068 -5.29207 -1.24263 0
M  V30 2957 H 280.87 -2.93015 -0.22793 0
M  V30 2958 H 278.384 -1.6238 -0.0253843 0
M  V30 2959 H 280.381 -3.19498 -2.67818 0
M  V30 2960 H 279.041 -2.02692 -2.53665 0
M  V30 2961 H 280.052 -5.14903 -0.556347 0
M  V30 2962 H 276.729 -3.38667 -2.44153 0
M  V30 2963 H 278.119 -6.71728 -0.152047 0
M  V30 2964 N 280.839 0.0985539 -1.57292 0
M  V30 2965 C 281.769 1.12064 -2.04851 0
M  V30 2966 C 282.75 1.41981 -0.936767 0
M  V30 2967 O 283.935 1.52071 -1.20781 0
M  V30 2968 C 281.065 2.44144 -2.47004 0
M  V30 2969 C 280.019 2.28643 -3.6181 0
M  V30 2970 C 279.345 3.65869 -3.89929 0
M  V30 2971 C 280.645 1.72986 -4.92822 0
M  V30 2972 H 282.339 0.724979 -2.9049 0
M  V30 2973 H 279.885 0.34729 -1.39749 0
M  V30 2974 H 281.838 3.15914 -2.78884 0
M  V30 2975 H 280.562 2.85639 -1.5836 0
M  V30 2976 H 279.221 1.59318 -3.30172 0
M  V30 2977 H 278.869 4.04885 -2.98458 0
M  V30 2978 H 278.569 3.56344 -4.67218 0
M  V30 2979 H 280.093 4.39112 -4.2428 0
M  V30 2980 H 281.507 2.34593 -5.23105 0
M  V30 2981 H 279.904 1.74229 -5.74251 0
M  V30 2982 H 280.974 0.689007 -4.7998 0
M  V30 2983 N 282.317 1.53212 0.369288 0
M  V30 2984 C 283.227 1.82342 1.47609 0
M  V30 2985 C 284.243 0.711532 1.58787 0
M  V30 2986 O 285.419 1.0012 1.74751 0
M  V30 2987 C 282.484 2.00393 2.8292 0
M  V30 2988 C 281.545 3.24297 2.81301 0
M  V30 2989 C 280.778 3.41478 4.10157 0
M  V30 2990 O 281.001 2.63033 5.06132 0
M  V30 2991 O 279.935 4.34817 4.16194 0
M  V30 2992 H 283.761 2.76366 1.25918 0
M  V30 2993 H 281.346 1.38547 0.559034 0
M  V30 2994 H 283.228 2.13859 3.63101 0
M  V30 2995 H 281.903 1.09559 3.04596 0
M  V30 2996 H 280.81 3.16257 1.99831 0
M  V30 2997 H 282.143 4.15041 2.64578 0
M  V30 2998 N 283.795 -0.628877 1.44509 0
M  V30 2999 C 285.206 -1.21054 1.42137 0
M  V30 3000 C 285.557 -1.95715 0.137881 0
M  V30 3001 O 284.682 -2.02554 -0.761645 0
M  V30 3002 C 285.277 -2.20189 2.57493 0
M  V30 3003 C 283.836 -2.73777 2.58308 0
M  V30 3004 C 282.983 -1.48813 2.33987 0
M  V30 3005 H 285.934 -0.41942 1.53057 0
M  V30 3006 H 285.955 -3.02833 2.30375 0
M  V30 3007 H 285.467 -1.6582 3.50892 0
M  V30 3008 H 283.568 -3.32142 1.68856 0
M  V30 3009 H 283.681 -3.19662 3.56865 0
M  V30 3010 H 282.045 -1.77024 1.83124 0
M  V30 3011 H 282.828 -0.963442 3.29504 0
M  V30 3012 N 285.273 -1.31445 -0.869486 0
M  V30 3013 C 286.203 -1.21727 -1.99261 0
M  V30 3014 C 287.184 -0.104359 -1.6978 0
M  V30 3015 O 288.369 -0.289038 -1.92037 0
M  V30 3016 C 285.499 -0.924317 -3.34774 0
M  V30 3017 C 284.453 -1.99685 -3.78563 0
M  V30 3018 C 283.779 -1.55658 -5.11541 0
M  V30 3019 C 285.079 -3.41003 -3.95619 0
M  V30 3020 H 286.773 -2.1569 -2.07649 0
M  V30 3021 H 284.319 -1.03839 -0.997675 0
M  V30 3022 H 286.272 -0.842934 -4.12883 0
M  V30 3023 H 284.996 0.0509793 -3.2656 0
M  V30 3024 H 283.655 -2.06813 -3.02694 0
M  V30 3025 H 283.303 -0.569132 -4.9977 0
M  V30 3026 H 283.003 -2.27409 -5.41811 0
M  V30 3027 H 284.527 -1.48928 -5.92159 0
M  V30 3028 H 285.941 -3.36547 -4.64122 0
M  V30 3029 H 284.338 -4.10975 -4.37286 0
M  V30 3030 H 285.408 -3.81754 -2.98985 0
M  V30 3031 N 286.751 1.08385 -1.14413 0
M  V30 3032 C 288.167 1.32844 -0.884563 0
M  V30 3033 C 288.367 1.95841 0.474181 0
M  V30 3034 O 287.423 2.21158 1.21842 0
M  V30 3035 C 288.736 2.22978 -2.01745 0
M  V30 3036 C 290.284 2.36458 -2.05077 0
M  V30 3037 C 290.759 3.29934 -3.1766 0
M  V30 3038 N 292.25 3.37511 -3.17239 0
M  V30 3039 C 292.985 4.09871 -4.0099 0
M  V30 3040 N 292.481 4.84936 -4.94781 0
M  V30 3041 N 294.274 4.05704 -3.89051 0
M  V30 3042 H 286.425 0.658756 -2.01926 0
M  V30 3043 H 288.688 0.352821 -0.879899 0
M  V30 3044 H 288.394 1.83934 -2.99769 0
M  V30 3045 H 288.268 3.23441 -1.94077 0
M  V30 3046 H 290.655 2.7476 -1.0766 0
M  V30 3047 H 290.736 1.35736 -2.16816 0
M  V30 3048 H 290.38 2.92352 -4.15322 0
M  V30 3049 H 290.31 4.30584 -3.03158 0
M  V30 3050 H 292.801 2.83996 -2.49308 0
M  V30 3051 H 293.114 5.37612 -5.55151 0
M  V30 3052 H 291.459 4.83988 -4.98779 0
M  V30 3053 H 294.65 3.46167 -3.15097 0
M  V30 3054 H 294.823 4.61834 -4.54547 0
M  V30 3055 N 288.23 0.939286 1.26551 0
M  V30 3056 C 289.476 0.586715 1.94128 0
M  V30 3057 C 289.809 -0.8717 1.73537 0
M  V30 3058 O 289.084 -1.62339 1.07127 0
M  V30 3059 C 289.367 0.927497 3.4795 0
M  V30 3060 C 289.22 2.44052 3.77834 0
M  V30 3061 C 290.539 0.441569 4.37879 0
M  V30 3062 H 287.658 0.21463 0.705055 0
M  V30 3063 H 290.3 1.17316 1.49455 0
M  V30 3064 H 288.45 0.428431 3.8613 0
M  V30 3065 H 290.122 3.01216 3.4938 0
M  V30 3066 H 288.365 2.8848 3.23978 0
M  V30 3067 H 289.036 2.62947 4.85348 0
M  V30 3068 H 291.512 0.869448 4.06915 0
M  V30 3069 H 290.388 0.708856 5.44304 0
M  V30 3070 H 290.649 -0.658467 4.37169 0
M  V30 3071 N 289.708 -1.40897 0.706093 0
M  V30 3072 C 290.658 -2.27987 0.0240746 0
M  V30 3073 C 291.642 -1.42759 -0.742204 0
M  V30 3074 O 292.834 -1.65936 -0.615966 0
M  V30 3075 C 289.963 -3.31186 -0.903907 0
M  V30 3076 C 289.049 -4.2389 -0.133318 0
M  V30 3077 N 289.44 -4.98113 0.878444 0
M  V30 3078 C 287.738 -4.44485 -0.367269 0
M  V30 3079 C 288.439 -5.6604 1.34064 0
M  V30 3080 N 287.415 -5.39522 0.664565 0
M  V30 3081 H 291.217 -2.82812 0.799658 0
M  V30 3082 H 288.731 -1.53235 0.537845 0
M  V30 3083 H 290.728 -3.92413 -1.40775 0
M  V30 3084 H 289.388 -2.77922 -1.67897 0
M  V30 3085 H 290.399 -5.02364 1.25901 0
M  V30 3086 H 287.076 -4.02213 -1.1194 0
M  V30 3087 H 288.466 -6.35524 2.1808 0
M  V30 3088 N 291.186 -0.45159 -1.50991 0
M  V30 3089 C 292.414 0.108334 -2.06616 0
M  V30 3090 C 292.829 1.35224 -1.31757 0
M  V30 3091 O 292.186 1.78475 -0.381174 0
M  V30 3092 C 292.237 0.41619 -3.59096 0
M  V30 3093 O 291.958 -0.778361 -4.3113 0
M  V30 3094 C 293.459 1.02523 -4.31282 0
M  V30 3095 H 290.679 0.00159995 -0.670998 0
M  V30 3096 H 293.223 -0.634771 -1.94399 0
M  V30 3097 H 291.378 1.10921 -3.71181 0
M  V30 3098 H 291.792 -0.511181 -5.22003 0
M  V30 3099 H 293.266 1.19053 -5.39009 0
M  V30 3100 H 293.743 2.01013 -3.905 0
M  V30 3101 H 294.349 0.371173 -4.23677 0
M  V30 3102 N 292.664 1.56529 -0.183458 0
M  V30 3103 C 293.91 1.97537 0.459036 0
M  V30 3104 C 294.243 1.06989 1.62071 0
M  V30 3105 O 293.518 0.11948 1.94133 0
M  V30 3106 C 293.801 3.47874 0.930368 0
M  V30 3107 C 293.654 4.492 -0.232317 0
M  V30 3108 C 294.973 4.01612 1.79989 0
M  V30 3109 H 292.092 0.718204 0.165383 0
M  V30 3110 H 294.734 1.88042 -0.272038 0
M  V30 3111 H 292.884 3.56095 1.55333 0
M  V30 3112 H 294.556 4.53027 -0.86972 0
M  V30 3113 H 292.799 4.24657 -0.885928 0
M  V30 3114 H 293.47 5.51823 0.139796 0
M  V30 3115 H 295.946 3.96097 1.27461 0
M  V30 3116 H 294.822 5.07195 2.09867 0
M  V30 3117 H 295.083 3.46163 2.74998 0
M  V30 3118 N 294.142 -0.090211 1.57342 0
M  V30 3119 C 295.072 -1.10976 2.05443 0
M  V30 3120 C 296.053 -1.41482 0.944284 0
M  V30 3121 O 297.238 -1.51428 1.21586 0
M  V30 3122 C 294.368 -2.42831 2.48295 0
M  V30 3123 C 293.322 -2.26721 3.63018 0
M  V30 3124 C 292.648 -3.63796 3.91863 0
M  V30 3125 C 293.948 -1.7037 4.93732 0
M  V30 3126 H 295.642 -0.709564 2.9087 0
M  V30 3127 H 293.188 -0.339874 1.39932 0
M  V30 3128 H 295.141 -3.14431 2.80555 0
M  V30 3129 H 293.865 -2.84795 1.59873 0
M  V30 3130 H 292.524 -1.57565 3.31012 0
M  V30 3131 H 292.172 -4.03297 3.00601 0
M  V30 3132 H 291.872 -3.53861 4.69101 0
M  V30 3133 H 293.396 -4.36855 4.26603 0
M  V30 3134 H 294.81 -2.31816 5.24342 0
M  V30 3135 H 293.207 -1.71181 5.75167 0
M  V30 3136 H 294.277 -0.663542 4.80339 0
M  V30 3137 N 295.62 -1.53406 -0.361157 0
M  V30 3138 C 296.869 -1.69022 -1.10066 0
M  V30 3139 C 297.182 -0.450838 -1.90333 0
M  V30 3140 O 298.388 -0.487617 -2.67085 0
M  V30 3141 C 296.844 -2.98812 -2.00598 0
M  V30 3142 C 296.452 -4.30027 -1.25621 0
M  V30 3143 C 298.196 -3.23795 -2.74513 0
M  V30 3144 C 296.103 -5.50903 -2.1508 0
M  V30 3145 H 295.033 -0.629776 -0.414606 0
M  V30 3146 H 297.684 -1.79907 -0.361348 0
M  V30 3147 H 296.066 -2.8174 -2.78278 0
M  V30 3148 H 297.24 -4.57745 -0.529739 0
M  V30 3149 H 295.555 -4.11522 -0.635496 0
M  V30 3150 H 298.152 -4.11289 -3.41681 0
M  V30 3151 H 298.495 -2.40045 -3.40123 0
M  V30 3152 H 299.028 -3.41561 -2.03914 0
M  V30 3153 H 295.767 -6.37143 -1.54041 0
M  V30 3154 H 295.287 -5.27459 -2.85565 0
M  V30 3155 H 296.966 -5.85865 -2.74538 0
M  V30 3156 N 297.098 0.621204 -1.44841 0
M  V30 3157 C 298.323 1.41244 -1.51871 0
M  V30 3158 C 298.748 1.87519 -0.147764 0
M  V30 3159 O 298.106 1.59334 0.865 0
M  V30 3160 C 298.154 2.60221 -2.49634 0
M  V30 3161 O 297.258 3.60395 -2.00473 0
M  V30 3162 H 296.599 0.42223 -0.512463 0
M  V30 3163 H 299.129 0.757305 -1.90069 0
M  V30 3164 H 299.139 3.0764 -2.67996 0
M  V30 3165 H 297.814 2.25887 -3.4921 0
M  V30 3166 H 296.391 3.19717 -1.91925 0
M  V30 3167 N 298.576 1.31904 0.862503 0
M  V30 3168 C 299.804 1.24998 1.64873 0
M  V30 3169 C 300.219 -0.183425 1.87907 0
M  V30 3170 O 299.576 -1.11794 1.44251 0
M  V30 3171 C 299.627 1.99829 3.01248 0
M  V30 3172 O 299.348 3.37575 2.79239 0
M  V30 3173 C 300.849 1.99852 3.95694 0
M  V30 3174 H 298.069 0.431599 0.513773 0
M  V30 3175 H 300.613 1.73901 1.07604 0
M  V30 3176 H 298.768 1.54668 3.55185 0
M  V30 3177 H 299.182 3.75776 3.65914 0
M  V30 3178 H 300.656 2.56709 4.88676 0
M  V30 3179 H 301.133 0.982852 4.28062 0
M  V30 3180 H 301.739 2.44926 3.47694 0
M  V30 3181 N 300.054 -1.07777 1.14986 0
M  V30 3182 C 300.986 -2.14769 0.800436 0
M  V30 3183 C 301.999 -1.61739 -0.185595 0
M  V30 3184 O 303.188 -1.78462 0.0370358 0
M  V30 3185 C 300.288 -3.38481 0.168533 0
M  V30 3186 C 299.461 -4.20876 1.1909 0
M  V30 3187 C 298.52 -5.22976 0.581575 0
M  V30 3188 O 297.546 -5.55388 1.24633 0
M  V30 3189 N 298.748 -5.76976 -0.638706 0
M  V30 3190 H 301.513 -2.45348 1.72118 0
M  V30 3191 H 299.074 -1.23645 1.04515 0
M  V30 3192 H 301.066 -4.03916 -0.251764 0
M  V30 3193 H 299.636 -3.05651 -0.655467 0
M  V30 3194 H 298.856 -3.51322 1.78791 0
M  V30 3195 H 300.144 -4.7274 1.88133 0
M  V30 3196 H 299.542 -5.52886 -1.19723 0
M  V30 3197 H 298.099 -6.44061 -1.00142 0
M  V30 3198 N 301.532 -0.945985 -1.26051 0
M  V30 3199 C 302.482 -0.430164 -2.23905 0
M  V30 3200 C 303.466 0.47579 -1.53704 0
M  V30 3201 O 304.658 0.310252 -1.7426 0
M  V30 3202 C 301.787 0.298957 -3.41996 0
M  V30 3203 C 300.873 -0.624566 -4.19476 0
M  V30 3204 N 301.264 -1.75245 -4.74471 0
M  V30 3205 C 299.562 -0.431082 -4.43912 0
M  V30 3206 C 300.263 -2.32834 -5.3307 0
M  V30 3207 N 299.239 -1.61583 -5.1903 0
M  V30 3208 H 303.041 -1.29107 -2.64024 0
M  V30 3209 H 300.555 -0.802428 -1.41191 0
M  V30 3210 H 302.552 0.685565 -4.11225 0
M  V30 3211 H 301.212 1.15657 -3.03403 0
M  V30 3212 H 302.223 -2.13449 -4.71868 0
M  V30 3213 H 298.9 0.384364 -4.15727 0
M  V30 3214 H 300.29 -3.27893 -5.86461 0
M  V30 3215 N 303.011 1.40521 -0.713556 0
M  V30 3216 C 303.974 2.29098 -0.0684347 0
M  V30 3217 C 304.974 1.45268 0.689472 0
M  V30 3218 O 306.164 1.66205 0.521677 0
M  V30 3219 C 303.296 3.28446 0.913024 0
M  V30 3220 H 304.489 2.87645 -0.84855 0
M  V30 3221 H 302.042 1.48809 -0.47809 0
M  V30 3222 H 302.777 2.74913 1.72027 0
M  V30 3223 H 302.562 3.90327 0.372472 0
M  V30 3224 H 304.052 3.94777 1.36165 0
M  V30 3225 N 304.489 0.459591 1.5075 0
M  V30 3226 C 305.399 -0.34613 2.32033 0
M  V30 3227 C 306.415 -1.00686 1.41909 0
M  V30 3228 O 307.591 -0.997361 1.7497 0
M  V30 3229 C 304.656 -1.42029 3.16273 0
M  V30 3230 C 303.717 -0.777362 4.22203 0
M  V30 3231 C 302.95 -1.80034 5.02418 0
M  V30 3232 O 303.173 -3.02544 4.83553 0
M  V30 3233 O 302.107 -1.37853 5.85901 0
M  V30 3234 H 305.933 0.318054 3.0203 0
M  V30 3235 H 303.518 0.221663 1.47746 0
M  V30 3236 H 305.4 -2.04275 3.68578 0
M  V30 3237 H 304.075 -2.06815 2.49016 0
M  V30 3238 H 302.982 -0.116256 3.73919 0
M  V30 3239 H 304.315 -0.172634 4.91897 0
M  V30 3240 N 305.967 -1.56429 0.191757 0
M  V30 3241 C 307.244 -1.89224 -0.495332 0
M  V30 3242 C 307.624 -1.10478 -1.79883 0
M  V30 3243 O 306.972 -0.204852 -2.2758 0
M  V30 3244 C 307.182 -3.41548 -0.717367 0
M  V30 3245 C 308.53 -4.11711 -1.03823 0
M  V30 3246 O 309.554 -3.4698 -0.805204 0
M  V30 3247 O 308.413 -5.2611 -1.47887 0
M  V30 3248 H 305.507 -0.785788 -0.25781 0
M  V30 3249 H 308.053 -1.68111 0.231721 0
M  V30 3250 H 306.825 -3.90772 0.203287 0
M  V30 3251 H 306.448 -3.68342 -1.497 0
M  V30 3252 N 307.445 0.0818655 -1.57387 0
M  V30 3253 C 308.694 0.781681 -1.85937 0
M  V30 3254 C 309.007 1.79246 -0.782957 0
M  V30 3255 O 310.213 2.54112 -0.955987 0
M  V30 3256 C 308.669 1.44109 -3.29789 0
M  V30 3257 C 308.277 0.469396 -4.45534 0
M  V30 3258 C 310.021 2.12386 -3.67549 0
M  V30 3259 C 307.928 1.13415 -5.80423 0
M  V30 3260 H 306.858 0.295682 -0.693605 0
M  V30 3261 H 309.509 0.0348051 -1.83467 0
M  V30 3262 H 307.891 2.23588 -3.2684 0
M  V30 3263 H 309.065 -0.294856 -4.59856 0
M  V30 3264 H 307.38 -0.108383 -4.16259 0
M  V30 3265 H 309.977 2.62878 -4.65617 0
M  V30 3266 H 310.32 2.91877 -2.96839 0
M  V30 3267 H 310.853 1.39751 -3.72444 0
M  V30 3268 H 307.592 0.379771 -6.54399 0
M  V30 3269 H 307.112 1.8695 -5.69921 0
M  V30 3270 H 308.791 1.65686 -6.25426 0
M  V30 3271 N 308.923 1.53595 0.353017 0
M  V30 3272 C 309.87 1.80919 1.43308 0
M  V30 3273 C 310.84 0.654288 1.5267 0
M  V30 3274 O 312.025 0.897759 1.6836 0
M  V30 3275 C 309.165 2.01605 2.80089 0
M  V30 3276 C 308.278 3.29321 2.79593 0
M  V30 3277 C 307.413 3.40125 4.0803 0
M  V30 3278 C 306.452 4.61826 4.01725 0
M  V30 3279 N 305.589 4.69716 5.21834 0
M  V30 3280 H 310.429 2.73074 1.19308 0
M  V30 3281 H 307.966 1.35263 0.578131 0
M  V30 3282 H 309.924 2.11586 3.59565 0
M  V30 3283 H 308.554 1.12772 3.0246 0
M  V30 3284 H 307.606 3.28229 1.92276 0
M  V30 3285 H 308.918 4.18884 2.70809 0
M  V30 3286 H 308.072 3.49488 4.95927 0
M  V30 3287 H 306.811 2.48601 4.19582 0
M  V30 3288 H 305.816 4.52552 3.12213 0
M  V30 3289 H 307.041 5.54705 3.91764 0
M  V30 3290 H 304.987 3.81097 5.33948 0
M  V30 3291 H 304.904 5.53202 5.1527 0
M  V30 3292 H 306.172 4.83376 6.11529 0
M  V30 3293 N 310.401 -0.613514 1.45168 0
M  V30 3294 C 311.631 -1.39743 1.52169 0
M  V30 3295 C 312.039 -1.88596 0.151086 0
M  V30 3296 O 311.382 -1.6251 -0.856521 0
M  V30 3297 C 311.444 -2.64035 2.43979 0
M  V30 3298 C 311.108 -2.36861 3.90827 0
M  V30 3299 C 312.105 -1.97591 4.80889 0
M  V30 3300 C 309.79 -2.49956 4.35692 0
M  V30 3301 C 311.784 -1.71768 6.1382 0
M  V30 3302 C 309.471 -2.23747 5.68665 0
M  V30 3303 C 310.469 -1.84714 6.57548 0
M  V30 3304 O 310.157 -1.58809 7.88058 0
M  V30 3305 H 309.889 -0.434382 0.517966 0
M  V30 3306 H 312.443 -0.75587 1.90986 0
M  V30 3307 H 310.673 -3.3089 2.00122 0
M  V30 3308 H 312.362 -3.26069 2.41731 0
M  V30 3309 H 313.128 -1.87015 4.47493 0
M  V30 3310 H 309.007 -2.79305 3.66756 0
M  V30 3311 H 312.551 -1.41227 6.83155 0
M  V30 3312 H 308.448 -2.33938 6.01617 0
M  V30 3313 H 309.216 -1.7291 8.00028 0
M  V30 3314 N 311.879 -1.3236 -0.855495 0
M  V30 3315 C 312.789 -1.23221 -1.99634 0
M  V30 3316 C 313.805 -0.145983 -1.73387 0
M  V30 3317 O 314.981 -0.366502 -1.98037 0
M  V30 3318 C 312.046 -0.954782 -3.33294 0
M  V30 3319 C 311.107 -2.12937 -3.72769 0
M  V30 3320 C 310.34 -1.86508 -5.00051 0
M  V30 3321 O 310.563 -0.807231 -5.64659 0
M  V30 3322 O 309.497 -2.72591 -5.36636 0
M  V30 3323 H 313.323 -2.19126 -2.1028 0
M  V30 3324 H 310.908 -1.12241 -0.986018 0
M  V30 3325 H 312.79 -0.816519 -4.13414 0
M  V30 3326 H 311.465 -0.0258854 -3.2369 0
M  V30 3327 H 310.372 -2.3231 -2.93228 0
M  V30 3328 H 311.705 -3.04102 -3.87018 0
M  V30 3329 N 313.357 1.07166 -1.15556 0
M  V30 3330 C 314.289 2.14341 -0.811815 0
M  V30 3331 C 315.302 1.61835 0.177015 0
M  V30 3332 O 316.491 1.78439 -0.0464996 0
M  V30 3333 C 313.591 3.38387 -0.186481 0
M  V30 3334 C 312.764 4.20238 -1.21321 0
M  V30 3335 C 311.823 5.2266 -0.609302 0
M  V30 3336 O 310.849 5.54719 -1.27576 0
M  V30 3337 N 312.051 5.77306 0.608099 0
M  V30 3338 H 314.816 2.44431 -1.73417 0
M  V30 3339 H 312.377 1.23089 -1.0517 0
M  V30 3340 H 314.369 4.04044 0.230339 0
M  V30 3341 H 312.939 3.05994 0.639249 0
M  V30 3342 H 312.159 3.50369 -1.80652 0
M  V30 3343 H 313.447 4.71736 -1.90638 0
M  V30 3344 H 312.845 5.53513 1.1679 0
M  V30 3345 H 311.402 6.44583 0.96725 0
M  V30 3346 N 314.835 0.952656 1.25548 0
M  V30 3347 C 315.765 0.489287 2.28316 0
M  V30 3348 C 316.746 -0.463359 1.63667 0
M  V30 3349 O 317.931 -0.36274 1.90782 0
M  V30 3350 C 315.061 -0.235603 3.465 0
M  V30 3351 C 314.015 0.631593 4.23314 0
M  V30 3352 C 313.341 -0.223923 5.34231 0
M  V30 3353 C 314.641 1.90871 4.86174 0
M  V30 3354 H 316.335 1.34822 2.67326 0
M  V30 3355 H 313.881 0.649728 1.28509 0
M  V30 3356 H 315.834 -0.570882 4.17515 0
M  V30 3357 H 314.558 -1.12877 3.06474 0
M  V30 3358 H 313.217 0.949929 3.54079 0
M  V30 3359 H 312.865 -1.11678 4.90446 0
M  V30 3360 H 312.565 0.35299 5.86539 0
M  V30 3361 H 314.089 -0.554214 6.0808 0
M  V30 3362 H 315.503 1.63997 5.49343 0
M  V30 3363 H 313.9 2.43112 5.4865 0
M  V30 3364 H 314.97 2.61304 4.08471 0
M  V30 3365 N 316.313 -1.40141 0.720998 0
M  V30 3366 C 317.26 -2.30688 0.071919 0
M  V30 3367 C 318.23 -1.48476 -0.744584 0
M  V30 3368 O 319.415 -1.77201 -0.707423 0
M  V30 3369 C 316.555 -3.34724 -0.839855 0
M  V30 3370 C 315.668 -4.31998 -0.0122438 0
M  V30 3371 C 314.803 -5.23102 -0.923995 0
M  V30 3372 C 313.842 -6.12033 -0.0907969 0
M  V30 3373 N 312.979 -6.95537 -0.957718 0
M  V30 3374 H 317.819 -2.85628 0.849755 0
M  V30 3375 H 315.356 -1.40653 0.430726 0
M  V30 3376 H 317.314 -3.93618 -1.38279 0
M  V30 3377 H 315.944 -2.81274 -1.58381 0
M  V30 3378 H 314.996 -3.74841 0.64794 0
M  V30 3379 H 316.308 -4.94772 0.632595 0
M  V30 3380 H 315.462 -5.86953 -1.53527 0
M  V30 3381 H 314.201 -4.60615 -1.60264 0
M  V30 3382 H 313.206 -5.47207 0.533377 0
M  V30 3383 H 314.431 -6.76581 0.584428 0
M  V30 3384 H 312.377 -6.35633 -1.62192 0
M  V30 3385 H 312.294 -7.55099 -0.36904 0
M  V30 3386 H 313.562 -7.63832 -1.555 0
M  V30 3387 N 317.792 -0.46758 -1.50504 0
M  V30 3388 C 319.02 0.0864133 -2.06719 0
M  V30 3389 C 319.435 1.33819 -1.33184 0
M  V30 3390 O 318.792 1.78061 -0.400083 0
M  V30 3391 C 318.843 0.378079 -3.59517 0
M  V30 3392 O 318.564 -0.824044 -4.3028 0
M  V30 3393 C 320.065 0.979426 -4.32345 0
M  V30 3394 H 317.285 -0.00551697 -0.670977 0
M  V30 3395 H 319.829 -0.655354 -1.93715 0
M  V30 3396 H 317.984 1.06977 -3.72337 0
M  V30 3397 H 318.398 -0.566518 -5.21432 0
M  V30 3398 H 319.872 1.1333 -5.40241 0
M  V30 3399 H 320.349 1.9686 -3.9261 0
M  V30 3400 H 320.955 0.326216 -4.24047 0
M  V30 3401 N 319.27 1.56325 -0.20005 0
M  V30 3402 C 320.547 1.89484 0.48529 0
M  V30 3403 C 320.927 1.1143 1.79294 0
M  V30 3404 O 320.275 0.216919 2.27468 0
M  V30 3405 C 320.485 3.41923 0.699243 0
M  V30 3406 C 321.833 4.12256 1.01638 0
M  V30 3407 O 322.857 3.47402 0.786792 0
M  V30 3408 O 321.716 5.26887 1.45095 0
M  V30 3409 H 318.81 0.787144 0.253639 0
M  V30 3410 H 321.356 1.67985 -0.240633 0
M  V30 3411 H 320.128 3.90658 -0.224008 0
M  V30 3412 H 319.751 3.69131 1.47744 0
M  V30 3413 N 320.748 -0.0735177 1.57428 0
M  V30 3414 C 321.678 -1.0879 2.06608 0
M  V30 3415 C 322.659 -1.40473 0.959237 0
M  V30 3416 O 323.844 -1.5013 1.23185 0
M  V30 3417 C 320.974 -2.40183 2.50857 0
M  V30 3418 C 319.928 -2.22858 3.65402 0
M  V30 3419 C 319.254 -3.59619 3.957 0
M  V30 3420 C 320.554 -1.65123 4.95511 0
M  V30 3421 H 322.248 -0.678673 2.91607 0
M  V30 3422 H 319.794 -0.325013 1.40284 0
M  V30 3423 H 321.747 -3.11437 2.83874 0
M  V30 3424 H 320.471 -2.83083 1.62885 0
M  V30 3425 H 319.13 -1.54045 3.32664 0
M  V30 3426 H 318.778 -4.00086 3.04861 0
M  V30 3427 H 318.478 -3.48866 4.72828 0
M  V30 3428 H 320.002 -4.32306 4.31212 0
M  V30 3429 H 321.416 -2.26241 5.26771 0
M  V30 3430 H 319.813 -1.65071 5.7695 0
M  V30 3431 H 320.883 -0.612559 4.81015 0
M  V30 3432 N 322.226 -1.5378 -0.344866 0
M  V30 3433 C 323.159 -1.7649 -1.4466 0
M  V30 3434 C 324.137 -0.613954 -1.50563 0
M  V30 3435 O 325.321 -0.84896 -1.683 0
M  V30 3436 C 322.448 -1.86235 -2.82903 0
M  V30 3437 C 321.494 -3.08375 -2.94631 0
M  V30 3438 S 322.327 -4.67457 -2.61236 0
M  V30 3439 C 323.483 -4.80079 -4.0159 0
M  V30 3440 H 323.716 -2.69661 -1.2518 0
M  V30 3441 H 321.249 -1.44632 -0.540455 0
M  V30 3442 H 323.207 -1.92535 -3.62547 0
M  V30 3443 H 321.868 -0.940786 -2.9968 0
M  V30 3444 H 321.061 -3.11865 -3.95925 0
M  V30 3445 H 320.663 -3.00294 -2.22934 0
M  V30 3446 H 322.955 -4.61407 -4.96094 0
M  V30 3447 H 323.898 -5.82168 -4.03095 0
M  V30 3448 H 324.306 -4.08544 -3.89554 0
M  V30 3449 N 323.704 0.605807 -1.45491 0
M  V30 3450 C 324.614 1.74466 -1.56839 0
M  V30 3451 C 325.63 1.68006 -0.452772 0
M  V30 3452 O 326.806 1.8833 -0.713708 0
M  V30 3453 C 323.871 3.10931 -1.53371 0
M  V30 3454 C 322.932 3.28832 -2.75986 0
M  V30 3455 C 322.165 4.58787 -2.72673 0
M  V30 3456 O 322.388 5.4122 -1.80102 0
M  V30 3457 O 321.322 4.79438 -3.63899 0
M  V30 3458 H 325.148 1.67843 -2.53106 0
M  V30 3459 H 322.733 0.770108 -1.28022 0
M  V30 3460 H 324.615 3.92233 -1.54051 0
M  V30 3461 H 323.29 3.18042 -0.602572 0
M  V30 3462 H 322.197 2.47112 -2.80867 0
M  V30 3463 H 323.53 3.26599 -3.68231 0
M  V30 3464 N 325.182 1.32811 0.848464 0
M  V30 3465 C 326.13 1.22231 1.97895 0
M  V30 3466 C 327.124 0.125749 1.68933 0
M  V30 3467 O 328.33 0.289083 1.77663 0
M  V30 3468 H 324.705 0.379058 0.649476 0
M  V30 3469 H 326.676 2.17828 2.03945 0
M  V30 3470 C 325.425 0.968572 3.33937 0
M  V30 3471 H 324.748 1.80458 3.56756 0
M  V30 3472 H 326.188 0.934808 4.13567 0
M  V30 3473 C 324.647 -0.328628 3.35293 0
M  V30 3474 O 325.177 -1.33848 3.78745 0
M  V30 3475 N 323.383 -0.352788 2.88451 0
M  V30 3476 H 322.93 0.469541 2.53285 0
M  V30 3477 H 322.888 -1.22057 2.89741 0
M  V30 3478 N 326.66 -1.06551 1.16123 0
M  V30 3479 C 327.906 -1.79567 0.94252 0
M  V30 3480 C 328.239 -1.86869 -0.528547 0
M  V30 3481 O 327.514 -1.35838 -1.39206 0
M  V30 3482 C 327.797 -3.24195 1.56747 0
M  V30 3483 C 327.65 -3.24989 3.10969 0
M  V30 3484 C 328.969 -4.21678 1.25998 0
M  V30 3485 H 326.088 -0.651883 0.343828 0
M  V30 3486 H 328.73 -1.2463 1.43413 0
M  V30 3487 H 326.88 -3.71107 1.14942 0
M  V30 3488 H 328.552 -2.86258 3.61737 0
M  V30 3489 H 326.795 -2.63716 3.44436 0
M  V30 3490 H 327.466 -4.27005 3.49815 0
M  V30 3491 H 329.942 -3.83196 1.62174 0
M  V30 3492 H 328.818 -5.21146 1.7233 0
M  V30 3493 H 329.079 -4.4174 0.178367 0
M  V30 3494 N 328.138 -0.959301 -1.25041 0
M  V30 3495 C 329.387 -0.612254 -1.92183 0
M  V30 3496 C 329.7 0.855347 -1.75907 0
M  V30 3497 O 330.906 1.31256 -2.37664 0
M  V30 3498 C 329.362 -1.04435 -3.44414 0
M  V30 3499 C 328.97 -2.53482 -3.69393 0
M  V30 3500 C 330.714 -0.770055 -4.17457 0
M  V30 3501 C 328.621 -2.90468 -5.15153 0
M  V30 3502 H 327.551 -0.225279 -0.719559 0
M  V30 3503 H 330.202 -1.16438 -1.41825 0
M  V30 3504 H 328.584 -0.4206 -3.9376 0
M  V30 3505 H 329.758 -3.20916 -3.30681 0
M  V30 3506 H 328.073 -2.78432 -3.0962 0
M  V30 3507 H 330.67 -1.02249 -5.24832 0
M  V30 3508 H 331.013 0.293611 -4.15263 0
M  V30 3509 H 331.546 -1.35437 -3.74034 0
M  V30 3510 H 328.285 -3.95871 -5.22462 0
M  V30 3511 H 327.805 -2.27711 -5.54894 0
M  V30 3512 H 329.484 -2.79914 -5.83315 0
M  V30 3513 N 329.616 1.39756 -0.72842 0
M  V30 3514 C 330.563 2.30647 -0.0841519 0
M  V30 3515 C 331.533 1.48869 0.7367 0
M  V30 3516 O 332.718 1.77574 0.698015 0
M  V30 3517 C 329.858 3.35165 0.822091 0
M  V30 3518 C 328.971 4.31999 -0.0106663 0
M  V30 3519 C 328.106 5.23585 0.896241 0
M  V30 3520 C 327.145 6.12072 0.0583381 0
M  V30 3521 N 326.282 6.96035 0.920818 0
M  V30 3522 H 331.122 2.85173 -0.864891 0
M  V30 3523 H 328.659 1.40422 -0.438179 0
M  V30 3524 H 330.617 3.94345 1.36189 0
M  V30 3525 H 329.247 2.8211 1.56888 0
M  V30 3526 H 328.299 3.74492 -0.66781 0
M  V30 3527 H 329.611 4.9443 -0.658825 0
M  V30 3528 H 328.765 5.87759 1.50412 0
M  V30 3529 H 327.504 4.61459 1.57819 0
M  V30 3530 H 326.509 5.46916 -0.562389 0
M  V30 3531 H 327.734 6.76261 -0.6203 0
M  V30 3532 H 325.68 6.36485 1.58818 0
M  V30 3533 H 325.597 7.55284 0.32899 0
M  V30 3534 H 326.865 7.64646 1.51447 0
M  V30 3535 N 331.094 0.475555 1.50254 0
M  V30 3536 C 332.324 -0.0753399 2.06463 0
M  V30 3537 C 332.732 -1.33661 1.33908 0
M  V30 3538 O 332.075 -1.79219 0.403257 0
M  V30 3539 C 332.137 -0.424921 3.5698 0
M  V30 3540 C 331.801 0.734965 4.51051 0
M  V30 3541 C 332.798 1.61827 4.94073 0
M  V30 3542 C 330.483 0.926557 4.9368 0
M  V30 3543 C 332.477 2.67754 5.78434 0
M  V30 3544 C 330.164 1.98904 5.77824 0
M  V30 3545 C 331.162 2.8629 6.20103 0
M  V30 3546 O 330.85 3.90708 7.02568 0
M  V30 3547 H 330.582 0.00576308 0.675975 0
M  V30 3548 H 333.136 0.664662 1.94349 0
M  V30 3549 H 331.366 -1.21817 3.67012 0
M  V30 3550 H 333.055 -0.911422 3.95535 0
M  V30 3551 H 333.821 1.48196 4.61804 0
M  V30 3552 H 329.7 0.25584 4.6029 0
M  V30 3553 H 333.244 3.35992 6.11355 0
M  V30 3554 H 329.141 2.12541 6.09505 0
M  V30 3555 H 329.909 3.87751 7.20827 0
M  V30 3556 N 332.573 -1.56217 0.208337 0
M  V30 3557 C 333.819 -1.98242 -0.427552 0
M  V30 3558 C 334.152 -1.09554 -1.60348 0
M  V30 3559 O 333.427 -0.15035 -1.93918 0
M  V30 3560 C 333.71 -3.4931 -0.874907 0
M  V30 3561 C 333.563 -4.48773 0.303751 0
M  V30 3562 C 334.882 -4.04424 -1.73577 0
M  V30 3563 H 332.001 -0.720744 -0.153936 0
M  V30 3564 H 334.643 -1.87586 0.30192 0
M  V30 3565 H 332.793 -3.58522 -1.49648 0
M  V30 3566 H 334.465 -4.51586 0.941682 0
M  V30 3567 H 332.708 -4.23194 0.953375 0
M  V30 3568 H 333.379 -5.51976 -0.0519883 0
M  V30 3569 H 335.855 -3.98075 -1.21143 0
M  V30 3570 H 334.731 -5.1047 -2.01771 0
M  V30 3571 H 334.992 -3.50494 -2.69456 0
M  V30 3572 N 334.051 0.0651679 -1.57465 0
M  V30 3573 C 335.3 0.761916 -1.86756 0
M  V30 3574 C 335.613 1.78406 -0.801925 0
M  V30 3575 O 336.819 2.53084 -0.982885 0
M  V30 3576 C 335.275 1.40603 -3.31299 0
M  V30 3577 C 334.883 0.422115 -4.46007 0
M  V30 3578 C 336.627 2.08476 -3.69781 0
M  V30 3579 C 334.534 1.07252 -5.81593 0
M  V30 3580 H 333.464 0.288308 -0.696702 0
M  V30 3581 H 336.115 0.015344 -1.83494 0
M  V30 3582 H 334.497 2.20109 -3.29193 0
M  V30 3583 H 335.671 -0.343613 -4.59517 0
M  V30 3584 H 333.986 -0.152527 -4.16121 0
M  V30 3585 H 336.583 2.57925 -4.68379 0
M  V30 3586 H 336.926 2.88712 -2.99919 0
M  V30 3587 H 337.459 1.35792 -3.73905 0
M  V30 3588 H 334.198 0.310342 -6.54765 0
M  V30 3589 H 333.718 1.80895 -5.71872 0
M  V30 3590 H 335.397 1.59043 -6.27148 0
M  V30 3591 N 335.529 1.53961 0.336706 0
M  V30 3592 C 336.94 1.62914 0.911925 0
M  V30 3593 C 337.291 0.514795 1.89326 0
M  V30 3594 O 336.416 -0.354395 2.13478 0
M  V30 3595 C 337.011 2.95304 1.66076 0
M  V30 3596 C 335.57 3.06496 2.18489 0
M  V30 3597 C 334.717 2.58403 1.00613 0
M  V30 3598 H 337.668 1.58285 0.114649 0
M  V30 3599 H 337.689 2.84727 2.5241 0
M  V30 3600 H 337.201 3.76387 0.946276 0
M  V30 3601 H 335.302 2.3006 2.93092 0
M  V30 3602 H 335.415 4.1208 2.44391 0
M  V30 3603 H 333.779 2.13977 1.38152 0
M  V30 3604 H 334.562 3.41932 0.306179 0
M  V30 3605 N 337.007 -0.598083 1.45811 0
M  V30 3606 C 337.917 -1.73632 1.57763 0
M  V30 3607 C 338.933 -1.67763 0.461676 0
M  V30 3608 O 340.109 -1.87949 0.723685 0
M  V30 3609 C 337.174 -3.10114 1.55018 0
M  V30 3610 C 336.235 -3.27364 2.77726 0
M  V30 3611 C 335.468 -4.57334 2.75102 0
M  V30 3612 O 335.691 -5.40258 1.8297 0
M  V30 3613 O 334.625 -4.77502 3.66437 0
M  V30 3614 H 338.451 -1.66498 2.53992 0
M  V30 3615 H 336.036 -0.763308 1.28429 0
M  V30 3616 H 337.918 -3.9141 1.56129 0
M  V30 3617 H 336.593 -3.17718 0.619431 0
M  V30 3618 H 335.5 -2.45619 2.82174 0
M  V30 3619 H 336.833 -3.24641 3.69958 0
M  V30 3620 N 338.485 -1.33259 -0.841409 0
M  V30 3621 C 339.432 -1.23302 -1.95103 0
M  V30 3622 C 340.402 -0.112204 -1.65721 0
M  V30 3623 O 341.587 -0.290038 -1.88583 0
M  V30 3624 C 338.727 -0.975583 -3.31023 0
M  V30 3625 C 337.84 -2.18243 -3.72819 0
M  V30 3626 C 336.975 -1.85936 -4.97595 0
M  V30 3627 C 336.014 -3.02866 -5.3192 0
M  V30 3628 N 335.151 -2.70565 -6.47873 0
M  V30 3629 H 339.991 -2.18207 -2.02952 0
M  V30 3630 H 337.528 -1.0851 -0.993173 0
M  V30 3631 H 339.486 -0.80677 -4.09325 0
M  V30 3632 H 338.116 -0.0632755 -3.22738 0
M  V30 3633 H 337.168 -2.46107 -2.90061 0
M  V30 3634 H 338.48 -3.05666 -3.94169 0
M  V30 3635 H 337.634 -1.65684 -5.83638 0
M  V30 3636 H 336.373 -0.957452 -4.78209 0
M  V30 3637 H 335.378 -3.23736 -4.44382 0
M  V30 3638 H 336.603 -3.93809 -5.53255 0
M  V30 3639 H 334.549 -1.8293 -6.29978 0
M  V30 3640 H 334.466 -3.51519 -6.69306 0
M  V30 3641 H 335.734 -2.53774 -7.37034 0
M  V30 3642 N 339.963 1.05934 -1.16686 0
M  V30 3643 C 340.893 2.1546 -0.899949 0
M  V30 3644 C 341.874 1.69391 0.155154 0
M  V30 3645 O 343.059 1.94199 0.00648693 0
M  V30 3646 C 340.189 3.44939 -0.404241 0
M  V30 3647 C 339.143 4.04536 -1.39767 0
M  V30 3648 C 338.469 5.29268 -0.760216 0
M  V30 3649 C 339.769 4.42893 -2.76845 0
M  V30 3650 H 341.463 2.38046 -1.81588 0
M  V30 3651 H 339.009 1.14404 -0.874514 0
M  V30 3652 H 340.962 4.20901 -0.204971 0
M  V30 3653 H 339.686 3.21983 0.547206 0
M  V30 3654 H 338.345 3.30635 -1.58355 0
M  V30 3655 H 337.993 5.02611 0.197831 0
M  V30 3656 H 337.693 5.70101 -1.42332 0
M  V30 3657 H 339.217 6.07924 -0.57105 0
M  V30 3658 H 340.631 5.09921 -2.62019 0
M  V30 3659 H 339.028 4.94721 -3.39663 0
M  V30 3660 H 340.098 3.53584 -3.31823 0
M  V30 3661 N 341.441 0.965919 1.2453 0
M  V30 3662 C 342.371 0.513476 2.27784 0
M  V30 3663 C 343.352 -0.445974 1.6415 0
M  V30 3664 O 344.537 -0.342485 1.91156 0
M  V30 3665 C 341.667 -0.198839 3.4673 0
M  V30 3666 C 340.621 0.676456 4.2262 0
M  V30 3667 C 339.947 -0.167248 5.34438 0
M  V30 3668 C 341.247 1.96017 4.84123 0
M  V30 3669 H 342.941 1.3765 2.65881 0
M  V30 3670 H 340.487 0.663321 1.27813 0
M  V30 3671 H 342.44 -0.526567 4.18097 0
M  V30 3672 H 341.164 -1.0962 3.07654 0
M  V30 3673 H 339.823 0.98743 3.53052 0
M  V30 3674 H 339.471 -1.0647 4.91603 0
M  V30 3675 H 339.171 0.415181 5.86131 0
M  V30 3676 H 340.695 -0.489688 6.08633 0
M  V30 3677 H 342.109 1.69814 5.47573 0
M  V30 3678 H 340.506 2.48918 5.4604 0
M  V30 3679 H 341.576 2.65622 4.05676 0
M  V30 3680 N 342.919 -1.39368 0.735821 0
M  V30 3681 C 344.196 -1.94465 0.210395 0
M  V30 3682 C 344.576 -1.67254 -1.28799 0
M  V30 3683 O 343.924 -1.00123 -2.05396 0
M  V30 3684 C 344.134 -3.4472 0.544897 0
M  V30 3685 C 345.482 -4.21708 0.494689 0
M  V30 3686 O 346.506 -3.52922 0.482136 0
M  V30 3687 O 345.365 -5.44299 0.489947 0
M  V30 3688 H 342.459 -0.826096 0.0386666 0
M  V30 3689 H 345.005 -1.48863 0.814735 0
M  V30 3690 H 343.777 -3.57963 1.58045 0
M  V30 3691 H 343.4 -3.97502 -0.08837 0
M  V30 3692 N 344.397 -0.483516 -1.5 0
M  V30 3693 C 345.345 0.318061 -2.30415 0
M  V30 3694 C 346.339 0.978988 -1.38247 0
M  V30 3695 O 347.545 0.908673 -1.55381 0
M  V30 3696 H 343.92 0.121419 -0.742133 0
M  V30 3697 H 345.891 -0.380403 -2.95965 0
M  V30 3698 C 344.64 1.38013 -3.19136 0
M  V30 3699 H 343.963 0.880952 -3.89973 0
M  V30 3700 H 345.403 1.91332 -3.78375 0
M  V30 3701 C 343.862 2.38884 -2.37563 0
M  V30 3702 O 344.392 3.44412 -2.06744 0
M  V30 3703 N 342.598 2.10912 -1.99911 0
M  V30 3704 H 342.145 1.25118 -2.25174 0
M  V30 3705 H 342.103 2.78635 -1.45636 0
M  V30 3706 N 345.875 1.56104 -0.216619 0
M  V30 3707 C 346.785 2.23694 0.706982 0
M  V30 3708 C 347.801 1.24295 1.21765 0
M  V30 3709 O 348.977 1.57094 1.2603 0
M  V30 3710 C 346.042 2.8998 1.90033 0
M  V30 3711 C 345.103 4.04708 1.43213 0
M  V30 3712 C 344.336 4.67824 2.56859 0
M  V30 3713 O 344.559 4.29913 3.74874 0
M  V30 3714 O 343.493 5.56905 2.28343 0
M  V30 3715 H 347.319 3.03272 0.161235 0
M  V30 3716 H 344.904 1.49394 0.0136177 0
M  V30 3717 H 346.786 3.31837 2.59735 0
M  V30 3718 H 345.461 2.13365 2.43428 0
M  V30 3719 H 344.368 3.6743 0.70327 0
M  V30 3720 H 345.701 4.83051 0.944615 0
M  V30 3721 N 347.353 -0.0568162 1.57498 0
M  V30 3722 C 348.581 -0.765626 1.92213 0
M  V30 3723 C 348.996 -1.70353 0.813961 0
M  V30 3724 O 348.353 -1.81268 -0.211701 0
M  V30 3725 C 348.404 -1.5465 3.2675 0
M  V30 3726 O 348.125 -0.646278 4.33307 0
M  V30 3727 C 349.626 -2.35497 3.75574 0
M  V30 3728 H 346.846 -0.216835 0.634999 0
M  V30 3729 H 349.39 -0.0226146 2.04487 0
M  V30 3730 H 347.545 -2.24165 3.15957 0
M  V30 3731 H 347.959 -1.19093 5.108 0
M  V30 3732 H 349.433 -2.85722 4.72299 0
M  V30 3733 H 349.91 -3.15692 3.05344 0
M  V30 3734 H 350.516 -1.7111 3.8936 0
M  V30 3735 N 348.832 -1.54138 -0.328536 0
M  V30 3736 C 349.762 -1.86167 -1.40939 0
M  V30 3737 C 350.743 -0.718044 -1.54202 0
M  V30 3738 O 351.928 -0.971328 -1.68163 0
M  V30 3739 C 349.058 -2.08461 -2.77779 0
M  V30 3740 C 348.012 -3.24299 -2.7931 0
M  V30 3741 C 347.338 -3.31955 -4.19178 0
M  V30 3742 C 348.638 -4.62065 -2.43502 0
M  V30 3743 H 350.332 -2.76689 -1.14383 0
M  V30 3744 H 347.878 -1.33132 -0.548806 0
M  V30 3745 H 349.831 -2.29453 -3.53454 0
M  V30 3746 H 348.555 -1.14684 -3.05802 0
M  V30 3747 H 347.214 -3.03187 -2.0609 0
M  V30 3748 H 346.862 -2.35745 -4.44335 0
M  V30 3749 H 346.562 -4.09805 -4.2111 0
M  V30 3750 H 348.086 -3.55175 -4.96672 0
M  V30 3751 H 349.5 -4.8297 -3.08889 0
M  V30 3752 H 347.897 -5.42429 -2.56693 0
M  V30 3753 H 348.967 -4.64652 -1.38659 0
M  V30 3754 N 350.31 0.590341 -1.46126 0
M  V30 3755 C 351.54 1.37304 -1.54373 0
M  V30 3756 C 351.948 1.88332 -0.181071 0
M  V30 3757 O 351.291 1.63852 0.830559 0
M  V30 3758 C 351.353 2.6012 -2.48149 0
M  V30 3759 C 351.017 2.30613 -3.94546 0
M  V30 3760 C 352.014 1.89915 -4.83971 0
M  V30 3761 C 349.699 2.42993 -4.39613 0
M  V30 3762 C 351.693 1.61981 -6.16475 0
M  V30 3763 C 349.38 2.14672 -5.72153 0
M  V30 3764 C 350.378 1.7423 -6.60404 0
M  V30 3765 O 350.066 1.46251 -7.90485 0
M  V30 3766 H 349.798 0.426086 -0.524811 0
M  V30 3767 H 352.352 0.72539 -1.92165 0
M  V30 3768 H 350.582 3.27664 -2.05361 0
M  V30 3769 H 352.271 3.22182 -2.46887 0
M  V30 3770 H 353.037 1.79872 -4.50412 0
M  V30 3771 H 348.916 2.73435 -3.71153 0
M  V30 3772 H 352.46 1.30341 -6.85315 0
M  V30 3773 H 348.357 2.24337 -6.05263 0
M  V30 3774 H 349.125 1.6016 -8.02677 0
M  V30 3775 N 351.788 1.33704 0.83433 0
M  V30 3776 C 353.018 1.28281 1.6195 0
M  V30 3777 C 353.426 -0.147603 1.88623 0
M  V30 3778 O 352.769 -1.1016 1.47005 0
M  V30 3779 C 352.831 1.99386 2.99141 0
M  V30 3780 C 352.495 3.48681 2.95416 0
M  V30 3781 C 353.492 4.438 2.70809 0
M  V30 3782 C 351.177 3.90925 3.15409 0
M  V30 3783 C 353.171 5.79138 2.66229 0
M  V30 3784 C 350.858 5.26366 3.10454 0
M  V30 3785 C 351.856 6.20284 2.85895 0
M  V30 3786 O 351.544 7.53245 2.80852 0
M  V30 3787 H 351.276 0.44315 0.510484 0
M  V30 3788 H 353.83 1.76711 1.04702 0
M  V30 3789 H 352.06 1.45554 3.58261 0
M  V30 3790 H 353.749 1.87403 3.60049 0
M  V30 3791 H 354.515 4.12485 2.5511 0
M  V30 3792 H 350.394 3.18229 3.33543 0
M  V30 3793 H 353.938 6.52416 2.4698 0
M  V30 3794 H 349.835 5.57304 3.25703 0
M  V30 3795 H 350.603 7.62846 2.96661 0
M  V30 3796 N 353.266 -1.05314 1.17247 0
M  V30 3797 C 354.196 -2.1498 0.911362 0
M  V30 3798 C 355.177 -1.69471 -0.146169 0
M  V30 3799 O 356.362 -1.942 0.003812 0
M  V30 3800 C 353.492 -3.4472 0.422528 0
M  V30 3801 C 352.446 -4.03789 1.4191 0
M  V30 3802 C 351.772 -5.28858 0.788274 0
M  V30 3803 C 353.072 -4.41418 2.7919 0
M  V30 3804 H 354.766 -2.3708 1.82848 0
M  V30 3805 H 352.312 -1.13938 0.880569 0
M  V30 3806 H 354.265 -4.20787 0.227289 0
M  V30 3807 H 352.989 -3.22269 -0.530123 0
M  V30 3808 H 351.648 -3.2979 1.60106 0
M  V30 3809 H 351.296 -5.02709 -0.171173 0
M  V30 3810 H 350.996 -5.69338 1.45353 0
M  V30 3811 H 352.52 -6.07612 0.603282 0
M  V30 3812 H 353.934 -5.08524 2.64719 0
M  V30 3813 H 352.331 -4.92913 3.42282 0
M  V30 3814 H 353.401 -3.51819 3.33693 0
M  V30 3815 N 354.744 -0.972509 -1.24016 0
M  V30 3816 C 355.692 -0.498562 -2.27194 0
M  V30 3817 C 356.686 0.440372 -1.63576 0
M  V30 3818 O 357.892 0.315133 -1.7722 0
M  V30 3819 H 354.267 -0.142775 -0.738322 0
M  V30 3820 H 356.238 -1.38065 -2.64539 0
M  V30 3821 C 354.987 0.191072 -3.47175 0
M  V30 3822 H 354.31 -0.522318 -3.96373 0
M  V30 3823 H 355.75 0.486445 -4.212 0
M  V30 3824 C 354.209 1.41967 -3.05527 0
M  V30 3825 O 354.739 2.51642 -3.13112 0
M  V30 3826 N 352.945 1.28746 -2.60524 0
M  V30 3827 H 352.492 0.395089 -2.54552 0
M  V30 3828 H 352.45 2.11061 -2.33025 0
M  V30 3829 N 356.222 1.38976 -0.743202 0
M  V30 3830 C 357.633 1.83123 -0.363732 0
M  V30 3831 C 357.984 1.6205 1.10609 0
M  V30 3832 O 357.109 1.11606 1.854 0
M  V30 3833 C 357.704 3.32439 -0.653408 0
M  V30 3834 C 356.263 3.74974 -0.327338 0
M  V30 3835 C 355.41 2.61878 -0.911875 0
M  V30 3836 H 358.361 1.27852 -0.940191 0
M  V30 3837 H 358.382 3.80432 0.0720031 0
M  V30 3838 H 357.894 3.47745 -1.72323 0
M  V30 3839 H 355.995 3.65252 0.736314 0
M  V30 3840 H 356.108 4.72106 -0.815631 0
M  V30 3841 H 354.472 2.52448 -0.337944 0
M  V30 3842 H 355.255 2.79987 -1.98651 0
M  V30 3843 N 357.7 0.491464 1.49741 0
M  V30 3844 C 358.925 -0.0557177 2.07325 0
M  V30 3845 C 359.35 -1.30925 1.35056 0
M  V30 3846 O 358.708 -1.76733 0.404365 0
M  V30 3847 C 358.756 -0.302074 3.59333 0
M  V30 3848 O 357.86 -1.37868 3.88672 0
M  V30 3849 H 357.201 0.0219956 0.663636 0
M  V30 3850 H 359.731 0.688352 1.92673 0
M  V30 3851 H 359.741 -0.536464 4.04458 0
M  V30 3852 H 358.416 0.61383 4.11345 0
M  V30 3853 H 356.993 -1.12999 3.55367 0
M  V30 3854 N 359.178 -1.55987 0.224894 0
M  V30 3855 C 360.426 -1.97998 -0.405099 0
M  V30 3856 C 360.747 -1.11387 -1.60056 0
M  V30 3857 O 360.017 -0.191645 -1.9496 0
M  V30 3858 H 358.597 -0.731235 -0.152658 0
M  V30 3859 H 361.259 -1.92279 0.318567 0
M  V30 3860 H 360.355 -3.03463 -0.729167 0
M  V30 3861 N 360.656 0.0484629 -1.57525 0
M  V30 3862 C 361.603 1.05504 -2.05275 0
M  V30 3863 C 362.573 1.37084 -0.937927 0
M  V30 3864 O 363.758 1.47754 -1.2072 0
M  V30 3865 C 360.898 2.35676 -2.52093 0
M  V30 3866 C 360.011 2.10423 -3.77288 0
M  V30 3867 C 359.146 3.34327 -4.12794 0
M  V30 3868 C 358.185 3.04542 -5.30962 0
M  V30 3869 N 357.322 4.20841 -5.61994 0
M  V30 3870 H 362.162 0.640885 -2.91027 0
M  V30 3871 H 359.699 0.304854 -1.43906 0
M  V30 3872 H 361.657 3.11709 -2.77297 0
M  V30 3873 H 360.287 2.7485 -1.69285 0
M  V30 3874 H 359.339 1.24976 -3.59284 0
M  V30 3875 H 360.651 1.84438 -4.63448 0
M  V30 3876 H 359.805 4.1874 -4.39024 0
M  V30 3877 H 358.544 3.63408 -3.25247 0
M  V30 3878 H 357.549 2.18528 -5.04505 0
M  V30 3879 H 358.774 2.76758 -6.20146 0
M  V30 3880 H 356.72 4.4991 -4.77406 0
M  V30 3881 H 356.637 3.98212 -6.42622 0
M  V30 3882 H 357.905 5.06184 -5.92789 0
M  V30 3883 N 362.134 1.5431 0.320358 0
M  V30 3884 C 363.381 1.72668 1.05792 0
M  V30 3885 C 363.709 0.502084 1.87908 0
M  V30 3886 O 362.964 -0.516149 1.88771 0
M  V30 3887 C 363.263 2.95639 2.00828 0
M  V30 3888 C 362.929 4.30265 1.34843 0
M  V30 3889 C 361.591 4.66865 1.16578 0
M  V30 3890 C 363.943 5.13801 0.875095 0
M  V30 3891 C 361.271 5.84597 0.496336 0
M  V30 3892 C 363.623 6.32219 0.219463 0
M  V30 3893 C 362.287 6.67495 0.0246915 0
M  V30 3894 H 361.557 0.631837 0.387121 0
M  V30 3895 H 364.204 1.88552 0.334735 0
M  V30 3896 H 362.509 2.74456 2.79609 0
M  V30 3897 H 364.206 3.07038 2.57932 0
M  V30 3898 H 360.796 4.01472 1.50061 0
M  V30 3899 H 364.98 4.86039 1.00398 0
M  V30 3900 H 360.236 6.10486 0.334264 0
M  V30 3901 H 364.41 6.96227 -0.155291 0
M  V30 3902 H 362.037 7.5858 -0.496065 0
M  V30 3903 N 363.613 -0.582584 1.46437 0
M  V30 3904 C 364.859 -1.34278 1.51978 0
M  V30 3905 C 365.192 -1.93446 0.170973 0
M  V30 3906 O 364.467 -1.76481 -0.817608 0
M  V30 3907 C 364.75 -2.47203 2.61845 0
M  V30 3908 C 364.603 -1.93069 4.06257 0
M  V30 3909 C 365.922 -3.49247 2.67795 0
M  V30 3910 H 363.041 -0.486876 0.553282 0
M  V30 3911 H 365.683 -0.654437 1.78374 0
M  V30 3912 H 363.833 -3.0592 2.39469 0
M  V30 3913 H 365.505 -1.38808 4.3992 0
M  V30 3914 H 363.748 -1.23898 4.1573 0
M  V30 3915 H 364.419 -2.74586 4.7886 0
M  V30 3916 H 366.895 -3.00411 2.8791 0
M  V30 3917 H 365.771 -4.25719 3.46489 0
M  V30 3918 H 366.032 -4.06482 1.73852 0
M  V30 3919 N 365.091 -1.34144 -0.827227 0
M  V30 3920 C 366.021 -1.28005 -1.95287 0
M  V30 3921 C 367.002 -0.158321 -1.69362 0
M  V30 3922 O 368.187 -0.349987 -1.9102 0
M  V30 3923 C 365.317 -1.03036 -3.31664 0
M  V30 3924 C 364.271 -2.11628 -3.72019 0
M  V30 3925 C 363.597 -1.71854 -5.0633 0
M  V30 3926 C 364.897 -3.53417 -3.8457 0
M  V30 3927 H 366.591 -2.22187 -2.00682 0
M  V30 3928 H 364.137 -1.0696 -0.964135 0
M  V30 3929 H 366.09 -0.973863 -4.09993 0
M  V30 3930 H 364.814 -0.0529391 -3.26557 0
M  V30 3931 H 363.473 -2.16339 -2.95961 0
M  V30 3932 H 363.121 -0.727841 -4.97706 0
M  V30 3933 H 362.821 -2.44531 -5.34302 0
M  V30 3934 H 364.345 -1.67692 -5.87122 0
M  V30 3935 H 365.759 -3.51142 -4.5318 0
M  V30 3936 H 364.156 -4.24679 -4.2399 0
M  V30 3937 H 365.226 -3.91072 -2.86689 0
M  V30 3938 N 366.569 1.04691 -1.17803 0
M  V30 3939 C 367.817 1.7743 -0.967617 0
M  V30 3940 C 368.138 1.88359 0.504574 0
M  V30 3941 O 367.408 1.40402 1.36617 0
M  V30 3942 H 365.988 0.657242 -0.355024 0
M  V30 3943 H 368.65 1.2638 -1.48371 0
M  V30 3944 H 367.746 2.78924 -1.40027 0
M  V30 3945 N 368.047 0.979072 1.23499 0
M  V30 3946 C 369.295 0.645941 1.91499 0
M  V30 3947 C 369.616 -0.822948 1.76784 0
M  V30 3948 O 368.886 -1.58854 1.14639 0
M  V30 3949 H 367.466 0.235919 0.708767 0
M  V30 3950 H 370.128 1.2426 1.50152 0
M  V30 3951 H 369.224 0.896411 2.9895 0
M  V30 3952 N 369.525 -1.3858 0.750561 0
M  V30 3953 C 370.936 -1.82927 0.373438 0
M  V30 3954 C 371.287 -1.62634 -1.09748 0
M  V30 3955 O 370.412 -1.12588 -1.84805 0
M  V30 3956 C 371.007 -3.32088 0.671029 0
M  V30 3957 C 369.566 -3.74795 0.34722 0
M  V30 3958 C 368.713 -2.61391 0.92575 0
M  V30 3959 H 371.664 -1.27351 0.946958 0
M  V30 3960 H 371.685 -3.80465 -0.0518269 0
M  V30 3961 H 371.197 -3.46826 1.74164 0
M  V30 3962 H 369.298 -3.65638 -0.716933 0
M  V30 3963 H 369.411 -4.71667 0.840656 0
M  V30 3964 H 367.775 -2.52265 0.351327 0
M  V30 3965 H 368.558 -2.78929 2.00133 0
M  V30 3966 N 371.003 -0.499398 -1.49478 0
M  V30 3967 C 371.966 0.268838 -2.27618 0
M  V30 3968 C 372.966 0.895383 -1.33565 0
M  V30 3969 O 374.156 0.760164 -1.56739 0
M  V30 3970 C 371.288 1.38559 -3.11471 0
M  V30 3971 H 372.481 -0.416812 -2.96989 0
M  V30 3972 H 370.034 -0.254313 -1.54217 0
M  V30 3973 H 370.769 2.10544 -2.46661 0
M  V30 3974 H 370.554 0.941797 -3.80621 0
M  V30 3975 H 372.044 1.92678 -3.70493 0
M  V30 3976 N 372.481 1.55866 -0.233164 0
M  V30 3977 C 373.444 2.1953 0.658715 0
M  V30 3978 C 374.444 1.16053 1.11303 0
M  V30 3979 O 375.634 1.41218 1.01996 0
M  V30 3980 C 372.766 2.82791 1.90373 0
M  V30 3981 H 373.959 2.99721 0.10347 0
M  V30 3982 H 371.512 1.56291 0.0164245 0
M  V30 3983 H 372.247 2.06501 2.50056 0
M  V30 3984 H 372.032 3.58578 1.58632 0
M  V30 3985 H 373.522 3.31556 2.53891 0
M  V30 3986 N 373.959 -0.0401083 1.57549 0
M  V30 3987 C 375.236 -0.767917 1.79896 0
M  V30 3988 C 375.616 -1.9416 0.82856 0
M  V30 3989 O 374.964 -2.2812 -0.131671 0
M  V30 3990 C 375.174 -1.2113 3.27305 0
M  V30 3991 C 376.522 -1.63175 3.91994 0
M  V30 3992 O 377.546 -1.30616 3.31388 0
M  V30 3993 O 376.405 -2.23565 4.98679 0
M  V30 3994 H 373.499 -0.370441 0.739393 0
M  V30 3995 H 376.045 -0.017737 1.69691 0
M  V30 3996 H 374.817 -0.372937 3.89519 0
M  V30 3997 H 374.44 -2.02183 3.42356 0
M  V30 3998 N 375.437 -1.54477 -0.31217 0
M  V30 3999 C 376.4 -1.83923 -1.36766 0
M  V30 4000 C 377.4 -0.711563 -1.44199 0
M  V30 4001 O 378.59 -0.979866 -1.44029 0
M  V30 4002 C 375.722 -2.0095 -2.75376 0
M  V30 4003 H 376.915 -2.78239 -1.11906 0
M  V30 4004 H 374.468 -1.46369 -0.548257 0
M  V30 4005 H 375.203 -1.08883 -3.05475 0
M  V30 4006 H 374.988 -2.83018 -2.71373 0
M  V30 4007 H 376.478 -2.2514 -3.51713 0
M  V30 4008 N 376.915 0.57481 -1.46744 0
M  V30 4009 C 378.163 1.33009 -1.52161 0
M  V30 4010 C 378.484 1.94185 -0.178092 0
M  V30 4011 O 377.754 1.7899 0.796196 0
M  V30 4012 H 376.334 0.493873 -0.560445 0
M  V30 4013 H 378.996 0.672589 -1.82927 0
M  V30 4014 H 378.092 2.13273 -2.27862 0
M  V30 4015 N 378.394 1.34581 0.820102 0
M  V30 4016 C 379.324 1.29038 1.94606 0
M  V30 4017 C 380.305 0.1673 1.69275 0
M  V30 4018 O 381.49 0.360112 1.90832 0
M  V30 4019 C 378.62 1.04793 3.31113 0
M  V30 4020 C 377.574 2.13597 3.70891 0
M  V30 4021 C 376.9 1.74537 5.05412 0
M  V30 4022 C 378.2 3.55451 3.8269 0
M  V30 4023 H 379.894 2.23248 1.99501 0
M  V30 4024 H 377.44 1.0747 0.958449 0
M  V30 4025 H 379.393 0.995592 4.0947 0
M  V30 4026 H 378.117 0.0702565 3.26524 0
M  V30 4027 H 376.776 2.17905 2.9481 0
M  V30 4028 H 376.424 0.754226 4.97313 0
M  V30 4029 H 376.124 2.47361 5.32997 0
M  V30 4030 H 377.648 1.70803 5.86224 0
M  V30 4031 H 379.062 3.5354 4.51312 0
M  V30 4032 H 377.459 4.26922 4.21732 0
M  V30 4033 H 378.529 3.92587 2.84611 0
M  V30 4034 N 379.872 -1.04064 1.18357 0
M  V30 4035 C 381.1 -1.80916 1.00384 0
M  V30 4036 C 381.515 -1.83414 -0.447738 0
M  V30 4037 O 380.872 -1.26962 -1.31099 0
M  V30 4038 C 380.923 -3.26516 1.55144 0
M  V30 4039 O 380.644 -3.2424 2.94618 0
M  V30 4040 C 382.145 -4.20013 1.41789 0
M  V30 4041 H 379.365 -0.569728 0.354474 0
M  V30 4042 H 381.909 -1.31151 1.56906 0
M  V30 4043 H 380.064 -3.73512 1.02798 0
M  V30 4044 H 380.478 -4.15452 3.20156 0
M  V30 4045 H 381.952 -5.20111 1.84901 0
M  V30 4046 H 382.429 -4.37667 0.36661 0
M  V30 4047 H 383.035 -3.78881 1.93207 0
M  V30 4048 N 381.35 -0.985608 -1.22978 0
M  V30 4049 C 382.598 -0.656087 -1.91154 0
M  V30 4050 C 382.919 0.813561 -1.77218 0
M  V30 4051 O 382.189 1.58244 -1.1548 0
M  V30 4052 H 380.769 -0.239674 -0.707506 0
M  V30 4053 H 383.431 -1.25054 -1.49491 0
M  V30 4054 H 382.527 -0.912253 -2.9847 0
M  V30 4055 N 382.828 1.3818 -0.7579 0
M  V30 4056 C 384.244 1.5353 -0.435972 0
M  V30 4057 C 384.444 1.71961 1.05032 0
M  V30 4058 O 383.5 1.73307 1.83633 0
M  V30 4059 C 384.813 2.73989 -1.23898 0
M  V30 4060 C 386.361 2.87841 -1.22949 0
M  V30 4061 C 386.836 4.11266 -2.01554 0
M  V30 4062 N 388.327 4.18352 -1.98837 0
M  V30 4063 C 389.062 5.12856 -2.5645 0
M  V30 4064 N 388.558 6.13005 -3.22794 0
M  V30 4065 N 390.351 5.05238 -2.46356 0
M  V30 4066 H 382.502 1.24467 -1.7211 0
M  V30 4067 H 384.765 0.604982 -0.729864 0
M  V30 4068 H 384.471 2.66789 -2.29165 0
M  V30 4069 H 384.345 3.67294 -0.858764 0
M  V30 4070 H 386.732 2.9452 -0.184854 0
M  V30 4071 H 386.813 1.95534 -1.64924 0
M  V30 4072 H 386.457 4.05349 -3.06031 0
M  V30 4073 H 386.387 5.02661 -1.5697 0
M  V30 4074 H 388.878 3.46628 -1.50524 0
M  V30 4075 H 389.191 6.81619 -3.64165 0
M  V30 4076 H 387.536 6.13325 -3.2689 0
M  V30 4077 H 390.727 4.25938 -1.9415 0
M  V30 4078 H 390.9 5.78707 -2.91552 0
M  V30 4079 N 384.306 0.507319 1.49211 0
M  V30 4080 C 385.253 -0.267728 2.29242 0
M  V30 4081 C 386.223 -0.954609 1.35928 0
M  V30 4082 O 387.408 -0.960046 1.64887 0
M  V30 4083 C 384.548 -1.32243 3.18756 0
M  V30 4084 C 383.661 -0.64669 4.27132 0
M  V30 4085 C 382.796 -1.68238 5.03855 0
M  V30 4086 C 381.835 -0.98885 6.0406 0
M  V30 4087 N 380.972 -1.96903 6.73924 0
M  V30 4088 H 385.812 0.420968 2.95012 0
M  V30 4089 H 383.349 0.219443 1.45454 0
M  V30 4090 H 385.307 -1.94599 3.69036 0
M  V30 4091 H 383.937 -1.97981 2.54958 0
M  V30 4092 H 382.989 0.0902926 3.80293 0
M  V30 4093 H 384.301 -0.101058 4.98698 0
M  V30 4094 H 383.455 -2.38081 5.58034 0
M  V30 4095 H 382.194 -2.26187 4.32077 0
M  V30 4096 H 381.199 -0.276222 5.49106 0
M  V30 4097 H 382.424 -0.415767 6.77826 0
M  V30 4098 H 380.37 -2.53803 6.04913 0
M  V30 4099 H 380.287 -1.47423 7.41487 0
M  V30 4100 H 381.555 -2.66015 7.32705 0
M  V30 4101 N 385.784 -1.5574 0.241426 0
M  V30 4102 C 387.033 -1.97986 -0.385295 0
M  V30 4103 C 387.346 -1.13267 -1.59468 0
M  V30 4104 O 388.552 -1.45501 -2.2922 0
M  V30 4105 C 387.008 -3.52275 -0.736884 0
M  V30 4106 C 386.616 -4.45726 0.450796 0
M  V30 4107 C 388.36 -4.03189 -1.3281 0
M  V30 4108 C 386.267 -5.91352 0.0756662 0
M  V30 4109 H 385.197 -0.739386 -0.147731 0
M  V30 4110 H 387.848 -1.80308 0.340779 0
M  V30 4111 H 386.23 -3.65628 -1.52094 0
M  V30 4112 H 387.404 -4.44131 1.22819 0
M  V30 4113 H 385.719 -4.05264 0.956573 0
M  V30 4114 H 388.316 -5.09505 -1.62201 0
M  V30 4115 H 388.659 -3.50212 -2.25071 0
M  V30 4116 H 389.192 -3.93141 -0.607069 0
M  V30 4117 H 385.931 -6.48354 0.965272 0
M  V30 4118 H 385.451 -5.96095 -0.665635 0
M  V30 4119 H 387.13 -6.46084 -0.344075 0
M  V30 4120 N 387.262 0.0317525 -1.57568 0
M  V30 4121 C 388.511 0.722131 -1.8833 0
M  V30 4122 C 388.824 1.76664 -0.839587 0
M  V30 4123 O 390.03 2.50942 -1.03635 0
M  V30 4124 C 388.486 1.33544 -3.34207 0
M  V30 4125 C 388.094 0.327415 -4.46802 0
M  V30 4126 C 389.838 2.00585 -3.7412 0
M  V30 4127 C 387.745 0.948915 -5.83738 0
M  V30 4128 H 386.675 0.273466 -0.702661 0
M  V30 4129 H 389.326 -0.0235811 -1.83485 0
M  V30 4130 H 387.708 2.13077 -3.33788 0
M  V30 4131 H 388.882 -0.441006 -4.58685 0
M  V30 4132 H 387.197 -0.240758 -4.15703 0
M  V30 4133 H 389.794 2.47932 -4.73744 0
M  V30 4134 H 390.137 2.82285 -3.05975 0
M  V30 4135 H 390.67 1.27831 -3.76702 0
M  V30 4136 H 387.409 0.171387 -6.55276 0
M  V30 4137 H 386.929 1.68724 -5.7558 0
M  V30 4138 H 388.608 1.45705 -6.3038 0
M  V30 4139 N 388.74 1.54641 0.303973 0
M  V30 4140 C 389.98 1.75516 1.04755 0
M  V30 4141 C 390.344 0.528211 1.84591 0
M  V30 4142 O 391.545 0.614645 2.61678 0
M  V30 4143 C 389.816 3.00685 1.93193 0
M  V30 4144 S 391.375 3.42549 2.74237 0
M  V30 4145 H 388.193 0.616987 0.353339 0
M  V30 4146 H 390.795 1.92842 0.321292 0
M  V30 4147 H 389.499 3.8811 1.33411 0
M  V30 4148 H 389.03 2.85937 2.70191 0
M  V30 4149 H 391.045 2.99386 3.95705 0
M  V30 4150 N 390.218 -0.567019 1.47046 0
M  V30 4151 C 391.495 -1.3276 1.43646 0
M  V30 4152 C 391.875 -2.1071 0.128186 0
M  V30 4153 O 391.223 -2.10441 -0.890326 0
M  V30 4154 C 391.433 -2.2404 2.67595 0
M  V30 4155 C 392.781 -2.85372 3.14401 0
M  V30 4156 O 393.805 -2.34346 2.68254 0
M  V30 4157 O 392.664 -3.78091 3.946 0
M  V30 4158 H 389.758 -0.597293 0.571988 0
M  V30 4159 H 392.304 -0.586735 1.59234 0
M  V30 4160 H 391.076 -1.65975 3.54356 0
M  V30 4161 H 390.699 -3.05439 2.54544 0
M  V30 4162 N 391.696 -1.35014 -0.812953 0
M  V30 4163 C 392.924 -1.31031 -1.6012 0
M  V30 4164 C 393.339 0.113558 -1.88458 0
M  V30 4165 O 392.696 1.06363 -1.48301 0
M  V30 4166 C 392.747 -2.10872 -2.93624 0
M  V30 4167 O 392.468 -3.47706 -2.66518 0
M  V30 4168 C 393.969 -2.14401 -3.88004 0
M  V30 4169 H 391.189 -0.45037 -0.497401 0
M  V30 4170 H 393.733 -1.77775 -1.01076 0
M  V30 4171 H 391.888 -1.67744 -3.492 0
M  V30 4172 H 392.302 -3.89097 -3.51715 0
M  V30 4173 H 393.776 -2.74669 -4.78812 0
M  V30 4174 H 394.253 -1.14105 -4.24119 0
M  V30 4175 H 394.859 -2.57662 -3.38364 0
M  V30 4176 N 393.175 1.03435 -1.18907 0
M  V30 4177 C 394.405 1.8012 -1.01195 0
M  V30 4178 C 394.813 1.8395 0.442613 0
M  V30 4179 O 394.156 1.27836 1.31923 0
M  V30 4180 C 394.218 3.26792 -1.49823 0
M  V30 4181 C 393.882 3.46609 -2.97844 0
M  V30 4182 C 394.879 3.37278 -3.95651 0
M  V30 4183 C 392.564 3.73001 -3.36416 0
M  V30 4184 C 394.558 3.54054 -5.30023 0
M  V30 4185 C 392.245 3.89423 -4.70949 0
M  V30 4186 C 393.243 3.79951 -5.67562 0
M  V30 4187 O 392.931 3.95895 -6.99659 0
M  V30 4188 H 392.663 0.573865 -0.357289 0
M  V30 4189 H 395.217 1.31207 -1.58031 0
M  V30 4190 H 393.447 3.76703 -0.873578 0
M  V30 4191 H 395.136 3.85055 -1.28404 0
M  V30 4192 H 395.902 3.16846 -3.67197 0
M  V30 4193 H 391.781 3.79469 -2.61772 0
M  V30 4194 H 395.325 3.46577 -6.05417 0
M  V30 4195 H 391.222 4.09351 -4.99101 0
M  V30 4196 H 391.99 4.13019 -7.06653 0
M  V30 4197 N 394.653 0.992116 1.22453 0
M  V30 4198 C 395.901 0.666215 1.90804 0
M  V30 4199 C 396.222 -0.804152 1.77647 0
M  V30 4200 O 395.492 -1.57629 1.16318 0
M  V30 4201 H 394.072 0.243423 0.706225 0
M  V30 4202 H 396.734 1.25845 1.48825 0
M  V30 4203 H 395.83 0.928069 2.97982 0
M  V30 4204 N 396.131 -1.37776 0.765217 0
M  V30 4205 C 397.379 -1.99454 0.325943 0
M  V30 4206 C 397.7 -1.61049 -1.09947 0
M  V30 4207 O 396.97 -0.872821 -1.75381 0
M  V30 4208 H 395.55 -0.737697 0.117525 0
M  V30 4209 H 398.212 -1.68359 0.981895 0
M  V30 4210 H 397.308 -3.09547 0.398353 0
M  V30 4211 N 397.609 -0.515225 -1.4894 0
M  V30 4212 C 398.855 0.016187 -2.03394 0
M  V30 4213 C 399.21 1.33377 -1.38666 0
M  V30 4214 O 398.503 1.84461 -0.518141 0
M  V30 4215 C 398.697 0.210595 -3.56779 0
M  V30 4216 C 398.526 -1.08659 -4.36375 0
M  V30 4217 C 397.296 -1.64237 -4.77864 0
M  V30 4218 C 399.494 -1.9935 -4.74093 0
M  V30 4219 N 397.476 -2.88398 -5.41941 0
M  V30 4220 C 398.847 -3.08088 -5.38035 0
M  V30 4221 C 400.902 -1.99856 -4.56029 0
M  V30 4222 C 399.605 -4.17377 -5.85823 0
M  V30 4223 C 401.631 -3.08129 -5.04787 0
M  V30 4224 C 400.993 -4.15586 -5.68742 0
M  V30 4225 H 397.092 -0.0352107 -0.781207 0
M  V30 4226 H 399.676 -0.693237 -1.8194 0
M  V30 4227 H 397.847 0.889088 -3.78087 0
M  V30 4228 H 399.579 0.740287 -3.97872 0
M  V30 4229 H 396.334 -1.18566 -4.58518 0
M  V30 4230 H 396.758 -3.51572 -5.78555 0
M  V30 4231 H 401.4 -1.18079 -4.05977 0
M  V30 4232 H 399.118 -4.99943 -6.34888 0
M  V30 4233 H 402.704 -3.09557 -4.92611 0
M  V30 4234 H 401.584 -4.97987 -6.05787 0
M  V30 4235 N 399.087 1.5561 -0.249682 0
M  V30 4236 C 400.335 1.98618 0.373548 0
M  V30 4237 C 400.656 1.13919 1.58264 0
M  V30 4238 O 399.926 0.222637 1.94631 0
M  V30 4239 H 398.506 0.733571 0.141006 0
M  V30 4240 H 401.168 1.91748 -0.349117 0
M  V30 4241 H 400.264 3.04584 0.680796 0
M  V30 4242 N 400.565 -0.0233959 1.57583 0
M  V30 4243 C 401.528 -1.00693 2.05897 0
M  V30 4244 C 402.528 -1.28693 0.964092 0
M  V30 4245 O 403.718 -1.23602 1.22753 0
M  V30 4246 C 400.85 -2.33825 2.4807 0
M  V30 4247 H 402.043 -0.589476 2.9405 0
M  V30 4248 H 399.596 -0.270354 1.53944 0
M  V30 4249 H 400.331 -2.80307 1.6309 0
M  V30 4250 H 400.116 -2.1483 3.2801 0
M  V30 4251 H 401.606 -3.04426 2.85857 0
M  V30 4252 N 402.043 -1.548 -0.295768 0
M  V30 4253 C 402.993 -1.82497 -1.3667 0
M  V30 4254 C 403.977 -0.682434 -1.45711 0
M  V30 4255 O 405.169 -0.943207 -1.49775 0
M  V30 4256 C 402.298 -2.08036 -2.73086 0
M  V30 4257 C 401.384 -3.28488 -2.68247 0
M  V30 4258 N 401.775 -4.48924 -2.33025 0
M  V30 4259 C 400.073 -3.3062 -2.99343 0
M  V30 4260 C 400.774 -5.30956 -2.37613 0
M  V30 4261 N 399.75 -4.68805 -2.75178 0
M  V30 4262 H 403.552 -2.73175 -1.0841 0
M  V30 4263 H 401.066 -1.5437 -0.504361 0
M  V30 4264 H 403.063 -2.26027 -3.5031 0
M  V30 4265 H 401.723 -1.18629 -3.02254 0
M  V30 4266 H 402.734 -4.75432 -2.05389 0
M  V30 4267 H 399.411 -2.51336 -3.33371 0
M  V30 4268 H 400.801 -6.37199 -2.13135 0
M  V30 4269 N 403.521 0.559213 -1.47345 0
M  V30 4270 C 404.769 1.31388 -1.53563 0
M  V30 4271 C 405.09 1.93985 -0.198678 0
M  V30 4272 O 404.36 1.79825 0.777167 0
M  V30 4273 H 402.94 0.487901 -0.565652 0
M  V30 4274 H 405.602 0.65315 -1.8363 0
M  V30 4275 H 404.698 2.10844 -2.30111 0
M  V30 4276 N 404.999 1.35443 0.805782 0
M  V30 4277 C 406.247 1.28507 1.55982 0
M  V30 4278 C 406.568 -0.140046 1.94496 0
M  V30 4279 O 405.838 -1.07666 1.63661 0
M  V30 4280 H 404.418 0.472676 0.578434 0
M  V30 4281 H 407.08 1.69555 0.961098 0
M  V30 4282 H 406.176 1.90148 2.47488 0
M  V30 4283 N 406.477 -1.02803 1.19454 0
M  V30 4284 C 407.725 -1.75869 0.995722 0
M  V30 4285 C 408.046 -1.89138 -0.474543 0
M  V30 4286 O 407.316 -1.42558 -1.34366 0
M  V30 4287 H 405.896 -0.651511 0.365435 0
M  V30 4288 H 408.558 -1.24004 1.50363 0
M  V30 4289 H 407.654 -2.76661 1.44447 0
M  V30 4290 N 407.956 -0.998596 -1.21925 0
M  V30 4291 C 408.919 -0.558679 -2.22287 0
M  V30 4292 C 409.919 0.361525 -1.56683 0
M  V30 4293 O 411.109 0.152695 -1.73529 0
M  V30 4294 C 408.241 0.18661 -3.40389 0
M  V30 4295 H 409.434 -1.4463 -2.62721 0
M  V30 4296 H 406.987 -0.786413 -1.35075 0
M  V30 4297 H 407.722 1.08996 -3.05435 0
M  V30 4298 H 407.507 -0.474188 -3.89222 0
M  V30 4299 H 408.997 0.482367 -4.14805 0
M  V30 4300 N 409.434 1.37368 -0.772513 0
M  V30 4301 C 410.681 1.99673 -0.337182 0
M  V30 4302 C 411.009 1.61324 1.0865 0
M  V30 4303 O 410.264 0.851377 1.7621 0
M  V30 4304 C 410.563 3.54817 -0.428876 0
M  V30 4305 C 410.229 4.12936 -1.81092 0
M  V30 4306 C 408.891 4.28523 -2.1891 0
M  V30 4307 C 411.243 4.44801 -2.71664 0
M  V30 4308 C 408.571 4.73277 -3.46735 0
M  V30 4309 C 410.923 4.90981 -3.98899 0
M  V30 4310 C 409.587 5.04773 -4.36761 0
M  V30 4311 H 408.857 0.730656 -0.123384 0
M  V30 4312 H 411.504 1.64124 -0.986686 0
M  V30 4313 H 409.809 3.90618 0.304167 0
M  V30 4314 H 411.506 4.00933 -0.0733334 0
M  V30 4315 H 408.096 4.01233 -1.50699 0
M  V30 4316 H 412.28 4.32344 -2.43706 0
M  V30 4317 H 407.536 4.82142 -3.75964 0
M  V30 4318 H 411.71 5.14603 -4.69208 0
M  V30 4319 H 409.337 5.39211 -5.35868 0
M  V30 4320 N 410.912 0.523116 1.48665 0
M  V30 4321 C 412.137 -0.0117284 2.07397 0
M  V30 4322 C 412.562 -1.28031 1.37803 0
M  V30 4323 O 411.92 -1.75836 0.441762 0
M  V30 4324 C 411.968 -0.225786 3.59892 0
M  V30 4325 O 411.072 -1.29592 3.91509 0
M  V30 4326 H 410.413 0.0360673 0.66302 0
M  V30 4327 H 412.943 0.729066 1.9117 0
M  V30 4328 H 412.953 -0.450552 4.05505 0
M  V30 4329 H 411.628 0.700944 4.09951 0
M  V30 4330 H 410.205 -1.05436 3.57684 0
M  V30 4331 N 412.39 -1.55475 0.257931 0
M  V30 4332 C 413.638 -1.98813 -0.363009 0
M  V30 4333 C 413.959 -1.14757 -1.57657 0
M  V30 4334 O 413.229 -0.232956 -1.9451 0
M  V30 4335 H 411.809 -0.734308 -0.137113 0
M  V30 4336 H 414.471 -1.9156 0.359281 0
M  V30 4337 H 413.567 -3.04941 -0.664634 0
M  V30 4338 N 413.868 0.0150385 -1.57593 0
M  V30 4339 C 414.815 1.01126 -2.07466 0
M  V30 4340 C 415.785 1.35064 -0.966794 0
M  V30 4341 O 416.97 1.4516 -1.23827 0
M  V30 4342 C 414.11 2.30276 -2.57035 0
M  V30 4343 C 413.223 2.02373 -3.81666 0
M  V30 4344 C 412.358 3.25496 -4.19793 0
M  V30 4345 C 411.397 2.93211 -5.37303 0
M  V30 4346 N 410.534 4.08826 -5.70794 0
M  V30 4347 H 415.374 0.57901 -2.92321 0
M  V30 4348 H 412.911 0.27426 -1.44521 0
M  V30 4349 H 414.869 3.05757 -2.83846 0
M  V30 4350 H 413.499 2.71197 -1.75077 0
M  V30 4351 H 412.551 1.17327 -3.61854 0
M  V30 4352 H 413.863 1.74567 -4.67256 0
M  V30 4353 H 413.017 4.09333 -4.47807 0
M  V30 4354 H 411.756 3.56428 -3.32882 0
M  V30 4355 H 410.761 2.07777 -5.09027 0
M  V30 4356 H 411.986 2.63542 -6.25877 0
M  V30 4357 H 409.932 4.39682 -4.86842 0
M  V30 4358 H 409.849 3.84491 -6.50924 0
M  V30 4359 H 411.117 4.93496 -6.03392 0
M  V30 4360 N 415.346 1.54954 0.287554 0
M  V30 4361 C 416.623 1.65569 1.04146 0
M  V30 4362 C 417.003 0.512672 2.0478 0
M  V30 4363 O 416.351 -0.489038 2.23205 0
M  V30 4364 C 416.561 3.04163 1.71131 0
M  V30 4365 C 417.909 3.61429 2.22832 0
M  V30 4366 O 418.933 3.06702 1.81141 0
M  V30 4367 O 417.792 4.57281 2.9926 0
M  V30 4368 H 414.886 0.671881 0.482188 0
M  V30 4369 H 417.432 1.67297 0.28457 0
M  V30 4370 H 416.204 3.78796 0.981303 0
M  V30 4371 H 415.827 3.06271 2.53543 0
M  V30 4372 N 416.824 -0.551391 1.4764 0
M  V30 4373 C 417.787 -1.64007 1.60107 0
M  V30 4374 C 418.787 -1.53601 0.47576 0
M  V30 4375 O 419.977 -1.57655 0.740988 0
M  V30 4376 C 417.109 -3.03569 1.55108 0
M  V30 4377 H 418.302 -1.543 2.57161 0
M  V30 4378 H 415.855 -0.771776 1.35917 0
M  V30 4379 H 416.59 -3.18804 0.594519 0
M  V30 4380 H 416.375 -3.12532 2.36783 0
M  V30 4381 H 417.865 -3.82762 1.66982 0
M  V30 4382 N 418.302 -1.35869 -0.798587 0
M  V30 4383 C 419.527 -1.32883 -1.59238 0
M  V30 4384 C 419.952 0.0894587 -1.87887 0
M  V30 4385 O 419.31 1.05869 -1.47178 0
M  V30 4386 C 419.358 -2.14892 -2.89575 0
M  V30 4387 O 418.462 -1.53512 -3.82763 0
M  V30 4388 H 417.803 -0.455236 -0.48338 0
M  V30 4389 H 420.333 -1.79024 -0.990539 0
M  V30 4390 H 420.343 -2.27139 -3.38928 0
M  V30 4391 H 419.018 -3.17998 -2.68049 0
M  V30 4392 H 417.595 -1.50153 -3.41334 0
M  V30 4393 N 419.78 1.02168 -1.19998 0
M  V30 4394 C 420.727 2.10601 -0.944228 0
M  V30 4395 C 421.697 1.65639 0.123664 0
M  V30 4396 O 422.882 1.9079 -0.0199941 0
M  V30 4397 C 420.022 3.41504 -0.496865 0
M  V30 4398 C 419.135 3.99973 -1.63234 0
M  V30 4399 C 418.27 5.18915 -1.13579 0
M  V30 4400 C 417.309 5.69456 -2.24468 0
M  V30 4401 N 416.446 6.79665 -1.76068 0
M  V30 4402 H 421.286 2.31814 -1.8726 0
M  V30 4403 H 418.823 1.13686 -0.933483 0
M  V30 4404 H 420.781 4.16626 -0.218843 0
M  V30 4405 H 419.411 3.2038 0.394508 0
M  V30 4406 H 418.463 3.21997 -2.0254 0
M  V30 4407 H 419.775 4.33492 -2.46752 0
M  V30 4408 H 418.929 6.01222 -0.813429 0
M  V30 4409 H 417.668 4.8695 -0.270434 0
M  V30 4410 H 416.673 4.85757 -2.57526 0
M  V30 4411 H 417.898 6.03459 -3.11472 0
M  V30 4412 H 415.844 6.49538 -0.918516 0
M  V30 4413 H 415.761 7.12349 -2.5317 0
M  V30 4414 H 417.029 7.65549 -1.46817 0
M  V30 4415 N 421.258 1.00505 1.21394 0
M  V30 4416 C 422.504 0.688793 1.90745 0
M  V30 4417 C 422.837 -0.778486 1.77914 0
M  V30 4418 O 422.112 -1.56433 1.15581 0
M  V30 4419 C 422.395 1.11063 3.42545 0
M  V30 4420 C 422.248 2.63737 3.64367 0
M  V30 4421 C 423.567 0.673059 4.34923 0
M  V30 4422 H 420.686 0.251702 0.692687 0
M  V30 4423 H 423.328 1.25074 1.43026 0
M  V30 4424 H 421.478 0.632508 3.83317 0
M  V30 4425 H 423.15 3.19313 3.32922 0
M  V30 4426 H 421.393 3.05248 3.08231 0
M  V30 4427 H 422.064 2.88305 4.70727 0
M  V30 4428 H 424.54 1.08392 4.01734 0
M  V30 4429 H 423.416 0.996383 5.39781 0
M  V30 4430 H 423.677 -0.425808 4.40045 0
M  V30 4431 N 422.737 -1.36956 0.779787 0
M  V30 4432 C 424.014 -1.93697 0.272156 0
M  V30 4433 C 424.394 -1.71267 -1.23413 0
M  V30 4434 O 423.742 -1.06607 -2.02107 0
M  V30 4435 C 423.952 -3.42812 0.654291 0
M  V30 4436 C 425.3 -4.19921 0.628602 0
M  V30 4437 O 426.324 -3.51209 0.594172 0
M  V30 4438 O 425.183 -5.42465 0.662864 0
M  V30 4439 H 422.277 -0.824447 0.0649286 0
M  V30 4440 H 424.823 -1.46196 0.861682 0
M  V30 4441 H 423.595 -3.52754 1.69353 0
M  V30 4442 H 423.218 -3.97582 0.0381369 0
M  V30 4443 N 424.215 -0.530993 -1.48385 0
M  V30 4444 C 425.631 -0.188919 -1.58478 0
M  V30 4445 C 425.831 1.30786 -1.53288 0
M  V30 4446 O 424.887 2.08619 -1.42248 0
M  V30 4447 C 426.2 -0.792343 -2.90073 0
M  V30 4448 C 427.748 -0.76117 -3.03604 0
M  V30 4449 C 428.223 -1.34319 -4.37861 0
M  V30 4450 N 429.714 -1.3052 -4.44431 0
M  V30 4451 C 430.449 -1.72543 -5.46824 0
M  V30 4452 N 429.945 -2.22299 -6.56167 0
M  V30 4453 N 431.738 -1.63773 -5.37712 0
M  V30 4454 H 423.889 -1.50377 -1.50002 0
M  V30 4455 H 426.152 -0.625559 -0.712306 0
M  V30 4456 H 425.858 -1.84323 -2.99529 0
M  V30 4457 H 425.732 -0.270026 -3.76232 0
M  V30 4458 H 428.119 0.280957 -2.93759 0
M  V30 4459 H 428.2 -1.32097 -2.19053 0
M  V30 4460 H 427.844 -2.38425 -4.4846 0
M  V30 4461 H 427.774 -0.759064 -5.21101 0
M  V30 4462 H 430.265 -0.940973 -3.65997 0
M  V30 4463 H 430.578 -2.52356 -7.30436 0
M  V30 4464 H 428.923 -2.26293 -6.57127 0
M  V30 4465 H 432.114 -1.24698 -4.51185 0
M  V30 4466 H 432.287 -1.96844 -6.17379 0
M  V30 4467 N 425.693 1.55336 -0.266172 0
M  V30 4468 C 426.918 2.04258 0.359661 0
M  V30 4469 C 427.343 1.14359 1.49344 0
M  V30 4470 O 426.701 0.140369 1.80756 0
M  V30 4471 C 426.749 3.50997 0.826635 0
M  V30 4472 O 425.853 3.64204 1.93466 0
M  V30 4473 H 425.194 0.659668 0.075727 0
M  V30 4474 H 427.724 2.00694 -0.39786 0
M  V30 4475 H 427.734 3.9219 1.12477 0
M  V30 4476 H 426.409 4.159 -0.00293032 0
M  V30 4477 H 424.986 3.34913 1.63974 0
M  V30 4478 N 427.171 -0.0066808 1.57599 0
M  V30 4479 C 428.134 -0.985035 2.06953 0
M  V30 4480 C 429.134 -1.27663 0.977687 0
M  V30 4481 O 430.324 -1.22293 1.24057 0
M  V30 4482 C 427.456 -2.3118 2.50536 0
M  V30 4483 H 428.649 -0.558255 2.94658 0
M  V30 4484 H 426.202 -0.254011 1.54222 0
M  V30 4485 H 426.937 -2.78561 1.66054 0
M  V30 4486 H 426.722 -2.11338 3.3027 0
M  V30 4487 H 428.212 -3.01377 2.8907 0
M  V30 4488 N 428.649 -1.55105 -0.279332 0
M  V30 4489 C 429.612 -1.86783 -1.32834 0
M  V30 4490 C 430.612 -0.74199 -1.42657 0
M  V30 4491 O 431.802 -1.0102 -1.41918 0
M  V30 4492 C 428.934 -2.06746 -2.71052 0
M  V30 4493 H 430.127 -2.8055 -1.05979 0
M  V30 4494 H 427.68 -1.47499 -0.517087 0
M  V30 4495 H 428.415 -1.15339 -3.03097 0
M  V30 4496 H 428.2 -2.88711 -2.65309 0
M  V30 4497 H 429.69 -2.32549 -3.46858 0
M  V30 4498 N 430.127 0.543554 -1.4793 0
M  V30 4499 C 431.357 1.32324 -1.58663 0
M  V30 4500 C 431.765 1.8766 -0.240896 0
M  V30 4501 O 431.108 1.66411 0.778011 0
M  V30 4502 C 431.17 2.52094 -2.56299 0
M  V30 4503 C 430.834 2.17944 -4.01683 0
M  V30 4504 C 431.831 1.74422 -4.89768 0
M  V30 4505 C 429.516 2.28884 -4.47121 0
M  V30 4506 C 431.51 1.42287 -6.21316 0
M  V30 4507 C 429.197 1.96361 -5.78693 0
M  V30 4508 C 430.195 1.53132 -6.65612 0
M  V30 4509 O 429.883 1.21029 -7.94737 0
M  V30 4510 H 429.615 0.409174 -0.538101 0
M  V30 4511 H 432.169 0.663887 -1.94375 0
M  V30 4512 H 430.399 3.20965 -2.15681 0
M  V30 4513 H 432.088 3.14165 -2.57012 0
M  V30 4514 H 432.854 1.65452 -4.55907 0
M  V30 4515 H 428.733 2.61488 -3.79664 0
M  V30 4516 H 432.277 1.08472 -6.89115 0
M  V30 4517 H 428.174 2.04967 -6.12094 0
M  V30 4518 H 428.942 1.34543 -8.07366 0
M  V30 4519 N 431.605 1.3629 0.791371 0
M  V30 4520 C 432.835 1.33368 1.57786 0
M  V30 4521 C 433.243 -0.0875188 1.88997 0
M  V30 4522 O 432.586 -1.05427 1.50435 0
M  V30 4523 C 432.648 2.08802 2.92646 0
M  V30 4524 C 432.312 3.57903 2.84174 0
M  V30 4525 C 433.309 4.52191 2.56553 0
M  V30 4526 C 430.994 4.00762 3.02812 0
M  V30 4527 C 432.988 5.87315 2.47669 0
M  V30 4528 C 430.675 5.35977 2.93551 0
M  V30 4529 C 431.673 6.29066 2.66017 0
M  V30 4530 O 431.361 7.61798 2.56746 0
M  V30 4531 H 431.093 0.459166 0.496128 0
M  V30 4532 H 433.647 1.79952 0.990269 0
M  V30 4533 H 431.877 1.56878 3.53449 0
M  V30 4534 H 433.566 1.98762 3.53904 0
M  V30 4535 H 434.332 4.20393 2.41858 0
M  V30 4536 H 430.211 3.2868 3.2325 0
M  V30 4537 H 433.755 6.59943 2.26099 0
M  V30 4538 H 429.652 5.67384 3.07808 0
M  V30 4539 H 430.42 7.71898 2.72242 0
M  V30 4540 N 433.083 -1.0153 1.20538 0
M  V30 4541 C 434.013 -2.11972 0.979295 0
M  V30 4542 C 434.994 -1.6985 -0.0921787 0
M  V30 4543 O 436.179 -1.94089 0.0655932 0
M  V30 4544 C 433.309 -3.43201 0.531984 0
M  V30 4545 C 432.263 -3.9907 1.54685 0
M  V30 4546 C 431.589 -5.26082 0.956127 0
M  V30 4547 C 432.889 -4.32313 2.93092 0
M  V30 4548 H 434.583 -2.31143 1.90298 0
M  V30 4549 H 432.129 -1.11079 0.916372 0
M  V30 4550 H 434.082 -4.1985 0.361044 0
M  V30 4551 H 432.806 -3.23792 -0.427327 0
M  V30 4552 H 431.465 -3.2453 1.70517 0
M  V30 4553 H 431.113 -5.02999 -0.0111538 0
M  V30 4554 H 430.813 -5.64426 1.63393 0
M  V30 4555 H 432.337 -6.05386 0.796284 0
M  V30 4556 H 433.751 -4.99845 2.80763 0
M  V30 4557 H 432.148 -4.81774 3.57791 0
M  V30 4558 H 433.218 -3.41025 3.44717 0
M  V30 4559 N 434.561 -1.01147 -1.20859 0
M  V30 4560 C 435.977 -0.725422 -1.42161 0
M  V30 4561 C 436.177 0.696919 -1.89064 0
M  V30 4562 O 435.233 1.46539 -2.05627 0
M  V30 4563 C 436.546 -1.74678 -2.44761 0
M  V30 4564 C 438.094 -1.76433 -2.58535 0
M  V30 4565 C 438.569 -2.77481 -3.64374 0
M  V30 4566 N 440.06 -2.76189 -3.71852 0
M  V30 4567 C 440.795 -3.51035 -4.53389 0
M  V30 4568 N 440.291 -4.35541 -5.38773 0
M  V30 4569 N 442.084 -3.39655 -4.47873 0
M  V30 4570 H 434.235 -1.92979 -0.887282 0
M  V30 4571 H 436.498 -0.833327 -0.451962 0
M  V30 4572 H 436.204 -2.76551 -2.17285 0
M  V30 4573 H 436.078 -1.55472 -3.43669 0
M  V30 4574 H 438.465 -0.75248 -2.85345 0
M  V30 4575 H 438.546 -1.99712 -1.5984 0
M  V30 4576 H 438.19 -3.78827 -3.38308 0
M  V30 4577 H 438.12 -2.51466 -4.6268 0
M  V30 4578 H 440.611 -2.14885 -3.10858 0
M  V30 4579 H 440.924 -4.89432 -5.98061 0
M  V30 4580 H 439.269 -4.39621 -5.38292 0
M  V30 4581 H 442.46 -2.73063 -3.80203 0
M  V30 4582 H 442.633 -3.9824 -5.11184 0
M  V30 4583 N 436.039 1.36541 -0.78704 0
M  V30 4584 C 437.286 1.99304 -0.358341 0
M  V30 4585 C 437.614 1.62467 1.06933 0
M  V30 4586 O 436.869 0.870019 1.75297 0
M  V30 4587 C 437.168 3.54343 -0.466485 0
M  V30 4588 C 436.834 4.10993 -1.85461 0
M  V30 4589 C 435.496 4.26177 -2.23443 0
M  V30 4590 C 437.848 4.41895 -2.76366 0
M  V30 4591 C 435.176 4.69573 -3.51736 0
M  V30 4592 C 437.528 4.86722 -4.04084 0
M  V30 4593 C 436.192 5.00112 -4.42091 0
M  V30 4594 H 435.462 0.729306 -0.131126 0
M  V30 4595 H 438.109 1.63068 -1.00404 0
M  V30 4596 H 436.414 3.90918 0.262719 0
M  V30 4597 H 438.111 4.00833 -0.115854 0
M  V30 4598 H 434.701 3.99612 -1.54946 0
M  V30 4599 H 438.885 4.29735 -2.48277 0
M  V30 4600 H 434.141 4.78127 -3.81057 0
M  V30 4601 H 438.315 5.09598 -4.7464 0
M  V30 4602 H 435.942 5.33498 -5.41557 0
M  V30 4603 N 437.518 0.538854 1.48102 0
M  V30 4604 C 438.767 0.0059532 2.01699 0
M  V30 4605 C 439.08 -1.34476 1.42041 0
M  V30 4606 O 440.286 -1.96653 1.87189 0
M  V30 4607 C 438.742 -0.0397627 3.59878 0
M  V30 4608 C 438.35 1.30659 4.28523 0
M  V30 4609 C 440.094 -0.521024 4.2129 0
M  V30 4610 C 438.001 1.22098 5.78659 0
M  V30 4611 H 436.931 -0.00154456 0.753998 0
M  V30 4612 H 439.582 0.683963 1.70277 0
M  V30 4613 H 437.964 -0.783037 3.88181 0
M  V30 4614 H 439.138 2.06613 4.11883 0
M  V30 4615 H 437.453 1.7243 3.79021 0
M  V30 4616 H 440.05 -0.603184 5.31287 0
M  V30 4617 H 440.393 -1.52885 3.8721 0
M  V30 4618 H 440.926 0.166834 3.9745 0
M  V30 4619 H 437.665 2.20424 6.17328 0
M  V30 4620 H 437.185 0.50295 5.97688 0
M  V30 4621 H 438.864 0.915345 6.40492 0
M  V30 4622 N 438.996 -1.55193 0.274407 0
M  V30 4623 C 439.959 -2.212 -0.600279 0
M  V30 4624 C 440.959 -1.18963 -1.08187 0
M  V30 4625 O 442.149 -1.43873 -0.982158 0
M  V30 4626 C 439.281 -2.87739 -1.82809 0
M  V30 4627 H 440.474 -2.9989 -0.0239682 0
M  V30 4628 H 438.027 -1.5628 0.0250192 0
M  V30 4629 H 438.762 -2.13058 -2.44493 0
M  V30 4630 H 438.547 -3.62658 -1.49069 0
M  V30 4631 H 440.037 -3.38171 -2.45011 0
M  V30 4632 N 440.474 -0.00167713 -1.576 0
M  V30 4633 C 441.421 0.989195 -2.08527 0
M  V30 4634 C 442.391 1.34031 -0.981065 0
M  V30 4635 O 443.576 1.43839 -1.2536 0
M  V30 4636 C 440.716 2.27537 -2.59463 0
M  V30 4637 C 439.829 1.98314 -3.83791 0
M  V30 4638 C 438.964 3.21025 -4.23222 0
M  V30 4639 C 438.003 2.87495 -5.40382 0
M  V30 4640 N 437.14 4.02749 -5.75098 0
M  V30 4641 H 441.98 0.547973 -2.92919 0
M  V30 4642 H 439.517 0.258917 -1.44803 0
M  V30 4643 H 441.475 3.02729 -2.87073 0
M  V30 4644 H 440.105 2.69325 -1.77943 0
M  V30 4645 H 439.157 1.13482 -3.63078 0
M  V30 4646 H 440.469 1.69601 -4.69081 0
M  V30 4647 H 439.623 4.04561 -4.52123 0
M  V30 4648 H 438.362 3.52877 -3.36644 0
M  V30 4649 H 437.367 2.02367 -5.11202 0
M  V30 4650 H 438.592 2.56889 -6.28637 0
M  V30 4651 H 436.538 4.34494 -4.91478 0
M  V30 4652 H 436.455 3.77566 -6.54966 0
M  V30 4653 H 437.723 4.87068 -6.08592 0
M  V30 4654 N 441.952 1.55251 0.271103 0
M  V30 4655 C 443.177 1.80306 1.02491 0
M  V30 4656 C 443.602 0.575457 1.79081 0
M  V30 4657 O 442.96 -0.474987 1.74967 0
M  V30 4658 C 443.008 3.02832 1.95768 0
M  V30 4659 O 442.112 2.78051 3.04568 0
M  V30 4660 H 441.453 0.595896 0.292923 0
M  V30 4661 H 443.983 2.02397 0.299436 0
M  V30 4662 H 443.993 3.31616 2.37686 0
M  V30 4663 H 442.668 3.9183 1.39434 0
M  V30 4664 H 441.245 2.60369 2.66951 0
M  V30 4665 N 443.43 -0.535701 1.48216 0
M  V30 4666 C 444.36 -1.65014 1.65204 0
M  V30 4667 C 445.341 -1.62554 0.501011 0
M  V30 4668 O 446.526 -1.7984 0.732886 0
M  V30 4669 C 443.656 -3.03616 1.68626 0
M  V30 4670 C 442.61 -3.20932 2.83172 0
M  V30 4671 C 441.936 -4.60537 2.71679 0
M  V30 4672 C 443.236 -3.04249 4.24535 0
M  V30 4673 H 444.93 -1.51053 2.58502 0
M  V30 4674 H 442.476 -0.725262 1.24402 0
M  V30 4675 H 444.429 -3.81446 1.79099 0
M  V30 4676 H 443.153 -3.18587 0.719026 0
M  V30 4677 H 441.812 -2.45517 2.72244 0
M  V30 4678 H 441.46 -4.72336 1.72937 0
M  V30 4679 H 441.16 -4.73069 3.48538 0
M  V30 4680 H 442.684 -5.40475 2.84112 0
M  V30 4681 H 444.098 -3.71877 4.36326 0
M  V30 4682 H 442.495 -3.28278 5.02348 0
M  V30 4683 H 443.565 -2.00739 4.41397 0
M  V30 4684 N 444.908 -1.36708 -0.784132 0
M  V30 4685 C 446.154 -1.31426 -1.54451 0
M  V30 4686 C 446.487 0.10476 -1.93917 0
M  V30 4687 O 445.762 1.05934 -1.6312 0
M  V30 4688 C 446.045 -2.24189 -2.818 0
M  V30 4689 C 445.898 -3.74813 -2.48667 0
M  V30 4690 C 447.217 -2.15626 -3.83658 0
M  V30 4691 H 444.336 -0.478739 -0.560337 0
M  V30 4692 H 446.978 -1.67305 -0.900498 0
M  V30 4693 H 445.128 -1.93722 -3.36755 0
M  V30 4694 H 446.8 -4.15823 -1.99722 0
M  V30 4695 H 445.043 -3.93989 -1.81535 0
M  V30 4696 H 445.714 -4.35138 -3.39646 0
M  V30 4697 H 448.19 -2.42456 -3.38163 0
M  V30 4698 H 447.066 -2.82694 -4.70506 0
M  V30 4699 H 447.327 -1.14522 -4.27009 0
M  V30 4700 N 446.386 1.0089 -1.21074 0
M  V30 4701 C 447.349 2.0775 -0.968129 0
M  V30 4702 C 448.349 1.6069 0.0593445 0
M  V30 4703 O 449.539 1.73293 -0.177525 0
M  V30 4704 C 446.671 3.37794 -0.459108 0
M  V30 4705 H 447.864 2.30707 -1.9161 0
M  V30 4706 H 445.417 1.17807 -1.02719 0
M  V30 4707 H 446.152 3.20516 0.49397 0
M  V30 4708 H 445.937 3.7328 -1.20019 0
M  V30 4709 H 447.427 4.16454 -0.309099 0
M  V30 4710 N 447.864 1.01787 1.20321 0
M  V30 4711 C 448.812 0.58254 2.25187 0
M  V30 4712 C 449.806 -0.379359 1.65098 0
M  V30 4713 O 451.012 -0.249142 1.78267 0
M  V30 4714 H 447.387 0.170078 0.732514 0
M  V30 4715 H 449.358 1.47788 2.59232 0
M  V30 4716 C 448.107 -0.0620885 3.47645 0
M  V30 4717 H 447.43 0.669069 3.94162 0
M  V30 4718 H 448.87 -0.329784 4.22716 0
M  V30 4719 C 447.329 -1.3053 3.10586 0
M  V30 4720 O 447.859 -2.39848 3.22236 0
M  V30 4721 N 446.065 -1.18988 2.65123 0
M  V30 4722 H 445.612 -0.300341 2.55843 0
M  V30 4723 H 445.57 -2.02267 2.40698 0
M  V30 4724 N 449.342 -1.36122 0.79427 0
M  V30 4725 C 450.289 -2.29982 0.194101 0
M  V30 4726 C 451.259 -1.52214 -0.664833 0
M  V30 4727 O 452.444 -1.80702 -0.612498 0
M  V30 4728 C 449.584 -3.38706 -0.661244 0
M  V30 4729 C 448.697 -4.31456 0.216766 0
M  V30 4730 C 447.832 -5.27265 -0.645411 0
M  V30 4731 C 446.871 -6.11653 0.233756 0
M  V30 4732 N 446.008 -6.99636 -0.587682 0
M  V30 4733 H 450.848 -2.80722 0.999965 0
M  V30 4734 H 448.385 -1.38172 0.504677 0
M  V30 4735 H 450.343 -4.00394 -1.17219 0
M  V30 4736 H 448.973 -2.89274 -1.43249 0
M  V30 4737 H 448.025 -3.7088 0.845724 0
M  V30 4738 H 449.337 -4.90724 0.893973 0
M  V30 4739 H 448.491 -5.94266 -1.22198 0
M  V30 4740 H 447.23 -4.68463 -1.35623 0
M  V30 4741 H 446.235 -5.4361 0.82269 0
M  V30 4742 H 447.46 -6.72531 0.942247 0
M  V30 4743 H 445.406 -6.43337 -1.2827 0
M  V30 4744 H 445.323 -7.55993 0.0317402 0
M  V30 4745 H 446.591 -7.71001 -1.14792 0
M  V30 4746 N 450.82 -0.546701 -1.47814 0
M  V30 4747 C 452.067 -0.0187407 -2.02491 0
M  V30 4748 C 452.395 1.32685 -1.42215 0
M  V30 4749 O 451.65 1.87413 -0.563454 0
M  V30 4750 C 451.949 0.134869 -3.57145 0
M  V30 4751 C 451.615 -1.13849 -4.3629 0
M  V30 4752 C 450.277 -1.48743 -4.57634 0
M  V30 4753 C 452.629 -1.98277 -4.82012 0
M  V30 4754 C 449.957 -2.67932 -5.21948 0
M  V30 4755 C 452.309 -3.16659 -5.4764 0
M  V30 4756 C 450.973 -3.51879 -5.67219 0
M  V30 4757 H 450.243 -0.0068577 -0.740968 0
M  V30 4758 H 452.89 -0.716097 -1.77607 0
M  V30 4759 H 451.195 0.915118 -3.80963 0
M  V30 4760 H 452.892 0.558556 -3.97091 0
M  V30 4761 H 449.482 -0.856767 -4.19949 0
M  V30 4762 H 453.666 -1.72628 -4.6531 0
M  V30 4763 H 448.922 -2.95401 -5.35302 0
M  V30 4764 H 453.096 -3.82374 -5.82033 0
M  V30 4765 H 450.723 -4.44331 -6.16825 0
M  V30 4766 N 452.299 1.55045 -0.282633 0
M  V30 4767 C 453.539 2.01668 0.333088 0
M  V30 4768 C 453.903 1.1667 1.52486 0
M  V30 4769 O 455.104 1.52907 2.21072 0
M  V30 4770 C 453.375 3.50509 0.698442 0
M  V30 4771 S 454.934 4.19112 1.29963 0
M  V30 4772 H 451.752 0.703468 0.103219 0
M  V30 4773 H 454.354 1.91233 -0.406222 0
M  V30 4774 H 453.058 4.10015 -0.177693 0
M  V30 4775 H 452.589 3.64943 1.46902 0
M  V30 4776 H 454.604 4.23362 2.58803 0
M  V30 4777 N 453.777 0.010035 1.57597 0
M  V30 4778 C 455.193 -0.346164 1.55801 0
M  V30 4779 C 455.393 -1.74144 1.01371 0
M  V30 4780 O 454.449 -2.43938 0.651968 0
M  V30 4781 C 455.762 -0.212216 2.9995 0
M  V30 4782 C 457.31 -0.286409 3.11687 0
M  V30 4783 C 457.785 -0.18147 4.5764 0
M  V30 4784 N 459.276 -0.239056 4.62583 0
M  V30 4785 C 460.011 -0.181351 5.73113 0
M  V30 4786 N 459.507 -0.073661 6.92761 0
M  V30 4787 N 461.3 -0.233949 5.61613 0
M  V30 4788 H 453.451 0.922657 1.91313 0
M  V30 4789 H 455.714 0.354595 0.879185 0
M  V30 4790 H 455.42 0.748169 3.4365 0
M  V30 4791 H 455.294 -0.990224 3.6397 0
M  V30 4792 H 457.681 -1.23724 2.67911 0
M  V30 4793 H 457.762 0.521645 2.50425 0
M  V30 4794 H 457.406 0.765863 5.02093 0
M  V30 4795 H 457.336 -1.00814 5.1686 0
M  V30 4796 H 459.827 -0.32321 3.76515 0
M  V30 4797 H 460.14 -0.0358003 7.72792 0
M  V30 4798 H 458.485 -0.0391461 6.94989 0
M  V30 4799 H 461.676 -0.316347 4.6703 0
M  V30 4800 H 461.849 -0.185514 6.47734 0
M  V30 4801 N 455.255 -1.55392 -0.262866 0
M  V30 4802 C 456.671 -1.47459 -0.610582 0
M  V30 4803 C 456.871 -0.697031 -1.8906 0
M  V30 4804 O 455.927 -0.219952 -2.5154 0
M  V30 4805 C 457.24 -2.91751 -0.728131 0
M  V30 4806 C 458.788 -3.02027 -0.821517 0
M  V30 4807 C 459.263 -4.47594 -0.97076 0
M  V30 4808 N 460.754 -4.51465 -1.03603 0
M  V30 4809 C 461.489 -5.61326 -1.17049 0
M  V30 4810 N 460.985 -6.81032 -1.2715 0
M  V30 4811 N 462.778 -5.49089 -1.20239 0
M  V30 4812 H 454.929 -2.04395 0.577632 0
M  V30 4813 H 457.192 -0.927287 0.197086 0
M  V30 4814 H 456.898 -3.51413 0.142132 0
M  V30 4815 H 456.772 -3.4134 -1.6052 0
M  V30 4816 H 459.159 -2.42456 -1.68224 0
M  V30 4817 H 459.24 -2.55674 0.0803688 0
M  V30 4818 H 458.884 -5.07771 -0.114655 0
M  V30 4819 H 458.814 -4.91613 -1.88745 0
M  V30 4820 H 461.305 -3.6524 -0.96996 0
M  V30 4821 H 461.618 -7.60511 -1.37271 0
M  V30 4822 H 459.963 -6.83824 -1.24136 0
M  V30 4823 H 463.154 -4.54507 -1.11985 0
M  V30 4824 H 463.327 -6.34749 -1.30373 0
M  V30 4825 N 456.733 0.527833 -1.48498 0
M  V30 4826 C 457.979 1.28545 -1.56857 0
M  V30 4827 C 458.312 1.92678 -0.242651 0
M  V30 4828 O 457.587 1.79394 0.751545 0
M  V30 4829 C 457.87 2.37314 -2.70839 0
M  V30 4830 C 457.723 1.77858 -4.13142 0
M  V30 4831 C 459.042 3.39068 -2.80573 0
M  V30 4832 H 456.161 0.466006 -0.570971 0
M  V30 4833 H 458.803 0.587784 -1.8068 0
M  V30 4834 H 456.953 2.96821 -2.50658 0
M  V30 4835 H 458.625 1.22385 -4.44769 0
M  V30 4836 H 456.868 1.08383 -4.20042 0
M  V30 4837 H 457.539 2.56624 -4.88721 0
M  V30 4838 H 460.015 2.89518 -2.98862 0
M  V30 4839 H 458.891 4.12566 -3.6205 0
M  V30 4840 H 459.152 3.9975 -1.88818 0
M  V30 4841 N 458.211 1.37122 0.776871 0
M  V30 4842 C 459.141 1.35164 1.90402 0
M  V30 4843 C 460.122 0.221069 1.68657 0
M  V30 4844 O 461.307 0.420642 1.8959 0
M  V30 4845 C 458.437 1.15274 3.27611 0
M  V30 4846 C 457.391 2.25289 3.63908 0
M  V30 4847 C 456.717 1.90527 4.99603 0
M  V30 4848 C 458.017 3.67446 3.71188 0
M  V30 4849 H 459.711 2.29482 1.92297 0
M  V30 4850 H 457.257 1.10465 0.923773 0
M  V30 4851 H 459.21 1.12536 4.06096 0
M  V30 4852 H 457.934 0.174102 3.26136 0
M  V30 4853 H 456.593 2.27174 2.87728 0
M  V30 4854 H 456.241 0.91206 4.94662 0
M  V30 4855 H 455.941 2.64193 5.24858 0
M  V30 4856 H 457.465 1.89367 5.80493 0
M  V30 4857 H 458.879 3.67719 4.39836 0
M  V30 4858 H 457.276 4.40123 4.07936 0
M  V30 4859 H 458.346 4.01443 2.71977 0
M  V30 4860 N 459.689 -1.00246 1.21608 0
M  V30 4861 C 460.935 -1.74319 1.03638 0
M  V30 4862 C 461.268 -1.89408 -0.428749 0
M  V30 4863 O 460.543 -1.43026 -1.3181 0
M  V30 4864 C 460.826 -3.15431 1.73711 0
M  V30 4865 C 460.679 -3.08049 3.27759 0
M  V30 4866 C 461.998 -4.14407 1.48173 0
M  V30 4867 H 459.117 -0.632741 0.377899 0
M  V30 4868 H 461.759 -1.16853 1.49818 0
M  V30 4869 H 459.909 -3.64493 1.34452 0
M  V30 4870 H 461.581 -2.66681 3.76403 0
M  V30 4871 H 459.824 -2.45088 3.57931 0
M  V30 4872 H 460.495 -4.07862 3.71958 0
M  V30 4873 H 462.971 -3.74061 1.82258 0
M  V30 4874 H 461.847 -5.11279 1.99713 0
M  V30 4875 H 462.108 -4.40174 0.412273 0
M  V30 4876 N 461.167 -1.02423 -1.1978 0
M  V30 4877 C 462.099 -0.559152 -2.22275 0
M  V30 4878 C 463.112 0.36251 -1.58713 0
M  V30 4879 O 464.301 0.159641 -1.77785 0
M  V30 4880 C 461.401 0.205094 -3.38279 0
M  V30 4881 C 460.574 -0.720361 -4.31427 0
M  V30 4882 C 459.633 -0.00234368 -5.262 0
M  V30 4883 O 458.659 -0.627378 -5.65732 0
M  V30 4884 N 459.861 1.26996 -5.66438 0
M  V30 4885 H 462.626 -1.44064 -2.62804 0
M  V30 4886 H 460.187 -0.902692 -1.34399 0
M  V30 4887 H 462.179 0.694868 -3.9869 0
M  V30 4888 H 460.749 0.987947 -2.96578 0
M  V30 4889 H 459.969 -1.39031 -3.68869 0
M  V30 4890 H 461.257 -1.3495 -4.90577 0
M  V30 4891 H 460.655 1.79858 -5.36347 0
M  V30 4892 H 459.212 1.70432 -6.29123 0
M  V30 4893 N 462.645 1.35699 -0.801477 0
M  V30 4894 C 463.608 2.28199 -0.213994 0
M  V30 4895 C 464.608 1.49359 0.595691 0
M  V30 4896 O 465.798 1.69186 0.414921 0
M  V30 4897 C 462.93 3.33587 0.702297 0
M  V30 4898 H 464.123 2.81666 -1.02976 0
M  V30 4899 H 461.676 1.45467 -0.571759 0
M  V30 4900 H 462.411 2.85297 1.54195 0
M  V30 4901 H 462.196 3.91906 0.123484 0
M  V30 4902 H 463.686 4.02638 1.10783 0
M  V30 4903 N 464.123 0.554532 1.47522 0
M  V30 4904 C 465.348 0.0322661 2.07375 0
M  V30 4905 C 465.773 -1.25079 1.40488 0
M  V30 4906 O 465.131 -1.74859 0.47896 0
M  V30 4907 C 465.179 -0.149397 3.6029 0
M  V30 4908 O 464.283 -1.21259 3.9417 0
M  V30 4909 H 463.624 0.0501228 0.662106 0
M  V30 4910 H 466.154 0.769452 1.8958 0
M  V30 4911 H 466.164 -0.364437 4.06369 0
M  V30 4912 H 464.839 0.787743 4.08372 0
M  V30 4913 H 463.416 -0.97825 3.5984 0
M  V30 4914 N 465.601 -1.54893 0.290851 0
M  V30 4915 C 466.831 -2.04047 -0.323818 0
M  V30 4916 C 467.239 -1.16809 -1.48837 0
M  V30 4917 O 466.582 -0.184145 -1.82775 0
M  V30 4918 C 466.644 -3.49248 -0.852395 0
M  V30 4919 C 466.308 -4.56623 0.185557 0
M  V30 4920 C 467.305 -5.09985 1.01053 0
M  V30 4921 C 464.99 -5.01252 0.324332 0
M  V30 4922 C 466.984 -6.06507 1.96031 0
M  V30 4923 C 464.671 -5.97596 1.27757 0
M  V30 4924 C 465.669 -6.50107 2.09405 0
M  V30 4925 O 465.357 -7.44565 3.03114 0
M  V30 4926 H 465.089 -0.671735 -0.0758129 0
M  V30 4927 H 467.643 -2.00947 0.425393 0
M  V30 4928 H 465.873 -3.49639 -1.65195 0
M  V30 4929 H 467.562 -3.81654 -1.38185 0
M  V30 4930 H 468.328 -4.76307 0.914129 0
M  V30 4931 H 464.207 -4.60015 -0.301213 0
M  V30 4932 H 467.751 -6.47418 2.598 0
M  V30 4933 H 463.648 -6.30691 1.37473 0
M  V30 4934 H 464.416 -7.62334 2.97976 0
M  V30 4935 N 467.08 -0.0183926 -1.57589 0
M  V30 4936 C 468.305 0.676634 -1.96052 0
M  V30 4937 C 468.73 1.6548 -0.894307 0
M  V30 4938 O 468.088 1.80712 0.145849 0
M  V30 4939 C 468.136 1.36872 -3.33614 0
M  V30 4940 O 467.24 2.48372 -3.29219 0
M  V30 4941 H 466.581 0.1786 -0.63953 0
M  V30 4942 H 469.111 -0.077056 -2.04455 0
M  V30 4943 H 469.121 1.72797 -3.69601 0
M  V30 4944 H 467.796 0.651636 -4.10763 0
M  V30 4945 H 466.373 2.14639 -3.04934 0
M  V30 4946 N 468.558 1.5553 0.254621 0
M  V30 4947 C 469.807 1.76202 0.981612 0
M  V30 4948 C 470.12 0.580883 1.86776 0
M  V30 4949 O 471.326 0.670448 2.63092 0
M  V30 4950 C 469.782 3.11921 1.79537 0
M  V30 4951 C 469.39 4.37659 0.956991 0
M  V30 4952 C 471.134 3.41936 2.51555 0
M  V30 4953 C 469.041 5.64411 1.76619 0
M  V30 4954 H 467.971 0.656841 0.370237 0
M  V30 4955 H 470.622 1.81969 0.236556 0
M  V30 4956 H 469.004 3.00241 2.58208 0
M  V30 4957 H 470.178 4.60307 0.21315 0
M  V30 4958 H 468.493 4.14922 0.350497 0
M  V30 4959 H 471.09 4.33849 3.12536 0
M  V30 4960 H 471.433 2.62905 3.22779 0
M  V30 4961 H 471.966 3.54797 1.799 0
M  V30 4962 H 468.705 6.46241 1.09783 0
M  V30 4963 H 468.225 5.45877 2.48551 0
M  V30 4964 H 469.904 6.03386 2.33527 0
M  V30 4965 N 470.036 -0.519951 1.48776 0
M  V30 4966 C 471.284 -1.2727 1.56993 0
M  V30 4967 C 471.605 -1.9339 0.25004 0
M  V30 4968 O 470.875 -1.81822 -0.729216 0
M  V30 4969 H 469.455 -0.472732 0.578389 0
M  V30 4970 H 472.117 -0.604234 1.85297 0
M  V30 4971 H 471.213 -2.04669 2.3562 0
M  V30 4972 N 471.514 -1.37532 -0.769588 0
M  V30 4973 C 472.763 -1.32183 -1.5235 0
M  V30 4974 C 473.076 0.0906555 -1.9539 0
M  V30 4975 O 474.282 0.266628 -2.70188 0
M  V30 4976 C 472.738 -2.32029 -2.75119 0
M  V30 4977 C 472.346 -3.78816 -2.3917 0
M  V30 4978 C 474.09 -2.35694 -3.53056 0
M  V30 4979 C 471.997 -4.70388 -3.58453 0
M  V30 4980 H 470.927 -0.491275 -0.571984 0
M  V30 4981 H 473.578 -1.63004 -0.842739 0
M  V30 4982 H 471.96 -1.94229 -3.45096 0
M  V30 4983 H 473.134 -4.25466 -1.76962 0
M  V30 4984 H 471.449 -3.78117 -1.74402 0
M  V30 4985 H 474.046 -3.01312 -4.41718 0
M  V30 4986 H 474.389 -1.37117 -3.93071 0
M  V30 4987 H 474.922 -2.72212 -2.90078 0
M  V30 4988 H 471.661 -5.70102 -3.23518 0
M  V30 4989 H 471.181 -4.28442 -4.19758 0
M  V30 4990 H 472.86 -4.87628 -4.25239 0
M  V30 4991 N 472.992 0.995999 -1.22138 0
M  V30 4992 C 473.955 2.06711 -0.990109 0
M  V30 4993 C 474.955 1.60744 0.0422978 0
M  V30 4994 O 476.145 1.73095 -0.195895 0
M  V30 4995 C 473.277 3.37288 -0.49491 0
M  V30 4996 H 474.47 2.28661 -1.94047 0
M  V30 4997 H 472.023 1.16711 -1.03963 0
M  V30 4998 H 472.758 3.21022 0.459948 0
M  V30 4999 H 472.543 3.71986 -1.23971 0
M  V30 5000 H 474.033 4.16103 -0.353253 0
M  V30 5001 N 474.47 1.03057 1.19235 0
M  V30 5002 C 475.418 0.606391 2.24557 0
M  V30 5003 C 476.412 -0.361826 1.65491 0
M  V30 5004 O 477.618 -0.23022 1.78522 0
M  V30 5005 H 473.993 0.177838 0.730669 0
M  V30 5006 H 475.964 1.50529 2.5765 0
M  V30 5007 C 474.713 -0.0252127 3.47691 0
M  V30 5008 H 474.036 0.710838 3.9343 0
M  V30 5009 H 475.476 -0.284931 4.23042 0
M  V30 5010 C 473.935 -1.27229 3.11953 0
M  V30 5011 O 474.465 -2.36416 3.24762 0
M  V30 5012 N 472.671 -1.16169 2.6637 0
M  V30 5013 H 472.218 -0.273189 2.56147 0
M  V30 5014 H 472.176 -1.99703 2.42829 0
M  V30 5015 N 475.948 -1.35272 0.808662 0
M  V30 5016 C 477.359 -1.81179 0.450688 0
M  V30 5017 C 477.71 -1.67143 -1.02751 0
M  V30 5018 O 476.835 -1.20325 -1.79864 0
M  V30 5019 C 477.43 -3.28943 0.811275 0
M  V30 5020 C 475.989 -3.72985 0.505871 0
M  V30 5021 C 475.136 -2.57229 1.03578 0
M  V30 5022 H 478.087 -1.2322 1.00012 0
M  V30 5023 H 478.108 -3.80342 0.109588 0
M  V30 5024 H 477.62 -3.39127 1.88718 0
M  V30 5025 H 475.721 -3.68349 -0.561209 0
M  V30 5026 H 475.834 -4.67677 1.03995 0
M  V30 5027 H 474.198 -2.50548 0.458005 0
M  V30 5028 H 474.981 -2.7019 2.11784 0
M  V30 5029 N 477.426 -0.562348 -1.47226 0
M  V30 5030 C 478.675 -0.038041 -2.01664 0
M  V30 5031 C 478.988 1.32199 -1.44162 0
M  V30 5032 O 480.194 1.9365 -1.90294 0
M  V30 5033 C 478.65 -0.0174958 -3.59896 0
M  V30 5034 C 478.258 -1.3746 -4.2639 0
M  V30 5035 C 480.002 0.453934 -4.22066 0
M  V30 5036 C 477.909 -1.31289 -5.76643 0
M  V30 5037 H 476.839 -0.0104511 -0.753928 0
M  V30 5038 H 479.49 -0.710966 -1.69167 0
M  V30 5039 H 477.872 0.721182 -3.89378 0
M  V30 5040 H 479.046 -2.1314 -4.08544 0
M  V30 5041 H 477.361 -1.78438 -3.7623 0
M  V30 5042 H 479.958 0.518584 -5.32179 0
M  V30 5043 H 480.301 1.46706 -3.89594 0
M  V30 5044 H 480.834 -0.230044 -3.97134 0
M  V30 5045 H 477.573 -2.30217 -6.13743 0
M  V30 5046 H 477.093 -0.597973 -5.96812 0
M  V30 5047 H 478.772 -1.01713 -6.38955 0
M  V30 5048 N 478.904 1.54736 -0.299062 0
M  V30 5049 C 480.129 2.04975 0.316254 0
M  V30 5050 C 480.554 1.17501 1.46885 0
M  V30 5051 O 479.912 0.178678 1.80417 0
M  V30 5052 C 479.96 3.52672 0.751997 0
M  V30 5053 O 479.064 3.68226 1.85697 0
M  V30 5054 H 478.405 0.661126 0.0617175 0
M  V30 5055 H 480.935 1.99805 -0.440341 0
M  V30 5056 H 480.945 3.94488 1.04133 0
M  V30 5057 H 479.62 4.158 -0.0911482 0
M  V30 5058 H 478.197 3.38316 1.56834 0
M  V30 5059 N 480.382 0.0267497 1.57577 0
M  V30 5060 C 481.312 -0.954308 2.13108 0
M  V30 5061 C 482.293 -1.34088 1.04663 0
M  V30 5062 O 483.478 -1.41992 1.32484 0
M  V30 5063 C 480.608 -2.23744 2.65624 0
M  V30 5064 C 479.562 -1.99168 3.78835 0
M  V30 5065 C 478.888 -3.33726 4.17769 0
M  V30 5066 C 480.188 -1.33277 5.0501 0
M  V30 5067 H 481.882 -0.491848 2.95332 0
M  V30 5068 H 479.428 -0.23514 1.42067 0
M  V30 5069 H 481.381 -2.92754 3.03106 0
M  V30 5070 H 480.105 -2.72151 1.80558 0
M  V30 5071 H 478.764 -1.32577 3.41788 0
M  V30 5072 H 478.412 -3.79888 3.29688 0
M  V30 5073 H 478.112 -3.18089 4.94058 0
M  V30 5074 H 479.636 -4.04008 4.57832 0
M  V30 5075 H 481.05 -1.92283 5.40093 0
M  V30 5076 H 479.447 -1.28045 5.8628 0
M  V30 5077 H 480.517 -0.305411 4.83937 0
M  V30 5078 N 481.861 -1.55662 -0.24637 0
M  V30 5079 C 482.809 -1.91186 -1.3248 0
M  V30 5080 C 483.803 -0.790996 -1.49799 0
M  V30 5081 O 485.009 -0.975617 -1.51267 0
M  V30 5082 H 481.384 -0.607207 -0.443626 0
M  V30 5083 H 483.355 -2.81221 -0.997853 0
M  V30 5084 C 482.104 -2.22349 -2.67313 0
M  V30 5085 H 481.427 -3.08097 -2.54786 0
M  V30 5086 H 482.867 -2.51107 -3.41645 0
M  V30 5087 C 481.326 -1.04001 -3.20446 0
M  V30 5088 O 481.856 -0.28828 -4.00664 0
M  V30 5089 N 480.062 -0.830494 -2.7848 0
M  V30 5090 H 479.609 -1.4435 -2.13356 0
M  V30 5091 H 479.567 -0.0403258 -3.14374 0
M  V30 5092 N 483.339 0.512053 -1.4905 0
M  V30 5093 C 484.585 1.26874 -1.58212 0
M  V30 5094 C 484.918 1.9241 -0.263073 0
M  V30 5095 O 484.193 1.80181 0.732476 0
M  V30 5096 C 484.476 2.34428 -2.73341 0
M  V30 5097 C 484.329 1.73466 -4.15006 0
M  V30 5098 C 485.648 3.36073 -2.84154 0
M  V30 5099 H 482.767 0.459924 -0.575881 0
M  V30 5100 H 485.409 0.568587 -1.81293 0
M  V30 5101 H 483.559 2.94146 -2.53792 0
M  V30 5102 H 485.231 1.17661 -4.46042 0
M  V30 5103 H 483.474 1.03921 -4.21168 0
M  V30 5104 H 484.145 2.51426 -4.91415 0
M  V30 5105 H 486.621 2.86332 -3.01916 0
M  V30 5106 H 485.497 4.08703 -3.66406 0
M  V30 5107 H 485.758 3.97725 -1.93048 0
M  V30 5108 N 484.817 1.37938 0.762283 0
M  V30 5109 C 485.765 1.34569 1.89721 0
M  V30 5110 C 486.759 0.232929 1.67791 0
M  V30 5111 O 487.965 0.401485 1.75465 0
M  V30 5112 H 484.34 0.419594 0.624055 0
M  V30 5113 H 486.311 2.30357 1.8968 0
M  V30 5114 C 485.06 1.17898 3.27101 0
M  V30 5115 H 484.383 2.02781 3.44558 0
M  V30 5116 H 485.823 1.19593 4.06784 0
M  V30 5117 C 484.282 -0.114728 3.36705 0
M  V30 5118 O 484.812 -1.0949 3.8649 0
M  V30 5119 N 483.018 -0.16863 2.9011 0
M  V30 5120 H 482.565 0.62967 2.49786 0
M  V30 5121 H 482.523 -1.03383 2.96916 0
M  V30 5122 N 486.295 -0.989507 1.22664 0
M  V30 5123 C 487.52 -1.77031 1.08051 0
M  V30 5124 C 487.945 -1.84535 -0.364483 0
M  V30 5125 O 487.303 -1.3003 -1.2634 0
M  V30 5126 C 487.351 -3.18 1.70024 0
M  V30 5127 O 486.455 -4.01161 0.956216 0
M  V30 5128 H 485.796 -0.545008 0.379292 0
M  V30 5129 H 488.326 -1.24277 1.62531 0
M  V30 5130 H 488.336 -3.68616 1.74888 0
M  V30 5131 H 487.011 -3.11853 2.75174 0
M  V30 5132 H 485.588 -3.59687 0.98384 0
M  V30 5133 N 487.773 -1.03688 -1.18687 0
M  V30 5134 C 489.003 -0.756819 -1.92239 0
M  V30 5135 C 489.411 0.689374 -1.76194 0
M  V30 5136 O 488.754 1.48126 -1.08648 0
M  V30 5137 C 488.816 -1.03851 -3.44173 0
M  V30 5138 C 488.48 -2.47785 -3.83994 0
M  V30 5139 C 489.477 -3.4595 -3.88091 0
M  V30 5140 C 487.162 -2.82397 -4.154 0
M  V30 5141 C 489.156 -4.76779 -4.23038 0
M  V30 5142 C 486.843 -4.13433 -4.50018 0
M  V30 5143 C 487.841 -5.10434 -4.53813 0
M  V30 5144 O 487.529 -6.39122 -4.87625 0
M  V30 5145 H 487.261 -0.275678 -0.617234 0
M  V30 5146 H 489.815 -1.38658 -1.51536 0
M  V30 5147 H 488.045 -0.351612 -3.85098 0
M  V30 5148 H 489.734 -0.746846 -3.9897 0
M  V30 5149 H 490.5 -3.20549 -3.63969 0
M  V30 5150 H 486.379 -2.07568 -4.11627 0
M  V30 5151 H 489.923 -5.52488 -4.25914 0
M  V30 5152 H 485.82 -4.38604 -4.736 0
M  V30 5153 H 486.588 -6.43715 -5.05542 0
M  V30 5154 N 489.251 1.34841 -0.815825 0
M  V30 5155 C 490.499 1.98107 -0.399744 0
M  V30 5156 C 490.82 1.65019 1.03894 0
M  V30 5157 O 490.09 0.937311 1.72021 0
M  V30 5158 H 488.67 0.732827 -0.144823 0
M  V30 5159 H 491.332 1.64599 -1.0437 0
M  V30 5160 H 490.428 3.07856 -0.512965 0
M  V30 5161 N 490.729 0.570148 1.46925 0
M  V30 5162 C 491.957 0.0561966 2.06824 0
M  V30 5163 C 492.372 -1.24326 1.42086 0
M  V30 5164 O 491.729 -1.74882 0.521794 0
M  V30 5165 C 491.78 -0.129517 3.61268 0
M  V30 5166 O 491.501 1.1185 4.23581 0
M  V30 5167 C 493.002 -0.679266 4.38065 0
M  V30 5168 H 490.222 0.0517261 0.669003 0
M  V30 5169 H 492.766 0.787243 1.8874 0
M  V30 5170 H 490.921 -0.810739 3.78822 0
M  V30 5171 H 491.335 0.924375 5.1629 0
M  V30 5172 H 492.809 -0.758445 5.46765 0
M  V30 5173 H 493.286 -1.69346 4.05239 0
M  V30 5174 H 493.892 -0.0333237 4.25287 0
M  V30 5175 N 492.207 -1.54576 0.307264 0
M  V30 5176 C 493.453 -2.0056 -0.300612 0
M  V30 5177 C 493.786 -1.1953 -1.53057 0
M  V30 5178 O 493.061 -0.27337 -1.92569 0
M  V30 5179 C 493.344 -3.54167 -0.650987 0
M  V30 5180 C 493.197 -4.45933 0.588539 0
M  V30 5181 C 494.516 -4.14645 -1.47506 0
M  V30 5182 H 491.635 -0.729075 -0.107788 0
M  V30 5183 H 494.277 -1.85286 0.420606 0
M  V30 5184 H 492.427 -3.67313 -1.26544 0
M  V30 5185 H 494.099 -4.44683 1.22697 0
M  V30 5186 H 492.342 -4.16274 1.22058 0
M  V30 5187 H 493.013 -5.51189 0.299153 0
M  V30 5188 H 495.489 -4.04973 -0.955821 0
M  V30 5189 H 494.365 -5.22269 -1.68899 0
M  V30 5190 H 494.626 -3.66921 -2.4662 0
M  V30 5191 N 493.685 -0.035106 -1.57561 0
M  V30 5192 C 494.91 0.655802 -1.96759 0
M  V30 5193 C 495.335 1.64523 -0.911809 0
M  V30 5194 O 494.693 1.80857 0.126673 0
M  V30 5195 C 494.741 1.33326 -3.35047 0
M  V30 5196 O 493.845 2.44866 -3.31835 0
M  V30 5197 H 493.186 0.171807 -0.641388 0
M  V30 5198 H 495.716 -0.0987369 -2.04362 0
M  V30 5199 H 495.726 1.68867 -3.71413 0
M  V30 5200 H 494.401 0.608033 -4.11431 0
M  V30 5201 H 492.978 2.11392 -3.07193 0
M  V30 5202 N 495.163 1.55791 0.238111 0
M  V30 5203 C 496.391 1.82098 0.982233 0
M  V30 5204 C 496.806 0.612025 1.78605 0
M  V30 5205 O 496.163 -0.419381 1.77616 0
M  V30 5206 C 496.214 3.0673 1.91309 0
M  V30 5207 O 495.935 4.2296 1.14179 0
M  V30 5208 C 497.436 3.45903 2.77248 0
M  V30 5209 H 494.656 0.605748 0.288635 0
M  V30 5210 H 497.2 2.02862 0.258341 0
M  V30 5211 H 495.355 2.87991 2.59114 0
M  V30 5212 H 495.769 4.93653 1.7722 0
M  V30 5213 H 497.243 4.36189 3.38295 0
M  V30 5214 H 497.72 2.66891 3.48806 0
M  V30 5215 H 498.326 3.67024 2.14881 0
M  V30 5216 N 496.642 -0.504142 1.49319 0
M  V30 5217 C 497.89 -1.25598 1.58334 0
M  V30 5218 C 498.211 -1.93114 0.270538 0
M  V30 5219 O 497.481 -1.82585 -0.709891 0
M  V30 5220 H 496.061 -0.466571 0.58337 0
M  V30 5221 H 498.723 -0.584547 1.85928 0
M  V30 5222 H 497.819 -2.02159 2.37778 0
M  V30 5223 N 498.12 -1.38341 -0.754957 0
M  V30 5224 C 499.35 -1.37504 -1.54195 0
M  V30 5225 C 499.758 0.0373787 -1.89163 0
M  V30 5226 O 499.101 1.01402 -1.53178 0
M  V30 5227 C 499.163 -2.16488 -2.87008 0
M  V30 5228 C 498.827 -3.65311 -2.74585 0
M  V30 5229 C 499.824 -4.58834 -2.44474 0
M  V30 5230 C 497.509 -4.08649 -2.9208 0
M  V30 5231 C 499.503 -5.93675 -2.32011 0
M  V30 5232 C 497.19 -5.43571 -2.79237 0
M  V30 5233 C 498.188 -6.35898 -2.49245 0
M  V30 5234 O 497.876 -7.68338 -2.36458 0
M  V30 5235 H 497.608 -0.472159 -0.483779 0
M  V30 5236 H 500.162 -1.82515 -0.94221 0
M  V30 5237 H 498.392 -1.66194 -3.49166 0
M  V30 5238 H 500.081 -2.08076 -3.4851 0
M  V30 5239 H 500.847 -4.26657 -2.30627 0
M  V30 5240 H 496.726 -3.37134 -3.14422 0
M  V30 5241 H 500.27 -6.65706 -2.08522 0
M  V30 5242 H 496.167 -5.75345 -2.92657 0
M  V30 5243 H 496.935 -7.78845 -2.5168 0
M  V30 5244 N 499.598 0.982988 -1.23187 0
M  V30 5245 C 500.826 1.75921 -1.08901 0
M  V30 5246 C 501.241 1.85341 0.359719 0
M  V30 5247 O 500.598 1.33072 1.24892 0
M  V30 5248 C 500.649 3.18742 -1.70545 0
M  V30 5249 O 500.37 3.09814 -3.09753 0
M  V30 5250 C 501.871 4.1277 -1.61667 0
M  V30 5251 H 499.091 0.552166 -0.381252 0
M  V30 5252 H 501.635 1.23516 -1.62985 0
M  V30 5253 H 499.79 3.68182 -1.20501 0
M  V30 5254 H 500.204 3.99703 -3.39614 0
M  V30 5255 H 501.678 5.10697 -2.09506 0
M  V30 5256 H 502.155 4.3542 -0.575009 0
M  V30 5257 H 502.761 3.69232 -2.11064 0
M  V30 5258 N 501.076 1.04316 1.18135 0
M  V30 5259 C 502.353 0.662166 1.84051 0
M  V30 5260 C 502.733 -0.858169 1.9287 0
M  V30 5261 O 502.081 -1.76062 1.45652 0
M  V30 5262 C 502.291 1.3409 3.22212 0
M  V30 5263 C 503.639 1.4733 3.9822 0
M  V30 5264 O 504.663 1.29921 3.31661 0
M  V30 5265 O 503.522 1.75722 5.17479 0
M  V30 5266 H 500.616 0.232005 0.79379 0
M  V30 5267 H 503.162 1.1422 1.25506 0
M  V30 5268 H 501.934 2.37853 3.10711 0
M  V30 5269 H 501.557 0.849649 3.88416 0
M  V30 5270 N 502.554 -1.34406 0.822964 0
M  V30 5271 C 503.784 -2.02214 0.423424 0
M  V30 5272 C 504.192 -1.62124 -0.975322 0
M  V30 5273 O 503.535 -0.822452 -1.6426 0
M  V30 5274 C 503.597 -3.56721 0.446107 0
M  V30 5275 C 503.261 -4.20136 1.79819 0
M  V30 5276 C 504.258 -4.4065 2.75904 0
M  V30 5277 C 501.943 -4.56906 2.08669 0
M  V30 5278 C 503.937 -4.9706 3.99012 0
M  V30 5279 C 501.624 -5.13026 3.32036 0
M  V30 5280 C 502.622 -5.33047 4.27024 0
M  V30 5281 O 502.31 -5.87979 5.48211 0
M  V30 5282 H 502.042 -0.654748 0.168169 0
M  V30 5283 H 504.596 -1.72659 1.11257 0
M  V30 5284 H 502.826 -3.85537 -0.299734 0
M  V30 5285 H 504.515 -4.05845 0.0666114 0
M  V30 5286 H 505.281 -4.12607 2.54912 0
M  V30 5287 H 501.16 -4.40626 1.35535 0
M  V30 5288 H 504.704 -5.12603 4.73164 0
M  V30 5289 H 500.601 -5.40498 3.52891 0
M  V30 5290 H 501.369 -6.06413 5.49732 0
M  V30 5291 N 504.032 -0.577932 -1.46621 0
M  V30 5292 C 505.309 0.00495287 -1.95599 0
M  V30 5293 C 505.689 1.46428 -1.5206 0
M  V30 5294 O 505.037 2.1517 -0.769046 0
M  V30 5295 C 505.247 -0.162114 -3.48623 0
M  V30 5296 C 506.595 -0.0274623 -4.24591 0
M  V30 5297 O 507.619 -0.0907067 -3.56084 0
M  V30 5298 O 506.478 0.1122 -5.46385 0
M  V30 5299 H 503.572 0.0525057 -0.825332 0
M  V30 5300 H 506.118 -0.645914 -1.56927 0
M  V30 5301 H 504.89 -1.17679 -3.73185 0
M  V30 5302 H 504.513 0.525407 -3.94113 0
M  V30 5303 N 505.51 1.54411 -0.315457 0
M  V30 5304 C 506.44 2.27002 0.547039 0
M  V30 5305 C 507.421 1.27492 1.12605 0
M  V30 5306 O 508.606 1.5629 1.15269 0
M  V30 5307 C 505.736 3.02171 1.71201 0
M  V30 5308 C 504.69 4.0895 1.26268 0
M  V30 5309 C 504.016 4.71915 2.51396 0
M  V30 5310 C 505.316 5.20891 0.383419 0
M  V30 5311 H 507.01 2.99343 -0.0584517 0
M  V30 5312 H 504.556 1.4397 -0.0295527 0
M  V30 5313 H 506.509 3.51681 2.32161 0
M  V30 5314 H 505.233 2.27433 2.34397 0
M  V30 5315 H 503.892 3.60312 0.676062 0
M  V30 5316 H 503.54 3.93801 3.12937 0
M  V30 5317 H 503.24 5.44039 2.22026 0
M  V30 5318 H 504.764 5.24195 3.13133 0
M  V30 5319 H 506.178 5.66206 0.899082 0
M  V30 5320 H 504.575 5.99821 0.182857 0
M  V30 5321 H 505.645 4.81324 -0.587821 0
M  V30 5322 N 506.988 0.0434614 1.5754 0
M  V30 5323 C 507.898 -0.94893 2.14552 0
M  V30 5324 C 508.914 -1.34707 1.10136 0
M  V30 5325 O 510.09 -1.42557 1.42266 0
M  V30 5326 C 507.155 -2.208 2.67298 0
M  V30 5327 C 506.216 -1.86893 3.86484 0
M  V30 5328 C 505.449 -3.06797 4.36705 0
M  V30 5329 O 505.672 -4.19921 3.86034 0
M  V30 5330 O 504.606 -2.8826 5.28384 0
M  V30 5331 H 508.432 -0.494099 2.99654 0
M  V30 5332 H 506.017 -0.177989 1.48336 0
M  V30 5333 H 507.899 -2.94686 3.01228 0
M  V30 5334 H 506.574 -2.65436 1.85272 0
M  V30 5335 H 505.481 -1.10347 3.57455 0
M  V30 5336 H 506.814 -1.47062 4.69716 0
M  V30 5337 N 508.466 -1.55915 -0.229846 0
M  V30 5338 C 509.398 -1.88209 -1.30805 0
M  V30 5339 C 510.411 -0.769672 -1.43457 0
M  V30 5340 O 511.6 -1.04792 -1.44502 0
M  V30 5341 C 508.7 -2.06829 -2.68468 0
M  V30 5342 C 507.873 -3.37798 -2.77869 0
M  V30 5343 C 506.932 -3.45952 -3.96489 0
M  V30 5344 O 505.958 -4.19043 -3.85216 0
M  V30 5345 N 507.16 -2.76488 -5.10426 0
M  V30 5346 H 509.925 -2.81286 -1.03431 0
M  V30 5347 H 507.486 -1.5636 -0.41991 0
M  V30 5348 H 509.478 -2.09608 -3.46189 0
M  V30 5349 H 508.048 -1.20416 -2.88477 0
M  V30 5350 H 507.268 -3.4719 -1.86689 0
M  V30 5351 H 508.556 -4.24091 -2.81113 0
M  V30 5352 H 507.954 -2.16868 -5.2248 0
M  V30 5353 H 506.511 -2.84938 -5.8622 0
M  V30 5354 N 509.944 0.496216 -1.49584 0
M  V30 5355 C 511.193 1.24668 -1.58558 0
M  V30 5356 C 511.506 1.9359 -0.279703 0
M  V30 5357 O 512.712 2.70365 -0.248048 0
M  V30 5358 C 511.168 2.26388 -2.79779 0
M  V30 5359 C 510.776 1.63384 -4.17145 0
M  V30 5360 C 512.52 3.02233 -2.98086 0
M  V30 5361 C 510.427 2.63243 -5.29582 0
M  V30 5362 H 509.357 0.468995 -0.590389 0
M  V30 5363 H 512.008 0.519985 -1.75978 0
M  V30 5364 H 510.39 3.02241 -2.55863 0
M  V30 5365 H 511.564 0.93491 -4.51216 0
M  V30 5366 H 509.879 0.999121 -4.04236 0
M  V30 5367 H 512.476 3.76919 -3.79257 0
M  V30 5368 H 512.819 3.60132 -2.08831 0
M  V30 5369 H 513.352 2.33495 -3.22063 0
M  V30 5370 H 510.091 2.10119 -6.20911 0
M  V30 5371 H 509.611 3.31363 -4.99959 0
M  V30 5372 H 511.29 3.25575 -5.59115 0
M  V30 5373 N 511.423 1.38739 0.74761 0
M  V30 5374 C 512.672 1.3459 1.50228 0
M  V30 5375 C 512.985 -0.0595592 1.95509 0
M  V30 5376 O 514.191 -0.22361 2.70578 0
M  V30 5377 C 512.647 2.36377 2.71393 0
M  V30 5378 C 512.255 3.82573 2.33113 0
M  V30 5379 C 513.999 2.41281 3.49262 0
M  V30 5380 C 511.906 4.76032 3.50924 0
M  V30 5381 H 510.836 0.500312 0.564096 0
M  V30 5382 H 513.487 1.64324 0.8167 0
M  V30 5383 H 511.869 1.99694 3.41962 0
M  V30 5384 H 513.043 4.28227 1.70171 0
M  V30 5385 H 511.358 3.80844 1.68365 0
M  V30 5386 H 513.955 3.08301 4.36869 0
M  V30 5387 H 514.298 1.43353 3.9084 0
M  V30 5388 H 514.831 2.76793 2.85711 0
M  V30 5389 H 511.57 5.75177 3.14408 0
M  V30 5390 H 511.09 4.35066 4.12889 0
M  V30 5391 H 512.769 4.94331 4.17427 0
M  V30 5392 N 512.901 -0.976442 1.23707 0
M  V30 5393 C 513.831 -2.08749 1.04624 0
M  V30 5394 C 514.812 -1.70057 -0.0380956 0
M  V30 5395 O 515.997 -1.93782 0.127308 0
M  V30 5396 C 513.127 -3.41335 0.640902 0
M  V30 5397 C 512.081 -3.93947 1.67302 0
M  V30 5398 C 511.407 -5.22774 1.12301 0
M  V30 5399 C 512.707 -4.22769 3.06697 0
M  V30 5400 H 514.401 -2.24972 1.97555 0
M  V30 5401 H 511.947 -1.08108 0.951247 0
M  V30 5402 H 513.9 -4.18489 0.494434 0
M  V30 5403 H 512.624 -3.24988 -0.324099 0
M  V30 5404 H 511.283 -3.18941 1.80755 0
M  V30 5405 H 510.931 -5.0278 0.148877 0
M  V30 5406 H 510.631 -5.58942 1.81267 0
M  V30 5407 H 512.155 -6.02546 0.988479 0
M  V30 5408 H 513.569 -4.90659 2.96524 0
M  V30 5409 H 511.966 -4.70147 3.72937 0
M  V30 5410 H 513.036 -3.29885 3.55392 0
M  V30 5411 N 514.379 -1.04941 -1.1758 0
M  V30 5412 C 515.795 -0.770282 -1.39781 0
M  V30 5413 C 515.995 0.636417 -1.91186 0
M  V30 5414 O 515.051 1.39923 -2.10185 0
M  V30 5415 C 516.364 -1.82376 -2.3908 0
M  V30 5416 C 517.912 -1.84569 -2.52791 0
M  V30 5417 C 518.387 -2.88933 -3.55361 0
M  V30 5418 N 519.878 -2.8788 -3.62877 0
M  V30 5419 C 520.613 -3.65282 -4.41992 0
M  V30 5420 N 520.109 -4.52461 -5.24643 0
M  V30 5421 N 521.902 -3.53732 -4.36841 0
M  V30 5422 H 514.053 -1.95705 -0.825438 0
M  V30 5423 H 516.316 -0.847284 -0.425222 0
M  V30 5424 H 516.022 -2.83323 -2.08376 0
M  V30 5425 H 515.896 -1.66327 -3.38549 0
M  V30 5426 H 518.283 -0.842879 -2.82807 0
M  V30 5427 H 518.364 -2.04696 -1.53406 0
M  V30 5428 H 518.008 -3.89398 -3.26085 0
M  V30 5429 H 517.938 -2.66059 -4.54445 0
M  V30 5430 H 520.429 -2.24666 -3.03864 0
M  V30 5431 H 520.742 -5.08211 -5.82187 0
M  V30 5432 H 519.087 -4.56524 -5.24033 0
M  V30 5433 H 522.278 -2.85021 -3.71323 0
M  V30 5434 H 522.451 -4.14302 -4.98255 0
M  V30 5435 N 515.857 1.33968 -0.830081 0
M  V30 5436 C 516.805 2.31301 -0.245435 0
M  V30 5437 C 517.799 1.57734 0.617762 0
M  V30 5438 O 519.005 1.72674 0.508303 0
M  V30 5439 H 515.38 0.749552 -0.0606316 0
M  V30 5440 H 517.351 2.78129 -1.08105 0
M  V30 5441 C 516.1 3.42961 0.572084 0
M  V30 5442 H 515.423 3.99714 -0.0828118 0
M  V30 5443 H 516.863 4.13286 0.94715 0
M  V30 5444 C 515.322 2.88043 1.74737 0
M  V30 5445 O 515.852 2.83508 2.8458 0
M  V30 5446 N 514.058 2.44768 1.56642 0
M  V30 5447 H 513.605 2.48656 0.672901 0
M  V30 5448 H 513.563 2.08375 2.3543 0
M  V30 5449 N 517.335 0.585699 1.46312 0
M  V30 5450 C 518.582 0.0724211 2.0237 0
M  V30 5451 C 518.91 -1.28868 1.45683 0
M  V30 5452 O 518.165 -1.85853 0.612945 0
M  V30 5453 C 518.464 -0.0401312 3.57377 0
M  V30 5454 C 518.13 1.25376 4.33119 0
M  V30 5455 C 516.792 1.60824 4.5353 0
M  V30 5456 C 519.144 2.10987 4.76586 0
M  V30 5457 C 516.472 2.81676 5.14661 0
M  V30 5458 C 518.824 3.31068 5.39052 0
M  V30 5459 C 517.488 3.66794 5.5769 0
M  V30 5460 H 516.758 0.0265007 0.740526 0
M  V30 5461 H 519.405 0.762935 1.75646 0
M  V30 5462 H 517.71 -0.813791 3.83255 0
M  V30 5463 H 519.407 -0.453078 3.98432 0
M  V30 5464 H 515.997 0.967808 4.1753 0
M  V30 5465 H 520.181 1.84904 4.60569 0
M  V30 5466 H 515.437 3.0949 5.27282 0
M  V30 5467 H 519.611 3.97672 5.71691 0
M  V30 5468 H 517.238 4.60529 6.04828 0
M  V30 5469 N 518.813 -1.54241 0.323641 0
M  V30 5470 C 520.09 -1.92741 -0.333181 0
M  V30 5471 C 520.47 -1.25326 -1.69872 0
M  V30 5472 O 519.818 -0.396991 -2.25025 0
M  V30 5473 C 520.028 -3.46399 -0.425322 0
M  V30 5474 C 521.376 -4.19029 -0.68557 0
M  V30 5475 O 522.4 -3.52555 -0.50824 0
M  V30 5476 O 521.259 -5.36751 -1.02767 0
M  V30 5477 H 518.353 -0.804811 -0.190286 0
M  V30 5478 H 520.899 -1.65542 0.373361 0
M  V30 5479 H 519.671 -3.87643 0.533737 0
M  V30 5480 H 519.294 -3.79704 -1.17944 0
M  V30 5481 N 520.291 -0.0518155 -1.57515 0
M  V30 5482 C 521.221 0.920283 -2.146 0
M  V30 5483 C 522.202 1.32406 -1.06783 0
M  V30 5484 O 523.387 1.39866 -1.34726 0
M  V30 5485 C 520.517 2.1949 -2.6915 0
M  V30 5486 C 519.471 1.93116 -3.81956 0
M  V30 5487 C 518.797 3.27037 -4.23026 0
M  V30 5488 C 520.097 1.25225 -5.07066 0
M  V30 5489 H 521.791 0.444801 -2.96077 0
M  V30 5490 H 519.337 0.212508 -1.42423 0
M  V30 5491 H 521.29 2.87894 -3.07725 0
M  V30 5492 H 520.014 2.69244 -1.84865 0
M  V30 5493 H 518.673 1.27123 -3.43854 0
M  V30 5494 H 518.321 3.74595 -3.3569 0
M  V30 5495 H 518.021 3.10189 -4.99056 0
M  V30 5496 H 519.545 3.96673 -4.64202 0
M  V30 5497 H 520.959 1.83666 -5.43083 0
M  V30 5498 H 519.356 1.18702 -5.88243 0
M  V30 5499 H 520.426 0.228382 -4.84362 0
M  V30 5500 N 521.769 1.56035 0.221574 0
M  V30 5501 C 523.185 1.49026 0.571271 0
M  V30 5502 C 523.385 0.746912 1.87146 0
M  V30 5503 O 522.441 0.286566 2.50869 0
M  V30 5504 C 523.754 2.93579 0.650522 0
M  V30 5505 C 525.302 3.04099 0.741151 0
M  V30 5506 C 525.777 4.5001 0.851747 0
M  V30 5507 N 527.268 4.54053 0.915968 0
M  V30 5508 C 528.003 5.64232 1.02125 0
M  V30 5509 N 527.499 6.84164 1.09049 0
M  V30 5510 N 529.292 5.52084 1.05639 0
M  V30 5511 H 521.443 2.02791 -0.63162 0
M  V30 5512 H 523.706 0.921736 -0.221602 0
M  V30 5513 H 523.412 3.50912 -0.235253 0
M  V30 5514 H 523.286 3.45476 1.51413 0
M  V30 5515 H 525.673 2.4683 1.61737 0
M  V30 5516 H 525.754 2.55371 -0.148128 0
M  V30 5517 H 525.398 5.07896 -0.0200117 0
M  V30 5518 H 525.328 4.96444 1.75644 0
M  V30 5519 H 527.819 3.67683 0.872782 0
M  V30 5520 H 528.132 7.63883 1.1706 0
M  V30 5521 H 526.477 6.86875 1.05962 0
M  V30 5522 H 529.668 4.57317 0.998953 0
M  V30 5523 H 529.841 6.37983 1.13498 0
M  V30 5524 N 523.247 -0.488276 1.49845 0
M  V30 5525 C 524.658 -1.06955 1.53028 0
M  V30 5526 C 525.009 -1.9351 0.323797 0
M  V30 5527 O 524.134 -2.08891 -0.565116 0
M  V30 5528 C 524.729 -1.94643 2.77307 0
M  V30 5529 C 523.288 -2.4791 2.83227 0
M  V30 5530 C 522.435 -1.25833 2.47106 0
M  V30 5531 H 525.386 -0.271626 1.56358 0
M  V30 5532 H 525.407 -2.79496 2.5819 0
M  V30 5533 H 524.919 -1.31621 3.65099 0
M  V30 5534 H 523.02 -3.14535 1.99745 0
M  V30 5535 H 523.133 -2.84193 3.85709 0
M  V30 5536 H 521.497 -1.58764 1.99163 0
M  V30 5537 H 522.28 -0.644993 3.37186 0
M  V30 5538 N 524.725 -1.39134 -0.740242 0
M  V30 5539 C 525.973 -1.35803 -1.49673 0
M  V30 5540 C 526.294 0.0470897 -1.94943 0
M  V30 5541 O 525.564 0.997347 -1.68611 0
M  V30 5542 H 524.144 -0.499736 -0.555224 0
M  V30 5543 H 526.806 -1.73947 -0.879107 0
M  V30 5544 H 525.902 -2.0174 -2.38133 0
M  V30 5545 N 526.204 0.969867 -1.24223 0
M  V30 5546 C 527.451 1.71256 -1.08063 0
M  V30 5547 C 527.779 1.90734 0.380872 0
M  V30 5548 O 527.034 1.46469 1.29789 0
M  V30 5549 C 527.333 3.10883 -1.76314 0
M  V30 5550 C 526.999 3.11252 -3.26241 0
M  V30 5551 C 525.661 3.1106 -3.67144 0
M  V30 5552 C 528.013 3.05751 -4.22097 0
M  V30 5553 C 525.341 3.03097 -5.02344 0
M  V30 5554 C 527.693 2.9933 -5.57301 0
M  V30 5555 C 526.357 2.97466 -5.97554 0
M  V30 5556 H 525.627 0.62667 -0.395431 0
M  V30 5557 H 528.274 1.13422 -1.54297 0
M  V30 5558 H 526.579 3.72168 -1.22468 0
M  V30 5559 H 528.276 3.67138 -1.61277 0
M  V30 5560 H 524.866 3.12165 -2.93685 0
M  V30 5561 H 529.05 3.05031 -3.91497 0
M  V30 5562 H 524.306 3.00013 -5.32731 0
M  V30 5563 H 528.48 2.94033 -6.31283 0
M  V30 5564 H 526.107 2.91051 -7.02277 0
M  V30 5565 N 527.682 1.05563 1.17022 0
M  V30 5566 C 528.931 0.763036 1.8671 0
M  V30 5567 C 529.244 -0.712857 1.82147 0
M  V30 5568 O 530.45 -1.11955 2.47343 0
M  V30 5569 C 528.906 1.31474 3.35026 0
M  V30 5570 C 528.514 2.82034 3.48081 0
M  V30 5571 C 530.258 1.09935 4.10018 0
M  V30 5572 C 528.165 3.30486 4.90442 0
M  V30 5573 H 527.095 0.281747 0.699382 0
M  V30 5574 H 529.746 1.2734 1.32124 0
M  V30 5575 H 528.128 0.732171 3.89173 0
M  V30 5576 H 529.302 3.46178 3.04133 0
M  V30 5577 H 527.617 3.02156 2.86515 0
M  V30 5578 H 530.214 1.43632 5.15048 0
M  V30 5579 H 530.557 0.0373072 4.16283 0
M  V30 5580 H 531.09 1.64732 3.62089 0
M  V30 5581 H 527.829 4.36137 4.89352 0
M  V30 5582 H 527.349 2.71086 5.35044 0
M  V30 5583 H 529.028 3.25382 5.59227 0
M  V30 5584 N 529.16 -1.33526 0.837174 0
M  V30 5585 C 530.409 -1.97098 0.428387 0
M  V30 5586 C 530.722 -1.67062 -1.01734 0
M  V30 5587 O 531.928 -2.24235 -1.53072 0
M  V30 5588 C 530.384 -3.52725 0.715075 0
M  V30 5589 C 529.992 -3.9164 2.17537 0
M  V30 5590 C 531.736 -4.22857 0.373154 0
M  V30 5591 C 529.643 -5.40237 2.40619 0
M  V30 5592 H 528.573 -0.737589 0.156455 0
M  V30 5593 H 531.224 -1.52169 1.02552 0
M  V30 5594 H 529.606 -3.95971 0.0475904 0
M  V30 5595 H 530.78 -3.59456 2.88319 0
M  V30 5596 H 529.095 -3.34485 2.4801 0
M  V30 5597 H 531.692 -5.32133 0.523264 0
M  V30 5598 H 532.035 -4.10647 -0.683708 0
M  V30 5599 H 532.568 -3.85135 0.995801 0
M  V30 5600 H 529.307 -5.57449 3.44864 0
M  V30 5601 H 528.827 -5.73887 1.74396 0
M  V30 5602 H 530.506 -6.07102 2.23688 0
M  V30 5603 N 530.638 -0.59345 -1.46 0
M  V30 5604 C 531.57 0.171569 -2.28557 0
M  V30 5605 C 532.583 0.845273 -1.39137 0
M  V30 5606 O 533.772 0.713033 -1.6364 0
M  V30 5607 C 530.872 1.26311 -3.14482 0
M  V30 5608 C 530.045 0.679258 -4.32094 0
M  V30 5609 C 529.104 1.65987 -4.99334 0
M  V30 5610 O 528.13 1.19171 -5.56585 0
M  V30 5611 N 529.332 2.99414 -4.97324 0
M  V30 5612 H 532.097 -0.536771 -2.94854 0
M  V30 5613 H 529.658 -0.431954 -1.56031 0
M  V30 5614 H 531.65 1.91863 -3.5633 0
M  V30 5615 H 530.22 1.87416 -2.50188 0
M  V30 5616 H 529.44 -0.153992 -3.93899 0
M  V30 5617 H 530.728 0.26916 -5.08088 0
M  V30 5618 H 530.126 3.40064 -4.52076 0
M  V30 5619 H 528.683 3.60426 -5.4308 0
M  V30 5620 N 532.116 1.54067 -0.331816 0
M  V30 5621 C 533.026 2.28322 0.539104 0
M  V30 5622 C 534.042 1.32985 1.1221 0
M  V30 5623 O 535.218 1.6601 1.1403 0
M  V30 5624 C 532.283 3.03277 1.68 0
M  V30 5625 C 531.344 4.14216 1.12798 0
M  V30 5626 C 530.577 4.85588 2.2145 0
M  V30 5627 O 530.8 4.56536 3.41952 0
M  V30 5628 O 529.734 5.72309 1.86404 0
M  V30 5629 H 533.56 3.03632 -0.0641692 0
M  V30 5630 H 531.145 1.49083 -0.0972365 0
M  V30 5631 H 533.027 3.50189 2.34405 0
M  V30 5632 H 531.702 2.30834 2.2693 0
M  V30 5633 H 530.609 3.71635 0.428782 0
M  V30 5634 H 531.942 4.88727 0.583698 0
M  V30 5635 N 533.594 0.0601682 1.57485 0
M  V30 5636 C 534.524 -0.90889 2.15085 0
M  V30 5637 C 535.505 -1.31838 1.07484 0
M  V30 5638 O 536.69 -1.3915 1.35466 0
M  V30 5639 C 533.82 -2.18059 2.7031 0
M  V30 5640 C 532.774 -1.91088 3.82974 0
M  V30 5641 C 532.1 -3.24789 4.24754 0
M  V30 5642 C 533.4 -1.22535 5.07723 0
M  V30 5643 H 535.094 -0.429093 2.96309 0
M  V30 5644 H 532.64 -0.204952 1.42534 0
M  V30 5645 H 534.593 -2.86258 3.09248 0
M  V30 5646 H 533.317 -2.6826 1.8629 0
M  V30 5647 H 531.976 -1.25297 3.44523 0
M  V30 5648 H 531.624 -3.72809 3.37672 0
M  V30 5649 H 531.324 -3.07538 5.00694 0
M  V30 5650 H 532.848 -3.94205 4.66299 0
M  V30 5651 H 534.262 -1.80783 5.4405 0
M  V30 5652 H 532.659 -1.1558 5.88864 0
M  V30 5653 H 533.729 -0.202692 4.84476 0
M  V30 5654 N 535.072 -1.5615 -0.213296 0
M  V30 5655 C 536.019 -1.93086 -1.26437 0
M  V30 5656 C 536.989 -0.789086 -1.4616 0
M  V30 5657 O 538.174 -1.04569 -1.59593 0
M  V30 5658 C 535.314 -2.26003 -2.608 0
M  V30 5659 C 534.427 -3.53156 -2.48807 0
M  V30 5660 C 533.562 -3.7548 -3.7575 0
M  V30 5661 C 532.601 -4.96119 -3.58514 0
M  V30 5662 N 531.738 -5.14791 -4.77425 0
M  V30 5663 H 536.578 -2.82707 -0.942376 0
M  V30 5664 H 534.115 -1.39919 -0.454001 0
M  V30 5665 H 536.073 -2.431 -3.39055 0
M  V30 5666 H 534.703 -1.39546 -2.91079 0
M  V30 5667 H 533.755 -3.44207 -1.61944 0
M  V30 5668 H 535.067 -4.41565 -2.31996 0
M  V30 5669 H 534.221 -3.92718 -4.62447 0
M  V30 5670 H 532.96 -2.85368 -3.95495 0
M  V30 5671 H 531.965 -4.78823 -2.70201 0
M  V30 5672 H 533.19 -5.87724 -3.40231 0
M  V30 5673 H 531.136 -4.27623 -4.97468 0
M  V30 5674 H 531.053 -5.97347 -4.63371 0
M  V30 5675 H 532.321 -5.36471 -5.65525 0
M  V30 5676 N 536.55 0.480323 -1.50102 0
M  V30 5677 C 537.48 1.58769 -1.71215 0
M  V30 5678 C 538.461 1.60583 -0.560997 0
M  V30 5679 O 539.646 1.76996 -0.799127 0
M  V30 5680 C 536.776 2.97148 -1.79778 0
M  V30 5681 C 535.73 3.10201 -2.94888 0
M  V30 5682 C 535.056 4.50137 -2.88584 0
M  V30 5683 C 536.356 2.88283 -4.35534 0
M  V30 5684 H 538.05 1.41354 -2.6393 0
M  V30 5685 H 535.596 0.678591 -1.27008 0
M  V30 5686 H 537.549 3.74536 -1.93133 0
M  V30 5687 H 536.273 3.15699 -0.836772 0
M  V30 5688 H 534.932 2.35244 -2.81169 0
M  V30 5689 H 534.58 4.65593 -1.90349 0
M  V30 5690 H 534.28 4.59808 -3.65856 0
M  V30 5691 H 535.804 5.29558 -3.03976 0
M  V30 5692 H 537.218 3.55427 -4.49827 0
M  V30 5693 H 535.615 3.09408 -5.14186 0
M  V30 5694 H 536.685 1.84219 -4.48544 0
M  V30 5695 N 538.028 1.39524 0.732853 0
M  V30 5696 C 539.256 1.40143 1.52209 0
M  V30 5697 C 539.671 -0.00348836 1.888 0
M  V30 5698 O 539.028 -0.975357 1.5425 0
M  V30 5699 C 539.079 2.27632 2.8083 0
M  V30 5700 O 538.8 3.62654 2.45792 0
M  V30 5701 C 540.301 2.36658 3.74844 0
M  V30 5702 H 537.521 0.478604 0.470297 0
M  V30 5703 H 540.065 1.83366 0.905388 0
M  V30 5704 H 538.22 1.87818 3.38826 0
M  V30 5705 H 538.634 4.08941 3.28431 0
M  V30 5706 H 540.108 3.02118 4.61984 0
M  V30 5707 H 540.585 1.38638 4.16745 0
M  V30 5708 H 541.191 2.76951 3.22766 0
M  V30 5709 N 539.506 -0.963266 1.24736 0
M  V30 5710 C 540.416 -2.09246 1.06082 0
M  V30 5711 C 541.432 -1.74 0.000363101 0
M  V30 5712 O 542.608 -2.0041 0.199479 0
M  V30 5713 C 539.673 -3.40115 0.672498 0
M  V30 5714 C 538.734 -3.89282 1.80993 0
M  V30 5715 C 537.967 -5.13905 1.44004 0
M  V30 5716 O 538.19 -5.69434 0.331835 0
M  V30 5717 O 537.124 -5.57566 2.26723 0
M  V30 5718 H 540.95 -2.27881 2.00759 0
M  V30 5719 H 538.535 -1.07649 1.03595 0
M  V30 5720 H 540.417 -4.18797 0.467668 0
M  V30 5721 H 539.092 -3.22771 -0.245102 0
M  V30 5722 H 537.999 -3.11642 2.06955 0
M  V30 5723 H 539.332 -4.1111 2.70646 0
M  V30 5724 N 540.985 -1.06182 -1.16461 0
M  V30 5725 C 542.396 -0.802426 -1.68576 0
M  V30 5726 C 542.747 0.67412 -1.84255 0
M  V30 5727 O 541.872 1.52303 -1.5373 0
M  V30 5728 C 542.467 -1.45002 -3.06202 0
M  V30 5729 C 541.026 -1.23843 -3.55443 0
M  V30 5730 C 540.173 -1.52724 -2.31454 0
M  V30 5731 H 543.124 -1.22545 -1.00839 0
M  V30 5732 H 543.145 -0.864731 -3.70544 0
M  V30 5733 H 542.657 -2.52466 -2.94759 0
M  V30 5734 H 540.758 -0.183487 -3.72148 0
M  V30 5735 H 540.871 -1.95036 -4.37604 0
M  V30 5736 H 539.235 -0.947726 -2.36411 0
M  V30 5737 H 540.018 -2.61343 -2.22609 0
M  V30 5738 N 542.463 1.3308 -0.844243 0
M  V30 5739 C 543.709 1.97898 -0.443206 0
M  V30 5740 C 544.042 1.66699 0.99625 0
M  V30 5741 O 543.317 0.949704 1.69738 0
M  V30 5742 C 543.6 3.53801 -0.670606 0
M  V30 5743 C 543.453 3.94667 -2.15772 0
M  V30 5744 C 544.772 4.39936 -0.120226 0
M  V30 5745 H 541.891 0.718861 -0.162504 0
M  V30 5746 H 544.533 1.57633 -1.06075 0
M  V30 5747 H 542.683 3.88229 -0.14496 0
M  V30 5748 H 544.355 3.70469 -2.74865 0
M  V30 5749 H 542.598 3.44203 -2.6402 0
M  V30 5750 H 543.269 5.03275 -2.26757 0
M  V30 5751 H 545.745 4.12183 -0.5696 0
M  V30 5752 H 544.621 5.4803 -0.308984 0
M  V30 5753 H 544.882 4.31184 0.976347 0
M  V30 5754 N 543.941 0.601185 1.45683 0
M  V30 5755 C 545.188 0.0938811 2.02282 0
M  V30 5756 C 545.516 -1.27315 1.47041 0
M  V30 5757 O 544.771 -1.85193 0.632623 0
M  V30 5758 C 545.07 -0.00222425 3.574 0
M  V30 5759 C 544.736 1.29963 4.31764 0
M  V30 5760 C 543.398 1.65625 4.51798 0
M  V30 5761 C 545.75 2.1603 4.74321 0
M  V30 5762 C 543.078 2.87119 5.11644 0
M  V30 5763 C 545.43 3.36766 5.3551 0
M  V30 5764 C 544.094 3.72689 5.53768 0
M  V30 5765 H 543.364 0.0343535 0.740203 0
M  V30 5766 H 546.011 0.781522 1.74827 0
M  V30 5767 H 544.316 -0.773096 3.84097 0
M  V30 5768 H 546.013 -0.410794 3.9889 0
M  V30 5769 H 542.603 1.01204 4.1648 0
M  V30 5770 H 546.787 1.89778 4.58582 0
M  V30 5771 H 542.043 3.15065 5.2397 0
M  V30 5772 H 546.217 4.03713 5.67441 0
M  V30 5773 H 543.844 4.66918 5.99909 0
M  V30 5774 N 545.419 -1.53889 0.339982 0
M  V30 5775 C 546.644 -2.05741 -0.261798 0
M  V30 5776 C 547.069 -1.21354 -1.43718 0
M  V30 5777 O 546.427 -0.22645 -1.7988 0
M  V30 5778 C 546.475 -3.54542 -0.658228 0
M  V30 5779 O 545.579 -3.7302 -1.75869 0
M  V30 5780 H 544.92 -0.662529 -0.0441672 0
M  V30 5781 H 547.45 -1.98568 0.493161 0
M  V30 5782 H 547.46 -3.9711 -0.936368 0
M  V30 5783 H 546.135 -4.15412 0.201358 0
M  V30 5784 H 544.712 -3.42355 -1.47809 0
M  V30 5785 N 546.897 -0.0685191 -1.57451 0
M  V30 5786 C 547.844 0.899861 -2.12535 0
M  V30 5787 C 548.814 1.29749 -1.03703 0
M  V30 5788 O 549.999 1.38392 -1.31348 0
M  V30 5789 C 547.139 2.16328 -2.6888 0
M  V30 5790 C 546.252 1.81857 -3.91857 0
M  V30 5791 C 545.387 3.02786 -4.36457 0
M  V30 5792 C 544.426 2.64317 -5.5209 0
M  V30 5793 N 543.563 3.77994 -5.91663 0
M  V30 5794 H 548.403 0.423243 -2.94979 0
M  V30 5795 H 545.94 0.197268 -1.45771 0
M  V30 5796 H 547.898 2.90281 -2.99655 0
M  V30 5797 H 546.528 2.61536 -1.89206 0
M  V30 5798 H 545.58 0.979808 -3.67565 0
M  V30 5799 H 546.892 1.49553 -4.75852 0
M  V30 5800 H 546.046 3.85021 -4.68875 0
M  V30 5801 H 544.785 3.38281 -3.51308 0
M  V30 5802 H 543.79 1.80503 -5.19325 0
M  V30 5803 H 545.015 2.29995 -6.38967 0
M  V30 5804 H 542.961 4.13258 -5.09464 0
M  V30 5805 H 542.878 3.49447 -6.7039 0
M  V30 5806 H 544.146 4.60818 -6.28703 0
M  V30 5807 N 548.375 1.56261 0.205012 0
M  V30 5808 C 549.603 1.84141 0.943386 0
M  V30 5809 C 550.018 0.649772 1.77266 0
M  V30 5810 O 549.375 -0.381612 1.78466 0
M  V30 5811 C 549.426 3.10719 1.84759 0
M  V30 5812 O 549.147 4.25286 1.05181 0
M  V30 5813 C 550.648 3.51706 2.69848 0
M  V30 5814 H 547.868 0.611734 0.275721 0
M  V30 5815 H 550.412 2.03364 0.215253 0
M  V30 5816 H 548.567 2.93422 2.52947 0
M  V30 5817 H 548.981 4.97301 1.66709 0
M  V30 5818 H 550.455 4.43266 3.28967 0
M  V30 5819 H 550.932 2.7423 3.43067 0
M  V30 5820 H 551.538 3.71499 2.07047 0
M  V30 5821 N 549.853 -0.472356 1.50355 0
M  V30 5822 C 551.078 -1.25251 1.65309 0
M  V30 5823 C 551.503 -1.85081 0.335643 0
M  V30 5824 O 550.861 -1.67227 -0.700335 0
M  V30 5825 C 550.909 -2.3379 2.74544 0
M  V30 5826 O 550.013 -3.38401 2.35709 0
M  V30 5827 H 549.354 -0.368539 0.552336 0
M  V30 5828 H 551.884 -0.562271 1.96722 0
M  V30 5829 H 551.894 -2.79121 2.97583 0
M  V30 5830 H 550.569 -1.89614 3.70161 0
M  V30 5831 H 549.146 -2.9879 2.23112 0
M  V30 5832 N 551.331 -1.39911 -0.725443 0
M  V30 5833 C 552.294 -1.39156 -1.82121 0
M  V30 5834 C 553.294 -0.287018 -1.58218 0
M  V30 5835 O 554.484 -0.545421 -1.65441 0
M  V30 5836 C 551.616 -1.1736 -3.20062 0
M  V30 5837 H 552.809 -2.36672 -1.84191 0
M  V30 5838 H 550.362 -1.25615 -0.930079 0
M  V30 5839 H 551.097 -0.205648 -3.23647 0
M  V30 5840 H 550.882 -1.97358 -3.3881 0
M  V30 5841 H 552.372 -1.19596 -4.00108 0
M  V30 5842 N 552.809 0.956637 -1.25245 0
M  V30 5843 C 554.039 1.7332 -1.12445 0
M  V30 5844 C 554.447 1.86392 0.324732 0
M  V30 5845 O 553.79 1.35967 1.23526 0
M  V30 5846 C 553.852 3.16603 -1.70303 0
M  V30 5847 C 553.516 3.26966 -3.19284 0
M  V30 5848 C 554.513 3.11434 -4.16299 0
M  V30 5849 C 552.198 3.50851 -3.59456 0
M  V30 5850 C 554.192 3.1963 -5.51467 0
M  V30 5851 C 551.879 3.58684 -4.94761 0
M  V30 5852 C 552.877 3.43087 -5.90576 0
M  V30 5853 O 552.565 3.50598 -7.2342 0
M  V30 5854 H 552.297 0.549981 -0.393061 0
M  V30 5855 H 554.851 1.20892 -1.66055 0
M  V30 5856 H 553.081 3.70385 -1.11138 0
M  V30 5857 H 554.77 3.76109 -1.52632 0
M  V30 5858 H 555.536 2.92853 -3.86604 0
M  V30 5859 H 551.415 3.62053 -2.85375 0
M  V30 5860 H 554.959 3.07373 -6.26233 0
M  V30 5861 H 550.856 3.76782 -5.24124 0
M  V30 5862 H 551.624 3.67242 -7.31489 0
M  V30 5863 N 554.287 1.06798 1.15896 0
M  V30 5864 C 555.535 0.786211 1.8618 0
M  V30 5865 C 555.856 -0.689547 1.82401 0
M  V30 5866 O 555.126 -1.49913 1.26107 0
M  V30 5867 H 553.706 0.287843 0.689315 0
M  V30 5868 H 556.368 1.35055 1.40521 0
M  V30 5869 H 555.464 1.1157 2.91477 0
M  V30 5870 N 555.766 -1.3263 0.851289 0
M  V30 5871 C 556.716 -2.26451 0.265302 0
M  V30 5872 C 557.7 -1.49814 -0.586899 0
M  V30 5873 O 558.892 -1.71525 -0.436834 0
M  V30 5874 C 556.021 -3.38895 -0.548212 0
M  V30 5875 C 555.107 -4.2292 0.316189 0
M  V30 5876 N 555.498 -4.86014 1.40084 0
M  V30 5877 C 553.796 -4.45876 0.105356 0
M  V30 5878 C 554.497 -5.48667 1.93235 0
M  V30 5879 N 553.473 -5.29455 1.232 0
M  V30 5880 H 557.275 -2.72757 1.09457 0
M  V30 5881 H 554.789 -1.4668 0.697047 0
M  V30 5882 H 556.786 -4.05111 -0.984402 0
M  V30 5883 H 555.446 -2.94135 -1.37531 0
M  V30 5884 H 556.457 -4.86212 1.78377 0
M  V30 5885 H 553.134 -4.11804 -0.687299 0
M  V30 5886 H 554.524 -6.08865 2.84135 0
M  V30 5887 N 557.244 -0.608902 -1.45362 0
M  V30 5888 C 558.491 -0.104607 -2.0223 0
M  V30 5889 C 558.819 1.26534 -1.47714 0
M  V30 5890 O 558.074 1.84855 -0.642435 0
M  V30 5891 C 558.373 -0.0167296 -3.57396 0
M  V30 5892 C 558.039 -1.32251 -4.31069 0
M  V30 5893 C 556.701 -1.68019 -4.50914 0
M  V30 5894 C 559.053 -2.18542 -4.73169 0
M  V30 5895 C 556.381 -2.89828 -5.10114 0
M  V30 5896 C 558.733 -3.39602 -5.33717 0
M  V30 5897 C 557.397 -3.7562 -5.51784 0
M  V30 5898 H 556.667 -0.0382785 -0.740011 0
M  V30 5899 H 559.314 -0.790782 -1.7441 0
M  V30 5900 H 557.619 0.752715 -3.84502 0
M  V30 5901 H 559.316 0.389634 -3.99103 0
M  V30 5902 H 555.906 -1.03411 -4.15938 0
M  V30 5903 H 560.09 -1.92208 -4.5757 0
M  V30 5904 H 555.346 -3.17839 -5.22291 0
M  V30 5905 H 559.52 -4.06716 -5.65292 0
M  V30 5906 H 557.147 -4.70093 -5.97425 0
M  V30 5907 N 558.722 1.53707 -0.348139 0
M  V30 5908 C 559.97 2.00591 0.246478 0
M  V30 5909 C 560.291 1.23753 1.50699 0
M  V30 5910 O 559.561 0.345964 1.92821 0
M  V30 5911 H 558.141 0.741053 0.0940679 0
M  V30 5912 H 560.803 1.89139 -0.470354 0
M  V30 5913 H 559.899 3.08297 0.485714 0
M  V30 5914 N 560.2 0.0768682 1.57412 0
M  V30 5915 C 561.616 -0.279772 1.57129 0
M  V30 5916 C 561.816 -1.69688 1.08666 0
M  V30 5917 O 560.872 -2.40953 0.754843 0
M  V30 5918 C 562.185 -0.0848055 3.0058 0
M  V30 5919 C 563.733 -0.153954 3.12621 0
M  V30 5920 C 564.208 0.0127946 4.57998 0
M  V30 5921 N 565.699 -0.0426435 4.6318 0
M  V30 5922 C 566.434 0.0618892 5.73367 0
M  V30 5923 N 565.93 0.220229 6.9245 0
M  V30 5924 N 567.723 0.00446072 5.621 0
M  V30 5925 H 559.874 1.00297 1.87228 0
M  V30 5926 H 562.137 0.391565 0.863354 0
M  V30 5927 H 561.843 0.89325 3.40168 0
M  V30 5928 H 561.717 -0.834961 3.67843 0
M  V30 5929 H 564.104 -1.1225 2.72917 0
M  V30 5930 H 564.185 0.627389 2.47987 0
M  V30 5931 H 563.829 0.978128 4.98392 0
M  V30 5932 H 563.759 -0.788016 5.20671 0
M  V30 5933 H 566.25 -0.163226 3.77547 0
M  V30 5934 H 566.563 0.291999 7.72248 0
M  V30 5935 H 564.908 0.255658 6.9453 0
M  V30 5936 H 568.099 -0.117979 4.67951 0
M  V30 5937 H 568.272 0.0893796 6.47938 0
M  V30 5938 N 561.678 -1.56367 -0.196722 0
M  V30 5939 C 562.588 -1.97617 -1.2643 0
M  V30 5940 C 563.604 -0.883598 -1.49895 0
M  V30 5941 O 564.78 -1.18921 -1.62541 0
M  V30 5942 C 561.845 -2.30595 -2.58895 0
M  V30 5943 C 560.906 -3.53551 -2.43516 0
M  V30 5944 C 560.139 -3.84946 -3.69665 0
M  V30 5945 O 560.362 -3.17655 -4.73763 0
M  V30 5946 O 559.296 -4.78379 -3.65291 0
M  V30 5947 H 563.122 -2.88648 -0.944233 0
M  V30 5948 H 560.707 -1.43901 -0.401592 0
M  V30 5949 H 562.589 -2.52889 -3.37083 0
M  V30 5950 H 561.264 -1.42732 -2.90533 0
M  V30 5951 H 560.171 -3.36507 -1.63445 0
M  V30 5952 H 561.504 -4.41875 -2.16812 0
M  V30 5953 N 563.156 0.464375 -1.50603 0
M  V30 5954 C 564.404 1.21356 -1.61608 0
M  V30 5955 C 564.725 1.92329 -0.321643 0
M  V30 5956 O 563.995 1.84403 0.661232 0
M  V30 5957 H 562.575 0.45094 -0.595535 0
M  V30 5958 H 565.237 0.535046 -1.87412 0
M  V30 5959 H 564.333 1.95783 -2.43054 0
M  V30 5960 N 564.634 1.40294 0.718013 0
M  V30 5961 C 565.911 1.2894 1.47084 0
M  V30 5962 C 566.291 -0.0933625 2.10893 0
M  V30 5963 O 565.639 -1.10598 1.99951 0
M  V30 5964 C 565.849 2.4264 2.50852 0
M  V30 5965 C 567.197 2.8276 3.16752 0
M  V30 5966 O 568.221 2.42215 2.61171 0
M  V30 5967 O 567.08 3.528 4.17366 0
M  V30 5968 H 564.174 0.506236 0.653952 0
M  V30 5969 H 566.72 1.52208 0.750394 0
M  V30 5970 H 565.492 3.35009 2.022 0
M  V30 5971 H 565.115 2.21129 3.30435 0
M  V30 5972 N 566.112 -0.949982 1.2575 0
M  V30 5973 C 567.34 -1.72972 1.13527 0
M  V30 5974 C 567.755 -1.8623 -0.310453 0
M  V30 5975 O 567.112 -1.36336 -1.2132 0
M  V30 5976 C 567.163 -3.14108 1.78936 0
M  V30 5977 O 566.884 -3.01493 3.17858 0
M  V30 5978 C 568.385 -4.08338 1.72554 0
M  V30 5979 H 565.605 -0.541864 0.395758 0
M  V30 5980 H 568.149 -1.19151 1.66202 0
M  V30 5981 H 566.304 -3.64858 1.30221 0
M  V30 5982 H 566.718 -3.90559 3.50092 0
M  V30 5983 H 568.192 -5.04963 2.22973 0
M  V30 5984 H 568.669 -4.33742 0.690251 0
M  V30 5985 H 569.275 -3.63506 2.2078 0
M  V30 5986 N 567.59 -1.07411 -1.15328 0
M  V30 5987 C 568.837 -0.797649 -1.86128 0
M  V30 5988 C 569.165 0.676298 -1.82364 0
M  V30 5989 O 568.42 1.51223 -1.24218 0
M  V30 5990 C 568.719 -1.25191 -3.34757 0
M  V30 5991 C 568.385 -2.73191 -3.58716 0
M  V30 5992 C 567.047 -3.13616 -3.64964 0
M  V30 5993 C 569.399 -3.68718 -3.6837 0
M  V30 5994 C 566.727 -4.48383 -3.78377 0
M  V30 5995 C 569.079 -5.03248 -3.83306 0
M  V30 5996 C 567.743 -5.43293 -3.878 0
M  V30 5997 H 567.013 -0.29188 -0.681092 0
M  V30 5998 H 569.66 -1.34524 -1.36292 0
M  V30 5999 H 567.965 -0.623712 -3.86804 0
M  V30 6000 H 569.662 -1.01489 -3.87945 0
M  V30 6001 H 566.252 -2.40898 -3.54494 0
M  V30 6002 H 570.436 -3.38614 -3.62842 0
M  V30 6003 H 565.692 -4.78877 -3.80114 0
M  V30 6004 H 569.866 -5.77142 -3.89718 0
M  V30 6005 H 567.493 -6.47721 -3.97946 0
M  V30 6006 N 569.068 1.32177 -0.85831 0
M  V30 6007 C 570.296 2.01313 -0.477582 0
M  V30 6008 C 570.711 1.6449 0.926736 0
M  V30 6009 O 570.068 0.868096 1.60531 0
M  V30 6010 C 570.119 3.56293 -0.611337 0
M  V30 6011 O 569.84 3.91794 -1.96034 0
M  V30 6012 C 571.341 4.42702 -0.230093 0
M  V30 6013 H 568.561 0.644323 -0.187322 0
M  V30 6014 H 571.105 1.68674 -1.15626 0
M  V30 6015 H 569.26 3.87395 0.0196494 0
M  V30 6016 H 569.674 4.86513 -1.95973 0
M  V30 6017 H 571.148 5.50727 -0.374674 0
M  V30 6018 H 571.625 4.3129 0.829779 0
M  V30 6019 H 572.231 4.16997 -0.836302 0
M  V30 6020 N 570.547 0.616602 1.45037 0
M  V30 6021 C 571.793 0.123965 2.03022 0
M  V30 6022 C 572.148 -1.23508 1.47525 0
M  V30 6023 O 571.441 -1.80453 0.643981 0
M  V30 6024 C 571.635 0.0356829 3.57382 0
M  V30 6025 C 571.464 1.38462 4.27853 0
M  V30 6026 C 570.234 1.96766 4.65415 0
M  V30 6027 C 572.432 2.31536 4.59234 0
M  V30 6028 N 570.414 3.25046 5.20786 0
M  V30 6029 C 571.785 3.4442 5.15533 0
M  V30 6030 C 573.84 2.30796 4.41178 0
M  V30 6031 C 572.543 4.56742 5.55679 0
M  V30 6032 C 574.569 3.42171 4.82362 0
M  V30 6033 C 573.931 4.53778 5.38762 0
M  V30 6034 H 570.03 0.0889428 0.776925 0
M  V30 6035 H 572.614 0.816925 1.76733 0
M  V30 6036 H 570.785 -0.62652 3.83314 0
M  V30 6037 H 572.517 -0.464443 4.02026 0
M  V30 6038 H 569.272 1.4987 4.49261 0
M  V30 6039 H 569.696 3.90592 5.52962 0
M  V30 6040 H 574.338 1.45765 3.96878 0
M  V30 6041 H 572.056 5.42491 5.9894 0
M  V30 6042 H 575.642 3.42757 4.70116 0
M  V30 6043 H 574.522 5.38536 5.70043 0
M  V30 6044 N 572.025 -1.5352 0.356285 0
M  V30 6045 C 572.935 -2.29151 -0.502712 0
M  V30 6046 C 573.951 -1.34753 -1.1008 0
M  V30 6047 O 575.127 -1.67803 -1.11374 0
M  V30 6048 C 572.192 -3.05911 -1.63154 0
M  V30 6049 C 571.253 -4.15958 -1.06194 0
M  V30 6050 C 570.486 -4.8905 -2.13696 0
M  V30 6051 O 570.709 -4.61919 -3.34645 0
M  V30 6052 O 569.643 -5.75202 -1.77275 0
M  V30 6053 H 573.469 -3.03492 0.112466 0
M  V30 6054 H 571.054 -1.4891 0.120942 0
M  V30 6055 H 572.936 -3.53874 -2.28804 0
M  V30 6056 H 571.611 -2.34415 -2.23229 0
M  V30 6057 H 570.518 -3.7227 -0.369603 0
M  V30 6058 H 571.851 -4.89593 -0.505872 0
M  V30 6059 N 573.503 -0.0852151 -1.57369 0
M  V30 6060 C 574.45 0.877268 -2.13478 0
M  V30 6061 C 575.42 1.28642 -1.05073 0
M  V30 6062 O 576.605 1.36992 -1.32808 0
M  V30 6063 C 573.745 2.13464 -2.71159 0
M  V30 6064 C 572.858 1.77691 -3.93764 0
M  V30 6065 C 571.993 2.98139 -4.39643 0
M  V30 6066 C 571.032 2.58447 -5.54862 0
M  V30 6067 N 570.169 3.71698 -5.95639 0
M  V30 6068 H 575.009 0.391933 -2.95411 0
M  V30 6069 H 572.546 0.181796 -1.45972 0
M  V30 6070 H 574.504 2.87086 -3.02717 0
M  V30 6071 H 573.134 2.59514 -1.91969 0
M  V30 6072 H 572.186 0.940768 -3.68583 0
M  V30 6073 H 573.498 1.44497 -4.77412 0
M  V30 6074 H 572.652 3.80026 -4.72933 0
M  V30 6075 H 571.391 3.34536 -3.54876 0
M  V30 6076 H 570.396 1.74984 -5.21211 0
M  V30 6077 H 571.621 2.23205 -6.41371 0
M  V30 6078 H 569.567 4.07831 -5.13819 0
M  V30 6079 H 569.484 3.42317 -6.74059 0
M  V30 6080 H 570.752 4.54123 -6.33555 0
M  V30 6081 N 574.981 1.5647 0.188427 0
M  V30 6082 C 576.23 1.80207 0.905995 0
M  V30 6083 C 576.543 0.659579 1.84144 0
M  V30 6084 O 577.749 0.781431 2.60011 0
M  V30 6085 C 576.205 3.19255 1.66145 0
M  V30 6086 C 575.813 4.41324 0.770504 0
M  V30 6087 C 577.557 3.52298 2.36826 0
M  V30 6088 C 575.464 5.71394 1.52521 0
M  V30 6089 H 574.394 0.671953 0.342045 0
M  V30 6090 H 577.045 1.82808 0.159164 0
M  V30 6091 H 575.427 3.10922 2.45242 0
M  V30 6092 H 576.601 4.60797 0.0177261 0
M  V30 6093 H 574.916 4.16035 0.174199 0
M  V30 6094 H 577.513 4.46715 2.93854 0
M  V30 6095 H 577.856 2.76359 3.11338 0
M  V30 6096 H 578.389 3.62108 1.6469 0
M  V30 6097 H 575.128 6.50316 0.82275 0
M  V30 6098 H 574.648 5.55928 2.25175 0
M  V30 6099 H 576.327 6.12747 2.07725 0
M  V30 6100 N 576.459 -0.456382 1.50847 0
M  V30 6101 C 577.406 -1.55249 1.70782 0
M  V30 6102 C 578.376 -1.56757 0.549231 0
M  V30 6103 O 579.561 -1.74061 0.7815 0
M  V30 6104 C 576.701 -2.93118 1.82143 0
M  V30 6105 C 575.814 -3.01285 3.09598 0
M  V30 6106 C 574.949 -4.30159 3.11667 0
M  V30 6107 C 573.988 -4.32124 4.33515 0
M  V30 6108 N 573.125 -5.52492 4.3324 0
M  V30 6109 H 577.965 -1.37555 2.64353 0
M  V30 6110 H 575.502 -0.668543 1.3103 0
M  V30 6111 H 577.46 -3.73088 1.86711 0
M  V30 6112 H 576.09 -3.09413 0.919978 0
M  V30 6113 H 575.142 -2.14096 3.14431 0
M  V30 6114 H 576.454 -2.98597 3.99551 0
M  V30 6115 H 575.608 -5.18489 3.15046 0
M  V30 6116 H 574.347 -4.35477 2.1957 0
M  V30 6117 H 573.352 -3.42189 4.30333 0
M  V30 6118 H 574.577 -4.28485 5.26856 0
M  V30 6119 H 572.523 -5.58567 3.44004 0
M  V30 6120 H 572.44 -5.51605 5.16979 0
M  V30 6121 H 573.708 -6.42906 4.40786 0
M  V30 6122 N 577.937 -1.40673 -0.710563 0
M  V30 6123 C 579.214 -1.29718 -1.46398 0
M  V30 6124 C 579.594 0.082177 -2.1094 0
M  V30 6125 O 578.942 1.09536 -2.00534 0
M  V30 6126 C 579.152 -2.43967 -2.49562 0
M  V30 6127 C 580.5 -2.84436 -3.15248 0
M  V30 6128 O 581.524 -2.43597 -2.59883 0
M  V30 6129 O 580.383 -3.55008 -4.1549 0
M  V30 6130 H 577.477 -0.509697 -0.651258 0
M  V30 6131 H 580.023 -1.52603 -0.742312 0
M  V30 6132 H 578.795 -3.36076 -2.0042 0
M  V30 6133 H 578.418 -2.22879 -3.29258 0
M  V30 6134 N 579.415 0.9433 -1.26252 0
M  V30 6135 C 580.345 2.05902 -1.10122 0
M  V30 6136 C 581.326 1.70099 -0.00700552 0
M  V30 6137 O 582.511 1.93377 -0.178641 0
M  V30 6138 C 579.641 3.39516 -0.731175 0
M  V30 6139 C 578.595 3.89372 -1.77688 0
M  V30 6140 C 577.921 5.19613 -1.26122 0
M  V30 6141 C 579.221 4.14489 -3.17799 0
M  V30 6142 H 580.915 2.19655 -2.03451 0
M  V30 6143 H 578.461 1.05548 -0.979576 0
M  V30 6144 H 580.414 4.17031 -0.605215 0
M  V30 6145 H 579.138 3.25733 0.23782 0
M  V30 6146 H 577.797 3.14036 -1.89148 0
M  V30 6147 H 577.445 5.02208 -0.282128 0
M  V30 6148 H 577.145 5.53939 -1.96023 0
M  V30 6149 H 578.669 5.99713 -1.14789 0
M  V30 6150 H 580.083 4.82625 -3.09428 0
M  V30 6151 H 578.48 4.60094 -3.85271 0
M  V30 6152 H 579.55 3.20347 -3.64014 0
M  V30 6153 N 580.893 1.08022 1.14757 0
M  V30 6154 C 582.118 0.82895 1.90114 0
M  V30 6155 C 582.543 -0.612772 1.77839 0
M  V30 6156 O 581.901 -1.42895 1.11583 0
M  V30 6157 C 581.949 1.25062 3.38219 0
M  V30 6158 O 581.053 0.400119 4.10454 0
M  V30 6159 H 580.394 0.301412 0.591648 0
M  V30 6160 H 582.924 1.44062 1.45284 0
M  V30 6161 H 582.934 1.22977 3.89025 0
M  V30 6162 H 581.609 2.30067 3.46471 0
M  V30 6163 H 580.186 0.484052 3.69745 0
M  V30 6164 N 582.371 -1.3172 0.865308 0
M  V30 6165 C 583.321 -2.26157 0.289305 0
M  V30 6166 C 584.305 -1.50428 -0.570977 0
M  V30 6167 O 585.497 -1.71978 -0.418617 0
M  V30 6168 C 582.626 -3.39457 -0.512237 0
M  V30 6169 C 581.712 -4.22561 0.361028 0
M  V30 6170 N 582.103 -4.84501 1.45231 0
M  V30 6171 C 580.401 -4.45739 0.152641 0
M  V30 6172 C 581.102 -5.46586 1.99043 0
M  V30 6173 N 580.078 -5.28119 1.28809 0
M  V30 6174 H 583.88 -2.71581 1.12344 0
M  V30 6175 H 581.394 -1.45932 0.712565 0
M  V30 6176 H 583.391 -4.06133 -0.941379 0
M  V30 6177 H 582.051 -2.95577 -1.34404 0
M  V30 6178 H 583.062 -4.84293 1.83524 0
M  V30 6179 H 579.739 -4.1251 -0.643583 0
M  V30 6180 H 581.129 -6.05817 2.90577 0
M  V30 6181 N 583.85 -0.624285 -1.44708 0
M  V30 6182 C 584.76 0.0861083 -2.34442 0
M  V30 6183 C 585.776 0.84291 -1.5222 0
M  V30 6184 O 586.952 0.796723 -1.84971 0
M  V30 6185 C 584.017 1.05999 -3.30099 0
M  V30 6186 C 583.077 0.303316 -4.28227 0
M  V30 6187 C 582.311 1.23081 -5.19314 0
M  V30 6188 O 582.534 2.46929 -5.14181 0
M  V30 6189 O 581.468 0.71883 -5.97592 0
M  V30 6190 H 585.293 -0.651756 -2.96624 0
M  V30 6191 H 582.879 -0.384493 -1.44368 0
M  V30 6192 H 584.76 1.62046 -3.88997 0
M  V30 6193 H 583.436 1.77859 -2.70459 0
M  V30 6194 H 582.343 -0.300033 -3.72895 0
M  V30 6195 H 583.676 -0.375123 -4.90768 0
M  V30 6196 N 585.328 1.53329 -0.364422 0
M  V30 6197 C 586.275 2.25698 0.482607 0
M  V30 6198 C 587.245 1.26325 1.07848 0
M  V30 6199 O 588.43 1.55104 1.11119 0
M  V30 6200 C 585.57 3.04873 1.61699 0
M  V30 6201 C 584.683 4.19135 1.0464 0
M  V30 6202 C 583.818 4.85754 2.14979 0
M  V30 6203 C 582.857 5.9205 1.5538 0
M  V30 6204 N 581.994 6.52365 2.59547 0
M  V30 6205 H 586.834 2.97666 -0.141032 0
M  V30 6206 H 584.371 1.46875 -0.0813692 0
M  V30 6207 H 586.329 3.49051 2.28516 0
M  V30 6208 H 584.959 2.35162 2.2113 0
M  V30 6209 H 584.011 3.79451 0.268553 0
M  V30 6210 H 585.323 4.95525 0.570653 0
M  V30 6211 H 584.477 5.3311 2.89619 0
M  V30 6212 H 583.216 4.08834 2.65906 0
M  V30 6213 H 582.221 5.44058 0.792549 0
M  V30 6214 H 583.446 6.7089 1.0528 0
M  V30 6215 H 581.392 5.78298 3.09689 0
M  V30 6216 H 581.309 7.2429 2.16655 0
M  V30 6217 H 582.577 7.0437 3.33892 0
M  V30 6218 N 586.806 0.0935595 1.57322 0
M  V30 6219 C 587.754 -0.883457 2.15169 0
M  V30 6220 C 588.748 -1.29324 1.09415 0
M  V30 6221 O 589.954 -1.26795 1.27762 0
M  V30 6222 H 586.329 -0.302923 0.688289 0
M  V30 6223 H 588.3 -0.370845 2.96087 0
M  V30 6224 C 587.049 -2.13345 2.74552 0
M  V30 6225 H 586.372 -1.82702 3.55612 0
M  V30 6226 H 587.812 -2.7977 3.18598 0
M  V30 6227 C 586.271 -2.90646 1.70371 0
M  V30 6228 O 586.801 -3.85133 1.14173 0
M  V30 6229 N 585.007 -2.54157 1.40899 0
M  V30 6230 H 584.554 -1.77391 1.86789 0
M  V30 6231 H 584.512 -3.06178 0.714301 0
M  V30 6232 N 588.284 -1.56567 -0.180126 0
M  V30 6233 C 589.247 -1.94852 -1.20686 0
M  V30 6234 C 590.247 -0.831212 -1.3765 0
M  V30 6235 O 591.437 -1.09841 -1.35206 0
M  V30 6236 C 588.569 -2.23565 -2.57355 0
M  V30 6237 H 589.762 -2.86722 -0.879225 0
M  V30 6238 H 587.315 -1.50489 -0.422237 0
M  V30 6239 H 588.05 -1.34381 -2.95148 0
M  V30 6240 H 587.835 -3.04999 -2.46411 0
M  V30 6241 H 589.325 -2.54137 -3.31367 0
M  V30 6242 N 589.762 0.448376 -1.51087 0
M  V30 6243 C 590.692 1.55102 -1.74544 0
M  V30 6244 C 591.673 1.59357 -0.594932 0
M  V30 6245 O 592.858 1.75261 -0.836491 0
M  V30 6246 C 589.988 2.93268 -1.86041 0
M  V30 6247 C 588.942 3.03877 -3.01402 0
M  V30 6248 C 588.268 4.43914 -2.98068 0
M  V30 6249 C 589.568 2.7898 -4.41551 0
M  V30 6250 H 591.262 1.35724 -2.66869 0
M  V30 6251 H 588.808 0.651498 -1.28419 0
M  V30 6252 H 590.761 3.70356 -2.01034 0
M  V30 6253 H 589.485 3.13853 -0.903548 0
M  V30 6254 H 588.144 2.29227 -2.86096 0
M  V30 6255 H 587.792 4.6145 -2.00182 0
M  V30 6256 H 587.492 4.51944 -3.75527 0
M  V30 6257 H 589.016 5.22991 -3.1514 0
M  V30 6258 H 590.43 3.45805 -4.57265 0
M  V30 6259 H 588.827 2.98431 -5.20633 0
M  V30 6260 H 589.897 1.74663 -4.5235 0
M  V30 6261 N 591.24 1.41047 0.703093 0
M  V30 6262 C 592.187 1.42302 1.81711 0
M  V30 6263 C 593.157 0.278336 1.63751 0
M  V30 6264 O 594.342 0.478266 1.84709 0
M  V30 6265 C 591.482 1.30362 3.19531 0
M  V30 6266 C 590.595 2.54638 3.48975 0
M  V30 6267 C 589.73 2.35047 4.76368 0
M  V30 6268 C 588.769 3.54837 4.98756 0
M  V30 6269 N 587.906 3.34363 6.1737 0
M  V30 6270 H 592.746 2.37516 1.79973 0
M  V30 6271 H 590.283 1.1795 0.878983 0
M  V30 6272 H 592.241 1.21443 3.99134 0
M  V30 6273 H 590.871 0.387602 3.20464 0
M  V30 6274 H 589.923 2.74037 2.63833 0
M  V30 6275 H 591.235 3.43766 3.61423 0
M  V30 6276 H 590.389 2.23552 5.64012 0
M  V30 6277 H 589.128 1.43363 4.66153 0
M  V30 6278 H 588.133 3.66795 4.09563 0
M  V30 6279 H 589.358 4.47464 5.10835 0
M  V30 6280 H 587.304 2.45373 6.08382 0
M  V30 6281 H 587.221 4.17063 6.30551 0
M  V30 6282 H 588.489 3.26626 7.07768 0
M  V30 6283 N 592.718 -0.936591 1.26751 0
M  V30 6284 C 593.666 -2.0573 1.08527 0
M  V30 6285 C 594.66 -1.69397 0.0108784 0
M  V30 6286 O 595.866 -1.79215 0.167915 0
M  V30 6287 H 592.241 -0.673691 0.334133 0
M  V30 6288 H 594.212 -2.1825 2.03493 0
M  V30 6289 C 592.961 -3.39738 0.739845 0
M  V30 6290 H 592.284 -3.68174 1.55845 0
M  V30 6291 H 593.724 -4.18955 0.652149 0
M  V30 6292 C 592.183 -3.32292 -0.555288 0
M  V30 6293 O 592.713 -3.68794 -1.59229 0
M  V30 6294 N 590.919 -2.85394 -0.54762 0
M  V30 6295 H 590.466 -2.55886 0.296667 0
M  V30 6296 H 590.424 -2.80795 -1.41427 0
M  V30 6297 O 594.235 -1.20928 -1.07045 0
M  V30 6298 H 594.926 -0.966183 -1.67883 0
M  V30 END ATOM
M  V30 BEGIN BOND
M  V30 END BOND
M  V30 END CTAB
M  END
$$$$
