drugbank_target|Q7K9G0 3-mercaptopyruvate sulfurtransferase (DB02761; DB03352)
 OpenBabel12092120103D

  0  0  0     0  0            999 V3000
M  V30 BEGIN CTAB
M  V30 COUNTS 5547 5622 0 0 0
M  V30 BEGIN ATOM
M  V30 1 H -0.908 1.98254 -0.117106 0
M  V30 2 N 0 1.576 0 0
M  V30 3 C 0.933 2.03868 1.02534 0
M  V30 4 C 1.911 0.928543 1.3348 0
M  V30 5 O 3.095 1.19667 1.45644 0
M  V30 6 C 0.222 2.43627 2.35294 0
M  V30 7 C -0.732 3.65373 2.2001 0
M  V30 8 S 0.101 5.13292 1.52614 0
M  V30 9 C 1.257 5.56322 2.86805 0
M  V30 10 H 1.49 2.90518 0.631377 0
M  V30 11 H -0.977 1.52953 0.210867 0
M  V30 12 H 0.981 2.67203 3.11629 0
M  V30 13 H -0.358 1.57376 2.7183 0
M  V30 14 H -1.165 3.90944 3.18086 0
M  V30 15 H -1.563 3.418 1.51819 0
M  V30 16 H 0.729 5.58782 3.83104 0
M  V30 17 H 1.672 6.56266 2.65933 0
M  V30 18 H 2.08 4.83886 2.90714 0
M  V30 19 N 1.4781 -0.272755 1.55222 0
M  V30 20 C 2.7031 -1.02683 1.80197 0
M  V30 21 C 3.1281 -1.79142 0.573551 0
M  V30 22 O 2.4861 -1.74917 -0.476849 0
M  V30 23 C 2.5341 -1.9609 3.02624 0
M  V30 24 O 1.6381 -3.04863 2.77727 0
M  V30 25 H 0.9791 -0.293557 0.595584 0
M  V30 26 H 3.5091 -0.30159 2.02365 0
M  V30 27 H 3.5191 -2.38039 3.31363 0
M  V30 28 H 2.1941 -1.39851 3.91682 0
M  V30 29 H 0.7711 -2.67228 2.60084 0
M  V30 30 N 2.9562 -1.48159 -0.537278 0
M  V30 31 C 3.9192 -1.61665 -1.62472 0
M  V30 32 C 4.9192 -0.490395 -1.5314 0
M  V30 33 O 6.1092 -0.755998 -1.5694 0
M  V30 34 C 3.2412 -1.57997 -3.02076 0
M  V30 35 H 4.4342 -2.58621 -1.51839 0
M  V30 36 H 1.9872 -1.36647 -0.758771 0
M  V30 37 H 2.7222 -0.624913 -3.18222 0
M  V30 38 H 2.5072 -2.39755 -3.10258 0
M  V30 39 H 3.9972 -1.70627 -3.81151 0
M  V30 40 N 4.4343 0.785586 -1.36625 0
M  V30 41 C 5.8453 1.36101 -1.27803 0
M  V30 42 C 6.1963 1.96035 0.0804875 0
M  V30 43 O 5.3213 1.92834 0.982042 0
M  V30 44 C 5.9163 2.47442 -2.31426 0
M  V30 45 C 4.4753 3.00789 -2.26281 0
M  V30 46 C 3.6223 1.73896 -2.15999 0
M  V30 47 H 6.5733 0.586928 -1.47448 0
M  V30 48 H 6.5943 3.2656 -1.95291 0
M  V30 49 H 6.1063 2.03791 -3.30289 0
M  V30 50 H 4.2073 3.48851 -1.30896 0
M  V30 51 H 4.3203 3.57343 -3.19128 0
M  V30 52 H 2.6843 1.9628 -1.62316 0
M  V30 53 H 3.4673 1.32368 -3.16755 0
M  V30 54 N 5.9124 1.20967 1.01018 0
M  V30 55 C 6.8754 0.965918 2.07853 0
M  V30 56 C 7.8754 -0.0610545 1.60684 0
M  V30 57 O 9.0654 0.175681 1.73312 0
M  V30 58 C 6.1974 0.455513 3.37843 0
M  V30 59 H 7.3904 1.91365 2.3091 0
M  V30 60 H 4.9434 1.02594 1.17916 0
M  V30 61 H 5.6784 -0.497381 3.20463 0
M  V30 62 H 5.4634 1.19622 3.73407 0
M  V30 63 H 6.9534 0.304667 4.16487 0
M  V30 64 N 7.3905 -1.2043 1.01659 0
M  V30 65 C 8.3535 -2.21433 0.591616 0
M  V30 66 C 9.3535 -1.57203 -0.338226 0
M  V30 67 O 10.5435 -1.73737 -0.126918 0
M  V30 68 C 7.6755 -3.40628 -0.136058 0
M  V30 69 H 8.8685 -2.60545 1.48514 0
M  V30 70 H 6.4215 -1.33893 0.806379 0
M  V30 71 H 7.1565 -3.07019 -1.04449 0
M  V30 72 H 6.9415 -3.88475 0.531917 0
M  V30 73 H 8.4315 -4.15475 -0.420735 0
M  V30 74 N 8.8686 -0.792821 -1.36206 0
M  V30 75 C 9.8316 -0.199459 -2.2833 0
M  V30 76 C 10.8316 0.605189 -1.48977 0
M  V30 77 O 12.0216 0.425685 -1.68919 0
M  V30 78 C 9.1536 0.723523 -3.33134 0
M  V30 79 H 10.3466 -1.01181 -2.82316 0
M  V30 80 H 7.8996 -0.562485 -1.45828 0
M  V30 81 H 8.6346 1.56008 -2.84309 0
M  V30 82 H 8.4196 0.148436 -3.91819 0
M  V30 83 H 9.9096 1.13344 -4.01924 0
M  V30 84 N 10.3467 1.47872 -0.545128 0
M  V30 85 C 11.7577 1.86384 -0.108581 0
M  V30 86 C 12.1087 1.45309 1.31832 0
M  V30 87 O 11.2337 0.850641 1.9898 0
M  V30 88 C 11.8287 3.38265 -0.190274 0
M  V30 89 C 10.3877 3.75914 0.191164 0
M  V30 90 C 9.5347 2.71926 -0.543273 0
M  V30 91 H 12.4857 1.39561 -0.755537 0
M  V30 92 H 12.5067 3.75831 0.594217 0
M  V30 93 H 12.0187 3.6813 -1.2289 0
M  V30 94 H 10.1197 3.51665 1.23136 0
M  V30 95 H 10.2327 4.78836 -0.158987 0
M  V30 96 H 8.5967 2.54697 0.0122495 0
M  V30 97 H 9.3797 3.04634 -1.58282 0
M  V30 98 N 11.8248 0.280983 1.55075 0
M  V30 99 C 12.7718 -0.603937 2.22758 0
M  V30 100 C 13.7418 -1.1452 1.20309 0
M  V30 101 O 14.9268 -1.19343 1.48869 0
M  V30 102 C 12.0668 -1.77947 2.95684 0
M  V30 103 C 11.1798 -1.2715 4.12864 0
M  V30 104 C 10.3148 -2.4093 4.7342 0
M  V30 105 C 9.3538 -1.87165 5.82783 0
M  V30 106 N 8.4908 -2.94441 6.37377 0
M  V30 107 H 13.3308 -0.020124 2.97993 0
M  V30 108 H 10.8678 0.00183425 1.471 0
M  V30 109 H 12.8258 -2.47055 3.36184 0
M  V30 110 H 11.4558 -2.33522 2.22861 0
M  V30 111 H 10.5078 -0.473331 3.77444 0
M  V30 112 H 11.8198 -0.837751 4.91715 0
M  V30 113 H 10.9738 -3.18021 5.1667 0
M  V30 114 H 9.7128 -2.87623 3.93859 0
M  V30 115 H 8.7178 -1.08556 5.38976 0
M  V30 116 H 9.9428 -1.41401 6.64216 0
M  V30 117 H 7.8888 -3.40505 5.60707 0
M  V30 118 H 7.8058 -2.55501 7.11516 0
M  V30 119 H 9.0738 -3.71489 6.85285 0
M  V30 120 N 13.3029 -1.57598 0.00835791 0
M  V30 121 C 14.2529 -2.05431 -0.989045 0
M  V30 122 C 15.2369 -0.950662 -1.29812 0
M  V30 123 O 16.4289 -1.21438 -1.28771 0
M  V30 124 C 13.5579 -2.56801 -2.27833 0
M  V30 125 C 12.6439 -3.74058 -1.99853 0
M  V30 126 N 13.0349 -4.8544 -1.42062 0
M  V30 127 C 11.3329 -3.82148 -2.29953 0
M  V30 128 C 12.0339 -5.66817 -1.30743 0
M  V30 129 N 11.0099 -5.13077 -1.7959 0
M  V30 130 H 14.8119 -2.88955 -0.536853 0
M  V30 131 H 12.3259 -1.61199 -0.197148 0
M  V30 132 H 14.3229 -2.89349 -3.00137 0
M  V30 133 H 12.9829 -1.74699 -2.73698 0
M  V30 134 H 13.9939 -5.0612 -1.09833 0
M  V30 135 H 10.6709 -3.10916 -2.78635 0
M  V30 136 H 12.0609 -6.66343 -0.862328 0
M  V30 137 N 14.781 0.264519 -1.55364 0
M  V30 138 C 16.192 0.834936 -1.6699 0
M  V30 139 C 16.543 1.86718 -0.602552 0
M  V30 140 O 15.668 2.14899 0.254425 0
M  V30 141 C 16.263 1.5212 -3.02729 0
M  V30 142 C 14.822 2.03954 -3.16354 0
M  V30 143 C 13.969 0.884498 -2.62815 0
M  V30 144 H 16.92 0.0406869 -1.58648 0
M  V30 145 H 16.941 2.38853 -2.96191 0
M  V30 146 H 16.453 0.769668 -3.80392 0
M  V30 147 H 14.554 2.82041 -2.43482 0
M  V30 148 H 14.667 2.24902 -4.23032 0
M  V30 149 H 13.031 1.2802 -2.20188 0
M  V30 150 H 13.814 0.14634 -3.42988 0
M  V30 151 N 16.2591 1.48442 0.529413 0
M  V30 152 C 17.5071 1.56179 1.28267 0
M  V30 153 C 17.8281 0.237721 1.93546 0
M  V30 154 O 17.0981 -0.740779 1.81354 0
M  V30 155 H 15.6781 0.575367 0.476405 0
M  V30 156 H 18.3401 1.84909 0.61602 0
M  V30 157 H 17.4361 2.34312 2.06165 0
M  V30 158 N 17.7372 -0.778329 1.37039 0
M  V30 159 C 18.6842 -1.89139 1.32269 0
M  V30 160 C 19.6542 -1.65017 0.189387 0
M  V30 161 O 20.8392 -1.87024 0.377693 0
M  V30 162 C 17.9792 -3.26112 1.12894 0
M  V30 163 C 17.0922 -3.62233 2.35396 0
M  V30 164 C 16.2272 -4.8838 2.08946 0
M  V30 165 C 15.2662 -5.17212 3.2735 0
M  V30 166 N 14.4032 -6.34546 3.00492 0
M  V30 167 H 19.2432 -1.92552 2.27437 0
M  V30 168 H 16.7802 -0.941473 1.13025 0
M  V30 169 H 18.7382 -4.05116 0.996835 0
M  V30 170 H 17.3682 -3.22091 0.213758 0
M  V30 171 H 16.4202 -2.78265 2.5937 0
M  V30 172 H 17.7322 -3.79481 3.23721 0
M  V30 173 H 16.8862 -5.75274 1.92729 0
M  V30 174 H 15.6252 -4.73222 1.17949 0
M  V30 175 H 14.6302 -4.28796 3.44113 0
M  V30 176 H 15.8552 -5.34283 4.19188 0
M  V30 177 H 13.8012 -6.20759 2.12118 0
M  V30 178 H 13.7182 -6.52179 3.82358 0
M  V30 179 H 14.9862 -7.24394 2.87879 0
M  V30 180 N 19.2153 -1.21501 -1.00376 0
M  V30 181 C 20.4613 -1.03452 -1.74429 0
M  V30 182 C 20.7943 0.430764 -1.89362 0
M  V30 183 O 20.0693 1.31962 -1.42886 0
M  V30 184 C 20.3523 -1.73375 -3.15615 0
M  V30 185 C 20.2053 -3.27431 -3.08397 0
M  V30 186 C 21.5243 -1.47732 -4.14564 0
M  V30 187 H 18.6433 -0.377226 -0.633143 0
M  V30 188 H 21.2853 -1.49693 -1.17013 0
M  V30 189 H 19.4353 -1.34064 -3.64636 0
M  V30 190 H 21.1073 -3.76119 -2.67081 0
M  V30 191 H 19.3503 -3.5767 -2.45468 0
M  V30 192 H 20.0213 -3.71524 -4.08258 0
M  V30 193 H 22.4973 -1.8186 -3.74254 0
M  V30 194 H 21.3733 -1.99169 -5.11491 0
M  V30 195 H 21.6343 -0.407589 -4.40217 0
M  V30 196 N 20.6934 1.19889 -1.02296 0
M  V30 197 C 21.9404 1.8942 -0.715972 0
M  V30 198 C 22.2684 1.79251 0.754944 0
M  V30 199 O 21.5234 1.17526 1.56481 0
M  V30 200 C 21.8224 3.39883 -1.10518 0
M  V30 201 C 21.4884 3.70254 -2.57337 0
M  V30 202 C 20.1504 3.78254 -2.97452 0
M  V30 203 C 22.5024 3.84052 -3.52354 0
M  V30 204 C 19.8304 3.97514 -4.31509 0
M  V30 205 C 22.1824 4.04824 -4.86108 0
M  V30 206 C 20.8464 4.11054 -5.25919 0
M  V30 207 H 20.1164 0.693138 -0.261993 0
M  V30 208 H 22.7634 1.42012 -1.28472 0
M  V30 209 H 21.0684 3.8915 -0.454953 0
M  V30 210 H 22.7654 3.9199 -0.845261 0
M  V30 211 H 19.3554 3.64632 -2.25258 0
M  V30 212 H 23.5394 3.77221 -3.22518 0
M  V30 213 H 18.7954 4.00574 -4.61898 0
M  V30 214 H 22.9694 4.14442 -5.59653 0
M  V30 215 H 20.5964 4.2573 -6.29808 0
M  V30 216 N 22.1715 0.800033 1.35784 0
M  V30 217 C 23.1015 0.220184 2.3246 0
M  V30 218 C 24.0825 -0.65073 1.57161 0
M  V30 219 O 25.2675 -0.582359 1.85263 0
M  V30 220 C 22.3975 -0.637353 3.41402 0
M  V30 221 C 21.3515 0.134531 4.27789 0
M  V30 222 C 20.6775 -0.844285 5.27992 0
M  V30 223 C 21.9775 1.32979 5.05088 0
M  V30 224 H 23.6715 1.02787 2.81203 0
M  V30 225 H 21.2175 0.495717 1.35199 0
M  V30 226 H 23.1705 -1.05302 4.08031 0
M  V30 227 H 21.8945 -1.47785 2.91251 0
M  V30 228 H 20.5535 0.531296 3.6273 0
M  V30 229 H 20.2015 -1.68011 4.74111 0
M  V30 230 H 19.9015 -0.332184 5.8666 0
M  V30 231 H 21.4255 -1.2583 5.97494 0
M  V30 232 H 22.8395 0.98934 5.64699 0
M  V30 233 H 21.2365 1.77593 5.7322 0
M  V30 234 H 22.3065 2.11978 4.36111 0
M  V30 235 N 23.6496 -1.47581 0.552962 0
M  V30 236 C 24.9266 -1.95563 -0.0381515 0
M  V30 237 C 25.3066 -1.49552 -1.48988 0
M  V30 238 O 24.6546 -0.732414 -2.16444 0
M  V30 239 C 24.8646 -3.48848 0.102919 0
M  V30 240 C 26.2126 -4.24577 -0.0446082 0
M  V30 241 O 27.2366 -3.56187 0.0302548 0
M  V30 242 O 26.0956 -5.46116 -0.204923 0
M  V30 243 H 23.1896 -0.824321 -0.0665067 0
M  V30 244 H 25.7356 -1.58001 0.619186 0
M  V30 245 H 24.5076 -3.75129 1.11328 0
M  V30 246 H 24.1306 -3.93165 -0.592224 0
M  V30 247 N 25.1277 -0.289203 -1.54924 0
M  V30 248 C 26.5387 0.205791 -1.85562 0
M  V30 249 C 26.8897 1.54351 -1.2112 0
M  V30 250 O 26.0147 2.10435 -0.504601 0
M  V30 251 C 26.6097 0.380177 -3.3666 0
M  V30 252 C 25.1687 0.819395 -3.67373 0
M  V30 253 C 24.3157 -0.079159 -2.77187 0
M  V30 254 H 27.2667 -0.510577 -1.50262 0
M  V30 255 H 27.2877 1.21659 -3.60526 0
M  V30 256 H 26.7997 -0.593589 -3.83534 0
M  V30 257 H 24.9007 1.80413 -3.26009 0
M  V30 258 H 25.0137 0.646957 -4.74712 0
M  V30 259 H 23.3777 0.439565 -2.50878 0
M  V30 260 H 24.1607 -1.04906 -3.26878 0
M  V30 261 N 26.6058 1.57591 -0.0167156 0
M  V30 262 C 27.8308 1.9598 0.67872 0
M  V30 263 C 28.2558 0.892546 1.65575 0
M  V30 264 O 27.6138 -0.147772 1.80697 0
M  V30 265 C 27.6618 3.33468 1.37227 0
M  V30 266 O 26.7658 3.28954 2.48722 0
M  V30 267 H 26.1068 0.639339 0.17928 0
M  V30 268 H 28.6368 2.04463 -0.0748802 0
M  V30 269 H 28.6468 3.69417 1.7319 0
M  V30 270 H 27.3218 4.10694 0.656007 0
M  V30 271 H 25.8988 3.04705 2.14963 0
M  V30 272 N 28.0839 -0.256276 1.55502 0
M  V30 273 C 28.9939 -1.33882 1.92647 0
M  V30 274 C 30.0099 -1.53159 0.825727 0
M  V30 275 O 31.1859 -1.66963 1.12629 0
M  V30 276 C 28.2509 -2.6751 2.20543 0
M  V30 277 C 27.3119 -2.56836 3.43997 0
M  V30 278 C 26.5449 -3.84092 3.70553 0
M  V30 279 O 26.7679 -4.85545 2.99336 0
M  V30 280 O 25.7019 -3.83288 4.64084 0
M  V30 281 H 29.5279 -1.05374 2.84833 0
M  V30 282 H 27.1129 -0.456237 1.42263 0
M  V30 283 H 28.9949 -3.46492 2.39835 0
M  V30 284 H 27.6699 -2.9577 1.31536 0
M  V30 285 H 26.5769 -1.76172 3.30021 0
M  V30 286 H 27.9099 -2.33523 4.33275 0
M  V30 287 N 29.562 -1.4872 -0.521534 0
M  V30 288 C 30.808 -1.574 -1.27879 0
M  V30 289 C 31.141 -0.250817 -1.92573 0
M  V30 290 O 30.416 0.743934 -1.79711 0
M  V30 291 C 30.699 -2.71843 -2.36164 0
M  V30 292 C 30.552 -4.13893 -1.76105 0
M  V30 293 C 31.871 -2.82008 -3.37875 0
M  V30 294 H 28.99 -0.572941 -0.463581 0
M  V30 295 H 31.632 -1.80927 -0.580119 0
M  V30 296 H 29.782 -2.51914 -2.95756 0
M  V30 297 H 31.454 -4.45284 -1.20499 0
M  V30 298 H 29.697 -4.20498 -1.06601 0
M  V30 299 H 30.368 -4.89804 -2.5455 0
M  V30 300 H 32.844 -3.00086 -2.88249 0
M  V30 301 H 31.72 -3.63796 -4.11028 0
M  V30 302 H 31.981 -1.90511 -3.98946 0
M  V30 303 N 31.0401 0.771051 -1.3745 0
M  V30 304 C 31.9871 1.88435 -1.3327 0
M  V30 305 C 32.9571 1.64914 -0.198136 0
M  V30 306 O 34.1421 1.86821 -0.387606 0
M  V30 307 C 31.2821 3.25509 -1.14622 0
M  V30 308 C 30.3951 3.60979 -2.37314 0
M  V30 309 C 29.5301 4.87265 -2.11533 0
M  V30 310 C 28.5691 5.15469 -3.30088 0
M  V30 311 N 27.7061 6.32944 -3.03853 0
M  V30 312 H 32.5461 1.91344 -2.28455 0
M  V30 313 H 30.0831 0.935466 -1.13523 0
M  V30 314 H 32.0411 4.04582 -1.01831 0
M  V30 315 H 30.6711 3.21974 -0.230837 0
M  V30 316 H 29.7231 2.76885 -2.60842 0
M  V30 317 H 31.0351 3.77759 -3.25729 0
M  V30 318 H 30.1891 5.74244 -1.95777 0
M  V30 319 H 28.9281 4.7259 -1.20457 0
M  V30 320 H 27.9331 4.26966 -3.46382 0
M  V30 321 H 29.1581 5.32052 -4.22016 0
M  V30 322 H 27.1041 6.19625 -2.15407 0
M  V30 323 H 27.0211 6.50143 -3.85812 0
M  V30 324 H 28.2891 7.22857 -2.91716 0
M  V30 325 N 32.5182 1.22032 0.997298 0
M  V30 326 C 33.7952 0.950823 1.70935 0
M  V30 327 C 34.1752 -0.535292 2.042 0
M  V30 328 O 33.5232 -1.50217 1.72183 0
M  V30 329 C 33.7332 1.84386 2.96315 0
M  V30 330 C 35.0812 2.09732 3.69185 0
M  V30 331 O 36.1052 1.81798 3.06314 0
M  V30 332 O 34.9642 2.57018 4.82291 0
M  V30 333 H 32.0582 0.357204 0.745878 0
M  V30 334 H 34.6042 1.32997 1.05404 0
M  V30 335 H 33.3762 2.84928 2.68201 0
M  V30 336 H 32.9992 1.46602 3.69586 0
M  V30 337 N 33.9963 -1.19345 1.0293 0
M  V30 338 C 34.9463 -2.20472 0.58104 0
M  V30 339 C 35.9303 -1.56578 -0.370442 0
M  V30 340 O 37.1223 -1.75963 -0.191344 0
M  V30 341 C 34.2513 -3.43236 -0.066306 0
M  V30 342 C 33.3373 -4.14274 0.907642 0
M  V30 343 N 33.7283 -4.61492 2.07023 0
M  V30 344 C 32.0263 -4.39966 0.731177 0
M  V30 345 C 32.7273 -5.1605 2.68454 0
M  V30 346 N 31.7033 -5.06875 1.96414 0
M  V30 347 H 35.5053 -2.54659 1.46717 0
M  V30 348 H 33.0193 -1.35423 0.896345 0
M  V30 349 H 35.0163 -4.14927 -0.405068 0
M  V30 350 H 33.6763 -3.10549 -0.948118 0
M  V30 351 H 34.6873 -4.56304 2.44963 0
M  V30 352 H 31.3643 -4.17377 -0.101507 0
M  V30 353 H 32.7543 -5.6287 3.66915 0
M  V30 354 N 35.4744 -0.807222 -1.35358 0
M  V30 355 C 36.4044 -0.232509 -2.3234 0
M  V30 356 C 37.3854 0.642386 -1.57504 0
M  V30 357 O 38.5704 0.572526 -1.85569 0
M  V30 358 C 35.7004 0.619238 -3.41735 0
M  V30 359 C 34.6544 -0.157215 -4.27711 0
M  V30 360 C 33.9804 0.816273 -5.28433 0
M  V30 361 C 35.2804 -1.35656 -5.04376 0
M  V30 362 H 36.9744 -1.04276 -2.80654 0
M  V30 363 H 34.5204 -0.50288 -1.34934 0
M  V30 364 H 36.4734 1.03137 -4.08584 0
M  V30 365 H 35.1974 1.46239 -2.92031 0
M  V30 366 H 33.8564 -0.550525 -3.62443 0
M  V30 367 H 33.5044 1.65494 -4.74996 0
M  V30 368 H 33.2044 0.301067 -5.86828 0
M  V30 369 H 34.7284 1.22659 -5.98153 0
M  V30 370 H 36.1424 -1.01927 -5.64166 0
M  V30 371 H 34.5394 -1.8063 -5.7227 0
M  V30 372 H 35.6094 -2.14288 -4.34981 0
M  V30 373 N 36.9525 1.47285 -0.560781 0
M  V30 374 C 37.9155 2.28535 0.174488 0
M  V30 375 C 38.9155 1.37153 0.839388 0
M  V30 376 O 40.1055 1.59748 0.694702 0
M  V30 377 C 37.2375 3.16934 1.25561 0
M  V30 378 H 38.4305 2.95012 -0.539262 0
M  V30 379 H 35.9835 1.53034 -0.317865 0
M  V30 380 H 36.7185 2.55157 2.00164 0
M  V30 381 H 36.5035 3.8419 0.783604 0
M  V30 382 H 37.9935 3.78143 1.77193 0
M  V30 383 N 38.4306 0.297415 1.54768 0
M  V30 384 C 39.3406 -0.58983 2.27064 0
M  V30 385 C 40.3566 -1.15144 1.30453 0
M  V30 386 O 41.5326 -1.17699 1.63428 0
M  V30 387 C 38.5976 -1.74714 2.9946 0
M  V30 388 C 37.6586 -1.21997 4.11601 0
M  V30 389 C 36.8916 -2.32212 4.80535 0
M  V30 390 O 37.1146 -3.52036 4.48806 0
M  V30 391 O 36.0486 -1.99106 5.68014 0
M  V30 392 H 39.8746 -0.00348199 3.037 0
M  V30 393 H 37.4596 0.0640035 1.49263 0
M  V30 394 H 39.3416 -2.42147 3.44881 0
M  V30 395 H 38.0166 -2.32016 2.25722 0
M  V30 396 H 36.9236 -0.511458 3.70587 0
M  V30 397 H 38.2566 -0.692419 4.87305 0
M  V30 398 N 39.9087 -1.5758 0.0250728 0
M  V30 399 C 41.1387 -1.95646 -0.663783 0
M  V30 400 C 41.5467 -0.899935 -1.66427 0
M  V30 401 O 40.8897 0.127191 -1.83259 0
M  V30 402 C 40.9517 -3.29835 -1.43 0
M  V30 403 C 40.6157 -4.53197 -0.588305 0
M  V30 404 C 41.6127 -5.19726 0.13469 0
M  V30 405 C 39.2977 -4.99529 -0.526897 0
M  V30 406 C 41.2917 -6.30902 0.90781 0
M  V30 407 C 38.9787 -6.10589 0.24993 0
M  V30 408 C 39.9767 -6.76134 0.965994 0
M  V30 409 O 39.6647 -7.85062 1.7301 0
M  V30 410 H 39.3967 -0.649282 -0.188174 0
M  V30 411 H 41.9507 -2.05245 0.0799006 0
M  V30 412 H 40.1807 -3.16716 -2.21873 0
M  V30 413 H 41.8697 -3.52833 -2.00658 0
M  V30 414 H 42.6357 -4.84904 0.0965562 0
M  V30 415 H 38.5147 -4.48319 -1.07381 0
M  V30 416 H 42.0587 -6.81995 1.46724 0
M  V30 417 H 37.9557 -6.44849 0.289795 0
M  V30 418 H 38.7237 -8.01708 1.64944 0
M  V30 419 N 41.3868 0.248026 -1.55636 0
M  V30 420 C 42.8028 0.596483 -1.48035 0
M  V30 421 C 43.0028 1.88386 -0.715039 0
M  V30 422 O 42.0588 2.51319 -0.243944 0
M  V30 423 C 43.3718 0.700258 -2.92433 0
M  V30 424 C 44.9198 0.792659 -3.02797 0
M  V30 425 C 45.3948 0.928005 -4.485 0
M  V30 426 N 46.8858 0.992903 -4.52433 0
M  V30 427 C 47.6208 1.11687 -5.62418 0
M  V30 428 N 47.1168 1.20645 -6.82214 0
M  V30 429 N 48.9098 1.14994 -5.50212 0
M  V30 430 H 41.0608 -0.597109 -2.03834 0
M  V30 431 H 43.3238 -0.205925 -0.925364 0
M  V30 432 H 43.0298 -0.175658 -3.51261 0
M  V30 433 H 42.9038 1.57255 -3.42857 0
M  V30 434 H 45.2908 1.65903 -2.4405 0
M  V30 435 H 45.3718 -0.104762 -2.55585 0
M  V30 436 H 45.0158 0.0661971 -5.07857 0
M  V30 437 H 44.9458 1.84045 -4.93391 0
M  V30 438 H 47.4368 0.935064 -3.66149 0
M  V30 439 H 47.7498 1.30008 -7.61786 0
M  V30 440 H 46.0948 1.17605 -6.84977 0
M  V30 441 H 49.2858 1.07643 -4.55555 0
M  V30 442 H 49.4588 1.24311 -6.35965 0
M  V30 443 N 42.8649 1.48995 0.513639 0
M  V30 444 C 44.1139 1.57093 1.2651 0
M  V30 445 C 44.4269 0.257091 1.93903 0
M  V30 446 O 45.6329 0.216478 2.70636 0
M  V30 447 C 44.0889 2.77118 2.29638 0
M  V30 448 C 43.6969 4.15209 1.68241 0
M  V30 449 C 45.4409 2.94538 3.05692 0
M  V30 450 C 43.3479 5.26474 2.69406 0
M  V30 451 H 42.2779 0.584876 0.475854 0
M  V30 452 H 44.9289 1.7536 0.540487 0
M  V30 453 H 43.3109 2.52319 3.05207 0
M  V30 454 H 44.4849 4.50094 0.987505 0
M  V30 455 H 42.7999 4.03042 1.04623 0
M  V30 456 H 45.3969 3.74832 3.8132 0
M  V30 457 H 45.7399 2.04614 3.62545 0
M  V30 458 H 46.2729 3.19316 2.37238 0
M  V30 459 H 43.0119 6.18417 2.17351 0
M  V30 460 H 42.5319 4.96058 3.37175 0
M  V30 461 H 44.2109 5.55277 3.32078 0
M  V30 462 N 44.343 -0.763751 1.37857 0
M  V30 463 C 45.589 -1.52483 1.33704 0
M  V30 464 C 45.922 -1.94051 -0.0759612 0
M  V30 465 O 45.197 -1.64675 -1.03501 0
M  V30 466 C 45.48 -2.78441 2.28348 0
M  V30 467 C 45.333 -2.43075 3.78463 0
M  V30 468 C 46.652 -3.80415 2.21298 0
M  V30 469 H 43.771 -0.553169 0.487005 0
M  V30 470 H 46.413 -0.875562 1.68624 0
M  V30 471 H 44.563 -3.33842 1.987 0
M  V30 472 H 46.235 -1.93527 4.18742 0
M  V30 473 H 44.478 -1.75666 3.96641 0
M  V30 474 H 45.149 -3.33149 4.40132 0
M  V30 475 H 47.625 -3.34527 2.47449 0
M  V30 476 H 46.501 -4.66257 2.89647 0
M  V30 477 H 46.762 -4.25262 1.20849 0
M  V30 478 N 45.8211 -1.22559 -0.990812 0
M  V30 479 C 47.0981 -0.959875 -1.70428 0
M  V30 480 C 47.4781 0.524455 -2.04481 0
M  V30 481 O 46.8261 1.49302 -1.72977 0
M  V30 482 C 47.0361 -1.85955 -2.95333 0
M  V30 483 C 48.3841 -2.11687 -3.68068 0
M  V30 484 O 49.4081 -1.8342 -3.05345 0
M  V30 485 O 48.2671 -2.59572 -4.80921 0
M  V30 486 H 45.3611 -0.361154 -0.743974 0
M  V30 487 H 47.9071 -1.33554 -1.04697 0
M  V30 488 H 46.6791 -2.86346 -2.66687 0
M  V30 489 H 46.3021 -1.4856 -3.68803 0
M  V30 490 N 47.2992 1.18797 -1.03562 0
M  V30 491 C 48.5392 1.90346 -0.744832 0
M  V30 492 C 48.9032 1.78231 0.713972 0
M  V30 493 O 50.1042 2.44441 1.11813 0
M  V30 494 C 48.3752 3.36942 -1.19184 0
M  V30 495 S 49.9342 4.26638 -1.02593 0
M  V30 496 H 46.7522 0.657343 -0.270963 0
M  V30 497 H 49.3542 1.43579 -1.32685 0
M  V30 498 H 48.0582 3.43287 -2.24905 0
M  V30 499 H 47.5892 3.88745 -0.603397 0
M  V30 500 H 49.6042 4.96164 0.0596033 0
M  V30 501 N 48.7773 0.814389 1.34928 0
M  V30 502 C 50.1933 0.499084 1.51596 0
M  V30 503 C 50.3933 -0.978319 1.76157 0
M  V30 504 O 49.4493 -1.76309 1.80752 0
M  V30 505 C 50.7623 1.35121 2.68631 0
M  V30 506 C 52.3103 1.34746 2.82511 0
M  V30 507 C 52.7853 2.18388 4.0258 0
M  V30 508 N 54.2763 2.15966 4.09772 0
M  V30 509 C 55.0113 2.77437 5.01813 0
M  V30 510 N 54.5073 3.47866 5.99134 0
M  V30 511 N 56.3003 2.67037 4.94619 0
M  V30 512 H 48.4513 1.7711 1.17243 0
M  V30 513 H 50.7143 0.754256 0.574284 0
M  V30 514 H 50.4203 2.40001 2.57085 0
M  V30 515 H 50.2943 1.00991 3.63429 0
M  V30 516 H 52.6813 0.30648 2.93504 0
M  V30 517 H 52.7623 1.72869 1.88547 0
M  V30 518 H 52.4063 3.2253 3.92347 0
M  V30 519 H 52.3363 1.77621 4.9574 0
M  V30 520 H 54.8273 1.64729 3.40107 0
M  V30 521 H 55.1403 3.92038 6.65977 0
M  V30 522 H 53.4853 3.51972 5.99284 0
M  V30 523 H 56.6763 2.11597 4.17546 0
M  V30 524 H 56.8493 3.15232 5.66156 0
M  V30 525 N 50.2554 -1.46986 0.568584 0
M  V30 526 C 51.4854 -2.0653 0.0539173 0
M  V30 527 C 51.8934 -1.42004 -1.25026 0
M  V30 528 O 51.2364 -0.514541 -1.76347 0
M  V30 529 C 51.2984 -3.58938 -0.200854 0
M  V30 530 C 50.9624 -4.45572 1.01559 0
M  V30 531 C 51.9594 -4.82986 1.92407 0
M  V30 532 C 49.6444 -4.8692 1.23346 0
M  V30 533 C 51.6384 -5.60559 3.03402 0
M  V30 534 C 49.3254 -5.64255 2.34649 0
M  V30 535 C 50.3234 -6.00986 3.24507 0
M  V30 536 O 50.0114 -6.76761 4.33878 0
M  V30 537 H 49.7434 -0.674292 0.0480234 0
M  V30 538 H 52.2974 -1.89812 0.784896 0
M  V30 539 H 50.5274 -3.73911 -0.986279 0
M  V30 540 H 52.2164 -4.0046 -0.662294 0
M  V30 541 H 52.9824 -4.51633 1.76785 0
M  V30 542 H 48.8614 -4.57789 0.543178 0
M  V30 543 H 52.4054 -5.89147 3.73565 0
M  V30 544 H 48.3024 -5.95021 2.5024 0
M  V30 545 H 49.0704 -6.95168 4.32068 0
M  V30 546 N 51.7335 -0.305618 -1.54608 0
M  V30 547 C 52.9585 0.307562 -2.05107 0
M  V30 548 C 53.3835 1.46385 -1.18123 0
M  V30 549 O 52.7415 1.8034 -0.186324 0
M  V30 550 C 52.7895 0.73704 -3.52987 0
M  V30 551 O 51.8935 1.84134 -3.6901 0
M  V30 552 H 51.2345 0.0589143 -0.661381 0
M  V30 553 H 53.7645 -0.448807 -1.99617 0
M  V30 554 H 53.7745 1.02459 -3.94925 0
M  V30 555 H 52.4495 -0.108773 -4.15758 0
M  V30 556 H 51.0265 1.55398 -3.38978 0
M  V30 557 N 53.2116 1.57565 -0.0334293 0
M  V30 558 C 54.1416 2.13511 0.945265 0
M  V30 559 C 55.1226 1.05231 1.33643 0
M  V30 560 O 56.3076 1.33084 1.41429 0
M  V30 561 C 53.4376 2.6657 2.22616 0
M  V30 562 C 52.3916 3.79676 1.97561 0
M  V30 563 C 51.7176 4.1918 3.31952 0
M  V30 564 C 53.0176 5.0557 1.31135 0
M  V30 565 H 54.7116 2.95538 0.479325 0
M  V30 566 H 52.2576 1.42166 0.229115 0
M  V30 567 H 54.2106 3.04344 2.91466 0
M  V30 568 H 52.9346 1.8171 2.71384 0
M  V30 569 H 51.5936 3.42347 1.31127 0
M  V30 570 H 51.2416 3.31296 3.78487 0
M  V30 571 H 50.9416 4.95402 3.15992 0
M  V30 572 H 52.4656 4.59541 4.02063 0
M  V30 573 H 53.8796 5.40903 1.89992 0
M  V30 574 H 52.2766 5.86818 1.25559 0
M  V30 575 H 53.3466 4.84062 0.284894 0
M  V30 576 N 54.6897 -0.239769 1.55765 0
M  V30 577 C 55.6367 -1.29696 1.90913 0
M  V30 578 C 56.6067 -1.47478 0.764164 0
M  V30 579 O 57.7917 -1.61345 1.01845 0
M  V30 580 C 54.9317 -2.64598 2.21544 0
M  V30 581 C 54.0447 -2.54765 3.48882 0
M  V30 582 C 53.1797 -3.82069 3.69049 0
M  V30 583 C 52.2187 -3.66883 4.89963 0
M  V30 584 N 51.3557 -4.86094 5.06614 0
M  V30 585 H 56.1957 -0.990224 2.81067 0
M  V30 586 H 53.7327 -0.477684 1.39128 0
M  V30 587 H 55.6907 -3.43132 2.3731 0
M  V30 588 H 54.3207 -2.93405 1.34585 0
M  V30 589 H 53.3727 -1.67763 3.41409 0
M  V30 590 H 54.6847 -2.39457 4.37563 0
M  V30 591 H 53.8387 -4.69046 3.84812 0
M  V30 592 H 52.5777 -4.00282 2.78614 0
M  V30 593 H 51.5827 -2.78289 4.74168 0
M  V30 594 H 52.8077 -3.50157 5.81865 0
M  V30 595 H 50.7537 -5.04655 4.19117 0
M  V30 596 H 50.6707 -4.73443 5.89396 0
M  V30 597 H 51.9387 -5.74549 5.26795 0
M  V30 598 N 56.1678 -1.49265 -0.50573 0
M  V30 599 C 57.4168 -1.57761 -1.25675 0
M  V30 600 C 57.7298 -0.267371 -1.93764 0
M  V30 601 O 58.9358 -0.230827 -2.70517 0
M  V30 602 C 57.3918 -2.78332 -2.28165 0
M  V30 603 C 56.9998 -4.16096 -1.66037 0
M  V30 604 C 58.7438 -2.96155 -3.04125 0
M  V30 605 C 56.6508 -5.27895 -2.6661 0
M  V30 606 H 55.5808 -0.587391 -0.472745 0
M  V30 607 H 58.2318 -1.75644 -0.53118 0
M  V30 608 H 56.6138 -2.53934 -3.03865 0
M  V30 609 H 57.7878 -4.50612 -0.963622 0
M  V30 610 H 56.1028 -4.03591 -1.02484 0
M  V30 611 H 58.6998 -3.76849 -3.79327 0
M  V30 612 H 59.0428 -2.06534 -3.61455 0
M  V30 613 H 59.5758 -3.2057 -2.35541 0
M  V30 614 H 56.3148 -6.1956 -2.14068 0
M  V30 615 H 55.8348 -4.97839 -3.34539 0
M  V30 616 H 57.5138 -5.57031 -3.29129 0
M  V30 617 N 57.6459 0.756429 -1.3826 0
M  V30 618 C 58.5929 1.87011 -1.35261 0
M  V30 619 C 59.5629 1.64695 -0.215616 0
M  V30 620 O 60.7479 1.864 -0.407399 0
M  V30 621 C 57.8879 3.24275 -1.18068 0
M  V30 622 C 57.0009 3.58442 -2.41129 0
M  V30 623 C 56.1359 4.84994 -2.16689 0
M  V30 624 C 55.1749 5.11939 -3.35537 0
M  V30 625 N 54.3119 6.29685 -3.10549 0
M  V30 626 H 59.1519 1.8891 -2.30472 0
M  V30 627 H 56.6889 0.923373 -1.14509 0
M  V30 628 H 58.6469 4.03479 -1.06116 0
M  V30 629 H 57.2769 3.21711 -0.264973 0
M  V30 630 H 56.3289 2.74103 -2.63764 0
M  V30 631 H 57.6409 3.74283 -3.29717 0
M  V30 632 H 56.7949 5.72135 -2.01857 0
M  V30 633 H 55.5339 4.71286 -1.25462 0
M  V30 634 H 54.5389 4.23268 -3.50891 0
M  V30 635 H 55.7639 5.27546 -4.27635 0
M  V30 636 H 53.7099 6.17306 -2.21967 0
M  V30 637 H 53.6269 6.46014 -3.92686 0
M  V30 638 H 54.8949 7.19722 -2.99367 0
M  V30 639 N 59.124 1.23083 0.984299 0
M  V30 640 C 60.401 0.9689 1.69917 0
M  V30 641 C 60.781 -0.513604 2.04757 0
M  V30 642 O 60.129 -1.48383 1.73767 0
M  V30 643 C 60.339 1.87518 2.94343 0
M  V30 644 C 61.687 2.13636 3.6694 0
M  V30 645 O 62.711 1.85036 3.04368 0
M  V30 646 O 61.57 2.62119 4.79537 0
M  V30 647 H 58.664 0.365095 0.742048 0
M  V30 648 H 61.21 1.34107 1.03987 0
M  V30 649 H 59.982 2.87756 2.65164 0
M  V30 650 H 59.605 1.50514 3.6801 0
M  V30 651 N 60.6021 -1.18246 1.0419 0
M  V30 652 C 61.5521 -2.19843 0.604392 0
M  V30 653 C 62.5361 -1.56962 -0.353814 0
M  V30 654 O 63.7281 -1.76156 -0.17267 0
M  V30 655 C 60.8571 -3.43287 -0.0298975 0
M  V30 656 C 59.9431 -4.13288 0.951531 0
M  V30 657 N 60.3341 -4.59271 2.11906 0
M  V30 658 C 58.6321 -4.39165 0.7778 0
M  V30 659 C 59.3331 -5.13173 2.73912 0
M  V30 660 N 58.3091 -5.04763 2.01779 0
M  V30 661 H 62.1111 -2.53089 1.4941 0
M  V30 662 H 59.6251 -1.34465 0.910658 0
M  V30 663 H 61.6221 -4.15334 -0.361037 0
M  V30 664 H 60.2821 -3.11537 -0.915127 0
M  V30 665 H 61.2931 -4.5368 2.49789 0
M  V30 666 H 57.9701 -4.17461 -0.0572331 0
M  V30 667 H 59.3601 -5.58947 3.72864 0
M  V30 668 N 62.0802 -0.821533 -1.34494 0
M  V30 669 C 63.3282 -0.408139 -1.97936 0
M  V30 670 C 63.6492 1.03193 -1.65457 0
M  V30 671 O 62.9192 1.71622 -0.944595 0
M  V30 672 H 61.4992 -0.147928 -0.732206 0
M  V30 673 H 64.1612 -1.05067 -1.64155 0
M  V30 674 H 63.2572 -0.52601 -3.07635 0
M  V30 675 N 63.5583 1.46682 -0.576371 0
M  V30 676 C 64.7833 2.07304 -0.0630475 0
M  V30 677 C 65.2083 1.42329 1.2298 0
M  V30 678 O 64.5663 0.504865 1.74129 0
M  V30 679 C 64.6143 3.60472 0.095895 0
M  V30 680 O 63.7183 3.95927 1.15394 0
M  V30 681 H 63.0593 0.661288 -0.0599463 0
M  V30 682 H 65.5893 1.88417 -0.797511 0
M  V30 683 H 65.5993 4.06865 0.304071 0
M  V30 684 H 64.2743 4.07157 -0.84828 0
M  V30 685 H 62.8513 3.61252 0.924724 0
M  V30 686 N 65.0364 0.313813 1.54444 0
M  V30 687 C 66.2854 -0.292519 1.99568 0
M  V30 688 C 66.5984 -1.54011 1.20582 0
M  V30 689 O 67.8044 -2.22183 1.56035 0
M  V30 690 C 66.2604 -0.571752 3.55329 0
M  V30 691 C 65.8684 0.658229 4.43138 0
M  V30 692 C 67.6124 -1.13857 4.08946 0
M  V30 693 C 65.5194 0.351439 5.90355 0
M  V30 694 H 64.4494 -0.113079 0.745472 0
M  V30 695 H 67.1004 0.424518 1.78522 0
M  V30 696 H 65.4824 -1.34872 3.72325 0
M  V30 697 H 66.6564 1.43403 4.37918 0
M  V30 698 H 64.9714 1.14458 4.0036 0
M  V30 699 H 67.5684 -1.38257 5.16516 0
M  V30 700 H 67.9114 -2.08489 3.6033 0
M  V30 701 H 68.4444 -0.423015 3.95544 0
M  V30 702 H 65.1834 1.26667 6.43145 0
M  V30 703 H 64.7034 -0.386842 5.98551 0
M  V30 704 H 66.3824 -0.0423134 6.46986 0
M  V30 705 N 66.5145 -1.57545 0.0417849 0
M  V30 706 C 67.4465 -2.07904 -0.964799 0
M  V30 707 C 68.4595 -1.00497 -1.28079 0
M  V30 708 O 69.6485 -1.28087 -1.24322 0
M  V30 709 C 66.7485 -2.49928 -2.28887 0
M  V30 710 C 65.9215 -3.80562 -2.15619 0
M  V30 711 C 64.9805 -4.08999 -3.31069 0
M  V30 712 O 64.0065 -4.79061 -3.0739 0
M  V30 713 N 65.2085 -3.6017 -4.55256 0
M  V30 714 H 67.9735 -2.94886 -0.535029 0
M  V30 715 H 65.5345 -1.61252 -0.144681 0
M  V30 716 H 67.5265 -2.66034 -3.04972 0
M  V30 717 H 66.0965 -1.68245 -2.63463 0
M  V30 718 H 65.3165 -3.74129 -1.24183 0
M  V30 719 H 66.6045 -4.66126 -2.03971 0
M  V30 720 H 66.0025 -3.03512 -4.77386 0
M  V30 721 H 64.5595 -3.81532 -5.28466 0
M  V30 722 N 67.9926 0.231505 -1.5589 0
M  V30 723 C 69.2226 0.973092 -1.82248 0
M  V30 724 C 69.6306 1.78845 -0.617328 0
M  V30 725 O 68.9736 1.78752 0.423499 0
M  V30 726 C 69.0356 1.94732 -3.02192 0
M  V30 727 C 68.6996 1.31743 -4.37599 0
M  V30 728 C 69.6966 0.712238 -5.14998 0
M  V30 729 C 67.3816 1.33218 -4.84312 0
M  V30 730 C 69.3756 0.130195 -6.37267 0
M  V30 731 C 67.0626 0.746286 -6.06526 0
M  V30 732 C 68.0606 0.146337 -6.82843 0
M  V30 733 O 67.7486 -0.430465 -8.02747 0
M  V30 734 H 67.4806 0.29125 -0.61004 0
M  V30 735 H 70.0346 0.254915 -2.03812 0
M  V30 736 H 68.2646 2.70422 -2.76422 0
M  V30 737 H 69.9536 2.55362 -3.15508 0
M  V30 738 H 70.7196 0.69324 -4.8002 0
M  V30 739 H 66.5986 1.78854 -4.24891 0
M  V30 740 H 70.1426 -0.33871 -6.96777 0
M  V30 741 H 66.0396 0.762663 -6.40979 0
M  V30 742 H 66.8076 -0.323818 -8.17859 0
M  V30 743 N 69.4707 1.49531 0.497807 0
M  V30 744 C 70.4337 1.65916 1.58128 0
M  V30 745 C 71.4337 0.530825 1.51786 0
M  V30 746 O 72.6237 0.797342 1.54881 0
M  V30 747 C 69.7557 1.65951 2.9778 0
M  V30 748 H 70.9487 2.62556 1.44929 0
M  V30 749 H 68.5017 1.38611 0.722275 0
M  V30 750 H 69.2367 0.709065 3.16453 0
M  V30 751 H 69.0217 2.47897 3.03792 0
M  V30 752 H 70.5117 1.80673 3.76493 0
M  V30 753 N 70.9488 -0.749086 1.3866 0
M  V30 754 C 71.8958 -1.86291 1.36251 0
M  V30 755 C 72.8658 -1.64578 0.224347 0
M  V30 756 O 74.0508 -1.86181 0.417279 0
M  V30 757 C 71.1908 -3.23644 1.19786 0
M  V30 758 C 70.3038 -3.57158 2.43027 0
M  V30 759 C 69.4388 -4.83838 2.19258 0
M  V30 760 C 68.4778 -5.10152 3.38247 0
M  V30 761 N 67.6148 -6.28029 3.13884 0
M  V30 762 H 72.4548 -1.87685 2.3147 0
M  V30 763 H 69.9918 -0.917287 1.14997 0
M  V30 764 H 71.9498 -4.0291 1.08254 0
M  V30 765 H 70.5798 -3.21566 0.282031 0
M  V30 766 H 69.6318 -2.72701 2.65214 0
M  V30 767 H 70.9438 -3.7253 3.31697 0
M  V30 768 H 70.0978 -5.71057 2.04888 0
M  V30 769 H 68.8368 -4.70614 1.2796 0
M  V30 770 H 67.8418 -4.21401 3.53131 0
M  V30 771 H 69.0668 -5.25271 4.30427 0
M  V30 772 H 67.0128 -6.1612 2.25238 0
M  V30 773 H 66.9298 -6.43922 3.96106 0
M  V30 774 H 68.1978 -7.18124 3.03179 0
M  V30 775 N 72.4269 -1.23603 -0.977757 0
M  V30 776 C 73.3369 -1.03632 -2.1047 0
M  V30 777 C 74.3529 0.0199435 -1.73989 0
M  V30 778 O 75.5289 -0.176076 -2.00629 0
M  V30 779 C 72.5939 -0.63276 -3.40877 0
M  V30 780 C 71.6549 -1.76437 -3.91367 0
M  V30 781 C 70.8879 -1.37997 -5.15551 0
M  V30 782 O 71.1109 -0.265357 -5.69782 0
M  V30 783 O 70.0449 -2.20201 -5.60174 0
M  V30 784 H 73.8709 -1.98086 -2.30208 0
M  V30 785 H 71.4559 -1.02332 -1.08851 0
M  V30 786 H 73.3379 -0.418761 -4.19314 0
M  V30 787 H 72.0129 0.282754 -3.22463 0
M  V30 788 H 70.9199 -2.03304 -3.14036 0
M  V30 789 H 72.2529 -2.6583 -4.14241 0
M  V30 790 N 73.905 1.17692 -1.04816 0
M  V30 791 C 74.855 2.1952 -0.616042 0
M  V30 792 C 75.839 1.57147 0.345485 0
M  V30 793 O 77.031 1.76245 0.163325 0
M  V30 794 C 74.16 3.43298 0.0116917 0
M  V30 795 C 73.246 4.12777 -0.973435 0
M  V30 796 N 73.637 4.5814 -2.14339 0
M  V30 797 C 71.935 4.38747 -0.80108 0
M  V30 798 C 72.636 5.11713 -2.7663 0
M  V30 799 N 71.612 5.03686 -2.04453 0
M  V30 800 H 75.414 2.52293 -1.5075 0
M  V30 801 H 72.928 1.3398 -0.917776 0
M  V30 802 H 74.925 4.15519 0.339006 0
M  V30 803 H 73.585 3.12018 0.898593 0
M  V30 804 H 74.596 4.52349 -2.52191 0
M  V30 805 H 71.273 4.17485 0.0350934 0
M  V30 806 H 72.663 5.56962 -3.75823 0
M  V30 807 N 75.3831 0.828654 1.34056 0
M  V30 808 C 76.6291 0.42008 1.98402 0
M  V30 809 C 76.9621 -1.01564 1.65525 0
M  V30 810 O 76.2371 -1.70834 0.929831 0
M  V30 811 C 76.5201 0.62927 3.54559 0
M  V30 812 C 76.3731 2.11152 3.97159 0
M  V30 813 C 77.6921 0.0688756 4.40046 0
M  V30 814 H 74.8111 0.154104 0.720709 0
M  V30 815 H 77.4531 1.04228 1.5886 0
M  V30 816 H 75.6031 0.0996418 3.88372 0
M  V30 817 H 77.2751 2.70522 3.73651 0
M  V30 818 H 75.5181 2.59985 3.47261 0
M  V30 819 H 76.1891 2.20868 5.05887 0
M  V30 820 H 78.6651 0.521458 4.1282 0
M  V30 821 H 77.5411 0.245006 5.48353 0
M  V30 822 H 77.8021 -1.0266 4.30015 0
M  V30 823 N 76.8612 -1.46375 0.584142 0
M  V30 824 C 77.8082 -2.30323 -0.148286 0
M  V30 825 C 78.7782 -1.40703 -0.882713 0
M  V30 826 O 79.9632 -1.69651 -0.873099 0
M  V30 827 C 77.1032 -3.25196 -1.15507 0
M  V30 828 C 76.2162 -4.29915 -0.423943 0
M  V30 829 C 75.3512 -5.11914 -1.41838 0
M  V30 830 C 74.3902 -6.08381 -0.673736 0
M  V30 831 N 73.5272 -6.83242 -1.6163 0
M  V30 832 H 78.3672 -2.92427 0.573644 0
M  V30 833 H 75.9042 -1.44118 0.294703 0
M  V30 834 H 77.8622 -3.78646 -1.75166 0
M  V30 835 H 76.4922 -2.64898 -1.8447 0
M  V30 836 H 75.5442 -3.7931 0.287714 0
M  V30 837 H 76.8562 -4.98549 0.158128 0
M  V30 838 H 76.0102 -5.69648 -2.08773 0
M  V30 839 H 74.7492 -4.43243 -2.03438 0
M  V30 840 H 73.7542 -5.49799 0.00938483 0
M  V30 841 H 74.9792 -6.79071 -0.0631082 0
M  V30 842 H 72.9252 -6.1728 -2.22038 0
M  V30 843 H 72.8422 -7.48144 -1.08707 0
M  V30 844 H 74.1102 -7.45534 -2.27596 0
M  V30 845 N 78.3393 -0.321999 -1.54275 0
M  V30 846 C 79.5643 0.285791 -2.05422 0
M  V30 847 C 79.9893 1.45124 -1.19669 0
M  V30 848 O 79.3473 1.80132 -0.205441 0
M  V30 849 C 79.3953 0.69956 -3.53749 0
M  V30 850 O 78.4993 1.8021 -3.70942 0
M  V30 851 H 77.8403 0.0518962 -0.661969 0
M  V30 852 H 80.3703 -0.469954 -1.9913 0
M  V30 853 H 80.3803 0.982649 -3.9599 0
M  V30 854 H 79.0553 -0.152864 -4.15619 0
M  V30 855 H 77.6323 1.51794 -3.40607 0
M  V30 856 N 79.8174 1.5752 -0.0501392 0
M  V30 857 C 80.7804 2.1037 0.909786 0
M  V30 858 C 81.7804 1.02308 1.24056 0
M  V30 859 O 82.9704 1.28385 1.17741 0
M  V30 860 C 80.1024 2.58708 2.21998 0
M  V30 861 H 81.2954 2.96479 0.451665 0
M  V30 862 H 78.8484 1.55038 0.198248 0
M  V30 863 H 79.5834 1.75989 2.72394 0
M  V30 864 H 79.3684 3.37675 1.99295 0
M  V30 865 H 80.8584 2.99747 2.9076 0
M  V30 866 N 81.2955 -0.223234 1.56011 0
M  V30 867 C 82.5445 -0.945912 1.78144 0
M  V30 868 C 82.8575 -1.85567 0.618396 0
M  V30 869 O 84.0635 -2.61688 0.723318 0
M  V30 870 C 82.5195 -1.73216 3.15475 0
M  V30 871 C 82.1275 -0.868619 4.39499 0
M  V30 872 C 83.8715 -2.44615 3.46935 0
M  V30 873 C 81.7785 -1.65212 5.67855 0
M  V30 874 H 80.7085 -0.356929 0.664167 0
M  V30 875 H 83.3595 -0.199845 1.82409 0
M  V30 876 H 81.7415 -2.52107 3.05382 0
M  V30 877 H 82.9155 -0.120366 4.60643 0
M  V30 878 H 81.2305 -0.26683 4.15544 0
M  V30 879 H 83.8275 -3.03732 4.40058 0
M  V30 880 H 84.1705 -3.17417 2.69355 0
M  V30 881 H 84.7035 -1.72715 3.58349 0
M  V30 882 H 81.4425 -0.967407 6.48322 0
M  V30 883 H 80.9625 -2.37503 5.50774 0
M  V30 884 H 82.6415 -2.21322 6.07968 0
M  V30 885 N 82.7736 -1.49793 -0.48987 0
M  V30 886 C 84.1896 -1.36803 -0.822022 0
M  V30 887 C 84.3896 -0.409652 -1.97292 0
M  V30 888 O 83.4456 0.154614 -2.52026 0
M  V30 889 C 84.7586 -2.77768 -1.15175 0
M  V30 890 C 86.3066 -2.86549 -1.25931 0
M  V30 891 C 86.7816 -4.28306 -1.62228 0
M  V30 892 N 88.2726 -4.31169 -1.69256 0
M  V30 893 C 89.0076 -5.37832 -1.98807 0
M  V30 894 N 88.5036 -6.54726 -2.26507 0
M  V30 895 N 90.2966 -5.25258 -2.00152 0
M  V30 896 H 82.4476 -2.10691 0.268881 0
M  V30 897 H 84.7106 -0.946241 0.057728 0
M  V30 898 H 84.4166 -3.49648 -0.379335 0
M  V30 899 H 84.2906 -3.13836 -2.09253 0
M  V30 900 H 86.6776 -2.14899 -2.02243 0
M  V30 901 H 86.7586 -2.54049 -0.298776 0
M  V30 902 H 86.4026 -5.00486 -0.864622 0
M  V30 903 H 86.3326 -4.58279 -2.594 0
M  V30 904 H 88.8236 -3.4687 -1.49965 0
M  V30 905 H 89.1366 -7.31833 -2.48276 0
M  V30 906 H 87.4816 -6.57933 -2.23939 0
M  V30 907 H 90.6726 -4.32938 -1.77996 0
M  V30 908 H 90.8456 -6.08476 -2.22848 0
M  V30 909 N 84.2517 0.741722 -1.39055 0
M  V30 910 C 85.2147 1.83733 -1.37021 0
M  V30 911 C 86.2147 1.58542 -0.268534 0
M  V30 912 O 87.4047 1.66067 -0.526076 0
M  V30 913 C 84.5367 3.2141 -1.13617 0
M  V30 914 H 85.7297 1.86941 -2.34506 0
M  V30 915 H 83.2827 0.944676 -1.24521 0
M  V30 916 H 84.0177 3.23865 -0.167863 0
M  V30 917 H 83.8027 3.4109 -1.93391 0
M  V30 918 H 85.2927 4.01477 -1.14918 0
M  V30 919 N 85.7298 1.2412 0.971189 0
M  V30 920 C 87.0068 0.986867 1.6888 0
M  V30 921 C 87.3868 -0.491857 2.0529 0
M  V30 922 O 86.7348 -1.46531 1.75331 0
M  V30 923 C 86.9448 1.9063 2.92338 0
M  V30 924 C 88.2928 2.17515 3.64654 0
M  V30 925 O 89.3168 1.88254 3.02388 0
M  V30 926 O 88.1758 2.6719 4.7673 0
M  V30 927 H 85.2698 0.372944 0.738134 0
M  V30 928 H 87.8158 1.35203 1.02559 0
M  V30 929 H 86.5878 2.90552 2.62097 0
M  V30 930 H 86.2108 1.54408 3.66393 0
M  V30 931 N 87.2079 -1.17134 1.05439 0
M  V30 932 C 88.4539 -1.87733 0.767077 0
M  V30 933 C 88.7869 -1.8098 -0.704253 0
M  V30 934 O 88.0619 -1.21951 -1.5152 0
M  V30 935 C 88.3449 -3.37659 1.25133 0
M  V30 936 C 88.1979 -3.53149 2.78578 0
M  V30 937 C 89.5169 -4.31768 0.852324 0
M  V30 938 H 86.6359 -0.681687 0.280129 0
M  V30 939 H 89.2779 -1.37732 1.30881 0
M  V30 940 H 87.4279 -3.80373 0.790469 0
M  V30 941 H 89.0999 -3.19434 3.32806 0
M  V30 942 H 87.3429 -2.95345 3.17732 0
M  V30 943 H 88.0139 -4.58403 3.07523 0
M  V30 944 H 90.4899 -3.96909 1.24911 0
M  V30 945 H 89.3659 -5.35199 1.21873 0
M  V30 946 H 89.6269 -4.41429 -0.243485 0
M  V30 947 N 88.686 -0.835752 -1.33615 0
M  V30 948 C 89.963 -0.352017 -1.92406 0
M  V30 949 C 90.343 1.16225 -1.76224 0
M  V30 950 O 89.691 1.97526 -1.14873 0
M  V30 951 C 89.901 -0.795485 -3.39813 0
M  V30 952 C 91.249 -0.801703 -4.16963 0
M  V30 953 O 92.273 -0.738889 -3.48452 0
M  V30 954 O 91.132 -0.886607 -5.3926 0
M  V30 955 H 88.226 -0.0989641 -0.821057 0
M  V30 956 H 90.772 -0.921397 -1.42507 0
M  V30 957 H 89.544 -1.83795 -3.45449 0
M  V30 958 H 89.167 -0.202505 -3.97084 0
M  V30 959 N 90.1641 1.46063 -0.591896 0
M  V30 960 C 91.3921 2.06717 -0.0868936 0
M  V30 961 C 91.8071 1.43916 1.22203 0
M  V30 962 O 91.1641 0.547698 1.74088 0
M  V30 963 C 91.2151 3.6142 0.0758725 0
M  V30 964 O 90.9361 4.21874 -1.18126 0
M  V30 965 C 92.4371 4.39025 0.61416 0
M  V30 966 H 89.6571 0.668162 -0.0616518 0
M  V30 967 H 92.2011 1.8755 -0.815175 0
M  V30 968 H 90.3561 3.79983 0.754413 0
M  V30 969 H 90.7701 5.14861 -1.00092 0
M  V30 970 H 92.2441 5.4783 0.677193 0
M  V30 971 H 92.7211 4.07708 1.63312 0
M  V30 972 H 93.3271 4.2529 -0.0298142 0
M  V30 973 N 91.6422 0.330177 1.54103 0
M  V30 974 C 92.5902 -0.548226 2.26047 0
M  V30 975 C 93.5842 -1.11309 1.27698 0
M  V30 976 O 94.7902 -1.06036 1.45452 0
M  V30 977 H 91.1652 -0.195456 0.726155 0
M  V30 978 H 93.1362 0.0807567 2.98291 0
M  V30 979 C 91.8852 -1.69415 3.03634 0
M  V30 980 H 91.2082 -1.26876 3.79134 0
M  V30 981 H 92.6482 -2.28423 3.5721 0
M  V30 982 C 91.1072 -2.61569 2.12328 0
M  V30 983 O 91.6372 -3.63462 1.7105 0
M  V30 984 N 89.8432 -2.29952 1.77681 0
M  V30 985 H 89.3902 -1.47134 2.11446 0
M  V30 986 H 89.3482 -2.91871 1.16869 0
M  V30 987 N 93.1203 -1.57491 0.0584922 0
M  V30 988 C 94.0503 -2.14988 -0.911178 0
M  V30 989 C 95.0313 -1.07343 -1.31952 0
M  V30 990 O 96.2163 -1.35318 -1.39294 0
M  V30 991 C 93.3463 -2.70078 -2.18347 0
M  V30 992 C 92.3003 -3.82771 -1.91495 0
M  V30 993 C 91.6263 -4.24408 -3.25241 0
M  V30 994 C 92.9263 -5.07592 -1.23075 0
M  V30 995 H 94.6203 -2.96263 -0.432246 0
M  V30 996 H 92.1663 -1.42512 -0.206469 0
M  V30 997 H 94.1193 -3.08943 -2.86587 0
M  V30 998 H 92.8433 -1.86005 -2.68458 0
M  V30 999 H 91.5023 -3.44389 -1.25664 0
M  V30 1000 H 91.1503 -3.37275 -3.73168 0
M  V30 1001 H 90.8503 -5.00366 -3.08071 0
M  V30 1002 H 92.3743 -4.65879 -3.94701 0
M  V30 1003 H 93.7883 -5.43857 -1.81362 0
M  V30 1004 H 92.1853 -5.88741 -1.16207 0
M  V30 1005 H 93.2553 -4.84454 -0.207847 0
M  V30 1006 N 94.5984 0.214957 -1.56127 0
M  V30 1007 C 95.8234 0.95924 -1.83884 0
M  V30 1008 C 96.2484 1.7689 -0.639644 0
M  V30 1009 O 95.6064 1.76566 0.411601 0
M  V30 1010 C 95.6544 1.84723 -3.09693 0
M  V30 1011 O 94.7584 2.94346 -2.8885 0
M  V30 1012 H 94.0994 0.27125 -0.606069 0
M  V30 1013 H 96.6294 0.226276 -2.03345 0
M  V30 1014 H 96.6394 2.25576 -3.39969 0
M  V30 1015 H 95.3144 1.25218 -3.96602 0
M  V30 1016 H 93.8914 2.57391 -2.69823 0
M  V30 1017 N 96.0765 1.50051 0.48192 0
M  V30 1018 C 97.0235 1.68122 1.58125 0
M  V30 1019 C 97.9935 0.522545 1.57666 0
M  V30 1020 O 99.1785 0.751844 1.75362 0
M  V30 1021 C 96.3185 1.77142 2.96167 0
M  V30 1022 C 95.4315 3.0444 3.06497 0
M  V30 1023 C 94.5665 3.04321 4.35387 0
M  V30 1024 C 93.6055 4.26118 4.3942 0
M  V30 1025 N 92.7425 4.238 5.59766 0
M  V30 1026 H 97.5825 2.6198 1.42022 0
M  V30 1027 H 95.1195 1.29877 0.690687 0
M  V30 1028 H 97.0775 1.80352 3.76203 0
M  V30 1029 H 95.7075 0.867329 3.1093 0
M  V30 1030 H 94.7595 3.10752 2.19402 0
M  V30 1031 H 96.0715 3.94426 3.05336 0
M  V30 1032 H 95.2255 3.062 5.23762 0
M  V30 1033 H 93.9645 2.12147 4.39141 0
M  V30 1034 H 92.9695 4.24463 3.49444 0
M  V30 1035 H 94.1945 5.19507 4.37366 0
M  V30 1036 H 92.1405 3.34474 5.64326 0
M  V30 1037 H 92.0575 5.07542 5.60301 0
M  V30 1038 H 93.3255 4.2981 6.50295 0
M  V30 1039 N 97.5546 -0.734337 1.39446 0
M  V30 1040 C 98.4846 -1.86155 1.40955 0
M  V30 1041 C 99.4656 -1.67898 0.272827 0
M  V30 1042 O 100.651 -1.88207 0.478743 0
M  V30 1043 C 97.7806 -3.23912 1.25294 0
M  V30 1044 C 96.7346 -3.56808 2.36373 0
M  V30 1045 C 96.0606 -4.93508 2.058 0
M  V30 1046 C 97.3606 -3.59713 3.78687 0
M  V30 1047 H 99.0546 -1.8515 2.35287 0
M  V30 1048 H 96.6006 -0.889367 1.13253 0
M  V30 1049 H 98.5536 -4.02443 1.2497 0
M  V30 1050 H 97.2776 -3.25446 0.274308 0
M  V30 1051 H 95.9366 -2.80606 2.35914 0
M  V30 1052 H 95.5846 -4.91623 1.06374 0
M  V30 1053 H 95.2846 -5.16486 2.80208 0
M  V30 1054 H 96.8086 -5.74396 2.07128 0
M  V30 1055 H 98.2226 -4.2832 3.81071 0
M  V30 1056 H 96.6196 -3.94209 4.52459 0
M  V30 1057 H 97.6896 -2.59504 4.09617 0
M  V30 1058 N 99.0327 -1.24633 -0.964593 0
M  V30 1059 C 100.279 -1.08949 -1.71049 0
M  V30 1060 C 100.612 0.370302 -1.90637 0
M  V30 1061 O 99.8867 1.27349 -1.47011 0
M  V30 1062 C 100.17 -1.83329 -3.0994 0
M  V30 1063 C 100.023 -3.37077 -2.97824 0
M  V30 1064 C 101.342 -1.60846 -4.09654 0
M  V30 1065 H 98.4607 -0.397178 -0.620821 0
M  V30 1066 H 101.103 -1.5334 -1.12191 0
M  V30 1067 H 99.2527 -1.45597 -3.60186 0
M  V30 1068 H 100.925 -3.84425 -2.5498 0
M  V30 1069 H 99.1677 -3.65298 -2.33965 0
M  V30 1070 H 99.8387 -3.84324 -3.96231 0
M  V30 1071 H 102.315 -1.93674 -3.68279 0
M  V30 1072 H 101.191 -2.1534 -5.04896 0
M  V30 1073 H 101.452 -0.547434 -4.38698 0
M  V30 1074 N 100.511 1.16574 -1.06058 0
M  V30 1075 C 101.922 1.68662 -0.800632 0
M  V30 1076 C 102.273 1.84184 0.67608 0
M  V30 1077 O 101.398 1.53568 1.52466 0
M  V30 1078 C 101.993 3.06356 -1.44676 0
M  V30 1079 C 100.552 3.55575 -1.23465 0
M  V30 1080 C 99.6988 2.31616 -1.52477 0
M  V30 1081 H 102.65 1.00969 -1.22438 0
M  V30 1082 H 102.671 3.70636 -0.860788 0
M  V30 1083 H 102.183 2.95027 -2.52152 0
M  V30 1084 H 100.284 3.72167 -0.179527 0
M  V30 1085 H 100.397 4.37812 -1.94571 0
M  V30 1086 H 98.7608 2.36512 -0.945209 0
M  V30 1087 H 99.5438 2.22887 -2.61106 0
M  V30 1088 N 101.989 0.842826 1.3317 0
M  V30 1089 C 103.217 0.454055 2.01856 0
M  V30 1090 C 103.632 -0.94587 1.63397 0
M  V30 1091 O 102.989 -1.61534 0.849302 0
M  V30 1092 C 103.04 0.569715 3.56982 0
M  V30 1093 O 102.761 1.91448 3.94055 0
M  V30 1094 C 104.262 0.178412 4.42941 0
M  V30 1095 H 101.482 0.17979 0.646465 0
M  V30 1096 H 104.026 1.1365 1.70012 0
M  V30 1097 H 102.181 -0.0648587 3.87346 0
M  V30 1098 H 102.595 1.90282 4.88767 0
M  V30 1099 H 104.069 0.310376 5.51127 0
M  V30 1100 H 104.546 -0.880056 4.30293 0
M  V30 1101 H 105.152 0.787579 4.17944 0
M  V30 1102 N 103.467 -1.45747 0.599634 0
M  V30 1103 C 104.692 -2.07178 0.0960198 0
M  V30 1104 C 105.117 -1.44268 -1.207 0
M  V30 1105 O 104.475 -0.532503 -1.73303 0
M  V30 1106 C 104.523 -3.60579 -0.0385348 0
M  V30 1107 O 103.627 -3.97713 -1.0908 0
M  V30 1108 H 102.968 -0.660251 0.0704593 0
M  V30 1109 H 105.498 -1.87124 0.827385 0
M  V30 1110 H 105.508 -4.07298 -0.239304 0
M  V30 1111 H 104.183 -4.05756 0.912947 0
M  V30 1112 H 102.76 -3.62678 -0.867135 0
M  V30 1113 N 104.945 -0.338344 -1.53925 0
M  V30 1114 C 106.173 0.261298 -2.05243 0
M  V30 1115 C 106.588 1.44625 -1.21363 0
M  V30 1116 O 105.945 1.80811 -0.247736 0
M  V30 1117 C 105.996 0.681412 -3.5502 0
M  V30 1118 O 105.717 -0.456414 -4.35716 0
M  V30 1119 C 107.218 1.34232 -4.22489 0
M  V30 1120 H 104.438 0.0513685 -0.669031 0
M  V30 1121 H 106.982 -0.488822 -1.98572 0
M  V30 1122 H 105.137 1.38148 -3.61931 0
M  V30 1123 H 105.551 -0.122564 -5.24357 0
M  V30 1124 H 107.025 1.58708 -5.28693 0
M  V30 1125 H 107.502 2.29426 -3.74514 0
M  V30 1126 H 108.108 0.684424 -4.19757 0
M  V30 1127 N 106.423 1.57458 -0.0668435 0
M  V30 1128 C 107.386 2.11323 0.887422 0
M  V30 1129 C 108.386 1.03618 1.22964 0
M  V30 1130 O 109.576 1.29626 1.16373 0
M  V30 1131 C 106.708 2.61048 2.19242 0
M  V30 1132 H 107.901 2.96942 0.420194 0
M  V30 1133 H 105.454 1.55239 0.181793 0
M  V30 1134 H 106.189 1.78868 2.70512 0
M  V30 1135 H 105.974 3.39769 1.95702 0
M  V30 1136 H 107.464 3.02814 2.87565 0
M  V30 1137 N 107.901 -0.206675 1.56239 0
M  V30 1138 C 109.317 -0.557025 1.49564 0
M  V30 1139 C 109.517 -1.86424 0.764735 0
M  V30 1140 O 108.573 -2.50584 0.310491 0
M  V30 1141 C 109.886 -0.622478 2.94186 0
M  V30 1142 C 111.434 -0.712099 3.04792 0
M  V30 1143 C 111.909 -0.808767 4.50803 0
M  V30 1144 N 113.4 -0.8726 4.54907 0
M  V30 1145 C 114.135 -0.967365 5.65181 0
M  V30 1146 N 113.631 -1.02515 6.85173 0
M  V30 1147 N 115.424 -1.00366 5.53067 0
M  V30 1148 H 107.575 0.650943 2.02179 0
M  V30 1149 H 109.838 0.230387 0.919579 0
M  V30 1150 H 109.544 0.268727 3.50672 0
M  V30 1151 H 109.418 -1.4811 3.46905 0
M  V30 1152 H 111.805 -1.59374 2.48363 0
M  V30 1153 H 111.886 0.172489 2.55218 0
M  V30 1154 H 111.53 0.0684754 5.07854 0
M  V30 1155 H 111.46 -1.70899 4.98098 0
M  V30 1156 H 113.951 -0.837657 3.68499 0
M  V30 1157 H 114.264 -1.09765 7.64965 0
M  V30 1158 H 112.609 -0.994026 6.87855 0
M  V30 1159 H 115.8 -0.95527 4.58249 0
M  V30 1160 H 115.973 -1.07405 6.39037 0
M  V30 1161 N 109.379 -1.50304 -0.473955 0
M  V30 1162 C 110.329 -1.65347 -1.56985 0
M  V30 1163 C 111.313 -0.508176 -1.52664 0
M  V30 1164 O 112.505 -0.762446 -1.59737 0
M  V30 1165 C 109.634 -1.74832 -2.95447 0
M  V30 1166 C 108.72 -2.95028 -3.04662 0
M  V30 1167 N 109.111 -4.18747 -2.83698 0
M  V30 1168 C 107.409 -2.93527 -3.35795 0
M  V30 1169 C 108.11 -4.99687 -2.97805 0
M  V30 1170 N 107.086 -4.33585 -3.2788 0
M  V30 1171 H 110.888 -2.58698 -1.39472 0
M  V30 1172 H 108.402 -1.47449 -0.680629 0
M  V30 1173 H 110.399 -1.83712 -3.7424 0
M  V30 1174 H 109.059 -0.826376 -3.14008 0
M  V30 1175 H 110.07 -4.48291 -2.59337 0
M  V30 1176 H 106.747 -2.10821 -3.60362 0
M  V30 1177 H 108.137 -6.08057 -2.85861 0
M  V30 1178 N 110.857 0.726932 -1.39834 0
M  V30 1179 C 112.268 1.30558 -1.3346 0
M  V30 1180 C 112.619 1.962 -0.00273003 0
M  V30 1181 O 111.744 1.96826 0.899371 0
M  V30 1182 C 112.339 2.37404 -2.41713 0
M  V30 1183 C 110.898 2.90921 -2.38835 0
M  V30 1184 C 110.045 1.64578 -2.2318 0
M  V30 1185 H 112.996 0.523862 -1.49804 0
M  V30 1186 H 113.017 3.17984 -2.08966 0
M  V30 1187 H 112.529 1.89599 -3.38635 0
M  V30 1188 H 110.63 3.42985 -1.45575 0
M  V30 1189 H 110.743 3.43487 -3.33997 0
M  V30 1190 H 109.107 1.89219 -1.70494 0
M  V30 1191 H 109.89 1.18814 -3.22084 0
M  V30 1192 N 112.336 1.25143 0.95797 0
M  V30 1193 C 113.266 1.07711 2.07173 0
M  V30 1194 C 114.247 -0.0128462 1.70095 0
M  V30 1195 O 115.432 0.156061 1.93572 0
M  V30 1196 C 112.562 0.691503 3.40346 0
M  V30 1197 C 111.516 1.73132 3.9142 0
M  V30 1198 C 110.842 1.20049 5.21049 0
M  V30 1199 C 112.142 3.1294 4.1817 0
M  V30 1200 H 113.836 2.00873 2.22014 0
M  V30 1201 H 111.382 0.967191 1.06684 0
M  V30 1202 H 113.335 0.556505 4.17709 0
M  V30 1203 H 112.059 -0.275819 3.25433 0
M  V30 1204 H 110.718 1.8547 3.16222 0
M  V30 1205 H 110.366 0.223499 5.02503 0
M  V30 1206 H 110.066 1.89545 5.56189 0
M  V30 1207 H 111.59 1.07782 6.01012 0
M  V30 1208 H 113.004 3.03775 4.86203 0
M  V30 1209 H 111.401 3.79875 4.64559 0
M  V30 1210 H 112.471 3.6025 3.24573 0
M  V30 1211 N 113.814 -1.1601 1.06675 0
M  V30 1212 C 115.225 -1.68235 0.809565 0
M  V30 1213 C 115.576 -1.8454 -0.666303 0
M  V30 1214 O 114.701 -1.54374 -1.5165 0
M  V30 1215 C 115.296 -3.05585 1.46299 0
M  V30 1216 C 113.855 -3.54915 1.25349 0
M  V30 1217 C 113.002 -2.30804 1.53703 0
M  V30 1218 H 115.953 -1.00318 1.22971 0
M  V30 1219 H 115.974 -3.70174 0.880431 0
M  V30 1220 H 115.486 -2.93686 2.53713 0
M  V30 1221 H 113.587 -3.72067 0.199261 0
M  V30 1222 H 113.7 -4.36774 1.9689 0
M  V30 1223 H 112.064 -2.36007 0.957739 0
M  V30 1224 H 112.847 -2.21499 2.62284 0
M  V30 1225 N 115.292 -0.849877 -1.32721 0
M  V30 1226 C 116.703 -0.506188 -1.79707 0
M  V30 1227 C 117.054 0.975627 -1.70223 0
M  V30 1228 O 116.179 1.76078 -1.25799 0
M  V30 1229 C 116.774 -0.912044 -3.26293 0
M  V30 1230 C 115.333 -0.620326 -3.71253 0
M  V30 1231 C 114.48 -1.11439 -2.53922 0
M  V30 1232 H 117.431 -1.03754 -1.20087 0
M  V30 1233 H 117.452 -0.226493 -3.79825 0
M  V30 1234 H 116.964 -1.99057 -3.33164 0
M  V30 1235 H 115.065 0.447674 -3.69901 0
M  V30 1236 H 115.178 -1.18327 -4.64258 0
M  V30 1237 H 113.542 -0.534834 -2.49021 0
M  V30 1238 H 114.325 -2.19992 -2.6355 0
M  V30 1239 N 116.77 1.45427 -0.607355 0
M  V30 1240 C 118.01 2.04128 -0.105458 0
M  V30 1241 C 118.374 1.46555 1.24039 0
M  V30 1242 O 119.575 1.96608 1.833 0
M  V30 1243 C 117.846 3.57338 -0.0665324 0
M  V30 1244 S 119.405 4.37201 0.374207 0
M  V30 1245 H 116.223 0.709278 -0.0494575 0
M  V30 1246 H 118.825 1.78139 -0.805404 0
M  V30 1247 H 117.529 3.96752 -1.04957 0
M  V30 1248 H 117.06 3.87902 0.655415 0
M  V30 1249 H 119.075 4.6888 1.62377 0
M  V30 1250 N 118.248 0.346503 1.53744 0
M  V30 1251 C 119.211 -0.496439 2.23759 0
M  V30 1252 C 120.211 -1.0252 1.2388 0
M  V30 1253 O 121.401 -0.913974 1.48297 0
M  V30 1254 C 118.533 -1.69187 2.95954 0
M  V30 1255 H 119.726 0.115952 2.99676 0
M  V30 1256 H 117.279 0.0978939 1.55993 0
M  V30 1257 H 118.014 -2.34288 2.24231 0
M  V30 1258 H 117.799 -1.31989 3.69217 0
M  V30 1259 H 119.289 -2.28969 3.49232 0
M  V30 1260 N 119.726 -1.57421 0.075193 0
M  V30 1261 C 120.636 -2.1642 -0.905511 0
M  V30 1262 C 121.652 -1.12828 -1.32461 0
M  V30 1263 O 122.828 -1.45109 -1.39661 0
M  V30 1264 C 119.893 -2.71693 -2.15369 0
M  V30 1265 C 118.954 -3.90171 -1.79068 0
M  V30 1266 C 118.187 -4.42798 -2.97936 0
M  V30 1267 O 118.41 -3.94416 -4.12058 0
M  V30 1268 O 117.344 -5.34085 -2.77555 0
M  V30 1269 H 121.17 -3.00588 -0.433626 0
M  V30 1270 H 118.755 -1.48664 -0.148067 0
M  V30 1271 H 120.637 -3.07104 -2.88557 0
M  V30 1272 H 119.312 -1.90582 -2.61649 0
M  V30 1273 H 118.219 -3.59606 -1.03122 0
M  V30 1274 H 119.552 -4.72584 -1.37569 0
M  V30 1275 N 121.204 0.198386 -1.56346 0
M  V30 1276 C 122.451 0.919286 -1.80431 0
M  V30 1277 C 122.779 1.83393 -0.647866 0
M  V30 1278 O 122.034 1.92236 0.366556 0
M  V30 1279 C 122.333 1.77031 -3.10475 0
M  V30 1280 C 121.999 1.00693 -4.39513 0
M  V30 1281 C 120.661 0.796145 -4.74568 0
M  V30 1282 C 123.013 0.469559 -5.19081 0
M  V30 1283 C 120.341 0.0364588 -5.86689 0
M  V30 1284 C 122.693 -0.2769 -6.31994 0
M  V30 1285 C 121.357 -0.49873 -6.65634 0
M  V30 1286 H 120.627 0.336391 -0.660244 0
M  V30 1287 H 123.274 0.185872 -1.90596 0
M  V30 1288 H 121.579 2.5723 -2.95533 0
M  V30 1289 H 123.276 2.33065 -3.26315 0
M  V30 1290 H 119.866 1.18122 -4.12001 0
M  V30 1291 H 124.05 0.619816 -4.92414 0
M  V30 1292 H 119.306 -0.145412 -6.11227 0
M  V30 1293 H 123.48 -0.700684 -6.92866 0
M  V30 1294 H 121.107 -1.0893 -7.52355 0
M  V30 1295 N 122.682 1.50554 0.465978 0
M  V30 1296 C 123.931 1.61038 1.21448 0
M  V30 1297 C 124.244 0.31865 1.92987 0
M  V30 1298 O 125.45 0.302469 2.6981 0
M  V30 1299 C 123.906 2.84283 2.20706 0
M  V30 1300 C 123.514 4.20352 1.54946 0
M  V30 1301 C 125.258 3.04115 2.96166 0
M  V30 1302 C 123.165 5.34778 2.5252 0
M  V30 1303 H 122.095 0.599718 0.457005 0
M  V30 1304 H 124.746 1.7699 0.484424 0
M  V30 1305 H 123.128 2.61901 2.97025 0
M  V30 1306 H 124.302 4.53008 0.843811 0
M  V30 1307 H 122.617 4.06167 0.917475 0
M  V30 1308 H 125.214 3.86774 3.69202 0
M  V30 1309 H 125.557 2.16045 3.55852 0
M  V30 1310 H 126.09 3.26702 2.26959 0
M  V30 1311 H 122.829 6.25018 1.97566 0
M  V30 1312 H 122.349 5.06534 3.21222 0
M  V30 1313 H 124.028 5.65561 3.14245 0
M  V30 1314 N 124.16 -0.719506 1.40217 0
M  V30 1315 C 125.437 -1.47221 1.28784 0
M  V30 1316 C 125.817 -2.10883 -0.0956067 0
M  V30 1317 O 125.165 -1.99833 -1.10811 0
M  V30 1318 C 125.375 -2.5111 2.42373 0
M  V30 1319 C 126.723 -3.17053 2.82423 0
M  V30 1320 O 127.747 -2.61429 2.41937 0
M  V30 1321 O 126.606 -4.17742 3.52355 0
M  V30 1322 H 123.7 -0.654491 0.50554 0
M  V30 1323 H 126.246 -0.752014 1.52128 0
M  V30 1324 H 125.018 -2.02556 3.34793 0
M  V30 1325 H 124.641 -3.3067 2.20778 0
M  V30 1326 N 125.638 -1.25649 -0.95132 0
M  V30 1327 C 126.884 -1.11766 -1.69941 0
M  V30 1328 C 127.239 0.33735 -1.89419 0
M  V30 1329 O 126.532 1.24491 -1.45645 0
M  V30 1330 C 126.726 -1.80909 -3.08231 0
M  V30 1331 C 126.555 -3.32984 -3.02245 0
M  V30 1332 C 125.325 -4.02247 -3.05819 0
M  V30 1333 C 127.523 -4.29332 -2.83157 0
M  V30 1334 N 125.505 -5.41072 -2.90024 0
M  V30 1335 C 126.876 -5.55265 -2.75828 0
M  V30 1336 C 128.931 -4.19707 -2.67863 0
M  V30 1337 C 127.634 -6.72671 -2.54767 0
M  V30 1338 C 129.66 -5.36809 -2.48173 0
M  V30 1339 C 129.022 -6.61683 -2.41567 0
M  V30 1340 H 125.121 -0.463708 -0.629682 0
M  V30 1341 H 127.705 -1.58796 -1.12659 0
M  V30 1342 H 125.876 -1.36369 -3.63673 0
M  V30 1343 H 127.608 -1.59739 -3.71841 0
M  V30 1344 H 124.363 -3.53531 -3.15139 0
M  V30 1345 H 124.787 -6.13938 -2.85323 0
M  V30 1346 H 129.429 -3.23907 -2.71743 0
M  V30 1347 H 127.147 -7.68577 -2.49629 0
M  V30 1348 H 130.733 -5.31224 -2.37259 0
M  V30 1349 H 129.613 -7.50768 -2.26531 0
M  V30 1350 N 127.117 1.15442 -1.07289 0
M  V30 1351 C 128.357 1.8788 -0.805012 0
M  V30 1352 C 128.721 1.80413 0.656907 0
M  V30 1353 O 129.922 2.47874 1.0398 0
M  V30 1354 C 128.193 3.3298 -1.29843 0
M  V30 1355 S 129.752 4.23158 -1.16114 0
M  V30 1356 H 126.57 0.64839 -0.291739 0
M  V30 1357 H 129.172 1.39285 -1.37186 0
M  V30 1358 H 127.876 3.35958 -2.35712 0
M  V30 1359 H 127.407 3.86629 -0.726767 0
M  V30 1360 H 129.422 4.96103 -0.0982778 0
M  V30 1361 N 128.595 0.856903 1.32268 0
M  V30 1362 C 129.528 0.247937 2.26849 0
M  V30 1363 C 130.506 -0.615382 1.50505 0
M  V30 1364 O 131.69 -0.571689 1.79622 0
M  V30 1365 C 128.817 -0.650093 3.32403 0
M  V30 1366 C 127.863 0.140138 4.2627 0
M  V30 1367 S 128.696 1.51004 5.13769 0
M  V30 1368 C 129.852 0.61778 6.22844 0
M  V30 1369 H 130.085 1.04971 2.78152 0
M  V30 1370 H 127.618 0.654665 1.39834 0
M  V30 1371 H 129.576 -1.16256 3.93694 0
M  V30 1372 H 128.237 -1.4257 2.7988 0
M  V30 1373 H 127.43 -0.543945 5.01056 0
M  V30 1374 H 127.032 0.584267 3.69408 0
M  V30 1375 H 129.324 -0.177053 6.77269 0
M  V30 1376 H 130.267 1.33636 6.95375 0
M  V30 1377 H 130.675 0.191124 5.64176 0
M  V30 1378 N 130.073 -1.45103 0.615059 0
M  V30 1379 C 131.036 -2.29025 -0.0895485 0
M  V30 1380 C 132.036 -1.40174 -0.787906 0
M  V30 1381 O 133.226 -1.62217 -0.634933 0
M  V30 1382 C 130.358 -3.21376 -1.13711 0
M  V30 1383 H 131.551 -2.92807 0.648382 0
M  V30 1384 H 129.104 -1.51749 0.374444 0
M  V30 1385 H 129.839 -2.6241 -1.90556 0
M  V30 1386 H 129.624 -3.86834 -0.640475 0
M  V30 1387 H 131.114 -3.84459 -1.63036 0
M  V30 1388 N 131.551 -0.354651 -1.53558 0
M  V30 1389 C 132.499 0.512195 -2.26891 0
M  V30 1390 C 133.493 1.09263 -1.29452 0
M  V30 1391 O 134.699 1.03709 -1.47121 0
M  V30 1392 H 131.074 0.183878 -0.729173 0
M  V30 1393 H 133.045 -0.128202 -2.98124 0
M  V30 1394 C 131.794 1.64563 -3.06291 0
M  V30 1395 H 131.117 1.20829 -3.81104 0
M  V30 1396 H 132.557 2.22711 -3.60799 0
M  V30 1397 C 131.016 2.58158 -2.16462 0
M  V30 1398 O 131.546 3.60695 -1.76811 0
M  V30 1399 N 129.752 2.27096 -1.81317 0
M  V30 1400 H 129.299 1.43751 -2.1376 0
M  V30 1401 H 129.257 2.89975 -1.21498 0
M  V30 1402 N 133.029 1.57378 -0.0835403 0
M  V30 1403 C 134.277 1.93547 0.581718 0
M  V30 1404 C 134.598 0.96524 1.69435 0
M  V30 1405 O 133.868 0.0153369 1.95894 0
M  V30 1406 H 132.448 0.714521 0.217874 0
M  V30 1407 H 135.11 1.94366 -0.144158 0
M  V30 1408 H 134.206 2.95665 0.999423 0
M  V30 1409 N 134.507 -0.190092 1.56449 0
M  V30 1410 C 135.44 -1.26375 1.90012 0
M  V30 1411 C 136.418 -1.43705 0.760765 0
M  V30 1412 O 137.602 -1.59014 1.01226 0
M  V30 1413 C 134.729 -2.62962 2.13468 0
M  V30 1414 C 133.775 -2.62474 3.36169 0
M  V30 1415 S 134.608 -2.13412 4.91137 0
M  V30 1416 C 135.764 -3.51812 5.17667 0
M  V30 1417 H 135.997 -0.977181 2.80782 0
M  V30 1418 H 133.53 -0.393814 1.49293 0
M  V30 1419 H 135.488 -3.41583 2.27664 0
M  V30 1420 H 134.149 -2.88828 1.23439 0
M  V30 1421 H 133.342 -3.62918 3.49723 0
M  V30 1422 H 132.944 -1.91937 3.20992 0
M  V30 1423 H 135.236 -4.47706 5.08494 0
M  V30 1424 H 136.179 -3.43148 6.19399 0
M  V30 1425 H 136.587 -3.46956 4.45288 0
M  V30 1426 N 135.985 -1.50799 -0.457987 0
M  V30 1427 C 136.948 -1.7005 -1.53674 0
M  V30 1428 C 137.948 -0.570881 -1.50325 0
M  V30 1429 O 139.138 -0.838126 -1.52712 0
M  V30 1430 C 136.27 -1.73788 -2.93276 0
M  V30 1431 H 137.463 -2.66306 -1.37917 0
M  V30 1432 H 135.016 -1.40477 -0.685271 0
M  V30 1433 H 135.751 -0.792717 -3.14462 0
M  V30 1434 H 135.536 -2.55864 -2.97113 0
M  V30 1435 H 137.026 -1.90591 -3.71571 0
M  V30 1436 N 137.463 0.71206 -1.40597 0
M  V30 1437 C 138.711 1.46907 -1.38791 0
M  V30 1438 C 139.032 1.94998 0.00780391 0
M  V30 1439 O 138.302 1.70587 0.963174 0
M  V30 1440 H 136.882 0.545043 -0.51082 0
M  V30 1441 H 139.544 0.843882 -1.75683 0
M  V30 1442 H 138.64 2.34021 -2.06496 0
M  V30 1443 N 138.941 1.26152 0.944643 0
M  V30 1444 C 139.851 1.09176 2.07648 0
M  V30 1445 C 140.867 0.0261935 1.7398 0
M  V30 1446 O 142.043 0.229208 2.00091 0
M  V30 1447 C 139.108 0.722915 3.39079 0
M  V30 1448 C 138.169 1.86752 3.86552 0
M  V30 1449 C 137.402 1.51617 5.11711 0
M  V30 1450 O 137.625 0.416331 5.68879 0
M  V30 1451 O 136.559 2.34975 5.54139 0
M  V30 1452 H 140.385 2.0412 2.24875 0
M  V30 1453 H 137.97 1.05182 1.061 0
M  V30 1454 H 139.852 0.529787 4.18056 0
M  V30 1455 H 138.527 -0.197159 3.23099 0
M  V30 1456 H 137.434 2.11558 3.08535 0
M  V30 1457 H 138.767 2.76719 4.07047 0
M  V30 1458 N 140.419 -1.14872 1.07899 0
M  V30 1459 C 141.349 -2.2193 0.725887 0
M  V30 1460 C 142.33 -1.67622 -0.28927 0
M  V30 1461 O 143.515 -1.93533 -0.160787 0
M  V30 1462 C 140.645 -3.47061 0.128856 0
M  V30 1463 C 139.599 -4.14363 1.07178 0
M  V30 1464 C 138.925 -5.33636 0.337229 0
M  V30 1465 C 140.225 -4.63492 2.40775 0
M  V30 1466 H 141.919 -2.51724 1.62097 0
M  V30 1467 H 139.465 -1.20991 0.780838 0
M  V30 1468 H 141.418 -4.21199 -0.130147 0
M  V30 1469 H 140.142 -3.16617 -0.80134 0
M  V30 1470 H 138.801 -3.42173 1.3158 0
M  V30 1471 H 138.449 -4.99449 -0.596606 0
M  V30 1472 H 138.149 -5.79609 0.965788 0
M  V30 1473 H 139.673 -6.10539 0.0861567 0
M  V30 1474 H 141.087 -5.2913 2.20669 0
M  V30 1475 H 139.484 -5.20148 2.99276 0
M  V30 1476 H 140.554 -3.78834 3.02676 0
M  V30 1477 N 141.898 -0.863906 -1.31812 0
M  V30 1478 C 143.309 -0.52522 -1.7916 0
M  V30 1479 C 143.66 0.957518 -1.71248 0
M  V30 1480 O 142.785 1.74734 -1.27659 0
M  V30 1481 C 143.38 -0.9466 -3.25307 0
M  V30 1482 C 141.939 -0.659668 -3.70574 0
M  V30 1483 C 141.086 -1.14126 -2.52726 0
M  V30 1484 H 144.037 -1.05022 -1.1898 0
M  V30 1485 H 144.058 -0.266766 -3.79564 0
M  V30 1486 H 143.57 -2.02579 -3.31034 0
M  V30 1487 H 141.671 0.408416 -3.70355 0
M  V30 1488 H 141.784 -1.23245 -4.62977 0
M  V30 1489 H 140.148 -0.561216 -2.4844 0
M  V30 1490 H 140.931 -2.22775 -2.61201 0
M  V30 1491 N 143.376 1.44774 -0.622745 0
M  V30 1492 C 144.622 2.0242 -0.124083 0
M  V30 1493 C 144.955 1.4881 1.24777 0
M  V30 1494 O 144.23 0.668799 1.8264 0
M  V30 1495 C 144.513 3.59957 -0.101619 0
M  V30 1496 C 144.366 4.23867 -1.50521 0
M  V30 1497 C 145.685 4.36284 0.578272 0
M  V30 1498 H 142.804 0.735528 -0.0465645 0
M  V30 1499 H 145.446 1.72447 -0.797617 0
M  V30 1500 H 143.596 3.85623 0.471934 0
M  V30 1501 H 145.268 4.09336 -2.12701 0
M  V30 1502 H 143.511 3.81684 -2.06154 0
M  V30 1503 H 144.182 5.32843 -1.4416 0
M  V30 1504 H 146.658 4.16001 0.0906057 0
M  V30 1505 H 145.534 5.46004 0.563149 0
M  V30 1506 H 145.795 4.10271 1.64713 0
M  V30 1507 N 144.854 0.36279 1.53368 0
M  V30 1508 C 145.784 -0.476976 2.28576 0
M  V30 1509 C 146.765 -1.08631 1.30894 0
M  V30 1510 O 147.95 -1.10409 1.59761 0
M  V30 1511 C 145.08 -1.61828 3.07293 0
M  V30 1512 C 144.034 -1.13633 4.1264 0
M  V30 1513 C 143.36 -2.36766 4.79423 0
M  V30 1514 C 144.66 -0.223061 5.21823 0
M  V30 1515 H 146.354 0.150474 2.99022 0
M  V30 1516 H 143.9 0.0738103 1.43811 0
M  V30 1517 H 145.853 -2.21237 3.58653 0
M  V30 1518 H 144.577 -2.27292 2.34533 0
M  V30 1519 H 143.236 -0.564945 3.62221 0
M  V30 1520 H 142.884 -3.0068 4.03238 0
M  V30 1521 H 142.584 -2.05192 5.50609 0
M  V30 1522 H 144.108 -2.96865 5.33576 0
M  V30 1523 H 145.522 -0.724545 5.68703 0
M  V30 1524 H 143.919 0.001678 6.001 0
M  V30 1525 H 144.989 0.735553 4.79289 0
M  V30 1526 N 146.332 -1.57332 0.0918853 0
M  V30 1527 C 147.572 -1.96117 -0.575988 0
M  V30 1528 C 147.936 -0.972499 -1.65549 0
M  V30 1529 O 149.137 -1.24872 -2.38034 0
M  V30 1530 C 147.408 -3.39407 -1.11973 0
M  V30 1531 S 148.967 -4.00185 -1.79992 0
M  V30 1532 H 145.785 -0.685682 -0.188045 0
M  V30 1533 H 148.387 -1.94755 0.170525 0
M  V30 1534 H 147.091 -4.09131 -0.322504 0
M  V30 1535 H 146.622 -3.44358 -1.90214 0
M  V30 1536 H 148.637 -3.88728 -3.08391 0
M  V30 1537 N 147.81 0.181792 -1.56548 0
M  V30 1538 C 149.04 0.914618 -1.85252 0
M  V30 1539 C 149.448 1.76791 -0.673914 0
M  V30 1540 O 148.791 1.80009 0.366416 0
M  V30 1541 C 148.853 1.85019 -3.08234 0
M  V30 1542 C 148.517 1.17754 -4.41569 0
M  V30 1543 C 149.514 0.548035 -5.17003 0
M  V30 1544 C 147.199 1.17742 -4.88305 0
M  V30 1545 C 149.193 -0.0726128 -6.37359 0
M  V30 1546 C 146.88 0.552946 -6.08593 0
M  V30 1547 C 147.878 -0.070978 -6.82963 0
M  V30 1548 O 147.566 -0.685635 -8.00971 0
M  V30 1549 H 147.298 0.271695 -0.618998 0
M  V30 1550 H 149.852 0.189944 -2.0452 0
M  V30 1551 H 148.082 2.61491 -2.84885 0
M  V30 1552 H 149.771 2.45195 -3.23472 0
M  V30 1553 H 150.537 0.540174 -4.81982 0
M  V30 1554 H 146.416 1.65246 -4.30366 0
M  V30 1555 H 149.96 -0.560213 -6.95347 0
M  V30 1556 H 145.857 0.558354 -6.43081 0
M  V30 1557 H 146.625 -0.58385 -8.16415 0
M  V30 1558 N 149.288 1.51039 0.449983 0
M  V30 1559 C 150.565 1.53612 1.21089 0
M  V30 1560 C 150.945 0.292997 2.09057 0
M  V30 1561 O 150.293 -0.72259 2.16774 0
M  V30 1562 C 150.503 2.84337 2.0237 0
M  V30 1563 C 151.851 3.35807 2.59843 0
M  V30 1564 O 152.875 2.85802 2.12593 0
M  V30 1565 O 151.734 4.23029 3.45989 0
M  V30 1566 H 148.828 0.617057 0.550608 0
M  V30 1567 H 151.374 1.63344 0.460082 0
M  V30 1568 H 150.146 3.66278 1.37681 0
M  V30 1569 H 149.769 2.77708 2.84542 0
M  V30 1570 N 150.766 -0.704594 1.40972 0
M  V30 1571 C 152.043 -1.45847 1.30338 0
M  V30 1572 C 152.423 -2.10973 -0.0732344 0
M  V30 1573 O 151.771 -2.00997 -1.08685 0
M  V30 1574 C 151.981 -2.48525 2.45023 0
M  V30 1575 C 153.329 -3.1404 2.8577 0
M  V30 1576 O 154.353 -2.58848 2.44696 0
M  V30 1577 O 153.212 -4.13981 3.56766 0
M  V30 1578 H 150.306 -0.649092 0.512454 0
M  V30 1579 H 152.852 -0.735836 1.52917 0
M  V30 1580 H 151.624 -1.98994 3.36923 0
M  V30 1581 H 151.247 -3.2831 2.24272 0
M  V30 1582 N 152.244 -1.26651 -0.937939 0
M  V30 1583 C 153.154 -1.10276 -2.07066 0
M  V30 1584 C 154.17 -0.0354197 -1.73964 0
M  V30 1585 O 155.346 -0.239816 -1.99967 0
M  V30 1586 C 152.411 -0.740887 -3.38691 0
M  V30 1587 C 151.472 -1.88799 -3.85556 0
M  V30 1588 C 150.705 -1.54329 -5.10899 0
M  V30 1589 O 150.928 -0.446494 -5.6865 0
M  V30 1590 O 149.862 -2.37911 -5.52885 0
M  V30 1591 H 153.688 -2.05309 -2.23789 0
M  V30 1592 H 151.273 -1.05743 -1.0554 0
M  V30 1593 H 153.155 -0.55195 -4.1777 0
M  V30 1594 H 151.83 0.180022 -3.23199 0
M  V30 1595 H 150.737 -2.13191 -3.07409 0
M  V30 1596 H 152.07 -2.78874 -4.05574 0
M  V30 1597 N 153.722 1.14298 -1.08507 0
M  V30 1598 C 154.962 1.87016 -0.824894 0
M  V30 1599 C 155.326 1.81099 0.637735 0
M  V30 1600 O 156.527 2.48963 1.01345 0
M  V30 1601 C 154.798 3.31584 -1.33368 0
M  V30 1602 S 156.357 4.21903 -1.20596 0
M  V30 1603 H 153.175 0.645259 -0.2986 0
M  V30 1604 H 155.777 1.37822 -1.38656 0
M  V30 1605 H 154.481 3.33439 -2.39262 0
M  V30 1606 H 154.012 3.85836 -0.767734 0
M  V30 1607 H 156.027 4.95971 -0.150891 0
M  V30 1608 N 155.201 0.870884 1.31352 0
M  V30 1609 C 156.449 0.48132 1.96285 0
M  V30 1610 C 156.77 -0.969813 1.69173 0
M  V30 1611 O 156.04 -1.67998 1.00764 0
M  V30 1612 H 154.62 0.175002 0.726212 0
M  V30 1613 H 157.282 1.11087 1.60143 0
M  V30 1614 H 156.378 0.639825 3.05471 0
M  V30 1615 N 156.679 -1.44442 0.630414 0
M  V30 1616 C 157.642 -2.29107 -0.0652523 0
M  V30 1617 C 158.642 -1.41002 -0.772995 0
M  V30 1618 O 159.832 -1.62881 -0.617692 0
M  V30 1619 C 156.964 -3.22564 -1.10296 0
M  V30 1620 H 158.157 -2.92103 0.679401 0
M  V30 1621 H 155.71 -1.51343 0.390517 0
M  V30 1622 H 156.445 -2.64416 -1.87762 0
M  V30 1623 H 156.23 -3.87491 -0.59941 0
M  V30 1624 H 157.72 -3.86167 -1.5895 0
M  V30 1625 N 158.157 -0.370918 -1.53173 0
M  V30 1626 C 159.09 0.516727 -2.22273 0
M  V30 1627 C 160.068 1.07877 -1.21661 0
M  V30 1628 O 161.252 1.13389 -1.50583 0
M  V30 1629 C 158.379 1.71346 -2.92161 0
M  V30 1630 C 157.425 1.27838 -4.0689 0
M  V30 1631 S 158.258 0.275217 -5.34792 0
M  V30 1632 C 159.414 1.47816 -6.08195 0
M  V30 1633 H 159.647 -0.0701054 -2.97217 0
M  V30 1634 H 157.18 -0.155038 -1.5362 0
M  V30 1635 H 159.138 2.39988 -3.3304 0
M  V30 1636 H 157.799 2.27156 -2.16931 0
M  V30 1637 H 156.992 2.17141 -4.54825 0
M  V30 1638 H 156.594 0.671105 -3.6793 0
M  V30 1639 H 158.886 2.40831 -6.33251 0
M  V30 1640 H 159.829 1.04008 -7.0042 0
M  V30 1641 H 160.237 1.68663 -5.38714 0
M  V30 1642 N 159.635 1.57281 -0.100228 0
M  V30 1643 C 160.883 1.94153 0.561157 0
M  V30 1644 C 161.204 0.983157 1.68401 0
M  V30 1645 O 160.474 0.0361132 1.95867 0
M  V30 1646 H 159.054 0.716791 0.210283 0
M  V30 1647 H 161.716 1.94202 -0.164765 0
M  V30 1648 H 160.812 2.96709 0.968008 0
M  V30 1649 N 161.113 -0.173488 1.56642 0
M  V30 1650 C 162.361 -0.888706 1.81512 0
M  V30 1651 C 162.682 -1.82875 0.676872 0
M  V30 1652 O 161.952 -1.93536 -0.303414 0
M  V30 1653 H 160.532 -0.331164 0.669582 0
M  V30 1654 H 163.194 -0.173823 1.94123 0
M  V30 1655 H 162.29 -1.46691 2.75478 0
M  V30 1656 N 162.591 -1.51276 -0.441967 0
M  V30 1657 C 163.831 -1.65372 -1.20132 0
M  V30 1658 C 164.195 -0.359871 -1.88597 0
M  V30 1659 O 165.396 -0.376551 -2.66149 0
M  V30 1660 C 163.667 -2.8207 -2.1948 0
M  V30 1661 S 165.226 -3.16467 -3.03964 0
M  V30 1662 H 162.044 -0.582669 -0.407453 0
M  V30 1663 H 164.646 -1.89166 -0.493609 0
M  V30 1664 H 163.35 -3.74523 -1.67812 0
M  V30 1665 H 162.881 -2.6045 -2.94838 0
M  V30 1666 H 164.896 -2.62543 -4.21053 0
M  V30 1667 N 164.069 0.697108 -1.41344 0
M  V30 1668 C 165.485 1.00751 -1.2378 0
M  V30 1669 C 165.685 2.01105 -0.126066 0
M  V30 1670 O 164.741 2.47295 0.51004 0
M  V30 1671 C 166.054 1.53359 -2.58653 0
M  V30 1672 C 167.602 1.6525 -2.65822 0
M  V30 1673 C 168.077 2.2126 -4.01009 0
M  V30 1674 N 169.568 2.28622 -4.02847 0
M  V30 1675 C 170.303 2.72984 -5.04249 0
M  V30 1676 N 169.799 3.16962 -6.16041 0
M  V30 1677 N 171.592 2.72534 -4.91611 0
M  V30 1678 H 163.743 0.0322662 -2.12375 0
M  V30 1679 H 166.006 0.0768853 -0.944877 0
M  V30 1680 H 165.712 0.870773 -3.4075 0
M  V30 1681 H 165.586 2.51597 -2.81032 0
M  V30 1682 H 167.973 2.30644 -1.84086 0
M  V30 1683 H 168.054 0.655614 -2.47256 0
M  V30 1684 H 167.698 1.56482 -4.83193 0
M  V30 1685 H 167.628 3.21698 -4.16915 0
M  V30 1686 H 170.119 1.97585 -3.22131 0
M  V30 1687 H 170.432 3.49434 -6.89287 0
M  V30 1688 H 168.777 3.14875 -6.1958 0
M  V30 1689 H 171.968 2.37525 -4.0336 0
M  V30 1690 H 172.141 3.06789 -5.70775 0
M  V30 1691 N 165.547 1.27147 0.931209 0
M  V30 1692 C 166.477 1.12081 2.04842 0
M  V30 1693 C 167.458 0.0232364 1.70084 0
M  V30 1694 O 168.643 0.197085 1.93197 0
M  V30 1695 C 165.773 0.76354 3.38803 0
M  V30 1696 C 164.727 1.81396 3.87659 0
M  V30 1697 C 164.053 1.31075 5.18385 0
M  V30 1698 C 165.353 3.21739 4.11438 0
M  V30 1699 H 167.047 2.05537 2.17703 0
M  V30 1700 H 164.593 0.989603 1.04608 0
M  V30 1701 H 166.546 0.644982 4.16435 0
M  V30 1702 H 165.27 -0.206727 3.25945 0
M  V30 1703 H 163.929 1.92136 3.12217 0
M  V30 1704 H 163.577 0.330037 5.01916 0
M  V30 1705 H 163.277 2.013 5.52044 0
M  V30 1706 H 164.801 1.20506 5.98591 0
M  V30 1707 H 166.215 3.14019 4.79651 0
M  V30 1708 H 164.612 3.89644 4.56397 0
M  V30 1709 H 165.682 3.67054 3.16859 0
M  V30 1710 N 167.025 -1.13721 1.09112 0
M  V30 1711 C 168.271 -1.85413 0.836283 0
M  V30 1712 C 168.626 -1.8175 -0.631249 0
M  V30 1713 O 167.919 -1.24238 -1.45861 0
M  V30 1714 C 168.113 -3.32861 1.30146 0
M  V30 1715 C 167.942 -3.50882 2.81268 0
M  V30 1716 C 166.712 -3.65312 3.49106 0
M  V30 1717 C 168.91 -3.47196 3.7942 0
M  V30 1718 N 166.892 -3.71563 4.88686 0
M  V30 1719 C 168.263 -3.59777 5.04936 0
M  V30 1720 C 170.318 -3.30577 3.72321 0
M  V30 1721 C 169.021 -3.57455 6.24194 0
M  V30 1722 C 171.047 -3.29562 4.91063 0
M  V30 1723 C 170.409 -3.42691 6.15421 0
M  V30 1724 H 166.508 -0.694812 0.358832 0
M  V30 1725 H 169.092 -1.36246 1.39087 0
M  V30 1726 H 167.263 -3.80602 0.774361 0
M  V30 1727 H 168.995 -3.92346 0.99229 0
M  V30 1728 H 165.75 -3.6685 2.9953 0
M  V30 1729 H 166.174 -3.78387 5.61384 0
M  V30 1730 H 170.816 -3.19332 2.77105 0
M  V30 1731 H 168.534 -3.67475 7.19714 0
M  V30 1732 H 172.12 -3.17905 4.87266 0
M  V30 1733 H 171 -3.41862 7.05762 0
M  V30 1734 N 168.503 -0.877838 -1.30888 0
M  V30 1735 C 169.749 -0.502773 -1.97088 0
M  V30 1736 C 170.104 0.936274 -1.68082 0
M  V30 1737 O 169.397 1.65162 -0.971196 0
M  V30 1738 C 169.591 -0.705748 -3.50363 0
M  V30 1739 C 169.42 -2.16297 -3.94266 0
M  V30 1740 C 168.19 -2.80614 -4.20219 0
M  V30 1741 C 170.388 -3.13606 -4.07622 0
M  V30 1742 N 168.37 -4.17007 -4.50532 0
M  V30 1743 C 169.741 -4.35051 -4.41736 0
M  V30 1744 C 171.796 -3.09491 -3.90026 0
M  V30 1745 C 170.499 -5.52911 -4.60089 0
M  V30 1746 C 172.525 -4.26616 -4.09576 0
M  V30 1747 C 171.887 -5.46825 -4.44029 0
M  V30 1748 H 167.986 -0.233168 -0.746429 0
M  V30 1749 H 170.57 -1.13408 -1.58261 0
M  V30 1750 H 168.741 -0.103976 -3.88261 0
M  V30 1751 H 170.473 -0.298291 -4.03599 0
M  V30 1752 H 167.228 -2.3152 -4.13153 0
M  V30 1753 H 167.652 -4.87426 -4.69834 0
M  V30 1754 H 172.294 -2.17657 -3.62471 0
M  V30 1755 H 170.012 -6.45255 -4.86489 0
M  V30 1756 H 173.598 -4.24894 -3.97438 0
M  V30 1757 H 172.478 -6.35947 -4.58848 0
M  V30 1758 N 169.982 1.44106 -0.638065 0
M  V30 1759 C 170.915 2.27924 0.112161 0
M  V30 1760 C 171.893 1.38945 0.844574 0
M  V30 1761 O 173.077 1.68386 0.847248 0
M  V30 1762 C 170.204 3.18029 1.16512 0
M  V30 1763 C 169.25 4.23163 0.532458 0
M  V30 1764 S 170.083 5.31131 -0.682666 0
M  V30 1765 C 171.239 6.24805 0.37013 0
M  V30 1766 H 171.472 2.91205 -0.598887 0
M  V30 1767 H 169.005 1.48394 -0.426441 0
M  V30 1768 H 170.963 3.70492 1.76766 0
M  V30 1769 H 169.624 2.53955 1.8484 0
M  V30 1770 H 168.817 4.86252 1.32571 0
M  V30 1771 H 168.419 3.74 0.00437644 0
M  V30 1772 H 170.711 6.66042 1.24071 0
M  V30 1773 H 171.654 7.07741 -0.225349 0
M  V30 1774 H 172.062 5.60154 0.699141 0
M  V30 1775 N 171.46 0.379036 1.52974 0
M  V30 1776 C 172.39 -0.452706 2.29069 0
M  V30 1777 C 173.371 -1.07237 1.32039 0
M  V30 1778 O 174.556 -1.08708 1.60923 0
M  V30 1779 C 171.686 -1.5856 3.08992 0
M  V30 1780 C 170.64 -1.0925 4.13822 0
M  V30 1781 C 169.966 -2.31668 4.81907 0
M  V30 1782 C 171.266 -0.167702 5.22031 0
M  V30 1783 H 172.96 0.182181 2.98845 0
M  V30 1784 H 170.506 0.0890592 1.43724 0
M  V30 1785 H 172.459 -2.1742 3.6098 0
M  V30 1786 H 171.183 -2.24792 2.36931 0
M  V30 1787 H 169.842 -0.526494 3.628 0
M  V30 1788 H 169.49 -2.96386 4.06404 0
M  V30 1789 H 169.19 -1.9934 5.52754 0
M  V30 1790 H 170.714 -2.91189 5.36695 0
M  V30 1791 H 172.128 -0.664186 5.6944 0
M  V30 1792 H 170.525 0.0653265 6.00064 0
M  V30 1793 H 171.595 0.786347 4.78482 0
M  V30 1794 N 172.938 -1.57226 0.108567 0
M  V30 1795 C 173.886 -2.16002 -0.862885 0
M  V30 1796 C 174.88 -1.10644 -1.28274 0
M  V30 1797 O 176.086 -1.28966 -1.2557 0
M  V30 1798 H 172.461 -0.691148 -0.296342 0
M  V30 1799 H 174.432 -2.96427 -0.342575 0
M  V30 1800 C 173.181 -2.76576 -2.10716 0
M  V30 1801 H 172.504 -3.5734 -1.793 0
M  V30 1802 H 173.944 -3.21253 -2.76717 0
M  V30 1803 C 172.403 -1.73137 -2.89007 0
M  V30 1804 O 172.933 -1.17842 -3.84026 0
M  V30 1805 N 171.139 -1.43317 -2.52801 0
M  V30 1806 H 170.686 -1.88473 -1.75601 0
M  V30 1807 H 170.644 -0.743485 -3.05483 0
M  V30 1808 N 174.416 0.165178 -1.56732 0
M  V30 1809 C 175.641 0.900253 -1.86843 0
M  V30 1810 C 176.066 1.74766 -0.695596 0
M  V30 1811 O 175.424 1.77786 0.35522 0
M  V30 1812 C 175.472 1.74777 -3.15413 0
M  V30 1813 O 174.576 2.85007 -2.98068 0
M  V30 1814 H 173.917 0.251832 -0.614391 0
M  V30 1815 H 176.447 0.161468 -2.03962 0
M  V30 1816 H 176.457 2.14646 -3.46974 0
M  V30 1817 H 175.132 1.12537 -4.00385 0
M  V30 1818 H 173.709 2.48676 -2.77875 0
M  V30 1819 N 175.894 1.51508 0.433938 0
M  V30 1820 C 176.824 1.76016 1.53429 0
M  V30 1821 C 177.805 0.610112 1.58782 0
M  V30 1822 O 178.99 0.853177 1.74455 0
M  V30 1823 C 176.12 1.88831 2.9148 0
M  V30 1824 C 175.074 3.04288 3.00987 0
M  V30 1825 C 174.4 3.0229 4.4105 0
M  V30 1826 C 175.7 4.44193 2.74754 0
M  V30 1827 H 177.394 2.68152 1.33171 0
M  V30 1828 H 174.94 1.29035 0.639214 0
M  V30 1829 H 176.893 2.04559 3.6842 0
M  V30 1830 H 175.617 0.933455 3.12976 0
M  V30 1831 H 174.276 2.8827 2.26486 0
M  V30 1832 H 173.924 2.04576 4.59519 0
M  V30 1833 H 173.624 3.79822 4.4834 0
M  V30 1834 H 175.148 3.20116 5.1996 0
M  V30 1835 H 176.562 4.60544 3.41426 0
M  V30 1836 H 174.959 5.23457 2.9345 0
M  V30 1837 H 176.029 4.53996 1.70339 0
M  V30 1838 N 177.372 -0.689602 1.41712 0
M  V30 1839 C 178.62 -1.4468 1.4111 0
M  V30 1840 C 178.941 -1.94986 0.0232196 0
M  V30 1841 O 178.211 -1.72097 -0.935913 0
M  V30 1842 H 176.791 -0.536847 0.519427 0
M  V30 1843 H 179.453 -0.815825 1.77004 0
M  V30 1844 H 178.549 -2.30706 2.10193 0
M  V30 1845 N 178.85 -1.27639 -0.924453 0
M  V30 1846 C 179.813 -1.10681 -2.00705 0
M  V30 1847 C 180.813 -0.0497823 -1.60723 0
M  V30 1848 O 182.003 -0.294654 -1.7169 0
M  V30 1849 C 179.135 -0.687164 -3.33902 0
M  V30 1850 H 180.328 -2.06817 -2.17179 0
M  V30 1851 H 177.881 -1.10473 -1.10569 0
M  V30 1852 H 178.616 0.275439 -3.23128 0
M  V30 1853 H 178.401 -1.45061 -3.6428 0
M  V30 1854 H 179.891 -0.590853 -4.13399 0
M  V30 1855 N 180.328 1.1314 -1.09713 0
M  V30 1856 C 181.605 1.80762 -0.747302 0
M  V30 1857 C 181.985 1.96663 0.767265 0
M  V30 1858 O 181.333 1.53706 1.69076 0
M  V30 1859 C 181.543 3.15606 -1.48975 0
M  V30 1860 C 182.891 3.90914 -1.65746 0
M  V30 1861 O 183.915 3.25239 -1.45251 0
M  V30 1862 O 182.774 5.08718 -1.9967 0
M  V30 1863 H 179.868 0.782103 -0.268782 0
M  V30 1864 H 182.414 1.20041 -1.19951 0
M  V30 1865 H 181.186 2.99278 -2.52088 0
M  V30 1866 H 180.809 3.84029 -1.02991 0
M  V30 1867 N 181.806 0.884767 1.30421 0
M  V30 1868 C 182.769 0.356277 2.26414 0
M  V30 1869 C 183.769 -0.501124 1.52792 0
M  V30 1870 O 184.959 -0.30831 1.7145 0
M  V30 1871 C 182.091 -0.492316 3.37326 0
M  V30 1872 H 183.284 1.20389 2.74675 0
M  V30 1873 H 180.837 0.661607 1.41607 0
M  V30 1874 H 181.572 -1.36052 2.94381 0
M  V30 1875 H 181.357 0.121832 3.91911 0
M  V30 1876 H 182.847 -0.853871 4.08777 0
M  V30 1877 N 183.284 -1.43765 0.645699 0
M  V30 1878 C 184.514 -2.05953 0.163318 0
M  V30 1879 C 184.922 -1.48432 -1.17322 0
M  V30 1880 O 184.265 -0.607295 -1.73371 0
M  V30 1881 C 184.327 -3.59499 -0.0103065 0
M  V30 1882 C 183.991 -4.39563 1.25035 0
M  V30 1883 C 184.988 -4.72108 2.17739 0
M  V30 1884 C 182.673 -4.79697 1.48983 0
M  V30 1885 C 184.667 -5.43688 3.3269 0
M  V30 1886 C 182.354 -5.51023 2.64229 0
M  V30 1887 C 183.352 -5.8294 3.55908 0
M  V30 1888 O 183.04 -6.5281 4.69142 0
M  V30 1889 H 182.772 -0.670798 0.0836986 0
M  V30 1890 H 185.326 -1.85384 0.884407 0
M  V30 1891 H 183.556 -3.78613 -0.78669 0
M  V30 1892 H 185.245 -4.03408 -0.449087 0
M  V30 1893 H 186.011 -4.41627 2.00476 0
M  V30 1894 H 181.89 -4.54266 0.785078 0
M  V30 1895 H 185.434 -5.68517 4.04269 0
M  V30 1896 H 181.331 -5.8092 2.81429 0
M  V30 1897 H 182.099 -6.71288 4.6831 0
M  V30 1898 N 184.763 -0.387143 -1.52771 0
M  V30 1899 C 186.009 0.196025 -2.0185 0
M  V30 1900 C 186.342 1.46641 -1.27319 0
M  V30 1901 O 185.617 1.90889 -0.373032 0
M  V30 1902 C 185.9 0.466136 -3.5707 0
M  V30 1903 C 185.753 -0.819385 -4.42274 0
M  V30 1904 C 187.072 1.25768 -4.21747 0
M  V30 1905 H 184.191 0.0697708 -0.73369 0
M  V30 1906 H 186.833 -0.516286 -1.82851 0
M  V30 1907 H 184.983 1.07293 -3.7339 0
M  V30 1908 H 186.655 -1.4563 -4.37709 0
M  V30 1909 H 184.898 -1.43517 -4.09372 0
M  V30 1910 H 185.569 -0.585065 -5.48891 0
M  V30 1911 H 188.045 0.744167 -4.09391 0
M  V30 1912 H 186.921 1.41541 -5.30337 0
M  V30 1913 H 187.182 2.27228 -3.79236 0
M  V30 1914 N 186.241 1.57166 -0.116904 0
M  V30 1915 C 187.49 1.94298 0.541407 0
M  V30 1916 C 187.803 1.00236 1.67964 0
M  V30 1917 O 189.009 1.26826 2.40057 0
M  V30 1918 C 187.465 3.45306 1.01449 0
M  V30 1919 C 187.073 4.47899 -0.0951738 0
M  V30 1920 C 188.817 3.91361 1.6443 0
M  V30 1921 C 186.724 5.90083 0.394491 0
M  V30 1922 H 185.654 0.725308 0.206019 0
M  V30 1923 H 188.305 1.82446 -0.196419 0
M  V30 1924 H 186.687 3.52385 1.80667 0
M  V30 1925 H 187.861 4.52486 -0.871374 0
M  V30 1926 H 186.176 4.11583 -0.631505 0
M  V30 1927 H 188.773 4.95004 2.02176 0
M  V30 1928 H 189.116 3.3122 2.52189 0
M  V30 1929 H 189.649 3.87073 0.917559 0
M  V30 1930 H 186.388 6.53974 -0.447004 0
M  V30 1931 H 185.908 5.88921 1.13722 0
M  V30 1932 H 187.587 6.41307 0.856399 0
M  V30 1933 N 187.719 -0.156864 1.56817 0
M  V30 1934 C 188.667 -1.21319 1.98455 0
M  V30 1935 C 189.661 -1.45025 0.875444 0
M  V30 1936 O 190.867 -1.45435 1.0606 0
M  V30 1937 H 187.242 -0.408142 0.631605 0
M  V30 1938 H 189.213 -0.835244 2.86472 0
M  V30 1939 C 187.962 -2.54148 2.37285 0
M  V30 1940 H 187.285 -2.36733 3.22176 0
M  V30 1941 H 188.725 -3.26712 2.70251 0
M  V30 1942 C 187.184 -3.13967 1.22173 0
M  V30 1943 O 187.714 -3.98357 0.517149 0
M  V30 1944 N 185.92 -2.7327 0.988536 0
M  V30 1945 H 185.467 -2.04744 1.56326 0
M  V30 1946 H 185.425 -3.13628 0.220209 0
M  V30 1947 N 189.197 -1.51736 -0.425897 0
M  V30 1948 C 190.445 -1.64644 -1.17204 0
M  V30 1949 C 190.766 -0.370486 -1.91448 0
M  V30 1950 O 190.036 0.614088 -1.86026 0
M  V30 1951 H 188.616 -0.606819 -0.435638 0
M  V30 1952 H 191.278 -1.88713 -0.487177 0
M  V30 1953 H 190.374 -2.47958 -1.89534 0
M  V30 1954 N 190.675 0.682077 -1.42076 0
M  V30 1955 C 191.923 1.4393 -1.41876 0
M  V30 1956 C 192.244 1.94971 -0.0335599 0
M  V30 1957 O 191.514 1.72591 0.926773 0
M  V30 1958 H 190.094 0.534085 -0.522267 0
M  V30 1959 H 192.756 0.806427 -1.77434 0
M  V30 1960 H 191.852 2.29588 -2.11414 0
M  V30 1961 N 192.153 1.28127 0.917671 0
M  V30 1962 C 193.4 1.15052 1.66641 0
M  V30 1963 C 193.728 -0.301677 1.92146 0
M  V30 1964 O 192.983 -1.23622 1.51711 0
M  V30 1965 C 193.282 1.89018 3.03327 0
M  V30 1966 C 192.948 3.38832 2.97496 0
M  V30 1967 C 191.61 3.79693 2.95613 0
M  V30 1968 C 193.962 4.34378 2.88036 0
M  V30 1969 C 191.29 5.14447 2.82066 0
M  V30 1970 C 193.642 5.69201 2.7603 0
M  V30 1971 C 192.306 6.09343 2.72502 0
M  V30 1972 H 191.576 0.421006 0.609783 0
M  V30 1973 H 194.223 1.58855 1.06945 0
M  V30 1974 H 192.528 1.37752 3.66785 0
M  V30 1975 H 194.225 1.76321 3.60156 0
M  V30 1976 H 190.815 3.06342 2.99754 0
M  V30 1977 H 194.999 4.03775 2.88581 0
M  V30 1978 H 190.255 5.44681 2.77728 0
M  V30 1979 H 194.429 6.42901 2.67678 0
M  V30 1980 H 192.056 7.13712 2.61762 0
M  V30 1981 N 193.631 -1.12557 1.10312 0
M  V30 1982 C 194.563 -2.17971 0.708625 0
M  V30 1983 C 195.576 -1.60806 -0.254027 0
M  V30 1984 O 196.765 -1.78458 -0.0386891 0
M  V30 1985 C 193.865 -3.38891 0.0248198 0
M  V30 1986 C 193.038 -4.25548 1.01132 0
M  V30 1987 C 192.097 -5.24972 0.35924 0
M  V30 1988 O 191.123 -5.60174 1.00965 0
M  V30 1989 N 192.325 -5.73747 -0.882847 0
M  V30 1990 H 195.09 -2.52427 1.61557 0
M  V30 1991 H 192.651 -1.27967 0.991771 0
M  V30 1992 H 194.643 -4.02485 -0.422852 0
M  V30 1993 H 193.213 -3.02596 -0.784514 0
M  V30 1994 H 192.433 -3.58589 1.6373 0
M  V30 1995 H 193.721 -4.80294 1.67914 0
M  V30 1996 H 193.119 -5.4731 -1.43065 0
M  V30 1997 H 191.676 -6.39234 -1.27369 0
M  V30 1998 N 195.109 -0.891671 -1.2995 0
M  V30 1999 C 196.072 -0.36828 -2.26222 0
M  V30 2000 C 197.072 0.493014 -1.53056 0
M  V30 2001 O 198.262 0.299213 -1.71611 0
M  V30 2002 C 195.394 0.47442 -3.37583 0
M  V30 2003 H 196.587 -1.21844 -2.74033 0
M  V30 2004 H 194.14 -0.669107 -1.41254 0
M  V30 2005 H 194.875 1.34489 -2.95099 0
M  V30 2006 H 194.66 -0.142615 -3.91841 0
M  V30 2007 H 196.15 0.83218 -4.09224 0
M  V30 2008 N 196.587 1.43421 -0.653314 0
M  V30 2009 C 197.827 2.03689 -0.170346 0
M  V30 2010 C 198.191 1.50427 1.19314 0
M  V30 2011 O 199.392 2.0234 1.76952 0
M  V30 2012 C 197.663 3.56946 -0.180183 0
M  V30 2013 S 199.222 4.38171 0.234925 0
M  V30 2014 H 196.04 0.707345 -0.0719976 0
M  V30 2015 H 198.642 1.75486 -0.86167 0
M  V30 2016 H 197.346 3.93212 -1.17526 0
M  V30 2017 H 196.877 3.89791 0.531675 0
M  V30 2018 H 198.892 4.73808 1.47378 0
M  V30 2019 N 198.065 0.39524 1.52563 0
M  V30 2020 C 199.012 -0.437036 2.26624 0
M  V30 2021 C 199.982 -1.05281 1.28472 0
M  V30 2022 O 201.167 -1.07971 1.57311 0
M  V30 2023 C 198.307 -1.55524 3.08069 0
M  V30 2024 C 197.42 -0.961745 4.21158 0
M  V30 2025 C 196.555 -2.05149 4.89987 0
M  V30 2026 C 195.594 -1.4342 5.95061 0
M  V30 2027 N 194.731 -2.46351 6.57462 0
M  V30 2028 H 199.571 0.200976 2.97322 0
M  V30 2029 H 197.108 0.110944 1.46681 0
M  V30 2030 H 199.066 -2.21437 3.53584 0
M  V30 2031 H 197.696 -2.16348 2.3957 0
M  V30 2032 H 196.748 -0.192048 3.79915 0
M  V30 2033 H 198.06 -0.470701 4.96574 0
M  V30 2034 H 197.214 -2.78819 5.38837 0
M  V30 2035 H 195.953 -2.57615 4.14109 0
M  V30 2036 H 194.958 -0.682774 5.45544 0
M  V30 2037 H 196.183 -0.917416 6.72875 0
M  V30 2038 H 194.129 -2.97975 5.8442 0
M  V30 2039 H 194.046 -2.02019 7.28508 0
M  V30 2040 H 195.314 -3.19633 7.10954 0
M  V30 2041 N 199.544 -1.57102 0.125237 0
M  V30 2042 C 200.507 -2.14471 -0.80838 0
M  V30 2043 C 201.507 -1.0811 -1.19033 0
M  V30 2044 O 202.697 -1.33856 -1.11482 0
M  V30 2045 C 199.829 -2.69005 -2.09402 0
M  V30 2046 H 201.022 -2.98297 -0.309696 0
M  V30 2047 H 198.575 -1.55807 -0.124051 0
M  V30 2048 H 199.31 -1.88785 -2.63687 0
M  V30 2049 H 199.095 -3.46799 -1.82957 0
M  V30 2050 H 200.585 -3.13278 -2.76128 0
M  V30 2051 N 201.022 0.148545 -1.56898 0
M  V30 2052 C 201.985 1.16736 -1.97244 0
M  V30 2053 C 202.985 1.35947 -0.858777 0
M  V30 2054 O 204.175 1.32966 -1.12542 0
M  V30 2055 C 201.307 2.52798 -2.28705 0
M  V30 2056 H 202.5 0.821279 -2.88435 0
M  V30 2057 H 200.053 0.391831 -1.51309 0
M  V30 2058 H 200.788 2.92381 -1.403 0
M  V30 2059 H 200.573 2.40216 -3.09901 0
M  V30 2060 H 202.063 3.26179 -2.60762 0
M  V30 2061 N 202.5 1.5196 0.417844 0
M  V30 2062 C 203.748 1.65263 1.16329 0
M  V30 2063 C 204.069 0.380634 1.91249 0
M  V30 2064 O 203.339 -0.604214 1.86349 0
M  V30 2065 H 201.919 0.60912 0.432414 0
M  V30 2066 H 204.581 1.88969 0.477162 0
M  V30 2067 H 203.677 2.4896 1.88217 0
M  V30 2068 N 203.978 -0.674533 1.42435 0
M  V30 2069 C 204.908 -1.80009 1.48724 0
M  V30 2070 C 205.889 -1.6659 0.343793 0
M  V30 2071 O 207.074 -1.86007 0.558137 0
M  V30 2072 C 204.204 -3.18306 1.38919 0
M  V30 2073 C 203.158 -3.46461 2.51294 0
M  V30 2074 C 202.484 -4.84335 2.26547 0
M  V30 2075 C 203.784 -3.43328 3.93603 0
M  V30 2076 H 205.478 -1.75004 2.42928 0
M  V30 2077 H 203.024 -0.840533 1.16923 0
M  V30 2078 H 204.977 -3.9678 1.41927 0
M  V30 2079 H 203.701 -3.2399 0.412094 0
M  V30 2080 H 202.36 -2.70348 2.47604 0
M  V30 2081 H 202.008 -4.86669 1.2713 0
M  V30 2082 H 201.708 -5.04136 3.01861 0
M  V30 2083 H 203.232 -5.65094 2.31304 0
M  V30 2084 H 204.646 -4.11772 3.98894 0
M  V30 2085 H 203.043 -3.74664 4.68771 0
M  V30 2086 H 204.113 -2.41897 4.20255 0
M  V30 2087 N 205.456 -1.28612 -0.910864 0
M  V30 2088 C 206.366 -1.14643 -2.0468 0
M  V30 2089 C 207.382 -0.0723121 -1.7385 0
M  V30 2090 O 208.558 -0.282178 -1.99413 0
M  V30 2091 C 205.623 -0.812561 -3.37044 0
M  V30 2092 C 204.684 -1.96935 -3.81465 0
M  V30 2093 C 203.917 -1.65131 -5.07511 0
M  V30 2094 O 204.14 -0.567013 -5.67575 0
M  V30 2095 O 203.074 -2.49585 -5.47714 0
M  V30 2096 H 206.9 -2.1001 -2.19384 0
M  V30 2097 H 204.485 -1.07958 -1.03274 0
M  V30 2098 H 206.367 -0.640441 -4.16505 0
M  V30 2099 H 205.042 0.111426 -3.23508 0
M  V30 2100 H 203.949 -2.19664 -3.02818 0
M  V30 2101 H 205.282 -2.87414 -3.99567 0
M  V30 2102 N 206.934 1.1197 -1.10907 0
M  V30 2103 C 207.867 2.16998 -0.706192 0
M  V30 2104 C 208.845 1.59903 0.294897 0
M  V30 2105 O 210.029 1.87513 0.192636 0
M  V30 2106 C 207.156 3.38673 -0.0427664 0
M  V30 2107 C 206.202 4.14414 -1.00811 0
M  V30 2108 S 207.035 4.72079 -2.52789 0
M  V30 2109 C 208.191 5.97083 -1.87731 0
M  V30 2110 H 208.424 2.50837 -1.59587 0
M  V30 2111 H 205.957 1.23508 -0.926555 0
M  V30 2112 H 207.915 4.09142 0.333668 0
M  V30 2113 H 206.576 3.03105 0.823788 0
M  V30 2114 H 205.769 5.016 -0.491259 0
M  V30 2115 H 205.371 3.49678 -1.3267 0
M  V30 2116 H 207.663 6.66599 -1.21044 0
M  V30 2117 H 208.606 6.53403 -2.72892 0
M  V30 2118 H 209.014 5.4837 -1.33979 0
M  V30 2119 N 208.412 0.89855 1.29475 0
M  V30 2120 C 209.322 0.379974 2.31502 0
M  V30 2121 C 210.338 -0.524695 1.659 0
M  V30 2122 O 211.514 -0.414551 1.97087 0
M  V30 2123 C 208.579 -0.385138 3.44554 0
M  V30 2124 C 207.64 0.550914 4.2575 0
M  V30 2125 C 206.873 -0.177778 5.33404 0
M  V30 2126 O 207.096 -1.40189 5.52904 0
M  V30 2127 O 206.03 0.479106 5.9999 0
M  V30 2128 H 209.856 1.22639 2.77837 0
M  V30 2129 H 207.441 0.662834 1.33891 0
M  V30 2130 H 209.323 -0.817841 4.13388 0
M  V30 2131 H 207.998 -1.20763 3.0033 0
M  V30 2132 H 206.905 1.03271 3.59564 0
M  V30 2133 H 208.238 1.33979 4.73614 0
M  V30 2134 N 209.89 -1.43072 0.660911 0
M  V30 2135 C 211.115 -2.06584 0.183805 0
M  V30 2136 C 211.54 -1.49257 -1.14472 0
M  V30 2137 O 210.898 -0.605528 -1.70889 0
M  V30 2138 C 210.946 -3.60418 0.114434 0
M  V30 2139 O 210.05 -4.01981 -0.921137 0
M  V30 2140 H 209.391 -0.656669 0.0983994 0
M  V30 2141 H 211.921 -1.83447 0.906006 0
M  V30 2142 H 211.931 -4.07946 -0.0663394 0
M  V30 2143 H 210.606 -4.01519 1.08422 0
M  V30 2144 H 209.183 -3.66029 -0.71253 0
M  V30 2145 N 211.368 -0.403325 -1.52352 0
M  V30 2146 C 212.616 0.174003 -2.0135 0
M  V30 2147 C 212.937 1.46139 -1.29106 0
M  V30 2148 O 212.207 1.91448 -0.415253 0
M  V30 2149 H 210.787 0.0672911 -0.743963 0
M  V30 2150 H 213.449 -0.538235 -1.87321 0
M  V30 2151 H 212.545 0.374254 -3.09848 0
M  V30 2152 N 212.846 1.57033 -0.133567 0
M  V30 2153 C 213.756 2.19632 0.824564 0
M  V30 2154 C 214.772 1.17666 1.28182 0
M  V30 2155 O 215.948 1.50193 1.3418 0
M  V30 2156 C 213.013 2.79499 2.05137 0
M  V30 2157 C 212.074 3.96548 1.64464 0
M  V30 2158 C 211.307 4.5355 2.81297 0
M  V30 2159 O 211.53 4.09438 3.97136 0
M  V30 2160 O 210.464 5.44018 2.57542 0
M  V30 2161 H 214.29 3.01991 0.321766 0
M  V30 2162 H 211.875 1.49112 0.0927889 0
M  V30 2163 H 213.757 3.17602 2.7696 0
M  V30 2164 H 212.432 2.00162 2.54395 0
M  V30 2165 H 211.339 3.63186 0.897048 0
M  V30 2166 H 212.672 4.77364 1.19934 0
M  V30 2167 N 214.325 -0.140222 1.56975 0
M  V30 2168 C 215.736 -0.699596 1.73097 0
M  V30 2169 C 216.087 -1.8134 0.749022 0
M  V30 2170 O 215.212 -2.16241 -0.0828503 0
M  V30 2171 C 215.807 -1.27582 3.1386 0
M  V30 2172 C 214.366 -1.78169 3.31561 0
M  V30 2173 C 213.513 -0.672855 2.69013 0
M  V30 2174 H 216.464 0.0855115 1.58469 0
M  V30 2175 H 216.485 -2.14561 3.14235 0
M  V30 2176 H 215.997 -0.464955 3.85305 0
M  V30 2177 H 214.098 -2.61801 2.65124 0
M  V30 2178 H 214.211 -1.90574 4.39566 0
M  V30 2179 H 212.575 -1.10118 2.29665 0
M  V30 2180 H 213.358 0.126679 3.43066 0
M  V30 2181 N 215.803 -1.52179 -0.40978 0
M  V30 2182 C 217.028 -1.70347 -1.18308 0
M  V30 2183 C 217.453 -0.411887 -1.83535 0
M  V30 2184 O 216.811 0.630587 -1.6998 0
M  V30 2185 C 216.859 -2.83977 -2.22238 0
M  V30 2186 O 215.963 -2.495 -3.28365 0
M  V30 2187 H 215.304 -0.567103 -0.345384 0
M  V30 2188 H 217.834 -1.98879 -0.480445 0
M  V30 2189 H 217.844 -3.0887 -2.66577 0
M  V30 2190 H 216.519 -3.77685 -1.74146 0
M  V30 2191 H 215.096 -2.35277 -2.89308 0
M  V30 2192 N 217.281 0.66697 -1.42791 0
M  V30 2193 C 218.506 1.46004 -1.47301 0
M  V30 2194 C 218.931 1.87894 -0.0880317 0
M  V30 2195 O 218.289 1.56502 0.915253 0
M  V30 2196 C 218.337 2.68031 -2.41229 0
M  V30 2197 O 217.441 3.6659 -1.88906 0
M  V30 2198 H 216.782 0.43832 -0.49877 0
M  V30 2199 H 219.312 0.817391 -1.87563 0
M  V30 2200 H 219.322 3.1601 -2.58073 0
M  V30 2201 H 217.997 2.36883 -3.41847 0
M  V30 2202 H 216.574 3.25661 -1.81656 0
M  V30 2203 N 218.759 1.29093 0.90403 0
M  V30 2204 C 219.689 1.16401 2.02418 0
M  V30 2205 C 220.67 0.0593085 1.69997 0
M  V30 2206 O 221.855 0.238021 1.92736 0
M  V30 2207 C 218.985 0.835233 3.37107 0
M  V30 2208 C 217.939 1.89578 3.83724 0
M  V30 2209 C 217.265 1.42041 5.15489 0
M  V30 2210 C 218.565 3.30394 4.04521 0
M  V30 2211 H 220.259 2.10109 2.13295 0
M  V30 2212 H 217.805 1.01157 1.02486 0
M  V30 2213 H 219.758 0.733169 4.14973 0
M  V30 2214 H 218.482 -0.137543 3.2631 0
M  V30 2215 H 217.141 1.98715 3.08071 0
M  V30 2216 H 216.789 0.436426 5.01103 0
M  V30 2217 H 216.489 2.12964 5.4765 0
M  V30 2218 H 218.013 1.33176 5.959 0
M  V30 2219 H 219.427 3.24123 4.72882 0
M  V30 2220 H 217.824 3.99237 4.48029 0
M  V30 2221 H 218.894 3.73692 3.09002 0
M  V30 2222 N 220.237 -1.11381 1.11499 0
M  V30 2223 C 221.648 -1.6465 0.880191 0
M  V30 2224 C 221.999 -1.87199 -0.587434 0
M  V30 2225 O 221.124 -1.60667 -1.44966 0
M  V30 2226 C 221.719 -2.99105 1.59128 0
M  V30 2227 C 220.278 -3.49279 1.40289 0
M  V30 2228 C 219.425 -2.24077 1.63354 0
M  V30 2229 H 222.376 -0.950123 1.27116 0
M  V30 2230 H 222.397 -3.66107 1.03664 0
M  V30 2231 H 221.909 -2.82661 2.65941 0
M  V30 2232 H 220.01 -3.70887 0.356888 0
M  V30 2233 H 220.123 -4.2803 2.15238 0
M  V30 2234 H 218.487 -2.31733 1.05698 0
M  V30 2235 H 219.27 -2.10175 2.71443 0
M  V30 2236 N 221.715 -0.905404 -1.28997 0
M  V30 2237 C 223.131 -0.60233 -1.47798 0
M  V30 2238 C 223.331 0.854645 -1.82478 0
M  V30 2239 O 222.387 1.63439 -1.92468 0
M  V30 2240 C 223.7 -1.53306 -2.58685 0
M  V30 2241 C 225.248 -1.53887 -2.72558 0
M  V30 2242 C 225.723 -2.45602 -3.86579 0
M  V30 2243 N 227.214 -2.43681 -3.93921 0
M  V30 2244 C 227.949 -3.11347 -4.81509 0
M  V30 2245 N 227.445 -3.88313 -5.73746 0
M  V30 2246 N 229.238 -3.00476 -4.75048 0
M  V30 2247 H 221.389 -1.84765 -1.04764 0
M  V30 2248 H 223.652 -0.792025 -0.520961 0
M  V30 2249 H 223.358 -2.57141 -2.39941 0
M  V30 2250 H 223.232 -1.25787 -3.55609 0
M  V30 2251 H 225.619 -0.507941 -2.90696 0
M  V30 2252 H 225.7 -1.85447 -1.76191 0
M  V30 2253 H 225.344 -3.48792 -3.69197 0
M  V30 2254 H 225.274 -2.11349 -4.82327 0
M  V30 2255 H 227.765 -1.87767 -3.27951 0
M  V30 2256 H 228.078 -4.36985 -6.37389 0
M  V30 2257 H 226.423 -3.92419 -5.73614 0
M  V30 2258 H 229.614 -2.39858 -4.01977 0
M  V30 2259 H 229.787 -3.53485 -5.43095 0
M  V30 2260 N 223.193 1.4272 -0.668489 0
M  V30 2261 C 224.604 1.84793 -0.266151 0
M  V30 2262 C 224.955 1.55959 1.19043 0
M  V30 2263 O 224.08 1.01622 1.91055 0
M  V30 2264 C 224.675 3.35436 -0.476271 0
M  V30 2265 C 223.234 3.76182 -0.128113 0
M  V30 2266 C 222.381 2.66344 -0.771777 0
M  V30 2267 H 225.332 1.32656 -0.871098 0
M  V30 2268 H 225.353 3.79515 0.273561 0
M  V30 2269 H 224.865 3.5639 -1.53647 0
M  V30 2270 H 222.966 3.60836 0.928891 0
M  V30 2271 H 223.079 4.75766 -0.564231 0
M  V30 2272 H 221.443 2.53885 -0.203652 0
M  V30 2273 H 222.226 2.90123 -1.83531 0
M  V30 2274 N 224.671 0.411399 1.52136 0
M  V30 2275 C 225.634 -0.401089 2.25663 0
M  V30 2276 C 226.634 -0.971732 1.28117 0
M  V30 2277 O 227.824 -0.850254 1.52041 0
M  V30 2278 C 224.956 -1.56483 3.02863 0
M  V30 2279 H 226.149 0.24295 2.98914 0
M  V30 2280 H 223.702 0.163968 1.55438 0
M  V30 2281 H 224.437 -2.24567 2.33967 0
M  V30 2282 H 224.222 -1.16211 3.74483 0
M  V30 2283 H 225.712 -2.13951 3.58629 0
M  V30 2284 N 226.149 -1.5696 0.141893 0
M  V30 2285 C 227.377 -2.00322 -0.517579 0
M  V30 2286 C 227.792 -1.02193 -1.58752 0
M  V30 2287 O 227.149 -0.0181619 -1.82491 0
M  V30 2288 C 227.2 -3.43618 -1.12289 0
M  V30 2289 O 226.921 -4.37995 -0.0956929 0
M  V30 2290 C 228.422 -4.02231 -1.86347 0
M  V30 2291 H 225.642 -0.657243 -0.135177 0
M  V30 2292 H 228.186 -2.03146 0.234973 0
M  V30 2293 H 226.341 -3.41662 -1.82609 0
M  V30 2294 H 226.755 -5.21729 -0.538469 0
M  V30 2295 H 228.229 -5.04509 -2.23997 0
M  V30 2296 H 228.706 -3.42655 -2.74744 0
M  V30 2297 H 229.312 -4.07802 -1.20737 0
M  V30 2298 N 227.627 0.131896 -1.57047 0
M  V30 2299 C 228.577 1.1679 -1.95816 0
M  V30 2300 C 229.561 1.37756 -0.831393 0
M  V30 2301 O 230.753 1.39065 -1.09499 0
M  V30 2302 C 227.882 2.49778 -2.35512 0
M  V30 2303 C 226.968 2.32342 -3.54793 0
M  V30 2304 N 227.359 1.8469 -4.70875 0
M  V30 2305 C 225.657 2.63043 -3.60173 0
M  V30 2306 C 226.358 1.80656 -5.52936 0
M  V30 2307 N 225.334 2.24528 -4.95064 0
M  V30 2308 H 229.136 0.791818 -2.83033 0
M  V30 2309 H 226.65 0.339791 -1.58805 0
M  V30 2310 H 228.647 3.24692 -2.61498 0
M  V30 2311 H 227.307 2.88156 -1.49654 0
M  V30 2312 H 228.318 1.54429 -4.9434 0
M  V30 2313 H 224.995 3.05193 -2.84892 0
M  V30 2314 H 226.385 1.45178 -6.56028 0
M  V30 2315 N 229.106 1.52395 0.401703 0
M  V30 2316 C 230.352 1.68019 1.14635 0
M  V30 2317 C 230.707 0.408722 1.88009 0
M  V30 2318 O 230 -0.597133 1.82057 0
M  V30 2319 C 230.194 2.84578 2.16217 0
M  V30 2320 C 230.023 4.22938 1.5282 0
M  V30 2321 C 228.793 4.88352 1.29772 0
M  V30 2322 C 230.991 5.04778 0.985094 0
M  V30 2323 N 228.973 6.10726 0.623455 0
M  V30 2324 C 230.344 6.1845 0.438172 0
M  V30 2325 C 232.399 4.90057 0.880275 0
M  V30 2326 C 231.102 7.19013 -0.203306 0
M  V30 2327 C 233.128 5.9086 0.252639 0
M  V30 2328 C 232.49 7.03829 -0.283573 0
M  V30 2329 H 228.589 0.668413 0.405892 0
M  V30 2330 H 231.173 1.89717 0.437674 0
M  V30 2331 H 229.344 2.64483 2.84435 0
M  V30 2332 H 231.076 2.89202 2.83098 0
M  V30 2333 H 227.831 4.46846 1.56926 0
M  V30 2334 H 228.255 6.76323 0.302733 0
M  V30 2335 H 232.897 4.02938 1.28065 0
M  V30 2336 H 230.615 8.05751 -0.615726 0
M  V30 2337 H 234.201 5.81543 0.172954 0
M  V30 2338 H 233.081 7.80493 -0.761575 0
M  V30 2339 N 230.584 -0.659388 1.43143 0
M  V30 2340 C 231.995 -1.24041 1.39537 0
M  V30 2341 C 232.346 -1.95963 0.0963364 0
M  V30 2342 O 231.471 -2.00892 -0.804438 0
M  V30 2343 C 232.066 -2.25601 2.52764 0
M  V30 2344 C 230.625 -2.79195 2.52443 0
M  V30 2345 C 229.772 -1.53743 2.30778 0
M  V30 2346 H 232.723 -0.451792 1.52133 0
M  V30 2347 H 232.744 -3.07651 2.23899 0
M  V30 2348 H 232.256 -1.73226 3.47296 0
M  V30 2349 H 230.357 -3.35649 1.61773 0
M  V30 2350 H 230.47 -3.2716 3.50004 0
M  V30 2351 H 228.834 -1.80869 1.79328 0
M  V30 2352 H 229.617 -1.03312 3.27386 0
M  V30 2353 N 232.062 -1.29571 -0.897171 0
M  V30 2354 C 233.309 -1.17689 -1.6479 0
M  V30 2355 C 233.637 0.27107 -1.92602 0
M  V30 2356 O 232.892 1.21193 -1.53658 0
M  V30 2357 C 233.191 -1.9382 -3.00281 0
M  V30 2358 C 232.857 -3.43522 -2.92068 0
M  V30 2359 C 231.519 -3.84348 -2.89535 0
M  V30 2360 C 233.871 -4.38906 -2.81089 0
M  V30 2361 C 231.199 -5.18869 -2.73846 0
M  V30 2362 C 233.551 -5.73521 -2.66939 0
M  V30 2363 C 232.215 -6.13601 -2.62774 0
M  V30 2364 H 231.485 -0.430654 -0.603008 0
M  V30 2365 H 234.132 -1.60536 -1.04404 0
M  V30 2366 H 232.437 -1.4357 -3.64547 0
M  V30 2367 H 234.134 -1.82028 -3.57305 0
M  V30 2368 H 230.724 -3.11072 -2.94842 0
M  V30 2369 H 234.908 -4.08315 -2.82121 0
M  V30 2370 H 230.164 -5.4903 -2.69027 0
M  V30 2371 H 234.338 -6.47078 -2.57416 0
M  V30 2372 H 231.965 -7.17786 -2.50375 0
M  V30 2373 N 233.54 1.10788 -1.12088 0
M  V30 2374 C 234.487 2.17025 -0.785407 0
M  V30 2375 C 235.457 1.64265 0.246191 0
M  V30 2376 O 236.642 1.90412 0.121584 0
M  V30 2377 C 233.782 3.44249 -0.242177 0
M  V30 2378 C 232.895 4.1098 -1.33115 0
M  V30 2379 C 232.03 5.25911 -0.747741 0
M  V30 2380 C 231.069 5.84538 -1.81609 0
M  V30 2381 N 230.206 6.90853 -1.25167 0
M  V30 2382 H 235.046 2.45066 -1.69548 0
M  V30 2383 H 232.583 1.20297 -0.846582 0
M  V30 2384 H 234.541 4.17101 0.0908026 0
M  V30 2385 H 233.171 3.16571 0.631072 0
M  V30 2386 H 232.223 3.36133 -1.78097 0
M  V30 2387 H 233.535 4.50601 -2.13917 0
M  V30 2388 H 232.689 6.056 -0.365216 0
M  V30 2389 H 231.428 4.87614 0.0915188 0
M  V30 2390 H 230.433 5.03522 -2.20785 0
M  V30 2391 H 231.658 6.249 -2.6585 0
M  V30 2392 H 229.604 6.54562 -0.434174 0
M  V30 2393 H 229.521 7.29166 -1.99633 0
M  V30 2394 H 230.789 7.7433 -0.896259 0
M  V30 2395 N 235.018 0.912232 1.28515 0
M  V30 2396 C 236.246 0.560416 1.99166 0
M  V30 2397 C 236.661 -0.857927 1.68182 0
M  V30 2398 O 236.018 -1.56805 0.933733 0
M  V30 2399 C 236.069 0.758142 3.53461 0
M  V30 2400 O 235.79 2.12067 3.83352 0
M  V30 2401 C 237.291 0.412954 4.41372 0
M  V30 2402 H 234.511 0.213805 0.636026 0
M  V30 2403 H 237.055 1.22502 1.63749 0
M  V30 2404 H 235.21 0.140556 3.87145 0
M  V30 2405 H 235.624 2.15923 4.77993 0
M  V30 2406 H 237.098 0.60208 5.48707 0
M  V30 2407 H 237.575 -0.65073 4.34353 0
M  V30 2408 H 238.181 1.00802 4.13182 0
M  V30 2409 N 236.496 -1.42363 0.676048 0
M  V30 2410 C 237.459 -2.29199 0.00766941 0
M  V30 2411 C 238.459 -1.43389 -0.727745 0
M  V30 2412 O 239.649 -1.64764 -0.56556 0
M  V30 2413 C 236.781 -3.2591 -0.999785 0
M  V30 2414 H 237.974 -2.89794 0.771988 0
M  V30 2415 H 235.527 -1.50024 0.438468 0
M  V30 2416 H 236.262 -2.70256 -1.79255 0
M  V30 2417 H 236.047 -3.89202 -0.475829 0
M  V30 2418 H 237.537 -3.91028 -1.46583 0
M  V30 2419 N 237.974 -0.419461 -1.51915 0
M  V30 2420 C 239.221 0.152939 -2.01922 0
M  V30 2421 C 239.549 1.4426 -1.30458 0
M  V30 2422 O 238.804 1.91514 -0.402593 0
M  V30 2423 C 239.103 0.437067 -3.54717 0
M  V30 2424 C 238.769 -0.764632 -4.44369 0
M  V30 2425 C 237.431 -1.09423 -4.68594 0
M  V30 2426 C 239.783 -1.56713 -4.97082 0
M  V30 2427 C 237.111 -2.22732 -5.42777 0
M  V30 2428 C 239.463 -2.69107 -5.72507 0
M  V30 2429 C 238.127 -3.02541 -5.95 0
M  V30 2430 H 237.397 0.0559644 -0.738884 0
M  V30 2431 H 240.044 -0.562998 -1.83037 0
M  V30 2432 H 238.349 1.23469 -3.71837 0
M  V30 2433 H 240.046 0.893083 -3.90928 0
M  V30 2434 H 236.636 -0.497775 -4.257 0
M  V30 2435 H 240.82 -1.32571 -4.78266 0
M  V30 2436 H 236.076 -2.48971 -5.58411 0
M  V30 2437 H 240.25 -3.31671 -6.12346 0
M  V30 2438 H 237.877 -3.90457 -6.52264 0
M  V30 2439 N 239.452 1.56882 -0.150215 0
M  V30 2440 C 240.384 2.14057 0.819286 0
M  V30 2441 C 241.397 1.09082 1.20851 0
M  V30 2442 O 242.586 1.36347 1.15203 0
M  V30 2443 C 239.686 2.65102 2.11127 0
M  V30 2444 C 238.859 3.94511 1.88891 0
M  V30 2445 C 237.918 4.30834 3.02107 0
M  V30 2446 O 236.944 4.99099 2.73659 0
M  V30 2447 N 238.146 3.90676 4.29363 0
M  V30 2448 H 240.911 2.97871 0.330618 0
M  V30 2449 H 238.472 1.61866 0.0332538 0
M  V30 2450 H 240.464 2.86411 2.85921 0
M  V30 2451 H 239.034 1.85994 2.51247 0
M  V30 2452 H 238.254 3.81795 0.981152 0
M  V30 2453 H 239.542 4.7907 1.71376 0
M  V30 2454 H 238.94 3.35677 4.55343 0
M  V30 2455 H 237.497 4.1703 5.00928 0
M  V30 2456 N 240.93 -0.123565 1.57115 0
M  V30 2457 C 241.88 -1.1575 1.96433 0
M  V30 2458 C 242.864 -1.37313 0.838686 0
M  V30 2459 O 244.056 -1.38482 1.10235 0
M  V30 2460 C 241.185 -2.48526 2.36833 0
M  V30 2461 C 240.271 -2.30457 3.5602 0
M  V30 2462 N 240.662 -1.8219 4.71848 0
M  V30 2463 C 238.96 -2.61129 3.61563 0
M  V30 2464 C 239.661 -1.77721 5.53886 0
M  V30 2465 N 238.637 -2.21899 4.96248 0
M  V30 2466 H 242.439 -0.776797 2.83449 0
M  V30 2467 H 239.953 -0.331364 1.58983 0
M  V30 2468 H 241.95 -3.233 2.63216 0
M  V30 2469 H 240.61 -2.87358 1.5118 0
M  V30 2470 H 241.621 -1.51805 4.95152 0
M  V30 2471 H 238.298 -3.03678 2.86507 0
M  V30 2472 H 239.688 -1.41697 6.56789 0
M  V30 2473 N 242.408 -1.52605 -0.393616 0
M  V30 2474 C 243.358 -1.73436 -1.48 0
M  V30 2475 C 244.342 -0.588386 -1.49756 0
M  V30 2476 O 245.534 -0.846047 -1.5547 0
M  V30 2477 C 242.663 -1.90247 -2.85764 0
M  V30 2478 C 241.749 -3.10763 -2.88595 0
M  V30 2479 N 242.14 -4.33196 -2.61103 0
M  V30 2480 C 240.438 -3.10914 -3.19763 0
M  V30 2481 C 241.139 -5.1477 -2.70899 0
M  V30 2482 N 240.115 -4.50356 -3.04435 0
M  V30 2483 H 243.917 -2.65727 -1.25563 0
M  V30 2484 H 241.431 -1.5085 -0.601513 0
M  V30 2485 H 243.428 -2.03291 -3.63976 0
M  V30 2486 H 242.088 -0.991663 -3.09186 0
M  V30 2487 H 243.099 -4.61408 -2.35209 0
M  V30 2488 H 239.776 -2.29626 -3.4868 0
M  V30 2489 H 241.166 -6.22355 -2.53227 0
M  V30 2490 N 243.887 0.651787 -1.4349 0
M  V30 2491 C 245.117 1.43728 -1.48411 0
M  V30 2492 C 245.525 1.8893 -0.10103 0
M  V30 2493 O 244.868 1.60182 0.899307 0
M  V30 2494 C 244.93 2.70411 -2.36893 0
M  V30 2495 C 244.594 2.4714 -3.8441 0
M  V30 2496 C 245.591 2.10271 -4.75481 0
M  V30 2497 C 243.276 2.6142 -4.28912 0
M  V30 2498 C 245.27 1.87982 -6.0905 0
M  V30 2499 C 242.957 2.38746 -5.62533 0
M  V30 2500 C 243.955 2.02083 -6.5242 0
M  V30 2501 O 243.643 1.79647 -7.8357 0
M  V30 2502 H 243.375 0.447962 -0.506267 0
M  V30 2503 H 245.929 0.80624 -1.88915 0
M  V30 2504 H 244.159 3.36079 -1.91278 0
M  V30 2505 H 245.848 3.32364 -2.33 0
M  V30 2506 H 246.614 1.98814 -4.42378 0
M  V30 2507 H 242.493 2.88931 -3.59222 0
M  V30 2508 H 246.037 1.5929 -6.7917 0
M  V30 2509 H 241.934 2.49806 -5.95203 0
M  V30 2510 H 242.702 1.9406 -7.95162 0
M  V30 2511 N 245.365 1.30045 0.890287 0
M  V30 2512 C 246.295 1.18541 2.01172 0
M  V30 2513 C 247.276 0.0773356 1.69924 0
M  V30 2514 O 248.461 0.25845 1.92473 0
M  V30 2515 C 245.591 0.870941 3.36202 0
M  V30 2516 C 244.545 1.93637 3.81692 0
M  V30 2517 C 243.871 1.475 5.13953 0
M  V30 2518 C 245.171 3.34666 4.00994 0
M  V30 2519 H 246.865 2.12359 2.11054 0
M  V30 2520 H 244.411 1.02238 1.01407 0
M  V30 2521 H 246.364 0.777141 4.14172 0
M  V30 2522 H 245.088 -0.102926 3.26438 0
M  V30 2523 H 243.747 2.01972 3.05946 0
M  V30 2524 H 243.395 0.489551 5.00612 0
M  V30 2525 H 243.095 2.1876 5.4536 0
M  V30 2526 H 244.619 1.39489 5.94454 0
M  V30 2527 H 246.033 3.2912 4.69417 0
M  V30 2528 H 244.43 4.03966 4.43769 0
M  V30 2529 H 245.5 3.76949 3.05021 0
M  V30 2530 N 246.843 -1.10192 1.12674 0
M  V30 2531 C 248.089 -1.82475 0.884915 0
M  V30 2532 C 248.422 -1.85093 -0.58773 0
M  V30 2533 O 247.697 -1.3134 -1.43457 0
M  V30 2534 C 247.98 -3.29018 1.46353 0
M  V30 2535 C 247.833 -3.34718 3.00473 0
M  V30 2536 C 249.152 -4.25473 1.12519 0
M  V30 2537 H 246.271 -0.662492 0.322915 0
M  V30 2538 H 248.913 -1.2913 1.39375 0
M  V30 2539 H 247.063 -3.74576 1.03077 0
M  V30 2540 H 248.735 -2.97622 3.52447 0
M  V30 2541 H 246.978 -2.74541 3.35872 0
M  V30 2542 H 247.649 -4.37918 3.36053 0
M  V30 2543 H 250.125 -3.88161 1.499 0
M  V30 2544 H 249.001 -5.26365 1.55663 0
M  V30 2545 H 249.262 -4.42084 0.0377407 0
M  V30 2546 N 248.321 -0.919034 -1.28029 0
M  V30 2547 C 249.598 -0.473668 -1.89778 0
M  V30 2548 C 249.978 1.04783 -1.83259 0
M  V30 2549 O 249.326 1.8982 -1.27202 0
M  V30 2550 C 249.536 -1.00998 -3.34066 0
M  V30 2551 C 250.884 -1.06525 -4.1102 0
M  V30 2552 O 251.908 -0.958996 -3.43048 0
M  V30 2553 O 250.767 -1.22776 -5.3253 0
M  V30 2554 H 247.861 -0.15098 -0.813101 0
M  V30 2555 H 250.407 -1.01016 -1.36359 0
M  V30 2556 H 249.179 -2.05392 -3.33061 0
M  V30 2557 H 248.802 -0.454626 -3.94992 0
M  V30 2558 N 249.799 1.42003 -0.683588 0
M  V30 2559 C 250.709 2.34597 -0.0109075 0
M  V30 2560 C 251.725 1.55576 0.779245 0
M  V30 2561 O 252.901 1.88107 0.719555 0
M  V30 2562 C 249.966 3.34199 0.922588 0
M  V30 2563 C 249.027 4.29115 0.125984 0
M  V30 2564 C 248.26 5.23959 1.01502 0
M  V30 2565 O 248.483 5.23952 2.25456 0
M  V30 2566 O 247.417 6.00053 0.47111 0
M  V30 2567 H 251.243 2.93675 -0.773853 0
M  V30 2568 H 248.828 1.42654 -0.443861 0
M  V30 2569 H 250.71 3.95365 1.45823 0
M  V30 2570 H 249.385 2.77582 1.66523 0
M  V30 2571 H 248.292 3.71335 -0.453969 0
M  V30 2572 H 249.625 4.88798 -0.577736 0
M  V30 2573 N 251.277 0.427512 1.51691 0
M  V30 2574 C 252.526 -0.143679 2.01188 0
M  V30 2575 C 252.839 -1.44642 1.31674 0
M  V30 2576 O 254.045 -2.09997 1.72086 0
M  V30 2577 C 252.501 -0.306602 3.58592 0
M  V30 2578 C 252.109 0.985125 4.37035 0
M  V30 2579 C 253.853 -0.832091 4.16265 0
M  V30 2580 C 251.76 0.788382 5.86122 0
M  V30 2581 H 250.69 -0.0574701 0.751807 0
M  V30 2582 H 253.341 0.555772 1.74881 0
M  V30 2583 H 251.723 -1.06882 3.81303 0
M  V30 2584 H 252.897 1.75492 4.26074 0
M  V30 2585 H 251.212 1.4384 3.90767 0
M  V30 2586 H 253.809 -0.995617 5.25349 0
M  V30 2587 H 254.152 -1.81186 3.74803 0
M  V30 2588 H 254.685 -0.128444 3.97593 0
M  V30 2589 H 251.424 1.74025 6.31978 0
M  V30 2590 H 250.944 0.0582143 5.99772 0
M  V30 2591 H 252.623 0.437722 6.45518 0
M  V30 2592 N 252.755 -1.56801 0.158532 0
M  V30 2593 C 254.166 -1.83189 -0.360366 0
M  V30 2594 C 254.517 -1.07778 -1.63946 0
M  V30 2595 O 253.642 -0.326718 -2.13919 0
M  V30 2596 C 254.237 -3.32297 -0.660595 0
M  V30 2597 C 252.796 -3.59227 -1.12398 0
M  V30 2598 C 251.943 -2.76877 -0.153097 0
M  V30 2599 H 254.894 -1.54008 0.383031 0
M  V30 2600 H 254.915 -3.4908 -1.51405 0
M  V30 2601 H 254.427 -3.87156 0.270527 0
M  V30 2602 H 252.528 -3.09766 -2.07064 0
M  V30 2603 H 252.641 -4.67632 -1.04197 0
M  V30 2604 H 251.005 -2.46319 -0.647983 0
M  V30 2605 H 251.788 -3.34511 0.77182 0
M  V30 2606 N 254.233 0.115231 -1.57178 0
M  V30 2607 C 255.644 0.67197 -1.74188 0
M  V30 2608 C 255.995 1.80125 -0.777777 0
M  V30 2609 O 255.12 2.16346 0.0484376 0
M  V30 2610 C 255.715 1.22573 -3.1585 0
M  V30 2611 C 254.274 1.72872 -3.34353 0
M  V30 2612 C 253.421 0.629972 -2.70049 0
M  V30 2613 H 256.372 -0.110712 -1.58313 0
M  V30 2614 H 256.393 2.09535 -3.17609 0
M  V30 2615 H 255.905 0.403598 -3.85996 0
M  V30 2616 H 254.006 2.5755 -2.69256 0
M  V30 2617 H 254.119 1.83557 -4.42542 0
M  V30 2618 H 252.483 1.0645 -2.31388 0
M  V30 2619 H 253.266 -0.181241 -3.42821 0
M  V30 2620 N 255.711 1.52812 0.385517 0
M  V30 2621 C 256.659 1.78482 1.49155 0
M  V30 2622 C 257.653 0.652914 1.56312 0
M  V30 2623 O 258.859 0.835464 1.59436 0
M  V30 2624 H 255.234 0.5648 0.496493 0
M  V30 2625 H 257.205 2.71095 1.24699 0
M  V30 2626 C 255.954 1.97378 2.86247 0
M  V30 2627 H 255.277 2.83907 2.81491 0
M  V30 2628 H 256.717 2.19327 3.62866 0
M  V30 2629 C 255.176 0.74728 3.28508 0
M  V30 2630 O 255.706 -0.0736232 4.01633 0
M  V30 2631 N 253.912 0.576396 2.84826 0
M  V30 2632 H 253.459 1.24555 2.25486 0
M  V30 2633 H 253.417 -0.24288 3.1346 0
M  V30 2634 N 257.189 -0.644168 1.43834 0
M  V30 2635 C 258.152 -1.73857 1.49353 0
M  V30 2636 C 259.152 -1.56315 0.377112 0
M  V30 2637 O 260.342 -1.62048 0.639226 0
M  V30 2638 C 257.474 -3.12819 1.35488 0
M  V30 2639 H 258.667 -1.70342 2.46827 0
M  V30 2640 H 256.22 -0.856652 1.30733 0
M  V30 2641 H 256.955 -3.2194 0.390569 0
M  V30 2642 H 256.74 -3.26958 2.16428 0
M  V30 2643 H 258.23 -3.92606 1.42302 0
M  V30 2644 N 258.668 -1.30515 -0.883378 0
M  V30 2645 C 259.917 -1.18795 -1.63005 0
M  V30 2646 C 260.23 0.255923 -1.93919 0
M  V30 2647 O 261.436 0.494654 -2.66956 0
M  V30 2648 C 259.892 -2.07878 -2.93794 0
M  V30 2649 C 259.5 -3.57184 -2.70414 0
M  V30 2650 C 261.244 -2.04924 -3.71761 0
M  V30 2651 C 259.151 -4.38317 -3.97029 0
M  V30 2652 H 258.081 -0.441031 -0.611562 0
M  V30 2653 H 260.732 -1.55275 -0.977854 0
M  V30 2654 H 259.114 -1.64283 -3.60315 0
M  V30 2655 H 260.288 -4.08937 -2.12384 0
M  V30 2656 H 258.603 -3.61976 -2.0582 0
M  V30 2657 H 261.2 -2.62792 -4.65665 0
M  V30 2658 H 261.543 -1.0331 -4.03277 0
M  V30 2659 H 262.076 -2.46649 -3.12104 0
M  V30 2660 H 258.815 -5.40632 -3.70671 0
M  V30 2661 H 258.335 -3.91326 -4.54559 0
M  V30 2662 H 260.014 -4.49834 -4.65036 0
M  V30 2663 N 260.146 1.09593 -1.13257 0
M  V30 2664 C 261.395 1.81105 -0.887917 0
M  V30 2665 C 261.708 1.86563 0.587672 0
M  V30 2666 O 262.914 2.54367 0.949204 0
M  V30 2667 C 261.37 3.25338 -1.53895 0
M  V30 2668 C 260.978 3.28151 -3.04994 0
M  V30 2669 C 262.722 4.01617 -1.37492 0
M  V30 2670 C 260.629 4.66897 -3.6299 0
M  V30 2671 H 259.559 0.678661 -0.328534 0
M  V30 2672 H 262.21 1.23183 -1.36008 0
M  V30 2673 H 260.592 3.8331 -0.994446 0
M  V30 2674 H 261.766 2.79953 -3.66009 0
M  V30 2675 H 260.081 2.65361 -3.20893 0
M  V30 2676 H 262.678 5.04119 -1.78235 0
M  V30 2677 H 263.021 4.15072 -0.31957 0
M  V30 2678 H 263.554 3.50082 -1.88912 0
M  V30 2679 H 260.293 4.58643 -4.68323 0
M  V30 2680 H 259.813 5.15426 -3.06752 0
M  V30 2681 H 261.492 5.3587 -3.62563 0
M  V30 2682 N 261.624 0.925811 1.2754 0
M  V30 2683 C 262.852 0.581509 1.9856 0
M  V30 2684 C 263.267 -0.840041 1.69082 0
M  V30 2685 O 262.624 -1.55805 0.950312 0
M  V30 2686 C 262.675 0.795589 3.52637 0
M  V30 2687 O 262.396 2.16121 3.81082 0
M  V30 2688 C 263.897 0.459744 4.4091 0
M  V30 2689 H 261.117 0.220538 0.633722 0
M  V30 2690 H 263.661 1.24232 1.6244 0
M  V30 2691 H 261.816 0.18161 3.86974 0
M  V30 2692 H 262.23 2.2098 4.75676 0
M  V30 2693 H 263.704 0.660244 5.48037 0
M  V30 2694 H 264.181 -0.604625 4.35018 0
M  V30 2695 H 264.787 1.05178 4.12089 0
M  V30 2696 N 263.102 -1.41638 0.69111 0
M  V30 2697 C 264.379 -1.95036 0.148421 0
M  V30 2698 C 264.759 -1.63072 -1.34055 0
M  V30 2699 O 264.107 -0.93538 -2.08478 0
M  V30 2700 C 264.317 -3.46279 0.434951 0
M  V30 2701 C 265.665 -4.23069 0.360275 0
M  V30 2702 O 266.689 -3.54277 0.369613 0
M  V30 2703 O 265.548 -5.45583 0.316534 0
M  V30 2704 H 262.642 -0.826908 0.0123654 0
M  V30 2705 H 265.188 -1.5138 0.766963 0
M  V30 2706 H 263.96 -3.6281 1.46576 0
M  V30 2707 H 263.583 -3.97019 -0.214787 0
M  V30 2708 N 264.58 -0.43555 -1.51462 0
M  V30 2709 C 265.543 0.365137 -2.26273 0
M  V30 2710 C 266.543 0.951227 -1.29647 0
M  V30 2711 O 267.733 0.825958 -1.53374 0
M  V30 2712 C 264.865 1.51645 -3.05314 0
M  V30 2713 H 266.058 -0.290474 -2.9849 0
M  V30 2714 H 263.611 -0.188676 -1.55157 0
M  V30 2715 H 264.346 2.20816 -2.3751 0
M  V30 2716 H 264.131 1.10238 -3.76284 0
M  V30 2717 H 265.621 2.08218 -3.61987 0
M  V30 2718 N 266.058 1.56714 -0.166846 0
M  V30 2719 C 267.474 1.58473 0.189372 0
M  V30 2720 C 267.674 1.18201 1.63189 0
M  V30 2721 O 266.73 0.891528 2.36237 0
M  V30 2722 C 268.043 3.00573 -0.0873872 0
M  V30 2723 C 269.591 3.1299 -0.0252443 0
M  V30 2724 C 270.066 4.57174 -0.274934 0
M  V30 2725 N 271.557 4.62665 -0.222553 0
M  V30 2726 C 272.292 5.72072 -0.389985 0
M  V30 2727 N 271.788 6.90054 -0.616229 0
M  V30 2728 N 273.581 5.61153 -0.326202 0
M  V30 2729 H 265.732 1.8118 -1.10849 0
M  V30 2730 H 267.995 0.839525 -0.440342 0
M  V30 2731 H 267.701 3.34497 -1.0865 0
M  V30 2732 H 267.575 3.72019 0.623037 0
M  V30 2733 H 269.962 2.78895 0.96444 0
M  V30 2734 H 270.043 2.43989 -0.768309 0
M  V30 2735 H 269.687 4.91976 -1.26181 0
M  V30 2736 H 269.617 5.24328 0.48869 0
M  V30 2737 H 272.108 3.77863 -0.0531512 0
M  V30 2738 H 272.421 7.69311 -0.733559 0
M  V30 2739 H 270.766 6.91927 -0.652791 0
M  V30 2740 H 273.957 4.67859 -0.150072 0
M  V30 2741 H 274.13 6.46364 -0.460116 0
M  V30 2742 N 267.536 -0.106894 1.57237 0
M  V30 2743 C 268.761 -0.830287 1.90055 0
M  V30 2744 C 269.186 -1.72064 0.75998 0
M  V30 2745 O 268.544 -1.78982 -0.288991 0
M  V30 2746 C 268.592 -1.6295 3.21683 0
M  V30 2747 O 267.696 -2.73748 3.08441 0
M  V30 2748 H 267.037 -0.228855 0.623315 0
M  V30 2749 H 269.567 -0.085658 2.04421 0
M  V30 2750 H 269.577 -2.01621 3.54701 0
M  V30 2751 H 268.252 -0.975989 4.04286 0
M  V30 2752 H 266.829 -2.38192 2.86913 0
M  V30 2753 N 269.014 -1.53014 -0.377408 0
M  V30 2754 C 269.977 -1.77957 -1.44444 0
M  V30 2755 C 270.977 -0.649763 -1.47087 0
M  V30 2756 O 272.167 -0.917897 -1.48055 0
M  V30 2757 C 269.299 -1.89089 -2.83651 0
M  V30 2758 H 270.492 -2.73243 -1.23606 0
M  V30 2759 H 268.045 -1.43912 -0.609844 0
M  V30 2760 H 268.78 -0.958293 -3.09818 0
M  V30 2761 H 268.565 -2.71254 -2.83132 0
M  V30 2762 H 270.055 -2.1002 -3.60945 0
M  V30 2763 N 270.492 0.636531 -1.44174 0
M  V30 2764 C 271.769 1.39463 -1.37148 0
M  V30 2765 C 272.149 2.11082 -0.027507 0
M  V30 2766 O 271.497 2.05954 0.989716 0
M  V30 2767 C 271.707 2.36552 -2.56601 0
M  V30 2768 C 273.055 3.00048 -3.00427 0
M  V30 2769 O 274.079 2.46878 -2.56767 0
M  V30 2770 O 272.938 3.96488 -3.76111 0
M  V30 2771 H 270.032 0.623903 -0.542839 0
M  V30 2772 H 272.578 0.662039 -1.56253 0
M  V30 2773 H 271.35 1.82692 -3.46034 0
M  V30 2774 H 270.973 3.17236 -2.39681 0
M  V30 2775 N 271.97 1.30982 0.876444 0
M  V30 2776 C 273.386 1.09498 1.16113 0
M  V30 2777 C 273.586 -0.13875 2.01022 0
M  V30 2778 O 272.642 -0.829935 2.38471 0
M  V30 2779 C 273.955 2.36308 1.85954 0
M  V30 2780 C 275.503 2.41856 1.98683 0
M  V30 2781 C 275.978 3.6853 2.71937 0
M  V30 2782 N 277.469 3.69387 2.79477 0
M  V30 2783 C 278.204 4.64096 3.36753 0
M  V30 2784 N 277.7 5.69155 3.95012 0
M  V30 2785 N 279.493 4.51626 3.3465 0
M  V30 2786 H 271.644 2.10118 0.310494 0
M  V30 2787 H 273.907 0.926634 0.200131 0
M  V30 2788 H 273.613 3.26388 1.31011 0
M  V30 2789 H 273.487 2.4561 2.86278 0
M  V30 2790 H 275.874 1.52249 2.52793 0
M  V30 2791 H 275.955 2.36523 0.9742 0
M  V30 2792 H 275.599 4.58499 2.18496 0
M  V30 2793 H 275.529 3.71127 3.73593 0
M  V30 2794 H 278.02 2.93438 2.38123 0
M  V30 2795 H 278.333 6.3751 4.36808 0
M  V30 2796 H 276.678 5.72937 3.93406 0
M  V30 2797 H 279.869 3.68728 2.8837 0
M  V30 2798 H 280.042 5.25614 3.7899 0
M  V30 2799 N 273.449 -1.08991 1.13837 0
M  V30 2800 C 274.696 -1.81258 0.902882 0
M  V30 2801 C 275.024 -1.85936 -0.570803 0
M  V30 2802 O 274.279 -1.3267 -1.43865 0
M  V30 2803 C 274.578 -3.27042 1.44147 0
M  V30 2804 C 274.244 -3.4249 2.93276 0
M  V30 2805 C 272.906 -3.46414 3.33992 0
M  V30 2806 C 275.258 -3.4666 3.892 0
M  V30 2807 C 272.586 -3.52091 4.69307 0
M  V30 2808 C 274.938 -3.53872 5.24364 0
M  V30 2809 C 273.602 -3.56066 5.646 0
M  V30 2810 H 272.872 -0.663268 0.330388 0
M  V30 2811 H 275.519 -1.28368 1.42105 0
M  V30 2812 H 273.824 -3.82599 0.844097 0
M  V30 2813 H 275.521 -3.81499 1.23528 0
M  V30 2814 H 272.111 -3.40124 2.60794 0
M  V30 2815 H 276.295 -3.42865 3.58828 0
M  V30 2816 H 271.551 -3.52079 4.9985 0
M  V30 2817 H 275.725 -3.56043 5.98503 0
M  V30 2818 H 273.352 -3.60218 6.69438 0
M  V30 2819 N 274.927 -0.932562 -1.27047 0
M  V30 2820 C 275.89 -0.440064 -2.24936 0
M  V30 2821 C 276.89 0.444071 -1.54547 0
M  V30 2822 O 278.08 0.244465 -1.72476 0
M  V30 2823 C 275.212 0.36678 -3.38921 0
M  V30 2824 H 276.405 -1.305 -2.70018 0
M  V30 2825 H 273.958 -0.713707 -1.39054 0
M  V30 2826 H 274.693 1.25033 -2.99228 0
M  V30 2827 H 274.478 -0.267204 -3.91188 0
M  V30 2828 H 275.968 0.701567 -4.11665 0
M  V30 2829 N 276.405 1.4127 -0.698611 0
M  V30 2830 C 277.63 2.06024 -0.238512 0
M  V30 2831 C 278.055 1.5224 1.10475 0
M  V30 2832 O 277.413 0.650623 1.69223 0
M  V30 2833 C 277.461 3.59988 -0.209952 0
M  V30 2834 O 276.565 4.04282 0.814235 0
M  V30 2835 H 275.906 0.653829 -0.115775 0
M  V30 2836 H 278.436 1.8098 -0.954326 0
M  V30 2837 H 278.446 4.07979 -0.0418436 0
M  V30 2838 H 277.121 3.98503 -1.1903 0
M  V30 2839 H 275.698 3.6779 0.615234 0
M  V30 2840 N 277.883 0.443576 1.51229 0
M  V30 2841 C 279.111 -0.11929 2.06556 0
M  V30 2842 C 279.526 -1.35921 1.31038 0
M  V30 2843 O 278.883 -1.78675 0.371704 0
M  V30 2844 C 278.934 -0.435228 3.5887 0
M  V30 2845 O 278.655 0.755486 4.31537 0
M  V30 2846 C 280.156 -1.04808 4.30732 0
M  V30 2847 H 277.376 -0.0051584 0.67098 0
M  V30 2848 H 279.92 0.624453 1.94733 0
M  V30 2849 H 278.075 -1.12887 3.70588 0
M  V30 2850 H 278.489 0.483491 5.22267 0
M  V30 2851 H 279.963 -1.2191 5.3837 0
M  V30 2852 H 280.44 -2.03081 3.89429 0
M  V30 2853 H 281.046 -0.393637 4.23474 0
M  V30 2854 N 279.361 -1.56624 0.175154 0
M  V30 2855 C 280.607 -1.9729 -0.469506 0
M  V30 2856 C 280.94 -1.06128 -1.62636 0
M  V30 2857 O 280.215 -0.109183 -1.94193 0
M  V30 2858 C 280.498 -3.47375 -0.948804 0
M  V30 2859 C 280.351 -4.49317 0.208491 0
M  V30 2860 C 281.67 -4.00652 -1.82116 0
M  V30 2861 H 278.789 -0.717317 -0.16919 0
M  V30 2862 H 281.431 -1.88184 0.262062 0
M  V30 2863 H 279.581 -3.55267 -1.57219 0
M  V30 2864 H 281.253 -4.53482 0.845682 0
M  V30 2865 H 279.496 -4.25121 0.863395 0
M  V30 2866 H 280.167 -5.51741 -0.169059 0
M  V30 2867 H 282.643 -3.95416 -1.2956 0
M  V30 2868 H 281.519 -5.06075 -2.12554 0
M  V30 2869 H 281.78 -3.44699 -2.7683 0
M  V30 2870 N 280.839 0.0985539 -1.57292 0
M  V30 2871 C 282.255 0.45267 -1.53046 0
M  V30 2872 C 282.455 1.80713 -0.891342 0
M  V30 2873 O 281.511 2.4785 -0.482375 0
M  V30 2874 C 282.824 0.418341 -2.97776 0
M  V30 2875 C 284.372 0.500443 -3.08973 0
M  V30 2876 C 284.847 0.496297 -4.55303 0
M  V30 2877 N 286.338 0.557151 -4.59837 0
M  V30 2878 C 287.073 0.575726 -5.70502 0
M  V30 2879 N 286.569 0.550714 -6.90608 0
M  V30 2880 N 288.362 0.620277 -5.58667 0
M  V30 2881 H 280.513 -0.788673 -1.97215 0
M  V30 2882 H 282.776 -0.293188 -0.901524 0
M  V30 2883 H 282.482 -0.509659 -3.47988 0
M  V30 2884 H 282.356 1.2386 -3.56284 0
M  V30 2885 H 284.743 1.41886 -2.58751 0
M  V30 2886 H 284.824 -0.347894 -2.53423 0
M  V30 2887 H 284.468 -0.418162 -5.06176 0
M  V30 2888 H 284.398 1.3618 -5.08687 0
M  V30 2889 H 286.889 0.581816 -3.73394 0
M  V30 2890 H 287.202 0.568075 -7.70709 0
M  V30 2891 H 285.547 0.517816 -6.93068 0
M  V30 2892 H 288.738 0.637322 -4.63741 0
M  V30 2893 H 288.911 0.631283 -6.44918 0
M  V30 2894 N 282.317 1.53212 0.369288 0
M  V30 2895 C 283.728 1.60943 0.946276 0
M  V30 2896 C 284.079 0.47452 1.90375 0
M  V30 2897 O 283.204 -0.399597 2.12679 0
M  V30 2898 C 283.799 2.91715 1.72302 0
M  V30 2899 C 282.358 3.01792 2.24941 0
M  V30 2900 C 281.505 2.56211 1.06072 0
M  V30 2901 H 284.456 1.58007 0.148198 0
M  V30 2902 H 284.477 2.79309 2.58393 0
M  V30 2903 H 283.989 3.74295 1.0259 0
M  V30 2904 H 282.09 2.23791 2.97906 0
M  V30 2905 H 282.203 4.06803 2.53077 0
M  V30 2906 H 280.567 2.10998 1.4266 0
M  V30 2907 H 281.35 3.41206 0.378639 0
M  V30 2908 N 283.795 -0.628877 1.44509 0
M  V30 2909 C 285.025 -1.41349 1.50678 0
M  V30 2910 C 285.433 -1.88745 0.131075 0
M  V30 2911 O 284.776 -1.61592 -0.87371 0
M  V30 2912 C 284.838 -2.66608 2.41165 0
M  V30 2913 C 284.502 -2.40993 3.88293 0
M  V30 2914 C 285.499 -2.0268 4.78766 0
M  V30 2915 C 283.184 -2.54563 4.33016 0
M  V30 2916 C 285.178 -1.78269 6.11963 0
M  V30 2917 C 282.865 -2.29766 5.6626 0
M  V30 2918 C 283.863 -1.91678 6.55552 0
M  V30 2919 O 283.551 -1.67158 7.86329 0
M  V30 2920 H 283.283 -0.439851 0.51333 0
M  V30 2921 H 285.837 -0.776084 1.90174 0
M  V30 2922 H 284.067 -3.32994 1.96601 0
M  V30 2923 H 285.756 -3.28615 2.38259 0
M  V30 2924 H 286.522 -1.91751 4.45485 0
M  V30 2925 H 282.401 -2.83179 3.63773 0
M  V30 2926 H 285.945 -1.48465 6.81619 0
M  V30 2927 H 281.842 -2.40306 5.99102 0
M  V30 2928 H 282.61 -1.81386 7.98149 0
M  V30 2929 N 285.273 -1.31445 -0.869486 0
M  V30 2930 C 286.236 -1.19094 -1.9583 0
M  V30 2931 C 287.236 -0.117906 -1.60367 0
M  V30 2932 O 288.426 -0.367208 -1.70286 0
M  V30 2933 C 285.558 -0.828165 -3.30688 0
M  V30 2934 H 286.751 -2.15842 -2.08212 0
M  V30 2935 H 284.304 -1.15063 -1.05784 0
M  V30 2936 H 285.039 0.138142 -3.24006 0
M  V30 2937 H 284.824 -1.6038 -3.578 0
M  V30 2938 H 286.314 -0.765658 -4.10521 0
M  V30 2939 N 286.751 1.08385 -1.14413 0
M  V30 2940 C 287.714 2.13486 -0.834048 0
M  V30 2941 C 288.714 1.59988 0.161418 0
M  V30 2942 O 289.904 1.74071 -0.0669575 0
M  V30 2943 C 287.036 3.4003 -0.243354 0
M  V30 2944 H 288.229 2.42425 -1.7655 0
M  V30 2945 H 285.782 1.24101 -0.950189 0
M  V30 2946 H 286.517 3.16726 0.696807 0
M  V30 2947 H 286.302 3.80157 -0.960367 0
M  V30 2948 H 287.792 4.17577 -0.0436242 0
M  V30 2949 N 288.23 0.939286 1.26551 0
M  V30 2950 C 289.507 0.5038 1.89001 0
M  V30 2951 C 289.887 -1.01854 1.84903 0
M  V30 2952 O 289.235 -1.87773 1.30206 0
M  V30 2953 C 289.445 1.063 3.32417 0
M  V30 2954 C 290.793 1.13051 4.09273 0
M  V30 2955 O 291.817 1.01345 3.41479 0
M  V30 2956 O 290.676 1.31233 5.30509 0
M  V30 2957 H 287.77 0.163897 0.810597 0
M  V30 2958 H 290.316 1.03173 1.34735 0
M  V30 2959 H 289.088 2.10665 3.29752 0
M  V30 2960 H 288.711 0.517408 3.94219 0
M  V30 2961 N 289.708 -1.40897 0.706093 0
M  V30 2962 C 290.655 -2.30751 0.0474474 0
M  V30 2963 C 291.625 -1.47678 -0.76029 0
M  V30 2964 O 292.81 -1.76441 -0.726177 0
M  V30 2965 C 289.95 -3.33815 -0.875309 0
M  V30 2966 C 289.063 -4.31961 -0.0580623 0
M  V30 2967 C 288.198 -5.22093 -0.979425 0
M  V30 2968 C 287.237 -6.11902 -0.155706 0
M  V30 2969 N 286.374 -6.94482 -1.03144 0
M  V30 2970 H 291.214 -2.86513 0.819413 0
M  V30 2971 H 288.751 -1.41102 0.415783 0
M  V30 2972 H 290.709 -3.92129 -1.42446 0
M  V30 2973 H 289.339 -2.79579 -1.61356 0
M  V30 2974 H 288.391 -3.75507 0.608147 0
M  V30 2975 H 289.703 -4.95415 0.580082 0
M  V30 2976 H 288.857 -5.85292 -1.59744 0
M  V30 2977 H 287.596 -4.5889 -1.65141 0
M  V30 2978 H 286.601 -5.47742 0.475309 0
M  V30 2979 H 287.826 -6.77162 0.512635 0
M  V30 2980 H 285.772 -6.33877 -1.68924 0
M  V30 2981 H 285.689 -7.54665 -0.449108 0
M  V30 2982 H 286.957 -7.6214 -1.63593 0
M  V30 2983 N 291.186 -0.45159 -1.50991 0
M  V30 2984 C 292.119 0.398179 -2.24699 0
M  V30 2985 C 293.097 1.01276 -1.27208 0
M  V30 2986 O 294.281 1.05247 -1.56382 0
M  V30 2987 C 291.408 1.55618 -3.00833 0
M  V30 2988 C 290.454 1.0609 -4.13095 0
M  V30 2989 S 291.287 -0.00865136 -5.35499 0
M  V30 2990 C 292.443 1.15369 -6.15175 0
M  V30 2991 H 292.676 -0.227555 -2.96428 0
M  V30 2992 H 290.209 -0.236251 -1.52582 0
M  V30 2993 H 292.167 2.21997 -3.45293 0
M  V30 2994 H 290.828 2.15337 -2.28667 0
M  V30 2995 H 290.021 1.92726 -4.65696 0
M  V30 2996 H 289.623 0.47513 -3.7097 0
M  V30 2997 H 291.915 2.06925 -6.45126 0
M  V30 2998 H 292.858 0.667344 -7.04948 0
M  V30 2999 H 293.266 1.3987 -5.46897 0
M  V30 3000 N 292.664 1.56529 -0.183458 0
M  V30 3001 C 294.075 1.83739 0.331177 0
M  V30 3002 C 294.426 1.10373 1.62211 0
M  V30 3003 O 293.551 0.36071 2.13373 0
M  V30 3004 C 294.146 3.33306 0.607646 0
M  V30 3005 C 292.705 3.60969 1.06668 0
M  V30 3006 C 291.852 2.77086 0.109029 0
M  V30 3007 H 294.803 1.53379 -0.407484 0
M  V30 3008 H 294.824 3.51444 1.45832 0
M  V30 3009 H 294.336 3.86677 -0.332086 0
M  V30 3010 H 292.437 3.13021 2.0211 0
M  V30 3011 H 292.55 4.69231 0.967447 0
M  V30 3012 H 290.914 2.47319 0.608714 0
M  V30 3013 H 291.697 3.33241 -0.82494 0
M  V30 3014 N 294.142 -0.090211 1.57342 0
M  V30 3015 C 295.39 -0.791241 1.85967 0
M  V30 3016 C 295.711 -1.7903 0.772859 0
M  V30 3017 O 294.981 -1.94872 -0.200398 0
M  V30 3018 H 293.561 -0.295205 0.686195 0
M  V30 3019 H 296.223 -0.0706782 1.94772 0
M  V30 3020 H 295.319 -1.31882 2.82867 0
M  V30 3021 N 295.62 -1.53406 -0.361157 0
M  V30 3022 C 296.57 -1.76536 -1.44287 0
M  V30 3023 C 297.554 -0.620019 -1.48474 0
M  V30 3024 O 298.746 -0.878834 -1.53641 0
M  V30 3025 C 295.875 -1.96266 -2.81664 0
M  V30 3026 C 294.961 -3.16815 -2.81938 0
M  V30 3027 N 295.352 -4.38637 -2.51855 0
M  V30 3028 C 293.65 -3.17627 -3.13096 0
M  V30 3029 C 294.351 -5.20401 -2.59919 0
M  V30 3030 N 293.327 -4.56712 -2.94814 0
M  V30 3031 H 297.129 -2.68331 -1.19899 0
M  V30 3032 H 294.643 -1.52091 -0.56938 0
M  V30 3033 H 296.64 -2.10966 -3.59582 0
M  V30 3034 H 295.3 -1.05702 -3.07013 0
M  V30 3035 H 296.311 -4.66293 -2.25369 0
M  V30 3036 H 292.988 -2.36971 -3.43731 0
M  V30 3037 H 294.378 -6.27586 -2.39969 0
M  V30 3038 N 297.098 0.621204 -1.44841 0
M  V30 3039 C 298.347 1.37658 -1.47422 0
M  V30 3040 C 298.66 1.95264 -0.114629 0
M  V30 3041 O 299.866 2.71494 -0.0180199 0
M  V30 3042 C 298.322 2.49285 -2.59586 0
M  V30 3043 C 297.93 1.98149 -4.01797 0
M  V30 3044 C 299.674 3.26409 -2.71399 0
M  V30 3045 C 297.581 3.07178 -5.05367 0
M  V30 3046 H 296.511 0.517344 -0.548517 0
M  V30 3047 H 299.162 0.667257 -1.70938 0
M  V30 3048 H 297.544 3.22839 -2.29328 0
M  V30 3049 H 298.718 1.31395 -4.41669 0
M  V30 3050 H 297.033 1.33812 -3.94314 0
M  V30 3051 H 299.63 4.07706 -3.45948 0
M  V30 3052 H 299.973 3.76535 -1.77559 0
M  V30 3053 H 300.506 2.5995 -3.01116 0
M  V30 3054 H 297.245 2.61985 -6.00869 0
M  V30 3055 H 296.765 3.72542 -4.70077 0
M  V30 3056 H 298.444 3.71789 -5.29511 0
M  V30 3057 N 298.576 1.31904 0.862503 0
M  V30 3058 C 299.486 1.22161 2.00285 0
M  V30 3059 C 300.502 0.136785 1.73462 0
M  V30 3060 O 301.678 0.355994 1.98229 0
M  V30 3061 C 298.743 0.937093 3.33796 0
M  V30 3062 C 297.804 2.10957 3.73893 0
M  V30 3063 C 297.037 1.83853 5.01033 0
M  V30 3064 O 297.26 0.777274 5.65079 0
M  V30 3065 O 296.194 2.69741 5.38074 0
M  V30 3066 H 300.02 2.18008 2.11439 0
M  V30 3067 H 297.605 1.11716 0.991957 0
M  V30 3068 H 299.487 0.794583 4.13841 0
M  V30 3069 H 298.162 0.00871894 3.23699 0
M  V30 3070 H 297.069 2.30752 2.94456 0
M  V30 3071 H 298.402 3.02046 3.88625 0
M  V30 3072 N 300.054 -1.07777 1.14986 0
M  V30 3073 C 301.302 -1.79934 0.920235 0
M  V30 3074 C 301.623 -1.86955 -0.554336 0
M  V30 3075 O 300.893 -1.36731 -1.40291 0
M  V30 3076 H 299.473 -0.666424 0.337473 0
M  V30 3077 H 302.135 -1.3027 1.44968 0
M  V30 3078 H 301.231 -2.82539 1.32583 0
M  V30 3079 N 301.532 -0.945985 -1.26051 0
M  V30 3080 C 302.495 -0.463897 -2.24456 0
M  V30 3081 C 303.495 0.427655 -1.55009 0
M  V30 3082 O 304.685 0.226157 -1.72726 0
M  V30 3083 C 301.817 0.330812 -3.39291 0
M  V30 3084 H 303.01 -1.33357 -2.68619 0
M  V30 3085 H 300.563 -0.728416 -1.38289 0
M  V30 3086 H 301.298 1.21852 -3.00537 0
M  V30 3087 H 301.083 -0.308679 -3.90883 0
M  V30 3088 H 302.573 0.657865 -4.12386 0
M  V30 3089 N 303.011 1.40521 -0.713556 0
M  V30 3090 C 304.427 1.54839 -0.386907 0
M  V30 3091 C 304.627 1.68532 1.1045 0
M  V30 3092 O 303.683 1.67377 1.89053 0
M  V30 3093 C 304.996 2.77792 -1.15118 0
M  V30 3094 C 306.544 2.91607 -1.13729 0
M  V30 3095 C 307.019 4.1747 -1.88368 0
M  V30 3096 N 308.51 4.24466 -1.85427 0
M  V30 3097 C 309.245 5.20755 -2.40004 0
M  V30 3098 N 308.741 6.22965 -3.03129 0
M  V30 3099 N 310.534 5.1282 -2.30158 0
M  V30 3100 H 302.685 1.29879 -1.68063 0
M  V30 3101 H 304.948 0.627896 -0.710247 0
M  V30 3102 H 304.654 2.73944 -2.20561 0
M  V30 3103 H 304.528 3.6984 -0.741477 0
M  V30 3104 H 306.915 2.94959 -0.0910608 0
M  V30 3105 H 306.996 2.00682 -1.5862 0
M  V30 3106 H 306.64 4.1488 -2.9298 0
M  V30 3107 H 306.57 5.074 -1.40898 0
M  V30 3108 H 309.061 3.51241 -1.3942 0
M  V30 3109 H 309.374 6.92859 -3.42295 0
M  V30 3110 H 307.719 6.23415 -3.07212 0
M  V30 3111 H 310.91 4.31899 -1.80501 0
M  V30 3112 H 311.083 5.87689 -2.72993 0
M  V30 3113 N 304.489 0.459591 1.5075 0
M  V30 3114 C 305.437 -0.354678 2.2988 0
M  V30 3115 C 306.431 -1.00086 1.36672 0
M  V30 3116 O 307.637 -0.933277 1.53915 0
M  V30 3117 H 304.012 -0.13321 0.740107 0
M  V30 3118 H 305.983 0.333269 2.96533 0
M  V30 3119 C 304.732 -1.43073 3.169 0
M  V30 3120 H 304.055 -0.942882 3.88523 0
M  V30 3121 H 305.495 -1.97328 3.75284 0
M  V30 3122 C 303.954 -2.42633 2.33732 0
M  V30 3123 O 304.484 -3.47658 2.01238 0
M  V30 3124 N 302.69 -2.14066 1.9653 0
M  V30 3125 H 302.237 -1.28685 2.23155 0
M  V30 3126 H 302.195 -2.80917 1.41185 0
M  V30 3127 N 305.967 -1.56429 0.191757 0
M  V30 3128 C 306.897 -2.21937 -0.725696 0
M  V30 3129 C 307.878 -1.1814 -1.2238 0
M  V30 3130 O 309.063 -1.46636 -1.27325 0
M  V30 3131 C 306.193 -2.87611 -1.94672 0
M  V30 3132 C 305.147 -3.97623 -1.58366 0
M  V30 3133 C 304.473 -4.50446 -2.88102 0
M  V30 3134 C 305.773 -5.16197 -0.796133 0
M  V30 3135 H 307.467 -2.98861 -0.179606 0
M  V30 3136 H 305.013 -1.43749 -0.0849464 0
M  V30 3137 H 306.966 -3.3212 -2.59373 0
M  V30 3138 H 305.69 -2.08087 -2.51728 0
M  V30 3139 H 304.349 -3.53801 -0.960247 0
M  V30 3140 H 303.997 -3.67688 -3.43241 0
M  V30 3141 H 303.697 -5.24675 -2.64556 0
M  V30 3142 H 305.221 -4.97654 -3.53798 0
M  V30 3143 H 306.635 -5.57271 -1.34618 0
M  V30 3144 H 305.032 -5.96471 -0.658928 0
M  V30 3145 H 306.102 -4.84473 0.203478 0
M  V30 3146 N 307.445 0.0818655 -1.57387 0
M  V30 3147 C 308.856 0.634871 -1.75574 0
M  V30 3148 C 309.207 1.78435 -0.815809 0
M  V30 3149 O 308.332 2.164 0.0025366 0
M  V30 3150 C 308.927 1.15845 -3.18379 0
M  V30 3151 C 307.486 1.65741 -3.37945 0
M  V30 3152 C 306.633 0.572549 -2.71325 0
M  V30 3153 H 309.584 -0.144268 -1.58043 0
M  V30 3154 H 309.605 2.02751 -3.21982 0
M  V30 3155 H 309.117 0.321631 -3.86765 0
M  V30 3156 H 307.218 2.51781 -2.74658 0
M  V30 3157 H 307.331 1.74129 -4.46336 0
M  V30 3158 H 305.695 1.01518 -2.33594 0
M  V30 3159 H 306.478 -0.253918 -3.4236 0
M  V30 3160 N 308.923 1.53595 0.353017 0
M  V30 3161 C 310.153 1.74058 1.11299 0
M  V30 3162 C 310.561 0.475205 1.83135 0
M  V30 3163 O 309.904 -0.562344 1.74881 0
M  V30 3164 C 309.966 2.85994 2.17825 0
M  V30 3165 C 309.63 4.25923 1.65647 0
M  V30 3166 C 310.627 5.07829 1.11383 0
M  V30 3167 C 308.312 4.72377 1.7078 0
M  V30 3168 C 310.306 6.34285 0.629439 0
M  V30 3169 C 307.993 5.98808 1.21953 0
M  V30 3170 C 308.991 6.79594 0.681265 0
M  V30 3171 O 308.679 8.03651 0.200248 0
M  V30 3172 H 308.411 0.585327 0.338183 0
M  V30 3173 H 310.965 2.01186 0.413927 0
M  V30 3174 H 309.195 2.54368 2.91262 0
M  V30 3175 H 310.884 2.94515 2.79313 0
M  V30 3176 H 311.65 4.73107 1.06746 0
M  V30 3177 H 307.529 4.0956 2.11617 0
M  V30 3178 H 311.073 6.97288 0.208636 0
M  V30 3179 H 306.97 6.33026 1.26287 0
M  V30 3180 H 307.738 8.1788 0.318416 0
M  V30 3181 N 310.401 -0.613514 1.45168 0
M  V30 3182 C 311.629 -1.39946 1.5239 0
M  V30 3183 C 312.044 -1.88167 0.154531 0
M  V30 3184 O 311.401 -1.61872 -0.842843 0
M  V30 3185 C 311.452 -2.60795 2.50337 0
M  V30 3186 O 311.173 -2.1458 3.81952 0
M  V30 3187 C 312.674 -3.53723 2.67198 0
M  V30 3188 H 309.894 -0.428593 0.516284 0
M  V30 3189 H 312.438 -0.748753 1.903 0
M  V30 3190 H 310.593 -3.21919 2.15515 0
M  V30 3191 H 311.007 -2.93055 4.34993 0
M  V30 3192 H 312.481 -4.35079 3.39721 0
M  V30 3193 H 312.958 -4.0368 1.73029 0
M  V30 3194 H 313.564 -2.98456 3.02992 0
M  V30 3195 N 311.879 -1.3236 -0.855495 0
M  V30 3196 C 313.104 -1.2601 -1.64731 0
M  V30 3197 C 313.529 0.169068 -1.87339 0
M  V30 3198 O 312.887 1.12016 -1.42556 0
M  V30 3199 C 312.935 -2.02417 -2.98429 0
M  V30 3200 O 312.039 -1.3714 -3.8893 0
M  V30 3201 H 311.38 -0.434325 -0.502253 0
M  V30 3202 H 313.91 -1.74661 -1.06558 0
M  V30 3203 H 313.92 -2.12559 -3.48257 0
M  V30 3204 H 312.595 -3.06343 -2.81295 0
M  V30 3205 H 311.172 -1.3554 -3.47395 0
M  V30 3206 N 313.357 1.07166 -1.15556 0
M  V30 3207 C 314.307 2.12649 -0.82247 0
M  V30 3208 C 315.291 1.59725 0.194129 0
M  V30 3209 O 316.483 1.76999 -0.00540402 0
M  V30 3210 C 313.612 3.41847 -0.315572 0
M  V30 3211 C 312.698 4.0162 -1.36244 0
M  V30 3212 N 313.089 4.35625 -2.5703 0
M  V30 3213 C 311.387 4.29114 -1.21562 0
M  V30 3214 C 312.088 4.83017 -3.24144 0
M  V30 3215 N 311.064 4.81906 -2.51531 0
M  V30 3216 H 314.866 2.36776 -1.74111 0
M  V30 3217 H 312.38 1.24622 -1.0413 0
M  V30 3218 H 314.377 4.16859 -0.0585855 0
M  V30 3219 H 313.037 3.19163 0.597105 0
M  V30 3220 H 314.048 4.26253 -2.94158 0
M  V30 3221 H 310.725 4.15919 -0.362988 0
M  V30 3222 H 312.115 5.18605 -4.27198 0
M  V30 3223 N 314.835 0.952656 1.25548 0
M  V30 3224 C 315.765 0.489287 2.28316 0
M  V30 3225 C 316.746 -0.463359 1.63667 0
M  V30 3226 O 317.931 -0.36274 1.90782 0
M  V30 3227 C 315.061 -0.235603 3.465 0
M  V30 3228 C 314.015 0.631593 4.23314 0
M  V30 3229 C 313.341 -0.223923 5.34231 0
M  V30 3230 C 314.641 1.90871 4.86174 0
M  V30 3231 H 316.335 1.34822 2.67326 0
M  V30 3232 H 313.881 0.649728 1.28509 0
M  V30 3233 H 315.834 -0.570882 4.17515 0
M  V30 3234 H 314.558 -1.12877 3.06474 0
M  V30 3235 H 313.217 0.949929 3.54079 0
M  V30 3236 H 312.865 -1.11678 4.90446 0
M  V30 3237 H 312.565 0.35299 5.86539 0
M  V30 3238 H 314.089 -0.554214 6.0808 0
M  V30 3239 H 315.503 1.63997 5.49343 0
M  V30 3240 H 313.9 2.43112 5.4865 0
M  V30 3241 H 314.97 2.61304 4.08471 0
M  V30 3242 N 316.313 -1.40141 0.720998 0
M  V30 3243 C 317.559 -2.01084 0.263231 0
M  V30 3244 C 317.892 -1.57052 -1.14229 0
M  V30 3245 O 317.167 -0.793027 -1.77599 0
M  V30 3246 C 317.45 -3.58401 0.349344 0
M  V30 3247 C 317.303 -4.12491 1.79363 0
M  V30 3248 C 318.622 -4.39231 -0.276351 0
M  V30 3249 H 315.741 -0.730572 0.0971228 0
M  V30 3250 H 318.383 -1.66543 0.914518 0
M  V30 3251 H 316.533 -3.87958 -0.205165 0
M  V30 3252 H 318.205 -3.93711 2.40394 0
M  V30 3253 H 316.448 -3.66576 2.31958 0
M  V30 3254 H 317.119 -5.21646 1.80524 0
M  V30 3255 H 319.595 -4.15637 0.196184 0
M  V30 3256 H 318.471 -5.48586 -0.185681 0
M  V30 3257 H 318.732 -4.20643 -1.36059 0
M  V30 3258 N 317.792 -0.46758 -1.50504 0
M  V30 3259 C 319.02 0.0864133 -2.06719 0
M  V30 3260 C 319.435 1.33819 -1.33184 0
M  V30 3261 O 318.792 1.78061 -0.400083 0
M  V30 3262 C 318.843 0.378079 -3.59517 0
M  V30 3263 O 318.564 -0.824044 -4.3028 0
M  V30 3264 C 320.065 0.979426 -4.32345 0
M  V30 3265 H 317.285 -0.00551697 -0.670977 0
M  V30 3266 H 319.829 -0.655354 -1.93715 0
M  V30 3267 H 317.984 1.06977 -3.72337 0
M  V30 3268 H 318.398 -0.566518 -5.21432 0
M  V30 3269 H 319.872 1.1333 -5.40241 0
M  V30 3270 H 320.349 1.9686 -3.9261 0
M  V30 3271 H 320.955 0.326216 -4.24047 0
M  V30 3272 N 319.27 1.56325 -0.20005 0
M  V30 3273 C 320.686 1.58839 0.155716 0
M  V30 3274 C 320.886 1.21636 1.60645 0
M  V30 3275 O 319.942 0.941437 2.34293 0
M  V30 3276 C 321.255 3.0032 -0.151124 0
M  V30 3277 C 322.803 3.12866 -0.0916284 0
M  V30 3278 C 323.278 4.56488 -0.371845 0
M  V30 3279 N 324.769 4.62089 -0.320641 0
M  V30 3280 C 325.504 5.71116 -0.511243 0
M  V30 3281 N 325 6.88592 -0.762461 0
M  V30 3282 N 326.793 5.60335 -0.445157 0
M  V30 3283 H 318.944 1.78788 -1.14668 0
M  V30 3284 H 321.207 0.829996 -0.458051 0
M  V30 3285 H 320.913 3.32117 -1.15721 0
M  V30 3286 H 320.787 3.73257 0.543986 0
M  V30 3287 H 323.174 2.80878 0.905065 0
M  V30 3288 H 323.255 2.42304 -0.81989 0
M  V30 3289 H 322.899 4.89189 -1.36588 0
M  V30 3290 H 322.829 5.25246 0.377362 0
M  V30 3291 H 325.32 3.77665 -0.13329 0
M  V30 3292 H 325.633 7.67581 -0.896576 0
M  V30 3293 H 323.978 6.90387 -0.799412 0
M  V30 3294 H 327.169 4.67436 -0.249278 0
M  V30 3295 H 327.342 6.45243 -0.597116 0
M  V30 3296 N 320.748 -0.0735177 1.57428 0
M  V30 3297 C 321.996 -0.771472 1.86796 0
M  V30 3298 C 322.317 -1.78201 0.791804 0
M  V30 3299 O 321.587 -1.95074 -0.179718 0
M  V30 3300 H 320.167 -0.28791 0.689287 0
M  V30 3301 H 322.829 -0.0500161 1.94836 0
M  V30 3302 H 321.925 -1.28874 2.8425 0
M  V30 3303 N 322.226 -1.5378 -0.344866 0
M  V30 3304 C 323.503 -1.61589 -1.10219 0
M  V30 3305 C 323.883 -0.436316 -2.06542 0
M  V30 3306 O 323.231 0.571543 -2.21237 0
M  V30 3307 C 323.441 -2.97602 -1.82301 0
M  V30 3308 C 324.789 -3.5291 -2.36093 0
M  V30 3309 O 325.813 -2.99768 -1.924 0
M  V30 3310 O 324.672 -4.45859 -3.16026 0
M  V30 3311 H 321.766 -0.653522 -0.506792 0
M  V30 3312 H 324.312 -1.66126 -0.346465 0
M  V30 3313 H 323.084 -3.74893 -1.12121 0
M  V30 3314 H 322.707 -2.9665 -2.64735 0
M  V30 3315 N 323.704 0.605807 -1.45491 0
M  V30 3316 C 324.952 1.36207 -1.49305 0
M  V30 3317 C 325.273 1.94519 -0.136863 0
M  V30 3318 O 324.543 1.77261 0.833983 0
M  V30 3319 H 323.123 0.50565 -0.549843 0
M  V30 3320 H 325.785 0.711239 -1.81459 0
M  V30 3321 H 324.881 2.18058 -2.23287 0
M  V30 3322 N 325.182 1.32811 0.848464 0
M  V30 3323 C 326.129 1.22265 1.95755 0
M  V30 3324 C 327.099 0.103413 1.65778 0
M  V30 3325 O 328.284 0.280033 1.88734 0
M  V30 3326 C 325.424 0.958014 3.31536 0
M  V30 3327 C 324.537 2.16262 3.73971 0
M  V30 3328 C 323.672 1.83295 4.98575 0
M  V30 3329 C 322.711 3.00041 5.33518 0
M  V30 3330 N 321.848 2.67125 6.49299 0
M  V30 3331 H 326.688 2.17128 2.04107 0
M  V30 3332 H 324.225 1.07982 0.998913 0
M  V30 3333 H 326.183 0.785052 4.09747 0
M  V30 3334 H 324.813 0.046159 3.22767 0
M  V30 3335 H 323.865 2.44565 2.91362 0
M  V30 3336 H 325.177 3.03572 3.95785 0
M  V30 3337 H 324.331 1.62586 5.84509 0
M  V30 3338 H 323.07 0.932078 4.7871 0
M  V30 3339 H 322.075 3.21374 4.46093 0
M  V30 3340 H 323.3 3.90869 5.55336 0
M  V30 3341 H 321.246 1.79586 6.3094 0
M  V30 3342 H 321.163 3.47965 6.71161 0
M  V30 3343 H 322.431 2.49861 7.3837 0
M  V30 3344 N 326.66 -1.06551 1.16123 0
M  V30 3345 C 327.906 -1.79567 0.94252 0
M  V30 3346 C 328.239 -1.86869 -0.528547 0
M  V30 3347 O 327.514 -1.35838 -1.39206 0
M  V30 3348 C 327.797 -3.24195 1.56747 0
M  V30 3349 C 327.65 -3.24989 3.10969 0
M  V30 3350 C 328.969 -4.21678 1.25998 0
M  V30 3351 H 326.088 -0.651883 0.343828 0
M  V30 3352 H 328.73 -1.2463 1.43413 0
M  V30 3353 H 326.88 -3.71107 1.14942 0
M  V30 3354 H 328.552 -2.86258 3.61737 0
M  V30 3355 H 326.795 -2.63716 3.44436 0
M  V30 3356 H 327.466 -4.27005 3.49815 0
M  V30 3357 H 329.942 -3.83196 1.62174 0
M  V30 3358 H 328.818 -5.21146 1.7233 0
M  V30 3359 H 329.079 -4.4174 0.178367 0
M  V30 3360 N 328.138 -0.959301 -1.25041 0
M  V30 3361 C 329.068 -0.501388 -2.28053 0
M  V30 3362 C 330.049 0.454673 -1.63911 0
M  V30 3363 O 331.234 0.352618 -1.90972 0
M  V30 3364 C 328.364 0.217224 -3.4662 0
M  V30 3365 C 327.318 -0.654034 -4.22973 0
M  V30 3366 C 326.644 0.195589 -5.34342 0
M  V30 3367 C 327.944 -1.93447 -4.85155 0
M  V30 3368 H 329.638 -1.36238 -2.66608 0
M  V30 3369 H 327.184 -0.656534 -1.28163 0
M  V30 3370 H 329.137 0.548732 -4.17812 0
M  V30 3371 H 327.861 1.1125 -3.07068 0
M  V30 3372 H 326.52 -0.968693 -3.5357 0
M  V30 3373 H 326.168 1.09076 -4.91031 0
M  V30 3374 H 325.868 -0.384091 -5.86343 0
M  V30 3375 H 327.392 0.521958 -6.08365 0
M  V30 3376 H 328.806 -1.66908 -5.48466 0
M  V30 3377 H 327.203 -2.46018 -5.47353 0
M  V30 3378 H 328.273 -2.63466 -4.07079 0
M  V30 3379 N 329.616 1.39756 -0.72842 0
M  V30 3380 C 331.032 1.5442 -0.403308 0
M  V30 3381 C 331.232 1.69694 1.08656 0
M  V30 3382 O 330.288 1.69373 1.87267 0
M  V30 3383 C 331.601 2.76555 -1.18058 0
M  V30 3384 C 333.149 2.90384 -1.16815 0
M  V30 3385 C 333.624 4.15449 -1.92785 0
M  V30 3386 N 335.115 4.22475 -1.89918 0
M  V30 3387 C 335.85 5.1818 -2.45514 0
M  V30 3388 N 335.346 6.19714 -3.09719 0
M  V30 3389 N 337.139 5.1035 -2.35584 0
M  V30 3390 H 329.29 1.28089 -1.69431 0
M  V30 3391 H 331.553 0.620327 -0.716867 0
M  V30 3392 H 331.259 2.7159 -2.23455 0
M  V30 3393 H 331.133 3.69033 -0.780662 0
M  V30 3394 H 333.52 2.94846 -0.12234 0
M  V30 3395 H 333.601 1.98988 -1.6074 0
M  V30 3396 H 333.245 4.11749 -2.97364 0
M  V30 3397 H 333.175 5.05877 -1.46272 0
M  V30 3398 H 335.666 3.49743 -1.43138 0
M  V30 3399 H 335.979 6.8919 -3.49625 0
M  V30 3400 H 334.324 6.20121 -3.13807 0
M  V30 3401 H 337.515 4.2996 -1.85072 0
M  V30 3402 H 337.688 5.84761 -2.79211 0
M  V30 3403 N 331.094 0.475555 1.50254 0
M  V30 3404 C 332.319 -0.0777042 2.07254 0
M  V30 3405 C 332.744 -1.3235 1.3366 0
M  V30 3406 O 332.102 -1.77152 0.385597 0
M  V30 3407 C 332.15 -0.340169 3.58992 0
M  V30 3408 O 331.254 -1.41982 3.87188 0
M  V30 3409 H 330.595 0.0149556 0.663832 0
M  V30 3410 H 333.125 0.667878 1.93392 0
M  V30 3411 H 333.135 -0.579332 4.03866 0
M  V30 3412 H 331.81 0.570167 4.11973 0
M  V30 3413 H 330.387 -1.16762 3.54148 0
M  V30 3414 N 332.573 -1.56217 0.208337 0
M  V30 3415 C 333.483 -2.23316 -0.718836 0
M  V30 3416 C 334.499 -1.23648 -1.22422 0
M  V30 3417 O 335.675 -1.56423 -1.26861 0
M  V30 3418 C 332.74 -2.88968 -1.91568 0
M  V30 3419 C 331.801 -4.03943 -1.45357 0
M  V30 3420 C 331.034 -4.66455 -2.59337 0
M  V30 3421 O 331.257 -4.27919 -3.77149 0
M  V30 3422 O 330.191 -5.55686 -2.31293 0
M  V30 3423 H 334.017 -3.03182 -0.177315 0
M  V30 3424 H 331.602 -1.49384 -0.0215402 0
M  V30 3425 H 333.484 -3.30455 -2.61491 0
M  V30 3426 H 332.159 -2.12071 -2.44556 0
M  V30 3427 H 331.066 -3.67052 -0.722746 0
M  V30 3428 H 332.399 -4.82543 -0.970219 0
M  V30 3429 N 334.051 0.0651679 -1.57465 0
M  V30 3430 C 334.961 1.09448 -2.07505 0
M  V30 3431 C 335.977 1.41974 -1.00595 0
M  V30 3432 O 337.153 1.52018 -1.32107 0
M  V30 3433 C 334.218 2.38689 -2.51453 0
M  V30 3434 C 333.279 2.13073 -3.72691 0
M  V30 3435 C 332.512 3.36152 -4.14533 0
M  V30 3436 O 332.735 4.45517 -3.56189 0
M  V30 3437 O 331.669 3.23974 -5.07272 0
M  V30 3438 H 335.495 0.69935 -2.95538 0
M  V30 3439 H 333.08 0.279752 -1.46757 0
M  V30 3440 H 334.962 3.14736 -2.80212 0
M  V30 3441 H 333.637 2.77568 -1.66546 0
M  V30 3442 H 332.544 1.34709 -3.49005 0
M  V30 3443 H 333.877 1.79071 -4.5847 0
M  V30 3444 N 335.529 1.53961 0.336706 0
M  V30 3445 C 336.439 1.85432 1.43708 0
M  V30 3446 C 337.455 0.745053 1.57242 0
M  V30 3447 O 338.631 1.03804 1.72588 0
M  V30 3448 C 335.696 2.06349 2.78605 0
M  V30 3449 C 334.757 3.30191 2.74358 0
M  V30 3450 C 333.99 3.50101 4.02822 0
M  V30 3451 O 334.213 2.7371 5.00439 0
M  V30 3452 O 333.147 4.43547 4.06878 0
M  V30 3453 H 336.973 2.78975 1.20028 0
M  V30 3454 H 334.558 1.39701 0.52952 0
M  V30 3455 H 336.44 2.21513 3.58483 0
M  V30 3456 H 335.115 1.15995 3.02203 0
M  V30 3457 H 334.022 3.20425 1.93078 0
M  V30 3458 H 335.355 4.2056 2.55715 0
M  V30 3459 N 337.007 -0.598083 1.45811 0
M  V30 3460 C 338.256 -1.35295 1.49594 0
M  V30 3461 C 338.569 -1.95057 0.145679 0
M  V30 3462 O 339.775 -2.71431 0.0612099 0
M  V30 3463 C 338.231 -2.45124 2.63519 0
M  V30 3464 C 337.839 -1.91732 4.04899 0
M  V30 3465 C 339.583 -3.2205 2.76558 0
M  V30 3466 C 337.49 -2.991 5.1019 0
M  V30 3467 H 336.42 -0.508552 0.556679 0
M  V30 3468 H 339.071 -0.639977 1.71978 0
M  V30 3469 H 337.453 -3.19149 2.34435 0
M  V30 3470 H 338.627 -1.24352 4.43704 0
M  V30 3471 H 336.942 -1.27522 3.96393 0
M  V30 3472 H 339.539 -4.0215 3.52391 0
M  V30 3473 H 339.882 -3.73663 1.83526 0
M  V30 3474 H 340.415 -2.55127 3.05213 0
M  V30 3475 H 337.154 -2.52393 6.04961 0
M  V30 3476 H 336.674 -3.65017 4.75944 0
M  V30 3477 H 338.353 -3.63318 5.35359 0
M  V30 3478 N 338.485 -1.33259 -0.841409 0
M  V30 3479 C 339.901 -1.12538 -1.13169 0
M  V30 3480 C 340.101 0.0854037 -2.01319 0
M  V30 3481 O 339.157 0.766417 -2.40587 0
M  V30 3482 C 340.47 -2.41156 -1.79623 0
M  V30 3483 C 342.018 -2.47038 -1.922 0
M  V30 3484 C 342.493 -3.7561 -2.6207 0
M  V30 3485 N 343.984 -3.76667 -2.69585 0
M  V30 3486 C 344.719 -4.72861 -3.2433 0
M  V30 3487 N 344.215 -5.79428 -3.79783 0
M  V30 3488 N 346.008 -4.6034 -3.22558 0
M  V30 3489 H 338.159 -2.10868 -0.254676 0
M  V30 3490 H 340.422 -0.931615 -0.175493 0
M  V30 3491 H 340.128 -3.29747 -1.22311 0
M  V30 3492 H 340.002 -2.53114 -2.79666 0
M  V30 3493 H 342.389 -1.58898 -2.48667 0
M  V30 3494 H 342.47 -2.39022 -0.911148 0
M  V30 3495 H 342.114 -4.64131 -2.06263 0
M  V30 3496 H 342.044 -3.80902 -3.63622 0
M  V30 3497 H 344.535 -2.99648 -2.30259 0
M  V30 3498 H 344.848 -6.48867 -4.19752 0
M  V30 3499 H 343.193 -5.83166 -3.78078 0
M  V30 3500 H 346.384 -3.76244 -2.78492 0
M  V30 3501 H 346.557 -5.35478 -3.64921 0
M  V30 3502 N 339.963 1.05934 -1.16686 0
M  V30 3503 C 340.913 2.11764 -0.844978 0
M  V30 3504 C 341.897 1.59922 0.177178 0
M  V30 3505 O 343.089 1.76983 -0.0241768 0
M  V30 3506 C 340.218 3.41493 -0.351812 0
M  V30 3507 C 339.304 4.00152 -1.40496 0
M  V30 3508 N 339.695 4.32874 -2.61636 0
M  V30 3509 C 337.993 4.278 -1.26106 0
M  V30 3510 C 338.694 4.79552 -3.29249 0
M  V30 3511 N 337.67 4.79211 -2.56628 0
M  V30 3512 H 341.472 2.34916 -1.76612 0
M  V30 3513 H 338.986 1.23511 -1.05446 0
M  V30 3514 H 340.983 4.16773 -0.102796 0
M  V30 3515 H 339.643 3.19778 0.56322 0
M  V30 3516 H 340.654 4.23109 -2.98663 0
M  V30 3517 H 337.331 4.15511 -0.407081 0
M  V30 3518 H 338.721 5.14045 -4.32675 0
M  V30 3519 N 341.441 0.965919 1.2453 0
M  V30 3520 C 342.389 0.486506 2.27455 0
M  V30 3521 C 343.383 -0.449041 1.6334 0
M  V30 3522 O 344.589 -0.324527 1.7705 0
M  V30 3523 H 340.964 0.138857 0.739069 0
M  V30 3524 H 342.935 1.3666 2.65267 0
M  V30 3525 C 341.684 -0.209481 3.47068 0
M  V30 3526 H 341.007 0.50129 3.96645 0
M  V30 3527 H 342.447 -0.508775 4.20936 0
M  V30 3528 C 340.906 -1.43586 3.0477 0
M  V30 3529 O 341.436 -2.53299 3.11773 0
M  V30 3530 N 339.642 -1.30126 2.59838 0
M  V30 3531 H 339.189 -0.408583 2.54339 0
M  V30 3532 H 339.147 -2.12294 2.31902 0
M  V30 3533 N 342.919 -1.39368 0.735821 0
M  V30 3534 C 344.168 -1.99733 0.281004 0
M  V30 3535 C 344.481 -1.59055 -1.13846 0
M  V30 3536 O 345.687 -2.12262 -1.69284 0
M  V30 3537 C 344.143 -3.57057 0.451462 0
M  V30 3538 C 343.751 -4.06697 1.87886 0
M  V30 3539 C 345.495 -4.2446 0.0584616 0
M  V30 3540 C 343.402 -5.56598 1.99883 0
M  V30 3541 H 342.332 -0.747163 0.101311 0
M  V30 3542 H 344.983 -1.59357 0.909819 0
M  V30 3543 H 343.365 -3.95234 -0.246263 0
M  V30 3544 H 344.539 -3.79853 2.60861 0
M  V30 3545 H 342.854 -3.5196 2.22515 0
M  V30 3546 H 345.451 -5.34549 0.127099 0
M  V30 3547 H 345.794 -4.04444 -0.986433 0
M  V30 3548 H 346.327 -3.9146 0.707374 0
M  V30 3549 H 343.066 -5.81494 3.02564 0
M  V30 3550 H 342.586 -5.85242 1.31346 0
M  V30 3551 H 344.265 -6.22022 1.78039 0
M  V30 3552 N 344.397 -0.483516 -1.5 0
M  V30 3553 C 345.33 0.350427 -2.25493 0
M  V30 3554 C 346.308 0.985549 -1.29328 0
M  V30 3555 O 347.492 1.01906 -1.58579 0
M  V30 3556 C 344.619 1.49202 -3.04066 0
M  V30 3557 C 343.665 0.973036 -4.15252 0
M  V30 3558 S 344.498 -0.122237 -5.3536 0
M  V30 3559 C 345.654 1.02294 -6.17484 0
M  V30 3560 H 345.887 -0.290381 -2.95878 0
M  V30 3561 H 343.42 -0.268562 -1.52046 0
M  V30 3562 H 345.378 2.14623 -3.49925 0
M  V30 3563 H 344.039 2.10438 -2.33183 0
M  V30 3564 H 343.232 1.82804 -4.69679 0
M  V30 3565 H 342.834 0.396335 -3.71894 0
M  V30 3566 H 345.126 1.93195 -6.49371 0
M  V30 3567 H 346.069 0.517664 -7.06205 0
M  V30 3568 H 346.477 1.28238 -5.49741 0
M  V30 3569 N 345.875 1.56104 -0.216619 0
M  V30 3570 C 347.103 2.02563 0.421413 0
M  V30 3571 C 347.518 1.0965 1.53695 0
M  V30 3572 O 346.875 0.10521 1.82196 0
M  V30 3573 C 346.926 3.48584 0.957665 0
M  V30 3574 O 346.647 4.37953 -0.113389 0
M  V30 3575 C 348.148 4.10664 1.66943 0
M  V30 3576 H 345.368 0.662944 0.103665 0
M  V30 3577 H 347.912 2.01793 -0.331629 0
M  V30 3578 H 346.067 3.49985 1.661 0
M  V30 3579 H 346.481 5.23704 0.288932 0
M  V30 3580 H 347.955 5.14622 1.99671 0
M  V30 3581 H 348.432 3.55373 2.58083 0
M  V30 3582 H 349.038 4.13098 1.01142 0
M  V30 3583 N 347.353 -0.0568162 1.57498 0
M  V30 3584 C 348.599 -0.75422 1.88253 0
M  V30 3585 C 348.932 -1.76461 0.810865 0
M  V30 3586 O 348.207 -1.93691 -0.177259 0
M  V30 3587 C 348.49 -1.44878 3.2967 0
M  V30 3588 C 348.343 -0.453789 4.47505 0
M  V30 3589 C 349.662 -2.38994 3.69554 0
M  V30 3590 H 346.781 -0.272724 0.684683 0
M  V30 3591 H 349.423 -0.0172113 1.89992 0
M  V30 3592 H 347.573 -2.077 3.28318 0
M  V30 3593 H 349.245 0.170371 4.60985 0
M  V30 3594 H 347.488 0.229552 4.33192 0
M  V30 3595 H 348.159 -0.977699 5.43273 0
M  V30 3596 H 350.635 -1.86239 3.72095 0
M  V30 3597 H 349.511 -2.84587 4.69363 0
M  V30 3598 H 349.772 -3.24461 3.00296 0
M  V30 3599 N 348.832 -1.54138 -0.328536 0
M  V30 3600 C 350.078 -1.7236 -1.06865 0
M  V30 3601 C 350.411 -0.493231 -1.87832 0
M  V30 3602 O 349.686 0.5098 -1.877 0
M  V30 3603 C 349.969 -2.99621 -1.99747 0
M  V30 3604 C 349.822 -4.32899 -1.22143 0
M  V30 3605 C 351.141 -3.22615 -2.99345 0
M  V30 3606 H 348.26 -0.627151 -0.387105 0
M  V30 3607 H 350.902 -1.86827 -0.345767 0
M  V30 3608 H 349.052 -2.87418 -2.61387 0
M  V30 3609 H 350.724 -4.56978 -0.630017 0
M  V30 3610 H 348.967 -4.30628 -0.523628 0
M  V30 3611 H 349.638 -5.18154 -1.90318 0
M  V30 3612 H 352.114 -3.34248 -2.47826 0
M  V30 3613 H 350.99 -4.13027 -3.61524 0
M  V30 3614 H 351.251 -2.3961 -3.71536 0
M  V30 3615 N 350.31 0.590341 -1.46126 0
M  V30 3616 C 351.242 1.71427 -1.52136 0
M  V30 3617 C 352.255 1.57542 -0.41042 0
M  V30 3618 O 353.444 1.65106 -0.678389 0
M  V30 3619 C 350.544 3.09605 -1.37834 0
M  V30 3620 C 349.717 3.49566 -2.62912 0
M  V30 3621 C 348.776 4.66773 -2.42918 0
M  V30 3622 O 347.802 4.73019 -3.1661 0
M  V30 3623 N 349.004 5.61161 -1.4859 0
M  V30 3624 H 351.769 1.66728 -2.49042 0
M  V30 3625 H 349.33 0.776113 -1.42085 0
M  V30 3626 H 351.322 3.85796 -1.22243 0
M  V30 3627 H 349.892 3.08714 -0.491393 0
M  V30 3628 H 349.112 2.63158 -2.93499 0
M  V30 3629 H 350.4 3.73028 -3.46017 0
M  V30 3630 H 349.798 5.58844 -0.87808 0
M  V30 3631 H 348.355 6.36814 -1.38965 0
M  V30 3632 N 351.788 1.33704 0.83433 0
M  V30 3633 C 353.036 1.25169 1.58673 0
M  V30 3634 C 353.357 -0.18127 1.94156 0
M  V30 3635 O 352.627 -1.11113 1.6134 0
M  V30 3636 H 351.207 0.4603 0.58833 0
M  V30 3637 H 353.869 1.67478 0.996847 0
M  V30 3638 H 352.965 1.84856 2.51465 0
M  V30 3639 N 353.266 -1.05314 1.17247 0
M  V30 3640 C 354.229 -2.112 0.890357 0
M  V30 3641 C 355.229 -1.60359 -0.118943 0
M  V30 3642 O 356.419 -1.73833 0.113086 0
M  V30 3643 C 353.551 -3.39266 0.333422 0
M  V30 3644 H 354.744 -2.37659 1.82916 0
M  V30 3645 H 352.297 -1.21538 0.982758 0
M  V30 3646 H 353.032 -3.18462 -0.612587 0
M  V30 3647 H 352.817 -3.77477 1.06082 0
M  V30 3648 H 354.307 -4.17315 0.154322 0
M  V30 3649 N 354.744 -0.972509 -1.24016 0
M  V30 3650 C 355.992 -0.635776 -1.91839 0
M  V30 3651 C 356.313 0.832312 -1.76345 0
M  V30 3652 O 355.583 1.5946 -1.13795 0
M  V30 3653 H 354.163 -0.232157 -0.710009 0
M  V30 3654 H 356.825 -1.23462 -1.50809 0
M  V30 3655 H 355.921 -0.880545 -2.99421 0
M  V30 3656 N 356.222 1.38976 -0.743202 0
M  V30 3657 C 357.499 1.94351 -0.220705 0
M  V30 3658 C 357.879 1.67935 1.2791 0
M  V30 3659 O 357.227 1.01211 2.04862 0
M  V30 3660 C 357.437 3.44426 -0.563171 0
M  V30 3661 C 358.785 4.2144 -0.517046 0
M  V30 3662 O 359.809 3.52661 -0.500846 0
M  V30 3663 O 358.668 5.44032 -0.518806 0
M  V30 3664 H 355.762 0.825879 -0.043047 0
M  V30 3665 H 358.308 1.48429 -0.822618 0
M  V30 3666 H 357.08 3.5712 -1.59941 0
M  V30 3667 H 356.703 3.97543 0.0672883 0
M  V30 3668 N 357.7 0.491464 1.49741 0
M  V30 3669 C 358.663 -0.280906 2.27472 0
M  V30 3670 C 359.663 -0.902454 1.33088 0
M  V30 3671 O 360.853 -0.768465 1.56334 0
M  V30 3672 C 357.985 -1.40209 3.10732 0
M  V30 3673 H 359.178 0.401056 2.97206 0
M  V30 3674 H 356.731 0.246131 1.5435 0
M  V30 3675 H 357.466 -2.11849 2.45541 0
M  V30 3676 H 357.251 -0.961969 3.80117 0
M  V30 3677 H 358.741 -1.9464 3.69466 0
M  V30 3678 N 359.178 -1.55987 0.224894 0
M  V30 3679 C 360.141 -2.19178 -0.670348 0
M  V30 3680 C 361.141 -1.15461 -1.11917 0
M  V30 3681 O 362.331 -1.40675 -1.02743 0
M  V30 3682 C 359.463 -2.81777 -1.9187 0
M  V30 3683 H 360.656 -2.99662 -0.119364 0
M  V30 3684 H 358.209 -1.5628 -0.0247128 0
M  V30 3685 H 358.944 -2.05172 -2.51147 0
M  V30 3686 H 358.729 -3.57732 -1.60531 0
M  V30 3687 H 360.219 -3.30205 -2.55645 0
M  V30 3688 N 360.656 0.0484629 -1.57525 0
M  V30 3689 C 361.933 0.777447 -1.79486 0
M  V30 3690 C 362.313 1.94597 -0.818251 0
M  V30 3691 O 361.661 2.28047 0.143767 0
M  V30 3692 C 361.871 1.22864 -3.26658 0
M  V30 3693 C 363.219 1.65251 -3.91123 0
M  V30 3694 O 364.243 1.32372 -3.3069 0
M  V30 3695 O 363.102 2.26207 -4.97486 0
M  V30 3696 H 360.196 0.374357 -0.737419 0
M  V30 3697 H 362.742 0.0267359 -1.69679 0
M  V30 3698 H 361.514 0.393589 -3.89316 0
M  V30 3699 H 361.137 2.03996 -3.41279 0
M  V30 3700 N 362.134 1.5431 0.320358 0
M  V30 3701 C 363.064 1.86912 1.3995 0
M  V30 3702 C 364.045 0.726211 1.53819 0
M  V30 3703 O 365.23 0.980233 1.67646 0
M  V30 3704 C 362.36 2.09932 2.7667 0
M  V30 3705 C 361.314 3.25776 2.77586 0
M  V30 3706 C 360.64 3.34173 4.17412 0
M  V30 3707 C 361.94 4.6335 2.41048 0
M  V30 3708 H 363.634 2.77292 1.12914 0
M  V30 3709 H 361.18 1.33421 0.541738 0
M  V30 3710 H 363.133 2.31324 3.52232 0
M  V30 3711 H 361.857 1.16304 3.0519 0
M  V30 3712 H 360.516 3.04276 2.04479 0
M  V30 3713 H 360.164 2.38098 4.43078 0
M  V30 3714 H 359.864 4.12033 4.18931 0
M  V30 3715 H 361.388 3.57803 4.94782 0
M  V30 3716 H 362.802 4.84602 3.06324 0
M  V30 3717 H 361.199 5.43782 2.53813 0
M  V30 3718 H 362.269 4.65381 1.36193 0
M  V30 3719 N 363.613 -0.582584 1.46437 0
M  V30 3720 C 364.838 -1.37168 1.55563 0
M  V30 3721 C 365.263 -1.87061 0.19743 0
M  V30 3722 O 364.621 -1.61572 -0.822451 0
M  V30 3723 C 364.669 -2.53511 2.56446 0
M  V30 3724 O 363.773 -3.54953 2.09958 0
M  V30 3725 H 363.114 -0.408494 0.523477 0
M  V30 3726 H 365.644 -0.706646 1.9201 0
M  V30 3727 H 365.654 -3.00426 2.76058 0
M  V30 3728 H 364.329 -2.16549 3.55076 0
M  V30 3729 H 362.906 -3.14516 2.00334 0
M  V30 3730 N 365.091 -1.34144 -0.827227 0
M  V30 3731 C 366.316 -1.29476 -1.62021 0
M  V30 3732 C 366.741 0.129292 -1.87655 0
M  V30 3733 O 366.099 1.08967 -1.449 0
M  V30 3734 C 366.147 -2.08702 -2.94068 0
M  V30 3735 O 365.251 -1.45359 -3.85933 0
M  V30 3736 H 364.592 -0.444881 -0.492927 0
M  V30 3737 H 367.122 -1.76882 -1.02829 0
M  V30 3738 H 367.132 -2.19898 -3.43669 0
M  V30 3739 H 365.807 -3.12241 -2.74734 0
M  V30 3740 H 364.384 -1.42879 -3.44442 0
M  V30 3741 N 366.569 1.04691 -1.17803 0
M  V30 3742 C 367.816 1.77782 -0.969532 0
M  V30 3743 C 368.144 1.87926 0.501401 0
M  V30 3744 O 367.399 1.37918 1.38842 0
M  V30 3745 C 367.698 3.21467 -1.56186 0
M  V30 3746 C 367.364 3.3137 -3.05786 0
M  V30 3747 C 366.026 3.3378 -3.46619 0
M  V30 3748 C 368.378 3.31976 -4.01797 0
M  V30 3749 C 365.706 3.34431 -4.82051 0
M  V30 3750 C 368.058 3.34167 -5.37136 0
M  V30 3751 C 366.722 3.34866 -5.77426 0
M  V30 3752 H 365.992 0.650549 -0.354777 0
M  V30 3753 H 368.639 1.23006 -1.46772 0
M  V30 3754 H 366.944 3.79203 -0.985515 0
M  V30 3755 H 368.641 3.76652 -1.37602 0
M  V30 3756 H 365.231 3.3021 -2.73238 0
M  V30 3757 H 369.415 3.29311 -3.71306 0
M  V30 3758 H 364.671 3.33285 -5.12573 0
M  V30 3759 H 368.845 3.33585 -6.11305 0
M  V30 3760 H 366.472 3.35124 -6.82346 0
M  V30 3761 N 368.047 0.979072 1.23499 0
M  V30 3762 C 369.293 0.648178 1.92163 0
M  V30 3763 C 369.626 -0.816049 1.76222 0
M  V30 3764 O 368.901 -1.58849 1.12237 0
M  V30 3765 C 369.184 1.03773 3.44824 0
M  V30 3766 C 369.037 2.55948 3.69879 0
M  V30 3767 C 370.356 0.580653 4.36253 0
M  V30 3768 H 367.475 0.236952 0.69787 0
M  V30 3769 H 370.117 1.22012 1.45647 0
M  V30 3770 H 368.267 0.551058 3.84572 0
M  V30 3771 H 369.939 3.12179 3.3962 0
M  V30 3772 H 368.182 2.98641 3.14636 0
M  V30 3773 H 368.853 2.78255 4.76737 0
M  V30 3774 H 371.329 0.998465 4.03943 0
M  V30 3775 H 370.205 0.881663 5.41773 0
M  V30 3776 H 370.466 -0.519052 4.39042 0
M  V30 3777 N 369.525 -1.3858 0.750561 0
M  V30 3778 C 370.772 -2.00184 0.305373 0
M  V30 3779 C 371.1 -1.59575 -1.11203 0
M  V30 3780 O 370.355 -0.823236 -1.77542 0
M  V30 3781 C 370.654 -3.55455 0.372373 0
M  V30 3782 C 370.32 -4.15765 1.745 0
M  V30 3783 C 368.982 -4.31951 2.12065 0
M  V30 3784 C 371.334 -4.49067 2.64553 0
M  V30 3785 C 368.662 -4.78734 3.39162 0
M  V30 3786 C 371.014 -4.97265 3.91038 0
M  V30 3787 C 369.678 -5.11658 4.28676 0
M  V30 3788 H 368.948 -0.732526 0.111744 0
M  V30 3789 H 371.595 -1.65673 0.960451 0
M  V30 3790 H 369.9 -3.90084 -0.366272 0
M  V30 3791 H 371.597 -4.00999 0.00953918 0
M  V30 3792 H 368.187 -4.03579 1.44297 0
M  V30 3793 H 372.371 -4.36166 2.36796 0
M  V30 3794 H 367.627 -4.88062 3.68246 0
M  V30 3795 H 371.801 -5.22003 4.60962 0
M  V30 3796 H 369.428 -5.47668 5.27222 0
M  V30 3797 N 371.003 -0.499398 -1.49478 0
M  V30 3798 C 372.228 0.044722 -2.07352 0
M  V30 3799 C 372.653 1.30207 -1.35749 0
M  V30 3800 O 372.011 1.76516 -0.413732 0
M  V30 3801 C 372.059 0.283013 -3.59488 0
M  V30 3802 O 371.163 1.35804 -3.89398 0
M  V30 3803 H 370.504 -0.0255147 -0.66351 0
M  V30 3804 H 373.034 -0.698561 -1.92305 0
M  V30 3805 H 373.044 0.515007 -4.04737 0
M  V30 3806 H 371.719 -0.635636 -4.11014 0
M  V30 3807 H 370.296 1.11113 -3.55961 0
M  V30 3808 N 372.481 1.55866 -0.233164 0
M  V30 3809 C 373.721 2.00506 0.397078 0
M  V30 3810 C 374.085 1.1176 1.56121 0
M  V30 3811 O 375.286 1.45796 2.25825 0
M  V30 3812 C 373.557 3.4811 0.809601 0
M  V30 3813 S 375.116 4.14765 1.43231 0
M  V30 3814 H 371.934 0.699828 0.125547 0
M  V30 3815 H 374.536 1.92429 -0.345177 0
M  V30 3816 H 373.24 4.10373 -0.0471601 0
M  V30 3817 H 372.771 3.60085 1.58438 0
M  V30 3818 H 374.786 4.14914 2.7214 0
M  V30 3819 N 373.959 -0.0401083 1.57549 0
M  V30 3820 C 375.207 -0.731677 1.8839 0
M  V30 3821 C 375.528 -1.76481 0.829425 0
M  V30 3822 O 374.798 -1.95411 -0.1383 0
M  V30 3823 H 373.378 -0.273225 0.695239 0
M  V30 3824 H 376.04 -0.00867725 1.94898 0
M  V30 3825 H 375.136 -1.22816 2.86919 0
M  V30 3826 N 375.437 -1.54477 -0.31217 0
M  V30 3827 C 376.662 -1.77526 -1.07235 0
M  V30 3828 C 377.087 -0.527775 -1.80544 0
M  V30 3829 O 376.445 0.52121 -1.73646 0
M  V30 3830 C 376.493 -2.97535 -2.03728 0
M  V30 3831 O 375.597 -2.69878 -3.11833 0
M  V30 3832 H 374.938 -0.58792 -0.30862 0
M  V30 3833 H 377.468 -2.01532 -0.352993 0
M  V30 3834 H 377.478 -3.25198 -2.46395 0
M  V30 3835 H 376.153 -3.87996 -1.49774 0
M  V30 3836 H 374.73 -2.53199 -2.7376 0
M  V30 3837 N 376.915 0.57481 -1.46744 0
M  V30 3838 C 378.163 1.33009 -1.52161 0
M  V30 3839 C 378.484 1.94185 -0.178092 0
M  V30 3840 O 377.754 1.7899 0.796196 0
M  V30 3841 H 376.334 0.493873 -0.560445 0
M  V30 3842 H 378.996 0.672589 -1.82927 0
M  V30 3843 H 378.092 2.13273 -2.27862 0
M  V30 3844 N 378.394 1.34581 0.820102 0
M  V30 3845 C 379.64 1.27285 1.57881 0
M  V30 3846 C 379.973 -0.156137 1.93571 0
M  V30 3847 O 379.248 -1.10222 1.60254 0
M  V30 3848 C 379.531 2.16639 2.87645 0
M  V30 3849 C 379.384 3.68088 2.58517 0
M  V30 3850 C 380.703 2.05378 3.8924 0
M  V30 3851 H 377.822 0.463714 0.572833 0
M  V30 3852 H 380.464 1.64859 0.944539 0
M  V30 3853 H 378.614 1.84725 3.41773 0
M  V30 3854 H 380.286 4.10382 2.10676 0
M  V30 3855 H 378.529 3.89038 1.91917 0
M  V30 3856 H 379.2 4.2598 3.51063 0
M  V30 3857 H 381.676 2.33404 3.44473 0
M  V30 3858 H 380.552 2.7012 4.77835 0
M  V30 3859 H 380.813 1.0316 4.29896 0
M  V30 3860 N 379.872 -1.04064 1.18357 0
M  V30 3861 C 381.1 -1.80916 1.00384 0
M  V30 3862 C 381.515 -1.83414 -0.447738 0
M  V30 3863 O 380.872 -1.26962 -1.31099 0
M  V30 3864 C 380.923 -3.26516 1.55144 0
M  V30 3865 O 380.644 -3.2424 2.94618 0
M  V30 3866 C 382.145 -4.20013 1.41789 0
M  V30 3867 H 379.365 -0.569728 0.354474 0
M  V30 3868 H 381.909 -1.31151 1.56906 0
M  V30 3869 H 380.064 -3.73512 1.02798 0
M  V30 3870 H 380.478 -4.15452 3.20156 0
M  V30 3871 H 381.952 -5.20111 1.84901 0
M  V30 3872 H 382.429 -4.37667 0.36661 0
M  V30 3873 H 383.035 -3.78881 1.93207 0
M  V30 3874 N 381.35 -0.985608 -1.22978 0
M  V30 3875 C 382.313 -0.535071 -2.22867 0
M  V30 3876 C 383.313 0.378123 -1.56291 0
M  V30 3877 O 384.503 0.171092 -1.73358 0
M  V30 3878 C 381.635 0.222702 -3.40172 0
M  V30 3879 H 382.828 -1.41835 -2.6424 0
M  V30 3880 H 380.381 -0.772042 -1.35901 0
M  V30 3881 H 381.116 1.12229 -3.04262 0
M  V30 3882 H 380.901 -0.43288 -3.89703 0
M  V30 3883 H 382.391 0.526335 -4.1427 0
M  V30 3884 N 382.828 1.3818 -0.7579 0
M  V30 3885 C 384.068 2.01864 -0.320968 0
M  V30 3886 C 384.432 1.58863 1.07827 0
M  V30 3887 O 385.633 2.14908 1.61456 0
M  V30 3888 C 383.904 3.54626 -0.44446 0
M  V30 3889 S 385.463 4.38706 -0.0907467 0
M  V30 3890 H 382.281 0.700056 -0.124268 0
M  V30 3891 H 384.883 1.68611 -0.989468 0
M  V30 3892 H 383.587 3.83411 -1.4637 0
M  V30 3893 H 383.118 3.92661 0.241073 0
M  V30 3894 H 385.133 4.83435 1.11826 0
M  V30 3895 N 384.306 0.507319 1.49211 0
M  V30 3896 C 385.555 -0.0368315 2.01666 0
M  V30 3897 C 385.868 -1.37459 1.39156 0
M  V30 3898 O 387.074 -2.00579 1.82976 0
M  V30 3899 C 385.53 -0.116089 3.59713 0
M  V30 3900 C 385.138 1.2154 4.31198 0
M  V30 3901 C 386.882 -0.610268 4.2009 0
M  V30 3902 C 384.789 1.09796 5.81119 0
M  V30 3903 H 383.719 -0.0175376 0.753796 0
M  V30 3904 H 386.37 0.647691 1.71689 0
M  V30 3905 H 384.752 -0.8652 3.86433 0
M  V30 3906 H 385.926 1.9783 4.16173 0
M  V30 3907 H 384.241 1.64352 3.82593 0
M  V30 3908 H 386.838 -0.715742 5.29888 0
M  V30 3909 H 387.181 -1.61064 3.8388 0
M  V30 3910 H 387.714 0.0824916 3.97714 0
M  V30 3911 H 384.453 2.0728 6.21864 0
M  V30 3912 H 383.973 0.376058 5.9862 0
M  V30 3913 H 385.652 0.779281 6.4229 0
M  V30 3914 N 385.784 -1.5574 0.241426 0
M  V30 3915 C 386.732 -2.22538 -0.676718 0
M  V30 3916 C 387.726 -1.21117 -1.18436 0
M  V30 3917 O 388.932 -1.39144 -1.14188 0
M  V30 3918 H 385.307 -0.713776 -0.236701 0
M  V30 3919 H 387.278 -2.98264 -0.0901187 0
M  V30 3920 C 386.027 -2.93439 -1.86518 0
M  V30 3921 H 385.35 -3.7125 -1.4837 0
M  V30 3922 H 386.79 -3.43549 -2.48495 0
M  V30 3923 C 385.249 -1.97008 -2.73294 0
M  V30 3924 O 385.779 -1.49965 -3.72657 0
M  V30 3925 N 383.985 -1.64227 -2.39745 0
M  V30 3926 H 383.532 -2.02677 -1.58996 0
M  V30 3927 H 383.49 -0.999708 -2.98083 0
M  V30 3928 N 387.262 0.0317525 -1.57568 0
M  V30 3929 C 388.511 0.722131 -1.8833 0
M  V30 3930 C 388.824 1.76664 -0.839587 0
M  V30 3931 O 390.03 2.50942 -1.03635 0
M  V30 3932 C 388.486 1.33544 -3.34207 0
M  V30 3933 C 388.094 0.327415 -4.46802 0
M  V30 3934 C 389.838 2.00585 -3.7412 0
M  V30 3935 C 387.745 0.948915 -5.83738 0
M  V30 3936 H 386.675 0.273466 -0.702661 0
M  V30 3937 H 389.326 -0.0235811 -1.83485 0
M  V30 3938 H 387.708 2.13077 -3.33788 0
M  V30 3939 H 388.882 -0.441006 -4.58685 0
M  V30 3940 H 387.197 -0.240758 -4.15703 0
M  V30 3941 H 389.794 2.47932 -4.73744 0
M  V30 3942 H 390.137 2.82285 -3.05975 0
M  V30 3943 H 390.67 1.27831 -3.76702 0
M  V30 3944 H 387.409 0.171387 -6.55276 0
M  V30 3945 H 386.929 1.68724 -5.7558 0
M  V30 3946 H 388.608 1.45705 -6.3038 0
M  V30 3947 N 388.74 1.54641 0.303973 0
M  V30 3948 C 389.703 1.84646 1.35789 0
M  V30 3949 C 390.703 0.7192 1.4382 0
M  V30 3950 O 391.893 0.987491 1.43507 0
M  V30 3951 C 389.025 2.02407 2.74307 0
M  V30 3952 H 390.218 2.78829 1.10429 0
M  V30 3953 H 387.771 1.46658 0.540487 0
M  V30 3954 H 388.506 1.10502 3.04893 0
M  V30 3955 H 388.291 2.84453 2.69868 0
M  V30 3956 H 389.781 2.27002 3.50514 0
M  V30 3957 N 390.218 -0.567019 1.47046 0
M  V30 3958 C 391.148 -1.68482 1.61667 0
M  V30 3959 C 392.129 -1.6358 0.466418 0
M  V30 3960 O 393.314 -1.81354 0.694574 0
M  V30 3961 C 390.444 -3.07124 1.62148 0
M  V30 3962 C 389.398 -3.26867 2.76301 0
M  V30 3963 C 388.724 -4.66196 2.61849 0
M  V30 3964 C 390.024 -3.13186 4.17986 0
M  V30 3965 H 391.718 -1.56502 2.5524 0
M  V30 3966 H 389.264 -0.751486 1.22836 0
M  V30 3967 H 391.217 -3.8516 1.70968 0
M  V30 3968 H 389.941 -3.2004 0.651287 0
M  V30 3969 H 388.6 -2.51237 2.66975 0
M  V30 3970 H 388.248 -4.75898 1.62879 0
M  V30 3971 H 387.948 -4.80356 3.38425 0
M  V30 3972 H 389.472 -5.46379 2.72584 0
M  V30 3973 H 390.886 -3.81049 4.2834 0
M  V30 3974 H 389.283 -3.3886 4.95272 0
M  V30 3975 H 390.353 -2.10057 4.3704 0
M  V30 3976 N 391.696 -1.35014 -0.812953 0
M  V30 3977 C 392.942 -1.2812 -1.57204 0
M  V30 3978 C 393.275 0.145869 -1.93651 0
M  V30 3979 O 392.55 1.0937 -1.60836 0
M  V30 3980 C 392.833 -2.18162 -2.86492 0
M  V30 3981 C 392.686 -3.69454 -2.56561 0
M  V30 3982 C 394.005 -2.07439 -3.88145 0
M  V30 3983 H 391.124 -0.466746 -0.570366 0
M  V30 3984 H 393.766 -1.65357 -0.935783 0
M  V30 3985 H 391.916 -1.86535 -3.40789 0
M  V30 3986 H 393.588 -4.11493 -2.08497 0
M  V30 3987 H 391.831 -3.9005 -1.89851 0
M  V30 3988 H 392.502 -4.27835 -3.48799 0
M  V30 3989 H 394.978 -2.35228 -3.4323 0
M  V30 3990 H 393.854 -2.7265 -4.76396 0
M  V30 3991 H 394.115 -1.05439 -4.29343 0
M  V30 3992 N 393.175 1.03435 -1.18907 0
M  V30 3993 C 394.125 2.09924 -0.889706 0
M  V30 3994 C 395.109 1.60261 0.143216 0
M  V30 3995 O 396.301 1.76892 -0.0617122 0
M  V30 3996 C 393.43 3.40669 -0.424168 0
M  V30 3997 C 392.516 3.97082 -1.48952 0
M  V30 3998 N 392.907 4.27227 -2.70759 0
M  V30 3999 C 391.205 4.25029 -1.35152 0
M  V30 4000 C 391.906 4.7246 -3.39347 0
M  V30 4001 N 390.882 4.7366 -2.66735 0
M  V30 4002 H 394.684 2.31116 -1.81555 0
M  V30 4003 H 392.198 1.21246 -1.08042 0
M  V30 4004 H 394.195 4.16461 -0.191176 0
M  V30 4005 H 392.855 3.20901 0.495263 0
M  V30 4006 H 393.866 4.16678 -3.0757 0
M  V30 4007 H 390.543 4.14554 -0.495126 0
M  V30 4008 H 391.933 5.04751 -4.43481 0
M  V30 4009 N 394.653 0.992116 1.22453 0
M  V30 4010 C 395.603 0.512969 2.22155 0
M  V30 4011 C 396.587 -0.418416 1.55364 0
M  V30 4012 O 397.779 -0.245363 1.75291 0
M  V30 4013 C 394.908 -0.171822 3.4287 0
M  V30 4014 C 393.994 0.779822 4.16869 0
M  V30 4015 N 394.385 1.92734 4.6764 0
M  V30 4016 C 392.683 0.59554 4.42006 0
M  V30 4017 C 393.384 2.52458 5.24061 0
M  V30 4018 N 392.36 1.80735 5.12675 0
M  V30 4019 H 396.162 1.38817 2.5905 0
M  V30 4020 H 393.676 0.854277 1.38115 0
M  V30 4021 H 395.673 -0.532469 4.13486 0
M  V30 4022 H 394.333 -1.04317 3.07487 0
M  V30 4023 H 395.344 2.30816 4.63621 0
M  V30 4024 H 392.021 -0.229805 4.16867 0
M  V30 4025 H 393.411 3.49433 5.73887 0
M  V30 4026 N 396.131 -1.37776 0.765217 0
M  V30 4027 C 397.061 -2.32945 0.160953 0
M  V30 4028 C 398.042 -1.55454 -0.690516 0
M  V30 4029 O 399.227 -1.83721 -0.629318 0
M  V30 4030 C 396.357 -3.39669 -0.724031 0
M  V30 4031 C 395.311 -4.27992 0.0256173 0
M  V30 4032 C 394.637 -5.25673 -0.978383 0
M  V30 4033 C 395.937 -5.08309 1.20082 0
M  V30 4034 H 397.631 -2.83728 0.955969 0
M  V30 4035 H 395.177 -1.36416 0.461149 0
M  V30 4036 H 397.13 -4.05219 -1.15652 0
M  V30 4037 H 395.854 -2.87396 -1.5515 0
M  V30 4038 H 394.513 -3.63964 0.438812 0
M  V30 4039 H 394.161 -4.69682 -1.80022 0
M  V30 4040 H 393.861 -5.85625 -0.481378 0
M  V30 4041 H 395.385 -5.94098 -1.40995 0
M  V30 4042 H 396.799 -5.67034 0.845307 0
M  V30 4043 H 395.196 -5.77554 1.62947 0
M  V30 4044 H 396.266 -4.41365 2.00811 0
M  V30 4045 N 397.609 -0.515225 -1.4894 0
M  V30 4046 C 398.857 0.0241671 -2.02086 0
M  V30 4047 C 399.178 1.3616 -1.3959 0
M  V30 4048 O 398.448 1.87841 -0.556121 0
M  V30 4049 H 397.028 0.0119203 -0.746905 0
M  V30 4050 H 399.69 -0.675702 -1.82812 0
M  V30 4051 H 398.786 0.143385 -3.1177 0
M  V30 4052 N 399.087 1.5561 -0.249682 0
M  V30 4053 C 400.017 2.24477 0.642826 0
M  V30 4054 C 400.998 1.22601 1.17911 0
M  V30 4055 O 402.183 1.5126 1.21795 0
M  V30 4056 C 399.313 2.94638 1.83863 0
M  V30 4057 C 398.267 4.03227 1.435 0
M  V30 4058 C 397.593 4.60828 2.71186 0
M  V30 4059 C 398.893 5.18796 0.604002 0
M  V30 4060 H 400.587 2.99321 0.0685625 0
M  V30 4061 H 398.133 1.43965 0.0315363 0
M  V30 4062 H 400.086 3.41517 2.46868 0
M  V30 4063 H 398.81 2.17287 2.43832 0
M  V30 4064 H 397.469 3.57121 0.828275 0
M  V30 4065 H 397.117 3.80174 3.29358 0
M  V30 4066 H 396.817 5.34132 2.44901 0
M  V30 4067 H 398.341 5.10442 3.35084 0
M  V30 4068 H 399.755 5.61883 1.13842 0
M  V30 4069 H 398.152 5.98506 0.437097 0
M  V30 4070 H 399.222 4.83384 -0.383147 0
M  V30 4071 N 400.565 -0.0233959 1.57583 0
M  V30 4072 C 401.813 -0.711654 1.89156 0
M  V30 4073 C 402.134 -1.75591 0.848096 0
M  V30 4074 O 401.404 -1.95547 -0.117566 0
M  V30 4075 H 399.984 -0.265835 0.698098 0
M  V30 4076 H 402.646 0.0119948 1.94896 0
M  V30 4077 H 401.742 -1.19766 2.88206 0
M  V30 4078 N 402.043 -1.548 -0.295768 0
M  V30 4079 C 402.993 -1.82497 -1.3667 0
M  V30 4080 C 403.977 -0.682434 -1.45711 0
M  V30 4081 O 405.169 -0.943207 -1.49775 0
M  V30 4082 C 402.298 -2.08036 -2.73086 0
M  V30 4083 C 401.384 -3.28488 -2.68247 0
M  V30 4084 N 401.775 -4.48924 -2.33025 0
M  V30 4085 C 400.073 -3.3062 -2.99343 0
M  V30 4086 C 400.774 -5.30956 -2.37613 0
M  V30 4087 N 399.75 -4.68805 -2.75178 0
M  V30 4088 H 403.552 -2.73175 -1.0841 0
M  V30 4089 H 401.066 -1.5437 -0.504361 0
M  V30 4090 H 403.063 -2.26027 -3.5031 0
M  V30 4091 H 401.723 -1.18629 -3.02254 0
M  V30 4092 H 402.734 -4.75432 -2.05389 0
M  V30 4093 H 399.411 -2.51336 -3.33371 0
M  V30 4094 H 400.801 -6.37199 -2.13135 0
M  V30 4095 N 403.521 0.559213 -1.47345 0
M  V30 4096 C 404.932 1.14134 -1.47751 0
M  V30 4097 C 405.283 1.94834 -0.231103 0
M  V30 4098 O 404.408 2.05957 0.664137 0
M  V30 4099 C 405.003 2.07653 -2.67705 0
M  V30 4100 C 403.562 2.61141 -2.71076 0
M  V30 4101 C 402.709 1.3748 -2.40821 0
M  V30 4102 H 405.66 0.345917 -1.54884 0
M  V30 4103 H 405.681 2.91497 -2.44561 0
M  V30 4104 H 405.193 1.4889 -3.58404 0
M  V30 4105 H 403.294 3.23707 -1.84511 0
M  V30 4106 H 403.407 3.02272 -3.7171 0
M  V30 4107 H 401.771 1.68086 -1.91362 0
M  V30 4108 H 402.554 0.805135 -3.33725 0
M  V30 4109 N 404.999 1.35443 0.805782 0
M  V30 4110 C 406.229 1.31687 1.59192 0
M  V30 4111 C 406.637 -0.10756 1.88894 0
M  V30 4112 O 405.98 -1.07017 1.49309 0
M  V30 4113 C 406.042 2.05686 2.94845 0
M  V30 4114 C 405.706 3.54868 2.87954 0
M  V30 4115 C 406.703 4.49444 2.61335 0
M  V30 4116 C 404.388 3.97528 3.07046 0
M  V30 4117 C 406.382 5.84655 2.53885 0
M  V30 4118 C 404.069 5.32833 2.99219 0
M  V30 4119 C 405.067 6.26209 2.72674 0
M  V30 4120 O 404.755 7.59032 2.64811 0
M  V30 4121 H 404.487 0.453878 0.50097 0
M  V30 4122 H 407.041 1.78892 1.0093 0
M  V30 4123 H 405.271 1.5312 3.55093 0
M  V30 4124 H 406.96 1.94998 3.55993 0
M  V30 4125 H 407.726 4.17804 2.46303 0
M  V30 4126 H 403.605 3.25233 3.26718 0
M  V30 4127 H 407.149 6.57508 2.33086 0
M  V30 4128 H 403.046 5.64087 3.13809 0
M  V30 4129 H 403.814 7.68967 2.80413 0
M  V30 4130 N 406.477 -1.02803 1.19454 0
M  V30 4131 C 407.407 -2.12999 0.956758 0
M  V30 4132 C 408.388 -1.69743 -0.110188 0
M  V30 4133 O 409.573 -1.94148 0.0450038 0
M  V30 4134 C 406.703 -3.43746 0.495553 0
M  V30 4135 C 405.657 -4.00688 1.50443 0
M  V30 4136 C 404.983 -5.27067 0.900275 0
M  V30 4137 C 406.283 -4.35397 2.8849 0
M  V30 4138 H 407.977 -2.33148 1.87836 0
M  V30 4139 H 405.523 -1.12045 0.904539 0
M  V30 4140 H 407.476 -4.2021 0.316493 0
M  V30 4141 H 406.2 -3.23321 -0.461646 0
M  V30 4142 H 404.859 -3.2632 1.67065 0
M  V30 4143 H 404.507 -5.02959 -0.064503 0
M  V30 4144 H 404.207 -5.66127 1.57397 0
M  V30 4145 H 405.731 -6.06196 0.73203 0
M  V30 4146 H 407.145 -5.02795 2.75446 0
M  V30 4147 H 405.542 -4.85541 3.52661 0
M  V30 4148 H 406.612 -3.44662 3.41081 0
M  V30 4149 N 407.956 -0.998596 -1.21925 0
M  V30 4150 C 409.186 -0.695276 -1.94549 0
M  V30 4151 C 409.594 0.745079 -1.73911 0
M  V30 4152 O 408.937 1.51507 -1.03881 0
M  V30 4153 C 408.999 -0.928485 -3.47303 0
M  V30 4154 C 408.663 -2.35443 -3.91683 0
M  V30 4155 C 409.66 -3.33428 -3.98901 0
M  V30 4156 C 407.345 -2.69038 -4.24174 0
M  V30 4157 C 409.339 -4.63079 -4.37992 0
M  V30 4158 C 407.026 -3.98906 -4.62944 0
M  V30 4159 C 408.024 -4.95738 -4.69822 0
M  V30 4160 O 407.712 -6.23285 -5.07711 0
M  V30 4161 H 407.444 -0.255902 -0.625692 0
M  V30 4162 H 409.998 -1.33767 -1.5587 0
M  V30 4163 H 408.228 -0.228917 -3.86022 0
M  V30 4164 H 409.917 -0.619539 -4.01144 0
M  V30 4165 H 410.683 -3.08807 -3.73983 0
M  V30 4166 H 406.562 -1.94367 -4.18022 0
M  V30 4167 H 410.106 -5.38658 -4.43275 0
M  V30 4168 H 406.003 -4.23314 -4.87314 0
M  V30 4169 H 406.771 -6.27306 -5.25766 0
M  V30 4170 N 409.434 1.37368 -0.772513 0
M  V30 4171 C 410.674 2.01512 -0.342361 0
M  V30 4172 C 411.038 1.59997 1.06136 0
M  V30 4173 O 412.239 2.16609 1.59167 0
M  V30 4174 C 410.51 3.54134 -0.482048 0
M  V30 4175 S 412.069 4.38585 -0.137272 0
M  V30 4176 H 408.887 0.698699 -0.131686 0
M  V30 4177 H 411.489 1.67552 -1.0073 0
M  V30 4178 H 410.193 3.81837 -1.50428 0
M  V30 4179 H 409.724 3.92894 0.199413 0
M  V30 4180 H 411.739 4.84594 1.06692 0
M  V30 4181 N 410.912 0.523116 1.48665 0
M  V30 4182 C 412.16 -0.0134497 2.02096 0
M  V30 4183 C 412.481 -1.35418 1.40311 0
M  V30 4184 O 411.751 -1.87543 0.566074 0
M  V30 4185 H 410.331 -0.00795915 0.746958 0
M  V30 4186 H 412.993 0.685388 1.82451 0
M  V30 4187 H 412.089 -0.126849 3.11842 0
M  V30 4188 N 412.39 -1.55475 0.257931 0
M  V30 4189 C 413.615 -2.04064 -0.370488 0
M  V30 4190 C 414.04 -1.13565 -1.49948 0
M  V30 4191 O 413.398 -0.130781 -1.80828 0
M  V30 4192 C 413.446 -3.50554 -0.845237 0
M  V30 4193 O 412.55 -3.63173 -1.95394 0
M  V30 4194 H 411.891 -0.659257 -0.0792243 0
M  V30 4195 H 414.421 -2.00903 0.387212 0
M  V30 4196 H 414.431 -3.91588 -1.14555 0
M  V30 4197 H 413.106 -4.15896 -0.0191259 0
M  V30 4198 H 411.683 -3.34039 -1.65748 0
M  V30 4199 N 413.868 0.0150385 -1.57593 0
M  V30 4200 C 415.114 0.69849 -1.91031 0
M  V30 4201 C 415.469 1.72208 -0.85804 0
M  V30 4202 O 414.762 1.91147 0.131614 0
M  V30 4203 C 414.956 1.39686 -3.28972 0
M  V30 4204 C 414.785 0.442428 -4.47518 0
M  V30 4205 C 413.555 0.0583223 -5.05266 0
M  V30 4206 C 415.753 -0.285072 -5.13509 0
M  V30 4207 N 413.735 -0.895893 -6.07328 0
M  V30 4208 C 415.106 -1.09447 -6.10263 0
M  V30 4209 C 417.161 -0.350518 -4.96665 0
M  V30 4210 C 415.864 -1.96333 -6.91987 0
M  V30 4211 C 417.89 -1.20655 -5.78962 0
M  V30 4212 C 417.252 -2.00383 -6.75297 0
M  V30 4213 H 413.351 0.22926 -0.747639 0
M  V30 4214 H 415.935 -0.0417748 -1.94655 0
M  V30 4215 H 414.106 2.1075 -3.2625 0
M  V30 4216 H 415.838 2.03381 -3.49883 0
M  V30 4217 H 412.593 0.423506 -4.71703 0
M  V30 4218 H 413.017 -1.36792 -6.63036 0
M  V30 4219 H 417.659 0.251596 -4.22051 0
M  V30 4220 H 415.377 -2.57618 -7.65936 0
M  V30 4221 H 418.963 -1.2609 -5.67972 0
M  V30 4222 H 417.843 -2.65552 -7.3787 0
M  V30 4223 N 415.346 1.54954 0.287554 0
M  V30 4224 C 416.571 1.79209 1.04397 0
M  V30 4225 C 416.996 0.556431 1.79682 0
M  V30 4226 O 416.354 -0.493518 1.74454 0
M  V30 4227 C 416.402 3.00739 1.98969 0
M  V30 4228 O 415.506 2.74805 3.075 0
M  V30 4229 H 414.847 0.592755 0.299227 0
M  V30 4230 H 417.377 2.02068 0.320886 0
M  V30 4231 H 417.387 3.29077 2.4119 0
M  V30 4232 H 416.062 3.90329 1.43582 0
M  V30 4233 H 414.639 2.57523 2.69697 0
M  V30 4234 N 416.824 -0.551391 1.4764 0
M  V30 4235 C 417.734 -1.68525 1.63207 0
M  V30 4236 C 418.75 -1.6621 0.514815 0
M  V30 4237 O 419.926 -1.85551 0.783113 0
M  V30 4238 C 416.991 -3.05025 1.64805 0
M  V30 4239 C 416.052 -3.18362 2.88 0
M  V30 4240 C 415.285 -4.4835 2.89513 0
M  V30 4241 O 415.508 -5.34163 2.00065 0
M  V30 4242 O 414.442 -4.65602 3.81443 0
M  V30 4243 H 418.268 -1.58333 2.59161 0
M  V30 4244 H 415.853 -0.722063 1.30792 0
M  V30 4245 H 417.735 -3.86245 1.68502 0
M  V30 4246 H 416.41 -3.15587 0.720197 0
M  V30 4247 H 415.317 -2.36518 2.89845 0
M  V30 4248 H 416.65 -3.12707 3.80099 0
M  V30 4249 N 418.302 -1.35869 -0.798587 0
M  V30 4250 C 419.532 -1.32529 -1.58491 0
M  V30 4251 C 419.94 0.0975405 -1.88948 0
M  V30 4252 O 419.283 1.06224 -1.49874 0
M  V30 4253 C 419.345 -2.07247 -2.9375 0
M  V30 4254 C 419.009 -3.56391 -2.86068 0
M  V30 4255 C 420.006 -4.50824 -2.58947 0
M  V30 4256 C 417.691 -3.9915 -3.04933 0
M  V30 4257 C 419.685 -5.85993 -2.5078 0
M  V30 4258 C 417.372 -5.34413 -2.96389 0
M  V30 4259 C 418.37 -6.27646 -2.69349 0
M  V30 4260 O 418.058 -7.60426 -2.60782 0
M  V30 4261 H 417.79 -0.456529 -0.498556 0
M  V30 4262 H 420.344 -1.79425 -0.999799 0
M  V30 4263 H 418.574 -1.55001 -3.54276 0
M  V30 4264 H 420.263 -1.96883 -3.54954 0
M  V30 4265 H 421.029 -4.19104 -2.44084 0
M  V30 4266 H 416.908 -3.26961 -3.24989 0
M  V30 4267 H 420.452 -6.58735 -2.29595 0
M  V30 4268 H 416.349 -5.65743 -3.10813 0
M  V30 4269 H 417.117 -7.70444 -2.76331 0
M  V30 4270 N 419.78 1.02168 -1.19998 0
M  V30 4271 C 421.005 1.79833 -1.03319 0
M  V30 4272 C 421.43 1.83504 0.413281 0
M  V30 4273 O 420.788 1.26635 1.29743 0
M  V30 4274 C 420.836 3.22396 -1.61533 0
M  V30 4275 O 419.94 4.03555 -0.849519 0
M  V30 4276 H 419.281 0.554872 -0.364709 0
M  V30 4277 H 421.811 1.28542 -1.59179 0
M  V30 4278 H 421.821 3.73124 -1.65054 0
M  V30 4279 H 420.496 3.19039 -2.66809 0
M  V30 4280 H 419.073 3.62169 -0.888129 0
M  V30 4281 N 421.258 1.00505 1.21394 0
M  V30 4282 C 422.506 0.686415 1.90086 0
M  V30 4283 C 422.827 -0.785264 1.7849 0
M  V30 4284 O 422.097 -1.56387 1.17983 0
M  V30 4285 H 420.677 0.2509 0.703604 0
M  V30 4286 H 423.339 1.27417 1.47482 0
M  V30 4287 H 422.435 0.959621 2.96981 0
M  V30 4288 N 422.737 -1.36956 0.779787 0
M  V30 4289 C 423.667 -2.32761 0.185651 0
M  V30 4290 C 424.648 -1.56177 -0.673989 0
M  V30 4291 O 425.833 -1.84378 -0.609797 0
M  V30 4292 C 422.963 -3.40418 -0.687964 0
M  V30 4293 C 421.917 -4.27941 0.0710102 0
M  V30 4294 C 421.243 -5.26681 -0.922573 0
M  V30 4295 C 422.543 -5.07006 1.25467 0
M  V30 4296 H 424.237 -2.82698 0.986008 0
M  V30 4297 H 421.783 -1.3592 0.475592 0
M  V30 4298 H 423.736 -4.06423 -1.11348 0
M  V30 4299 H 422.46 -2.89025 -1.52093 0
M  V30 4300 H 421.119 -3.63478 0.47739 0
M  V30 4301 H 420.767 -4.71565 -1.7503 0
M  V30 4302 H 420.467 -5.86103 -0.419237 0
M  V30 4303 H 421.991 -5.9556 -1.34686 0
M  V30 4304 H 423.405 -5.66105 0.905401 0
M  V30 4305 H 421.802 -5.75793 1.69063 0
M  V30 4306 H 422.872 -4.3921 2.05481 0
M  V30 4307 N 424.215 -0.530993 -1.48385 0
M  V30 4308 C 425.462 0.0027373 -2.025 0
M  V30 4309 C 425.79 1.34186 -1.40799 0
M  V30 4310 O 425.045 1.88 -0.543544 0
M  V30 4311 C 425.344 0.172742 -3.56982 0
M  V30 4312 C 425.01 -1.09215 -4.37473 0
M  V30 4313 C 423.672 -1.43881 -4.59186 0
M  V30 4314 C 426.024 -1.93153 -4.84088 0
M  V30 4315 C 423.352 -2.62381 -5.2476 0
M  V30 4316 C 425.704 -3.10833 -5.50968 0
M  V30 4317 C 424.368 -3.45843 -5.70919 0
M  V30 4318 H 423.638 0.00100165 -0.740999 0
M  V30 4319 H 426.285 -0.697219 -1.78357 0
M  V30 4320 H 424.59 0.955473 -3.79971 0
M  V30 4321 H 426.287 0.600642 -3.96476 0
M  V30 4322 H 422.877 -0.812177 -4.20834 0
M  V30 4323 H 427.061 -1.67683 -4.67115 0
M  V30 4324 H 422.317 -2.89707 -5.38405 0
M  V30 4325 H 426.491 -3.7618 -5.86056 0
M  V30 4326 H 424.118 -4.37764 -6.21503 0
M  V30 4327 N 425.693 1.55336 -0.266172 0
M  V30 4328 C 427.109 1.59356 0.0882065 0
M  V30 4329 C 427.309 1.2834 1.55342 0
M  V30 4330 O 426.365 1.03996 2.30089 0
M  V30 4331 C 427.678 2.99409 -0.278364 0
M  V30 4332 C 429.226 3.12196 -0.224243 0
M  V30 4333 C 429.701 4.545 -0.565123 0
M  V30 4334 N 431.192 4.60313 -0.51634 0
M  V30 4335 C 431.927 5.68434 -0.753013 0
M  V30 4336 N 431.423 6.84738 -1.05383 0
M  V30 4337 N 433.216 5.57942 -0.682414 0
M  V30 4338 H 425.367 1.73764 -1.22147 0
M  V30 4339 H 427.63 0.809822 -0.492841 0
M  V30 4340 H 427.336 3.2691 -1.29703 0
M  V30 4341 H 427.21 3.75228 0.385186 0
M  V30 4342 H 429.597 2.84464 0.78512 0
M  V30 4343 H 429.678 2.38609 -0.921922 0
M  V30 4344 H 429.322 4.82956 -1.57213 0
M  V30 4345 H 429.252 5.26374 0.154248 0
M  V30 4346 H 431.743 3.7676 -0.29335 0
M  V30 4347 H 432.056 7.63088 -1.22133 0
M  V30 4348 H 430.401 6.86375 -1.09151 0
M  V30 4349 H 433.592 4.65958 -0.44731 0
M  V30 4350 H 433.765 6.4213 -0.870248 0
M  V30 4351 N 427.171 -0.0066808 1.57599 0
M  V30 4352 C 428.582 -0.550379 1.78403 0
M  V30 4353 C 428.933 -1.74339 0.900014 0
M  V30 4354 O 428.058 -2.16166 0.100713 0
M  V30 4355 C 428.653 -1.00523 3.23544 0
M  V30 4356 C 427.212 -1.49428 3.45468 0
M  V30 4357 C 426.359 -0.442444 2.73748 0
M  V30 4358 H 429.31 0.219508 1.57175 0
M  V30 4359 H 429.331 -1.87157 3.31289 0
M  V30 4360 H 428.843 -0.136735 3.87859 0
M  V30 4361 H 426.944 -2.3839 2.86358 0
M  V30 4362 H 427.057 -1.52635 4.54136 0
M  V30 4363 H 425.421 -0.902578 2.38171 0
M  V30 4364 H 426.204 0.416973 3.40758 0
M  V30 4365 N 428.649 -1.55105 -0.279332 0
M  V30 4366 C 430.06 -1.66186 -0.850832 0
M  V30 4367 C 430.411 -0.584707 -1.87285 0
M  V30 4368 O 429.536 0.274919 -2.14647 0
M  V30 4369 C 430.131 -3.01264 -1.55001 0
M  V30 4370 C 428.69 -3.14394 -2.06963 0
M  V30 4371 C 427.837 -2.61959 -0.909536 0
M  V30 4372 H 430.788 -1.58602 -0.0558235 0
M  V30 4373 H 430.809 -2.93899 -2.41669 0
M  V30 4374 H 430.321 -3.7964 -0.805931 0
M  V30 4375 H 428.422 -2.4078 -2.84352 0
M  V30 4376 H 428.535 -4.20867 -2.28928 0
M  V30 4377 H 426.899 -2.18957 -1.30116 0
M  V30 4378 H 427.682 -3.42833 -0.179062 0
M  V30 4379 N 430.127 0.543554 -1.4793 0
M  V30 4380 C 431.376 1.29649 -1.54512 0
M  V30 4381 C 431.689 1.94382 -0.217973 0
M  V30 4382 O 432.895 2.71017 -0.161908 0
M  V30 4383 C 431.351 2.35175 -2.72435 0
M  V30 4384 C 430.959 1.76572 -4.11736 0
M  V30 4385 C 432.703 3.11564 -2.8832 0
M  V30 4386 C 430.61 2.79958 -5.20939 0
M  V30 4387 H 429.54 0.487541 -0.57517 0
M  V30 4388 H 432.191 0.575708 -1.74235 0
M  V30 4389 H 430.573 3.10229 -2.46118 0
M  V30 4390 H 431.747 1.07799 -4.48013 0
M  V30 4391 H 430.062 1.12722 -4.00852 0
M  V30 4392 H 432.659 3.88794 -3.67074 0
M  V30 4393 H 433.002 3.66594 -1.97268 0
M  V30 4394 H 433.535 2.43623 -3.14472 0
M  V30 4395 H 430.274 2.29766 -6.13912 0
M  V30 4396 H 429.794 3.47101 -4.89164 0
M  V30 4397 H 431.473 3.43198 -5.48474 0
M  V30 4398 N 431.605 1.3629 0.791371 0
M  V30 4399 C 432.538 1.24816 1.9104 0
M  V30 4400 C 433.516 0.132739 1.62057 0
M  V30 4401 O 434.7 0.303527 1.8604 0
M  V30 4402 C 431.827 0.925355 3.25814 0
M  V30 4403 C 430.873 2.05495 3.7373 0
M  V30 4404 S 431.706 3.67255 3.89723 0
M  V30 4405 C 432.862 3.37084 5.27376 0
M  V30 4406 H 433.095 2.19533 2.00481 0
M  V30 4407 H 430.628 1.21684 0.950393 0
M  V30 4408 H 432.586 0.745924 4.03666 0
M  V30 4409 H 431.247 -0.00400098 3.141 0
M  V30 4410 H 430.44 1.7836 4.71385 0
M  V30 4411 H 430.042 2.1935 3.02922 0
M  V30 4412 H 432.334 2.90856 6.1189 0
M  V30 4413 H 433.277 4.33995 5.59512 0
M  V30 4414 H 433.685 2.7248 4.94383 0
M  V30 4415 N 433.083 -1.0153 1.20538 0
M  V30 4416 C 434.499 -1.27461 0.96051 0
M  V30 4417 C 434.699 -1.98273 -0.359193 0
M  V30 4418 O 433.755 -2.27886 -1.0874 0
M  V30 4419 C 435.068 -2.10837 2.14402 0
M  V30 4420 C 436.616 -2.24099 2.18515 0
M  V30 4421 C 437.091 -3.10852 3.36355 0
M  V30 4422 N 438.582 -3.18441 3.36377 0
M  V30 4423 C 439.317 -3.85795 4.24205 0
M  V30 4424 N 438.813 -4.55264 5.22213 0
M  V30 4425 N 440.606 -3.82331 4.12043 0
M  V30 4426 H 432.757 -0.539907 2.05423 0
M  V30 4427 H 435.02 -0.30092 0.898972 0
M  V30 4428 H 434.726 -1.66144 3.09983 0
M  V30 4429 H 434.6 -3.11576 2.12604 0
M  V30 4430 H 436.987 -2.68016 1.23497 0
M  V30 4431 H 437.068 -1.22865 2.24361 0
M  V30 4432 H 436.712 -2.6764 4.31661 0
M  V30 4433 H 436.642 -4.12177 3.27746 0
M  V30 4434 H 439.133 -2.68978 2.65442 0
M  V30 4435 H 439.446 -5.04331 5.85551 0
M  V30 4436 H 437.791 -4.54085 5.26148 0
M  V30 4437 H 440.982 -3.27207 3.34743 0
M  V30 4438 H 441.155 -4.34547 4.807 0
M  V30 4439 N 434.561 -1.01147 -1.20859 0
M  V30 4440 C 435.786 -0.716698 -1.94623 0
M  V30 4441 C 436.211 0.715415 -1.73964 0
M  V30 4442 O 435.569 1.49157 -1.03062 0
M  V30 4443 C 435.617 -1.0513 -3.44935 0
M  V30 4444 O 434.721 -0.160131 -4.12089 0
M  V30 4445 H 434.062 -0.266404 -0.608214 0
M  V30 4446 H 436.592 -1.35346 -1.53436 0
M  V30 4447 H 436.602 -1.00086 -3.95533 0
M  V30 4448 H 435.277 -2.09475 -3.59295 0
M  V30 4449 H 433.854 -0.267657 -3.71938 0
M  V30 4450 N 436.039 1.36541 -0.78704 0
M  V30 4451 C 437.288 1.98552 -0.35494 0
M  V30 4452 C 437.601 1.63171 1.07864 0
M  V30 4453 O 438.807 2.18399 1.61289 0
M  V30 4454 C 437.263 3.55136 -0.583671 0
M  V30 4455 C 436.871 3.99444 -2.02851 0
M  V30 4456 C 438.615 4.2395 -0.215957 0
M  V30 4457 C 436.522 5.48796 -2.20403 0
M  V30 4458 H 435.452 0.742888 -0.128972 0
M  V30 4459 H 438.103 1.5587 -0.968337 0
M  V30 4460 H 436.485 3.95875 0.0994046 0
M  V30 4461 H 437.659 3.6991 -2.74779 0
M  V30 4462 H 435.974 3.43459 -2.35425 0
M  V30 4463 H 438.571 5.33709 -0.325405 0
M  V30 4464 H 438.914 4.07827 0.835646 0
M  V30 4465 H 439.447 3.88565 -0.852175 0
M  V30 4466 H 436.186 5.69864 -3.23937 0
M  V30 4467 H 435.706 5.79964 -1.52977 0
M  V30 4468 H 437.385 6.14986 -2.01002 0
M  V30 4469 N 437.518 0.538854 1.48102 0
M  V30 4470 C 438.767 0.0059532 2.01699 0
M  V30 4471 C 439.08 -1.34476 1.42041 0
M  V30 4472 O 440.286 -1.96653 1.87189 0
M  V30 4473 C 438.742 -0.0397627 3.59878 0
M  V30 4474 C 438.35 1.30659 4.28523 0
M  V30 4475 C 440.094 -0.521024 4.2129 0
M  V30 4476 C 438.001 1.22098 5.78659 0
M  V30 4477 H 436.931 -0.00154456 0.753998 0
M  V30 4478 H 439.582 0.683963 1.70277 0
M  V30 4479 H 437.964 -0.783037 3.88181 0
M  V30 4480 H 439.138 2.06613 4.11883 0
M  V30 4481 H 437.453 1.7243 3.79021 0
M  V30 4482 H 440.05 -0.603184 5.31287 0
M  V30 4483 H 440.393 -1.52885 3.8721 0
M  V30 4484 H 440.926 0.166834 3.9745 0
M  V30 4485 H 437.665 2.20424 6.17328 0
M  V30 4486 H 437.185 0.50295 5.97688 0
M  V30 4487 H 438.864 0.915345 6.40492 0
M  V30 4488 N 438.996 -1.55193 0.274407 0
M  V30 4489 C 440.273 -1.91584 -0.394331 0
M  V30 4490 C 440.653 -1.19858 -1.73774 0
M  V30 4491 O 440.001 -0.3252 -2.26174 0
M  V30 4492 C 440.211 -3.4487 -0.535311 0
M  V30 4493 C 441.559 -4.16636 -0.818534 0
M  V30 4494 O 442.583 -3.5076 -0.620146 0
M  V30 4495 O 441.442 -5.33209 -1.19792 0
M  V30 4496 H 438.536 -0.798349 -0.215794 0
M  V30 4497 H 441.082 -1.66646 0.320507 0
M  V30 4498 H 439.854 -3.89145 0.410141 0
M  V30 4499 H 439.477 -3.75759 -1.29964 0
M  V30 4500 N 440.474 -0.00167713 -1.576 0
M  V30 4501 C 441.751 0.719951 -1.81868 0
M  V30 4502 C 442.131 1.91895 -0.879747 0
M  V30 4503 O 441.479 2.28389 0.0711423 0
M  V30 4504 C 441.689 1.12409 -3.30402 0
M  V30 4505 C 443.037 1.52724 -3.96182 0
M  V30 4506 O 444.061 1.21784 -3.34734 0
M  V30 4507 O 442.92 2.10265 -5.04431 0
M  V30 4508 H 440.014 0.350707 -0.748955 0
M  V30 4509 H 442.56 -0.0272597 -1.69678 0
M  V30 4510 H 441.332 0.269532 -3.90371 0
M  V30 4511 H 440.955 1.93035 -3.47596 0
M  V30 4512 N 441.952 1.55251 0.271103 0
M  V30 4513 C 443.182 1.79713 1.01916 0
M  V30 4514 C 443.59 0.571613 1.80359 0
M  V30 4515 O 442.933 -0.468853 1.77616 0
M  V30 4516 C 442.995 2.97138 2.02359 0
M  V30 4517 C 442.659 4.34104 1.42837 0
M  V30 4518 C 443.656 5.13019 0.843071 0
M  V30 4519 C 441.341 4.80765 1.455 0
M  V30 4520 C 443.335 6.36729 0.292333 0
M  V30 4521 C 441.022 6.0443 0.900402 0
M  V30 4522 C 442.02 6.8225 0.32007 0
M  V30 4523 O 441.708 8.03582 -0.226031 0
M  V30 4524 H 441.44 0.602431 0.306681 0
M  V30 4525 H 443.994 2.03097 0.306701 0
M  V30 4526 H 442.224 2.6945 2.77369 0
M  V30 4527 H 443.913 3.08907 2.63309 0
M  V30 4528 H 444.679 4.781 0.815178 0
M  V30 4529 H 440.558 4.20202 1.89609 0
M  V30 4530 H 444.102 6.97414 -0.161274 0
M  V30 4531 H 439.999 6.3883 0.925541 0
M  V30 4532 H 440.767 8.18418 -0.115572 0
M  V30 4533 N 443.43 -0.535701 1.48216 0
M  V30 4534 C 444.678 -1.28928 1.55634 0
M  V30 4535 C 444.999 -1.93645 0.229514 0
M  V30 4536 O 444.269 -1.81038 -0.74846 0
M  V30 4537 H 442.849 -0.47884 0.573342 0
M  V30 4538 H 445.511 -0.623853 1.84646 0
M  V30 4539 H 444.607 -2.07157 2.33436 0
M  V30 4540 N 444.908 -1.36708 -0.784132 0
M  V30 4541 C 445.841 -1.25827 -1.90375 0
M  V30 4542 C 446.819 -0.141331 -1.61985 0
M  V30 4543 O 448.003 -0.313389 -1.85877 0
M  V30 4544 C 445.13 -0.942621 -3.25319 0
M  V30 4545 C 444.176 -2.07474 -3.72635 0
M  V30 4546 S 445.009 -3.69317 -3.8777 0
M  V30 4547 C 446.165 -3.39876 -5.25581 0
M  V30 4548 H 446.398 -2.20593 -1.99314 0
M  V30 4549 H 443.931 -1.22186 -0.943926 0
M  V30 4550 H 445.889 -0.767321 -4.03265 0
M  V30 4551 H 444.55 -0.0126566 -3.14097 0
M  V30 4552 H 443.743 -1.80858 -4.70432 0
M  V30 4553 H 443.345 -2.20953 -3.01754 0
M  V30 4554 H 445.637 -2.94097 -6.10339 0
M  V30 4555 H 446.58 -4.36956 -5.57203 0
M  V30 4556 H 446.988 -2.75098 -4.92931 0
M  V30 4557 N 446.386 1.0089 -1.21074 0
M  V30 4558 C 447.626 1.76142 -1.03699 0
M  V30 4559 C 447.99 1.87292 0.422587 0
M  V30 4560 O 449.191 2.59068 0.716752 0
M  V30 4561 C 447.462 3.13805 -1.7106 0
M  V30 4562 S 449.021 4.04996 -1.68889 0
M  V30 4563 H 445.839 0.606113 -0.371683 0
M  V30 4564 H 448.441 1.20744 -1.53756 0
M  V30 4565 H 447.145 3.0332 -2.76451 0
M  V30 4566 H 446.676 3.74276 -1.21166 0
M  V30 4567 H 448.691 4.90842 -0.727211 0
M  V30 4568 N 447.864 1.01787 1.20321 0
M  V30 4569 C 448.797 0.533882 2.21867 0
M  V30 4570 C 449.775 -0.419361 1.57099 0
M  V30 4571 O 450.959 -0.339062 1.85426 0
M  V30 4572 C 448.086 -0.222899 3.37966 0
M  V30 4573 C 447.132 0.680091 4.21043 0
M  V30 4574 S 447.965 2.14997 4.90445 0
M  V30 4575 C 449.121 1.40339 6.09964 0
M  V30 4576 H 449.354 1.39429 2.62577 0
M  V30 4577 H 446.887 0.826867 1.30393 0
M  V30 4578 H 448.845 -0.653425 4.05266 0
M  V30 4579 H 447.506 -1.0589 2.95713 0
M  V30 4580 H 446.699 0.0964704 5.03908 0
M  V30 4581 H 446.301 1.04845 3.59004 0
M  V30 4582 H 448.593 0.68407 6.74038 0
M  V30 4583 H 449.536 2.20823 6.72787 0
M  V30 4584 H 449.944 0.905716 5.57187 0
M  V30 4585 N 449.342 -1.36122 0.79427 0
M  V30 4586 C 450.274 -2.28683 0.153903 0
M  V30 4587 C 451.287 -1.49707 -0.639669 0
M  V30 4588 O 452.476 -1.7209 -0.474054 0
M  V30 4589 C 449.576 -3.29202 -0.804921 0
M  V30 4590 C 448.749 -4.37358 -0.060366 0
M  V30 4591 C 447.808 -5.17811 -0.935849 0
M  V30 4592 O 446.834 -5.67853 -0.391309 0
M  V30 4593 N 448.036 -5.34721 -2.25951 0
M  V30 4594 H 450.801 -2.84278 0.949008 0
M  V30 4595 H 448.362 -1.4834 0.648611 0
M  V30 4596 H 450.354 -3.79914 -1.39455 0
M  V30 4597 H 448.924 -2.74212 -1.50088 0
M  V30 4598 H 448.144 -3.87746 0.710382 0
M  V30 4599 H 449.432 -5.06777 0.45324 0
M  V30 4600 H 448.83 -4.95687 -2.72601 0
M  V30 4601 H 447.387 -5.88657 -2.79867 0
M  V30 4602 N 450.82 -0.546701 -1.47814 0
M  V30 4603 C 451.753 0.254472 -2.26777 0
M  V30 4604 C 452.731 0.929809 -1.33392 0
M  V30 4605 O 453.915 0.950889 -1.62759 0
M  V30 4606 C 451.042 1.36171 -3.10121 0
M  V30 4607 C 450.088 0.796038 -4.19005 0
M  V30 4608 S 450.921 -0.349191 -5.3436 0
M  V30 4609 C 452.077 0.760122 -6.21267 0
M  V30 4610 H 452.31 -0.415612 -2.94381 0
M  V30 4611 H 449.843 -0.332809 -1.5077 0
M  V30 4612 H 451.801 1.99588 -3.58713 0
M  V30 4613 H 450.462 2.00359 -2.41899 0
M  V30 4614 H 449.655 1.62719 -4.7701 0
M  V30 4615 H 449.257 0.238246 -3.7324 0
M  V30 4616 H 451.549 1.65479 -6.5698 0
M  V30 4617 H 452.492 0.217673 -7.07765 0
M  V30 4618 H 452.9 1.04806 -5.54685 0
M  V30 4619 N 452.299 1.55045 -0.282633 0
M  V30 4620 C 453.231 2.2023 0.634924 0
M  V30 4621 C 454.244 1.18931 1.11172 0
M  V30 4622 O 455.433 1.4562 1.03233 0
M  V30 4623 C 452.533 2.82041 1.87899 0
M  V30 4624 C 451.706 4.091 1.54776 0
M  V30 4625 C 450.765 4.54887 2.64507 0
M  V30 4626 O 449.791 5.20496 2.30375 0
M  V30 4627 N 450.993 4.25659 3.94709 0
M  V30 4628 H 453.758 2.99601 0.0769811 0
M  V30 4629 H 451.319 1.61565 -0.104048 0
M  V30 4630 H 453.311 3.09613 2.60619 0
M  V30 4631 H 451.881 2.06618 2.3458 0
M  V30 4632 H 451.101 3.88736 0.654049 0
M  V30 4633 H 452.389 4.9187 1.30158 0
M  V30 4634 H 451.787 3.7306 4.25256 0
M  V30 4635 H 450.344 4.57984 4.63782 0
M  V30 4636 N 453.777 0.010035 1.57597 0
M  V30 4637 C 455.005 -0.683413 1.95287 0
M  V30 4638 C 455.42 -1.66747 0.885481 0
M  V30 4639 O 454.777 -1.82003 -0.134629 0
M  V30 4640 C 454.828 -1.40652 3.33015 0
M  V30 4641 O 454.549 -0.461916 4.35658 0
M  V30 4642 C 456.05 -2.19356 3.85225 0
M  V30 4643 H 453.27 -0.189708 0.643624 0
M  V30 4644 H 455.814 0.0641359 2.04399 0
M  V30 4645 H 453.969 -2.10562 3.2518 0
M  V30 4646 H 454.383 -0.973215 5.15392 0
M  V30 4647 H 455.857 -2.65433 4.83993 0
M  V30 4648 H 456.334 -3.02457 3.18459 0
M  V30 4649 H 456.94 -1.54442 3.96267 0
M  V30 4650 N 455.255 -1.55392 -0.262866 0
M  V30 4651 C 456.666 -1.67079 -0.833158 0
M  V30 4652 C 457.017 -0.604539 -1.86654 0
M  V30 4653 O 456.142 0.252138 -2.14926 0
M  V30 4654 C 456.737 -3.02891 -1.51797 0
M  V30 4655 C 455.296 -3.16571 -2.03617 0
M  V30 4656 C 454.443 -2.62909 -0.881701 0
M  V30 4657 H 457.394 -1.58652 -0.0389986 0
M  V30 4658 H 457.415 -2.96445 -2.38538 0
M  V30 4659 H 456.927 -3.80473 -0.765619 0
M  V30 4660 H 455.028 -2.43782 -2.81782 0
M  V30 4661 H 455.141 -4.23271 -2.24452 0
M  V30 4662 H 453.505 -2.20324 -1.27786 0
M  V30 4663 H 454.288 -3.43003 -0.14269 0
M  V30 4664 N 456.733 0.527833 -1.48498 0
M  V30 4665 C 457.958 1.313 -1.60546 0
M  V30 4666 C 458.383 1.86199 -0.26672 0
M  V30 4667 O 457.741 1.64513 0.761918 0
M  V30 4668 C 457.789 2.43818 -2.65678 0
M  V30 4669 O 456.893 3.46916 -2.22987 0
M  V30 4670 H 456.234 0.388784 -0.538277 0
M  V30 4671 H 458.764 0.634896 -1.945 0
M  V30 4672 H 458.774 2.89973 -2.87018 0
M  V30 4673 H 457.449 2.03222 -3.62869 0
M  V30 4674 H 456.026 3.06864 -2.11869 0
M  V30 4675 N 458.211 1.37122 0.776871 0
M  V30 4676 C 459.141 1.35164 1.90402 0
M  V30 4677 C 460.122 0.221069 1.68657 0
M  V30 4678 O 461.307 0.420642 1.8959 0
M  V30 4679 C 458.437 1.15274 3.27611 0
M  V30 4680 C 457.391 2.25289 3.63908 0
M  V30 4681 C 456.717 1.90527 4.99603 0
M  V30 4682 C 458.017 3.67446 3.71188 0
M  V30 4683 H 459.711 2.29482 1.92297 0
M  V30 4684 H 457.257 1.10465 0.923773 0
M  V30 4685 H 459.21 1.12536 4.06096 0
M  V30 4686 H 457.934 0.174102 3.26136 0
M  V30 4687 H 456.593 2.27174 2.87728 0
M  V30 4688 H 456.241 0.91206 4.94662 0
M  V30 4689 H 455.941 2.64193 5.24858 0
M  V30 4690 H 457.465 1.89367 5.80493 0
M  V30 4691 H 458.879 3.67719 4.39836 0
M  V30 4692 H 457.276 4.40123 4.07936 0
M  V30 4693 H 458.346 4.01443 2.71977 0
M  V30 4694 N 459.689 -1.00246 1.21608 0
M  V30 4695 C 460.937 -1.73717 1.0328 0
M  V30 4696 C 461.258 -1.90102 -0.434318 0
M  V30 4697 O 460.528 -1.45376 -1.31311 0
M  V30 4698 H 459.108 -0.643613 0.379172 0
M  V30 4699 H 461.77 -1.20787 1.52959 0
M  V30 4700 H 460.866 -2.73535 1.50283 0
M  V30 4701 N 461.167 -1.02423 -1.1978 0
M  V30 4702 C 462.444 -0.632802 -1.85081 0
M  V30 4703 C 462.824 0.888745 -1.9148 0
M  V30 4704 O 462.172 1.78357 -1.42832 0
M  V30 4705 C 462.382 -1.28947 -3.24305 0
M  V30 4706 C 463.73 -1.40976 -4.00513 0
M  V30 4707 O 464.754 -1.24628 -3.33686 0
M  V30 4708 O 463.613 -1.67467 -5.20209 0
M  V30 4709 H 460.707 -0.219348 -0.79738 0
M  V30 4710 H 463.253 -1.12209 -1.27307 0
M  V30 4711 H 462.025 -2.3288 -3.14456 0
M  V30 4712 H 461.648 -0.787748 -3.89718 0
M  V30 4713 N 462.645 1.35699 -0.801477 0
M  V30 4714 C 463.593 2.3177 -0.196317 0
M  V30 4715 C 464.587 1.56388 0.651081 0
M  V30 4716 O 465.793 1.71557 0.544815 0
M  V30 4717 H 462.168 0.750669 -0.0447189 0
M  V30 4718 H 464.139 2.8036 -1.02181 0
M  V30 4719 C 462.888 3.41671 0.644702 0
M  V30 4720 H 462.211 3.998 0.0019921 0
M  V30 4721 H 463.651 4.11184 1.0346 0
M  V30 4722 C 462.11 2.84271 1.80808 0
M  V30 4723 O 462.64 2.77408 2.9053 0
M  V30 4724 N 460.846 2.41391 1.61799 0
M  V30 4725 H 460.393 2.47173 0.725493 0
M  V30 4726 H 460.351 2.03334 2.39797 0
M  V30 4727 N 464.123 0.554532 1.47522 0
M  V30 4728 C 465.534 0.120446 1.86311 0
M  V30 4729 C 465.885 -1.30904 1.46145 0
M  V30 4730 O 465.01 -1.98434 0.863294 0
M  V30 4731 C 465.605 0.211808 3.38137 0
M  V30 4732 C 464.164 -0.167224 3.76028 0
M  V30 4733 C 463.311 0.560576 2.71575 0
M  V30 4734 H 466.262 0.764408 1.39077 0
M  V30 4735 H 466.283 -0.570275 3.76202 0
M  V30 4736 H 465.795 1.25232 3.6734 0
M  V30 4737 H 463.896 -1.20894 3.52442 0
M  V30 4738 H 464.009 0.189473 4.78725 0
M  V30 4739 H 462.373 0.00396836 2.547 0
M  V30 4740 H 463.156 1.60219 3.0362 0
M  V30 4741 N 465.601 -1.54893 0.290851 0
M  V30 4742 C 466.548 -2.23138 -0.58974 0
M  V30 4743 C 467.518 -1.21036 -1.13752 0
M  V30 4744 O 468.703 -1.49626 -1.18392 0
M  V30 4745 C 465.843 -2.96811 -1.76061 0
M  V30 4746 C 464.956 -4.13665 -1.24519 0
M  V30 4747 C 464.091 -4.74944 -2.3791 0
M  V30 4748 C 463.13 -5.83963 -1.83451 0
M  V30 4749 N 462.267 -6.39239 -2.90376 0
M  V30 4750 H 467.107 -2.98 -0.00114915 0
M  V30 4751 H 464.644 -1.47096 0.0112006 0
M  V30 4752 H 466.602 -3.37751 -2.44909 0
M  V30 4753 H 465.232 -2.24344 -2.32098 0
M  V30 4754 H 464.284 -3.77737 -0.449288 0
M  V30 4755 H 465.596 -4.92238 -0.806424 0
M  V30 4756 H 464.75 -5.18684 -3.14724 0
M  V30 4757 H 463.489 -3.95682 -2.85109 0
M  V30 4758 H 462.494 -5.39657 -1.05122 0
M  V30 4759 H 463.719 -6.65103 -1.37169 0
M  V30 4760 H 461.665 -5.62864 -3.36927 0
M  V30 4761 H 461.582 -7.13129 -2.50965 0
M  V30 4762 H 462.85 -6.87637 -3.67118 0
M  V30 4763 N 467.08 -0.0183926 -1.57589 0
M  V30 4764 C 468.043 0.951986 -2.08494 0
M  V30 4765 C 469.043 1.26092 -0.997874 0
M  V30 4766 O 470.233 1.20304 -1.25987 0
M  V30 4767 C 467.365 2.27165 -2.54182 0
M  V30 4768 H 468.558 0.511307 -2.95509 0
M  V30 4769 H 466.111 0.229444 -1.54607 0
M  V30 4770 H 466.846 2.75884 -1.70465 0
M  V30 4771 H 466.631 2.06057 -3.33591 0
M  V30 4772 H 468.121 2.9674 -2.93828 0
M  V30 4773 N 468.558 1.5553 0.254621 0
M  V30 4774 C 469.506 1.9048 1.33492 0
M  V30 4775 C 470.5 0.78304 1.50216 0
M  V30 4776 O 471.706 0.967582 1.51782 0
M  V30 4777 H 468.081 0.604846 0.44684 0
M  V30 4778 H 470.052 2.80688 1.01275 0
M  V30 4779 C 468.801 2.20928 2.68489 0
M  V30 4780 H 468.124 3.06742 2.56417 0
M  V30 4781 H 469.564 2.49291 3.42972 0
M  V30 4782 C 468.023 1.023 3.20993 0
M  V30 4783 O 468.553 0.267027 4.00811 0
M  V30 4784 N 466.759 0.815714 2.78917 0
M  V30 4785 H 466.306 1.43217 2.14119 0
M  V30 4786 H 466.264 0.0236532 3.14391 0
M  V30 4787 N 470.036 -0.519951 1.48776 0
M  V30 4788 C 470.966 -1.63253 1.66945 0
M  V30 4789 C 471.947 -1.62014 0.518224 0
M  V30 4790 O 473.132 -1.79053 0.751919 0
M  V30 4791 C 470.262 -3.0181 1.71836 0
M  V30 4792 C 469.216 -3.17911 2.8656 0
M  V30 4793 C 468.542 -4.5763 2.76548 0
M  V30 4794 C 469.842 -2.99729 4.27738 0
M  V30 4795 H 471.536 -1.48302 2.6009 0
M  V30 4796 H 469.082 -0.712026 1.25165 0
M  V30 4797 H 471.035 -3.79525 1.83135 0
M  V30 4798 H 469.759 -3.17806 0.752775 0
M  V30 4799 H 468.418 -2.42616 2.74833 0
M  V30 4800 H 468.066 -4.70476 1.77937 0
M  V30 4801 H 467.766 -4.69346 3.53536 0
M  V30 4802 H 469.29 -5.37431 2.89828 0
M  V30 4803 H 470.704 -3.67228 4.40246 0
M  V30 4804 H 469.101 -3.22932 5.05801 0
M  V30 4805 H 470.171 -1.96047 4.43502 0
M  V30 4806 N 471.514 -1.37532 -0.769588 0
M  V30 4807 C 472.791 -1.23392 -1.51768 0
M  V30 4808 C 473.171 0.17157 -2.10402 0
M  V30 4809 O 472.519 1.17943 -1.95708 0
M  V30 4810 C 472.729 -2.33163 -2.59685 0
M  V30 4811 C 474.077 -2.70809 -3.27028 0
M  V30 4812 O 475.101 -2.32355 -2.69981 0
M  V30 4813 O 473.96 -3.37066 -4.30173 0
M  V30 4814 H 471.054 -0.481617 -0.67229 0
M  V30 4815 H 473.6 -1.49318 -0.806368 0
M  V30 4816 H 472.372 -3.27273 -2.14494 0
M  V30 4817 H 471.995 -2.08713 -3.38415 0
M  V30 4818 N 472.992 0.995999 -1.22138 0
M  V30 4819 C 474.22 1.77066 -1.07029 0
M  V30 4820 C 474.635 1.8495 0.379357 0
M  V30 4821 O 473.992 1.3174 1.26297 0
M  V30 4822 C 474.043 3.20533 -1.67155 0
M  V30 4823 O 473.764 3.13082 -3.06449 0
M  V30 4824 C 475.265 4.14461 -1.5728 0
M  V30 4825 H 472.485 0.556179 -0.375374 0
M  V30 4826 H 475.029 1.25238 -1.61666 0
M  V30 4827 H 473.184 3.6944 -1.16589 0
M  V30 4828 H 473.598 4.03283 -3.35355 0
M  V30 4829 H 475.072 5.1289 -2.04078 0
M  V30 4830 H 475.549 4.36005 -0.528795 0
M  V30 4831 H 476.155 3.71449 -2.07136 0
M  V30 4832 N 474.47 1.03057 1.19235 0
M  V30 4833 C 475.403 0.557384 2.21288 0
M  V30 4834 C 476.381 -0.402675 1.57535 0
M  V30 4835 O 477.565 -0.319376 1.85775 0
M  V30 4836 C 474.692 -0.187041 3.38183 0
M  V30 4837 C 473.738 0.72471 4.20298 0
M  V30 4838 S 474.571 2.20187 4.88137 0
M  V30 4839 C 475.727 1.46801 6.08441 0
M  V30 4840 H 475.96 1.42207 2.61083 0
M  V30 4841 H 473.493 0.840651 1.29508 0
M  V30 4842 H 475.451 -0.610405 4.05936 0
M  V30 4843 H 474.112 -1.02748 2.96819 0
M  V30 4844 H 473.305 0.149911 5.03777 0
M  V30 4845 H 472.907 1.08647 3.57871 0
M  V30 4846 H 475.199 0.755522 6.73274 0
M  V30 4847 H 476.142 2.27946 6.70407 0
M  V30 4848 H 476.55 0.964762 5.56195 0
M  V30 4849 N 475.948 -1.35272 0.808662 0
M  V30 4850 C 477.176 -2.02946 0.402537 0
M  V30 4851 C 477.591 -1.60937 -0.987147 0
M  V30 4852 O 476.948 -0.807917 -1.63643 0
M  V30 4853 C 476.999 -3.58317 0.47868 0
M  V30 4854 O 476.72 -3.98799 1.81358 0
M  V30 4855 C 478.221 -4.43251 0.0656281 0
M  V30 4856 H 475.441 -0.650831 0.163279 0
M  V30 4857 H 477.985 -1.72849 1.09286 0
M  V30 4858 H 476.14 -3.87055 -0.163415 0
M  V30 4859 H 476.554 -4.93451 1.77781 0
M  V30 4860 H 478.028 -5.51738 0.170017 0
M  V30 4861 H 478.505 -4.27913 -0.989278 0
M  V30 4862 H 479.111 -4.19813 0.68096 0
M  V30 4863 N 477.426 -0.562348 -1.47226 0
M  V30 4864 C 478.356 0.170627 -2.32876 0
M  V30 4865 C 479.337 0.903748 -1.44106 0
M  V30 4866 O 480.522 0.883206 -1.72954 0
M  V30 4867 C 477.652 1.19786 -3.25989 0
M  V30 4868 C 476.606 0.580875 -4.2404 0
M  V30 4869 C 475.932 1.71311 -5.06514 0
M  V30 4870 C 477.232 -0.468714 -5.20193 0
M  V30 4871 H 478.926 -0.544441 -2.94408 0
M  V30 4872 H 476.472 -0.263271 -1.41573 0
M  V30 4873 H 478.425 1.71884 -3.84752 0
M  V30 4874 H 477.149 1.94294 -2.62521 0
M  V30 4875 H 475.808 0.0811538 -3.6651 0
M  V30 4876 H 475.456 2.44736 -4.39447 0
M  V30 4877 H 475.156 1.30604 -5.72902 0
M  V30 4878 H 476.68 2.23725 -5.68137 0
M  V30 4879 H 478.094 -0.0336028 -5.7329 0
M  V30 4880 H 476.491 -0.794957 -5.94811 0
M  V30 4881 H 477.561 -1.36269 -4.65359 0
M  V30 4882 N 478.904 1.54736 -0.299062 0
M  V30 4883 C 479.851 2.23448 0.577899 0
M  V30 4884 C 480.821 1.21637 1.13109 0
M  V30 4885 O 482.006 1.50252 1.17597 0
M  V30 4886 C 479.146 2.9774 1.74484 0
M  V30 4887 C 478.259 4.1432 1.22323 0
M  V30 4888 C 477.394 4.76199 2.35388 0
M  V30 4889 C 476.433 5.84927 1.80351 0
M  V30 4890 N 475.57 6.4077 2.86982 0
M  V30 4891 H 480.41 2.97996 -0.0146545 0
M  V30 4892 H 477.947 1.47088 -0.0190013 0
M  V30 4893 H 479.905 3.39045 2.43114 0
M  V30 4894 H 478.535 2.25572 2.30905 0
M  V30 4895 H 477.587 3.7797 0.429249 0
M  V30 4896 H 478.899 4.92659 0.780309 0
M  V30 4897 H 478.053 5.20346 3.11969 0
M  V30 4898 H 476.792 3.97188 2.83006 0
M  V30 4899 H 475.797 5.40207 1.02259 0
M  V30 4900 H 477.022 6.65821 1.3364 0
M  V30 4901 H 474.968 5.64643 3.33938 0
M  V30 4902 H 474.885 7.1445 2.4718 0
M  V30 4903 H 476.153 6.89574 3.63466 0
M  V30 4904 N 480.382 0.0267497 1.57577 0
M  V30 4905 C 481.628 -0.653371 1.91987 0
M  V30 4906 C 481.961 -1.71915 0.903263 0
M  V30 4907 O 481.236 -1.94358 -0.0743387 0
M  V30 4908 C 481.519 -1.272 3.36886 0
M  V30 4909 C 481.372 -0.215938 4.49281 0
M  V30 4910 C 482.691 -2.19069 3.81703 0
M  V30 4911 H 479.81 -0.236047 0.698177 0
M  V30 4912 H 482.452 0.0835236 1.89816 0
M  V30 4913 H 480.602 -1.90005 3.38866 0
M  V30 4914 H 482.274 0.41449 4.59434 0
M  V30 4915 H 480.517 0.458855 4.31366 0
M  V30 4916 H 481.188 -0.688347 5.47691 0
M  V30 4917 H 483.664 -1.66253 3.81444 0
M  V30 4918 H 482.54 -2.59307 4.83788 0
M  V30 4919 H 482.801 -3.08087 3.17072 0
M  V30 4920 N 481.861 -1.55662 -0.24637 0
M  V30 4921 C 483.138 -1.68272 -0.997198 0
M  V30 4922 C 483.518 -0.566785 -2.03349 0
M  V30 4923 O 482.866 0.429688 -2.24424 0
M  V30 4924 C 483.076 -3.08594 -1.63006 0
M  V30 4925 C 484.424 -3.6721 -2.13171 0
M  V30 4926 O 485.448 -3.11397 -1.72946 0
M  V30 4927 O 484.307 -4.65054 -2.87031 0
M  V30 4928 H 481.401 -0.684429 -0.464205 0
M  V30 4929 H 483.947 -1.67993 -0.240114 0
M  V30 4930 H 482.719 -3.81264 -0.880527 0
M  V30 4931 H 482.342 -3.12886 -2.45333 0
M  V30 4932 N 483.339 0.512053 -1.4905 0
M  V30 4933 C 484.587 1.26436 -1.57665 0
M  V30 4934 C 484.908 1.93255 -0.260293 0
M  V30 4935 O 484.178 1.82206 0.719564 0
M  V30 4936 H 482.758 0.469658 -0.580888 0
M  V30 4937 H 485.42 0.594398 -1.85615 0
M  V30 4938 H 484.516 2.03417 -2.36702 0
M  V30 4939 N 484.817 1.37938 0.762283 0
M  V30 4940 C 485.78 1.34279 1.85747 0
M  V30 4941 C 486.78 0.244969 1.58923 0
M  V30 4942 O 487.97 0.501365 1.66829 0
M  V30 4943 C 485.102 1.08833 3.23061 0
M  V30 4944 H 486.295 2.31705 1.90401 0
M  V30 4945 H 483.848 1.23105 0.963057 0
M  V30 4946 H 484.583 0.119767 3.24079 0
M  V30 4947 H 484.368 1.88306 3.43923 0
M  V30 4948 H 485.858 1.08946 4.03138 0
M  V30 4949 N 486.295 -0.989507 1.22664 0
M  V30 4950 C 487.706 -1.54406 1.04955 0
M  V30 4951 C 488.057 -1.92366 -0.385951 0
M  V30 4952 O 487.182 -1.75111 -1.27142 0
M  V30 4953 C 487.777 -2.80578 1.89899 0
M  V30 4954 C 486.336 -3.32464 1.76478 0
M  V30 4955 C 485.483 -2.05524 1.86159 0
M  V30 4956 H 488.434 -0.810211 1.3646 0
M  V30 4957 H 488.455 -3.53075 1.4184 0
M  V30 4958 H 487.967 -2.52918 2.94371 0
M  V30 4959 H 486.068 -3.65024 0.747528 0
M  V30 4960 H 486.181 -4.02838 2.59342 0
M  V30 4961 H 484.545 -2.19241 1.29636 0
M  V30 4962 H 485.328 -1.80258 2.92168 0
M  V30 4963 N 487.773 -1.03688 -1.18687 0
M  V30 4964 C 489.013 -0.746858 -1.90267 0
M  V30 4965 C 489.377 0.712075 -1.78307 0
M  V30 4966 O 490.578 1.11553 -2.44559 0
M  V30 4967 C 488.849 -1.19543 -3.36815 0
M  V30 4968 S 490.408 -1.03047 -4.26529 0
M  V30 4969 H 487.226 -0.271663 -0.657054 0
M  V30 4970 H 489.828 -1.32838 -1.43437 0
M  V30 4971 H 488.532 -2.2527 -3.43047 0
M  V30 4972 H 488.063 -0.607533 -3.88681 0
M  V30 4973 H 490.078 0.0543232 -4.9617 0
M  V30 4974 N 489.251 1.34841 -0.815825 0
M  V30 4975 C 490.161 2.33425 -0.234462 0
M  V30 4976 C 491.177 1.62295 0.627413 0
M  V30 4977 O 492.353 1.94109 0.536987 0
M  V30 4978 C 489.418 3.41471 0.599849 0
M  V30 4979 C 488.479 4.28362 -0.283596 0
M  V30 4980 C 487.712 5.31248 0.51099 0
M  V30 4981 O 487.935 5.43056 1.7449 0
M  V30 4982 O 486.869 6.01812 -0.10297 0
M  V30 4983 H 490.695 2.84962 -1.05024 0
M  V30 4984 H 488.28 1.37774 -0.577809 0
M  V30 4985 H 490.162 4.07464 1.07475 0
M  V30 4986 H 488.837 2.9219 1.39308 0
M  V30 4987 H 487.744 3.65318 -0.805836 0
M  V30 4988 H 489.077 4.81066 -1.041 0
M  V30 4989 N 490.729 0.570148 1.46925 0
M  V30 4990 C 492.145 0.23087 1.57921 0
M  V30 4991 C 492.345 -1.26676 1.56702 0
M  V30 4992 O 491.401 -2.04774 1.47729 0
M  V30 4993 C 492.714 0.868973 2.8787 0
M  V30 4994 C 494.262 0.841397 3.01479 0
M  V30 4995 C 494.737 1.45881 4.34146 0
M  V30 4996 N 496.228 1.42258 4.40814 0
M  V30 4997 C 496.963 1.8698 5.42057 0
M  V30 4998 N 496.459 2.39618 6.50042 0
M  V30 4999 N 498.252 1.77972 5.33181 0
M  V30 5000 H 490.403 1.54301 1.45962 0
M  V30 5001 H 492.666 0.644224 0.69547 0
M  V30 5002 H 492.372 1.922 2.94537 0
M  V30 5003 H 492.246 0.369682 3.75384 0
M  V30 5004 H 494.633 -0.202973 2.94401 0
M  V30 5005 H 494.714 1.37858 2.15474 0
M  V30 5006 H 494.358 2.50231 4.4198 0
M  V30 5007 H 494.288 0.896958 5.18905 0
M  V30 5008 H 496.779 1.03768 3.63374 0
M  V30 5009 H 497.092 2.71633 7.23488 0
M  V30 5010 H 495.437 2.43636 6.50897 0
M  V30 5011 H 498.628 1.36617 4.4772 0
M  V30 5012 H 498.801 2.13143 6.11943 0
M  V30 5013 N 492.207 -1.54576 0.307264 0
M  V30 5014 C 493.618 -1.8579 -0.184121 0
M  V30 5015 C 493.969 -1.22914 -1.52927 0
M  V30 5016 O 493.094 -0.529126 -2.09831 0
M  V30 5017 C 493.689 -3.37081 -0.340862 0
M  V30 5018 C 492.248 -3.68304 -0.776465 0
M  V30 5019 C 491.395 -2.77076 0.111503 0
M  V30 5020 H 494.346 -1.49656 0.528078 0
M  V30 5021 H 494.367 -3.61922 -1.17443 0
M  V30 5022 H 493.879 -3.82815 0.638309 0
M  V30 5023 H 491.98 -3.28092 -1.76596 0
M  V30 5024 H 492.093 -4.75434 -0.591512 0
M  V30 5025 H 490.457 -2.51374 -0.410256 0
M  V30 5026 H 491.24 -3.25632 1.08714 0
M  V30 5027 N 493.685 -0.035106 -1.57561 0
M  V30 5028 C 494.962 0.681212 -1.83354 0
M  V30 5029 C 495.342 1.89986 -0.920252 0
M  V30 5030 O 494.69 2.28489 0.0226815 0
M  V30 5031 C 494.9 1.05376 -3.32712 0
M  V30 5032 C 496.248 1.44286 -3.99333 0
M  V30 5033 O 497.272 1.14656 -3.37242 0
M  V30 5034 O 496.131 1.99518 -5.08778 0
M  V30 5035 H 493.225 0.334741 -0.756226 0
M  V30 5036 H 495.771 -0.0632448 -1.69582 0
M  V30 5037 H 494.543 0.186668 -3.90854 0
M  V30 5038 H 494.166 1.85619 -3.51613 0
M  V30 5039 N 495.163 1.55791 0.238111 0
M  V30 5040 C 496.126 1.90239 1.27835 0
M  V30 5041 C 497.126 0.779552 1.4064 0
M  V30 5042 O 498.316 1.04747 1.3919 0
M  V30 5043 C 495.448 2.13859 2.65475 0
M  V30 5044 H 496.641 2.83262 0.985034 0
M  V30 5045 H 494.194 1.48818 0.477799 0
M  V30 5046 H 494.929 1.23334 2.99932 0
M  V30 5047 H 494.714 2.95643 2.57561 0
M  V30 5048 H 496.204 2.41664 3.40571 0
M  V30 5049 N 496.642 -0.504142 1.49319 0
M  V30 5050 C 497.552 -1.63248 1.68486 0
M  V30 5051 C 498.568 -1.64488 0.567432 0
M  V30 5052 O 499.744 -1.82966 0.841749 0
M  V30 5053 C 496.809 -2.99627 1.74426 0
M  V30 5054 C 495.87 -3.09039 2.97982 0
M  V30 5055 C 495.103 -4.38913 3.0363 0
M  V30 5056 O 495.326 -5.27528 2.16958 0
M  V30 5057 O 494.26 -4.53231 3.96062 0
M  V30 5058 H 498.086 -1.50008 2.64067 0
M  V30 5059 H 495.671 -0.680086 1.33023 0
M  V30 5060 H 497.553 -3.80689 1.80705 0
M  V30 5061 H 496.228 -3.13136 0.820233 0
M  V30 5062 H 495.135 -2.27177 2.97223 0
M  V30 5063 H 496.468 -3.00456 3.89855 0
M  V30 5064 N 498.12 -1.38341 -0.754957 0
M  V30 5065 C 499.366 -1.34672 -1.51628 0
M  V30 5066 C 499.699 0.0636036 -1.94096 0
M  V30 5067 O 498.974 1.0245 -1.6533 0
M  V30 5068 C 499.257 -2.30116 -2.76981 0
M  V30 5069 C 499.11 -3.80003 -2.4066 0
M  V30 5070 C 500.429 -2.23715 -3.78998 0
M  V30 5071 H 497.548 -0.490517 -0.550056 0
M  V30 5072 H 500.19 -1.69178 -0.864807 0
M  V30 5073 H 498.34 -2.00821 -3.3257 0
M  V30 5074 H 500.012 -4.19966 -1.90856 0
M  V30 5075 H 498.255 -3.97751 -1.73137 0
M  V30 5076 H 498.926 -4.42244 -3.30339 0
M  V30 5077 H 501.402 -2.49574 -3.32945 0
M  V30 5078 H 500.278 -2.9261 -4.64403 0
M  V30 5079 H 500.539 -1.23554 -4.24484 0
M  V30 5080 N 499.598 0.982988 -1.23187 0
M  V30 5081 C 500.53 2.07729 -0.968572 0
M  V30 5082 C 501.543 1.62702 0.0564821 0
M  V30 5083 O 502.732 1.77603 -0.178733 0
M  V30 5084 C 499.832 3.36071 -0.436974 0
M  V30 5085 C 499.005 4.10081 -1.52159 0
M  V30 5086 C 498.064 5.16701 -0.99532 0
M  V30 5087 O 497.09 5.43727 -1.68373 0
M  V30 5088 N 498.292 5.80226 0.178192 0
M  V30 5089 H 501.057 2.30894 -1.9107 0
M  V30 5090 H 498.618 1.14949 -1.1401 0
M  V30 5091 H 500.61 4.04639 -0.0700051 0
M  V30 5092 H 499.18 3.09893 0.410509 0
M  V30 5093 H 498.4 3.36004 -2.06144 0
M  V30 5094 H 499.688 4.56295 -2.25105 0
M  V30 5095 H 499.086 5.60651 0.754096 0
M  V30 5096 H 497.643 6.49982 0.486449 0
M  V30 5097 N 501.076 1.04316 1.18135 0
M  V30 5098 C 502.301 0.768047 1.92655 0
M  V30 5099 C 502.726 -0.66904 1.758 0
M  V30 5100 O 502.084 -1.46372 1.06981 0
M  V30 5101 C 502.132 1.14239 3.42026 0
M  V30 5102 O 501.236 0.269333 4.1152 0
M  V30 5103 H 500.577 0.282436 0.600937 0
M  V30 5104 H 503.107 1.39367 1.49793 0
M  V30 5105 H 503.117 1.10538 3.92741 0
M  V30 5106 H 501.792 2.18928 3.53615 0
M  V30 5107 H 500.369 0.366175 3.71098 0
M  V30 5108 N 502.554 -1.34406 0.822964 0
M  V30 5109 C 503.517 -2.2783 0.250271 0
M  V30 5110 C 504.517 -1.50288 -0.571854 0
M  V30 5111 O 505.707 -1.69825 -0.387952 0
M  V30 5112 C 502.839 -3.34663 -0.649137 0
M  V30 5113 H 504.032 -2.79992 1.07444 0
M  V30 5114 H 501.585 -1.44539 0.594829 0
M  V30 5115 H 502.32 -2.87714 -1.49637 0
M  V30 5116 H 502.105 -3.92052 -0.0611199 0
M  V30 5117 H 503.595 -4.04349 -1.04363 0
M  V30 5118 N 504.032 -0.577932 -1.46621 0
M  V30 5119 C 504.995 0.147805 -2.28723 0
M  V30 5120 C 505.995 0.823325 -1.38123 0
M  V30 5121 O 507.185 0.676011 -1.60548 0
M  V30 5122 C 504.317 1.21853 -3.18378 0
M  V30 5123 H 505.51 -0.573654 -2.94362 0
M  V30 5124 H 503.063 -0.335703 -1.52652 0
M  V30 5125 H 503.798 1.97173 -2.57475 0
M  V30 5126 H 503.583 0.738714 -3.85078 0
M  V30 5127 H 505.073 1.72768 -3.80186 0
M  V30 5128 N 505.51 1.54411 -0.315457 0
M  V30 5129 C 506.738 2.04833 0.291738 0
M  V30 5130 C 507.153 1.19203 1.46411 0
M  V30 5131 O 506.51 0.220867 1.81159 0
M  V30 5132 C 506.561 3.53969 0.73404 0
M  V30 5133 O 506.282 4.36346 -0.391682 0
M  V30 5134 C 507.783 4.2045 1.40489 0
M  V30 5135 H 505.003 0.668195 0.0612947 0
M  V30 5136 H 507.547 1.99276 -0.45929 0
M  V30 5137 H 505.702 3.5984 1.43506 0
M  V30 5138 H 506.116 5.24481 -0.0447088 0
M  V30 5139 H 507.59 5.26278 1.66539 0
M  V30 5140 H 508.067 3.71067 2.3496 0
M  V30 5141 H 508.673 4.18694 0.746662 0
M  V30 5142 N 506.988 0.0434614 1.5754 0
M  V30 5143 C 507.938 -0.943039 2.07583 0
M  V30 5144 C 508.922 -1.27662 0.979342 0
M  V30 5145 O 510.114 -1.26034 1.24276 0
M  V30 5146 C 507.243 -2.22056 2.61813 0
M  V30 5147 C 506.329 -1.91471 3.78417 0
M  V30 5148 N 506.72 -1.31214 4.88484 0
M  V30 5149 C 505.018 -2.21384 3.87176 0
M  V30 5150 C 505.719 -1.18084 5.69588 0
M  V30 5151 N 504.695 -1.68116 5.16951 0
M  V30 5152 H 508.497 -0.472354 2.90079 0
M  V30 5153 H 506.011 -0.161191 1.61598 0
M  V30 5154 H 508.008 -2.93618 2.95963 0
M  V30 5155 H 506.668 -2.69738 1.80752 0
M  V30 5156 H 507.679 -0.985318 5.08441 0
M  V30 5157 H 504.356 -2.7164 3.17046 0
M  V30 5158 H 505.746 -0.713684 6.68099 0
M  V30 5159 N 508.466 -1.55915 -0.229846 0
M  V30 5160 C 509.396 -1.94754 -1.28815 0
M  V30 5161 C 510.377 -0.814657 -1.49323 0
M  V30 5162 O 511.562 -1.07631 -1.61645 0
M  V30 5163 C 508.692 -2.25705 -2.63959 0
M  V30 5164 C 507.646 -3.41406 -2.5812 0
M  V30 5165 C 506.972 -3.57941 -3.97218 0
M  V30 5166 C 508.272 -4.76616 -2.13623 0
M  V30 5167 H 509.966 -2.83404 -0.965547 0
M  V30 5168 H 507.512 -1.36353 -0.463028 0
M  V30 5169 H 509.465 -2.51467 -3.38146 0
M  V30 5170 H 508.189 -1.339 -2.9789 0
M  V30 5171 H 506.848 -3.1568 -1.86391 0
M  V30 5172 H 506.496 -2.63526 -4.28443 0
M  V30 5173 H 506.196 -4.35757 -3.94195 0
M  V30 5174 H 507.72 -3.86042 -4.73079 0
M  V30 5175 H 509.134 -5.01637 -2.77549 0
M  V30 5176 H 507.531 -5.57655 -2.21677 0
M  V30 5177 H 508.601 -4.7253 -1.08829 0
M  V30 5178 N 509.944 0.496216 -1.49584 0
M  V30 5179 C 510.894 1.59422 -1.62999 0
M  V30 5180 C 511.878 1.53402 -0.485457 0
M  V30 5181 O 513.07 1.60851 -0.738649 0
M  V30 5182 C 510.199 2.98009 -1.70427 0
M  V30 5183 C 509.285 3.09008 -2.90473 0
M  V30 5184 N 509.676 2.89884 -4.14489 0
M  V30 5185 C 507.974 3.40115 -2.8851 0
M  V30 5186 C 508.675 3.0519 -4.95211 0
M  V30 5187 N 507.651 3.3428 -4.2867 0
M  V30 5188 H 511.453 1.43297 -2.56599 0
M  V30 5189 H 508.967 0.702443 -1.46422 0
M  V30 5190 H 510.964 3.76926 -1.78136 0
M  V30 5191 H 509.624 3.152 -0.77967 0
M  V30 5192 H 510.635 2.65963 -4.44392 0
M  V30 5193 H 507.312 3.63452 -2.05448 0
M  V30 5194 H 508.702 2.94856 -6.03746 0
M  V30 5195 N 511.423 1.38739 0.74761 0
M  V30 5196 C 512.386 1.36241 1.84312 0
M  V30 5197 C 513.386 0.261811 1.58654 0
M  V30 5198 O 514.576 0.519031 1.66288 0
M  V30 5199 C 511.708 1.12253 3.21888 0
M  V30 5200 H 512.901 2.33712 1.87933 0
M  V30 5201 H 510.454 1.2412 0.949946 0
M  V30 5202 H 511.189 0.154133 3.23934 0
M  V30 5203 H 510.974 1.91943 3.41907 0
M  V30 5204 H 512.464 1.13215 4.0196 0
M  V30 5205 N 512.901 -0.976442 1.23707 0
M  V30 5206 C 514.149 -1.71487 1.06942 0
M  V30 5207 C 514.47 -1.9098 -0.393897 0
M  V30 5208 O 513.74 -1.48128 -1.28198 0
M  V30 5209 H 512.32 -0.635425 0.392739 0
M  V30 5210 H 514.982 -1.17515 1.55487 0
M  V30 5211 H 514.078 -2.70286 1.56051 0
M  V30 5212 N 514.379 -1.04941 -1.1758 0
M  V30 5213 C 515.289 -0.658826 -2.25159 0
M  V30 5214 C 516.305 0.318941 -1.71052 0
M  V30 5215 O 517.481 0.171669 -2.00667 0
M  V30 5216 C 514.546 -0.0369522 -3.4668 0
M  V30 5217 C 513.607 -1.06484 -4.15884 0
M  V30 5218 C 512.84 -0.472551 -5.31604 0
M  V30 5219 O 513.063 0.718736 -5.65854 0
M  V30 5220 O 511.997 -1.20557 -5.89703 0
M  V30 5221 H 515.823 -1.55533 -2.60851 0
M  V30 5222 H 513.408 -0.820819 -1.24832 0
M  V30 5223 H 515.29 0.308784 -4.20267 0
M  V30 5224 H 513.965 0.833238 -3.12792 0
M  V30 5225 H 512.872 -1.46253 -3.44327 0
M  V30 5226 H 514.205 -1.9061 -4.53794 0
M  V30 5227 N 515.857 1.33968 -0.830081 0
M  V30 5228 C 516.82 2.27694 -0.26235 0
M  V30 5229 C 517.82 1.50589 0.563876 0
M  V30 5230 O 519.01 1.70028 0.378941 0
M  V30 5231 C 516.142 3.35002 0.63138 0
M  V30 5232 H 517.335 2.79419 -1.08928 0
M  V30 5233 H 514.888 1.44221 -0.602486 0
M  V30 5234 H 515.623 2.88504 1.48109 0
M  V30 5235 H 515.408 3.92079 0.0403276 0
M  V30 5236 H 516.898 4.04897 1.02217 0
M  V30 5237 N 517.335 0.585699 1.46312 0
M  V30 5238 C 518.298 -0.135673 2.28798 0
M  V30 5239 C 519.298 -0.815988 1.38558 0
M  V30 5240 O 520.488 -0.667487 1.60904 0
M  V30 5241 C 517.62 -1.20163 3.1902 0
M  V30 5242 H 518.813 0.589257 2.94054 0
M  V30 5243 H 516.366 0.343794 1.52472 0
M  V30 5244 H 517.101 -1.95804 2.58517 0
M  V30 5245 H 516.886 -0.718282 3.85465 0
M  V30 5246 H 518.376 -1.70749 3.81096 0
M  V30 5247 N 518.813 -1.54241 0.323641 0
M  V30 5248 C 520.041 -2.04985 -0.280871 0
M  V30 5249 C 520.456 -1.19978 -1.45777 0
M  V30 5250 O 519.813 -0.230471 -1.81039 0
M  V30 5251 C 519.864 -3.54353 -0.715258 0
M  V30 5252 O 519.585 -4.36132 0.414817 0
M  V30 5253 C 521.086 -4.21189 -1.38257 0
M  V30 5254 H 518.306 -0.66851 -0.0577502 0
M  V30 5255 H 520.85 -1.99029 0.469852 0
M  V30 5256 H 519.005 -3.60596 -1.41596 0
M  V30 5257 H 519.419 -5.2445 0.0725227 0
M  V30 5258 H 520.893 -5.27154 -1.63745 0
M  V30 5259 H 521.37 -3.72307 -2.32989 0
M  V30 5260 H 521.976 -4.19085 -0.724447 0
M  V30 5261 N 520.291 -0.0518155 -1.57515 0
M  V30 5262 C 521.537 0.622745 -1.93002 0
M  V30 5263 C 521.87 1.70456 -0.930499 0
M  V30 5264 O 521.145 1.94452 0.0434086 0
M  V30 5265 C 521.428 1.21824 -3.38867 0
M  V30 5266 C 521.281 0.144434 -4.49568 0
M  V30 5267 C 522.6 2.12968 -3.8514 0
M  V30 5268 H 519.719 0.22491 -0.701844 0
M  V30 5269 H 522.361 -0.113711 -1.89659 0
M  V30 5270 H 520.511 1.8459 -3.41846 0
M  V30 5271 H 522.183 -0.48753 -4.58717 0
M  V30 5272 H 520.426 -0.527424 -4.30582 0
M  V30 5273 H 521.097 0.601127 -5.48717 0
M  V30 5274 H 523.573 1.60163 -3.8404 0
M  V30 5275 H 522.449 2.51578 -4.87852 0
M  V30 5276 H 522.71 3.03004 -3.21934 0
M  V30 5277 N 521.769 1.56035 0.221574 0
M  V30 5278 C 522.999 1.82864 0.961468 0
M  V30 5279 C 523.407 0.628703 1.78449 0
M  V30 5280 O 522.75 -0.412109 1.79018 0
M  V30 5281 C 522.812 3.03425 1.92804 0
M  V30 5282 C 522.476 4.38429 1.28954 0
M  V30 5283 C 523.473 5.15441 0.679431 0
M  V30 5284 C 521.158 4.85151 1.30131 0
M  V30 5285 C 523.152 6.37337 0.0896148 0
M  V30 5286 C 520.839 6.06989 0.707651 0
M  V30 5287 C 521.837 6.82923 0.102855 0
M  V30 5288 O 521.525 8.02456 -0.48157 0
M  V30 5289 H 521.257 0.611883 0.28736 0
M  V30 5290 H 523.811 2.0397 0.241932 0
M  V30 5291 H 522.041 2.78138 2.68656 0
M  V30 5292 H 523.73 3.17127 2.53348 0
M  V30 5293 H 524.496 4.80452 0.662661 0
M  V30 5294 H 520.375 4.26021 1.76145 0
M  V30 5295 H 523.919 6.96547 -0.383069 0
M  V30 5296 H 519.816 6.41451 0.721834 0
M  V30 5297 H 520.584 8.17636 -0.375887 0
M  V30 5298 N 523.247 -0.488276 1.49845 0
M  V30 5299 C 524.494 -1.24157 1.59973 0
M  V30 5300 C 524.822 -1.92293 0.292182 0
M  V30 5301 O 524.077 -1.81942 -0.720813 0
M  V30 5302 C 524.376 -2.32152 2.71735 0
M  V30 5303 C 524.042 -1.81387 4.12807 0
M  V30 5304 C 522.704 -1.67262 4.51195 0
M  V30 5305 C 525.056 -1.43537 5.01045 0
M  V30 5306 C 522.384 -1.13685 5.7558 0
M  V30 5307 C 524.736 -0.914081 6.25961 0
M  V30 5308 C 523.4 -0.759327 6.63167 0
M  V30 5309 H 522.67 -0.454322 0.585383 0
M  V30 5310 H 525.317 -0.540261 1.83721 0
M  V30 5311 H 523.622 -3.08122 2.42008 0
M  V30 5312 H 525.319 -2.90164 2.76778 0
M  V30 5313 H 521.909 -1.93344 3.82513 0
M  V30 5314 H 526.093 -1.53292 4.72033 0
M  V30 5315 H 521.349 -1.00426 6.03096 0
M  V30 5316 H 525.523 -0.612066 6.93705 0
M  V30 5317 H 523.15 -0.342002 7.5943 0
M  V30 5318 N 524.725 -1.39134 -0.740242 0
M  V30 5319 C 525.672 -1.37434 -1.8542 0
M  V30 5320 C 526.642 -0.234822 -1.64432 0
M  V30 5321 O 527.827 -0.429125 -1.85912 0
M  V30 5322 C 524.967 -1.21844 -3.22875 0
M  V30 5323 C 524.08 -2.45296 -3.55603 0
M  V30 5324 C 523.215 -2.22334 -4.82432 0
M  V30 5325 C 522.254 -3.41488 -5.07988 0
M  V30 5326 N 521.391 -3.17877 -6.26018 0
M  V30 5327 H 526.231 -2.3266 -1.86207 0
M  V30 5328 H 523.768 -1.15578 -0.909946 0
M  V30 5329 H 525.726 -1.10818 -4.02213 0
M  V30 5330 H 524.356 -0.3025 -3.21379 0
M  V30 5331 H 523.408 -2.66945 -2.71006 0
M  V30 5332 H 524.72 -3.34063 -3.7041 0
M  V30 5333 H 523.874 -2.0852 -5.69741 0
M  V30 5334 H 522.613 -1.30954 -4.6979 0
M  V30 5335 H 521.618 -3.55807 -4.19144 0
M  V30 5336 H 522.843 -4.33763 -5.22519 0
M  V30 5337 H 520.789 -2.29156 -6.14673 0
M  V30 5338 H 520.706 -4.00198 -6.41387 0
M  V30 5339 H 521.974 -3.07746 -7.16179 0
M  V30 5340 N 526.204 0.969867 -1.24223 0
M  V30 5341 C 527.429 1.75289 -1.10853 0
M  V30 5342 C 527.854 1.85091 0.335079 0
M  V30 5343 O 527.212 1.32024 1.24255 0
M  V30 5344 C 527.26 3.15255 -1.75062 0
M  V30 5345 O 526.364 3.99589 -1.01992 0
M  V30 5346 H 525.705 0.538904 -0.387915 0
M  V30 5347 H 528.235 1.21675 -1.64488 0
M  V30 5348 H 528.245 3.65787 -1.80731 0
M  V30 5349 H 526.92 3.07436 -2.801 0
M  V30 5350 H 525.497 3.58077 -1.04094 0
M  V30 5351 N 527.682 1.05563 1.17022 0
M  V30 5352 C 528.93 0.76642 1.87004 0
M  V30 5353 C 529.251 -0.708854 1.8166 0
M  V30 5354 O 528.521 -1.51242 1.2451 0
M  V30 5355 H 527.101 0.280516 0.692329 0
M  V30 5356 H 529.763 1.33557 1.41945 0
M  V30 5357 H 528.859 1.08472 2.92644 0
M  V30 5358 N 529.16 -1.33526 0.837174 0
M  V30 5359 C 530.576 -1.50727 0.524743 0
M  V30 5360 C 530.776 -1.77792 -0.948279 0
M  V30 5361 O 529.832 -1.83719 -1.73216 0
M  V30 5362 C 531.145 -2.66299 1.39661 0
M  V30 5363 C 532.693 -2.80183 1.39521 0
M  V30 5364 C 533.168 -3.98815 2.25189 0
M  V30 5365 N 534.659 -4.06047 2.2289 0
M  V30 5366 C 535.394 -4.97032 2.85915 0
M  V30 5367 N 534.89 -5.93143 3.57985 0
M  V30 5368 N 536.683 -4.90015 2.75394 0
M  V30 5369 H 528.834 -1.1422 1.79074 0
M  V30 5370 H 531.097 -0.561399 0.763894 0
M  V30 5371 H 530.803 -2.52974 2.4433 0
M  V30 5372 H 530.677 -3.61663 1.07145 0
M  V30 5373 H 533.064 -2.92942 0.356253 0
M  V30 5374 H 533.145 -1.85586 1.76044 0
M  V30 5375 H 532.789 -3.86817 3.29143 0
M  V30 5376 H 532.719 -4.92654 1.86009 0
M  V30 5377 H 535.21 -3.37262 1.70478 0
M  V30 5378 H 535.523 -6.59227 4.03286 0
M  V30 5379 H 533.868 -5.93223 3.62093 0
M  V30 5380 H 537.059 -4.13894 2.18654 0
M  V30 5381 H 537.232 -5.60724 3.24796 0
M  V30 5382 N 530.638 -0.59345 -1.46 0
M  V30 5383 C 531.884 -0.0832754 -2.02629 0
M  V30 5384 C 532.217 1.27749 -1.46266 0
M  V30 5385 O 531.492 1.8395 -0.631866 0
M  V30 5386 C 531.775 -0.0290756 -3.60088 0
M  V30 5387 C 531.628 -1.41951 -4.26814 0
M  V30 5388 C 532.947 0.666055 -4.35031 0
M  V30 5389 H 530.066 -0.031736 -0.736316 0
M  V30 5390 H 532.708 -0.762711 -1.74019 0
M  V30 5391 H 530.858 0.549532 -3.84594 0
M  V30 5392 H 532.53 -2.04411 -4.13538 0
M  V30 5393 H 530.773 -1.98422 -3.8576 0
M  V30 5394 H 531.444 -1.33395 -5.3564 0
M  V30 5395 H 533.92 0.174401 -4.15734 0
M  V30 5396 H 532.796 0.673041 -5.44758 0
M  V30 5397 H 533.057 1.72946 -4.06869 0
M  V30 5398 N 532.116 1.54067 -0.331816 0
M  V30 5399 C 533.362 2.01012 0.268667 0
M  V30 5400 C 533.695 1.2195 1.51136 0
M  V30 5401 O 532.97 0.303972 1.9211 0
M  V30 5402 C 533.253 3.55158 0.59456 0
M  V30 5403 C 533.106 4.4494 -0.659409 0
M  V30 5404 C 534.425 4.16939 1.4089 0
M  V30 5405 H 531.544 0.730698 0.0961756 0
M  V30 5406 H 534.186 1.84593 -0.450031 0
M  V30 5407 H 532.336 3.6928 1.20685 0
M  V30 5408 H 534.008 4.42675 -1.29756 0
M  V30 5409 H 532.251 4.1428 -1.28665 0
M  V30 5410 H 532.922 5.50643 -0.386804 0
M  V30 5411 H 535.398 4.06443 0.891272 0
M  V30 5412 H 534.274 5.24889 1.60569 0
M  V30 5413 H 534.535 3.70798 2.40752 0
M  V30 5414 N 533.594 0.0601682 1.57485 0
M  V30 5415 C 534.822 -0.620937 1.97363 0
M  V30 5416 C 535.237 -1.63846 0.938082 0
M  V30 5417 O 534.594 -1.82339 -0.0766578 0
M  V30 5418 C 534.645 -1.29987 3.37321 0
M  V30 5419 O 534.366 -0.323081 4.36907 0
M  V30 5420 C 535.867 -2.06989 3.92008 0
M  V30 5421 H 533.087 -0.169135 0.649334 0
M  V30 5422 H 535.631 0.129132 2.04092 0
M  V30 5423 H 533.786 -2.0011 3.31715 0
M  V30 5424 H 534.2 -0.808754 5.18227 0
M  V30 5425 H 535.674 -2.49901 4.92192 0
M  V30 5426 H 536.151 -2.92173 3.2792 0
M  V30 5427 H 536.757 -1.41757 4.0098 0
M  V30 5428 N 535.072 -1.5615 -0.213296 0
M  V30 5429 C 536.321 -1.78743 -0.93455 0
M  V30 5430 C 536.634 -0.630199 -1.8517 0
M  V30 5431 O 537.84 -0.739966 -2.61222 0
M  V30 5432 C 536.296 -3.16571 -1.71203 0
M  V30 5433 C 535.904 -4.40043 -0.840617 0
M  V30 5434 C 537.648 -3.48485 -2.42401 0
M  V30 5435 C 535.555 -5.68895 -1.61592 0
M  V30 5436 H 534.485 -0.666426 -0.352692 0
M  V30 5437 H 537.136 -1.82532 -0.188227 0
M  V30 5438 H 535.518 -3.06981 -2.50157 0
M  V30 5439 H 536.692 -4.6071 -0.0910326 0
M  V30 5440 H 535.007 -4.15706 -0.240365 0
M  V30 5441 H 537.604 -4.41983 -3.00924 0
M  V30 5442 H 537.947 -2.71371 -3.15695 0
M  V30 5443 H 538.48 -3.59442 -1.7043 0
M  V30 5444 H 535.219 -6.48925 -0.926106 0
M  V30 5445 H 534.739 -5.52275 -2.33991 0
M  V30 5446 H 536.418 -6.09365 -2.17447 0
M  V30 5447 N 536.55 0.480323 -1.50102 0
M  V30 5448 C 537.46 1.60547 -1.71061 0
M  V30 5449 C 538.476 1.63564 -0.593529 0
M  V30 5450 O 539.652 1.81604 -0.870751 0
M  V30 5451 C 536.717 2.96814 -1.79171 0
M  V30 5452 C 535.778 3.04259 -3.02861 0
M  V30 5453 C 535.011 4.34027 -3.10574 0
M  V30 5454 O 535.234 5.24009 -2.25323 0
M  V30 5455 O 534.168 4.46873 -4.03223 0
M  V30 5456 H 537.994 1.45788 -2.6642 0
M  V30 5457 H 535.579 0.658838 -1.34088 0
M  V30 5458 H 537.461 3.77765 -1.86738 0
M  V30 5459 H 536.136 3.11791 -0.869947 0
M  V30 5460 H 535.043 2.22419 -3.008 0
M  V30 5461 H 536.376 2.94216 -3.94586 0
M  V30 5462 N 538.028 1.39524 0.732853 0
M  V30 5463 C 539.274 1.37068 1.49467 0
M  V30 5464 C 539.607 -0.0327166 1.94172 0
M  V30 5465 O 538.882 -0.998071 1.66939 0
M  V30 5466 C 539.165 2.34494 2.73285 0
M  V30 5467 C 539.018 3.83784 2.34585 0
M  V30 5468 C 540.337 2.29717 3.75391 0
M  V30 5469 H 537.456 0.499206 0.542183 0
M  V30 5470 H 540.098 1.70532 0.837783 0
M  V30 5471 H 538.248 2.06087 3.29333 0
M  V30 5472 H 539.92 4.22949 1.84151 0
M  V30 5473 H 538.163 4.00455 1.66787 0
M  V30 5474 H 538.834 4.47444 3.23262 0
M  V30 5475 H 541.31 2.54839 3.28932 0
M  V30 5476 H 540.186 2.99962 4.59689 0
M  V30 5477 H 540.447 1.30291 4.22465 0
M  V30 5478 N 539.506 -0.963266 1.24736 0
M  V30 5479 C 540.917 -1.52145 1.08207 0
M  V30 5480 C 541.268 -1.93142 -0.345061 0
M  V30 5481 O 540.393 -1.77769 -1.23399 0
M  V30 5482 C 540.988 -2.76486 1.95808 0
M  V30 5483 C 539.547 -3.28646 1.8349 0
M  V30 5484 C 538.694 -2.01529 1.90476 0
M  V30 5485 H 541.645 -0.781083 1.38148 0
M  V30 5486 H 541.666 -3.49986 1.49297 0
M  V30 5487 H 541.178 -2.46617 2.99669 0
M  V30 5488 H 539.279 -3.63357 0.824787 0
M  V30 5489 H 539.392 -3.97246 2.67829 0
M  V30 5490 H 537.756 -2.16442 1.34258 0
M  V30 5491 H 538.539 -1.7402 2.95926 0
M  V30 5492 N 540.985 -1.06182 -1.16461 0
M  V30 5493 C 541.948 -0.675723 -2.19013 0
M  V30 5494 C 542.948 0.277963 -1.58379 0
M  V30 5495 O 544.138 0.0604962 -1.74095 0
M  V30 5496 C 541.27 0.00591459 -3.40899 0
M  V30 5497 H 542.463 -1.58353 -2.54685 0
M  V30 5498 H 540.016 -0.856908 -1.30716 0
M  V30 5499 H 540.751 0.92652 -3.10783 0
M  V30 5500 H 540.536 -0.67984 -3.86161 0
M  V30 5501 H 542.026 0.26181 -4.16778 0
M  V30 5502 N 542.463 1.3308 -0.844243 0
M  V30 5503 C 543.709 1.97898 -0.443206 0
M  V30 5504 C 544.042 1.66699 0.99625 0
M  V30 5505 O 543.317 0.949704 1.69738 0
M  V30 5506 C 543.6 3.53801 -0.670606 0
M  V30 5507 C 543.453 3.94667 -2.15772 0
M  V30 5508 C 544.772 4.39936 -0.120226 0
M  V30 5509 H 541.891 0.718861 -0.162504 0
M  V30 5510 H 544.533 1.57633 -1.06075 0
M  V30 5511 H 542.683 3.88229 -0.14496 0
M  V30 5512 H 544.355 3.70469 -2.74865 0
M  V30 5513 H 542.598 3.44203 -2.6402 0
M  V30 5514 H 543.269 5.03275 -2.26757 0
M  V30 5515 H 545.745 4.12183 -0.5696 0
M  V30 5516 H 544.621 5.4803 -0.308984 0
M  V30 5517 H 544.882 4.31184 0.976347 0
M  V30 5518 N 543.941 0.601185 1.45683 0
M  V30 5519 C 545.352 0.179659 1.85834 0
M  V30 5520 C 545.703 -1.26189 1.50236 0
M  V30 5521 O 544.828 -1.95587 0.925987 0
M  V30 5522 C 545.423 0.319277 3.37292 0
M  V30 5523 C 543.982 -0.0475092 3.7637 0
M  V30 5524 C 543.129 0.646692 2.69654 0
M  V30 5525 H 546.08 0.808268 1.36575 0
M  V30 5526 H 546.101 -0.4503 3.77826 0
M  V30 5527 H 545.613 1.36855 3.6317 0
M  V30 5528 H 543.714 -1.0962 3.5611 0
M  V30 5529 H 543.827 0.34168 4.7788 0
M  V30 5530 H 542.191 0.0849971 2.54558 0
M  V30 5531 H 542.974 1.69797 2.98369 0
M  V30 5532 N 545.419 -1.53889 0.339982 0
M  V30 5533 C 546.367 -2.26391 -0.533822 0
M  V30 5534 C 547.361 -1.28404 -1.10493 0
M  V30 5535 O 548.567 -1.46124 -1.05108 0
M  V30 5536 H 544.942 -0.727385 -0.190828 0
M  V30 5537 H 546.913 -2.98233 0.0997484 0
M  V30 5538 C 545.662 -3.04707 -1.67479 0
M  V30 5539 H 544.985 -3.79934 -1.2446 0
M  V30 5540 H 546.425 -3.58657 -2.26144 0
M  V30 5541 C 544.884 -2.13989 -2.60212 0
M  V30 5542 O 545.414 -1.73361 -3.62366 0
M  V30 5543 N 543.62 -1.79141 -2.28816 0
M  V30 5544 H 543.167 -2.12378 -1.45785 0
M  V30 5545 H 543.125 -1.18725 -2.91121 0
M  V30 5546 O 546.936 -0.208127 -1.60153 0
M  V30 5547 H 547.627 0.374888 -1.90038 0
M  V30 END ATOM
M  V30 BEGIN BOND
M  V30 END BOND
M  V30 END CTAB
M  END
$$$$
