drugbank_target|Q7KQK0 cAMP-dependent protein kinase regulatory subunit (DB11638)
 OpenBabel12092121123D

  0  0  0     0  0            999 V3000
M  V30 BEGIN CTAB
M  V30 COUNTS 7166 7219 0 0 0
M  V30 BEGIN ATOM
M  V30 1 H -0.908 1.98254 -0.117106 0
M  V30 2 N 0 1.576 0 0
M  V30 3 C 0.933 2.03868 1.02534 0
M  V30 4 C 1.911 0.928543 1.3348 0
M  V30 5 O 3.095 1.19667 1.45644 0
M  V30 6 C 0.222 2.43627 2.35294 0
M  V30 7 C -0.732 3.65373 2.2001 0
M  V30 8 S 0.101 5.13292 1.52614 0
M  V30 9 C 1.257 5.56322 2.86805 0
M  V30 10 H 1.49 2.90518 0.631377 0
M  V30 11 H -0.977 1.52953 0.210867 0
M  V30 12 H 0.981 2.67203 3.11629 0
M  V30 13 H -0.358 1.57376 2.7183 0
M  V30 14 H -1.165 3.90944 3.18086 0
M  V30 15 H -1.563 3.418 1.51819 0
M  V30 16 H 0.729 5.58782 3.83104 0
M  V30 17 H 1.672 6.56266 2.65933 0
M  V30 18 H 2.08 4.83886 2.90714 0
M  V30 19 N 1.4781 -0.272755 1.55222 0
M  V30 20 C 2.7261 -1.00234 1.75492 0
M  V30 21 C 3.0471 -1.8681 0.5592 0
M  V30 22 O 2.3171 -1.91215 -0.425882 0
M  V30 23 H 0.8971 -0.373076 0.647166 0
M  V30 24 H 3.5591 -0.296926 1.92625 0
M  V30 25 H 2.6551 -1.63913 2.65592 0
M  V30 26 N 2.9562 -1.48159 -0.537278 0
M  V30 27 C 3.9042 -1.62573 -1.66352 0
M  V30 28 C 4.8982 -0.492366 -1.62087 0
M  V30 29 O 6.1042 -0.670847 -1.67032 0
M  V30 30 H 2.4792 -0.511992 -0.550789 0
M  V30 31 H 4.4502 -2.57176 -1.51337 0
M  V30 32 C 3.1992 -1.67583 -3.04649 0
M  V30 33 H 2.5222 -2.54151 -3.08622 0
M  V30 34 H 3.9622 -1.81713 -3.83088 0
M  V30 35 C 2.4212 -0.413039 -3.34358 0
M  V30 36 O 2.9512 0.477259 -3.98855 0
M  V30 37 N 1.1572 -0.286961 -2.8918 0
M  V30 38 H 0.7042 -1.01241 -2.36871 0
M  V30 39 H 0.6622 0.556963 -3.09427 0
M  V30 40 N 4.4343 0.785586 -1.36625 0
M  V30 41 C 5.6803 1.54591 -1.31261 0
M  V30 42 C 6.0133 1.93906 0.106823 0
M  V30 43 O 5.2883 1.63007 1.06108 0
M  V30 44 C 5.5713 2.82038 -2.23889 0
M  V30 45 C 5.4243 2.49066 -3.74548 0
M  V30 46 C 6.7433 3.83887 -2.15217 0
M  V30 47 H 3.8623 0.560846 -0.478143 0
M  V30 48 H 6.5043 0.902278 -1.67209 0
M  V30 49 H 4.6543 3.36961 -1.93363 0
M  V30 50 H 6.3263 2.00164 -4.15611 0
M  V30 51 H 4.5693 1.81954 -3.93796 0
M  V30 52 H 5.2403 3.40109 -4.34776 0
M  V30 53 H 7.7163 3.38421 -2.42096 0
M  V30 54 H 6.5923 4.70806 -2.82193 0
M  V30 55 H 6.8533 4.27131 -1.14068 0
M  V30 56 N 5.9124 1.20967 1.01018 0
M  V30 57 C 7.1524 1.03511 1.76252 0
M  V30 58 C 7.5164 -0.42458 1.87247 0
M  V30 59 O 8.7174 -0.719508 2.58991 0
M  V30 60 C 6.9884 1.70726 3.13986 0
M  V30 61 S 8.5474 1.68458 4.05176 0
M  V30 62 H 5.3654 0.371037 0.606508 0
M  V30 63 H 7.9674 1.53628 1.20908 0
M  V30 64 H 6.6714 2.76128 3.03614 0
M  V30 65 H 6.2024 1.20767 3.74405 0
M  V30 66 H 8.2174 0.721987 4.90919 0
M  V30 67 N 7.3905 -1.2043 1.01659 0
M  V30 68 C 8.6185 -1.93777 0.725132 0
M  V30 69 C 9.0335 -1.74772 -0.714166 0
M  V30 70 O 8.3905 -1.06169 -1.4844 0
M  V30 71 C 8.4415 -3.45876 1.05129 0
M  V30 72 O 8.1625 -3.6426 2.43406 0
M  V30 73 C 9.6635 -4.36368 0.780891 0
M  V30 74 H 6.8835 -0.615901 0.266284 0
M  V30 75 H 9.4275 -1.52922 1.35776 0
M  V30 76 H 7.5825 -3.8461 0.464065 0
M  V30 77 H 7.9965 -4.58246 2.55169 0
M  V30 78 H 9.4705 -5.41743 1.05918 0
M  V30 79 H 9.9475 -4.38275 -0.284937 0
M  V30 80 H 10.5535 -4.03296 1.35027 0
M  V30 81 N 8.8686 -0.792821 -1.36206 0
M  V30 82 C 10.1146 -0.376415 -1.99887 0
M  V30 83 C 10.4696 1.04127 -1.61788 0
M  V30 84 O 9.7626 1.71004 -0.864193 0
M  V30 85 C 9.9566 -0.481501 -3.54142 0
M  V30 86 C 9.7856 -1.90786 -4.07223 0
M  V30 87 C 8.5556 -2.53322 -4.37214 0
M  V30 88 C 10.7536 -2.87048 -4.26741 0
M  V30 89 N 8.7356 -3.8751 -4.7614 0
M  V30 90 C 10.1066 -4.06077 -4.6851 0
M  V30 91 C 12.1616 -2.8406 -4.08918 0
M  V30 92 C 10.8646 -5.22532 -4.94321 0
M  V30 93 C 12.8906 -3.99705 -4.35878 0
M  V30 94 C 12.2526 -5.1748 -4.77906 0
M  V30 95 H 8.3516 -0.185226 -0.759747 0
M  V30 96 H 10.9356 -1.03114 -1.65153 0
M  V30 97 H 9.1066 0.143154 -3.88136 0
M  V30 98 H 10.8386 -0.0410128 -4.04679 0
M  V30 99 H 7.5936 -2.04777 -4.2704 0
M  V30 100 H 8.0176 -4.5656 -4.99882 0
M  V30 101 H 12.6596 -1.94165 -3.75579 0
M  V30 102 H 10.3776 -6.1301 -5.2654 0
M  V30 103 H 13.9636 -3.98758 -4.23655 0
M  V30 104 H 12.8436 -6.05478 -4.98363 0
M  V30 105 N 10.3467 1.47872 -0.545128 0
M  V30 106 C 11.7627 1.5829 -0.204032 0
M  V30 107 C 11.9627 1.54529 1.29317 0
M  V30 108 O 11.0187 1.44232 2.07252 0
M  V30 109 C 12.3317 2.89304 -0.819987 0
M  V30 110 C 13.8797 3.02864 -0.790105 0
M  V30 111 C 14.3547 4.3656 -1.38491 0
M  V30 112 N 15.8457 4.43165 -1.34755 0
M  V30 113 C 16.5807 5.45153 -1.77753 0
M  V30 114 N 16.0767 6.54016 -2.2855 0
M  V30 115 N 17.8697 5.36125 -1.68897 0
M  V30 116 H 10.0207 1.4856 -1.51802 0
M  V30 117 H 12.2837 0.706305 -0.632327 0
M  V30 118 H 11.9897 2.97757 -1.87173 0
M  V30 119 H 11.8637 3.75957 -0.305915 0
M  V30 120 H 14.2507 2.94014 0.252913 0
M  V30 121 H 14.3317 2.17782 -1.34181 0
M  V30 122 H 13.9757 4.46164 -2.42693 0
M  V30 123 H 13.9057 5.20353 -0.808754 0
M  V30 124 H 16.3967 3.65083 -0.975855 0
M  V30 125 H 16.7097 7.27994 -2.59314 0
M  V30 126 H 15.0547 6.54938 -2.32553 0
M  V30 127 H 18.2457 4.49975 -1.28998 0
M  V30 128 H 18.4187 6.15472 -2.02726 0
M  V30 129 N 11.8248 0.280983 1.55075 0
M  V30 130 C 12.7568 -0.637268 2.20163 0
M  V30 131 C 13.7698 -1.11298 1.18813 0
M  V30 132 O 14.9588 -1.03388 1.4551 0
M  V30 133 C 12.0588 -1.88199 2.81841 0
M  V30 134 C 11.2318 -1.55211 4.08936 0
M  V30 135 C 10.2908 -2.64991 4.54606 0
M  V30 136 O 9.3168 -2.30929 5.2025 0
M  V30 137 N 10.5188 -3.95161 4.25238 0
M  V30 138 H 13.2838 -0.0801694 2.99593 0
M  V30 139 H 10.8448 0.102329 1.61576 0
M  V30 140 H 12.8368 -2.60948 3.09335 0
M  V30 141 H 11.4068 -2.34799 2.06369 0
M  V30 142 H 10.6268 -0.658185 3.88666 0
M  V30 143 H 11.9148 -1.30681 4.91732 0
M  V30 144 H 11.3128 -4.25653 3.72607 0
M  V30 145 H 9.8698 -4.6427 4.5749 0
M  V30 146 N 13.3029 -1.57598 0.00835791 0
M  V30 147 C 14.5509 -1.90551 -0.6734 0
M  V30 148 C 14.8719 -0.883301 -1.73847 0
M  V30 149 O 14.1419 0.0781442 -1.95744 0
M  V30 150 H 12.7219 -0.703312 -0.251717 0
M  V30 151 H 15.3839 -1.94833 0.0512592 0
M  V30 152 H 14.4799 -2.9056 -1.13935 0
M  V30 153 N 14.781 0.264519 -1.55364 0
M  V30 154 C 15.728 1.32717 -1.88825 0
M  V30 155 C 16.698 1.48675 -0.740605 0
M  V30 156 O 17.883 1.62945 -0.992657 0
M  V30 157 C 15.023 2.68089 -2.17307 0
M  V30 158 C 14.136 2.60284 -3.44785 0
M  V30 159 C 13.271 3.87892 -3.62924 0
M  V30 160 C 12.31 3.74631 -4.84064 0
M  V30 161 N 11.447 4.94092 -4.98816 0
M  V30 162 H 16.287 1.03481 -2.79456 0
M  V30 163 H 13.824 0.499757 -1.3835 0
M  V30 164 H 15.782 3.46864 -2.31821 0
M  V30 165 H 14.412 2.95509 -1.299 0
M  V30 166 H 13.464 1.73173 -3.38697 0
M  V30 167 H 14.776 2.46388 -4.33698 0
M  V30 168 H 13.93 4.75109 -3.77302 0
M  V30 169 H 12.669 4.04664 -2.7221 0
M  V30 170 H 11.674 2.85797 -4.69681 0
M  V30 171 H 12.899 3.5937 -5.76221 0
M  V30 172 H 10.845 5.11259 -4.11036 0
M  V30 173 H 10.762 4.8276 -5.81789 0
M  V30 174 H 12.03 5.82857 -5.17588 0
M  V30 175 N 16.2591 1.48442 0.529413 0
M  V30 176 C 17.1691 1.6569 1.66084 0
M  V30 177 C 18.1851 0.539432 1.65427 0
M  V30 178 O 19.3611 0.810572 1.84368 0
M  V30 179 C 16.4261 1.69315 3.02545 0
M  V30 180 C 15.4871 2.92694 3.14052 0
M  V30 181 C 14.7201 2.96137 4.44003 0
M  V30 182 O 14.9431 2.07973 5.31134 0
M  V30 183 O 13.8771 3.88312 4.59888 0
M  V30 184 H 17.7031 2.61483 1.54469 0
M  V30 185 H 15.2881 1.3185 0.702567 0
M  V30 186 H 17.1701 1.74217 3.83701 0
M  V30 187 H 15.8451 0.766966 3.14483 0
M  V30 188 H 14.7521 2.93324 2.32189 0
M  V30 189 H 16.0851 3.84699 3.0703 0
M  V30 190 N 17.7372 -0.778329 1.37039 0
M  V30 191 C 18.6842 -1.89139 1.32269 0
M  V30 192 C 19.6542 -1.65017 0.189387 0
M  V30 193 O 20.8392 -1.87024 0.377693 0
M  V30 194 C 17.9792 -3.26112 1.12894 0
M  V30 195 C 17.0922 -3.62233 2.35396 0
M  V30 196 C 16.2272 -4.8838 2.08946 0
M  V30 197 C 15.2662 -5.17212 3.2735 0
M  V30 198 N 14.4032 -6.34546 3.00492 0
M  V30 199 H 19.2432 -1.92552 2.27437 0
M  V30 200 H 16.7802 -0.941473 1.13025 0
M  V30 201 H 18.7382 -4.05116 0.996835 0
M  V30 202 H 17.3682 -3.22091 0.213758 0
M  V30 203 H 16.4202 -2.78265 2.5937 0
M  V30 204 H 17.7322 -3.79481 3.23721 0
M  V30 205 H 16.8862 -5.75274 1.92729 0
M  V30 206 H 15.6252 -4.73222 1.17949 0
M  V30 207 H 14.6302 -4.28796 3.44113 0
M  V30 208 H 15.8552 -5.34283 4.19188 0
M  V30 209 H 13.8012 -6.20759 2.12118 0
M  V30 210 H 13.7182 -6.52179 3.82358 0
M  V30 211 H 14.9862 -7.24394 2.87879 0
M  V30 212 N 19.2153 -1.21501 -1.00376 0
M  V30 213 C 20.1783 -0.976927 -2.07337 0
M  V30 214 C 21.1783 0.0525322 -1.60714 0
M  V30 215 O 22.3683 -0.184869 -1.73216 0
M  V30 216 C 19.5003 -0.473423 -3.37597 0
M  V30 217 H 20.6933 -1.92587 -2.29892 0
M  V30 218 H 18.2463 -1.03217 -1.17371 0
M  V30 219 H 18.9813 0.480379 -3.20722 0
M  V30 220 H 18.7663 -1.216 -3.72768 0
M  V30 221 H 20.2563 -0.32675 -4.1632 0
M  V30 222 N 20.6934 1.19889 -1.02296 0
M  V30 223 C 21.9414 1.89046 -0.714558 0
M  V30 224 C 22.2624 1.79636 0.758681 0
M  V30 225 O 21.5324 1.20292 1.54618 0
M  V30 226 H 20.1124 0.699802 -0.261317 0
M  V30 227 H 22.7744 1.45574 -1.29592 0
M  V30 228 H 21.8704 2.95524 -1.0036 0
M  V30 229 N 22.1715 0.800033 1.35784 0
M  V30 230 C 23.4485 0.30088 1.93272 0
M  V30 231 C 23.8285 -1.20857 1.73081 0
M  V30 232 O 23.1765 -2.00502 1.09596 0
M  V30 233 C 23.3865 0.70511 3.41803 0
M  V30 234 C 24.7345 0.690871 4.18942 0
M  V30 235 O 25.7585 0.646244 3.50289 0
M  V30 236 O 24.6175 0.74332 5.41421 0
M  V30 237 H 21.7115 0.0771605 0.823393 0
M  V30 238 H 24.2575 0.88329 1.449 0
M  V30 239 H 23.0295 1.74571 3.50201 0
M  V30 240 H 22.6525 0.0971541 3.97481 0
M  V30 241 N 23.6496 -1.47581 0.552962 0
M  V30 242 C 24.9266 -1.95563 -0.0381515 0
M  V30 243 C 25.3066 -1.49552 -1.48988 0
M  V30 244 O 24.6546 -0.732414 -2.16444 0
M  V30 245 C 24.8646 -3.48848 0.102919 0
M  V30 246 C 26.2126 -4.24577 -0.0446082 0
M  V30 247 O 27.2366 -3.56187 0.0302548 0
M  V30 248 O 26.0956 -5.46116 -0.204923 0
M  V30 249 H 23.1896 -0.824321 -0.0665067 0
M  V30 250 H 25.7356 -1.58001 0.619186 0
M  V30 251 H 24.5076 -3.75129 1.11328 0
M  V30 252 H 24.1306 -3.93165 -0.592224 0
M  V30 253 N 25.1277 -0.289203 -1.54924 0
M  V30 254 C 26.0757 0.607966 -2.24514 0
M  V30 255 C 27.0697 1.14655 -1.24702 0
M  V30 256 O 28.2757 1.09856 -1.4259 0
M  V30 257 H 24.6507 0.21464 -0.720718 0
M  V30 258 H 26.6217 -0.00164182 -2.984 0
M  V30 259 C 25.3707 1.77406 -2.99036 0
M  V30 260 H 24.6937 1.36884 -3.75637 0
M  V30 261 H 26.1337 2.37814 -3.51028 0
M  V30 262 C 24.5927 2.67107 -2.05318 0
M  V30 263 O 25.1227 3.6787 -1.61353 0
M  V30 264 N 23.3287 2.34582 -1.71521 0
M  V30 265 H 22.8757 1.52688 -2.07471 0
M  V30 266 H 22.8337 2.94867 -1.0909 0
M  V30 267 N 26.6058 1.57591 -0.0167156 0
M  V30 268 C 27.8308 1.9598 0.67872 0
M  V30 269 C 28.2558 0.892546 1.65575 0
M  V30 270 O 27.6138 -0.147772 1.80697 0
M  V30 271 C 27.6618 3.33468 1.37227 0
M  V30 272 O 26.7658 3.28954 2.48722 0
M  V30 273 H 26.1068 0.639339 0.17928 0
M  V30 274 H 28.6368 2.04463 -0.0748802 0
M  V30 275 H 28.6468 3.69417 1.7319 0
M  V30 276 H 27.3218 4.10694 0.656007 0
M  V30 277 H 25.8988 3.04705 2.14963 0
M  V30 278 N 28.0839 -0.256276 1.55502 0
M  V30 279 C 29.0159 -1.33981 1.85962 0
M  V30 280 C 30.0289 -1.44743 0.745212 0
M  V30 281 O 31.2179 -1.4626 1.02324 0
M  V30 282 C 28.3179 -2.7194 2.02242 0
M  V30 283 C 27.4909 -2.83562 3.33033 0
M  V30 284 C 26.5499 -4.02304 3.39172 0
M  V30 285 O 25.5759 -3.92273 4.12444 0
M  V30 286 N 26.7779 -5.15045 2.67784 0
M  V30 287 H 29.5429 -1.08191 2.7949 0
M  V30 288 H 27.1039 -0.446388 1.55624 0
M  V30 289 H 29.0959 -3.49697 2.03701 0
M  V30 290 H 27.6659 -2.90479 1.15502 0
M  V30 291 H 26.8859 -1.92555 3.43971 0
M  V30 292 H 28.1739 -2.88271 4.19258 0
M  V30 293 H 27.5719 -5.26085 2.07968 0
M  V30 294 H 26.1289 -5.90972 2.74947 0
M  V30 295 N 29.562 -1.4872 -0.521534 0
M  V30 296 C 30.808 -1.574 -1.27879 0
M  V30 297 C 31.141 -0.250817 -1.92573 0
M  V30 298 O 30.416 0.743934 -1.79711 0
M  V30 299 C 30.699 -2.71843 -2.36164 0
M  V30 300 C 30.552 -4.13893 -1.76105 0
M  V30 301 C 31.871 -2.82008 -3.37875 0
M  V30 302 H 28.99 -0.572941 -0.463581 0
M  V30 303 H 31.632 -1.80927 -0.580119 0
M  V30 304 H 29.782 -2.51914 -2.95756 0
M  V30 305 H 31.454 -4.45284 -1.20499 0
M  V30 306 H 29.697 -4.20498 -1.06601 0
M  V30 307 H 30.368 -4.89804 -2.5455 0
M  V30 308 H 32.844 -3.00086 -2.88249 0
M  V30 309 H 31.72 -3.63796 -4.11028 0
M  V30 310 H 31.981 -1.90511 -3.98946 0
M  V30 311 N 31.0401 0.771051 -1.3745 0
M  V30 312 C 32.2891 1.52491 -1.3202 0
M  V30 313 C 32.6021 1.9538 0.0927347 0
M  V30 314 O 33.8081 2.70159 0.269503 0
M  V30 315 C 32.2641 2.75366 -2.31736 0
M  V30 316 C 31.8721 2.39573 -3.78562 0
M  V30 317 C 33.6161 3.53307 -2.35318 0
M  V30 318 C 31.5231 3.58954 -4.70007 0
M  V30 319 H 30.4531 0.572506 -0.490666 0
M  V30 320 H 33.1041 0.844474 -1.62914 0
M  V30 321 H 31.4861 3.45303 -1.93861 0
M  V30 322 H 32.6601 1.77415 -4.25277 0
M  V30 323 H 30.9751 1.74805 -3.77932 0
M  V30 324 H 33.5721 4.42039 -3.00842 0
M  V30 325 H 33.9151 3.93217 -1.36698 0
M  V30 326 H 34.4481 2.90367 -2.71904 0
M  V30 327 H 31.1871 3.24125 -5.69757 0
M  V30 328 H 30.7071 4.20214 -4.27996 0
M  V30 329 H 32.3861 4.25758 -4.87175 0
M  V30 330 N 32.5182 1.22032 0.997298 0
M  V30 331 C 33.4652 0.986467 2.08656 0
M  V30 332 C 34.4352 -0.0902671 1.65855 0
M  V30 333 O 35.6202 0.0584294 1.90711 0
M  V30 334 C 32.7602 0.565569 3.40434 0
M  V30 335 C 31.8732 1.71259 3.96604 0
M  V30 336 C 31.0082 1.24011 5.16522 0
M  V30 337 C 30.0472 2.35896 5.64818 0
M  V30 338 N 29.1842 1.89726 6.7598 0
M  V30 339 H 34.0242 1.91892 2.27994 0
M  V30 340 H 31.5612 0.956199 1.11782 0
M  V30 341 H 33.5192 0.302738 4.161 0
M  V30 342 H 32.1492 -0.329879 3.2111 0
M  V30 343 H 31.2012 2.08986 3.17851 0
M  V30 344 H 32.5132 2.55436 4.28432 0
M  V30 345 H 31.6672 0.934395 5.99461 0
M  V30 346 H 30.4062 0.368487 4.86306 0
M  V30 347 H 29.4112 2.67261 4.8047 0
M  V30 348 H 30.6362 3.23567 5.97061 0
M  V30 349 H 28.5822 1.0492 6.47555 0
M  V30 350 H 28.4992 2.67471 7.07103 0
M  V30 351 H 29.7672 1.62211 7.62435 0
M  V30 352 N 33.9963 -1.19345 1.0293 0
M  V30 353 C 35.2733 -1.84811 0.640642 0
M  V30 354 C 35.6533 -1.91855 -0.88062 0
M  V30 355 O 35.0013 -1.43587 -1.7775 0
M  V30 356 C 35.2113 -3.23755 1.30321 0
M  V30 357 C 36.5593 -3.99912 1.42673 0
M  V30 358 O 37.5833 -3.33155 1.26041 0
M  V30 359 O 36.4423 -5.19494 1.6967 0
M  V30 360 H 33.5363 -0.796443 0.222726 0
M  V30 361 H 36.0823 -1.26831 1.12748 0
M  V30 362 H 34.8543 -3.13466 2.34211 0
M  V30 363 H 34.4773 -3.89381 0.804261 0
M  V30 364 N 35.4744 -0.807222 -1.35358 0
M  V30 365 C 36.4214 -0.216037 -2.29787 0
M  V30 366 C 37.3914 0.650278 -1.52842 0
M  V30 367 O 38.5764 0.595227 -1.81278 0
M  V30 368 C 35.7164 0.628893 -3.39321 0
M  V30 369 C 34.8294 -0.257927 -4.31229 0
M  V30 370 C 33.9644 0.595069 -5.27856 0
M  V30 371 C 33.0034 -0.292111 -6.11403 0
M  V30 372 N 32.1404 0.520895 -7.00165 0
M  V30 373 H 36.9804 -1.02671 -2.79755 0
M  V30 374 H 34.5174 -0.517839 -1.37684 0
M  V30 375 H 36.4754 1.13393 -4.01494 0
M  V30 376 H 35.1054 1.40482 -2.90628 0
M  V30 377 H 34.1574 -0.881076 -3.70056 0
M  V30 378 H 35.4694 -0.940759 -4.89848 0
M  V30 379 H 34.6234 1.16522 -5.95405 0
M  V30 380 H 33.3624 1.31146 -4.69736 0
M  V30 381 H 32.3674 -0.874525 -5.428 0
M  V30 382 H 33.5924 -1.00638 -6.71602 0
M  V30 383 H 31.5384 1.22125 -6.44532 0
M  V30 384 H 31.4554 -0.103877 -7.55929 0
M  V30 385 H 32.7234 1.0743 -7.72062 0
M  V30 386 N 36.9525 1.47285 -0.560781 0
M  V30 387 C 37.8625 2.33846 0.187954 0
M  V30 388 C 38.8785 1.48412 0.908293 0
M  V30 389 O 40.0545 1.81332 0.876388 0
M  V30 390 C 37.1195 3.25178 1.2025 0
M  V30 391 C 36.1805 4.26504 0.489208 0
M  V30 392 C 35.4135 5.13472 1.45542 0
M  V30 393 O 35.6365 5.02959 2.6905 0
M  V30 394 O 34.5705 5.93902 0.977963 0
M  V30 395 H 38.3965 2.99177 -0.522177 0
M  V30 396 H 35.9815 1.45903 -0.321364 0
M  V30 397 H 37.8635 3.81584 1.78805 0
M  V30 398 H 36.5385 2.6247 1.89449 0
M  V30 399 H 35.4455 3.73847 -0.137627 0
M  V30 400 H 36.7785 4.91935 -0.161399 0
M  V30 401 N 38.4306 0.297415 1.54768 0
M  V30 402 C 39.3606 -0.573494 2.26348 0
M  V30 403 C 40.3416 -1.14085 1.26169 0
M  V30 404 O 41.5266 -1.17086 1.54934 0
M  V30 405 C 38.6566 -1.74716 3.00153 0
M  V30 406 C 37.6106 -1.31032 4.07449 0
M  V30 407 C 36.9366 -2.56887 4.68949 0
M  V30 408 C 38.2366 -0.444183 5.20408 0
M  V30 409 H 39.9306 0.0235131 2.99391 0
M  V30 410 H 37.4766 0.0127488 1.43994 0
M  V30 411 H 39.4296 -2.3625 3.48947 0
M  V30 412 H 38.1536 -2.37035 2.24682 0
M  V30 413 H 36.8126 -0.718066 3.59499 0
M  V30 414 H 36.4606 -3.17512 3.90122 0
M  V30 415 H 36.1606 -2.2836 5.41411 0
M  V30 416 H 37.6846 -3.19229 5.20505 0
M  V30 417 H 39.0986 -0.9651 5.65118 0
M  V30 418 H 37.4956 -0.252846 5.99567 0
M  V30 419 H 38.5656 0.531609 4.81977 0
M  V30 420 N 39.9087 -1.5758 0.0250728 0
M  V30 421 C 40.8407 -2.06869 -0.986796 0
M  V30 422 C 41.8537 -0.991332 -1.29137 0
M  V30 423 O 43.0427 -1.26761 -1.25674 0
M  V30 424 C 40.1427 -2.47486 -2.31525 0
M  V30 425 C 39.3157 -3.78253 -2.19643 0
M  V30 426 C 38.3747 -4.05464 -3.35388 0
M  V30 427 O 37.4007 -4.75774 -3.12454 0
M  V30 428 N 38.6027 -3.55321 -4.59051 0
M  V30 429 H 41.3677 -2.94302 -0.566276 0
M  V30 430 H 38.9287 -1.6109 -0.161776 0
M  V30 431 H 40.9207 -2.62785 -3.07776 0
M  V30 432 H 39.4907 -1.65441 -2.65232 0
M  V30 433 H 38.7107 -3.7279 -1.28144 0
M  V30 434 H 39.9987 -4.63936 -2.08903 0
M  V30 435 H 39.3967 -2.98431 -4.80578 0
M  V30 436 H 37.9537 -3.75905 -5.32483 0
M  V30 437 N 41.3868 0.248026 -1.55636 0
M  V30 438 C 42.3348 1.32683 -1.91045 0
M  V30 439 C 43.3288 1.49883 -0.789401 0
M  V30 440 O 44.5348 1.51371 -0.974007 0
M  V30 441 H 40.9098 0.444272 -0.606734 0
M  V30 442 H 42.8808 1.00085 -2.81115 0
M  V30 443 C 41.6298 2.6755 -2.22064 0
M  V30 444 H 40.9528 2.55114 -3.07826 0
M  V30 445 H 42.3928 3.41912 -2.50743 0
M  V30 446 C 40.8518 3.20556 -1.0366 0
M  V30 447 O 41.3818 4.00695 -0.284016 0
M  V30 448 N 39.5878 2.78568 -0.82753 0
M  V30 449 H 39.1348 2.1351 -1.44123 0
M  V30 450 H 39.0928 3.14378 -0.0369803 0
M  V30 451 N 42.8649 1.48995 0.513639 0
M  V30 452 C 43.7749 1.67443 1.64317 0
M  V30 453 C 44.7909 0.556947 1.64846 0
M  V30 454 O 45.9669 0.830082 1.83498 0
M  V30 455 C 43.0319 1.72515 3.00732 0
M  V30 456 C 42.0929 2.96009 3.1093 0
M  V30 457 C 41.3259 3.00829 4.40837 0
M  V30 458 O 41.5489 2.13594 5.28898 0
M  V30 459 O 40.4829 3.93168 4.55744 0
M  V30 460 H 44.3089 2.63106 1.51687 0
M  V30 461 H 41.8939 1.32588 0.688543 0
M  V30 462 H 43.7759 1.78277 3.81831 0
M  V30 463 H 42.4509 0.800278 3.13651 0
M  V30 464 H 41.3579 2.9577 2.29065 0
M  V30 465 H 42.6909 3.87934 3.02933 0
M  V30 466 N 44.343 -0.763751 1.37857 0
M  V30 467 C 45.59 -1.52257 1.33506 0
M  V30 468 C 45.918 -1.94343 -0.078022 0
M  V30 469 O 45.173 -1.64958 -1.05297 0
M  V30 470 C 45.472 -2.79499 2.22745 0
M  V30 471 C 45.138 -2.56426 3.70886 0
M  V30 472 C 43.8 -2.49842 4.11257 0
M  V30 473 C 46.152 -2.36008 4.64704 0
M  V30 474 C 43.48 -2.20841 5.43549 0
M  V30 475 C 45.832 -2.0853 5.97242 0
M  V30 476 C 44.496 -2.00396 6.36709 0
M  V30 477 H 43.766 -0.557149 0.488534 0
M  V30 478 H 46.413 -0.879073 1.70131 0
M  V30 479 H 44.718 -3.48447 1.79142 0
M  V30 480 H 46.415 -3.37413 2.16688 0
M  V30 481 H 43.005 -2.62416 3.38874 0
M  V30 482 H 47.189 -2.40079 4.34368 0
M  V30 483 H 42.445 -2.13045 5.73081 0
M  V30 484 H 46.619 -1.91732 6.69486 0
M  V30 485 H 44.246 -1.77688 7.39142 0
M  V30 486 N 45.8211 -1.22559 -0.990812 0
M  V30 487 C 46.7681 -0.997519 -2.0813 0
M  V30 488 C 47.7381 0.0814702 -1.659 0
M  V30 489 O 48.9231 -0.0685424 -1.90677 0
M  V30 490 C 46.0631 -0.583615 -3.40129 0
M  V30 491 C 45.1761 -1.7336 -3.9569 0
M  V30 492 C 44.3111 -1.26748 -5.15857 0
M  V30 493 C 43.3501 -2.38888 -5.63559 0
M  V30 494 N 42.4871 -1.93308 -6.74964 0
M  V30 495 H 47.3271 -1.93099 -2.26973 0
M  V30 496 H 44.8641 -0.962114 -1.11273 0
M  V30 497 H 46.8221 -0.324801 -4.15934 0
M  V30 498 H 45.4521 0.312845 -3.2128 0
M  V30 499 H 44.5041 -2.10669 -3.16738 0
M  V30 500 H 45.8161 -2.57704 -4.27071 0
M  V30 501 H 44.9701 -0.966173 -5.98957 0
M  V30 502 H 43.7091 -0.394272 -4.86104 0
M  V30 503 H 42.7141 -2.69805 -4.79046 0
M  V30 504 H 43.9391 -3.26728 -5.95336 0
M  V30 505 H 41.8851 -1.08352 -6.4699 0
M  V30 506 H 41.8021 -2.71217 -7.05675 0
M  V30 507 H 43.0701 -1.66252 -7.61564 0
M  V30 508 N 47.2992 1.18797 -1.03562 0
M  V30 509 C 48.5272 1.92599 -0.755869 0
M  V30 510 C 48.9422 1.75886 0.686271 0
M  V30 511 O 48.2992 1.08517 1.46732 0
M  V30 512 C 48.3502 3.44159 -1.10619 0
M  V30 513 O 48.0712 3.60341 -2.4917 0
M  V30 514 C 49.5722 4.3507 -0.850214 0
M  V30 515 H 46.7922 0.611587 -0.276048 0
M  V30 516 H 49.3362 1.50742 -1.38192 0
M  V30 517 H 47.4912 3.83823 -0.525194 0
M  V30 518 H 47.9052 4.54128 -2.62427 0
M  V30 519 H 49.3792 5.39989 -1.14523 0
M  V30 520 H 49.8562 4.38673 0.215176 0
M  V30 521 H 50.4622 4.01097 -1.41426 0
M  V30 522 N 48.7773 0.814389 1.34928 0
M  V30 523 C 50.0243 0.398423 1.98542 0
M  V30 524 C 50.3523 -1.03638 1.64589 0
M  V30 525 O 49.6073 -1.73509 0.90516 0
M  V30 526 C 49.9063 0.537781 3.53331 0
M  V30 527 C 49.5723 1.93704 4.07172 0
M  V30 528 C 48.2343 2.31984 4.21589 0
M  V30 529 C 50.5863 2.85213 4.36237 0
M  V30 530 C 47.9143 3.61125 4.62391 0
M  V30 531 C 50.2663 4.13809 4.78482 0
M  V30 532 C 48.9303 4.52077 4.91104 0
M  V30 533 H 48.2003 0.145793 0.726516 0
M  V30 534 H 50.8473 1.03669 1.61012 0
M  V30 535 H 49.1523 -0.183906 3.91368 0
M  V30 536 H 50.8493 0.196588 4.00518 0
M  V30 537 H 47.4393 1.62966 3.96409 0
M  V30 538 H 51.6233 2.56885 4.24645 0
M  V30 539 H 46.8793 3.90612 4.70353 0
M  V30 540 H 51.0533 4.84811 4.99932 0
M  V30 541 H 48.6803 5.52196 5.22478 0
M  V30 542 N 50.2554 -1.46986 0.568584 0
M  V30 543 C 51.1654 -2.33942 -0.17555 0
M  V30 544 C 52.1814 -1.48891 -0.90041 0
M  V30 545 O 53.3574 -1.81794 -0.86676 0
M  V30 546 C 50.4224 -3.25811 -1.18524 0
M  V30 547 C 49.4834 -4.26757 -0.466582 0
M  V30 548 C 48.7164 -5.14236 -1.42817 0
M  V30 549 O 48.9394 -5.04379 -2.66379 0
M  V30 550 O 47.8734 -5.94412 -0.946453 0
M  V30 551 H 51.6994 -2.98896 0.538036 0
M  V30 552 H 49.2844 -1.4573 0.329097 0
M  V30 553 H 51.1664 -3.82527 -1.76779 0
M  V30 554 H 49.8414 -2.63471 -1.88055 0
M  V30 555 H 48.7484 -3.73769 0.157451 0
M  V30 556 H 50.0814 -4.91843 0.187485 0
M  V30 557 N 51.7335 -0.305618 -1.54608 0
M  V30 558 C 52.6655 0.602161 -2.21149 0
M  V30 559 C 53.6785 1.09394 -1.20569 0
M  V30 560 O 54.8675 1.0106 -1.47136 0
M  V30 561 C 51.9675 1.83692 -2.84799 0
M  V30 562 C 51.1405 1.48686 -4.11353 0
M  V30 563 C 50.1995 2.57725 -4.58764 0
M  V30 564 O 49.2255 2.22623 -5.23858 0
M  V30 565 N 50.4275 3.88346 -4.31471 0
M  V30 566 H 53.1925 0.0324966 -2.99682 0
M  V30 567 H 50.7535 -0.128021 -1.61393 0
M  V30 568 H 52.7455 2.55994 -3.13448 0
M  V30 569 H 51.3155 2.31486 -2.10078 0
M  V30 570 H 50.5355 0.596269 -3.89664 0
M  V30 571 H 51.8235 1.22842 -4.93748 0
M  V30 572 H 51.2215 4.19671 -3.79331 0
M  V30 573 H 49.7785 4.56932 -4.64818 0
M  V30 574 N 53.2116 1.57565 -0.0334293 0
M  V30 575 C 54.1586 2.10478 0.946981 0
M  V30 576 C 55.1286 1.00787 1.32027 0
M  V30 577 O 56.3136 1.28232 1.41284 0
M  V30 578 C 53.4536 2.63994 2.22263 0
M  V30 579 C 52.5666 3.87709 1.90541 0
M  V30 580 C 51.7016 4.29604 3.12433 0
M  V30 581 C 50.7406 5.46065 2.76549 0
M  V30 582 N 49.8776 5.83096 3.9108 0
M  V30 583 H 54.7176 2.93963 0.488846 0
M  V30 584 H 52.2546 1.45296 0.22969 0
M  V30 585 H 54.2126 2.93114 2.96884 0
M  V30 586 H 52.8426 1.83333 2.65685 0
M  V30 587 H 51.8946 3.65291 1.06144 0
M  V30 588 H 53.2066 4.72403 1.60116 0
M  V30 589 H 52.3606 4.60182 3.9537 0
M  V30 590 H 51.0996 3.43685 3.46023 0
M  V30 591 H 50.1046 5.15176 1.92026 0
M  V30 592 H 51.3296 6.33685 2.44171 0
M  V30 593 H 49.2756 5.00132 4.24504 0
M  V30 594 H 49.1926 6.6244 3.64293 0
M  V30 595 H 50.4606 6.18282 4.74708 0
M  V30 596 N 54.6897 -0.239769 1.55765 0
M  V30 597 C 55.6227 -1.32356 1.85895 0
M  V30 598 C 56.6007 -1.46053 0.714662 0
M  V30 599 O 57.7847 -1.62154 0.961157 0
M  V30 600 C 54.9117 -2.6962 2.04994 0
M  V30 601 C 53.9577 -2.73036 3.27648 0
M  V30 602 S 54.7907 -2.28929 4.84099 0
M  V30 603 C 55.9467 -3.68103 5.06212 0
M  V30 604 H 56.1797 -1.06601 2.77531 0
M  V30 605 H 53.7127 -0.441112 1.47965 0
M  V30 606 H 55.6707 -3.48653 2.16682 0
M  V30 607 H 54.3317 -2.92609 1.14188 0
M  V30 608 H 53.5247 -3.7386 3.38 0
M  V30 609 H 53.1267 -2.02052 3.14723 0
M  V30 610 H 55.4187 -4.63656 4.93993 0
M  V30 611 H 56.3617 -3.6268 6.08168 0
M  V30 612 H 56.7697 -3.60947 4.34025 0
M  V30 613 N 56.1678 -1.49265 -0.50573 0
M  V30 614 C 57.5838 -1.35923 -0.836486 0
M  V30 615 C 57.7838 -0.388704 -1.97715 0
M  V30 616 O 56.8398 0.181336 -2.51848 0
M  V30 617 C 58.1528 -2.76531 -1.18115 0
M  V30 618 C 59.7008 -2.85197 -1.28964 0
M  V30 619 C 60.1758 -4.26561 -1.66761 0
M  V30 620 N 61.6668 -4.2935 -1.73819 0
M  V30 621 C 62.4018 -5.35693 -2.045 0
M  V30 622 N 61.8978 -6.52287 -2.33438 0
M  V30 623 N 63.6908 -5.23105 -2.05711 0
M  V30 624 H 55.8418 -2.10965 0.246519 0
M  V30 625 H 58.1048 -0.9468 0.0476887 0
M  V30 626 H 57.8108 -3.49226 -0.416398 0
M  V30 627 H 57.6848 -3.11599 -2.1257 0
M  V30 628 H 60.0718 -2.12742 -2.04511 0
M  V30 629 H 60.1528 -2.53718 -0.325704 0
M  V30 630 H 59.7968 -4.99541 -0.917656 0
M  V30 631 H 59.7268 -4.55502 -2.64246 0
M  V30 632 H 62.2178 -3.4526 -1.53635 0
M  V30 633 H 62.5308 -7.29158 -2.56024 0
M  V30 634 H 60.8758 -6.55521 -2.30905 0
M  V30 635 H 64.0668 -4.31026 -1.82577 0
M  V30 636 H 64.2398 -6.06078 -2.29289 0
M  V30 637 N 57.6459 0.756429 -1.3826 0
M  V30 638 C 58.8709 1.55077 -1.37717 0
M  V30 639 C 59.2959 1.88073 0.03164 0
M  V30 640 O 58.6539 1.50364 1.01293 0
M  V30 641 C 58.7019 2.8283 -2.23695 0
M  V30 642 O 57.8059 3.77862 -1.6521 0
M  V30 643 H 57.1469 0.469152 -0.469885 0
M  V30 644 H 59.6769 0.935019 -1.81985 0
M  V30 645 H 59.6869 3.31783 -2.37453 0
M  V30 646 H 58.3619 2.58144 -3.2609 0
M  V30 647 H 56.9389 3.36555 -1.60578 0
M  V30 648 N 59.124 1.23083 0.984299 0
M  V30 649 C 60.072 1.00593 2.09723 0
M  V30 650 C 61.066 -0.0538014 1.69315 0
M  V30 651 O 62.272 0.0993719 1.79725 0
M  V30 652 H 58.647 0.30817 0.685956 0
M  V30 653 H 60.618 1.95012 2.2586 0
M  V30 654 C 59.367 0.609601 3.42314 0
M  V30 655 H 58.69 1.41675 3.73856 0
M  V30 656 H 60.13 0.491726 4.21139 0
M  V30 657 C 58.589 -0.681745 3.2993 0
M  V30 658 O 59.119 -1.73192 3.62446 0
M  V30 659 N 57.325 -0.656178 2.83095 0
M  V30 660 H 56.872 0.198759 2.56832 0
M  V30 661 H 56.83 -1.52044 2.75191 0
M  V30 662 N 60.6021 -1.18246 1.0419 0
M  V30 663 C 61.5491 -2.2192 0.634037 0
M  V30 664 C 62.5191 -1.62179 -0.358765 0
M  V30 665 O 63.7041 -1.89122 -0.252466 0
M  V30 666 C 60.8441 -3.451 0.00445535 0
M  V30 667 C 59.9571 -4.19174 1.04487 0
M  V30 668 C 59.0921 -5.29813 0.383676 0
M  V30 669 C 58.1311 -5.9566 1.4091 0
M  V30 670 N 57.2681 -6.97834 0.772784 0
M  V30 671 H 62.1081 -2.56164 1.52263 0
M  V30 672 H 59.6451 -1.25843 0.761701 0
M  V30 673 H 61.6031 -4.15485 -0.377919 0
M  V30 674 H 60.2331 -3.11472 -0.847652 0
M  V30 675 H 59.2851 -3.47604 1.54518 0
M  V30 676 H 60.5971 -4.64267 1.82368 0
M  V30 677 H 59.7511 -6.06677 -0.0528366 0
M  V30 678 H 58.4901 -4.85825 -0.427208 0
M  V30 679 H 57.4951 -5.17535 1.85574 0
M  V30 680 H 58.7201 -6.4173 2.22171 0
M  V30 681 H 56.6661 -6.55998 -0.0177708 0
M  V30 682 H 56.5831 -7.41186 1.48928 0
M  V30 683 H 57.8511 -7.78665 0.36071 0
M  V30 684 N 62.0802 -0.821533 -1.34494 0
M  V30 685 C 63.0272 -0.240397 -2.29545 0
M  V30 686 C 63.9972 0.634031 -1.53523 0
M  V30 687 O 65.1822 0.575966 -1.81899 0
M  V30 688 C 62.3222 0.592869 -3.39969 0
M  V30 689 C 61.4352 -0.30365 -4.30932 0
M  V30 690 C 60.5702 0.539049 -5.28458 0
M  V30 691 C 59.6092 -0.356942 -6.11058 0
M  V30 692 N 58.7462 0.446603 -7.00678 0
M  V30 693 H 63.5862 -1.05632 -2.7865 0
M  V30 694 H 61.1232 -0.532413 -1.37127 0
M  V30 695 H 63.0812 1.09129 -4.02675 0
M  V30 696 H 61.7112 1.37392 -2.92102 0
M  V30 697 H 60.7632 -0.920276 -3.691 0
M  V30 698 H 62.0752 -0.992661 -4.88823 0
M  V30 699 H 61.2292 1.102 -5.96608 0
M  V30 700 H 59.9682 1.26157 -4.71101 0
M  V30 701 H 58.9732 -0.932047 -5.41842 0
M  V30 702 H 60.1982 -1.07755 -6.70497 0
M  V30 703 H 58.1442 1.15282 -6.45791 0
M  V30 704 H 58.0612 -0.184048 -7.55776 0
M  V30 705 H 59.3292 0.992352 -7.73158 0
M  V30 706 N 63.5583 1.46682 -0.576371 0
M  V30 707 C 64.5063 2.31953 0.17335 0
M  V30 708 C 65.5003 1.44098 0.89062 0
M  V30 709 O 66.7063 1.60759 0.809728 0
M  V30 710 H 63.0813 0.748273 0.0747727 0
M  V30 711 H 65.0523 2.93007 -0.564738 0
M  V30 712 C 63.8013 3.27142 1.17786 0
M  V30 713 H 63.1243 3.94719 0.635361 0
M  V30 714 H 64.5643 3.896 1.67296 0
M  V30 715 C 63.0233 2.52036 2.23561 0
M  V30 716 O 63.5533 2.27877 3.3081 0
M  V30 717 N 61.7593 2.12709 1.97998 0
M  V30 718 H 61.3063 2.32557 1.10792 0
M  V30 719 H 61.2643 1.62776 2.68982 0
M  V30 720 N 65.0364 0.313813 1.54444 0
M  V30 721 C 65.9994 -0.54379 2.22656 0
M  V30 722 C 66.9994 -1.05124 1.21678 0
M  V30 723 O 68.1894 -0.945225 1.46325 0
M  V30 724 C 65.3214 -1.75427 2.92298 0
M  V30 725 H 66.5144 0.0523599 2.99854 0
M  V30 726 H 64.0674 0.0647834 1.56166 0
M  V30 727 H 64.8024 -2.38991 2.19211 0
M  V30 728 H 64.5874 -1.39791 3.66334 0
M  V30 729 H 66.0774 -2.36325 3.44297 0
M  V30 730 N 66.5145 -1.57545 0.0417849 0
M  V30 731 C 67.4645 -2.07483 -0.945247 0
M  V30 732 C 68.4485 -0.977983 -1.27767 0
M  V30 733 O 69.6405 -1.24142 -1.26166 0
M  V30 734 C 66.7695 -2.61576 -2.22335 0
M  V30 735 C 65.8555 -3.78213 -1.91874 0
M  V30 736 N 66.2465 -4.88344 -1.31733 0
M  V30 737 C 64.5445 -3.8694 -2.21796 0
M  V30 738 C 65.2455 -5.69462 -1.1869 0
M  V30 739 N 64.2215 -5.16771 -1.68666 0
M  V30 740 H 68.0235 -2.90029 -0.475441 0
M  V30 741 H 65.5375 -1.61581 -0.162911 0
M  V30 742 H 67.5345 -2.95651 -2.93932 0
M  V30 743 H 66.1945 -1.80465 -2.69931 0
M  V30 744 H 67.2055 -5.08335 -0.990729 0
M  V30 745 H 63.8825 -3.16757 -2.71977 0
M  V30 746 H 65.2725 -6.68023 -0.720793 0
M  V30 747 N 67.9926 0.231505 -1.5589 0
M  V30 748 C 68.9026 1.308 -1.94752 0
M  V30 749 C 69.9186 1.51826 -0.849989 0
M  V30 750 O 71.0946 1.6515 -1.15271 0
M  V30 751 C 68.1596 2.63968 -2.24771 0
M  V30 752 C 67.2206 2.51331 -3.48039 0
M  V30 753 C 66.4536 3.78148 -3.76616 0
M  V30 754 O 66.6766 4.80722 -3.07022 0
M  V30 755 O 65.6106 3.75857 -4.70123 0
M  V30 756 H 69.4366 1.0083 -2.86474 0
M  V30 757 H 67.0216 0.433547 -1.42971 0
M  V30 758 H 68.9036 3.42633 -2.45318 0
M  V30 759 H 67.5786 2.9364 -1.36225 0
M  V30 760 H 66.4856 1.709 -3.32782 0
M  V30 761 H 67.8186 2.26601 -4.36936 0
M  V30 762 N 69.4707 1.49531 0.497807 0
M  V30 763 C 70.7187 1.58865 1.24926 0
M  V30 764 C 71.0397 0.278721 1.92998 0
M  V30 765 O 70.3097 -0.702144 1.82885 0
M  V30 766 H 68.8897 0.585343 0.464094 0
M  V30 767 H 71.5517 1.86174 0.57666 0
M  V30 768 H 70.6477 2.38633 2.01149 0
M  V30 769 N 70.9488 -0.749086 1.3866 0
M  V30 770 C 72.2258 -1.4992 1.25632 0
M  V30 771 C 72.6058 -2.10633 -0.140317 0
M  V30 772 O 71.9538 -1.97437 -1.15025 0
M  V30 773 C 72.1638 -2.56195 2.36992 0
M  V30 774 C 73.5118 -3.22972 2.75634 0
M  V30 775 O 74.5358 -2.66502 2.36337 0
M  V30 776 O 73.3948 -4.25122 3.43415 0
M  V30 777 H 70.4888 -0.665067 0.491544 0
M  V30 778 H 73.0348 -0.784113 1.50498 0
M  V30 779 H 71.8068 -2.09612 3.30422 0
M  V30 780 H 71.4298 -3.35279 2.13714 0
M  V30 781 N 72.4269 -1.23603 -0.977757 0
M  V30 782 C 73.3599 -0.962772 -2.06896 0
M  V30 783 C 74.3379 0.0998743 -1.62293 0
M  V30 784 O 75.5219 -0.0349421 -1.88468 0
M  V30 785 C 72.6489 -0.45095 -3.35685 0
M  V30 786 C 71.6949 -1.50061 -3.99229 0
M  V30 787 S 72.5279 -3.07884 -4.38142 0
M  V30 788 C 73.6839 -2.58378 -5.7008 0
M  V30 789 H 73.9169 -1.88677 -2.29757 0
M  V30 790 H 71.4499 -1.06876 -1.11431 0
M  V30 791 H 73.4079 -0.162261 -4.10179 0
M  V30 792 H 72.0689 0.452179 -3.10828 0
M  V30 793 H 71.2619 -1.09269 -4.92013 0
M  V30 794 H 70.8639 -1.73878 -3.31123 0
M  V30 795 H 73.1559 -2.00563 -6.47133 0
M  V30 796 H 74.0989 -3.49711 -6.15717 0
M  V30 797 H 74.5069 -1.99143 -5.28207 0
M  V30 798 N 73.905 1.17692 -1.04816 0
M  V30 799 C 74.853 2.23632 -0.63966 0
M  V30 800 C 75.847 1.6601 0.337219 0
M  V30 801 O 77.053 1.78844 0.203693 0
M  V30 802 H 73.428 0.727949 -0.188665 0
M  V30 803 H 75.399 2.55387 -1.54337 0
M  V30 804 C 74.148 3.4769 -0.0264051 0
M  V30 805 H 73.471 3.92331 -0.769164 0
M  V30 806 H 74.911 4.23418 0.222098 0
M  V30 807 C 73.37 3.13807 1.22584 0
M  V30 808 O 73.9 3.28236 2.31569 0
M  V30 809 N 72.106 2.68065 1.12202 0
M  V30 810 H 71.653 2.56525 0.235133 0
M  V30 811 H 71.611 2.45767 1.96076 0
M  V30 812 N 75.3831 0.828654 1.34056 0
M  V30 813 C 76.3311 0.242973 2.31327 0
M  V30 814 C 77.3251 -0.61944 1.57668 0
M  V30 815 O 78.5311 -0.51014 1.7262 0
M  V30 816 H 74.9061 0.059834 0.749616 0
M  V30 817 H 76.8771 1.07809 2.78244 0
M  V30 818 C 75.6261 -0.575733 3.429 0
M  V30 819 H 74.9491 0.0785582 3.99723 0
M  V30 820 H 76.3891 -0.951547 4.13185 0
M  V30 821 C 74.8481 -1.75044 2.87856 0
M  V30 822 O 75.3781 -2.84882 2.83205 0
M  V30 823 N 73.5841 -1.56903 2.44602 0
M  V30 824 H 73.1311 -0.675547 2.48584 0
M  V30 825 H 73.0891 -2.35652 2.08124 0
M  V30 826 N 76.8612 -1.46375 0.584142 0
M  V30 827 C 78.1382 -1.956 0.0033388 0
M  V30 828 C 78.5182 -1.52679 -1.45782 0
M  V30 829 O 77.8662 -0.77816 -2.14842 0
M  V30 830 C 78.0762 -3.48551 0.176891 0
M  V30 831 C 79.4242 -4.24576 0.0454609 0
M  V30 832 O 80.4482 -3.56043 0.105801 0
M  V30 833 O 79.3072 -5.46427 -0.0890376 0
M  V30 834 H 76.4012 -0.825547 -0.0490066 0
M  V30 835 H 78.9472 -1.56652 0.65256 0
M  V30 836 H 77.7192 -3.72683 1.1926 0
M  V30 837 H 77.3422 -3.94332 -0.508695 0
M  V30 838 N 78.3393 -0.321999 -1.54275 0
M  V30 839 C 79.5873 0.280489 -2.00144 0
M  V30 840 C 79.9083 1.52777 -1.21178 0
M  V30 841 O 79.1783 1.9338 -0.313187 0
M  V30 842 H 77.7583 0.106632 -0.73935 0
M  V30 843 H 80.4203 -0.438184 -1.8991 0
M  V30 844 H 79.5163 0.537972 -3.07428 0
M  V30 845 N 79.8174 1.5752 -0.0501392 0
M  V30 846 C 80.7274 2.14952 0.939827 0
M  V30 847 C 81.7434 1.10706 1.34239 0
M  V30 848 O 82.9194 1.42869 1.41952 0
M  V30 849 C 79.9844 2.68232 2.19665 0
M  V30 850 C 79.0454 3.87272 1.85253 0
M  V30 851 C 78.2784 4.38002 3.04943 0
M  V30 852 O 78.5014 3.87811 4.18281 0
M  V30 853 O 77.4354 5.29602 2.86017 0
M  V30 854 H 81.2614 2.9986 0.481392 0
M  V30 855 H 78.8464 1.4841 0.171699 0
M  V30 856 H 80.7284 3.02475 2.93406 0
M  V30 857 H 79.4034 1.86395 2.64648 0
M  V30 858 H 78.3104 3.5792 1.0883 0
M  V30 859 H 79.6434 4.70336 1.4507 0
M  V30 860 N 81.2955 -0.223234 1.56011 0
M  V30 861 C 82.5725 -0.972108 1.69733 0
M  V30 862 C 82.9525 -2.02485 0.59691 0
M  V30 863 O 82.3005 -2.25037 -0.396324 0
M  V30 864 C 82.5105 -1.58407 3.10979 0
M  V30 865 C 83.8585 -2.07696 3.70334 0
M  V30 866 O 84.8825 -1.68304 3.1393 0
M  V30 867 O 83.7415 -2.80096 4.69264 0
M  V30 868 H 80.8355 -0.453993 0.691245 0
M  V30 869 H 83.3815 -0.215149 1.68331 0
M  V30 870 H 82.1535 -0.823831 3.82529 0
M  V30 871 H 81.7765 -2.40661 3.16493 0
M  V30 872 N 82.7736 -1.49793 -0.48987 0
M  V30 873 C 84.0506 -1.50348 -1.25119 0
M  V30 874 C 84.4306 -0.237466 -2.0976 0
M  V30 875 O 83.7786 0.77981 -2.14782 0
M  V30 876 C 83.9886 -2.78872 -2.09837 0
M  V30 877 C 85.3366 -3.288 -2.68655 0
M  V30 878 O 86.3606 -2.80065 -2.20096 0
M  V30 879 O 85.2196 -4.13707 -3.57083 0
M  V30 880 H 82.3136 -0.602242 -0.566775 0
M  V30 881 H 84.8596 -1.62067 -0.503229 0
M  V30 882 H 83.6316 -3.62499 -1.47343 0
M  V30 883 H 83.2546 -2.70066 -2.91805 0
M  V30 884 N 84.2517 0.741722 -1.39055 0
M  V30 885 C 85.6677 1.04638 -1.20512 0
M  V30 886 C 85.8677 2.01405 -0.0620218 0
M  V30 887 O 84.9237 2.45547 0.588457 0
M  V30 888 C 86.2367 1.6151 -2.53643 0
M  V30 889 C 87.7847 1.73623 -2.6043 0
M  V30 890 C 88.2597 2.33906 -3.93767 0
M  V30 891 N 89.7507 2.41323 -3.9537 0
M  V30 892 C 90.4857 2.88888 -4.95309 0
M  V30 893 N 89.9817 3.36401 -6.05645 0
M  V30 894 N 91.7747 2.88037 -4.82692 0
M  V30 895 H 83.9257 0.0998155 -2.12165 0
M  V30 896 H 86.1887 0.106907 -0.941953 0
M  V30 897 H 85.8947 0.978739 -3.37807 0
M  V30 898 H 85.7687 2.60411 -2.72885 0
M  V30 899 H 88.1557 2.36384 -1.76655 0
M  V30 900 H 88.2367 0.733945 -2.45045 0
M  V30 901 H 87.8807 1.71776 -4.7797 0
M  V30 902 H 87.8107 3.34799 -4.06469 0
M  V30 903 H 90.3017 2.07734 -3.15682 0
M  V30 904 H 90.6147 3.71186 -6.77821 0
M  V30 905 H 88.9597 3.34427 -6.09248 0
M  V30 906 H 92.1507 2.50237 -3.95599 0
M  V30 907 H 92.3237 3.24792 -5.60726 0
M  V30 908 N 85.7298 1.2412 0.971189 0
M  V30 909 C 86.9598 1.10415 1.7462 0
M  V30 910 C 87.3678 -0.346462 1.86001 0
M  V30 911 O 86.7108 -1.25104 1.34517 0
M  V30 912 C 86.7728 1.66596 3.18568 0
M  V30 913 C 86.4368 3.15446 3.3067 0
M  V30 914 C 87.4338 4.12636 3.16271 0
M  V30 915 C 85.1188 3.55337 3.55022 0
M  V30 916 C 87.1128 5.47699 3.26044 0
M  V30 917 C 84.7998 4.90542 3.64434 0
M  V30 918 C 85.7978 5.86532 3.49956 0
M  V30 919 O 85.4858 7.19279 3.59017 0
M  V30 920 H 85.2178 0.386616 0.55453 0
M  V30 921 H 87.7718 1.64633 1.22821 0
M  V30 922 H 86.0018 1.06808 3.71657 0
M  V30 923 H 87.6908 1.48232 3.77865 0
M  V30 924 H 88.4568 3.8316 2.97344 0
M  V30 925 H 84.3358 2.8113 3.65359 0
M  V30 926 H 87.8798 6.22603 3.14661 0
M  V30 927 H 83.7768 5.19691 3.82873 0
M  V30 928 H 84.5448 7.27153 3.75754 0
M  V30 929 N 87.2079 -1.17134 1.05439 0
M  V30 930 C 88.1549 -2.21235 0.657539 0
M  V30 931 C 89.1249 -1.62551 -0.341543 0
M  V30 932 O 90.3099 -1.89379 -0.232393 0
M  V30 933 C 87.4499 -3.45076 0.0410575 0
M  V30 934 C 86.5629 -4.18042 1.08927 0
M  V30 935 C 85.6979 -5.29376 0.439848 0
M  V30 936 C 84.7369 -5.94132 1.4722 0
M  V30 937 N 83.8739 -6.96975 0.846756 0
M  V30 938 H 88.7139 -2.54534 1.54972 0
M  V30 939 H 86.2509 -1.25028 0.775006 0
M  V30 940 H 88.2089 -4.15862 -0.33383 0
M  V30 941 H 86.8389 -3.12353 -0.814568 0
M  V30 942 H 85.8909 -3.45945 1.58196 0
M  V30 943 H 87.2029 -4.62306 1.87282 0
M  V30 944 H 86.3569 -6.06699 0.0115125 0
M  V30 945 H 85.0959 -4.86251 -0.375656 0
M  V30 946 H 84.1009 -5.15538 1.91052 0
M  V30 947 H 85.3259 -6.39337 2.28965 0
M  V30 948 H 83.2719 -6.5598 0.0518075 0
M  V30 949 H 83.1889 -7.39565 1.5678 0
M  V30 950 H 84.4569 -7.78239 0.443277 0
M  V30 951 N 88.686 -0.835752 -1.33615 0
M  V30 952 C 89.933 -0.429959 -1.97883 0
M  V30 953 C 90.261 1.01006 -1.66217 0
M  V30 954 O 89.516 1.72047 -0.93265 0
M  V30 955 C 89.815 -0.593925 -3.52431 0
M  V30 956 C 89.481 -2.00158 -4.04039 0
M  V30 957 C 88.143 -2.38662 -4.17844 0
M  V30 958 C 90.495 -2.92117 -4.31644 0
M  V30 959 C 87.823 -3.68435 -4.56588 0
M  V30 960 C 90.175 -4.21368 -4.71838 0
M  V30 961 C 88.839 -4.59833 -4.83849 0
M  V30 962 H 88.109 -0.157333 -0.724104 0
M  V30 963 H 90.756 -1.06217 -1.59343 0
M  V30 964 H 89.061 0.121619 -3.91611 0
M  V30 965 H 90.758 -0.260282 -4.00154 0
M  V30 966 H 87.348 -1.69252 -3.93766 0
M  V30 967 H 91.532 -2.63608 -4.20505 0
M  V30 968 H 86.788 -3.98046 -4.64079 0
M  V30 969 H 90.962 -4.92703 -4.92155 0
M  V30 970 H 88.589 -5.60438 -5.13627 0
M  V30 971 N 90.1641 1.46063 -0.591896 0
M  V30 972 C 91.3891 2.07226 -0.0850314 0
M  V30 973 C 91.8141 1.43625 1.21463 0
M  V30 974 O 91.1721 0.523305 1.73583 0
M  V30 975 C 91.2201 3.60554 0.0576567 0
M  V30 976 O 90.3241 3.97128 1.11188 0
M  V30 977 H 89.6651 0.660615 -0.0669568 0
M  V30 978 H 92.1951 1.8756 -0.81745 0
M  V30 979 H 92.2051 4.07165 0.2609 0
M  V30 980 H 90.8801 4.06235 -0.891416 0
M  V30 981 H 89.4571 3.62213 0.886356 0
M  V30 982 N 91.6422 0.330177 1.54103 0
M  V30 983 C 93.0582 -0.0222371 1.59585 0
M  V30 984 C 93.2582 -1.49902 1.34654 0
M  V30 985 O 92.3142 -2.25592 1.13421 0
M  V30 986 C 93.6272 0.401932 2.98002 0
M  V30 987 C 95.1752 0.353145 3.11001 0
M  V30 988 C 95.6502 0.752576 4.51775 0
M  V30 989 N 97.1412 0.706239 4.57784 0
M  V30 990 C 97.8762 0.987417 5.64834 0
M  V30 991 N 97.3722 1.33607 6.79795 0
M  V30 992 N 99.1652 0.91254 5.54643 0
M  V30 993 H 91.3162 1.29228 1.68564 0
M  V30 994 H 93.5792 0.525906 0.78875 0
M  V30 995 H 93.2852 1.4311 3.21267 0
M  V30 996 H 93.1592 -0.229699 3.765 0
M  V30 997 H 95.5462 -0.666822 2.87467 0
M  V30 998 H 95.6272 1.0198 2.34593 0
M  V30 999 H 95.2712 1.77049 4.76042 0
M  V30 1000 H 95.2012 0.0635409 5.26562 0
M  V30 1001 H 97.6922 0.44889 3.75224 0
M  V30 1002 H 98.0052 1.53582 7.57385 0
M  V30 1003 H 96.3502 1.37439 6.81275 0
M  V30 1004 H 99.5412 0.639601 4.6371 0
M  V30 1005 H 99.7142 1.13503 6.37982 0
M  V30 1006 N 93.1203 -1.57491 0.0584922 0
M  V30 1007 C 94.3683 -1.92597 -0.612436 0
M  V30 1008 C 94.6893 -0.938162 -1.70949 0
M  V30 1009 O 93.9593 0.0158301 -1.95894 0
M  V30 1010 H 92.5393 -0.710964 -0.229214 0
M  V30 1011 H 95.2013 -1.94571 0.113218 0
M  V30 1012 H 94.2973 -2.94038 -1.04633 0
M  V30 1013 N 94.5984 0.214957 -1.56127 0
M  V30 1014 C 95.8454 0.938372 -1.79446 0
M  V30 1015 C 96.1734 1.8407 -0.628378 0
M  V30 1016 O 95.4284 1.91837 0.386925 0
M  V30 1017 C 95.7274 1.80314 -3.0858 0
M  V30 1018 C 95.3934 1.05349 -4.3842 0
M  V30 1019 C 94.0554 0.846435 -4.73697 0
M  V30 1020 C 96.4074 0.524588 -5.18553 0
M  V30 1021 C 93.7354 0.098683 -5.86617 0
M  V30 1022 C 96.0874 -0.209853 -6.32252 0
M  V30 1023 C 94.7514 -0.428102 -6.66126 0
M  V30 1024 H 94.0214 0.343375 -0.656639 0
M  V30 1025 H 96.6684 0.206077 -1.90388 0
M  V30 1026 H 94.9734 2.6035 -2.92789 0
M  V30 1027 H 96.6704 2.36513 -3.23825 0
M  V30 1028 H 93.2604 1.22486 -4.10725 0
M  V30 1029 H 97.4444 0.672008 -4.91729 0
M  V30 1030 H 92.7004 -0.0805753 -6.11347 0
M  V30 1031 H 96.8744 -0.627157 -6.9357 0
M  V30 1032 H 94.5014 -1.00944 -7.53468 0
M  V30 1033 N 96.0765 1.50051 0.48192 0
M  V30 1034 C 97.3015 1.64508 1.26301 0
M  V30 1035 C 97.7265 0.323851 1.85291 0
M  V30 1036 O 97.0845 -0.710969 1.66778 0
M  V30 1037 C 97.1325 2.7305 2.35533 0
M  V30 1038 O 96.2365 2.3355 3.39895 0
M  V30 1039 H 95.5775 0.549978 0.372048 0
M  V30 1040 H 98.1075 1.9636 0.574786 0
M  V30 1041 H 98.1175 2.95799 2.8101 0
M  V30 1042 H 96.7925 3.68946 1.91967 0
M  V30 1043 H 95.3695 2.21205 3.00204 0
M  V30 1044 N 97.5546 -0.734337 1.39446 0
M  V30 1045 C 98.4846 -1.86155 1.40955 0
M  V30 1046 C 99.4656 -1.67898 0.272827 0
M  V30 1047 O 100.651 -1.88207 0.478743 0
M  V30 1048 C 97.7806 -3.23912 1.25294 0
M  V30 1049 C 96.7346 -3.56808 2.36373 0
M  V30 1050 C 96.0606 -4.93508 2.058 0
M  V30 1051 C 97.3606 -3.59713 3.78687 0
M  V30 1052 H 99.0546 -1.8515 2.35287 0
M  V30 1053 H 96.6006 -0.889367 1.13253 0
M  V30 1054 H 98.5536 -4.02443 1.2497 0
M  V30 1055 H 97.2776 -3.25446 0.274308 0
M  V30 1056 H 95.9366 -2.80606 2.35914 0
M  V30 1057 H 95.5846 -4.91623 1.06374 0
M  V30 1058 H 95.2846 -5.16486 2.80208 0
M  V30 1059 H 96.8086 -5.74396 2.07128 0
M  V30 1060 H 98.2226 -4.2832 3.81071 0
M  V30 1061 H 96.6196 -3.94209 4.52459 0
M  V30 1062 H 97.6896 -2.59504 4.09617 0
M  V30 1063 N 99.0327 -1.24633 -0.964593 0
M  V30 1064 C 100.258 -1.11596 -1.74818 0
M  V30 1065 C 100.683 0.32723 -1.85232 0
M  V30 1066 O 100.041 1.23695 -1.32549 0
M  V30 1067 C 100.089 -1.76397 -3.1451 0
M  V30 1068 O 99.1927 -1.03685 -3.99153 0
M  V30 1069 H 98.5337 -0.390196 -0.537255 0
M  V30 1070 H 101.064 -1.65002 -1.20977 0
M  V30 1071 H 101.074 -1.8228 -3.65018 0
M  V30 1072 H 99.7487 -2.81401 -3.06246 0
M  V30 1073 H 98.3257 -1.05611 -3.57632 0
M  V30 1074 N 100.511 1.16574 -1.06058 0
M  V30 1075 C 101.458 2.20883 -0.669263 0
M  V30 1076 C 102.428 1.62729 0.332918 0
M  V30 1077 O 103.613 1.895 0.222346 0
M  V30 1078 C 100.753 3.45049 -0.0593572 0
M  V30 1079 C 99.8658 4.17458 -1.11143 0
M  V30 1080 C 99.0008 5.29135 -0.467916 0
M  V30 1081 C 98.0398 5.93343 -1.50369 0
M  V30 1082 N 97.1768 6.96516 -0.883706 0
M  V30 1083 H 102.017 2.53709 -1.5632 0
M  V30 1084 H 99.5538 1.24616 -0.781625 0
M  V30 1085 H 101.512 4.16033 0.311771 0
M  V30 1086 H 100.142 3.12781 0.797992 0
M  V30 1087 H 99.1938 3.45101 -1.60029 0
M  V30 1088 H 100.506 4.61307 -1.89731 0
M  V30 1089 H 99.6598 6.06684 -0.0436871 0
M  V30 1090 H 98.3988 4.86443 0.349864 0
M  V30 1091 H 97.4038 5.14517 -1.93784 0
M  V30 1092 H 98.6288 6.38114 -2.32352 0
M  V30 1093 H 96.5748 6.55943 -0.086595 0
M  V30 1094 H 96.4918 7.38723 -1.607 0
M  V30 1095 H 97.7598 7.77993 -0.484543 0
M  V30 1096 N 101.989 0.842826 1.3317 0
M  V30 1097 C 102.936 0.276885 2.29133 0
M  V30 1098 C 103.906 -0.609527 1.54512 0
M  V30 1099 O 105.091 -0.546955 1.82792 0
M  V30 1100 C 102.231 -0.538707 3.40869 0
M  V30 1101 C 101.344 0.372169 4.30394 0
M  V30 1102 C 100.479 -0.454908 5.29249 0
M  V30 1103 C 99.5179 0.45411 6.10413 0
M  V30 1104 N 98.6549 -0.335075 7.013 0
M  V30 1105 H 103.495 1.10052 2.76934 0
M  V30 1106 H 101.032 0.554161 1.36262 0
M  V30 1107 H 102.99 -1.02709 4.0436 0
M  V30 1108 H 101.62 -1.32727 2.9425 0
M  V30 1109 H 100.672 0.97888 3.6759 0
M  V30 1110 H 101.984 1.0703 4.87182 0
M  V30 1111 H 101.138 -1.00695 5.98285 0
M  V30 1112 H 99.8769 -1.18646 4.73048 0
M  V30 1113 H 98.8819 1.01813 5.40291 0
M  V30 1114 H 100.107 1.18409 6.68697 0
M  V30 1115 H 98.0529 -1.04994 6.47543 0
M  V30 1116 H 97.9699 0.304262 7.55387 0
M  V30 1117 H 99.2379 -0.869224 7.74638 0
M  V30 1118 N 103.467 -1.45747 0.599634 0
M  V30 1119 C 104.878 -1.85853 0.177681 0
M  V30 1120 C 105.229 -1.50102 -1.26348 0
M  V30 1121 O 104.354 -0.923905 -1.95686 0
M  V30 1122 C 104.949 -3.37326 0.315688 0
M  V30 1123 C 103.508 -3.76365 -0.0515144 0
M  V30 1124 C 102.655 -2.69722 0.643822 0
M  V30 1125 H 105.606 -1.36661 0.806814 0
M  V30 1126 H 105.627 -3.77778 -0.454321 0
M  V30 1127 H 105.139 -3.63315 1.36468 0
M  V30 1128 H 103.24 -3.55993 -1.09999 0
M  V30 1129 H 103.353 -4.77916 0.336594 0
M  V30 1130 H 101.717 -2.54567 0.0822881 0
M  V30 1131 H 102.5 -2.98549 1.6948 0
M  V30 1132 N 104.945 -0.338344 -1.53925 0
M  V30 1133 C 106.17 0.263987 -2.05713 0
M  V30 1134 C 106.595 1.43847 -1.21201 0
M  V30 1135 O 105.953 1.79904 -0.224535 0
M  V30 1136 C 106.001 0.662 -3.54471 0
M  V30 1137 O 105.105 1.76265 -3.72833 0
M  V30 1138 H 104.446 0.0448722 -0.662482 0
M  V30 1139 H 106.976 -0.491048 -1.9862 0
M  V30 1140 H 106.986 0.940594 -3.9701 0
M  V30 1141 H 105.661 -0.196937 -4.15433 0
M  V30 1142 H 104.238 1.48173 -3.42198 0
M  V30 1143 N 106.423 1.57458 -0.0668435 0
M  V30 1144 C 107.37 2.12439 0.902122 0
M  V30 1145 C 108.34 1.03565 1.2986 0
M  V30 1146 O 109.525 1.312 1.38532 0
M  V30 1147 C 106.665 2.6865 2.16614 0
M  V30 1148 C 105.778 3.91663 1.82274 0
M  V30 1149 C 104.913 4.36134 3.0325 0
M  V30 1150 C 103.952 5.51808 2.64904 0
M  V30 1151 N 103.089 5.9126 3.78624 0
M  V30 1152 H 107.929 2.94934 0.426382 0
M  V30 1153 H 105.466 1.4575 0.198819 0
M  V30 1154 H 107.424 2.99346 2.90599 0
M  V30 1155 H 106.054 1.88928 2.61737 0
M  V30 1156 H 105.106 3.6746 0.983719 0
M  V30 1157 H 106.418 4.75693 1.50059 0
M  V30 1158 H 105.572 4.68465 3.85519 0
M  V30 1159 H 104.311 3.50948 3.38655 0
M  V30 1160 H 103.316 5.19133 1.81055 0
M  V30 1161 H 104.541 6.38722 2.30675 0
M  V30 1162 H 102.487 5.09024 4.138 0
M  V30 1163 H 102.404 6.70018 3.5016 0
M  V30 1164 H 103.672 6.28212 4.61486 0
M  V30 1165 N 107.901 -0.206675 1.56239 0
M  V30 1166 C 109.129 -0.945345 1.8404 0
M  V30 1167 C 109.544 -1.77336 0.647885 0
M  V30 1168 O 108.901 -1.78425 -0.383511 0
M  V30 1169 C 108.952 -1.8509 3.10522 0
M  V30 1170 O 108.673 -1.05634 4.25174 0
M  V30 1171 C 110.174 -2.70222 3.51418 0
M  V30 1172 H 107.394 -0.276372 0.61144 0
M  V30 1173 H 109.938 -0.217417 2.03341 0
M  V30 1174 H 108.093 -2.53259 2.93153 0
M  V30 1175 H 108.507 -1.67238 4.97124 0
M  V30 1176 H 109.981 -3.29438 4.42916 0
M  V30 1177 H 110.458 -3.43358 2.73864 0
M  V30 1178 H 111.064 -2.07443 3.71278 0
M  V30 1179 N 109.379 -1.50304 -0.473955 0
M  V30 1180 C 110.326 -1.68959 -1.57231 0
M  V30 1181 C 111.296 -0.530899 -1.57387 0
M  V30 1182 O 112.481 -0.761133 -1.74961 0
M  V30 1183 C 109.621 -1.7871 -2.95223 0
M  V30 1184 C 108.734 -3.06061 -3.04878 0
M  V30 1185 C 107.869 -3.06626 -4.33767 0
M  V30 1186 C 106.908 -4.28443 -4.37154 0
M  V30 1187 N 106.045 -4.26763 -5.5751 0
M  V30 1188 H 110.885 -2.6273 -1.40631 0
M  V30 1189 H 108.422 -1.30241 -0.683789 0
M  V30 1190 H 110.38 -1.82344 -3.75242 0
M  V30 1191 H 109.01 -0.883806 -3.10465 0
M  V30 1192 H 108.062 -3.11911 -2.17751 0
M  V30 1193 H 109.374 -3.96039 -3.0324 0
M  V30 1194 H 108.528 -3.08973 -5.22131 0
M  V30 1195 H 107.267 -2.14473 -4.3801 0
M  V30 1196 H 106.272 -4.2631 -3.47188 0
M  V30 1197 H 107.497 -5.2182 -4.34605 0
M  V30 1198 H 105.443 -3.37462 -5.62544 0
M  V30 1199 H 105.36 -5.10507 -5.57601 0
M  V30 1200 H 106.628 -4.33253 -6.48006 0
M  V30 1201 N 110.857 0.726932 -1.39834 0
M  V30 1202 C 112.106 1.48214 -1.36805 0
M  V30 1203 C 112.419 1.95576 0.0305291 0
M  V30 1204 O 113.625 2.7088 0.183417 0
M  V30 1205 C 112.081 2.67854 -2.40379 0
M  V30 1206 C 111.689 2.27408 -3.85992 0
M  V30 1207 C 113.433 3.45641 -2.46439 0
M  V30 1208 C 111.34 3.43819 -4.81189 0
M  V30 1209 H 110.27 0.556606 -0.508631 0
M  V30 1210 H 112.921 0.792216 -1.65518 0
M  V30 1211 H 111.303 3.3896 -2.04749 0
M  V30 1212 H 112.477 1.63795 -4.30706 0
M  V30 1213 H 110.792 1.62692 -3.83302 0
M  V30 1214 H 113.389 4.32244 -3.14753 0
M  V30 1215 H 113.732 3.88669 -1.49139 0
M  V30 1216 H 114.265 2.8157 -2.81004 0
M  V30 1217 H 111.004 3.05834 -5.79781 0
M  V30 1218 H 110.524 4.06385 -4.41148 0
M  V30 1219 H 112.203 4.10043 -5.00474 0
M  V30 1220 N 112.336 1.25143 0.95797 0
M  V30 1221 C 113.747 1.08851 1.51685 0
M  V30 1222 C 114.098 -0.33687 1.93286 0
M  V30 1223 O 113.223 -1.22644 1.7829 0
M  V30 1224 C 113.818 1.96978 2.75654 0
M  V30 1225 C 112.377 1.84881 3.27866 0
M  V30 1226 C 111.524 1.91329 2.0072 0
M  V30 1227 H 114.475 1.38478 0.77522 0
M  V30 1228 H 114.496 1.5078 3.4935 0
M  V30 1229 H 114.008 3.00712 2.45345 0
M  V30 1230 H 112.109 0.840182 3.63004 0
M  V30 1231 H 112.222 2.6951 3.96107 0
M  V30 1232 H 110.586 1.35174 2.15871 0
M  V30 1233 H 111.369 2.96661 1.72764 0
M  V30 1234 N 113.814 -1.1601 1.06675 0
M  V30 1235 C 115.063 -1.85973 0.780818 0
M  V30 1236 C 115.376 -1.82819 -0.695444 0
M  V30 1237 O 116.582 -2.484 -1.09589 0
M  V30 1238 C 115.038 -3.33757 1.34665 0
M  V30 1239 C 114.646 -3.45374 2.85343 0
M  V30 1240 C 116.39 -4.0895 1.13843 0
M  V30 1241 C 114.297 -4.87266 3.35151 0
M  V30 1242 H 113.227 -0.696661 0.288407 0
M  V30 1243 H 115.878 -1.30903 1.28595 0
M  V30 1244 H 114.26 -3.88456 0.769274 0
M  V30 1245 H 115.434 -3.00816 3.49065 0
M  V30 1246 H 113.749 -2.83619 3.04876 0
M  V30 1247 H 116.346 -5.13654 1.4854 0
M  V30 1248 H 116.689 -4.16229 0.0770282 0
M  V30 1249 H 117.222 -3.605 1.68179 0
M  V30 1250 H 113.961 -4.85168 4.40786 0
M  V30 1251 H 113.481 -5.32433 2.76179 0
M  V30 1252 H 115.16 -5.56097 3.30704 0
M  V30 1253 N 115.292 -0.849877 -1.32721 0
M  V30 1254 C 116.52 -0.464754 -2.01613 0
M  V30 1255 C 116.935 0.937191 -1.63897 0
M  V30 1256 O 116.292 1.61081 -0.857856 0
M  V30 1257 C 116.343 -0.588638 -3.56675 0
M  V30 1258 O 116.064 -1.93535 -3.93034 0
M  V30 1259 C 117.565 -0.2019 -4.4284 0
M  V30 1260 H 114.785 -0.183215 -0.645502 0
M  V30 1261 H 117.329 -1.1455 -1.69407 0
M  V30 1262 H 115.484 0.0443159 -3.87375 0
M  V30 1263 H 115.898 -1.92871 -4.87751 0
M  V30 1264 H 117.372 -0.339599 -5.50954 0
M  V30 1265 H 117.849 0.857224 -4.30753 0
M  V30 1266 H 118.455 -0.809733 -4.17521 0
M  V30 1267 N 116.77 1.45427 -0.607355 0
M  V30 1268 C 117.717 2.3053 0.111625 0
M  V30 1269 C 118.687 1.4209 0.860216 0
M  V30 1270 O 119.872 1.71019 0.845998 0
M  V30 1271 C 117.012 3.26992 1.10319 0
M  V30 1272 C 116.125 4.30535 0.355493 0
M  V30 1273 C 115.26 5.14105 1.33676 0
M  V30 1274 C 114.299 6.09376 0.576862 0
M  V30 1275 N 113.436 6.85727 1.5074 0
M  V30 1276 H 118.276 2.91477 -0.620093 0
M  V30 1277 H 115.813 1.43631 -0.317594 0
M  V30 1278 H 117.771 3.81385 1.6912 0
M  V30 1279 H 116.401 2.67799 1.80232 0
M  V30 1280 H 115.453 3.78805 -0.348023 0
M  V30 1281 H 116.765 4.98235 -0.237423 0
M  V30 1282 H 115.919 5.72897 1.99684 0
M  V30 1283 H 114.658 4.46423 1.9636 0
M  V30 1284 H 113.663 5.49715 -0.0968519 0
M  V30 1285 H 114.888 6.79085 -0.0449341 0
M  V30 1286 H 112.834 6.20735 2.12189 0
M  V30 1287 H 112.751 7.49778 0.967913 0
M  V30 1288 H 114.019 7.4906 2.15706 0
M  V30 1289 N 118.248 0.346503 1.53744 0
M  V30 1290 C 119.476 -0.25041 2.05379 0
M  V30 1291 C 119.891 -1.43979 1.22129 0
M  V30 1292 O 119.248 -1.80677 0.257321 0
M  V30 1293 C 119.299 -0.662575 3.55376 0
M  V30 1294 O 119.02 0.479515 4.35468 0
M  V30 1295 C 120.521 -1.31989 4.23195 0
M  V30 1296 H 117.741 -0.0478198 0.669294 0
M  V30 1297 H 120.285 0.499346 1.9831 0
M  V30 1298 H 118.44 -1.36227 3.62658 0
M  V30 1299 H 118.854 0.15037 5.24284 0
M  V30 1300 H 120.328 -1.55902 5.29527 0
M  V30 1301 H 120.805 -2.27436 3.75725 0
M  V30 1302 H 121.411 -0.662154 4.20114 0
M  V30 1303 N 119.726 -1.57421 0.075193 0
M  V30 1304 C 121.003 -1.85029 -0.634329 0
M  V30 1305 C 121.383 -0.968305 -1.87582 0
M  V30 1306 O 120.731 -0.0354749 -2.28472 0
M  V30 1307 C 120.941 -3.35286 -0.968742 0
M  V30 1308 C 122.289 -4.02875 -1.34077 0
M  V30 1309 O 123.313 -3.40051 -1.06037 0
M  V30 1310 O 122.172 -5.13691 -1.86506 0
M  V30 1311 H 119.266 -0.7645 -0.315387 0
M  V30 1312 H 121.812 -1.69366 0.106382 0
M  V30 1313 H 120.584 -3.91203 -0.0871376 0
M  V30 1314 H 120.207 -3.56223 -1.7661 0
M  V30 1315 N 121.204 0.198386 -1.56346 0
M  V30 1316 C 122.429 0.939682 -1.84891 0
M  V30 1317 C 122.854 1.76202 -0.658369 0
M  V30 1318 O 122.212 1.76993 0.392851 0
M  V30 1319 C 122.26 1.81428 -3.11635 0
M  V30 1320 O 121.364 2.91265 -2.91956 0
M  V30 1321 H 120.705 0.264807 -0.608912 0
M  V30 1322 H 123.235 0.204695 -2.03573 0
M  V30 1323 H 123.245 2.21958 -3.42343 0
M  V30 1324 H 121.92 1.21004 -3.97908 0
M  V30 1325 H 120.497 2.54514 -2.72538 0
M  V30 1326 N 122.682 1.50554 0.465978 0
M  V30 1327 C 123.592 1.72585 1.58907 0
M  V30 1328 C 124.608 0.60911 1.6299 0
M  V30 1329 O 125.784 0.88804 1.80765 0
M  V30 1330 C 122.849 1.81995 2.95091 0
M  V30 1331 C 121.91 3.05751 3.01355 0
M  V30 1332 C 121.143 3.14702 4.31043 0
M  V30 1333 O 121.366 2.30313 5.21835 0
M  V30 1334 O 120.3 4.07468 4.43005 0
M  V30 1335 H 124.126 2.67799 1.43239 0
M  V30 1336 H 121.711 1.34711 0.646013 0
M  V30 1337 H 123.593 1.90335 3.75966 0
M  V30 1338 H 122.268 0.899659 3.10947 0
M  V30 1339 H 121.175 3.02908 2.19539 0
M  V30 1340 H 122.508 3.97375 2.90437 0
M  V30 1341 N 124.16 -0.719506 1.40217 0
M  V30 1342 C 125.409 -1.47486 1.37589 0
M  V30 1343 C 125.722 -1.9559 -0.0201568 0
M  V30 1344 O 126.928 -2.70973 -0.169049 0
M  V30 1345 C 125.384 -2.66575 2.41796 0
M  V30 1346 C 124.992 -2.25358 3.87192 0
M  V30 1347 C 126.736 -3.4433 2.48269 0
M  V30 1348 C 124.643 -3.41262 4.83005 0
M  V30 1349 H 123.573 -0.553901 0.511576 0
M  V30 1350 H 126.224 -0.783427 1.65936 0
M  V30 1351 H 124.606 -3.3787 2.06543 0
M  V30 1352 H 125.78 -1.61509 4.31569 0
M  V30 1353 H 124.095 -1.60657 3.84159 0
M  V30 1354 H 126.692 -4.30569 3.17041 0
M  V30 1355 H 127.035 -3.87872 1.51198 0
M  V30 1356 H 127.568 -2.80076 2.82493 0
M  V30 1357 H 124.307 -3.02755 5.81394 0
M  V30 1358 H 123.827 -4.0404 4.43297 0
M  V30 1359 H 125.506 -4.07383 5.02641 0
M  V30 1360 N 125.638 -1.25649 -0.95132 0
M  V30 1361 C 126.568 -1.08808 -2.06599 0
M  V30 1362 C 127.549 0.00382547 -1.701 0
M  V30 1363 O 128.734 -0.166325 -1.93486 0
M  V30 1364 C 125.864 -0.709542 -3.39975 0
M  V30 1365 C 124.818 -1.75206 -3.90496 0
M  V30 1366 C 124.144 -1.22811 -5.20405 0
M  V30 1367 C 125.444 -3.15153 -4.16504 0
M  V30 1368 H 127.138 -2.02048 -2.20946 0
M  V30 1369 H 124.684 -0.972835 -1.06169 0
M  V30 1370 H 126.637 -0.578649 -4.17408 0
M  V30 1371 H 125.361 0.258556 -3.25575 0
M  V30 1372 H 124.02 -1.87145 -3.15234 0
M  V30 1373 H 123.668 -0.250145 -5.02378 0
M  V30 1374 H 123.368 -1.92492 -5.55176 0
M  V30 1375 H 124.892 -1.10968 -6.00432 0
M  V30 1376 H 126.306 -3.06349 -4.84586 0
M  V30 1377 H 124.703 -3.82333 -4.62538 0
M  V30 1378 H 125.773 -3.61966 -3.22658 0
M  V30 1379 N 127.117 1.15442 -1.07289 0
M  V30 1380 C 128.394 1.82306 -0.708792 0
M  V30 1381 C 128.774 1.94991 0.808807 0
M  V30 1382 O 128.122 1.50085 1.72298 0
M  V30 1383 C 128.332 3.18695 -1.42247 0
M  V30 1384 C 129.68 3.94341 -1.57417 0
M  V30 1385 O 130.704 3.28247 -1.38319 0
M  V30 1386 O 129.563 5.12839 -1.88834 0
M  V30 1387 H 126.657 0.787628 -0.252132 0
M  V30 1388 H 129.203 1.22559 -1.17377 0
M  V30 1389 H 127.975 3.04557 -2.45684 0
M  V30 1390 H 127.598 3.86128 -0.948223 0
M  V30 1391 N 128.595 0.856903 1.32268 0
M  V30 1392 C 129.843 0.460474 1.96784 0
M  V30 1393 C 130.164 -0.987701 1.68135 0
M  V30 1394 O 129.434 -1.69058 0.989765 0
M  V30 1395 H 128.014 0.167289 0.728027 0
M  V30 1396 H 130.676 1.09383 1.61312 0
M  V30 1397 H 129.772 0.60739 3.06133 0
M  V30 1398 N 130.073 -1.45103 0.615059 0
M  V30 1399 C 131.003 -2.33339 -0.0865619 0
M  V30 1400 C 131.984 -1.4727 -0.851209 0
M  V30 1401 O 133.169 -1.76026 -0.820281 0
M  V30 1402 C 130.299 -3.30095 -1.07956 0
M  V30 1403 C 129.253 -4.25858 -0.427628 0
M  V30 1404 C 128.579 -5.12361 -1.5294 0
M  V30 1405 C 129.879 -5.18165 0.655944 0
M  V30 1406 H 131.573 -2.92254 0.650224 0
M  V30 1407 H 129.119 -1.40532 0.314138 0
M  V30 1408 H 131.072 -3.90698 -1.57901 0
M  V30 1409 H 129.796 -2.69355 -1.84703 0
M  V30 1410 H 128.455 -3.66564 0.0510292 0
M  V30 1411 H 128.103 -4.47984 -2.28734 0
M  V30 1412 H 127.803 -5.77238 -1.09865 0
M  V30 1413 H 129.327 -5.75833 -2.03098 0
M  V30 1414 H 130.741 -5.72796 0.240257 0
M  V30 1415 H 129.138 -5.91559 1.00888 0
M  V30 1416 H 130.208 -4.60144 1.52957 0
M  V30 1417 N 131.551 -0.354651 -1.53558 0
M  V30 1418 C 132.828 0.294281 -1.93374 0
M  V30 1419 C 133.208 1.67313 -1.28723 0
M  V30 1420 O 132.556 2.24179 -0.442247 0
M  V30 1421 C 132.766 0.355445 -3.47185 0
M  V30 1422 C 134.114 0.601007 -4.20325 0
M  V30 1423 O 135.138 0.437106 -3.53508 0
M  V30 1424 O 133.997 0.919322 -5.38712 0
M  V30 1425 H 131.091 0.174033 -0.808481 0
M  V30 1426 H 133.637 -0.406638 -1.64756 0
M  V30 1427 H 132.409 -0.611729 -3.86489 0
M  V30 1428 H 132.032 1.1027 -3.82003 0
M  V30 1429 N 133.029 1.57378 -0.0835403 0
M  V30 1430 C 134.259 1.97975 0.590713 0
M  V30 1431 C 134.667 0.961083 1.62972 0
M  V30 1432 O 134.01 -0.0590879 1.83605 0
M  V30 1433 C 134.072 3.34915 1.3066 0
M  V30 1434 C 133.736 4.55069 0.419698 0
M  V30 1435 C 134.733 5.18868 -0.32749 0
M  V30 1436 C 132.418 5.0114 0.341137 0
M  V30 1437 C 134.412 6.27098 -1.14134 0
M  V30 1438 C 132.099 6.0924 -0.476374 0
M  V30 1439 C 133.097 6.72083 -1.21627 0
M  V30 1440 O 132.785 7.781 -2.02028 0
M  V30 1441 H 132.517 0.655818 0.163947 0
M  V30 1442 H 135.071 2.04807 -0.156021 0
M  V30 1443 H 133.301 3.24733 2.09966 0
M  V30 1444 H 134.99 3.60037 1.87424 0
M  V30 1445 H 135.756 4.84211 -0.276459 0
M  V30 1446 H 131.635 4.51996 0.90668 0
M  V30 1447 H 135.179 6.7608 -1.71935 0
M  V30 1448 H 131.076 6.43329 -0.528927 0
M  V30 1449 H 131.844 7.95034 -1.94586 0
M  V30 1450 N 134.507 -0.190092 1.56449 0
M  V30 1451 C 135.732 -0.929864 1.85387 0
M  V30 1452 C 136.157 -1.7585 0.667704 0
M  V30 1453 O 135.515 -1.77198 -0.383459 0
M  V30 1454 C 135.563 -1.79773 3.12593 0
M  V30 1455 O 134.667 -2.89713 2.93496 0
M  V30 1456 H 134.008 -0.261574 0.610307 0
M  V30 1457 H 136.538 -0.193896 2.03679 0
M  V30 1458 H 136.548 -2.20139 3.43515 0
M  V30 1459 H 135.223 -1.18892 3.98544 0
M  V30 1460 H 133.8 -2.53065 2.73884 0
M  V30 1461 N 135.985 -1.50799 -0.457987 0
M  V30 1462 C 136.895 -1.73426 -1.57989 0
M  V30 1463 C 137.911 -0.617745 -1.62665 0
M  V30 1464 O 139.087 -0.897614 -1.80291 0
M  V30 1465 C 136.152 -1.83557 -2.94122 0
M  V30 1466 C 135.213 -3.07345 -2.99729 0
M  V30 1467 C 134.446 -3.16983 -4.29368 0
M  V30 1468 O 134.669 -2.33077 -5.20607 0
M  V30 1469 O 133.603 -4.09812 -4.40837 0
M  V30 1470 H 137.429 -2.68555 -1.41817 0
M  V30 1471 H 135.014 -1.35052 -0.638859 0
M  V30 1472 H 136.896 -1.92326 -3.74952 0
M  V30 1473 H 135.571 -0.916137 -3.10465 0
M  V30 1474 H 134.478 -3.04068 -2.1793 0
M  V30 1475 H 135.811 -3.9891 -2.88326 0
M  V30 1476 N 137.463 0.71206 -1.40597 0
M  V30 1477 C 138.396 1.83582 -1.35546 0
M  V30 1478 C 139.374 1.61032 -0.225284 0
M  V30 1479 O 140.558 1.83998 -0.409519 0
M  V30 1480 C 137.685 3.19983 -1.11034 0
M  V30 1481 C 136.731 3.61355 -2.2655 0
M  V30 1482 S 137.564 3.68062 -3.88961 0
M  V30 1483 C 138.72 5.07216 -3.66719 0
M  V30 1484 H 138.953 1.87586 -2.30648 0
M  V30 1485 H 136.486 0.879182 -1.26924 0
M  V30 1486 H 138.444 3.98734 -0.975761 0
M  V30 1487 H 137.105 3.13608 -0.175798 0
M  V30 1488 H 136.298 4.60403 -2.0505 0
M  V30 1489 H 135.9 2.8987 -2.36329 0
M  V30 1490 H 138.192 5.94238 -3.25404 0
M  V30 1491 H 139.135 5.33753 -4.6531 0
M  V30 1492 H 139.543 4.77976 -3.00332 0
M  V30 1493 N 138.941 1.26152 0.944643 0
M  V30 1494 C 140.166 1.14363 1.7302 0
M  V30 1495 C 140.591 -0.29772 1.85729 0
M  V30 1496 O 139.949 -1.2157 1.34501 0
M  V30 1497 C 139.997 1.81378 3.11664 0
M  V30 1498 O 139.101 1.10022 3.97453 0
M  V30 1499 H 138.442 0.398694 0.53098 0
M  V30 1500 H 140.972 1.66906 1.18337 0
M  V30 1501 H 140.982 1.88064 3.62072 0
M  V30 1502 H 139.657 2.86237 3.0173 0
M  V30 1503 H 138.234 1.11287 3.55907 0
M  V30 1504 N 140.419 -1.14872 1.07899 0
M  V30 1505 C 141.366 -2.19791 0.704319 0
M  V30 1506 C 142.336 -1.63238 -0.306987 0
M  V30 1507 O 143.521 -1.8983 -0.192171 0
M  V30 1508 C 140.661 -3.44911 0.114244 0
M  V30 1509 C 139.774 -4.15637 1.1777 0
M  V30 1510 C 138.909 -5.28324 0.552037 0
M  V30 1511 C 137.948 -5.90875 1.59789 0
M  V30 1512 N 137.085 -6.95022 0.994404 0
M  V30 1513 H 141.925 -2.5119 1.60336 0
M  V30 1514 H 139.462 -1.23356 0.801352 0
M  V30 1515 H 141.42 -4.16477 -0.245544 0
M  V30 1516 H 140.05 -3.14011 -0.74813 0
M  V30 1517 H 139.102 -3.42512 1.65499 0
M  V30 1518 H 140.414 -4.5823 1.97046 0
M  V30 1519 H 139.568 -6.06538 0.1402 0
M  V30 1520 H 138.307 -4.86939 -0.272431 0
M  V30 1521 H 137.312 -5.11369 2.01945 0
M  V30 1522 H 138.537 -6.34337 2.42474 0
M  V30 1523 H 136.483 -6.55722 0.190939 0
M  V30 1524 H 136.4 -7.36073 1.72432 0
M  V30 1525 H 137.668 -7.77123 0.608253 0
M  V30 1526 N 141.898 -0.863906 -1.31812 0
M  V30 1527 C 142.83 -0.272485 -2.27575 0
M  V30 1528 C 143.843 0.56104 -1.52827 0
M  V30 1529 O 145.032 0.384021 -1.7432 0
M  V30 1530 C 142.132 0.63283 -3.32939 0
M  V30 1531 C 141.305 -0.166902 -4.37081 0
M  V30 1532 C 140.364 0.665608 -5.21973 0
M  V30 1533 O 139.39 0.0958091 -5.69119 0
M  V30 1534 N 140.592 1.9787 -5.45736 0
M  V30 1535 H 143.357 -1.0954 -2.78964 0
M  V30 1536 H 140.918 -0.724791 -1.4477 0
M  V30 1537 H 142.91 1.19532 -3.86645 0
M  V30 1538 H 141.48 1.35642 -2.81638 0
M  V30 1539 H 140.7 -0.910838 -3.83533 0
M  V30 1540 H 141.988 -0.715874 -5.03739 0
M  V30 1541 H 141.386 2.46484 -5.09178 0
M  V30 1542 H 139.943 2.48911 -6.024 0
M  V30 1543 N 143.376 1.44774 -0.622745 0
M  V30 1544 C 144.622 2.0242 -0.124083 0
M  V30 1545 C 144.955 1.4881 1.24777 0
M  V30 1546 O 144.23 0.668799 1.8264 0
M  V30 1547 C 144.513 3.59957 -0.101619 0
M  V30 1548 C 144.366 4.23867 -1.50521 0
M  V30 1549 C 145.685 4.36284 0.578272 0
M  V30 1550 H 142.804 0.735528 -0.0465645 0
M  V30 1551 H 145.446 1.72447 -0.797617 0
M  V30 1552 H 143.596 3.85623 0.471934 0
M  V30 1553 H 145.268 4.09336 -2.12701 0
M  V30 1554 H 143.511 3.81684 -2.06154 0
M  V30 1555 H 144.182 5.32843 -1.4416 0
M  V30 1556 H 146.658 4.16001 0.0906057 0
M  V30 1557 H 145.534 5.46004 0.563149 0
M  V30 1558 H 145.795 4.10271 1.64713 0
M  V30 1559 N 144.854 0.36279 1.53368 0
M  V30 1560 C 145.784 -0.476976 2.28576 0
M  V30 1561 C 146.765 -1.08631 1.30894 0
M  V30 1562 O 147.95 -1.10409 1.59761 0
M  V30 1563 C 145.08 -1.61828 3.07293 0
M  V30 1564 C 144.034 -1.13633 4.1264 0
M  V30 1565 C 143.36 -2.36766 4.79423 0
M  V30 1566 C 144.66 -0.223061 5.21823 0
M  V30 1567 H 146.354 0.150474 2.99022 0
M  V30 1568 H 143.9 0.0738103 1.43811 0
M  V30 1569 H 145.853 -2.21237 3.58653 0
M  V30 1570 H 144.577 -2.27292 2.34533 0
M  V30 1571 H 143.236 -0.564945 3.62221 0
M  V30 1572 H 142.884 -3.0068 4.03238 0
M  V30 1573 H 142.584 -2.05192 5.50609 0
M  V30 1574 H 144.108 -2.96865 5.33576 0
M  V30 1575 H 145.522 -0.724545 5.68703 0
M  V30 1576 H 143.919 0.001678 6.001 0
M  V30 1577 H 144.989 0.735553 4.79289 0
M  V30 1578 N 146.332 -1.57332 0.0918853 0
M  V30 1579 C 147.265 -2.09499 -0.904735 0
M  V30 1580 C 148.243 -1.00479 -1.27839 0
M  V30 1581 O 149.427 -1.27954 -1.38419 0
M  V30 1582 C 146.554 -2.56931 -2.2069 0
M  V30 1583 C 145.6 -3.77579 -1.98334 0
M  V30 1584 S 146.433 -5.21317 -1.22428 0
M  V30 1585 C 147.589 -5.72097 -2.53882 0
M  V30 1586 H 147.822 -2.93705 -0.460922 0
M  V30 1587 H 145.355 -1.53923 -0.121332 0
M  V30 1588 H 147.313 -2.84917 -2.95521 0
M  V30 1589 H 145.974 -1.72956 -2.62192 0
M  V30 1590 H 145.167 -4.08824 -2.94752 0
M  V30 1591 H 144.769 -3.5007 -1.31633 0
M  V30 1592 H 147.061 -5.80168 -3.49874 0
M  V30 1593 H 148.004 -6.70654 -2.27219 0
M  V30 1594 H 148.412 -5.00012 -2.62007 0
M  V30 1595 N 147.81 0.181792 -1.56548 0
M  V30 1596 C 149.038 0.915947 -1.85521 0
M  V30 1597 C 149.453 1.76282 -0.676016 0
M  V30 1598 O 148.81 1.79012 0.355077 0
M  V30 1599 C 148.861 1.80126 -3.13427 0
M  V30 1600 O 148.582 0.988562 -4.26801 0
M  V30 1601 C 150.083 2.64597 -3.55673 0
M  V30 1602 H 147.303 0.26661 -0.61576 0
M  V30 1603 H 149.847 0.185039 -2.03661 0
M  V30 1604 H 148.002 2.48563 -2.97145 0
M  V30 1605 H 148.416 1.59308 -4.99721 0
M  V30 1606 H 149.89 3.2235 -4.48101 0
M  V30 1607 H 150.367 3.38958 -2.79292 0
M  V30 1608 H 150.973 2.0151 -3.74532 0
M  V30 1609 N 149.288 1.51039 0.449983 0
M  V30 1610 C 150.218 1.74379 1.55288 0
M  V30 1611 C 151.199 0.593236 1.5942 0
M  V30 1612 O 152.384 0.834625 1.7535 0
M  V30 1613 C 149.514 1.85728 2.93466 0
M  V30 1614 C 148.468 3.01078 3.04197 0
M  V30 1615 C 147.794 2.97595 4.44231 0
M  V30 1616 C 149.094 4.41254 2.7945 0
M  V30 1617 H 150.788 2.66725 1.36008 0
M  V30 1618 H 148.334 1.2835 0.652864 0
M  V30 1619 H 150.287 2.0064 3.70569 0
M  V30 1620 H 149.011 0.900207 3.13949 0
M  V30 1621 H 147.67 2.85851 2.29531 0
M  V30 1622 H 147.318 1.99691 4.61663 0
M  V30 1623 H 147.018 3.75046 4.52343 0
M  V30 1624 H 148.542 3.14583 5.23326 0
M  V30 1625 H 149.956 4.56897 3.46292 0
M  V30 1626 H 148.353 5.20315 2.98985 0
M  V30 1627 H 149.423 4.52164 1.75144 0
M  V30 1628 N 150.766 -0.704594 1.40972 0
M  V30 1629 C 151.714 -1.83994 1.42299 0
M  V30 1630 C 152.708 -1.66684 0.302111 0
M  V30 1631 O 153.914 -1.73655 0.473697 0
M  V30 1632 H 150.289 -0.606171 0.44504 0
M  V30 1633 H 152.26 -1.79992 2.38003 0
M  V30 1634 C 151.009 -3.21946 1.31323 0
M  V30 1635 H 150.332 -3.35878 2.16855 0
M  V30 1636 H 151.772 -4.01491 1.36311 0
M  V30 1637 C 150.231 -3.36891 0.0245977 0
M  V30 1638 O 150.761 -3.90687 -0.934153 0
M  V30 1639 N 148.967 -2.90559 -0.0485243 0
M  V30 1640 H 148.514 -2.46968 0.732419 0
M  V30 1641 H 148.472 -3.00937 -0.910171 0
M  V30 1642 N 152.244 -1.26651 -0.937939 0
M  V30 1643 C 153.191 -1.0849 -2.03712 0
M  V30 1644 C 154.161 0.011033 -1.66096 0
M  V30 1645 O 155.346 -0.149353 -1.90215 0
M  V30 1646 C 152.486 -0.72735 -3.37348 0
M  V30 1647 C 151.599 -1.89986 -3.87981 0
M  V30 1648 C 150.734 -1.48513 -5.10017 0
M  V30 1649 C 149.773 -2.62575 -5.5292 0
M  V30 1650 N 148.91 -2.21762 -6.66158 0
M  V30 1651 H 153.75 -2.02551 -2.18579 0
M  V30 1652 H 151.287 -1.00844 -1.07093 0
M  V30 1653 H 153.245 -0.50092 -4.14182 0
M  V30 1654 H 151.875 0.176298 -3.22318 0
M  V30 1655 H 150.927 -2.23913 -3.07518 0
M  V30 1656 H 152.239 -2.75586 -4.15757 0
M  V30 1657 H 151.393 -1.21934 -5.94321 0
M  V30 1658 H 150.132 -0.60009 -4.83994 0
M  V30 1659 H 149.137 -2.8988 -4.67172 0
M  V30 1660 H 150.362 -3.51685 -5.80943 0
M  V30 1661 H 148.308 -1.35696 -6.41812 0
M  V30 1662 H 148.225 -3.00903 -6.93537 0
M  V30 1663 H 149.493 -1.98403 -7.53828 0
M  V30 1664 N 153.722 1.14298 -1.08507 0
M  V30 1665 C 154.669 2.19414 -0.715965 0
M  V30 1666 C 155.639 1.63399 0.298326 0
M  V30 1667 O 156.824 1.89929 0.182101 0
M  V30 1668 C 153.964 3.44845 -0.132534 0
M  V30 1669 C 153.077 4.15007 -1.19973 0
M  V30 1670 C 152.212 5.28024 -0.580048 0
M  V30 1671 C 151.251 5.9002 -1.62921 0
M  V30 1672 N 150.388 6.94485 -1.03125 0
M  V30 1673 H 155.228 2.50336 -1.61666 0
M  V30 1674 H 152.765 1.2293 -0.807882 0
M  V30 1675 H 154.723 4.16601 0.223454 0
M  V30 1676 H 153.353 3.14403 0.731467 0
M  V30 1677 H 152.405 3.41629 -1.67313 0
M  V30 1678 H 153.717 4.57178 -1.99473 0
M  V30 1679 H 152.871 6.06455 -0.172364 0
M  V30 1680 H 151.61 4.87076 0.246603 0
M  V30 1681 H 150.615 5.10291 -2.04654 0
M  V30 1682 H 151.84 6.33042 -2.45835 0
M  V30 1683 H 149.786 6.55612 -0.225711 0
M  V30 1684 H 149.703 7.35148 -1.76334 0
M  V30 1685 H 150.971 7.7679 -0.649458 0
M  V30 1686 N 155.201 0.870884 1.31352 0
M  V30 1687 C 156.149 0.316445 2.30437 0
M  V30 1688 C 157.143 -0.568965 1.59559 0
M  V30 1689 O 158.349 -0.454964 1.74155 0
M  V30 1690 H 154.724 0.0836521 0.747333 0
M  V30 1691 H 156.695 1.16606 2.74673 0
M  V30 1692 C 155.444 -0.46635 3.44558 0
M  V30 1693 H 154.767 0.205687 3.99271 0
M  V30 1694 H 156.207 -0.819614 4.16003 0
M  V30 1695 C 154.666 -1.65797 2.9328 0
M  V30 1696 O 155.196 -2.75728 2.92125 0
M  V30 1697 N 153.402 -1.49041 2.4947 0
M  V30 1698 H 152.949 -0.59612 2.50608 0
M  V30 1699 H 152.907 -2.28911 2.15516 0
M  V30 1700 N 156.679 -1.44442 0.630414 0
M  V30 1701 C 157.928 -2.01267 0.132073 0
M  V30 1702 C 158.241 -1.50172 -1.25331 0
M  V30 1703 O 159.447 -1.9912 -1.84562 0
M  V30 1704 C 157.903 -3.59422 0.185362 0
M  V30 1705 C 157.511 -4.19514 1.57201 0
M  V30 1706 C 159.255 -4.23724 -0.256553 0
M  V30 1707 C 157.162 -5.69891 1.58045 0
M  V30 1708 H 156.092 -0.752619 0.0456092 0
M  V30 1709 H 158.743 -1.65666 0.789106 0
M  V30 1710 H 157.125 -3.92318 -0.538759 0
M  V30 1711 H 158.299 -3.98156 2.31966 0
M  V30 1712 H 156.614 -3.67496 1.95795 0
M  V30 1713 H 159.211 -5.34019 -0.269767 0
M  V30 1714 H 159.554 -3.96013 -1.28372 0
M  V30 1715 H 160.087 -3.95629 0.41505 0
M  V30 1716 H 156.826 -6.02336 2.58597 0
M  V30 1717 H 156.346 -5.93373 0.875725 0
M  V30 1718 H 158.025 -6.33515 1.31408 0
M  V30 1719 N 158.157 -0.370918 -1.53173 0
M  V30 1720 C 159.087 0.464847 -2.28826 0
M  V30 1721 C 160.068 1.07936 -1.31468 0
M  V30 1722 O 161.253 1.0956 -1.60344 0
M  V30 1723 C 158.383 1.60196 -3.08147 0
M  V30 1724 C 157.337 1.11443 -4.13237 0
M  V30 1725 C 156.663 2.3422 -4.80672 0
M  V30 1726 C 157.963 0.195384 -5.21934 0
M  V30 1727 H 159.657 -0.166329 -2.98938 0
M  V30 1728 H 157.203 -0.0814359 -1.4377 0
M  V30 1729 H 159.156 2.19332 -3.59822 0
M  V30 1730 H 157.88 2.26045 -2.35735 0
M  V30 1731 H 156.539 0.545727 -3.62515 0
M  V30 1732 H 156.187 2.98537 -4.04827 0
M  V30 1733 H 155.887 2.02269 -5.51689 0
M  V30 1734 H 157.411 2.94032 -5.35143 0
M  V30 1735 H 158.825 0.694375 -5.69079 0
M  V30 1736 H 157.222 -0.0335027 -6.00091 0
M  V30 1737 H 158.292 -0.760961 -4.78892 0
M  V30 1738 N 159.635 1.57281 -0.100228 0
M  V30 1739 C 160.583 2.15542 0.874328 0
M  V30 1740 C 161.577 1.09962 1.28859 0
M  V30 1741 O 162.783 1.28298 1.26252 0
M  V30 1742 H 159.158 0.689567 0.300003 0
M  V30 1743 H 161.129 2.96241 0.35829 0
M  V30 1744 C 159.878 2.75454 2.1218 0
M  V30 1745 H 159.201 3.56384 1.81193 0
M  V30 1746 H 160.641 3.19781 2.78417 0
M  V30 1747 C 159.1 1.71602 2.89921 0
M  V30 1748 O 159.63 1.15804 3.84646 0
M  V30 1749 N 157.836 1.41975 2.53558 0
M  V30 1750 H 157.383 1.87539 1.76598 0
M  V30 1751 H 157.341 0.727274 3.05873 0
M  V30 1752 N 161.113 -0.173488 1.56642 0
M  V30 1753 C 162.39 -0.917617 1.7274 0
M  V30 1754 C 162.77 -2.00484 0.661027 0
M  V30 1755 O 162.118 -2.26184 -0.32453 0
M  V30 1756 C 162.328 -1.48433 3.15862 0
M  V30 1757 C 163.676 -1.95809 3.76754 0
M  V30 1758 O 164.7 -1.58231 3.19126 0
M  V30 1759 O 163.559 -2.65024 4.77938 0
M  V30 1760 H 160.653 -0.431772 0.705338 0
M  V30 1761 H 163.199 -0.161487 1.6893 0
M  V30 1762 H 161.971 -0.701715 3.84957 0
M  V30 1763 H 161.594 -2.30471 3.23989 0
M  V30 1764 N 162.591 -1.51276 -0.441967 0
M  V30 1765 C 163.868 -1.54252 -1.20273 0
M  V30 1766 C 164.248 -0.30408 -2.08898 0
M  V30 1767 O 163.596 0.711084 -2.17154 0
M  V30 1768 C 163.806 -2.85406 -2.00859 0
M  V30 1769 C 165.154 -3.37181 -2.58059 0
M  V30 1770 O 166.178 -2.86925 -2.11074 0
M  V30 1771 O 165.037 -4.24858 -3.43741 0
M  V30 1772 H 162.131 -0.619969 -0.547328 0
M  V30 1773 H 164.677 -1.63586 -0.451413 0
M  V30 1774 H 163.449 -3.67003 -1.35736 0
M  V30 1775 H 163.072 -2.79213 -2.83065 0
M  V30 1776 N 164.069 0.697108 -1.41344 0
M  V30 1777 C 165.317 1.45426 -1.40341 0
M  V30 1778 C 165.638 1.94996 -0.0128787 0
M  V30 1779 O 164.908 1.71599 0.945027 0
M  V30 1780 H 163.488 0.539594 -0.516573 0
M  V30 1781 H 166.15 0.825201 -1.76569 0
M  V30 1782 H 165.246 2.31817 -2.08967 0
M  V30 1783 N 165.547 1.27147 0.931209 0
M  V30 1784 C 166.772 1.16191 1.71797 0
M  V30 1785 C 167.197 -0.278004 1.86034 0
M  V30 1786 O 166.555 -1.20137 1.35782 0
M  V30 1787 C 166.603 1.84673 3.09723 0
M  V30 1788 O 165.707 1.14231 3.96264 0
M  V30 1789 H 165.048 0.404303 0.526721 0
M  V30 1790 H 167.578 1.68152 1.1656 0
M  V30 1791 H 167.588 1.91893 3.60057 0
M  V30 1792 H 166.263 2.89421 2.98677 0
M  V30 1793 H 164.84 1.15056 3.54706 0
M  V30 1794 N 167.025 -1.13721 1.09112 0
M  V30 1795 C 168.25 -1.89314 0.847053 0
M  V30 1796 C 168.675 -1.78416 -0.595774 0
M  V30 1797 O 168.033 -1.12942 -1.41823 0
M  V30 1798 C 168.081 -3.3701 1.28284 0
M  V30 1799 O 167.185 -4.10054 0.439267 0
M  V30 1800 H 166.526 -0.588745 0.307044 0
M  V30 1801 H 169.056 -1.43902 1.45442 0
M  V30 1802 H 169.066 -3.87834 1.26683 0
M  V30 1803 H 167.741 -3.4426 2.33363 0
M  V30 1804 H 166.318 -3.69266 0.519312 0
M  V30 1805 N 168.503 -0.877838 -1.30888 0
M  V30 1806 C 169.78 -0.413052 -1.91189 0
M  V30 1807 C 170.16 1.1056 -1.79832 0
M  V30 1808 O 169.508 1.93771 -1.21099 0
M  V30 1809 C 169.718 -0.903191 -3.3711 0
M  V30 1810 C 171.066 -0.93395 -4.14201 0
M  V30 1811 O 172.09 -0.849373 -3.45925 0
M  V30 1812 O 170.949 -1.05772 -5.36167 0
M  V30 1813 H 168.043 -0.125035 -0.817493 0
M  V30 1814 H 170.589 -0.966269 -1.39504 0
M  V30 1815 H 169.361 -1.94692 -3.39427 0
M  V30 1816 H 168.984 -0.328732 -3.96239 0
M  V30 1817 N 169.982 1.44106 -0.638065 0
M  V30 1818 C 171.23 2.01579 -0.145043 0
M  V30 1819 C 171.551 1.50496 1.24 0
M  V30 1820 O 170.821 0.711374 1.82527 0
M  V30 1821 H 169.401 0.745282 -0.05063 0
M  V30 1822 H 172.063 1.76516 -0.826327 0
M  V30 1823 H 171.159 3.11877 -0.118039 0
M  V30 1824 N 171.46 0.379036 1.52974 0
M  V30 1825 C 172.408 -0.476033 2.27677 0
M  V30 1826 C 173.402 -1.0719 1.31174 0
M  V30 1827 O 174.608 -1.01355 1.48752 0
M  V30 1828 H 170.983 -0.172255 0.732006 0
M  V30 1829 H 172.954 0.175615 2.97883 0
M  V30 1830 C 171.703 -1.5967 3.0887 0
M  V30 1831 H 171.026 -1.1475 3.82978 0
M  V30 1832 H 172.466 -2.16943 3.64296 0
M  V30 1833 C 170.925 -2.54682 2.20542 0
M  V30 1834 O 171.455 -3.57836 1.82527 0
M  V30 1835 N 169.661 -2.24183 1.84907 0
M  V30 1836 H 169.208 -1.40333 2.1602 0
M  V30 1837 H 169.166 -2.88006 1.26096 0
M  V30 1838 N 172.938 -1.57226 0.108567 0
M  V30 1839 C 174.215 -1.86333 -0.594939 0
M  V30 1840 C 174.595 -1.00788 -1.85486 0
M  V30 1841 O 173.943 -0.0839293 -2.28346 0
M  V30 1842 C 174.153 -3.37265 -0.897405 0
M  V30 1843 C 175.501 -4.05629 -1.25501 0
M  V30 1844 O 176.525 -3.42224 -0.987998 0
M  V30 1845 O 175.384 -5.17531 -1.75567 0
M  V30 1846 H 172.478 -0.771018 -0.2991 0
M  V30 1847 H 175.024 -1.69102 0.142283 0
M  V30 1848 H 173.796 -3.913 -0.00413806 0
M  V30 1849 H 173.419 -3.59889 -1.69014 0
M  V30 1850 N 174.416 0.165178 -1.56732 0
M  V30 1851 C 175.644 0.896218 -1.86482 0
M  V30 1852 C 176.059 1.75555 -0.694675 0
M  V30 1853 O 175.416 1.79379 0.33607 0
M  V30 1854 C 175.467 1.76792 -3.1532 0
M  V30 1855 O 175.188 0.943239 -4.27825 0
M  V30 1856 C 176.689 2.6081 -3.58459 0
M  V30 1857 H 173.909 0.260064 -0.618553 0
M  V30 1858 H 176.453 0.163428 -2.03846 0
M  V30 1859 H 174.608 2.45398 -2.99764 0
M  V30 1860 H 175.022 1.53998 -5.01383 0
M  V30 1861 H 176.496 3.17579 -4.51495 0
M  V30 1862 H 176.973 3.35977 -2.82872 0
M  V30 1863 H 177.579 1.97526 -3.76648 0
M  V30 1864 N 175.894 1.51508 0.433938 0
M  V30 1865 C 177.171 1.54888 1.19453 0
M  V30 1866 C 177.551 0.315154 2.08734 0
M  V30 1867 O 176.899 -0.699558 2.17528 0
M  V30 1868 C 177.109 2.86467 1.99342 0
M  V30 1869 C 178.457 3.38545 2.56267 0
M  V30 1870 O 179.481 2.88041 2.0955 0
M  V30 1871 O 178.34 4.26675 3.41483 0
M  V30 1872 H 175.434 0.622863 0.544032 0
M  V30 1873 H 177.98 1.63823 0.442732 0
M  V30 1874 H 176.752 3.67718 1.33788 0
M  V30 1875 H 176.375 2.8071 2.8158 0
M  V30 1876 N 177.372 -0.689602 1.41712 0
M  V30 1877 C 178.618 -1.45181 1.41599 0
M  V30 1878 C 178.951 -1.94181 0.0270081 0
M  V30 1879 O 178.226 -1.6993 -0.946265 0
M  V30 1880 C 178.509 -2.65945 2.42787 0
M  V30 1881 C 178.362 -2.22672 3.90816 0
M  V30 1882 C 179.681 -3.68149 2.41151 0
M  V30 1883 H 176.8 -0.526576 0.515642 0
M  V30 1884 H 179.442 -0.784947 1.73028 0
M  V30 1885 H 177.592 -3.2284 2.16116 0
M  V30 1886 H 179.264 -1.71058 4.28412 0
M  V30 1887 H 177.507 -1.54394 4.05395 0
M  V30 1888 H 178.178 -3.0935 4.57172 0
M  V30 1889 H 180.654 -3.2094 2.64834 0
M  V30 1890 H 179.53 -4.50248 3.13955 0
M  V30 1891 H 179.791 -4.18259 1.43221 0
M  V30 1892 N 178.85 -1.27639 -0.924453 0
M  V30 1893 C 179.8 -1.07295 -2.01176 0
M  V30 1894 C 180.784 5.77352e-05 -1.609 0
M  V30 1895 O 181.976 -0.218855 -1.75642 0
M  V30 1896 C 179.105 -0.725592 -3.35544 0
M  V30 1897 C 178.191 -1.83691 -3.82254 0
M  V30 1898 N 178.582 -3.07697 -4.01443 0
M  V30 1899 C 176.88 -1.72433 -4.11319 0
M  V30 1900 C 177.581 -3.80037 -4.40394 0
M  V30 1901 N 176.557 -3.0782 -4.48049 0
M  V30 1902 H 180.359 -2.01399 -2.14046 0
M  V30 1903 H 177.873 -1.18401 -1.11153 0
M  V30 1904 H 179.87 -0.560959 -4.13109 0
M  V30 1905 H 178.53 0.207782 -3.24034 0
M  V30 1906 H 179.541 -3.43424 -3.8766 0
M  V30 1907 H 176.218 -0.862005 -4.08504 0
M  V30 1908 H 177.608 -4.86632 -4.63291 0
M  V30 1909 N 180.328 1.1314 -1.09713 0
M  V30 1910 C 181.553 1.88862 -0.857081 0
M  V30 1911 C 181.978 1.78729 0.586304 0
M  V30 1912 O 181.336 1.13692 1.41222 0
M  V30 1913 C 181.384 3.36325 -1.30069 0
M  V30 1914 O 180.488 4.09815 -0.461007 0
M  V30 1915 H 179.829 0.587108 -0.310162 0
M  V30 1916 H 182.359 1.43129 -1.46203 0
M  V30 1917 H 182.369 3.87157 -1.28738 0
M  V30 1918 H 181.044 3.43017 -2.35185 0
M  V30 1919 H 179.621 3.68986 -0.538888 0
M  V30 1920 N 181.806 0.884767 1.30421 0
M  V30 1921 C 182.739 0.295999 2.26272 0
M  V30 1922 C 183.717 -0.58332 1.51777 0
M  V30 1923 O 184.901 -0.53346 1.80794 0
M  V30 1924 C 182.028 -0.57944 3.33707 0
M  V30 1925 C 181.074 0.230525 4.25877 0
M  V30 1926 S 181.907 1.61867 5.1045 0
M  V30 1927 C 183.063 0.749756 6.21393 0
M  V30 1928 H 183.296 1.10848 2.75862 0
M  V30 1929 H 180.829 0.684178 1.38414 0
M  V30 1930 H 182.787 -1.07879 3.96071 0
M  V30 1931 H 181.448 -1.36601 2.82841 0
M  V30 1932 H 180.641 -0.437542 5.02097 0
M  V30 1933 H 180.243 0.662493 3.68086 0
M  V30 1934 H 182.535 -0.0333547 6.77492 0
M  V30 1935 H 183.478 1.48356 6.92384 0
M  V30 1936 H 183.886 0.310751 5.63644 0
M  V30 1937 N 183.284 -1.43765 0.645699 0
M  V30 1938 C 184.531 -2.01898 0.15604 0
M  V30 1939 C 184.859 -1.50887 -1.22733 0
M  V30 1940 O 184.114 -0.689271 -1.8316 0
M  V30 1941 C 184.413 -3.57238 0.107679 0
M  V30 1942 C 184.079 -4.27564 1.43178 0
M  V30 1943 C 182.741 -4.46492 1.7944 0
M  V30 1944 C 185.093 -4.67454 2.30513 0
M  V30 1945 C 182.421 -5.02573 3.02716 0
M  V30 1946 C 184.773 -5.24901 3.53074 0
M  V30 1947 C 183.437 -5.42046 3.89541 0
M  V30 1948 H 182.707 -0.738797 0.057099 0
M  V30 1949 H 185.354 -1.72341 0.834912 0
M  V30 1950 H 183.659 -3.86293 -0.654618 0
M  V30 1951 H 185.356 -3.99965 -0.287938 0
M  V30 1952 H 181.946 -4.13171 1.13963 0
M  V30 1953 H 186.13 -4.5253 2.0379 0
M  V30 1954 H 181.386 -5.14033 3.31028 0
M  V30 1955 H 185.56 -5.54758 4.20971 0
M  V30 1956 H 183.187 -5.85268 4.85145 0
M  V30 1957 N 184.763 -0.387143 -1.52771 0
M  V30 1958 C 186.04 0.253197 -1.93954 0
M  V30 1959 C 186.42 1.64545 -1.32243 0
M  V30 1960 O 185.768 2.23191 -0.489699 0
M  V30 1961 C 185.978 0.281722 -3.47861 0
M  V30 1962 C 187.326 0.511715 -4.21505 0
M  V30 1963 O 188.35 0.362023 -3.54356 0
M  V30 1964 O 187.209 0.804847 -5.40541 0
M  V30 1965 H 184.303 0.156845 -0.811991 0
M  V30 1966 H 186.849 -0.441494 -1.63856 0
M  V30 1967 H 185.621 -0.693571 -3.85104 0
M  V30 1968 H 185.244 1.02142 -3.84256 0
M  V30 1969 N 186.241 1.57166 -0.116904 0
M  V30 1970 C 187.657 1.5779 0.239693 0
M  V30 1971 C 187.857 1.1295 1.66867 0
M  V30 1972 O 186.913 0.81592 2.38954 0
M  V30 1973 C 188.226 3.00699 0.00828202 0
M  V30 1974 C 189.774 3.12912 0.0743438 0
M  V30 1975 C 190.249 4.57817 -0.129348 0
M  V30 1976 N 191.74 4.63139 -0.075247 0
M  V30 1977 C 192.475 5.73023 -0.207788 0
M  V30 1978 N 191.971 6.91665 -0.396382 0
M  V30 1979 N 193.764 5.61906 -0.14751 0
M  V30 1980 H 185.915 1.84615 -1.05029 0
M  V30 1981 H 188.178 0.85311 -0.41341 0
M  V30 1982 H 187.884 3.37784 -0.979531 0
M  V30 1983 H 187.758 3.69848 0.741077 0
M  V30 1984 H 190.145 2.75686 1.05268 0
M  V30 1985 H 190.226 2.4631 -0.690297 0
M  V30 1986 H 189.87 4.95742 -1.10465 0
M  V30 1987 H 189.8 5.22507 0.655253 0
M  V30 1988 H 192.291 3.7784 0.0670898 0
M  V30 1989 H 192.604 7.71255 -0.488437 0
M  V30 1990 H 190.949 6.93654 -0.432329 0
M  V30 1991 H 194.14 4.681 -0.00115036 0
M  V30 1992 H 194.313 6.47501 -0.254247 0
M  V30 1993 N 187.719 -0.156864 1.56817 0
M  V30 1994 C 188.666 -1.19394 1.97519 0
M  V30 1995 C 189.636 -1.4322 0.841265 0
M  V30 1996 O 190.821 -1.55719 1.10255 0
M  V30 1997 C 187.961 -2.52483 2.35258 0
M  V30 1998 C 187.074 -2.35914 3.61896 0
M  V30 1999 C 186.209 -3.61969 3.88782 0
M  V30 2000 C 185.248 -3.40395 5.08722 0
M  V30 2001 N 184.385 -4.58556 5.31668 0
M  V30 2002 H 189.225 -0.839845 2.85921 0
M  V30 2003 H 186.762 -0.403264 1.41464 0
M  V30 2004 H 188.72 -3.30071 2.55165 0
M  V30 2005 H 187.35 -2.85859 1.49949 0
M  V30 2006 H 186.402 -1.49429 3.49821 0
M  V30 2007 H 187.714 -2.15926 4.49641 0
M  V30 2008 H 186.868 -4.47989 4.09135 0
M  V30 2009 H 185.607 -3.84951 2.9944 0
M  V30 2010 H 184.612 -2.52763 4.88253 0
M  V30 2011 H 185.837 -3.18822 5.99608 0
M  V30 2012 H 183.783 -4.81729 4.45279 0
M  V30 2013 H 183.7 -4.41535 6.13664 0
M  V30 2014 H 184.968 -5.45817 5.5651 0
M  V30 2015 N 189.197 -1.51736 -0.425897 0
M  V30 2016 C 190.107 -1.76738 -1.54275 0
M  V30 2017 C 191.123 -0.65211 -1.61318 0
M  V30 2018 O 192.299 -0.935654 -1.78346 0
M  V30 2019 C 189.364 -1.89755 -2.90162 0
M  V30 2020 C 188.425 -3.13633 -2.93143 0
M  V30 2021 C 187.658 -3.2602 -4.22548 0
M  V30 2022 O 187.881 -2.44067 -5.15546 0
M  V30 2023 O 186.815 -4.19071 -4.32046 0
M  V30 2024 H 190.641 -2.71502 -1.36089 0
M  V30 2025 H 188.226 -1.36376 -0.610069 0
M  V30 2026 H 190.108 -2.00236 -3.70788 0
M  V30 2027 H 188.783 -0.981785 -3.08452 0
M  V30 2028 H 187.69 -3.08622 -2.11431 0
M  V30 2029 H 189.023 -4.04936 -2.798 0
M  V30 2030 N 190.675 0.682077 -1.42076 0
M  V30 2031 C 191.924 1.43786 -1.41451 0
M  V30 2032 C 192.237 1.95574 -0.0317074 0
M  V30 2033 O 193.443 2.71326 0.0971462 0
M  V30 2034 C 191.899 2.60071 -2.48779 0
M  V30 2035 C 191.507 2.15013 -3.93031 0
M  V30 2036 C 193.251 3.37626 -2.57311 0
M  V30 2037 C 191.158 3.28336 -4.91883 0
M  V30 2038 H 190.088 0.540143 -0.526082 0
M  V30 2039 H 192.739 0.739157 -1.67955 0
M  V30 2040 H 191.121 3.32275 -2.15429 0
M  V30 2041 H 192.295 1.5001 -4.35699 0
M  V30 2042 H 190.61 1.50416 -3.88284 0
M  V30 2043 H 193.207 4.22012 -3.28345 0
M  V30 2044 H 193.55 3.83727 -1.61429 0
M  V30 2045 H 194.083 2.72488 -2.89819 0
M  V30 2046 H 190.822 2.87234 -5.89217 0
M  V30 2047 H 190.342 3.92145 -4.53853 0
M  V30 2048 H 192.021 3.93913 -5.13265 0
M  V30 2049 N 192.153 1.28127 0.917671 0
M  V30 2050 C 193.063 1.13556 2.05286 0
M  V30 2051 C 194.079 0.0630914 1.73886 0
M  V30 2052 O 195.255 0.271598 1.9956 0
M  V30 2053 C 192.32 0.794676 3.3747 0
M  V30 2054 C 191.381 1.94909 3.82504 0
M  V30 2055 C 190.614 1.62437 5.0838 0
M  V30 2056 O 190.837 0.536905 5.67867 0
M  V30 2057 O 189.771 2.46677 5.4903 0
M  V30 2058 H 193.597 2.08844 2.20495 0
M  V30 2059 H 191.182 1.07409 1.03845 0
M  V30 2060 H 193.064 0.618344 4.16839 0
M  V30 2061 H 191.739 -0.128581 3.23445 0
M  V30 2062 H 190.646 2.18055 3.03978 0
M  V30 2063 H 191.979 2.85291 4.01086 0
M  V30 2064 N 193.631 -1.12557 1.10312 0
M  V30 2065 C 195.047 -1.36036 0.834649 0
M  V30 2066 C 195.247 -1.93946 -0.546539 0
M  V30 2067 O 194.303 -2.16484 -1.29966 0
M  V30 2068 C 195.616 -2.30312 1.9333 0
M  V30 2069 C 197.164 -2.43906 1.9616 0
M  V30 2070 C 197.639 -3.41496 3.05195 0
M  V30 2071 N 199.13 -3.49053 3.04494 0
M  V30 2072 C 199.865 -4.24471 3.85502 0
M  V30 2073 N 199.361 -5.02966 4.76442 0
M  V30 2074 N 201.154 -4.19864 3.73725 0
M  V30 2075 H 193.305 -0.733246 1.99342 0
M  V30 2076 H 195.568 -0.385234 0.866198 0
M  V30 2077 H 195.274 -1.94933 2.92735 0
M  V30 2078 H 195.148 -3.30421 1.81939 0
M  V30 2079 H 197.535 -2.78567 0.973886 0
M  V30 2080 H 197.616 -1.4369 2.11629 0
M  V30 2081 H 197.26 -3.07565 4.04186 0
M  V30 2082 H 197.19 -4.41539 2.86968 0
M  V30 2083 H 199.681 -2.93053 2.38596 0
M  V30 2084 H 199.994 -5.57846 5.34815 0
M  V30 2085 H 198.339 -5.02167 4.80472 0
M  V30 2086 H 201.53 -3.57623 3.02032 0
M  V30 2087 H 201.703 -4.78386 4.37093 0
M  V30 2088 N 195.109 -0.891671 -1.2995 0
M  V30 2089 C 196.056 -0.361736 -2.27948 0
M  V30 2090 C 197.026 0.551761 -1.56668 0
M  V30 2091 O 198.211 0.478736 -1.84696 0
M  V30 2092 C 195.351 0.411825 -3.42634 0
M  V30 2093 C 194.464 -0.531651 -4.28716 0
M  V30 2094 C 193.599 0.258167 -5.30572 0
M  V30 2095 C 192.638 -0.680349 -6.08307 0
M  V30 2096 N 191.775 0.0745613 -7.0206 0
M  V30 2097 H 196.615 -1.20254 -2.72659 0
M  V30 2098 H 194.152 -0.604352 -1.34112 0
M  V30 2099 H 196.11 0.876304 -4.07893 0
M  V30 2100 H 194.74 1.21715 -2.98974 0
M  V30 2101 H 193.792 -1.11463 -3.63703 0
M  V30 2102 H 195.104 -1.25038 -4.82874 0
M  V30 2103 H 194.258 0.784204 -6.0161 0
M  V30 2104 H 192.997 1.01008 -4.77126 0
M  V30 2105 H 192.002 -1.21796 -5.3614 0
M  V30 2106 H 193.227 -1.43145 -6.63842 0
M  V30 2107 H 191.173 0.808883 -6.50994 0
M  V30 2108 H 191.09 -0.584409 -7.53738 0
M  V30 2109 H 192.358 0.581123 -7.77331 0
M  V30 2110 N 196.587 1.43421 -0.653314 0
M  V30 2111 C 197.833 2.02111 -0.166992 0
M  V30 2112 C 198.166 1.51423 1.21592 0
M  V30 2113 O 197.441 0.707389 1.8118 0
M  V30 2114 C 197.724 3.5966 -0.177948 0
M  V30 2115 C 197.577 4.20579 -1.59478 0
M  V30 2116 C 198.896 4.37413 0.4856 0
M  V30 2117 H 196.015 0.734374 -0.0621557 0
M  V30 2118 H 198.657 1.70717 -0.834016 0
M  V30 2119 H 196.807 3.86537 0.390032 0
M  V30 2120 H 198.479 4.04732 -2.21336 0
M  V30 2121 H 196.722 3.77226 -2.14204 0
M  V30 2122 H 197.393 5.29665 -1.5543 0
M  V30 2123 H 199.869 4.161 0.00234528 0
M  V30 2124 H 198.745 5.47075 0.447207 0
M  V30 2125 H 199.006 4.13672 1.55974 0
M  V30 2126 N 198.065 0.39524 1.52563 0
M  V30 2127 C 198.995 -0.428384 2.29537 0
M  V30 2128 C 199.976 -1.05831 1.33169 0
M  V30 2129 O 201.161 -1.06995 1.62067 0
M  V30 2130 C 198.291 -1.55274 3.10656 0
M  V30 2131 C 197.245 -1.04855 4.14957 0
M  V30 2132 C 196.571 -2.26543 4.84337 0
M  V30 2133 C 197.871 -0.112324 5.22179 0
M  V30 2134 H 199.565 0.213867 2.98635 0
M  V30 2135 H 197.111 0.104298 1.43622 0
M  V30 2136 H 199.064 -2.1358 3.63265 0
M  V30 2137 H 197.788 -2.22266 2.39302 0
M  V30 2138 H 196.447 -0.487985 3.63338 0
M  V30 2139 H 196.095 -2.92059 4.09525 0
M  V30 2140 H 195.795 -1.93466 5.54837 0
M  V30 2141 H 197.319 -2.85481 5.39753 0
M  V30 2142 H 198.733 -0.603752 5.70112 0
M  V30 2143 H 197.13 0.128968 5.99961 0
M  V30 2144 H 198.2 0.837052 4.77621 0
M  V30 2145 N 199.544 -1.57102 0.125237 0
M  V30 2146 C 200.821 -1.86953 -0.575142 0
M  V30 2147 C 201.201 -1.02749 -1.84407 0
M  V30 2148 O 200.549 -0.108144 -2.28244 0
M  V30 2149 C 200.759 -3.38198 -0.861583 0
M  V30 2150 C 202.107 -4.06937 -1.21192 0
M  V30 2151 O 203.131 -3.43252 -0.951645 0
M  V30 2152 O 201.99 -5.19364 -1.70068 0
M  V30 2153 H 199.084 -0.774147 -0.290906 0
M  V30 2154 H 201.63 -1.68942 0.160211 0
M  V30 2155 H 200.402 -3.91282 0.0373647 0
M  V30 2156 H 200.025 -3.61661 -1.65188 0
M  V30 2157 N 201.022 0.148545 -1.56898 0
M  V30 2158 C 201.952 1.18524 -2.01182 0
M  V30 2159 C 202.933 1.4489 -0.891123 0
M  V30 2160 O 204.118 1.55836 -1.15882 0
M  V30 2161 C 201.248 2.51879 -2.39112 0
M  V30 2162 C 200.202 2.40038 -3.54353 0
M  V30 2163 C 199.528 3.78089 -3.78091 0
M  V30 2164 C 200.828 1.88577 -4.87069 0
M  V30 2165 H 202.522 0.817029 -2.88036 0
M  V30 2166 H 200.068 0.391575 -1.38574 0
M  V30 2167 H 202.021 3.24627 -2.68692 0
M  V30 2168 H 200.745 2.90532 -1.49193 0
M  V30 2169 H 199.404 1.69742 -3.24936 0
M  V30 2170 H 199.052 4.14175 -2.85426 0
M  V30 2171 H 198.752 3.71028 -4.55645 0
M  V30 2172 H 200.276 4.52387 -4.10095 0
M  V30 2173 H 201.69 2.51117 -5.15377 0
M  V30 2174 H 200.087 1.9241 -5.68417 0
M  V30 2175 H 201.157 0.84136 -4.77545 0
M  V30 2176 N 202.5 1.5196 0.417844 0
M  V30 2177 C 203.41 1.77554 1.53336 0
M  V30 2178 C 204.426 0.660655 1.6097 0
M  V30 2179 O 205.602 0.945099 1.77848 0
M  V30 2180 C 202.667 1.91291 2.89152 0
M  V30 2181 C 201.728 3.15183 2.91475 0
M  V30 2182 C 200.961 3.28256 4.20813 0
M  V30 2183 O 201.184 2.46798 5.14244 0
M  V30 2184 O 200.118 4.21356 4.29817 0
M  V30 2185 H 203.944 2.7222 1.34647 0
M  V30 2186 H 201.529 1.36698 0.602828 0
M  V30 2187 H 203.411 2.02199 3.69721 0
M  V30 2188 H 202.086 0.998129 3.07927 0
M  V30 2189 H 200.993 3.09739 2.09791 0
M  V30 2190 H 202.326 4.06414 2.77648 0
M  V30 2191 N 203.978 -0.674533 1.42435 0
M  V30 2192 C 205.203 -1.46784 1.46524 0
M  V30 2193 C 205.628 -1.87938 0.078066 0
M  V30 2194 O 204.986 -1.56014 -0.92354 0
M  V30 2195 C 205.034 -2.69307 2.39805 0
M  V30 2196 O 204.138 -3.67587 1.86959 0
M  V30 2197 H 203.479 -0.440959 0.496439 0
M  V30 2198 H 206.009 -0.827326 1.87127 0
M  V30 2199 H 206.019 -3.17374 2.56393 0
M  V30 2200 H 204.694 -2.38692 3.40586 0
M  V30 2201 H 203.271 -3.2662 1.79927 0
M  V30 2202 N 205.456 -1.28612 -0.910864 0
M  V30 2203 C 206.705 -1.15311 -1.65488 0
M  V30 2204 C 207.018 0.296999 -1.93332 0
M  V30 2205 O 208.224 0.551168 -2.65847 0
M  V30 2206 C 206.68 -2.01599 -2.98137 0
M  V30 2207 C 206.288 -3.51367 -2.7793 0
M  V30 2208 C 208.032 -1.96993 -3.76024 0
M  V30 2209 C 205.939 -4.29797 -4.06237 0
M  V30 2210 H 204.869 -0.42796 -0.620779 0
M  V30 2211 H 207.52 -1.53166 -1.01057 0
M  V30 2212 H 205.902 -1.56603 -3.63719 0
M  V30 2213 H 207.076 -4.0434 -2.21011 0
M  V30 2214 H 205.391 -3.57529 -2.13452 0
M  V30 2215 H 207.988 -2.52856 -4.71135 0
M  V30 2216 H 208.331 -0.94733 -4.05378 0
M  V30 2217 H 208.864 -2.39973 -3.17266 0
M  V30 2218 H 205.603 -5.32648 -3.82055 0
M  V30 2219 H 205.123 -3.81596 -4.62757 0
M  V30 2220 H 206.802 -4.39869 -4.74473 0
M  V30 2221 N 206.934 1.1197 -1.10907 0
M  V30 2222 C 207.884 2.15946 -0.731538 0
M  V30 2223 C 208.868 1.58758 0.261699 0
M  V30 2224 O 210.06 1.76863 0.0696722 0
M  V30 2225 C 207.189 3.42877 -0.170299 0
M  V30 2226 C 206.275 4.07037 -1.19087 0
M  V30 2227 N 206.666 4.46135 -2.38322 0
M  V30 2228 C 204.964 4.33884 -1.03252 0
M  V30 2229 C 205.665 4.96331 -3.03366 0
M  V30 2230 N 204.641 4.9214 -2.30865 0
M  V30 2231 H 208.443 2.43947 -1.63912 0
M  V30 2232 H 205.957 1.28927 -0.987505 0
M  V30 2233 H 207.954 4.16732 0.118271 0
M  V30 2234 H 206.614 3.16343 0.731935 0
M  V30 2235 H 207.625 4.38345 -2.75815 0
M  V30 2236 H 204.302 4.17084 -0.186256 0
M  V30 2237 H 205.692 5.36257 -4.04818 0
M  V30 2238 N 208.412 0.89855 1.29475 0
M  V30 2239 C 209.659 0.523882 1.95606 0
M  V30 2240 C 209.987 -0.929608 1.70847 0
M  V30 2241 O 209.242 -1.67401 1.01367 0
M  V30 2242 C 209.541 0.761398 3.49195 0
M  V30 2243 C 209.207 2.19207 3.94029 0
M  V30 2244 C 207.869 2.58326 4.05982 0
M  V30 2245 C 210.221 3.12379 4.17216 0
M  V30 2246 C 207.549 3.898 4.38489 0
M  V30 2247 C 209.901 4.43401 4.51197 0
M  V30 2248 C 208.565 4.82394 4.61359 0
M  V30 2249 H 207.835 0.191702 0.715773 0
M  V30 2250 H 210.482 1.13699 1.54094 0
M  V30 2251 H 208.787 0.0653622 3.91745 0
M  V30 2252 H 210.484 0.450904 3.98457 0
M  V30 2253 H 207.074 1.87846 3.85242 0
M  V30 2254 H 211.258 2.83371 4.07449 0
M  V30 2255 H 206.514 4.19734 4.44559 0
M  V30 2256 H 210.688 5.15623 4.68087 0
M  V30 2257 H 208.315 5.84306 4.86303 0
M  V30 2258 N 209.89 -1.43072 0.660911 0
M  V30 2259 C 211.139 -2.00942 0.174735 0
M  V30 2260 C 211.452 -1.52797 -1.22117 0
M  V30 2261 O 212.658 -2.02991 -1.80297 0
M  V30 2262 C 211.114 -3.58948 0.261559 0
M  V30 2263 C 210.722 -4.16085 1.66064 0
M  V30 2264 C 212.466 -4.24173 -0.166617 0
M  V30 2265 C 210.373 -5.6641 1.70098 0
M  V30 2266 H 209.303 -0.751483 0.0615631 0
M  V30 2267 H 211.954 -1.63955 0.824069 0
M  V30 2268 H 210.336 -3.93372 -0.455421 0
M  V30 2269 H 211.51 -3.93147 2.40359 0
M  V30 2270 H 209.825 -3.6326 2.03546 0
M  V30 2271 H 212.422 -5.34471 -0.156433 0
M  V30 2272 H 212.765 -3.98647 -1.19943 0
M  V30 2273 H 213.298 -3.94659 0.498875 0
M  V30 2274 H 210.037 -5.96715 2.71315 0
M  V30 2275 H 209.557 -5.91382 1.00139 0
M  V30 2276 H 211.236 -6.30585 1.44816 0
M  V30 2277 N 211.368 -0.403325 -1.52352 0
M  V30 2278 C 212.3 0.4603 -2.2453 0
M  V30 2279 C 213.313 1.01505 -1.27282 0
M  V30 2280 O 214.502 0.914982 -1.53266 0
M  V30 2281 C 211.602 1.65208 -2.95905 0
M  V30 2282 C 210.775 1.22224 -4.19976 0
M  V30 2283 C 209.834 2.28028 -4.74226 0
M  V30 2284 O 208.86 1.88857 -5.36956 0
M  V30 2285 N 210.062 3.6012 -4.55295 0
M  V30 2286 H 212.827 -0.158156 -2.99282 0
M  V30 2287 H 210.388 -0.230402 -1.60252 0
M  V30 2288 H 212.38 2.35541 -3.29093 0
M  V30 2289 H 210.95 2.17658 -2.24374 0
M  V30 2290 H 210.17 0.34725 -3.92668 0
M  V30 2291 H 211.458 0.911924 -5.00561 0
M  V30 2292 H 210.856 3.94698 -4.05253 0
M  V30 2293 H 209.413 4.26447 -4.92936 0
M  V30 2294 N 212.846 1.57033 -0.133567 0
M  V30 2295 C 213.793 2.16074 0.811208 0
M  V30 2296 C 214.763 1.08979 1.2535 0
M  V30 2297 O 215.948 1.36958 1.32843 0
M  V30 2298 C 213.088 2.77595 2.05024 0
M  V30 2299 C 212.201 3.99042 1.65498 0
M  V30 2300 C 211.336 4.48603 2.84479 0
M  V30 2301 C 210.375 5.62547 2.41262 0
M  V30 2302 N 209.512 6.06787 3.53206 0
M  V30 2303 H 214.352 2.96477 0.300906 0
M  V30 2304 H 211.889 1.46462 0.136822 0
M  V30 2305 H 213.847 3.11402 2.77642 0
M  V30 2306 H 212.477 1.99859 2.53488 0
M  V30 2307 H 211.529 3.71302 0.826981 0
M  V30 2308 H 212.841 4.81629 1.29748 0
M  V30 2309 H 211.995 4.84395 3.65303 0
M  V30 2310 H 210.734 3.64995 3.23465 0
M  V30 2311 H 209.739 5.26345 1.58874 0
M  V30 2312 H 210.964 6.47931 2.03377 0
M  V30 2313 H 208.91 5.26117 3.91838 0
M  V30 2314 H 208.827 6.84266 3.21427 0
M  V30 2315 H 210.095 6.4722 4.34427 0
M  V30 2316 N 214.325 -0.140222 1.56975 0
M  V30 2317 C 215.272 -1.17292 1.98774 0
M  V30 2318 C 216.242 -1.4232 0.856408 0
M  V30 2319 O 217.427 -1.54541 1.119 0
M  V30 2320 C 214.567 -2.49973 2.37923 0
M  V30 2321 C 213.68 -2.32062 3.64378 0
M  V30 2322 C 212.815 -3.57825 3.926 0
M  V30 2323 C 211.854 -3.3498 5.12303 0
M  V30 2324 N 210.991 -4.52891 5.36502 0
M  V30 2325 H 215.831 -0.809472 2.86795 0
M  V30 2326 H 213.368 -0.388237 1.41884 0
M  V30 2327 H 215.326 -3.27346 2.58652 0
M  V30 2328 H 213.956 -2.84252 1.52972 0
M  V30 2329 H 213.008 -1.45711 3.51387 0
M  V30 2330 H 214.32 -2.11145 4.51906 0
M  V30 2331 H 213.474 -4.43624 4.13863 0
M  V30 2332 H 212.213 -3.81753 3.03506 0
M  V30 2333 H 211.218 -2.4757 4.90906 0
M  V30 2334 H 212.443 -3.12444 6.02956 0
M  V30 2335 H 210.389 -4.76979 4.50363 0
M  V30 2336 H 210.306 -4.35001 6.18312 0
M  V30 2337 H 211.574 -5.39884 5.62268 0
M  V30 2338 N 215.803 -1.52179 -0.40978 0
M  V30 2339 C 217.219 -1.40968 -0.74835 0
M  V30 2340 C 217.419 -0.513657 -1.94843 0
M  V30 2341 O 216.475 0.0208026 -2.52491 0
M  V30 2342 C 217.788 -2.83483 -1.0029 0
M  V30 2343 C 219.336 -2.92821 -1.10565 0
M  V30 2344 C 219.811 -4.36303 -1.39296 0
M  V30 2345 N 221.302 -4.39535 -1.46162 0
M  V30 2346 C 222.037 -5.47614 -1.70018 0
M  V30 2347 N 221.533 -6.65812 -1.91483 0
M  V30 2348 N 223.326 -5.35129 -1.72027 0
M  V30 2349 H 215.477 -2.0897 0.380186 0
M  V30 2350 H 217.74 -0.94185 0.107805 0
M  V30 2351 H 217.446 -3.51168 -0.193461 0
M  V30 2352 H 217.32 -3.24487 -1.92323 0
M  V30 2353 H 219.707 -2.25318 -1.90568 0
M  V30 2354 H 219.788 -2.55276 -0.16369 0
M  V30 2355 H 219.432 -5.04366 -0.598109 0
M  V30 2356 H 219.362 -4.71385 -2.34743 0
M  V30 2357 H 221.853 -3.54332 -1.31367 0
M  V30 2358 H 222.166 -7.43964 -2.09134 0
M  V30 2359 H 220.511 -6.68879 -1.88749 0
M  V30 2360 H 223.702 -4.41764 -1.54796 0
M  V30 2361 H 223.875 -6.19433 -1.9028 0
M  V30 2362 N 217.281 0.66697 -1.42791 0
M  V30 2363 C 218.211 1.79218 -1.49677 0
M  V30 2364 C 219.192 1.66405 -0.352623 0
M  V30 2365 O 220.377 1.85708 -0.567993 0
M  V30 2366 C 217.507 3.17565 -1.40605 0
M  V30 2367 C 216.461 3.45124 -2.53127 0
M  V30 2368 C 215.787 4.83127 -2.29112 0
M  V30 2369 C 217.087 3.41236 -3.95418 0
M  V30 2370 H 218.781 1.73713 -2.43853 0
M  V30 2371 H 216.327 0.83432 -1.17367 0
M  V30 2372 H 218.28 3.96022 -1.44029 0
M  V30 2373 H 217.004 3.23767 -0.429271 0
M  V30 2374 H 215.663 2.69031 -2.49034 0
M  V30 2375 H 215.311 4.85988 -1.29709 0
M  V30 2376 H 215.011 5.02528 -3.04531 0
M  V30 2377 H 216.535 5.63859 -2.34297 0
M  V30 2378 H 217.949 4.09651 -4.01073 0
M  V30 2379 H 216.346 3.72173 -4.70752 0
M  V30 2380 H 217.416 2.39665 -4.21532 0
M  V30 2381 N 218.759 1.29093 0.90403 0
M  V30 2382 C 219.984 1.19809 1.69294 0
M  V30 2383 C 220.409 -0.238481 1.86582 0
M  V30 2384 O 219.767 -1.1723 1.383 0
M  V30 2385 C 219.815 1.91202 3.05736 0
M  V30 2386 O 218.919 1.22611 3.93752 0
M  V30 2387 H 218.26 0.415385 0.518027 0
M  V30 2388 H 220.79 1.70586 1.12967 0
M  V30 2389 H 220.8 1.99487 3.55906 0
M  V30 2390 H 219.475 2.95692 2.92471 0
M  V30 2391 H 218.052 1.22554 3.52186 0
M  V30 2392 N 220.237 -1.11381 1.11499 0
M  V30 2393 C 221.483 -1.83403 0.865512 0
M  V30 2394 C 221.816 -1.84459 -0.607329 0
M  V30 2395 O 221.091 -1.29811 -1.44842 0
M  V30 2396 C 221.374 -3.30552 1.42855 0
M  V30 2397 C 221.227 -3.37886 2.96906 0
M  V30 2398 C 222.546 -4.26643 1.08 0
M  V30 2399 H 219.665 -0.665879 0.31587 0
M  V30 2400 H 222.307 -1.30601 1.37998 0
M  V30 2401 H 220.457 -3.75648 0.990985 0
M  V30 2402 H 222.129 -3.01343 3.49271 0
M  V30 2403 H 220.372 -2.78088 3.32941 0
M  V30 2404 H 221.043 -4.41458 3.31389 0
M  V30 2405 H 223.519 -3.89729 1.45775 0
M  V30 2406 H 222.395 -5.27986 1.50072 0
M  V30 2407 H 222.656 -4.42099 -0.00915037 0
M  V30 2408 N 221.715 -0.905404 -1.28997 0
M  V30 2409 C 222.94 -0.549175 -1.99997 0
M  V30 2410 C 223.365 0.860276 -1.67275 0
M  V30 2411 O 222.723 1.57355 -0.900502 0
M  V30 2412 C 222.771 -0.755185 -3.52604 0
M  V30 2413 O 221.875 0.189692 -4.11964 0
M  V30 2414 H 221.216 -0.213899 -0.628604 0
M  V30 2415 H 223.746 -1.21856 -1.64354 0
M  V30 2416 H 223.756 -0.662045 -4.02593 0
M  V30 2417 H 222.431 -1.78271 -3.75755 0
M  V30 2418 H 221.008 0.0485257 -3.72868 0
M  V30 2419 N 223.193 1.4272 -0.668489 0
M  V30 2420 C 224.156 2.292 0.00448567 0
M  V30 2421 C 225.156 1.43001 0.735339 0
M  V30 2422 O 226.346 1.64461 0.57429 0
M  V30 2423 C 223.478 3.25375 1.01705 0
M  V30 2424 H 224.671 2.90199 -0.756608 0
M  V30 2425 H 222.224 1.50254 -0.430506 0
M  V30 2426 H 222.959 2.69301 1.80686 0
M  V30 2427 H 222.744 3.88944 0.496463 0
M  V30 2428 H 224.234 3.90245 1.48655 0
M  V30 2429 N 224.671 0.411399 1.52136 0
M  V30 2430 C 225.581 -0.419774 2.30814 0
M  V30 2431 C 226.597 -1.0515 1.38634 0
M  V30 2432 O 227.773 -1.05252 1.71709 0
M  V30 2433 C 224.838 -1.52019 3.11594 0
M  V30 2434 C 223.899 -0.91129 4.19516 0
M  V30 2435 C 223.132 -1.95927 4.96436 0
M  V30 2436 O 223.355 -3.17775 4.73683 0
M  V30 2437 O 222.289 -1.56423 5.81219 0
M  V30 2438 H 226.115 0.221805 3.02889 0
M  V30 2439 H 223.7 0.174547 1.48377 0
M  V30 2440 H 225.582 -2.15898 3.61892 0
M  V30 2441 H 224.257 -2.14633 2.42311 0
M  V30 2442 H 223.164 -0.235157 3.7336 0
M  V30 2443 H 224.497 -0.32904 4.91099 0
M  V30 2444 N 226.149 -1.5696 0.141893 0
M  V30 2445 C 227.112 -2.15316 -0.785587 0
M  V30 2446 C 228.112 -1.09366 -1.1788 0
M  V30 2447 O 229.302 -1.35031 -1.10056 0
M  V30 2448 C 226.434 -2.71211 -2.06537 0
M  V30 2449 H 227.627 -2.98608 -0.278041 0
M  V30 2450 H 225.18 -1.5593 -0.107519 0
M  V30 2451 H 225.915 -1.91571 -2.6167 0
M  V30 2452 H 225.7 -3.4872 -1.79268 0
M  V30 2453 H 227.19 -3.16189 -2.72789 0
M  V30 2454 N 227.627 0.131896 -1.57047 0
M  V30 2455 C 228.857 0.855219 -1.88068 0
M  V30 2456 C 229.265 1.74557 -0.729817 0
M  V30 2457 O 228.608 1.81083 0.308962 0
M  V30 2458 C 228.67 1.75119 -3.13964 0
M  V30 2459 C 228.334 1.03646 -4.45091 0
M  V30 2460 C 229.331 0.383276 -5.18485 0
M  V30 2461 C 227.016 1.02148 -4.91804 0
M  V30 2462 C 229.01 -0.275347 -6.36805 0
M  V30 2463 C 226.697 0.359047 -6.10044 0
M  V30 2464 C 227.695 -0.288222 -6.82392 0
M  V30 2465 O 227.383 -0.94011 -7.98384 0
M  V30 2466 H 227.115 0.251864 -0.627328 0
M  V30 2467 H 229.669 0.124782 -2.05021 0
M  V30 2468 H 227.899 2.52295 -2.9306 0
M  V30 2469 H 229.588 2.3478 -3.31109 0
M  V30 2470 H 230.354 0.386562 -4.83457 0
M  V30 2471 H 226.233 1.5147 -4.35405 0
M  V30 2472 H 229.777 -0.781148 -6.93213 0
M  V30 2473 H 225.674 0.35348 -6.44531 0
M  V30 2474 H 226.442 -0.84329 -8.14144 0
M  V30 2475 N 229.106 1.52395 0.401703 0
M  V30 2476 C 230.354 1.66488 1.14569 0
M  V30 2477 C 230.675 0.400897 1.90835 0
M  V30 2478 O 229.945 -0.584415 1.8698 0
M  V30 2479 H 228.525 0.613672 0.425929 0
M  V30 2480 H 231.187 1.89464 0.457093 0
M  V30 2481 H 230.283 2.50942 1.85566 0
M  V30 2482 N 230.584 -0.659388 1.43143 0
M  V30 2483 C 231.861 -1.41627 1.34912 0
M  V30 2484 C 232.241 -2.11099 -0.00607785 0
M  V30 2485 O 231.589 -2.04353 -1.02236 0
M  V30 2486 C 231.799 -2.40604 2.52805 0
M  V30 2487 C 233.147 -3.04789 2.95616 0
M  V30 2488 O 234.171 -2.50932 2.52807 0
M  V30 2489 O 233.03 -4.02421 3.69756 0
M  V30 2490 H 230.124 -0.63246 0.532844 0
M  V30 2491 H 232.67 -0.686814 1.5518 0
M  V30 2492 H 231.442 -1.88174 3.43083 0
M  V30 2493 H 231.065 -3.21009 2.34604 0
M  V30 2494 N 232.062 -1.29571 -0.897171 0
M  V30 2495 C 233.308 -1.18873 -1.65048 0
M  V30 2496 C 233.663 0.256707 -1.9068 0
M  V30 2497 O 232.956 1.18202 -1.50794 0
M  V30 2498 C 233.15 -1.9382 -3.00281 0
M  V30 2499 C 232.979 -3.45503 -2.8785 0
M  V30 2500 C 231.749 -4.14856 -2.88483 0
M  V30 2501 C 233.947 -4.40956 -2.64693 0
M  V30 2502 N 231.929 -5.52886 -2.66815 0
M  V30 2503 C 233.3 -5.66464 -2.5203 0
M  V30 2504 C 235.355 -4.3069 -2.49821 0
M  V30 2505 C 234.058 -6.82871 -2.26008 0
M  V30 2506 C 236.084 -5.46852 -2.25182 0
M  V30 2507 C 235.446 -6.71333 -2.13286 0
M  V30 2508 H 231.545 -0.489998 -0.609447 0
M  V30 2509 H 234.129 -1.63431 -1.05822 0
M  V30 2510 H 232.3 -1.51671 -3.57562 0
M  V30 2511 H 234.032 -1.75366 -3.64731 0
M  V30 2512 H 230.787 -3.66579 -2.99861 0
M  V30 2513 H 231.211 -6.25487 -2.59027 0
M  V30 2514 H 235.853 -3.35141 -2.5776 0
M  V30 2515 H 233.571 -7.78473 -2.16806 0
M  V30 2516 H 237.157 -5.40809 -2.14515 0
M  V30 2517 H 236.037 -7.59701 -1.94485 0
M  V30 2518 N 233.54 1.10788 -1.12088 0
M  V30 2519 C 234.488 2.19111 -0.780587 0
M  V30 2520 C 235.482 1.67818 0.230961 0
M  V30 2521 O 236.688 1.79777 0.0895427 0
M  V30 2522 H 233.063 0.714477 -0.234578 0
M  V30 2523 H 235.034 2.45055 -1.70266 0
M  V30 2524 C 233.783 3.46818 -0.24747 0
M  V30 2525 H 233.106 3.86646 -1.01712 0
M  V30 2526 H 234.546 4.23973 -0.0476291 0
M  V30 2527 C 233.005 3.20968 1.02378 0
M  V30 2528 O 233.535 3.42298 2.10226 0
M  V30 2529 N 231.741 2.74658 0.949271 0
M  V30 2530 H 231.288 2.57501 0.0715173 0
M  V30 2531 H 231.246 2.57739 1.80049 0
M  V30 2532 N 235.018 0.912232 1.28515 0
M  V30 2533 C 235.965 0.397954 2.27343 0
M  V30 2534 C 236.935 -0.526766 1.57526 0
M  V30 2535 O 238.12 -0.449292 1.85435 0
M  V30 2536 C 235.26 -0.357263 3.43246 0
M  V30 2537 C 234.373 0.599788 4.27816 0
M  V30 2538 C 233.508 -0.173725 5.30916 0
M  V30 2539 C 232.547 0.777039 6.07148 0
M  V30 2540 N 231.684 0.0371398 7.0209 0
M  V30 2541 H 236.524 1.24577 2.70711 0
M  V30 2542 H 234.061 0.625612 1.33133 0
M  V30 2543 H 236.019 -0.8113 4.09236 0
M  V30 2544 H 234.649 -1.16943 3.00872 0
M  V30 2545 H 233.701 1.17235 3.61884 0
M  V30 2546 H 235.013 1.32704 4.80823 0
M  V30 2547 H 234.167 -0.688394 6.02782 0
M  V30 2548 H 232.906 -0.934041 4.78672 0
M  V30 2549 H 231.911 1.3031 5.34134 0
M  V30 2550 H 233.136 1.53689 6.61481 0
M  V30 2551 H 231.082 -0.705213 6.52198 0
M  V30 2552 H 230.999 0.704249 7.52713 0
M  V30 2553 H 232.267 -0.457383 7.78157 0
M  V30 2554 N 236.496 -1.42363 0.676048 0
M  V30 2555 C 237.443 -2.308 -0.00150904 0
M  V30 2556 C 238.413 -1.46032 -0.791444 0
M  V30 2557 O 239.598 -1.74861 -0.76344 0
M  V30 2558 C 236.738 -3.31883 -0.945919 0
M  V30 2559 C 235.851 -4.31741 -0.149675 0
M  V30 2560 C 234.986 -5.19898 -1.08995 0
M  V30 2561 C 234.025 -6.11434 -0.285465 0
M  V30 2562 N 233.162 -6.92138 -1.17851 0
M  V30 2563 H 238.002 -2.88187 0.758455 0
M  V30 2564 H 235.539 -1.41952 0.38576 0
M  V30 2565 H 237.497 -3.89019 -1.50731 0
M  V30 2566 H 236.127 -2.76093 -1.6725 0
M  V30 2567 H 235.179 -3.76713 0.528359 0
M  V30 2568 H 236.491 -4.96534 0.474866 0
M  V30 2569 H 235.645 -5.81772 -1.72123 0
M  V30 2570 H 234.384 -4.55284 -1.74837 0
M  V30 2571 H 233.389 -5.48627 0.359018 0
M  V30 2572 H 234.614 -6.78097 0.368883 0
M  V30 2573 H 232.56 -6.30152 -1.82332 0
M  V30 2574 H 232.477 -7.53542 -0.609082 0
M  V30 2575 H 233.745 -7.58499 -1.79722 0
M  V30 2576 N 237.974 -0.419461 -1.51915 0
M  V30 2577 C 239.223 0.154346 -2.01109 0
M  V30 2578 C 239.536 1.45338 -1.30905 0
M  V30 2579 O 240.742 2.10906 -1.7097 0
M  V30 2580 C 239.198 0.325615 -3.58424 0
M  V30 2581 C 238.806 -0.961934 -4.37551 0
M  V30 2582 C 240.55 0.854155 -4.15818 0
M  V30 2583 C 238.457 -0.757287 -5.86531 0
M  V30 2584 H 237.387 0.0614563 -0.751491 0
M  V30 2585 H 240.038 -0.54649 -1.75173 0
M  V30 2586 H 238.42 1.08903 -3.80731 0
M  V30 2587 H 239.594 -1.7323 -4.26999 0
M  V30 2588 H 237.909 -1.41766 -3.91524 0
M  V30 2589 H 240.506 1.02346 -5.24814 0
M  V30 2590 H 240.849 1.83172 -3.73837 0
M  V30 2591 H 241.382 0.149528 -3.97519 0
M  V30 2592 H 238.121 -1.70671 -6.32892 0
M  V30 2593 H 237.641 -0.0264061 -5.99794 0
M  V30 2594 H 239.32 -0.403482 -6.45741 0
M  V30 2595 N 239.452 1.56882 -0.150215 0
M  V30 2596 C 240.729 1.87844 0.545327 0
M  V30 2597 C 241.109 1.0567 1.82749 0
M  V30 2598 O 240.457 0.144442 2.28043 0
M  V30 2599 C 240.667 3.39526 0.80767 0
M  V30 2600 C 242.015 4.08814 1.14703 0
M  V30 2601 O 243.039 3.44723 0.896917 0
M  V30 2602 O 241.898 5.22004 1.61784 0
M  V30 2603 H 238.992 0.778677 0.278553 0
M  V30 2604 H 241.538 1.68666 -0.187068 0
M  V30 2605 H 240.31 3.91173 -0.0996096 0
M  V30 2606 H 239.933 3.64243 1.59413 0
M  V30 2607 N 240.93 -0.123565 1.57115 0
M  V30 2608 C 241.878 -1.17082 2.00984 0
M  V30 2609 C 242.872 -1.43136 0.906009 0
M  V30 2610 O 244.078 -1.43152 1.09121 0
M  V30 2611 H 240.453 -0.394653 0.64012 0
M  V30 2612 H 242.424 -0.774292 2.88179 0
M  V30 2613 C 241.173 -2.49057 2.42623 0
M  V30 2614 H 240.496 -2.29846 3.27125 0
M  V30 2615 H 241.936 -3.20906 2.7712 0
M  V30 2616 C 240.395 -3.11305 1.28805 0
M  V30 2617 O 240.925 -3.97171 0.60153 0
M  V30 2618 N 239.131 -2.71111 1.04628 0
M  V30 2619 H 238.678 -2.01382 1.60634 0
M  V30 2620 H 238.636 -3.1309 0.286685 0
M  V30 2621 N 242.408 -1.52605 -0.393616 0
M  V30 2622 C 243.655 -1.67424 -1.1391 0
M  V30 2623 C 243.983 -0.411859 -1.90089 0
M  V30 2624 O 243.238 0.605626 -1.86093 0
M  V30 2625 C 243.537 -2.85721 -2.14705 0
M  V30 2626 C 243.203 -4.23342 -1.55218 0
M  V30 2627 C 241.865 -4.60771 -1.3872 0
M  V30 2628 C 244.217 -5.09041 -1.11924 0
M  V30 2629 C 241.545 -5.81563 -0.774689 0
M  V30 2630 C 243.897 -6.30452 -0.520853 0
M  V30 2631 C 242.561 -6.66617 -0.343134 0
M  V30 2632 H 241.831 -0.612648 -0.416826 0
M  V30 2633 H 244.478 -1.8674 -0.424315 0
M  V30 2634 H 242.783 -2.60803 -2.92385 0
M  V30 2635 H 244.48 -2.94382 -2.72288 0
M  V30 2636 H 241.07 -3.93855 -1.69045 0
M  V30 2637 H 245.254 -4.80695 -1.23473 0
M  V30 2638 H 240.51 -6.08196 -0.625154 0
M  V30 2639 H 244.684 -6.96175 -0.177065 0
M  V30 2640 H 242.311 -7.60083 0.133571 0
M  V30 2641 N 243.887 0.651787 -1.4349 0
M  V30 2642 C 245.136 1.40754 -1.44469 0
M  V30 2643 C 245.449 1.95463 -0.0731845 0
M  V30 2644 O 246.655 2.71471 0.0395721 0
M  V30 2645 C 245.111 2.54735 -2.5424 0
M  V30 2646 C 244.719 2.06628 -3.97504 0
M  V30 2647 C 246.463 3.32092 -2.64414 0
M  V30 2648 C 244.37 3.17829 -4.98737 0
M  V30 2649 H 243.3 0.528862 -0.53742 0
M  V30 2650 H 245.951 0.703365 -1.69485 0
M  V30 2651 H 244.333 3.2763 -2.22428 0
M  V30 2652 H 245.507 1.40734 -4.38783 0
M  V30 2653 H 243.822 1.42146 -3.91387 0
M  V30 2654 H 246.419 4.14952 -3.37223 0
M  V30 2655 H 246.762 3.80217 -1.69532 0
M  V30 2656 H 247.295 2.66279 -2.95534 0
M  V30 2657 H 244.034 2.74671 -5.95177 0
M  V30 2658 H 243.554 3.82429 -4.62069 0
M  V30 2659 H 245.233 3.82937 -5.21505 0
M  V30 2660 N 245.365 1.30045 0.890287 0
M  V30 2661 C 246.776 1.16738 1.45702 0
M  V30 2662 C 247.127 -0.233939 1.948 0
M  V30 2663 O 246.252 -1.13021 1.84541 0
M  V30 2664 C 246.847 2.11313 2.64825 0
M  V30 2665 C 245.406 2.02001 3.17604 0
M  V30 2666 C 244.553 2.01699 1.90296 0
M  V30 2667 H 247.504 1.42392 0.700726 0
M  V30 2668 H 247.525 1.69086 3.40867 0
M  V30 2669 H 247.037 3.13294 2.2906 0
M  V30 2670 H 245.138 1.03142 3.5804 0
M  V30 2671 H 245.251 2.90128 3.81264 0
M  V30 2672 H 243.615 1.46427 2.08402 0
M  V30 2673 H 244.398 3.05402 1.56795 0
M  V30 2674 N 246.843 -1.10192 1.12674 0
M  V30 2675 C 247.79 -2.16606 0.796906 0
M  V30 2676 C 248.76 -1.64394 -0.237476 0
M  V30 2677 O 249.945 -1.90474 -0.111484 0
M  V30 2678 C 247.085 -3.44116 0.26043 0
M  V30 2679 C 246.198 -4.10268 1.35293 0
M  V30 2680 C 245.333 -5.25507 0.775621 0
M  V30 2681 C 244.372 -5.83567 1.84706 0
M  V30 2682 N 243.509 -6.90179 1.28829 0
M  V30 2683 H 248.349 -2.44163 1.70846 0
M  V30 2684 H 245.886 -1.19846 0.85295 0
M  V30 2685 H 247.844 -4.17143 -0.0686814 0
M  V30 2686 H 246.474 -3.16901 -0.614274 0
M  V30 2687 H 245.526 -3.35184 1.79877 0
M  V30 2688 H 246.838 -4.4946 2.16303 0
M  V30 2689 H 245.992 -6.05398 0.397327 0
M  V30 2690 H 244.731 -4.87656 -0.0656581 0
M  V30 2691 H 243.736 -5.02344 2.23452 0
M  V30 2692 H 244.961 -6.23482 2.69161 0
M  V30 2693 H 242.907 -6.54322 0.468881 0
M  V30 2694 H 242.824 -7.28097 2.03497 0
M  V30 2695 H 244.092 -7.73844 0.937311 0
M  V30 2696 N 248.321 -0.919034 -1.28029 0
M  V30 2697 C 249.567 -0.555757 -1.95036 0
M  V30 2698 C 249.9 0.899198 -1.72128 0
M  V30 2699 O 249.175 1.64023 -1.04531 0
M  V30 2700 C 249.458 -0.872024 -3.49382 0
M  V30 2701 C 249.311 -2.3801 -3.81669 0
M  V30 2702 C 250.63 -0.37185 -4.38526 0
M  V30 2703 H 247.749 -0.203386 -0.708381 0
M  V30 2704 H 250.391 -1.14924 -1.51303 0
M  V30 2705 H 248.541 -0.366946 -3.86763 0
M  V30 2706 H 250.213 -2.9562 -3.54128 0
M  V30 2707 H 248.456 -2.83289 -3.28526 0
M  V30 2708 H 249.127 -2.55192 -4.8947 0
M  V30 2709 H 251.603 -0.804602 -4.08247 0
M  V30 2710 H 250.479 -0.622173 -5.45362 0
M  V30 2711 H 250.74 0.727934 -4.36066 0
M  V30 2712 N 249.799 1.42003 -0.683588 0
M  V30 2713 C 251.029 2.05448 -0.217866 0
M  V30 2714 C 251.437 1.51491 1.13346 0
M  V30 2715 O 250.78 0.653048 1.717 0
M  V30 2716 C 250.842 3.59399 -0.0850118 0
M  V30 2717 C 250.506 4.36093 -1.36645 0
M  V30 2718 C 251.503 4.66169 -2.30179 0
M  V30 2719 C 249.188 4.75578 -1.61649 0
M  V30 2720 C 251.182 5.34676 -3.46988 0
M  V30 2721 C 248.869 5.43824 -2.78745 0
M  V30 2722 C 249.867 5.73299 -3.71238 0
M  V30 2723 O 249.555 6.40142 -4.86285 0
M  V30 2724 H 249.287 0.668344 -0.101454 0
M  V30 2725 H 251.841 1.82974 -0.933248 0
M  V30 2726 H 250.071 3.80566 0.686031 0
M  V30 2727 H 251.76 4.04457 0.341973 0
M  V30 2728 H 252.526 4.36156 -2.12115 0
M  V30 2729 H 248.405 4.52025 -0.905243 0
M  V30 2730 H 251.949 5.57599 -4.19201 0
M  V30 2731 H 247.846 5.73254 -2.96732 0
M  V30 2732 H 248.614 6.58636 -4.85944 0
M  V30 2733 N 251.277 0.427512 1.51691 0
M  V30 2734 C 252.224 -0.388867 2.275 0
M  V30 2735 C 253.194 -1.02532 1.30677 0
M  V30 2736 O 254.379 -1.0461 1.59566 0
M  V30 2737 C 251.519 -1.48954 3.11298 0
M  V30 2738 C 250.632 -0.872194 4.23104 0
M  V30 2739 C 249.767 -1.94709 4.94228 0
M  V30 2740 C 248.806 -1.30766 5.97969 0
M  V30 2741 N 247.943 -2.32349 6.62539 0
M  V30 2742 H 252.783 0.263997 2.96828 0
M  V30 2743 H 250.32 0.142033 1.46413 0
M  V30 2744 H 252.278 -2.13887 3.58201 0
M  V30 2745 H 250.908 -2.11217 2.44105 0
M  V30 2746 H 249.96 -0.111419 3.80237 0
M  V30 2747 H 251.272 -0.365264 4.97461 0
M  V30 2748 H 250.426 -2.67327 5.44629 0
M  V30 2749 H 249.165 -2.48773 4.1948 0
M  V30 2750 H 248.17 -0.566902 5.4687 0
M  V30 2751 H 249.395 -0.774483 6.74669 0
M  V30 2752 H 247.341 -2.85511 5.90609 0
M  V30 2753 H 247.258 -1.8652 7.3263 0
M  V30 2754 H 248.526 -3.04481 7.17574 0
M  V30 2755 N 252.755 -1.56801 0.158532 0
M  V30 2756 C 253.702 -2.17337 -0.776729 0
M  V30 2757 C 254.672 -1.1096 -1.23601 0
M  V30 2758 O 255.857 -1.39054 -1.30647 0
M  V30 2759 C 252.997 -2.80822 -2.00582 0
M  V30 2760 C 252.11 -4.01624 -1.59129 0
M  V30 2761 C 251.245 -4.53072 -2.77306 0
M  V30 2762 C 250.284 -5.66314 -2.32282 0
M  V30 2763 N 249.421 -6.12329 -3.43508 0
M  V30 2764 H 254.261 -2.96918 -0.253701 0
M  V30 2765 H 251.798 -1.46661 -0.113504 0
M  V30 2766 H 253.756 -3.15779 -2.72652 0
M  V30 2767 H 252.386 -2.03866 -2.50277 0
M  V30 2768 H 251.438 -3.72571 -0.767806 0
M  V30 2769 H 252.75 -4.83633 -1.2207 0
M  V30 2770 H 251.904 -4.90145 -3.57551 0
M  V30 2771 H 250.643 -3.70095 -3.17617 0
M  V30 2772 H 249.648 -5.28806 -1.5048 0
M  V30 2773 H 250.873 -6.51085 -1.93043 0
M  V30 2774 H 248.819 -5.32284 -3.83418 0
M  V30 2775 H 248.736 -6.89293 -3.105 0
M  V30 2776 H 250.004 -6.5405 -4.24075 0
M  V30 2777 N 254.233 0.115231 -1.57178 0
M  V30 2778 C 255.51 0.852873 -1.76027 0
M  V30 2779 C 255.89 1.97892 -0.73498 0
M  V30 2780 O 255.238 2.27232 0.24036 0
M  V30 2781 C 255.448 1.36608 -3.21153 0
M  V30 2782 C 256.796 1.81692 -3.83762 0
M  V30 2783 O 257.82 1.46278 -3.24779 0
M  V30 2784 O 256.679 2.47104 -4.87444 0
M  V30 2785 H 253.773 0.405296 -0.720877 0
M  V30 2786 H 256.319 0.0986785 -1.69413 0
M  V30 2787 H 255.091 0.558357 -3.87296 0
M  V30 2788 H 254.714 2.18287 -3.3232 0
M  V30 2789 N 255.711 1.52812 0.385517 0
M  V30 2790 C 256.621 1.80766 1.49535 0
M  V30 2791 C 257.637 0.694651 1.59532 0
M  V30 2792 O 258.813 0.982611 1.75803 0
M  V30 2793 C 255.878 1.97381 2.85029 0
M  V30 2794 C 254.939 3.21295 2.84724 0
M  V30 2795 C 254.172 3.37108 4.13756 0
M  V30 2796 O 254.395 2.5765 5.08893 0
M  V30 2797 O 253.329 4.30378 4.20783 0
M  V30 2798 H 257.155 2.75015 1.28842 0
M  V30 2799 H 254.74 1.37946 0.573697 0
M  V30 2800 H 256.622 2.09996 3.65349 0
M  V30 2801 H 255.297 1.06322 3.05741 0
M  V30 2802 H 254.204 3.1412 2.03174 0
M  V30 2803 H 255.537 4.12212 2.68965 0
M  V30 2804 N 257.189 -0.644168 1.43834 0
M  V30 2805 C 258.136 -1.75671 1.49694 0
M  V30 2806 C 259.106 -1.6246 0.345809 0
M  V30 2807 O 260.291 -1.82573 0.554234 0
M  V30 2808 C 257.431 -3.13867 1.43463 0
M  V30 2809 C 256.544 -3.38147 2.6885 0
M  V30 2810 C 255.679 -4.66241 2.54544 0
M  V30 2811 C 254.718 -4.83657 3.75157 0
M  V30 2812 N 253.855 -6.03016 3.59605 0
M  V30 2813 H 258.695 -1.69998 2.44754 0
M  V30 2814 H 256.232 -0.829458 1.21484 0
M  V30 2815 H 258.19 -3.9377 1.37843 0
M  V30 2816 H 256.82 -3.18588 0.519783 0
M  V30 2817 H 255.872 -2.52276 2.84712 0
M  V30 2818 H 257.184 -3.46899 3.58417 0
M  V30 2819 H 256.338 -5.54285 2.46683 0
M  V30 2820 H 255.077 -4.59826 1.62516 0
M  V30 2821 H 254.082 -3.94046 3.83416 0
M  V30 2822 H 255.307 -4.91896 4.68204 0
M  V30 2823 H 253.253 -5.97715 2.7032 0
M  V30 2824 H 253.17 -6.12766 4.42779 0
M  V30 2825 H 254.438 -6.93657 3.55613 0
M  V30 2826 N 258.668 -1.30515 -0.883378 0
M  V30 2827 C 259.578 -1.18959 -2.02203 0
M  V30 2828 C 260.594 -0.109172 -1.73657 0
M  V30 2829 O 261.77 -0.324413 -1.9877 0
M  V30 2830 C 258.835 -0.883871 -3.35244 0
M  V30 2831 C 257.896 -2.04982 -3.77201 0
M  V30 2832 C 257.129 -1.75859 -5.03894 0
M  V30 2833 O 257.352 -0.687276 -5.66244 0
M  V30 2834 O 256.286 -2.61146 -5.42297 0
M  V30 2835 H 260.112 -2.14616 -2.1488 0
M  V30 2836 H 257.697 -1.10124 -1.0096 0
M  V30 2837 H 259.579 -0.728644 -4.15053 0
M  V30 2838 H 258.254 0.0427798 -3.23672 0
M  V30 2839 H 257.161 -2.26038 -2.9809 0
M  V30 2840 H 258.494 -2.95825 -3.93381 0
M  V30 2841 N 260.146 1.09593 -1.13257 0
M  V30 2842 C 261.093 2.1618 -0.808381 0
M  V30 2843 C 262.063 1.64517 0.228754 0
M  V30 2844 O 263.248 1.9053 0.101381 0
M  V30 2845 C 260.388 3.43973 -0.278675 0
M  V30 2846 C 259.501 4.09545 -1.37466 0
M  V30 2847 C 258.636 5.25088 -0.803479 0
M  V30 2848 C 257.675 5.82579 -1.87799 0
M  V30 2849 N 256.812 6.89486 -1.32488 0
M  V30 2850 H 261.652 2.43254 -1.72138 0
M  V30 2851 H 259.189 1.19392 -0.859294 0
M  V30 2852 H 261.147 4.17174 0.0465583 0
M  V30 2853 H 259.777 3.17223 0.597459 0
M  V30 2854 H 258.829 3.34226 -1.81652 0
M  V30 2855 H 260.141 4.48307 -2.18684 0
M  V30 2856 H 259.295 6.05178 -0.429427 0
M  V30 2857 H 258.034 4.87684 0.0397956 0
M  V30 2858 H 257.039 5.01152 -2.26113 0
M  V30 2859 H 258.264 6.22045 -2.72463 0
M  V30 2860 H 256.21 6.54064 -0.503575 0
M  V30 2861 H 256.127 7.27007 -2.07355 0
M  V30 2862 H 257.395 7.73336 -0.978336 0
M  V30 2863 N 261.624 0.925811 1.2754 0
M  V30 2864 C 262.587 0.428129 2.25166 0
M  V30 2865 C 263.587 -0.452261 1.54309 0
M  V30 2866 O 264.777 -0.253608 1.72344 0
M  V30 2867 C 261.909 -0.384749 3.38722 0
M  V30 2868 H 263.102 1.29066 2.70706 0
M  V30 2869 H 260.655 0.706323 1.3943 0
M  V30 2870 H 261.39 -1.26618 2.98561 0
M  V30 2871 H 261.175 0.246454 3.91325 0
M  V30 2872 H 262.665 -0.723389 4.11287 0
M  V30 2873 N 263.102 -1.41638 0.69111 0
M  V30 2874 C 264.049 -2.30789 0.0229705 0
M  V30 2875 C 265.019 -1.46863 -0.775911 0
M  V30 2876 O 266.204 -1.75661 -0.74485 0
M  V30 2877 C 263.344 -3.32868 -0.910666 0
M  V30 2878 C 262.457 -4.31875 -0.103874 0
M  V30 2879 C 261.592 -5.21024 -1.03475 0
M  V30 2880 C 260.631 -6.11702 -0.220598 0
M  V30 2881 N 259.768 -6.93349 -1.10504 0
M  V30 2882 H 264.608 -2.87366 0.788978 0
M  V30 2883 H 262.145 -1.41535 0.400794 0
M  V30 2884 H 264.103 -3.90596 -1.46597 0
M  V30 2885 H 262.733 -2.77851 -1.64312 0
M  V30 2886 H 261.785 -3.76131 0.568285 0
M  V30 2887 H 263.097 -4.96003 0.527504 0
M  V30 2888 H 262.251 -5.83565 -1.65943 0
M  V30 2889 H 260.99 -4.57112 -1.69999 0
M  V30 2890 H 259.995 -5.48215 0.417187 0
M  V30 2891 H 261.22 -6.77668 0.440784 0
M  V30 2892 H 259.166 -6.3205 -1.75638 0
M  V30 2893 H 259.083 -7.54146 -0.529125 0
M  V30 2894 H 260.351 -7.60362 -1.71667 0
M  V30 2895 N 264.58 -0.43555 -1.51462 0
M  V30 2896 C 265.829 0.133007 -2.01261 0
M  V30 2897 C 266.142 1.43942 -1.32439 0
M  V30 2898 O 267.348 2.09081 -1.73198 0
M  V30 2899 C 265.804 0.287581 -3.58749 0
M  V30 2900 C 265.412 -1.00829 -4.36506 0
M  V30 2901 C 267.156 0.810004 -4.167 0
M  V30 2902 C 265.063 -0.819454 -5.85695 0
M  V30 2903 H 263.993 0.0534822 -0.752101 0
M  V30 2904 H 266.644 -0.565038 -1.74584 0
M  V30 2905 H 265.026 1.04859 -3.81865 0
M  V30 2906 H 266.2 -1.77749 -4.25138 0
M  V30 2907 H 264.515 -1.45911 -3.89999 0
M  V30 2908 H 267.112 0.967743 -5.2587 0
M  V30 2909 H 267.455 1.79196 -3.75758 0
M  V30 2910 H 267.988 0.107357 -3.97655 0
M  V30 2911 H 264.727 -1.77374 -6.31046 0
M  V30 2912 H 264.247 -0.0900208 -5.99732 0
M  V30 2913 H 265.926 -0.471949 -6.45276 0
M  V30 2914 N 266.058 1.56714 -0.166846 0
M  V30 2915 C 267.474 1.58473 0.189372 0
M  V30 2916 C 267.674 1.18201 1.63189 0
M  V30 2917 O 266.73 0.891528 2.36237 0
M  V30 2918 C 268.043 3.00573 -0.0873872 0
M  V30 2919 C 269.591 3.1299 -0.0252443 0
M  V30 2920 C 270.066 4.57174 -0.274934 0
M  V30 2921 N 271.557 4.62665 -0.222553 0
M  V30 2922 C 272.292 5.72072 -0.389985 0
M  V30 2923 N 271.788 6.90054 -0.616229 0
M  V30 2924 N 273.581 5.61153 -0.326202 0
M  V30 2925 H 265.732 1.8118 -1.10849 0
M  V30 2926 H 267.995 0.839525 -0.440342 0
M  V30 2927 H 267.701 3.34497 -1.0865 0
M  V30 2928 H 267.575 3.72019 0.623037 0
M  V30 2929 H 269.962 2.78895 0.96444 0
M  V30 2930 H 270.043 2.43989 -0.768309 0
M  V30 2931 H 269.687 4.91976 -1.26181 0
M  V30 2932 H 269.617 5.24328 0.48869 0
M  V30 2933 H 272.108 3.77863 -0.0531512 0
M  V30 2934 H 272.421 7.69311 -0.733559 0
M  V30 2935 H 270.766 6.91927 -0.652791 0
M  V30 2936 H 273.957 4.67859 -0.150072 0
M  V30 2937 H 274.13 6.46364 -0.460116 0
M  V30 2938 N 267.536 -0.106894 1.57237 0
M  V30 2939 C 268.446 -1.14911 2.0453 0
M  V30 2940 C 269.462 -1.44592 0.96795 0
M  V30 2941 O 270.638 -1.55468 1.2803 0
M  V30 2942 C 267.703 -2.45272 2.45036 0
M  V30 2943 C 266.764 -2.22879 3.66911 0
M  V30 2944 C 265.997 -3.47024 4.05475 0
M  V30 2945 O 266.22 -4.54804 3.44252 0
M  V30 2946 O 265.154 -3.3731 4.98504 0
M  V30 2947 H 268.98 -0.777461 2.9358 0
M  V30 2948 H 266.565 -0.318563 1.45964 0
M  V30 2949 H 268.447 -3.22055 2.71769 0
M  V30 2950 H 267.122 -2.81886 1.59129 0
M  V30 2951 H 266.029 -1.43915 3.45311 0
M  V30 2952 H 267.362 -1.91163 4.53561 0
M  V30 2953 N 269.014 -1.53014 -0.377408 0
M  V30 2954 C 269.977 -1.77957 -1.44444 0
M  V30 2955 C 270.977 -0.649763 -1.47087 0
M  V30 2956 O 272.167 -0.917897 -1.48055 0
M  V30 2957 C 269.299 -1.89089 -2.83651 0
M  V30 2958 H 270.492 -2.73243 -1.23606 0
M  V30 2959 H 268.045 -1.43912 -0.609844 0
M  V30 2960 H 268.78 -0.958293 -3.09818 0
M  V30 2961 H 268.565 -2.71254 -2.83132 0
M  V30 2962 H 270.055 -2.1002 -3.60945 0
M  V30 2963 N 270.492 0.636531 -1.44174 0
M  V30 2964 C 271.422 1.76003 -1.53444 0
M  V30 2965 C 272.403 1.65619 -0.387841 0
M  V30 2966 O 273.588 1.84461 -0.607257 0
M  V30 2967 C 270.718 3.14511 -1.4731 0
M  V30 2968 C 269.672 3.39677 -2.60391 0
M  V30 2969 C 268.998 4.78159 -2.39308 0
M  V30 2970 C 270.298 3.32772 -4.02567 0
M  V30 2971 H 271.992 1.68501 -2.47483 0
M  V30 2972 H 269.538 0.809237 -1.19111 0
M  V30 2973 H 271.491 3.92878 -1.52397 0
M  V30 2974 H 270.215 3.22783 -0.49785 0
M  V30 2975 H 268.874 2.63688 -2.54684 0
M  V30 2976 H 268.522 4.83128 -1.39988 0
M  V30 2977 H 268.222 4.95956 -3.15122 0
M  V30 2978 H 269.746 5.58762 -2.46205 0
M  V30 2979 H 271.16 4.01051 -4.09672 0
M  V30 2980 H 269.557 3.62104 -4.7854 0
M  V30 2981 H 270.627 2.30669 -4.2652 0
M  V30 2982 N 271.97 1.30982 0.876444 0
M  V30 2983 C 272.918 1.18006 2.00443 0
M  V30 2984 C 273.912 0.0898871 1.69161 0
M  V30 2985 O 275.118 0.251333 1.78237 0
M  V30 2986 H 271.493 0.365196 0.65737 0
M  V30 2987 H 273.464 2.13453 2.0852 0
M  V30 2988 C 272.213 0.897521 3.35916 0
M  V30 2989 H 271.536 1.7285 3.60504 0
M  V30 2990 H 272.976 0.846874 4.15456 0
M  V30 2991 C 271.435 -0.399674 3.34521 0
M  V30 2992 O 271.965 -1.41852 3.7582 0
M  V30 2993 N 270.171 -0.413893 2.87637 0
M  V30 2994 H 269.718 0.41571 2.54224 0
M  V30 2995 H 269.676 -1.28175 2.87086 0
M  V30 2996 N 273.449 -1.08991 1.13837 0
M  V30 2997 C 274.359 -2.19301 0.833333 0
M  V30 2998 C 275.375 -1.73026 -0.183847 0
M  V30 2999 O 276.551 -2.01395 -0.0138092 0
M  V30 3000 C 273.616 -3.45323 0.308651 0
M  V30 3001 C 272.677 -4.06255 1.38764 0
M  V30 3002 C 271.91 -5.26262 0.887896 0
M  V30 3003 O 272.133 -5.69747 -0.27287 0
M  V30 3004 O 271.067 -5.78435 1.66421 0
M  V30 3005 H 274.893 -2.47854 1.75506 0
M  V30 3006 H 272.478 -1.18012 0.916166 0
M  V30 3007 H 274.36 -4.21394 0.0216739 0
M  V30 3008 H 273.035 -3.18362 -0.585431 0
M  V30 3009 H 271.942 -3.318 1.72799 0
M  V30 3010 H 273.275 -4.37452 2.25602 0
M  V30 3011 N 274.927 -0.932562 -1.27047 0
M  V30 3012 C 276.152 -0.591474 -1.98787 0
M  V30 3013 C 276.577 0.824601 -1.69062 0
M  V30 3014 O 275.935 1.5541 -0.933677 0
M  V30 3015 C 275.983 -0.829808 -3.50922 0
M  V30 3016 O 275.087 0.102266 -4.12273 0
M  V30 3017 H 274.428 -0.227185 -0.623926 0
M  V30 3018 H 276.958 -1.25314 -1.61733 0
M  V30 3019 H 276.968 -0.747292 -4.01098 0
M  V30 3020 H 275.643 -1.86201 -3.7189 0
M  V30 3021 H 274.22 -0.0305761 -3.72887 0
M  V30 3022 N 276.405 1.4127 -0.698611 0
M  V30 3023 C 277.652 2.0118 -0.230865 0
M  V30 3024 C 277.98 1.55338 1.17049 0
M  V30 3025 O 277.235 0.756775 1.80475 0
M  V30 3026 C 277.534 3.56592 -0.240192 0
M  V30 3027 C 277.2 4.21955 -1.58948 0
M  V30 3028 C 275.862 4.39524 -1.95887 0
M  V30 3029 C 278.214 4.58576 -2.47704 0
M  V30 3030 C 275.542 4.90992 -3.2116 0
M  V30 3031 C 277.894 5.11435 -3.72313 0
M  V30 3032 C 276.558 5.27215 -4.0939 0
M  V30 3033 H 275.828 0.736169 -0.0844796 0
M  V30 3034 H 278.475 1.69124 -0.8983 0
M  V30 3035 H 276.78 3.88456 0.510797 0
M  V30 3036 H 278.477 4.00758 0.139296 0
M  V30 3037 H 275.067 4.08657 -1.29219 0
M  V30 3038 H 279.251 4.44654 -2.20445 0
M  V30 3039 H 274.507 5.01393 -3.49878 0
M  V30 3040 H 278.681 5.38752 -4.4127 0
M  V30 3041 H 276.308 5.66859 -5.06533 0
M  V30 3042 N 277.883 0.443576 1.51229 0
M  V30 3043 C 278.813 -0.355142 2.30783 0
M  V30 3044 C 279.794 -1.0154 1.36468 0
M  V30 3045 O 280.979 -1.01785 1.65389 0
M  V30 3046 C 278.109 -1.45312 3.15439 0
M  V30 3047 C 277.063 -0.916002 4.18083 0
M  V30 3048 C 276.389 -2.1102 4.91299 0
M  V30 3049 C 277.689 0.0538602 5.22272 0
M  V30 3050 H 279.383 0.308767 2.97804 0
M  V30 3051 H 276.929 0.149937 1.43217 0
M  V30 3052 H 278.882 -2.01914 3.69876 0
M  V30 3053 H 277.606 -2.14541 2.46252 0
M  V30 3054 H 276.265 -0.372145 3.64706 0
M  V30 3055 H 275.913 -2.78882 4.18609 0
M  V30 3056 H 275.613 -1.75717 5.60712 0
M  V30 3057 H 277.137 -2.68164 5.48562 0
M  V30 3058 H 278.551 -0.422069 5.71744 0
M  V30 3059 H 276.948 0.319776 5.99247 0
M  V30 3060 H 278.018 0.98858 4.74716 0
M  V30 3061 N 279.361 -1.56624 0.175154 0
M  V30 3062 C 280.608 -1.96999 -0.468811 0
M  V30 3063 C 280.936 -1.06129 -1.62994 0
M  V30 3064 O 280.191 -0.0961771 -1.95464 0
M  V30 3065 C 280.49 -3.43419 -0.989864 0
M  V30 3066 C 280.156 -4.50866 0.0557687 0
M  V30 3067 C 278.818 -4.79975 0.343134 0
M  V30 3068 C 281.17 -5.15551 0.765308 0
M  V30 3069 C 278.498 -5.71066 1.34536 0
M  V30 3070 C 280.85 -6.07724 1.75654 0
M  V30 3071 C 279.514 -6.35199 2.05132 0
M  V30 3072 H 278.784 -0.720869 -0.17155 0
M  V30 3073 H 281.431 -1.89616 0.267924 0
M  V30 3074 H 279.736 -3.47772 -1.80449 0
M  V30 3075 H 281.433 -3.72002 -1.49719 0
M  V30 3076 H 278.023 -4.28229 -0.178381 0
M  V30 3077 H 282.207 -4.9317 0.556513 0
M  V30 3078 H 277.463 -5.90635 1.57988 0
M  V30 3079 H 281.637 -6.56912 2.31169 0
M  V30 3080 H 279.264 -7.05584 2.8294 0
M  V30 3081 N 280.839 0.0985539 -1.57292 0
M  V30 3082 C 281.787 1.1387 -2.02821 0
M  V30 3083 C 282.781 1.41676 -0.928666 0
M  V30 3084 O 283.987 1.41398 -1.11385 0
M  V30 3085 H 280.362 0.384419 -0.646317 0
M  V30 3086 H 282.333 0.728347 -2.89375 0
M  V30 3087 C 281.082 2.45166 -2.46554 0
M  V30 3088 H 280.405 2.24613 -3.3074 0
M  V30 3089 H 281.845 3.16456 -2.8219 0
M  V30 3090 C 280.304 3.09216 -1.33742 0
M  V30 3091 O 280.834 3.96163 -0.66464 0
M  V30 3092 N 279.04 2.69413 -1.08928 0
M  V30 3093 H 278.587 1.98801 -1.63817 0
M  V30 3094 H 278.545 3.12594 -0.336458 0
M  V30 3095 N 282.317 1.53212 0.369288 0
M  V30 3096 C 283.267 1.75769 1.45222 0
M  V30 3097 C 284.251 0.612136 1.48801 0
M  V30 3098 O 285.443 0.870674 1.54105 0
M  V30 3099 C 282.572 1.94769 2.82701 0
M  V30 3100 C 281.658 3.15315 2.83615 0
M  V30 3101 N 282.049 4.37295 2.54178 0
M  V30 3102 C 280.347 3.15962 3.14776 0
M  V30 3103 C 281.048 5.19015 2.62675 0
M  V30 3104 N 280.024 4.55142 2.97232 0
M  V30 3105 H 283.826 2.67691 1.2132 0
M  V30 3106 H 281.34 1.51787 0.577438 0
M  V30 3107 H 283.337 2.09056 3.60696 0
M  V30 3108 H 281.997 1.04073 3.07569 0
M  V30 3109 H 283.008 4.65091 2.27839 0
M  V30 3110 H 279.685 2.35144 3.44983 0
M  V30 3111 H 281.075 6.26305 2.43294 0
M  V30 3112 N 283.795 -0.628877 1.44509 0
M  V30 3113 C 284.725 -1.75187 1.54376 0
M  V30 3114 C 285.706 -1.65411 0.396618 0
M  V30 3115 O 286.891 -1.84137 0.617031 0
M  V30 3116 C 284.021 -3.13725 1.48976 0
M  V30 3117 C 282.975 -3.38291 2.62189 0
M  V30 3118 C 282.301 -4.76883 2.41841 0
M  V30 3119 C 283.601 -3.30632 4.04326 0
M  V30 3120 H 285.295 -1.67187 2.48373 0
M  V30 3121 H 282.841 -0.802909 1.19538 0
M  V30 3122 H 284.794 -3.92064 1.54478 0
M  V30 3123 H 283.518 -3.22515 0.514961 0
M  V30 3124 H 282.177 -2.62334 2.56079 0
M  V30 3125 H 281.825 -4.82378 1.42548 0
M  V30 3126 H 281.525 -4.94278 3.17747 0
M  V30 3127 H 283.049 -5.57449 2.49165 0
M  V30 3128 H 284.463 -3.98873 4.11793 0
M  V30 3129 H 282.86 -3.59561 4.80454 0
M  V30 3130 H 283.93 -2.28404 4.27738 0
M  V30 3131 N 285.273 -1.31445 -0.869486 0
M  V30 3132 C 286.221 -1.19067 -1.99814 0
M  V30 3133 C 287.215 -0.0988569 -1.69111 0
M  V30 3134 O 288.421 -0.260781 -1.78101 0
M  V30 3135 H 284.796 -0.368677 -0.655425 0
M  V30 3136 H 286.767 -2.14555 -2.07385 0
M  V30 3137 C 285.516 -0.915323 -3.35436 0
M  V30 3138 H 284.839 -1.74759 -3.59582 0
M  V30 3139 H 286.279 -0.868895 -4.15001 0
M  V30 3140 C 284.738 0.381928 -3.34728 0
M  V30 3141 O 285.268 1.39857 -3.76567 0
M  V30 3142 N 283.474 0.398633 -2.87853 0
M  V30 3143 H 283.021 -0.429186 -2.54 0
M  V30 3144 H 282.979 1.26651 -2.87762 0
M  V30 3145 N 286.751 1.08385 -1.14413 0
M  V30 3146 C 287.698 2.15311 -0.831265 0
M  V30 3147 C 288.668 1.64751 0.211292 0
M  V30 3148 O 289.853 1.90627 0.0811674 0
M  V30 3149 C 286.993 3.43658 -0.315143 0
M  V30 3150 C 286.106 4.08064 -1.41802 0
M  V30 3151 C 285.241 5.24207 -0.859126 0
M  V30 3152 C 284.28 5.80554 -1.93967 0
M  V30 3153 N 283.417 6.88042 -1.39793 0
M  V30 3154 H 288.257 2.41415 -1.74708 0
M  V30 3155 H 285.794 1.18474 -0.871909 0
M  V30 3156 H 287.752 4.172 0.00230884 0
M  V30 3157 H 286.382 3.17839 0.56378 0
M  V30 3158 H 285.434 3.3228 -1.85187 0
M  V30 3159 H 286.746 4.45962 -2.23427 0
M  V30 3160 H 285.9 6.04689 -0.49359 0
M  V30 3161 H 284.639 4.87699 -0.011932 0
M  V30 3162 H 283.644 4.98725 -2.31415 0
M  V30 3163 H 284.869 6.19121 -2.79046 0
M  V30 3164 H 282.815 6.53493 -0.572919 0
M  V30 3165 H 282.732 7.24767 -2.15054 0
M  V30 3166 H 284 7.72255 -1.0603 0
M  V30 3167 N 288.23 0.939286 1.26551 0
M  V30 3168 C 289.177 0.446088 2.26448 0
M  V30 3169 C 290.147 -0.493234 1.58608 0
M  V30 3170 O 291.332 -0.409857 1.86346 0
M  V30 3171 C 288.472 -0.284375 3.43926 0
M  V30 3172 C 287.585 0.690399 4.26448 0
M  V30 3173 C 286.72 -0.0610712 5.31165 0
M  V30 3174 C 285.759 0.905649 6.05363 0
M  V30 3175 N 284.896 0.186055 7.01853 0
M  V30 3176 H 289.736 1.30291 2.68008 0
M  V30 3177 H 287.273 0.65371 1.31776 0
M  V30 3178 H 289.231 -0.724313 4.10864 0
M  V30 3179 H 287.861 -1.10535 3.03285 0
M  V30 3180 H 286.913 1.24885 3.59316 0
M  V30 3181 H 288.225 1.42873 4.779 0
M  V30 3182 H 287.379 -0.56038 6.04106 0
M  V30 3183 H 286.118 -0.832297 4.80546 0
M  V30 3184 H 285.123 1.4161 5.3125 0
M  V30 3185 H 286.348 1.67685 6.58072 0
M  V30 3186 H 284.294 -0.566714 6.53548 0
M  V30 3187 H 284.211 0.863752 7.51049 0
M  V30 3188 H 285.479 -0.292221 7.78952 0
M  V30 3189 N 289.708 -1.40897 0.706093 0
M  V30 3190 C 290.618 -2.3455 0.0482286 0
M  V30 3191 C 291.634 -1.56796 -0.754396 0
M  V30 3192 O 292.81 -1.89228 -0.689538 0
M  V30 3193 C 289.875 -3.35625 -0.869303 0
M  V30 3194 C 288.936 -4.29261 -0.0576994 0
M  V30 3195 C 288.169 -5.25508 -0.931531 0
M  V30 3196 O 288.392 -5.27472 -2.17092 0
M  V30 3197 O 287.326 -6.00727 -0.375587 0
M  V30 3198 H 291.152 -2.92407 0.820476 0
M  V30 3199 H 288.737 -1.4193 0.4665 0
M  V30 3200 H 290.619 -3.97635 -1.39514 0
M  V30 3201 H 289.294 -2.80196 -1.62086 0
M  V30 3202 H 288.201 -3.70566 0.512988 0
M  V30 3203 H 289.534 -4.87817 0.655426 0
M  V30 3204 N 291.186 -0.45159 -1.50991 0
M  V30 3205 C 292.433 0.110074 -2.02201 0
M  V30 3206 C 292.761 1.4146 -1.33489 0
M  V30 3207 O 292.016 1.90617 -0.443125 0
M  V30 3208 C 292.315 0.361728 -3.55565 0
M  V30 3209 C 291.981 -0.858717 -4.42648 0
M  V30 3210 C 290.643 -1.19338 -4.66167 0
M  V30 3211 C 292.995 -1.67221 -4.93646 0
M  V30 3212 C 290.323 -2.34195 -5.37931 0
M  V30 3213 C 292.675 -2.8119 -5.6667 0
M  V30 3214 C 291.339 -3.15094 -5.88449 0
M  V30 3215 H 290.609 0.040279 -0.739904 0
M  V30 3216 H 293.256 -0.601696 -1.81802 0
M  V30 3217 H 291.561 1.15554 -3.74372 0
M  V30 3218 H 293.258 0.80996 -3.92735 0
M  V30 3219 H 289.848 -0.58796 -4.24548 0
M  V30 3220 H 294.032 -1.42686 -4.75347 0
M  V30 3221 H 289.288 -2.6076 -5.53005 0
M  V30 3222 H 293.462 -3.44585 -6.05173 0
M  V30 3223 H 291.089 -4.04204 -6.43835 0
M  V30 3224 N 292.664 1.56529 -0.183458 0
M  V30 3225 C 293.574 2.22144 0.754272 0
M  V30 3226 C 294.59 1.21684 1.24374 0
M  V30 3227 O 295.766 1.54385 1.29333 0
M  V30 3228 C 292.831 2.85884 1.96141 0
M  V30 3229 C 291.892 4.01579 1.51765 0
M  V30 3230 C 291.125 4.6227 2.66725 0
M  V30 3231 O 291.348 4.21865 3.83909 0
M  V30 3232 O 290.282 5.51936 2.40104 0
M  V30 3233 H 294.108 3.02861 0.225527 0
M  V30 3234 H 291.693 1.49331 0.0453032 0
M  V30 3235 H 293.575 3.26253 2.66715 0
M  V30 3236 H 292.25 2.08154 2.47899 0
M  V30 3237 H 291.157 3.65856 0.781049 0
M  V30 3238 H 292.49 4.80938 1.04686 0
M  V30 3239 N 294.142 -0.090211 1.57342 0
M  V30 3240 C 295.391 -0.791531 1.8552 0
M  V30 3241 C 295.704 -1.79659 0.773441 0
M  V30 3242 O 296.91 -2.54616 0.942497 0
M  V30 3243 C 295.366 -1.45856 3.2902 0
M  V30 3244 C 294.974 -0.493017 4.45279 0
M  V30 3245 C 296.718 -2.14332 3.66418 0
M  V30 3246 C 294.625 -1.16491 5.79814 0
M  V30 3247 H 293.555 -0.299356 0.692027 0
M  V30 3248 H 296.206 -0.0445343 1.83446 0
M  V30 3249 H 294.588 -2.25318 3.2565 0
M  V30 3250 H 295.762 0.270464 4.60006 0
M  V30 3251 H 294.077 0.0863061 4.16311 0
M  V30 3252 H 296.674 -2.65344 4.64216 0
M  V30 3253 H 297.017 -2.93447 2.95287 0
M  V30 3254 H 297.55 -1.41724 3.71698 0
M  V30 3255 H 294.289 -0.41447 6.54188 0
M  V30 3256 H 293.809 -1.8997 5.68921 0
M  V30 3257 H 295.488 -1.69001 6.24538 0
M  V30 3258 N 295.62 -1.53406 -0.361157 0
M  V30 3259 C 296.869 -1.69022 -1.10066 0
M  V30 3260 C 297.182 -0.450838 -1.90333 0
M  V30 3261 O 298.388 -0.487617 -2.67085 0
M  V30 3262 C 296.844 -2.98812 -2.00598 0
M  V30 3263 C 296.452 -4.30027 -1.25621 0
M  V30 3264 C 298.196 -3.23795 -2.74513 0
M  V30 3265 C 296.103 -5.50903 -2.1508 0
M  V30 3266 H 295.033 -0.629776 -0.414606 0
M  V30 3267 H 297.684 -1.79907 -0.361348 0
M  V30 3268 H 296.066 -2.8174 -2.78278 0
M  V30 3269 H 297.24 -4.57745 -0.529739 0
M  V30 3270 H 295.555 -4.11522 -0.635496 0
M  V30 3271 H 298.152 -4.11289 -3.41681 0
M  V30 3272 H 298.495 -2.40045 -3.40123 0
M  V30 3273 H 299.028 -3.41561 -2.03914 0
M  V30 3274 H 295.767 -6.37143 -1.54041 0
M  V30 3275 H 295.287 -5.27459 -2.85565 0
M  V30 3276 H 296.966 -5.85865 -2.74538 0
M  V30 3277 N 297.098 0.621204 -1.44841 0
M  V30 3278 C 298.344 1.3826 -1.48365 0
M  V30 3279 C 298.677 1.93831 -0.119624 0
M  V30 3280 O 297.952 1.74251 0.864111 0
M  V30 3281 C 298.235 2.54058 -2.55199 0
M  V30 3282 C 298.088 2.03772 -4.00995 0
M  V30 3283 C 299.407 3.56225 -2.58442 0
M  V30 3284 H 296.526 0.501374 -0.540179 0
M  V30 3285 H 299.168 0.7015 -1.76576 0
M  V30 3286 H 297.318 3.12162 -2.31274 0
M  V30 3287 H 298.99 1.50423 -4.36086 0
M  V30 3288 H 297.233 1.34876 -4.12299 0
M  V30 3289 H 297.904 2.87185 -4.71411 0
M  V30 3290 H 300.38 3.07939 -2.79844 0
M  V30 3291 H 299.256 4.34756 -3.3508 0
M  V30 3292 H 299.517 4.10949 -1.63013 0
M  V30 3293 N 298.576 1.31904 0.862503 0
M  V30 3294 C 299.524 1.20125 1.9918 0
M  V30 3295 C 300.518 0.107824 1.69056 0
M  V30 3296 O 301.724 0.270223 1.7796 0
M  V30 3297 H 298.099 0.372148 0.65346 0
M  V30 3298 H 300.07 2.15652 2.06244 0
M  V30 3299 C 298.819 0.933099 3.34946 0
M  V30 3300 H 298.142 1.76664 3.5865 0
M  V30 3301 H 299.582 0.890892 4.14535 0
M  V30 3302 C 298.041 -0.364172 3.34926 0
M  V30 3303 O 298.571 -1.37858 3.77304 0
M  V30 3304 N 296.777 -0.383362 2.8806 0
M  V30 3305 H 296.324 0.442651 2.53768 0
M  V30 3306 H 296.282 -1.25123 2.8843 0
M  V30 3307 N 300.054 -1.07777 1.14986 0
M  V30 3308 C 301.017 -2.13041 0.845358 0
M  V30 3309 C 302.017 -1.60071 -0.152931 0
M  V30 3310 O 303.207 -1.74033 0.0761879 0
M  V30 3311 C 300.339 -3.39896 0.261383 0
M  V30 3312 H 301.532 -2.41485 1.77834 0
M  V30 3313 H 299.085 -1.23595 0.956757 0
M  V30 3314 H 299.82 -3.17091 -0.68 0
M  V30 3315 H 299.605 -3.79642 0.980514 0
M  V30 3316 H 301.095 -4.17548 0.0657687 0
M  V30 3317 N 301.532 -0.945985 -1.26051 0
M  V30 3318 C 302.779 -0.596118 -1.93527 0
M  V30 3319 C 303.107 0.865559 -1.74179 0
M  V30 3320 O 302.362 1.63524 -1.0751 0
M  V30 3321 C 302.661 -0.890475 -3.46129 0
M  V30 3322 C 302.327 -2.3368 -3.85622 0
M  V30 3323 C 300.989 -2.73216 -3.96114 0
M  V30 3324 C 303.341 -3.27648 -4.05334 0
M  V30 3325 C 300.669 -4.05806 -4.2372 0
M  V30 3326 C 303.021 -4.59841 -4.3443 0
M  V30 3327 C 301.685 -4.99185 -4.43137 0
M  V30 3328 H 300.955 -0.218135 -0.708165 0
M  V30 3329 H 303.602 -1.1934 -1.49768 0
M  V30 3330 H 301.907 -0.210711 -3.91233 0
M  V30 3331 H 303.604 -0.598478 -3.96509 0
M  V30 3332 H 300.194 -2.02015 -3.78005 0
M  V30 3333 H 304.378 -2.98298 -3.96651 0
M  V30 3334 H 299.634 -4.35945 -4.28675 0
M  V30 3335 H 303.808 -5.32641 -4.48628 0
M  V30 3336 H 301.435 -6.01952 -4.64282 0
M  V30 3337 N 303.011 1.40521 -0.713556 0
M  V30 3338 C 304.258 2.00923 -0.25219 0
M  V30 3339 C 304.586 1.56571 1.15395 0
M  V30 3340 O 303.841 0.775874 1.79663 0
M  V30 3341 C 304.14 3.56317 -0.278 0
M  V30 3342 C 303.806 4.20246 -1.63415 0
M  V30 3343 C 302.468 4.37422 -2.00538 0
M  V30 3344 C 304.82 4.55923 -2.52554 0
M  V30 3345 C 302.148 4.87558 -3.2635 0
M  V30 3346 C 304.5 5.07458 -3.77716 0
M  V30 3347 C 303.164 5.22843 -4.14959 0
M  V30 3348 H 302.434 0.735231 -0.0922829 0
M  V30 3349 H 305.081 1.68161 -0.916188 0
M  V30 3350 H 303.386 3.88976 0.469567 0
M  V30 3351 H 305.083 4.00883 0.0967819 0
M  V30 3352 H 301.673 4.07263 -1.33546 0
M  V30 3353 H 305.857 4.42291 -2.25149 0
M  V30 3354 H 301.113 4.97654 -3.55176 0
M  V30 3355 H 305.287 5.34041 -4.4696 0
M  V30 3356 H 302.914 5.61454 -5.12516 0
M  V30 3357 N 304.489 0.459591 1.5075 0
M  V30 3358 C 305.766 -0.160371 1.94941 0
M  V30 3359 C 306.146 -1.58048 1.39943 0
M  V30 3360 O 305.494 -2.206 0.595629 0
M  V30 3361 C 305.704 -0.115432 3.48809 0
M  V30 3362 C 307.052 -0.310026 4.23467 0
M  V30 3363 O 308.076 -0.192543 3.55679 0
M  V30 3364 O 306.935 -0.546031 5.43765 0
M  V30 3365 H 304.029 -0.117925 0.818549 0
M  V30 3366 H 306.575 0.519169 1.61563 0
M  V30 3367 H 305.347 0.87652 3.81357 0
M  V30 3368 H 304.97 -0.836928 3.88692 0
M  V30 3369 N 305.967 -1.56429 0.191757 0
M  V30 3370 C 306.914 -2.18936 -0.730454 0
M  V30 3371 C 307.884 -1.13557 -1.21219 0
M  V30 3372 O 309.069 -1.41794 -1.27668 0
M  V30 3373 C 306.209 -2.85013 -1.9458 0
M  V30 3374 C 305.322 -4.04909 -1.50574 0
M  V30 3375 C 304.457 -4.58853 -2.67634 0
M  V30 3376 C 303.496 -5.71114 -2.20217 0
M  V30 3377 N 302.633 -6.19478 -3.30442 0
M  V30 3378 H 307.473 -2.97389 -0.190664 0
M  V30 3379 H 305.01 -1.46869 -0.0823694 0
M  V30 3380 H 306.968 -3.21492 -2.65893 0
M  V30 3381 H 305.598 -2.09129 -2.45896 0
M  V30 3382 H 304.65 -3.74115 -0.688605 0
M  V30 3383 H 305.962 -4.86113 -1.11784 0
M  V30 3384 H 305.116 -4.97619 -3.47074 0
M  V30 3385 H 303.855 -3.76749 -3.09696 0
M  V30 3386 H 302.86 -5.31879 -1.3923 0
M  V30 3387 H 304.085 -6.55033 -1.79189 0
M  V30 3388 H 302.031 -5.40297 -3.72041 0
M  V30 3389 H 301.948 -6.95725 -2.9581 0
M  V30 3390 H 303.216 -6.62898 -4.10106 0
M  V30 3391 N 307.445 0.0818655 -1.57387 0
M  V30 3392 C 308.393 1.11712 -2.04018 0
M  V30 3393 C 309.387 1.40683 -0.94364 0
M  V30 3394 O 310.593 1.40209 -1.12878 0
M  V30 3395 H 306.968 0.377542 -0.650358 0
M  V30 3396 H 308.939 0.697614 -2.90131 0
M  V30 3397 C 307.688 2.42537 -2.49141 0
M  V30 3398 H 307.011 2.21092 -3.33104 0
M  V30 3399 H 308.451 3.13446 -2.85531 0
M  V30 3400 C 306.91 3.0778 -1.37014 0
M  V30 3401 O 307.44 3.95436 -0.706621 0
M  V30 3402 N 305.646 2.68242 -1.11779 0
M  V30 3403 H 305.193 1.97052 -1.65917 0
M  V30 3404 H 305.151 3.1222 -0.369594 0
M  V30 3405 N 308.923 1.53595 0.353017 0
M  V30 3406 C 310.169 1.70638 1.09593 0
M  V30 3407 C 310.502 0.463286 1.88593 0
M  V30 3408 O 309.777 -0.539597 1.86865 0
M  V30 3409 C 310.06 2.96406 2.04489 0
M  V30 3410 C 309.913 4.30901 1.29014 0
M  V30 3411 C 311.232 3.17812 3.0444 0
M  V30 3412 H 308.351 0.620913 0.397034 0
M  V30 3413 H 310.993 1.86254 0.375446 0
M  V30 3414 H 309.143 2.83223 2.65927 0
M  V30 3415 H 310.815 4.55917 0.702638 0
M  V30 3416 H 309.058 4.29741 0.592071 0
M  V30 3417 H 309.729 5.1506 1.98537 0
M  V30 3418 H 312.205 3.30263 2.53112 0
M  V30 3419 H 311.081 4.07223 3.6805 0
M  V30 3420 H 311.342 2.33669 3.75301 0
M  V30 3421 N 310.401 -0.613514 1.45168 0
M  V30 3422 C 311.311 -1.75296 1.55912 0
M  V30 3423 C 312.327 -1.68244 0.443856 0
M  V30 3424 O 313.503 -1.88706 0.70371 0
M  V30 3425 C 310.568 -3.1174 1.5172 0
M  V30 3426 C 309.629 -3.30291 2.74238 0
M  V30 3427 C 308.862 -4.60226 2.70236 0
M  V30 3428 O 309.085 -5.42168 1.77229 0
M  V30 3429 O 308.019 -4.81361 3.61352 0
M  V30 3430 H 311.845 -1.69183 2.52212 0
M  V30 3431 H 309.43 -0.776886 1.27612 0
M  V30 3432 H 311.312 -3.93044 1.51968 0
M  V30 3433 H 309.987 -3.18357 0.585697 0
M  V30 3434 H 308.894 -2.48598 2.79553 0
M  V30 3435 H 310.227 -3.28547 3.66494 0
M  V30 3436 N 311.879 -1.3236 -0.855495 0
M  V30 3437 C 312.826 -1.21225 -1.964 0
M  V30 3438 C 313.796 -0.0946204 -1.6583 0
M  V30 3439 O 314.981 -0.27002 -1.8888 0
M  V30 3440 C 312.121 -0.940419 -3.32039 0
M  V30 3441 C 311.234 -2.14276 -3.75113 0
M  V30 3442 C 310.369 -1.80648 -4.9954 0
M  V30 3443 C 309.408 -2.97208 -5.35102 0
M  V30 3444 N 308.545 -2.63678 -6.50706 0
M  V30 3445 H 313.385 -2.16042 -2.05255 0
M  V30 3446 H 310.922 -1.07451 -1.00463 0
M  V30 3447 H 312.88 -0.763311 -4.10158 0
M  V30 3448 H 311.51 -0.0290413 -3.22787 0
M  V30 3449 H 310.562 -2.43017 -2.92655 0
M  V30 3450 H 311.874 -3.01468 -3.97389 0
M  V30 3451 H 311.028 -1.59484 -5.85363 0
M  V30 3452 H 309.767 -0.906678 -4.79198 0
M  V30 3453 H 308.772 -3.19004 -4.47791 0
M  V30 3454 H 309.997 -3.87918 -5.57401 0
M  V30 3455 H 307.943 -1.76238 -6.31883 0
M  V30 3456 H 307.86 -3.444 -6.72997 0
M  V30 3457 H 309.128 -2.45942 -7.39684 0
M  V30 3458 N 313.357 1.07166 -1.15556 0
M  V30 3459 C 314.605 1.79443 -0.929764 0
M  V30 3460 C 314.926 1.87246 0.544414 0
M  V30 3461 O 314.196 1.37473 1.39564 0
M  V30 3462 H 312.776 0.664625 -0.341003 0
M  V30 3463 H 315.438 1.29499 -1.45657 0
M  V30 3464 H 314.534 2.81832 -1.34079 0
M  V30 3465 N 314.835 0.952656 1.25548 0
M  V30 3466 C 316.081 0.607272 1.93494 0
M  V30 3467 C 316.414 -0.853245 1.74452 0
M  V30 3468 O 315.689 -1.61194 1.08843 0
M  V30 3469 C 315.972 0.96435 3.46947 0
M  V30 3470 C 315.825 2.48045 3.75225 0
M  V30 3471 C 317.144 0.487987 4.37386 0
M  V30 3472 H 314.263 0.222096 0.702739 0
M  V30 3473 H 316.905 1.18895 1.48203 0
M  V30 3474 H 315.055 0.469361 3.85654 0
M  V30 3475 H 316.727 3.04905 3.46166 0
M  V30 3476 H 314.97 2.919 3.209 0
M  V30 3477 H 315.641 2.6808 4.82532 0
M  V30 3478 H 318.117 0.912558 4.0597 0
M  V30 3479 H 316.993 0.766547 5.43521 0
M  V30 3480 H 317.254 -0.612063 4.37843 0
M  V30 3481 N 316.313 -1.40141 0.720998 0
M  V30 3482 C 317.261 -2.3252 0.0608547 0
M  V30 3483 C 318.255 -1.52326 -0.741152 0
M  V30 3484 O 319.461 -1.68089 -0.643911 0
M  V30 3485 H 315.836 -0.751999 0.000876664 0
M  V30 3486 H 317.807 -2.8584 0.856614 0
M  V30 3487 C 316.556 -3.37331 -0.842809 0
M  V30 3488 H 315.879 -3.99108 -0.235084 0
M  V30 3489 H 317.319 -4.04452 -1.27257 0
M  V30 3490 C 315.778 -2.73246 -1.97074 0
M  V30 3491 O 316.308 -2.59998 -3.06209 0
M  V30 3492 N 314.514 -2.31547 -1.75597 0
M  V30 3493 H 314.061 -2.42522 -0.868368 0
M  V30 3494 H 314.019 -1.89007 -2.51244 0
M  V30 3495 N 317.792 -0.46758 -1.50504 0
M  V30 3496 C 319.041 0.0902868 -2.01498 0
M  V30 3497 C 319.354 1.411 -1.35463 0
M  V30 3498 O 320.56 2.0536 -1.77594 0
M  V30 3499 C 319.016 0.21142 -3.59278 0
M  V30 3500 C 318.624 -1.10065 -4.34269 0
M  V30 3501 C 320.368 0.721433 -4.18325 0
M  V30 3502 C 318.275 -0.943505 -5.83825 0
M  V30 3503 H 317.205 0.037517 -0.753066 0
M  V30 3504 H 319.856 -0.601943 -1.73346 0
M  V30 3505 H 318.238 0.967352 -3.84003 0
M  V30 3506 H 319.412 -1.86726 -4.21272 0
M  V30 3507 H 317.727 -1.5415 -3.86816 0
M  V30 3508 H 320.324 0.85598 -5.27804 0
M  V30 3509 H 320.667 1.71186 -3.79475 0
M  V30 3510 H 321.2 0.0229843 -3.97793 0
M  V30 3511 H 317.939 -1.90719 -6.27141 0
M  V30 3512 H 317.459 -0.217213 -5.99407 0
M  V30 3513 H 319.138 -0.608715 -6.4413 0
M  V30 3514 N 319.27 1.56325 -0.20005 0
M  V30 3515 C 320.519 1.96895 0.437652 0
M  V30 3516 C 320.832 1.08999 1.62415 0
M  V30 3517 O 322.038 1.39372 2.32997 0
M  V30 3518 C 320.494 3.50198 0.830025 0
M  V30 3519 C 320.102 4.46765 -0.332461 0
M  V30 3520 C 321.846 3.99526 1.43453 0
M  V30 3521 C 319.753 5.91344 0.0811468 0
M  V30 3522 H 318.683 0.735209 0.167282 0
M  V30 3523 H 321.334 1.81148 -0.292853 0
M  V30 3524 H 319.716 3.61467 1.61734 0
M  V30 3525 H 320.89 4.47231 -1.11 0
M  V30 3526 H 319.205 4.07657 -0.848789 0
M  V30 3527 H 321.802 5.05025 1.75652 0
M  V30 3528 H 322.145 3.44122 2.34277 0
M  V30 3529 H 322.678 3.91393 0.71109 0
M  V30 3530 H 319.417 6.50685 -0.793033 0
M  V30 3531 H 318.937 5.94121 0.823445 0
M  V30 3532 H 320.616 6.44945 0.515252 0
M  V30 3533 N 320.748 -0.0735177 1.57428 0
M  V30 3534 C 321.696 -1.10628 2.04607 0
M  V30 3535 C 322.69 -1.40181 0.951088 0
M  V30 3536 O 323.896 -1.39608 1.1362 0
M  V30 3537 H 320.271 -0.374088 0.652351 0
M  V30 3538 H 322.242 -0.682218 2.90497 0
M  V30 3539 C 320.991 -2.41212 2.50423 0
M  V30 3540 H 320.314 -2.19322 3.34272 0
M  V30 3541 H 321.754 -3.11927 2.87189 0
M  V30 3542 C 320.213 -3.0705 1.38644 0
M  V30 3543 O 320.743 -3.95056 0.727582 0
M  V30 3544 N 318.949 -2.67645 1.132 0
M  V30 3545 H 318.496 -1.96169 1.66959 0
M  V30 3546 H 318.454 -3.1202 0.386147 0
M  V30 3547 N 322.226 -1.5378 -0.344866 0
M  V30 3548 C 323.136 -1.84667 -1.4469 0
M  V30 3549 C 324.152 -0.736704 -1.57635 0
M  V30 3550 O 325.328 -1.02888 -1.73136 0
M  V30 3551 C 322.393 -2.04869 -2.79696 0
M  V30 3552 C 321.454 -3.28731 -2.76106 0
M  V30 3553 C 320.687 -3.4796 -4.04673 0
M  V30 3554 O 320.91 -2.71052 -5.01883 0
M  V30 3555 O 319.844 -4.41383 -4.09224 0
M  V30 3556 H 323.67 -2.78334 -1.21506 0
M  V30 3557 H 321.255 -1.39418 -0.536921 0
M  V30 3558 H 323.137 -2.19609 -3.59652 0
M  V30 3559 H 321.812 -1.14391 -3.02814 0
M  V30 3560 H 320.719 -3.19396 -1.94774 0
M  V30 3561 H 322.052 -4.19198 -2.57941 0
M  V30 3562 N 323.704 0.605807 -1.45491 0
M  V30 3563 C 324.952 1.36207 -1.49305 0
M  V30 3564 C 325.273 1.94519 -0.136863 0
M  V30 3565 O 324.543 1.77261 0.833983 0
M  V30 3566 H 323.123 0.50565 -0.549843 0
M  V30 3567 H 325.785 0.711239 -1.81459 0
M  V30 3568 H 324.881 2.18058 -2.23287 0
M  V30 3569 N 325.182 1.32811 0.848464 0
M  V30 3570 C 326.459 1.14334 1.58704 0
M  V30 3571 C 326.839 -0.293948 2.09043 0
M  V30 3572 O 326.187 -1.29153 1.88499 0
M  V30 3573 C 326.397 2.17626 2.72837 0
M  V30 3574 C 327.745 2.51282 3.42261 0
M  V30 3575 O 328.769 2.16219 2.83068 0
M  V30 3576 O 327.628 3.11413 4.49093 0
M  V30 3577 H 324.722 0.441601 0.699226 0
M  V30 3578 H 327.268 1.44362 0.892053 0
M  V30 3579 H 326.04 3.14211 2.3321 0
M  V30 3580 H 325.663 1.88628 3.50008 0
M  V30 3581 N 326.66 -1.06551 1.16123 0
M  V30 3582 C 327.89 -1.8274 0.963838 0
M  V30 3583 C 328.298 -1.82712 -0.491228 0
M  V30 3584 O 327.641 -1.24294 -1.35265 0
M  V30 3585 C 327.703 -3.3065 1.41106 0
M  V30 3586 C 327.367 -3.54384 2.88549 0
M  V30 3587 C 328.364 -3.4765 3.86569 0
M  V30 3588 C 326.049 -3.81789 3.26408 0
M  V30 3589 C 328.043 -3.67982 5.2045 0
M  V30 3590 C 325.73 -4.01772 4.60459 0
M  V30 3591 C 326.728 -3.94866 5.57288 0
M  V30 3592 O 326.416 -4.14306 6.88916 0
M  V30 3593 H 326.148 -0.583136 0.341948 0
M  V30 3594 H 328.702 -1.35351 1.54497 0
M  V30 3595 H 326.932 -3.78887 0.773394 0
M  V30 3596 H 328.621 -3.88324 1.1815 0
M  V30 3597 H 329.387 -3.2647 3.58667 0
M  V30 3598 H 325.266 -3.86276 2.51619 0
M  V30 3599 H 328.81 -3.62507 5.96015 0
M  V30 3600 H 324.707 -4.2244 4.88072 0
M  V30 3601 H 325.475 -4.31609 6.95454 0
M  V30 3602 N 328.138 -0.959301 -1.25041 0
M  V30 3603 C 329.386 -0.615393 -1.92503 0
M  V30 3604 C 329.707 0.850969 -1.75452 0
M  V30 3605 O 328.977 1.60658 -1.12098 0
M  V30 3606 H 327.557 -0.224613 -0.712431 0
M  V30 3607 H 330.219 -1.21855 -1.5211 0
M  V30 3608 H 329.315 -0.848738 -3.00338 0
M  V30 3609 N 329.616 1.39756 -0.72842 0
M  V30 3610 C 330.893 1.94574 -0.200079 0
M  V30 3611 C 331.273 1.66569 1.29684 0
M  V30 3612 O 330.621 0.990326 2.05924 0
M  V30 3613 C 330.831 3.45004 -0.526608 0
M  V30 3614 C 332.179 4.21965 -0.472318 0
M  V30 3615 O 333.203 3.53173 -0.463413 0
M  V30 3616 O 332.062 5.44552 -0.461075 0
M  V30 3617 H 329.156 0.826289 -0.0342851 0
M  V30 3618 H 331.702 1.49293 -0.806829 0
M  V30 3619 H 330.474 3.58796 -1.56144 0
M  V30 3620 H 330.097 3.97449 0.109449 0
M  V30 3621 N 331.094 0.475555 1.50254 0
M  V30 3622 C 332.024 -0.30611 2.31485 0
M  V30 3623 C 333.005 -0.986228 1.38591 0
M  V30 3624 O 334.19 -0.982541 1.67511 0
M  V30 3625 C 331.32 -1.38588 3.1845 0
M  V30 3626 C 330.274 -0.827115 4.19932 0
M  V30 3627 C 329.6 -2.00551 4.95665 0
M  V30 3628 C 330.9 0.16463 5.2204 0
M  V30 3629 H 332.594 0.371866 2.97082 0
M  V30 3630 H 330.14 0.180282 1.42867 0
M  V30 3631 H 332.093 -1.94023 3.74076 0
M  V30 3632 H 330.817 -2.09269 2.50747 0
M  V30 3633 H 329.476 -0.294702 3.65414 0
M  V30 3634 H 329.124 -2.6994 4.2443 0
M  V30 3635 H 328.824 -1.63784 5.64313 0
M  V30 3636 H 330.348 -2.56468 5.54127 0
M  V30 3637 H 331.762 -0.300699 5.72511 0
M  V30 3638 H 330.159 0.446813 5.98434 0
M  V30 3639 H 331.229 1.08905 4.72512 0
M  V30 3640 N 332.573 -1.56217 0.208337 0
M  V30 3641 C 333.503 -2.22694 -0.702116 0
M  V30 3642 C 334.484 -1.19432 -1.2112 0
M  V30 3643 O 335.669 -1.47978 -1.25762 0
M  V30 3644 C 332.799 -2.8966 -1.9161 0
M  V30 3645 C 331.753 -3.9928 -1.5414 0
M  V30 3646 C 331.079 -4.53476 -2.83308 0
M  V30 3647 C 332.379 -5.17012 -0.741339 0
M  V30 3648 H 334.073 -2.99034 -0.147898 0
M  V30 3649 H 331.619 -1.43831 -0.0696951 0
M  V30 3650 H 333.572 -3.34852 -2.55836 0
M  V30 3651 H 332.296 -2.10746 -2.49507 0
M  V30 3652 H 330.955 -3.54799 -0.922668 0
M  V30 3653 H 330.603 -3.71308 -3.39322 0
M  V30 3654 H 330.303 -5.27451 -2.58976 0
M  V30 3655 H 331.827 -5.01378 -3.485 0
M  V30 3656 H 333.241 -5.58667 -1.28699 0
M  V30 3657 H 331.638 -5.97137 -0.595627 0
M  V30 3658 H 332.708 -4.8423 0.254851 0
M  V30 3659 N 334.051 0.0651679 -1.57465 0
M  V30 3660 C 335.281 0.774683 -1.91526 0
M  V30 3661 C 335.689 1.71305 -0.803196 0
M  V30 3662 O 335.032 1.82231 0.231881 0
M  V30 3663 C 335.094 1.61645 -3.21109 0
M  V30 3664 C 334.758 0.846753 -4.49087 0
M  V30 3665 C 335.755 0.163024 -5.19644 0
M  V30 3666 C 333.44 0.811966 -4.95694 0
M  V30 3667 C 335.434 -0.54519 -6.35064 0
M  V30 3668 C 333.121 0.0999836 -6.11018 0
M  V30 3669 C 334.119 -0.577388 -6.80555 0
M  V30 3670 O 333.807 -1.27789 -7.93678 0
M  V30 3671 H 333.539 0.225031 -0.637446 0
M  V30 3672 H 336.093 0.0377134 -2.05365 0
M  V30 3673 H 334.323 2.39638 -3.03497 0
M  V30 3674 H 336.012 2.20525 -3.40769 0
M  V30 3675 H 336.778 0.181163 -4.84662 0
M  V30 3676 H 332.657 1.32867 -4.41438 0
M  V30 3677 H 336.201 -1.07446 -6.89276 0
M  V30 3678 H 332.098 0.0797945 -6.45451 0
M  V30 3679 H 332.866 -1.18784 -8.09835 0
M  V30 3680 N 335.529 1.53961 0.336706 0
M  V30 3681 C 336.775 1.7179 1.07777 0
M  V30 3682 C 337.108 0.483263 1.88091 0
M  V30 3683 O 336.383 -0.519747 1.87427 0
M  V30 3684 C 336.666 2.98558 2.01334 0
M  V30 3685 C 336.519 4.32245 1.24437 0
M  V30 3686 C 337.838 3.21023 3.01052 0
M  V30 3687 H 334.957 0.625089 0.390426 0
M  V30 3688 H 337.599 1.86641 0.35567 0
M  V30 3689 H 335.749 2.86028 2.62908 0
M  V30 3690 H 337.421 4.56637 0.654243 0
M  V30 3691 H 335.664 4.30344 0.546458 0
M  V30 3692 H 336.335 5.17137 1.93063 0
M  V30 3693 H 338.811 3.32929 2.49595 0
M  V30 3694 H 337.687 4.11104 3.6371 0
M  V30 3695 H 337.948 2.37637 3.72802 0
M  V30 3696 N 337.007 -0.598083 1.45811 0
M  V30 3697 C 338.256 -1.35295 1.49594 0
M  V30 3698 C 338.569 -1.95057 0.145679 0
M  V30 3699 O 339.775 -2.71431 0.0612099 0
M  V30 3700 C 338.231 -2.45124 2.63519 0
M  V30 3701 C 337.839 -1.91732 4.04899 0
M  V30 3702 C 339.583 -3.2205 2.76558 0
M  V30 3703 C 337.49 -2.991 5.1019 0
M  V30 3704 H 336.42 -0.508552 0.556679 0
M  V30 3705 H 339.071 -0.639977 1.71978 0
M  V30 3706 H 337.453 -3.19149 2.34435 0
M  V30 3707 H 338.627 -1.24352 4.43704 0
M  V30 3708 H 336.942 -1.27522 3.96393 0
M  V30 3709 H 339.539 -4.0215 3.52391 0
M  V30 3710 H 339.882 -3.73663 1.83526 0
M  V30 3711 H 340.415 -2.55127 3.05213 0
M  V30 3712 H 337.154 -2.52393 6.04961 0
M  V30 3713 H 336.674 -3.65017 4.75944 0
M  V30 3714 H 338.353 -3.63318 5.35359 0
M  V30 3715 N 338.485 -1.33259 -0.841409 0
M  V30 3716 C 339.762 -1.15174 -1.58096 0
M  V30 3717 C 340.142 0.282858 -2.09196 0
M  V30 3718 O 339.49 1.28151 -1.89181 0
M  V30 3719 C 339.7 -2.1907 -2.71679 0
M  V30 3720 C 341.048 -2.53093 -3.40924 0
M  V30 3721 O 342.072 -2.17717 -2.81918 0
M  V30 3722 O 340.931 -3.1379 -4.47435 0
M  V30 3723 H 338.025 -0.445303 -0.696875 0
M  V30 3724 H 340.571 -1.44833 -0.884385 0
M  V30 3725 H 339.343 -3.15443 -2.31541 0
M  V30 3726 H 338.966 -1.90481 -3.49002 0
M  V30 3727 N 339.963 1.05934 -1.16686 0
M  V30 3728 C 340.895 2.13468 -0.834503 0
M  V30 3729 C 341.908 1.62013 0.15984 0
M  V30 3730 O 343.097 1.7838 -0.0654228 0
M  V30 3731 C 340.197 3.3817 -0.222361 0
M  V30 3732 C 339.37 4.18928 -1.25771 0
M  V30 3733 C 338.429 5.21985 -0.664703 0
M  V30 3734 O 337.455 5.53334 -1.33453 0
M  V30 3735 N 338.657 5.77919 0.546834 0
M  V30 3736 H 341.422 2.42578 -1.75999 0
M  V30 3737 H 338.983 1.21967 -1.06469 0
M  V30 3738 H 340.975 4.04266 0.187472 0
M  V30 3739 H 339.545 3.06655 0.606758 0
M  V30 3740 H 338.765 3.48433 -1.84358 0
M  V30 3741 H 340.053 4.69687 -1.95631 0
M  V30 3742 H 339.451 5.54721 1.10912 0
M  V30 3743 H 338.008 6.45573 0.898829 0
M  V30 3744 N 341.441 0.965919 1.2453 0
M  V30 3745 C 342.689 0.625593 1.92174 0
M  V30 3746 C 343.01 -0.841652 1.75901 0
M  V30 3747 O 342.28 -1.60061 1.12948 0
M  V30 3748 H 340.86 0.228388 0.71123 0
M  V30 3749 H 343.522 1.2266 1.51461 0
M  V30 3750 H 342.618 0.864653 2.99884 0
M  V30 3751 N 342.919 -1.39368 0.735821 0
M  V30 3752 C 343.829 -2.34395 0.0979693 0
M  V30 3753 C 344.845 -1.58361 -0.720968 0
M  V30 3754 O 346.021 -1.90648 -0.649245 0
M  V30 3755 C 343.086 -3.37393 -0.797916 0
M  V30 3756 C 342.147 -4.29287 0.0333662 0
M  V30 3757 C 341.38 -5.27365 -0.819854 0
M  V30 3758 O 341.603 -5.31959 -2.05855 0
M  V30 3759 O 340.537 -6.01389 -0.248079 0
M  V30 3760 H 344.363 -2.90601 0.882315 0
M  V30 3761 H 341.948 -1.40909 0.4965 0
M  V30 3762 H 343.83 -4.00505 -1.31048 0
M  V30 3763 H 342.505 -2.83571 -1.56106 0
M  V30 3764 H 341.412 -3.69395 0.591475 0
M  V30 3765 H 342.745 -4.86317 0.758752 0
M  V30 3766 N 344.397 -0.483516 -1.5 0
M  V30 3767 C 345.643 0.0672592 -2.02688 0
M  V30 3768 C 345.976 1.38247 -1.36387 0
M  V30 3769 O 345.251 1.88131 -0.493675 0
M  V30 3770 C 345.534 0.238109 -3.59312 0
M  V30 3771 C 345.387 -1.099 -4.36168 0
M  V30 3772 C 346.706 0.986916 -4.28892 0
M  V30 3773 H 343.825 0.0229696 -0.736642 0
M  V30 3774 H 346.467 -0.631527 -1.79197 0
M  V30 3775 H 344.617 0.8333 -3.79458 0
M  V30 3776 H 346.289 -1.73172 -4.27562 0
M  V30 3777 H 344.532 -1.69261 -3.99416 0
M  V30 3778 H 345.203 -0.932954 -5.44059 0
M  V30 3779 H 347.679 0.482302 -4.13295 0
M  V30 3780 H 346.555 1.07527 -5.38265 0
M  V30 3781 H 346.816 2.0265 -3.92919 0
M  V30 3782 N 345.875 1.56104 -0.216619 0
M  V30 3783 C 346.785 2.23694 0.706982 0
M  V30 3784 C 347.801 1.24295 1.21765 0
M  V30 3785 O 348.977 1.57094 1.2603 0
M  V30 3786 C 346.042 2.8998 1.90033 0
M  V30 3787 C 345.103 4.04708 1.43213 0
M  V30 3788 C 344.336 4.67824 2.56859 0
M  V30 3789 O 344.559 4.29913 3.74874 0
M  V30 3790 O 343.493 5.56905 2.28343 0
M  V30 3791 H 347.319 3.03272 0.161235 0
M  V30 3792 H 344.904 1.49394 0.0136177 0
M  V30 3793 H 346.786 3.31837 2.59735 0
M  V30 3794 H 345.461 2.13365 2.43428 0
M  V30 3795 H 344.368 3.6743 0.70327 0
M  V30 3796 H 345.701 4.83051 0.944615 0
M  V30 3797 N 347.353 -0.0568162 1.57498 0
M  V30 3798 C 348.602 -0.752001 1.87157 0
M  V30 3799 C 348.915 -1.77978 0.811375 0
M  V30 3800 O 350.121 -2.52559 0.996293 0
M  V30 3801 C 348.577 -1.38844 3.3204 0
M  V30 3802 C 348.185 -0.398456 4.46225 0
M  V30 3803 C 349.929 -2.06512 3.70882 0
M  V30 3804 C 347.836 -1.04166 5.82154 0
M  V30 3805 H 346.766 -0.28461 0.698222 0
M  V30 3806 H 349.417 -0.00561272 1.83499 0
M  V30 3807 H 347.799 -2.1836 3.30356 0
M  V30 3808 H 348.973 0.367977 4.59328 0
M  V30 3809 H 347.288 0.174592 4.16034 0
M  V30 3810 H 349.885 -2.55437 4.6974 0
M  V30 3811 H 350.228 -2.87117 3.01445 0
M  V30 3812 H 350.761 -1.33808 3.7462 0
M  V30 3813 H 347.5 -0.275614 6.5492 0
M  V30 3814 H 347.02 -1.7786 5.72823 0
M  V30 3815 H 348.699 -1.55715 6.27982 0
M  V30 3816 N 348.832 -1.54138 -0.328536 0
M  V30 3817 C 350.062 -1.75807 -1.08516 0
M  V30 3818 C 350.47 -0.50428 -1.82356 0
M  V30 3819 O 349.813 0.534451 -1.75754 0
M  V30 3820 C 349.875 -2.89423 -2.13248 0
M  V30 3821 C 349.539 -4.28504 -1.5885 0
M  V30 3822 C 350.536 -5.09536 -1.03289 0
M  V30 3823 C 348.221 -4.75034 -1.63243 0
M  V30 3824 C 350.215 -6.35206 -0.52845 0
M  V30 3825 C 347.902 -6.00672 -1.12411 0
M  V30 3826 C 348.9 -6.80592 -0.573062 0
M  V30 3827 O 348.588 -8.03867 -0.0723692 0
M  V30 3828 H 348.32 -0.590633 -0.328829 0
M  V30 3829 H 350.874 -2.01819 -0.381868 0
M  V30 3830 H 349.104 -2.5897 -2.87178 0
M  V30 3831 H 350.793 -2.98921 -2.74592 0
M  V30 3832 H 351.559 -4.74745 -0.99206 0
M  V30 3833 H 347.438 -4.12875 -2.05074 0
M  V30 3834 H 350.982 -6.97532 -0.0976774 0
M  V30 3835 H 346.879 -6.34955 -1.162 0
M  V30 3836 H 347.647 -8.18283 -0.188258 0
M  V30 3837 N 350.31 0.590341 -1.46126 0
M  V30 3838 C 351.257 1.69994 -1.56111 0
M  V30 3839 C 352.227 1.61065 -0.405867 0
M  V30 3840 O 353.412 1.8039 -0.621613 0
M  V30 3841 C 350.552 3.08326 -1.55013 0
M  V30 3842 C 349.665 3.27936 -2.81215 0
M  V30 3843 C 348.8 4.56473 -2.71673 0
M  V30 3844 C 347.839 4.694 -3.92849 0
M  V30 3845 N 346.976 5.89254 -3.81738 0
M  V30 3846 H 351.816 1.60797 -2.50895 0
M  V30 3847 H 349.353 0.783799 -1.24479 0
M  V30 3848 H 351.311 3.88383 -1.52362 0
M  V30 3849 H 349.941 3.16439 -0.637667 0
M  V30 3850 H 348.993 2.41536 -2.93879 0
M  V30 3851 H 350.305 3.33357 -3.71045 0
M  V30 3852 H 349.459 5.44748 -2.67085 0
M  V30 3853 H 348.198 4.53477 -1.7947 0
M  V30 3854 H 347.203 3.79544 -3.97777 0
M  V30 3855 H 348.428 4.7418 -4.86138 0
M  V30 3856 H 346.374 5.87271 -2.92317 0
M  V30 3857 H 346.291 5.95911 -4.65217 0
M  V30 3858 H 347.559 6.79981 -3.81112 0
M  V30 3859 N 351.788 1.33704 0.83433 0
M  V30 3860 C 353.016 1.28467 1.62185 0
M  V30 3861 C 353.431 -0.143526 1.88254 0
M  V30 3862 O 352.788 -1.08709 1.4659 0
M  V30 3863 C 352.839 2.06174 2.96942 0
M  V30 3864 O 352.56 3.43422 2.72016 0
M  V30 3865 C 354.061 2.08201 3.91366 0
M  V30 3866 H 351.281 0.4424 0.504503 0
M  V30 3867 H 353.825 1.76145 1.03891 0
M  V30 3868 H 351.98 1.62167 3.51825 0
M  V30 3869 H 352.394 3.83453 3.57861 0
M  V30 3870 H 353.868 2.67017 4.83121 0
M  V30 3871 H 354.345 1.07343 4.2588 0
M  V30 3872 H 354.951 2.52246 3.42421 0
M  V30 3873 N 353.266 -1.05314 1.17247 0
M  V30 3874 C 354.213 -2.13031 0.888058 0
M  V30 3875 C 355.183 -1.65253 -0.167537 0
M  V30 3876 O 356.368 -1.90775 -0.0305974 0
M  V30 3877 C 353.508 -3.42702 0.406147 0
M  V30 3878 C 352.621 -4.04161 1.52572 0
M  V30 3879 C 351.756 -5.21744 0.997808 0
M  V30 3880 C 350.795 -5.75207 2.09291 0
M  V30 3881 N 349.932 -6.84094 1.57986 0
M  V30 3882 H 354.772 -2.36698 1.81048 0
M  V30 3883 H 352.309 -1.16121 0.903013 0
M  V30 3884 H 354.267 -4.17059 0.108305 0
M  V30 3885 H 352.897 -3.19222 -0.479313 0
M  V30 3886 H 351.949 -3.27253 1.93931 0
M  V30 3887 H 353.261 -4.39881 2.35172 0
M  V30 3888 H 352.415 -6.03168 0.653739 0
M  V30 3889 H 351.154 -4.87495 0.141232 0
M  V30 3890 H 350.159 -4.92414 2.44557 0
M  V30 3891 H 351.384 -6.11505 2.95362 0
M  V30 3892 H 349.33 -6.51745 0.74598 0
M  V30 3893 H 349.247 -7.18811 2.34195 0
M  V30 3894 H 350.515 -7.69172 1.26468 0
M  V30 3895 N 354.744 -0.972509 -1.24016 0
M  V30 3896 C 355.654 -0.5143 -2.28893 0
M  V30 3897 C 356.67 0.427078 -1.68677 0
M  V30 3898 O 357.846 0.298939 -1.99169 0
M  V30 3899 C 354.911 0.183598 -3.46214 0
M  V30 3900 C 353.972 -0.798202 -4.21814 0
M  V30 3901 C 353.205 -0.133514 -5.33533 0
M  V30 3902 O 353.428 1.07714 -5.60137 0
M  V30 3903 O 352.362 -0.828103 -5.96176 0
M  V30 3904 H 356.188 -1.38629 -2.70214 0
M  V30 3905 H 353.773 -0.739769 -1.29799 0
M  V30 3906 H 355.655 0.575433 -4.17453 0
M  V30 3907 H 354.33 1.03048 -3.0686 0
M  V30 3908 H 353.237 -1.24059 -3.52931 0
M  V30 3909 H 354.57 -1.61364 -4.64997 0
M  V30 3910 N 356.222 1.38976 -0.743202 0
M  V30 3911 C 357.17 2.32394 -0.0978389 0
M  V30 3912 C 358.164 1.53486 0.716824 0
M  V30 3913 O 359.37 1.69092 0.617088 0
M  V30 3914 H 355.745 0.75189 -0.0128402 0
M  V30 3915 H 357.716 2.84441 -0.901981 0
M  V30 3916 C 356.465 3.38629 0.789036 0
M  V30 3917 H 355.788 3.99432 0.171559 0
M  V30 3918 H 357.228 4.06426 1.20807 0
M  V30 3919 C 355.687 2.76347 1.92702 0
M  V30 3920 O 356.217 2.64836 3.02034 0
M  V30 3921 N 354.423 2.34311 1.71891 0
M  V30 3922 H 353.97 2.43873 0.829675 0
M  V30 3923 H 353.928 1.9298 2.48205 0
M  V30 3924 N 357.7 0.491464 1.49741 0
M  V30 3925 C 358.648 -0.305837 2.30581 0
M  V30 3926 C 359.642 -0.971642 1.38764 0
M  V30 3927 O 360.848 -0.90042 1.5586 0
M  V30 3928 H 357.223 -0.117482 0.742767 0
M  V30 3929 H 359.194 0.396093 2.95759 0
M  V30 3930 C 357.943 -1.36319 3.19863 0
M  V30 3931 H 357.266 -0.860258 3.90435 0
M  V30 3932 H 358.706 -1.89323 3.79385 0
M  V30 3933 C 357.165 -2.37621 2.38826 0
M  V30 3934 O 357.695 -3.43311 2.08567 0
M  V30 3935 N 355.901 -2.09849 2.01026 0
M  V30 3936 H 355.448 -1.23922 2.25834 0
M  V30 3937 H 355.406 -2.77859 1.47112 0
M  V30 3938 N 359.178 -1.55987 0.224894 0
M  V30 3939 C 360.125 -2.20436 -0.68385 0
M  V30 3940 C 361.095 -1.16102 -1.18783 0
M  V30 3941 O 362.28 -1.4447 -1.24632 0
M  V30 3942 C 359.42 -2.89076 -1.88491 0
M  V30 3943 C 358.533 -4.08012 -1.41951 0
M  V30 3944 C 357.668 -4.64426 -2.5784 0
M  V30 3945 C 356.707 -5.75656 -2.08053 0
M  V30 3946 N 355.844 -6.26347 -3.17227 0
M  V30 3947 H 360.684 -2.97727 -0.12754 0
M  V30 3948 H 358.221 -1.47011 -0.0511978 0
M  V30 3949 H 360.179 -3.27059 -2.59014 0
M  V30 3950 H 358.809 -2.14298 -2.41405 0
M  V30 3951 H 357.861 -3.75492 -0.609095 0
M  V30 3952 H 359.173 -4.88375 -1.01447 0
M  V30 3953 H 358.327 -5.04869 -3.3644 0
M  V30 3954 H 357.066 -3.83233 -3.01635 0
M  V30 3955 H 356.071 -5.34712 -1.27916 0
M  V30 3956 H 357.296 -6.58686 -1.65255 0
M  V30 3957 H 355.242 -5.48067 -3.60497 0
M  V30 3958 H 355.159 -7.01843 -2.80986 0
M  V30 3959 H 356.427 -6.71447 -3.95953 0
M  V30 3960 N 360.656 0.0484629 -1.57525 0
M  V30 3961 C 361.603 1.05504 -2.05275 0
M  V30 3962 C 362.573 1.37084 -0.937927 0
M  V30 3963 O 363.758 1.47754 -1.2072 0
M  V30 3964 C 360.898 2.35676 -2.52093 0
M  V30 3965 C 360.011 2.10423 -3.77288 0
M  V30 3966 C 359.146 3.34327 -4.12794 0
M  V30 3967 C 358.185 3.04542 -5.30962 0
M  V30 3968 N 357.322 4.20841 -5.61994 0
M  V30 3969 H 362.162 0.640885 -2.91027 0
M  V30 3970 H 359.699 0.304854 -1.43906 0
M  V30 3971 H 361.657 3.11709 -2.77297 0
M  V30 3972 H 360.287 2.7485 -1.69285 0
M  V30 3973 H 359.339 1.24976 -3.59284 0
M  V30 3974 H 360.651 1.84438 -4.63448 0
M  V30 3975 H 359.805 4.1874 -4.39024 0
M  V30 3976 H 358.544 3.63408 -3.25247 0
M  V30 3977 H 357.549 2.18528 -5.04505 0
M  V30 3978 H 358.774 2.76758 -6.20146 0
M  V30 3979 H 356.72 4.4991 -4.77406 0
M  V30 3980 H 356.637 3.98212 -6.42622 0
M  V30 3981 H 357.905 5.06184 -5.92789 0
M  V30 3982 N 362.134 1.5431 0.320358 0
M  V30 3983 C 363.044 1.86946 1.41734 0
M  V30 3984 C 364.06 0.761689 1.56443 0
M  V30 3985 O 365.236 1.05629 1.71477 0
M  V30 3986 C 362.301 2.09293 2.76401 0
M  V30 3987 C 361.362 3.33082 2.70841 0
M  V30 3988 C 360.595 3.54353 3.99086 0
M  V30 3989 O 360.818 2.79002 4.97508 0
M  V30 3990 O 359.752 4.47838 4.0215 0
M  V30 3991 H 363.578 2.80232 1.17062 0
M  V30 3992 H 361.163 1.40255 0.514673 0
M  V30 3993 H 363.045 2.25303 3.56113 0
M  V30 3994 H 361.72 1.19194 3.00956 0
M  V30 3995 H 360.627 3.22454 1.89668 0
M  V30 3996 H 361.96 4.23249 2.5124 0
M  V30 3997 N 363.613 -0.582584 1.46437 0
M  V30 3998 C 364.859 -1.34278 1.51978 0
M  V30 3999 C 365.192 -1.93446 0.170973 0
M  V30 4000 O 364.467 -1.76481 -0.817608 0
M  V30 4001 C 364.75 -2.47203 2.61845 0
M  V30 4002 C 364.603 -1.93069 4.06257 0
M  V30 4003 C 365.922 -3.49247 2.67795 0
M  V30 4004 H 363.041 -0.486876 0.553282 0
M  V30 4005 H 365.683 -0.654437 1.78374 0
M  V30 4006 H 363.833 -3.0592 2.39469 0
M  V30 4007 H 365.505 -1.38808 4.3992 0
M  V30 4008 H 363.748 -1.23898 4.1573 0
M  V30 4009 H 364.419 -2.74586 4.7886 0
M  V30 4010 H 366.895 -3.00411 2.8791 0
M  V30 4011 H 365.771 -4.25719 3.46489 0
M  V30 4012 H 366.032 -4.06482 1.73852 0
M  V30 4013 N 365.091 -1.34144 -0.827227 0
M  V30 4014 C 366.021 -1.28005 -1.95287 0
M  V30 4015 C 367.002 -0.158321 -1.69362 0
M  V30 4016 O 368.187 -0.349987 -1.9102 0
M  V30 4017 C 365.317 -1.03036 -3.31664 0
M  V30 4018 C 364.271 -2.11628 -3.72019 0
M  V30 4019 C 363.597 -1.71854 -5.0633 0
M  V30 4020 C 364.897 -3.53417 -3.8457 0
M  V30 4021 H 366.591 -2.22187 -2.00682 0
M  V30 4022 H 364.137 -1.0696 -0.964135 0
M  V30 4023 H 366.09 -0.973863 -4.09993 0
M  V30 4024 H 364.814 -0.0529391 -3.26557 0
M  V30 4025 H 363.473 -2.16339 -2.95961 0
M  V30 4026 H 363.121 -0.727841 -4.97706 0
M  V30 4027 H 362.821 -2.44531 -5.34302 0
M  V30 4028 H 364.345 -1.67692 -5.87122 0
M  V30 4029 H 365.759 -3.51142 -4.5318 0
M  V30 4030 H 364.156 -4.24679 -4.2399 0
M  V30 4031 H 365.226 -3.91072 -2.86689 0
M  V30 4032 N 366.569 1.04691 -1.17803 0
M  V30 4033 C 367.797 1.81446 -0.99423 0
M  V30 4034 C 368.212 1.83174 0.457459 0
M  V30 4035 O 367.569 1.26265 1.31771 0
M  V30 4036 C 367.62 3.27334 -1.5341 0
M  V30 4037 O 367.341 3.25798 -2.92895 0
M  V30 4038 C 368.842 4.20759 -1.39559 0
M  V30 4039 H 366.062 0.571599 -0.351447 0
M  V30 4040 H 368.606 1.31982 -1.56208 0
M  V30 4041 H 366.761 3.74052 -1.00815 0
M  V30 4042 H 367.175 4.17144 -3.17949 0
M  V30 4043 H 368.649 5.21084 -1.82141 0
M  V30 4044 H 369.126 4.37856 -0.343394 0
M  V30 4045 H 369.732 3.79901 -1.91195 0
M  V30 4046 N 368.047 0.979072 1.23499 0
M  V30 4047 C 369.293 0.648178 1.92163 0
M  V30 4048 C 369.626 -0.816049 1.76222 0
M  V30 4049 O 368.901 -1.58849 1.12237 0
M  V30 4050 C 369.184 1.03773 3.44824 0
M  V30 4051 C 369.037 2.55948 3.69879 0
M  V30 4052 C 370.356 0.580653 4.36253 0
M  V30 4053 H 367.475 0.236952 0.69787 0
M  V30 4054 H 370.117 1.22012 1.45647 0
M  V30 4055 H 368.267 0.551058 3.84572 0
M  V30 4056 H 369.939 3.12179 3.3962 0
M  V30 4057 H 368.182 2.98641 3.14636 0
M  V30 4058 H 368.853 2.78255 4.76737 0
M  V30 4059 H 371.329 0.998465 4.03943 0
M  V30 4060 H 370.205 0.881663 5.41773 0
M  V30 4061 H 370.466 -0.519052 4.39042 0
M  V30 4062 N 369.525 -1.3858 0.750561 0
M  V30 4063 C 370.455 -2.33102 0.136237 0
M  V30 4064 C 371.436 -1.54713 -0.706965 0
M  V30 4065 O 372.621 -1.83043 -0.648769 0
M  V30 4066 C 369.751 -3.38882 -0.760017 0
M  V30 4067 C 368.705 -4.27995 -0.0197785 0
M  V30 4068 C 368.031 -5.24605 -1.03408 0
M  V30 4069 C 369.331 -5.09554 1.14684 0
M  V30 4070 H 371.025 -2.84726 0.925822 0
M  V30 4071 H 368.571 -1.36898 0.446654 0
M  V30 4072 H 370.524 -4.0397 -1.19943 0
M  V30 4073 H 369.248 -2.85734 -1.58189 0
M  V30 4074 H 367.907 -3.64409 0.400184 0
M  V30 4075 H 367.555 -4.67746 -1.84994 0
M  V30 4076 H 367.255 -5.85081 -0.543464 0
M  V30 4077 H 368.779 -5.9257 -1.47288 0
M  V30 4078 H 370.193 -5.67899 0.785118 0
M  V30 4079 H 368.59 -5.7925 1.56812 0
M  V30 4080 H 369.66 -4.4347 1.96118 0
M  V30 4081 N 371.003 -0.499398 -1.49478 0
M  V30 4082 C 371.95 0.279881 -2.29097 0
M  V30 4083 C 372.92 0.961805 -1.3542 0
M  V30 4084 O 374.105 0.968777 -1.64376 0
M  V30 4085 C 371.245 1.33932 -3.18051 0
M  V30 4086 C 370.358 0.669333 -4.26783 0
M  V30 4087 C 369.493 1.70907 -5.02955 0
M  V30 4088 C 368.532 1.02087 -6.03527 0
M  V30 4089 N 367.669 2.00474 -6.7287 0
M  V30 4090 H 372.509 -0.405317 -2.95231 0
M  V30 4091 H 370.046 -0.211726 -1.45568 0
M  V30 4092 H 372.004 1.96553 -3.67998 0
M  V30 4093 H 370.634 1.9933 -2.53904 0
M  V30 4094 H 369.686 -0.0701234 -3.80335 0
M  V30 4095 H 370.998 0.127503 -4.98637 0
M  V30 4096 H 370.152 2.41037 -5.56764 0
M  V30 4097 H 368.891 2.28476 -4.30871 0
M  V30 4098 H 367.896 0.305338 -5.48951 0
M  V30 4099 H 369.121 0.451708 -6.77596 0
M  V30 4100 H 367.067 2.57007 -6.03559 0
M  V30 4101 H 366.984 1.51353 -7.40694 0
M  V30 4102 H 368.252 2.69897 -7.31284 0
M  V30 4103 N 372.481 1.55866 -0.233164 0
M  V30 4104 C 373.706 2.03449 0.402906 0
M  V30 4105 C 374.131 1.11166 1.51736 0
M  V30 4106 O 373.489 0.101996 1.81013 0
M  V30 4107 C 373.537 3.49165 0.9009 0
M  V30 4108 O 372.641 3.60019 2.01147 0
M  V30 4109 H 371.982 0.657913 0.0897025 0
M  V30 4110 H 374.512 2.01493 -0.355201 0
M  V30 4111 H 374.522 3.89716 1.2077 0
M  V30 4112 H 373.197 4.15813 0.0852889 0
M  V30 4113 H 371.774 3.3136 1.71042 0
M  V30 4114 N 373.959 -0.0401083 1.57549 0
M  V30 4115 C 374.906 -1.04413 2.05831 0
M  V30 4116 C 375.876 -1.36585 0.945184 0
M  V30 4117 O 377.061 -1.47112 1.21502 0
M  V30 4118 C 374.201 -2.34336 2.53339 0
M  V30 4119 C 373.314 -2.08419 3.78398 0
M  V30 4120 C 372.449 -3.32133 4.14561 0
M  V30 4121 C 371.488 -3.01721 5.3257 0
M  V30 4122 N 370.625 -4.17855 5.64218 0
M  V30 4123 H 375.465 -0.625442 2.91363 0
M  V30 4124 H 373.002 -0.297218 1.44066 0
M  V30 4125 H 374.96 -3.10234 2.78946 0
M  V30 4126 H 373.59 -2.73948 1.7074 0
M  V30 4127 H 372.642 -1.23069 3.59942 0
M  V30 4128 H 373.954 -1.81978 4.64419 0
M  V30 4129 H 373.108 -4.16406 4.41238 0
M  V30 4130 H 371.847 -3.61678 3.2717 0
M  V30 4131 H 370.852 -2.15849 5.05657 0
M  V30 4132 H 372.077 -2.73466 6.21605 0
M  V30 4133 H 370.023 -4.47372 4.79786 0
M  V30 4134 H 369.94 -3.94798 6.44725 0
M  V30 4135 H 371.208 -5.03033 5.95465 0
M  V30 4136 N 375.437 -1.54477 -0.31217 0
M  V30 4137 C 376.714 -1.63891 -1.06767 0
M  V30 4138 C 377.094 -0.480028 -2.0557 0
M  V30 4139 O 376.442 0.524487 -2.22399 0
M  V30 4140 C 376.652 -3.01402 -1.75948 0
M  V30 4141 C 378 -3.57838 -2.28554 0
M  V30 4142 O 379.024 -3.03782 -1.85998 0
M  V30 4143 O 377.883 -4.52462 -3.06497 0
M  V30 4144 H 374.977 -0.664125 -0.492816 0
M  V30 4145 H 377.523 -1.66823 -0.311149 0
M  V30 4146 H 376.295 -3.77187 -1.04144 0
M  V30 4147 H 375.918 -3.02199 -2.58383 0
M  V30 4148 N 376.915 0.57481 -1.46744 0
M  V30 4149 C 378.161 1.3347 -1.52688 0
M  V30 4150 C 378.494 1.93353 -0.181229 0
M  V30 4151 O 377.769 1.76912 0.808237 0
M  V30 4152 C 378.052 2.45811 -2.63152 0
M  V30 4153 C 377.905 1.90912 -4.07275 0
M  V30 4154 C 379.224 3.47822 -2.69644 0
M  V30 4155 H 376.343 0.483935 -0.555856 0
M  V30 4156 H 378.985 0.644968 -1.78718 0
M  V30 4157 H 377.135 3.04646 -2.41088 0
M  V30 4158 H 378.807 1.36473 -4.4065 0
M  V30 4159 H 377.05 1.21691 -4.16382 0
M  V30 4160 H 377.721 2.72042 -4.80309 0
M  V30 4161 H 380.197 2.9888 -2.895 0
M  V30 4162 H 379.073 4.23876 -3.48742 0
M  V30 4163 H 379.334 4.05555 -1.76005 0
M  V30 4164 N 378.394 1.34581 0.820102 0
M  V30 4165 C 379.641 1.27096 1.57648 0
M  V30 4166 C 379.969 -0.158317 1.93855 0
M  V30 4167 O 379.224 -1.12028 1.60463 0
M  V30 4168 C 379.523 2.10997 2.8847 0
M  V30 4169 C 379.189 3.59966 2.71543 0
M  V30 4170 C 377.851 4.00575 2.66634 0
M  V30 4171 C 380.203 4.54548 2.55021 0
M  V30 4172 C 377.531 5.33953 2.43128 0
M  V30 4173 C 379.883 5.88109 2.33047 0
M  V30 4174 C 378.547 6.27878 2.26552 0
M  V30 4175 H 377.817 0.465078 0.576874 0
M  V30 4176 H 380.464 1.6635 0.948671 0
M  V30 4177 H 378.769 1.6458 3.55557 0
M  V30 4178 H 380.466 2.0255 3.46084 0
M  V30 4179 H 377.056 3.27733 2.76205 0
M  V30 4180 H 381.24 4.24069 2.57835 0
M  V30 4181 H 376.496 5.63781 2.3656 0
M  V30 4182 H 380.67 6.60985 2.19251 0
M  V30 4183 H 378.297 7.31162 2.081 0
M  V30 4184 N 379.872 -1.04064 1.18357 0
M  V30 4185 C 381.12 -1.76915 0.977013 0
M  V30 4186 C 381.441 -1.88624 -0.494577 0
M  V30 4187 O 380.711 -1.41125 -1.3587 0
M  V30 4188 H 379.291 -0.65535 0.358504 0
M  V30 4189 H 381.953 -1.25592 1.49039 0
M  V30 4190 H 381.049 -2.78178 1.41504 0
M  V30 4191 N 381.35 -0.985608 -1.22978 0
M  V30 4192 C 382.26 -0.538548 -2.28335 0
M  V30 4193 C 383.276 0.409163 -1.69121 0
M  V30 4194 O 384.452 0.277797 -1.99475 0
M  V30 4195 C 381.517 0.146867 -3.46389 0
M  V30 4196 C 380.578 -0.842896 -4.20944 0
M  V30 4197 C 379.811 -0.190095 -5.33361 0
M  V30 4198 O 380.034 1.01767 -5.61248 0
M  V30 4199 O 378.968 -0.891289 -5.95264 0
M  V30 4200 H 382.794 -1.41487 -2.68729 0
M  V30 4201 H 380.379 -0.753495 -1.29007 0
M  V30 4202 H 382.261 0.531125 -4.1804 0
M  V30 4203 H 380.936 0.997871 -3.07935 0
M  V30 4204 H 379.843 -1.27795 -3.51595 0
M  V30 4205 H 381.176 -1.66287 -4.6326 0
M  V30 4206 N 382.828 1.3818 -0.7579 0
M  V30 4207 C 383.758 2.33027 -0.148597 0
M  V30 4208 C 384.739 1.55085 0.69875 0
M  V30 4209 O 385.924 1.83384 0.639053 0
M  V30 4210 C 383.054 3.3928 0.742034 0
M  V30 4211 C 382.008 4.28 -0.00291946 0
M  V30 4212 C 381.334 5.25146 1.00625 0
M  V30 4213 C 382.634 5.08938 -1.17385 0
M  V30 4214 H 384.328 2.84231 -0.940909 0
M  V30 4215 H 381.874 1.36659 -0.453908 0
M  V30 4216 H 383.827 4.046 1.17799 0
M  V30 4217 H 382.551 2.86569 1.56671 0
M  V30 4218 H 381.21 3.64192 -0.419504 0
M  V30 4219 H 380.858 4.68721 1.8251 0
M  V30 4220 H 380.558 5.85361 0.512428 0
M  V30 4221 H 382.082 5.93342 1.44143 0
M  V30 4222 H 383.496 5.67474 -0.815224 0
M  V30 4223 H 381.893 5.7841 -1.59882 0
M  V30 4224 H 382.963 4.42424 -1.98468 0
M  V30 4225 N 384.306 0.507319 1.49211 0
M  V30 4226 C 385.269 -0.256763 2.27757 0
M  V30 4227 C 386.269 -0.888287 1.34038 0
M  V30 4228 O 387.459 -0.751841 1.5714 0
M  V30 4229 C 384.591 -1.36905 3.12202 0
M  V30 4230 H 385.784 0.432557 2.96764 0
M  V30 4231 H 383.337 0.262488 1.5408 0
M  V30 4232 H 384.072 -2.09233 2.47775 0
M  V30 4233 H 383.857 -0.921599 3.81115 0
M  V30 4234 H 385.347 -1.9071 3.7151 0
M  V30 4235 N 385.784 -1.5574 0.241426 0
M  V30 4236 C 386.714 -2.24133 -0.654722 0
M  V30 4237 C 387.695 -1.21974 -1.1856 0
M  V30 4238 O 388.88 -1.50612 -1.22595 0
M  V30 4239 C 386.01 -2.93659 -1.85423 0
M  V30 4240 C 384.964 -4.0246 -1.45636 0
M  V30 4241 C 384.29 -4.59383 -2.73626 0
M  V30 4242 C 385.59 -5.18468 -0.631506 0
M  V30 4243 H 387.284 -2.99281 -0.0844353 0
M  V30 4244 H 384.83 -1.43947 -0.0391707 0
M  V30 4245 H 386.783 -3.40203 -2.48676 0
M  V30 4246 H 385.507 -2.15991 -2.44981 0
M  V30 4247 H 384.166 -3.56676 -0.847202 0
M  V30 4248 H 383.814 -3.78422 -3.3137 0
M  V30 4249 H 383.514 -5.32826 -2.4773 0
M  V30 4250 H 385.038 -5.08658 -3.37786 0
M  V30 4251 H 386.452 -5.61272 -1.1682 0
M  V30 4252 H 384.849 -5.98266 -0.468831 0
M  V30 4253 H 385.919 -4.8358 0.357506 0
M  V30 4254 N 387.262 0.0317525 -1.57568 0
M  V30 4255 C 388.192 1.03274 -2.0942 0
M  V30 4256 C 389.173 1.3788 -0.996143 0
M  V30 4257 O 390.358 1.46811 -1.27122 0
M  V30 4258 C 387.488 2.33448 -2.57137 0
M  V30 4259 C 386.442 2.13091 -3.71182 0
M  V30 4260 C 385.768 3.49001 -4.05095 0
M  V30 4261 C 387.068 1.51928 -4.99715 0
M  V30 4262 H 388.762 0.60112 -2.93303 0
M  V30 4263 H 386.308 0.287705 -1.41097 0
M  V30 4264 H 388.261 3.03802 -2.92032 0
M  V30 4265 H 386.985 2.78665 -1.70333 0
M  V30 4266 H 385.644 1.45171 -3.36632 0
M  V30 4267 H 385.292 3.91862 -3.15362 0
M  V30 4268 H 384.992 3.36207 -4.81911 0
M  V30 4269 H 386.516 4.20721 -4.42522 0
M  V30 4270 H 387.93 2.12196 -5.32584 0
M  V30 4271 H 386.327 1.49716 -5.81124 0
M  V30 4272 H 387.397 0.484811 -4.8247 0
M  V30 4273 N 388.74 1.54641 0.303973 0
M  V30 4274 C 389.97 1.77511 1.05705 0
M  V30 4275 C 390.378 0.533228 1.81531 0
M  V30 4276 O 389.721 -0.506423 1.76582 0
M  V30 4277 C 389.783 2.92779 2.08617 0
M  V30 4278 C 389.447 4.30977 1.52013 0
M  V30 4279 C 390.444 5.11115 0.9517 0
M  V30 4280 C 388.129 4.77571 1.55665 0
M  V30 4281 C 390.123 6.35966 0.427327 0
M  V30 4282 C 387.81 6.02384 1.02841 0
M  V30 4283 C 388.808 6.81417 0.464713 0
M  V30 4284 O 388.496 8.03881 -0.0555283 0
M  V30 4285 H 388.228 0.59579 0.319391 0
M  V30 4286 H 390.782 2.02401 0.349712 0
M  V30 4287 H 389.012 2.63506 2.83022 0
M  V30 4288 H 390.701 3.03252 2.69802 0
M  V30 4289 H 391.467 4.76264 0.916407 0
M  V30 4290 H 387.346 4.16085 1.9848 0
M  V30 4291 H 390.89 6.97599 -0.0133062 0
M  V30 4292 H 386.787 6.36723 1.06084 0
M  V30 4293 H 387.555 8.18479 0.0580522 0
M  V30 4294 N 390.218 -0.567019 1.47046 0
M  V30 4295 C 391.166 -1.69593 1.59188 0
M  V30 4296 C 392.16 -1.63046 0.459609 0
M  V30 4297 O 393.366 -1.6835 0.637058 0
M  V30 4298 H 389.741 -0.560993 0.500791 0
M  V30 4299 H 391.712 -1.56488 2.54075 0
M  V30 4300 C 390.461 -3.07964 1.61411 0
M  V30 4301 H 389.784 -3.13679 2.47881 0
M  V30 4302 H 391.224 -3.86671 1.73958 0
M  V30 4303 C 389.683 -3.35123 0.34559 0
M  V30 4304 O 390.213 -3.97812 -0.557521 0
M  V30 4305 N 388.419 -2.89699 0.22864 0
M  V30 4306 H 387.966 -2.38863 0.964479 0
M  V30 4307 H 387.924 -3.08242 -0.619192 0
M  V30 4308 N 391.696 -1.35014 -0.812953 0
M  V30 4309 C 392.921 -1.31187 -1.60639 0
M  V30 4310 C 393.346 0.109382 -1.87782 0
M  V30 4311 O 392.704 1.07424 -1.46047 0
M  V30 4312 C 392.752 -2.11809 -2.91838 0
M  V30 4313 O 391.856 -1.49444 -3.8437 0
M  V30 4314 H 391.197 -0.450084 -0.488181 0
M  V30 4315 H 393.727 -1.77963 -1.00947 0
M  V30 4316 H 393.737 -2.23531 -3.41318 0
M  V30 4317 H 392.412 -3.15137 -2.71407 0
M  V30 4318 H 390.989 -1.46524 -3.42907 0
M  V30 4319 N 393.175 1.03435 -1.18907 0
M  V30 4320 C 394.122 2.11591 -0.921837 0
M  V30 4321 C 395.092 1.65499 0.141226 0
M  V30 4322 O 396.277 1.908 0.000242829 0
M  V30 4323 C 393.417 3.42012 -0.460616 0
M  V30 4324 C 392.53 4.01682 -1.58982 0
M  V30 4325 C 391.665 5.20091 -1.08069 0
M  V30 4326 C 390.704 5.71805 -2.18416 0
M  V30 4327 N 389.841 6.81494 -1.68849 0
M  V30 4328 H 394.681 2.33787 -1.8479 0
M  V30 4329 H 392.218 1.1467 -0.921373 0
M  V30 4330 H 394.176 4.16834 -0.174642 0
M  V30 4331 H 392.806 3.19944 0.428467 0
M  V30 4332 H 391.858 3.24127 -1.99113 0
M  V30 4333 H 393.17 4.36084 -2.4214 0
M  V30 4334 H 392.324 6.02051 -0.749615 0
M  V30 4335 H 391.063 4.87209 -0.218771 0
M  V30 4336 H 390.068 4.88461 -2.5236 0
M  V30 4337 H 391.293 6.06728 -3.05054 0
M  V30 4338 H 389.239 6.50475 -0.849572 0
M  V30 4339 H 389.156 7.14994 -2.45601 0
M  V30 4340 H 390.424 7.67063 -1.38689 0
M  V30 4341 N 394.653 0.992116 1.22453 0
M  V30 4342 C 396.069 0.702713 1.43297 0
M  V30 4343 C 396.269 -0.726909 1.87932 0
M  V30 4344 O 395.325 -1.49792 2.0327 0
M  V30 4345 C 396.638 1.70762 2.47509 0
M  V30 4346 C 398.186 1.72298 2.61309 0
M  V30 4347 C 398.661 2.71649 3.68742 0
M  V30 4348 N 400.152 2.70239 3.76199 0
M  V30 4349 C 400.887 3.43778 4.58917 0
M  V30 4350 N 400.383 4.26914 5.45633 0
M  V30 4351 N 402.176 3.32487 4.5322 0
M  V30 4352 H 394.327 1.91543 0.917871 0
M  V30 4353 H 396.59 0.826031 0.465162 0
M  V30 4354 H 396.296 2.73059 2.21657 0
M  V30 4355 H 396.17 1.49985 3.46099 0
M  V30 4356 H 398.557 0.706989 2.86506 0
M  V30 4357 H 398.638 1.97143 1.62997 0
M  V30 4358 H 398.282 3.73397 3.44292 0
M  V30 4359 H 398.212 2.44074 4.66622 0
M  V30 4360 H 400.703 2.09912 3.14237 0
M  V30 4361 H 401.016 4.79855 6.05771 0
M  V30 4362 H 399.361 4.31002 5.45218 0
M  V30 4363 H 402.552 2.6698 3.84499 0
M  V30 4364 H 402.725 3.90058 5.17454 0
M  V30 4365 N 396.131 -1.37776 0.765217 0
M  V30 4366 C 397.094 -2.28686 0.153416 0
M  V30 4367 C 398.094 -1.47727 -0.635081 0
M  V30 4368 O 399.284 -1.68027 -0.459632 0
M  V30 4369 C 396.416 -3.31608 -0.790495 0
M  V30 4370 H 397.609 -2.84297 0.954723 0
M  V30 4371 H 395.162 -1.46932 0.53299 0
M  V30 4372 H 395.897 -2.81109 -1.61705 0
M  V30 4373 H 395.682 -3.9144 -0.227348 0
M  V30 4374 H 397.172 -3.99559 -1.21419 0
M  V30 4375 N 397.609 -0.515225 -1.4894 0
M  V30 4376 C 398.572 0.244681 -2.2789 0
M  V30 4377 C 399.572 0.881166 -1.34507 0
M  V30 4378 O 400.762 0.743497 -1.57537 0
M  V30 4379 C 397.894 1.35247 -3.12923 0
M  V30 4380 H 399.087 -0.448289 -2.96531 0
M  V30 4381 H 396.64 -0.270656 -1.53939 0
M  V30 4382 H 397.375 2.07916 -2.48881 0
M  V30 4383 H 397.16 0.901374 -3.81599 0
M  V30 4384 H 398.65 1.88737 -3.72516 0
M  V30 4385 N 399.087 1.5561 -0.249682 0
M  V30 4386 C 400.315 2.03411 0.378352 0
M  V30 4387 C 400.73 1.12886 1.51335 0
M  V30 4388 O 400.087 0.143833 1.81932 0
M  V30 4389 C 400.138 3.50537 0.88351 0
M  V30 4390 O 399.859 4.37614 -0.20626 0
M  V30 4391 C 401.36 4.14113 1.58195 0
M  V30 4392 H 398.58 0.664994 0.08958 0
M  V30 4393 H 401.124 2.01044 -0.374357 0
M  V30 4394 H 399.279 3.5343 1.58639 0
M  V30 4395 H 399.693 5.24199 0.177782 0
M  V30 4396 H 401.167 5.18741 1.8871 0
M  V30 4397 H 401.644 3.60767 2.50487 0
M  V30 4398 H 402.25 4.15151 0.923573 0
M  V30 4399 N 400.565 -0.0233959 1.57583 0
M  V30 4400 C 401.528 -1.00693 2.05897 0
M  V30 4401 C 402.528 -1.28693 0.964092 0
M  V30 4402 O 403.718 -1.23602 1.22753 0
M  V30 4403 C 400.85 -2.33825 2.4807 0
M  V30 4404 H 402.043 -0.589476 2.9405 0
M  V30 4405 H 399.596 -0.270354 1.53944 0
M  V30 4406 H 400.331 -2.80307 1.6309 0
M  V30 4407 H 400.116 -2.1483 3.2801 0
M  V30 4408 H 401.606 -3.04426 2.85857 0
M  V30 4409 N 402.043 -1.548 -0.295768 0
M  V30 4410 C 403.271 -1.78327 -1.04914 0
M  V30 4411 C 403.686 -0.545316 -1.80753 0
M  V30 4412 O 403.043 0.485013 -1.75937 0
M  V30 4413 C 403.094 -2.99418 -2.02561 0
M  V30 4414 O 402.815 -4.18431 -1.29798 0
M  V30 4415 C 404.316 -3.35375 -2.89895 0
M  V30 4416 H 401.536 -0.594618 -0.310918 0
M  V30 4417 H 404.08 -2.01763 -0.333454 0
M  V30 4418 H 402.235 -2.78175 -2.69624 0
M  V30 4419 H 402.649 -4.86736 -1.95419 0
M  V30 4420 H 404.123 -4.23332 -3.54251 0
M  V30 4421 H 404.6 -2.53761 -3.58472 0
M  V30 4422 H 405.206 -3.58796 -2.28355 0
M  V30 4423 N 403.521 0.559213 -1.47345 0
M  V30 4424 C 404.484 1.64854 -1.59235 0
M  V30 4425 C 405.484 1.53851 -0.467607 0
M  V30 4426 O 406.674 1.58045 -0.732617 0
M  V30 4427 C 403.806 3.04388 -1.53496 0
M  V30 4428 H 404.999 1.55662 -2.56339 0
M  V30 4429 H 402.552 0.778973 -1.35505 0
M  V30 4430 H 403.287 3.19115 -0.577604 0
M  V30 4431 H 403.072 3.13783 -2.35123 0
M  V30 4432 H 404.562 3.83642 -1.6495 0
M  V30 4433 N 404.999 1.35443 0.805782 0
M  V30 4434 C 405.929 1.31095 1.93226 0
M  V30 4435 C 406.91 0.185244 1.69088 0
M  V30 4436 O 408.095 0.380332 1.90439 0
M  V30 4437 C 405.225 1.08299 3.29983 0
M  V30 4438 C 404.179 2.17519 3.68605 0
M  V30 4439 C 403.505 1.79887 5.03532 0
M  V30 4440 C 404.805 3.5949 3.78898 0
M  V30 4441 H 406.499 2.25352 1.97122 0
M  V30 4442 H 404.045 1.0848 0.946996 0
M  V30 4443 H 405.998 1.03897 4.08391 0
M  V30 4444 H 404.722 0.104885 3.26432 0
M  V30 4445 H 403.381 2.2102 2.92482 0
M  V30 4446 H 403.029 0.80693 4.96485 0
M  V30 4447 H 402.729 2.53001 5.30344 0
M  V30 4448 H 404.253 1.77011 5.84379 0
M  V30 4449 H 405.667 3.58307 4.47536 0
M  V30 4450 H 404.064 4.31371 4.1718 0
M  V30 4451 H 405.134 3.95584 2.80431 0
M  V30 4452 N 406.477 -1.02803 1.19454 0
M  V30 4453 C 407.705 -1.79841 1.02297 0
M  V30 4454 C 408.12 -1.83879 -0.428259 0
M  V30 4455 O 407.477 -1.28345 -1.29745 0
M  V30 4456 C 407.528 -3.24852 1.58598 0
M  V30 4457 O 407.249 -3.21097 2.98041 0
M  V30 4458 C 408.75 -4.18485 1.46236 0
M  V30 4459 H 405.97 -0.565936 0.360496 0
M  V30 4460 H 408.514 -1.2948 1.58288 0
M  V30 4461 H 406.669 -3.72401 1.06753 0
M  V30 4462 H 407.083 -4.12033 3.24545 0
M  V30 4463 H 408.557 -5.18121 1.90407 0
M  V30 4464 H 409.034 -4.37254 0.41301 0
M  V30 4465 H 409.64 -3.76811 1.97215 0
M  V30 4466 N 407.956 -0.998596 -1.21925 0
M  V30 4467 C 408.903 -0.553621 -2.24062 0
M  V30 4468 C 409.873 0.416999 -1.6078 0
M  V30 4469 O 411.058 0.320482 -1.88089 0
M  V30 4470 C 408.198 0.119959 -3.44891 0
M  V30 4471 C 407.311 -0.893077 -4.22668 0
M  V30 4472 C 406.446 -0.192424 -5.30851 0
M  V30 4473 C 405.485 -1.19344 -6.00353 0
M  V30 4474 N 404.622 -0.520707 -7.00166 0
M  V30 4475 H 409.462 -1.4293 -2.61486 0
M  V30 4476 H 406.999 -0.715838 -1.28507 0
M  V30 4477 H 408.957 0.527459 -4.13852 0
M  V30 4478 H 407.587 0.959389 -3.08214 0
M  V30 4479 H 406.639 -1.41886 -3.52948 0
M  V30 4480 H 407.951 -1.65512 -4.70539 0
M  V30 4481 H 407.105 0.271515 -6.06092 0
M  V30 4482 H 405.844 0.602075 -4.83969 0
M  V30 4483 H 404.849 -1.66795 -5.23889 0
M  V30 4484 H 406.074 -1.98891 -6.49322 0
M  V30 4485 H 404.02 0.254252 -6.55507 0
M  V30 4486 H 403.937 -1.2211 -7.46073 0
M  V30 4487 H 405.205 -0.0797596 -7.79459 0
M  V30 4488 N 409.434 1.37368 -0.772513 0
M  V30 4489 C 410.674 2.01512 -0.342361 0
M  V30 4490 C 411.038 1.59997 1.06136 0
M  V30 4491 O 412.239 2.16609 1.59167 0
M  V30 4492 C 410.51 3.54134 -0.482048 0
M  V30 4493 S 412.069 4.38585 -0.137272 0
M  V30 4494 H 408.887 0.698699 -0.131686 0
M  V30 4495 H 411.489 1.67552 -1.0073 0
M  V30 4496 H 410.193 3.81837 -1.50428 0
M  V30 4497 H 409.724 3.92894 0.199413 0
M  V30 4498 H 411.739 4.84594 1.06692 0
M  V30 4499 N 410.912 0.523116 1.48665 0
M  V30 4500 C 411.862 -0.263106 2.26477 0
M  V30 4501 C 412.846 -0.916005 1.32281 0
M  V30 4502 O 414.038 -0.819946 1.56863 0
M  V30 4503 C 411.167 -1.31361 3.17174 0
M  V30 4504 C 410.253 -0.665849 4.1884 0
M  V30 4505 N 410.644 0.244434 5.05209 0
M  V30 4506 C 408.942 -0.923863 4.36326 0
M  V30 4507 C 409.643 0.617443 5.78414 0
M  V30 4508 N 408.619 -0.0198686 5.43596 0
M  V30 4509 H 412.421 0.437295 2.90629 0
M  V30 4510 H 409.935 0.340675 1.58787 0
M  V30 4511 H 411.932 -1.89052 3.71571 0
M  V30 4512 H 410.592 -2.01546 2.54576 0
M  V30 4513 H 411.603 0.616621 5.14216 0
M  V30 4514 H 408.28 -1.6168 3.84923 0
M  V30 4515 H 409.67 1.36346 6.57921 0
M  V30 4516 N 412.39 -1.55475 0.257931 0
M  V30 4517 C 413.32 -2.24815 -0.630912 0
M  V30 4518 C 414.301 -1.23224 -1.17259 0
M  V30 4519 O 415.486 -1.51904 -1.20991 0
M  V30 4520 C 412.616 -2.95609 -1.82298 0
M  V30 4521 C 411.57 -4.03982 -1.41359 0
M  V30 4522 C 410.896 -4.6226 -2.68738 0
M  V30 4523 C 412.196 -5.19109 -0.57648 0
M  V30 4524 H 413.89 -2.99354 -0.0526878 0
M  V30 4525 H 411.436 -1.4398 -0.023901 0
M  V30 4526 H 413.389 -3.42822 -2.45054 0
M  V30 4527 H 412.113 -2.18577 -2.42676 0
M  V30 4528 H 410.772 -3.57555 -0.809324 0
M  V30 4529 H 410.42 -3.81915 -3.27338 0
M  V30 4530 H 410.12 -5.35424 -2.42065 0
M  V30 4531 H 411.644 -5.12212 -3.32372 0
M  V30 4532 H 413.058 -5.62479 -1.10861 0
M  V30 4533 H 411.455 -5.98729 -0.405351 0
M  V30 4534 H 412.525 -4.83174 0.408776 0
M  V30 4535 N 413.868 0.0150385 -1.57593 0
M  V30 4536 C 415.114 0.69849 -1.91031 0
M  V30 4537 C 415.469 1.72208 -0.85804 0
M  V30 4538 O 414.762 1.91147 0.131614 0
M  V30 4539 C 414.956 1.39686 -3.28972 0
M  V30 4540 C 414.785 0.442428 -4.47518 0
M  V30 4541 C 413.555 0.0583223 -5.05266 0
M  V30 4542 C 415.753 -0.285072 -5.13509 0
M  V30 4543 N 413.735 -0.895893 -6.07328 0
M  V30 4544 C 415.106 -1.09447 -6.10263 0
M  V30 4545 C 417.161 -0.350518 -4.96665 0
M  V30 4546 C 415.864 -1.96333 -6.91987 0
M  V30 4547 C 417.89 -1.20655 -5.78962 0
M  V30 4548 C 417.252 -2.00383 -6.75297 0
M  V30 4549 H 413.351 0.22926 -0.747639 0
M  V30 4550 H 415.935 -0.0417748 -1.94655 0
M  V30 4551 H 414.106 2.1075 -3.2625 0
M  V30 4552 H 415.838 2.03381 -3.49883 0
M  V30 4553 H 412.593 0.423506 -4.71703 0
M  V30 4554 H 413.017 -1.36792 -6.63036 0
M  V30 4555 H 417.659 0.251596 -4.22051 0
M  V30 4556 H 415.377 -2.57618 -7.65936 0
M  V30 4557 H 418.963 -1.2609 -5.67972 0
M  V30 4558 H 417.843 -2.65552 -7.3787 0
M  V30 4559 N 415.346 1.54954 0.287554 0
M  V30 4560 C 416.309 1.86076 1.33823 0
M  V30 4561 C 417.309 0.734414 1.43049 0
M  V30 4562 O 418.499 1.00266 1.42452 0
M  V30 4563 C 415.631 2.05305 2.72144 0
M  V30 4564 H 416.824 2.79984 1.07465 0
M  V30 4565 H 414.377 1.47223 0.524902 0
M  V30 4566 H 415.112 1.1373 3.03704 0
M  V30 4567 H 414.897 2.873 2.66836 0
M  V30 4568 H 416.387 2.30706 3.48087 0
M  V30 4569 N 416.824 -0.551391 1.4764 0
M  V30 4570 C 417.754 -1.66757 1.63445 0
M  V30 4571 C 418.735 -1.63077 0.483742 0
M  V30 4572 O 419.92 -1.80607 0.71377 0
M  V30 4573 C 417.05 -3.05387 1.65396 0
M  V30 4574 C 416.004 -3.23918 2.79752 0
M  V30 4575 C 415.33 -4.63393 2.66779 0
M  V30 4576 C 416.63 -3.08735 4.21284 0
M  V30 4577 H 418.324 -1.53786 2.56886 0
M  V30 4578 H 415.87 -0.738415 1.23626 0
M  V30 4579 H 417.823 -3.83325 1.75043 0
M  V30 4580 H 416.547 -3.19332 0.685195 0
M  V30 4581 H 415.206 -2.48391 2.69625 0
M  V30 4582 H 414.854 -4.74144 1.67918 0
M  V30 4583 H 414.554 -4.7674 3.43501 0
M  V30 4584 H 416.078 -5.43458 2.78364 0
M  V30 4585 H 417.492 -3.76484 4.32357 0
M  V30 4586 H 415.889 -3.33588 4.98838 0
M  V30 4587 H 416.959 -2.0541 4.39243 0
M  V30 4588 N 418.302 -1.35869 -0.798587 0
M  V30 4589 C 419.579 -1.20145 -1.54352 0
M  V30 4590 C 419.959 0.216161 -2.0999 0
M  V30 4591 O 419.307 1.22068 -1.93162 0
M  V30 4592 C 419.517 -2.27602 -2.64572 0
M  V30 4593 C 420.865 -2.63811 -3.32699 0
M  V30 4594 O 421.889 -2.26576 -2.74849 0
M  V30 4595 O 420.748 -3.27866 -4.37226 0
M  V30 4596 H 417.842 -0.467248 -0.682355 0
M  V30 4597 H 420.388 -1.47574 -0.837859 0
M  V30 4598 H 419.16 -3.2265 -2.21388 0
M  V30 4599 H 418.783 -2.01488 -3.42766 0
M  V30 4600 N 419.78 1.02168 -1.19998 0
M  V30 4601 C 421.196 1.27969 -0.953737 0
M  V30 4602 C 421.396 1.98079 0.369703 0
M  V30 4603 O 420.452 2.27306 1.09947 0
M  V30 4604 C 421.765 2.11971 -2.13281 0
M  V30 4605 C 423.313 2.25255 -2.17323 0
M  V30 4606 C 423.788 3.12632 -3.34702 0
M  V30 4607 N 425.279 3.2022 -3.34684 0
M  V30 4608 C 426.014 3.88039 -4.22153 0
M  V30 4609 N 425.51 4.58027 -5.19791 0
M  V30 4610 N 427.303 3.84511 -4.10009 0
M  V30 4611 H 419.454 0.550794 -2.05134 0
M  V30 4612 H 421.717 0.305683 -0.897364 0
M  V30 4613 H 421.423 1.67785 -3.09097 0
M  V30 4614 H 421.297 3.12699 -2.10949 0
M  V30 4615 H 423.684 2.68667 -1.22073 0
M  V30 4616 H 423.765 1.24053 -2.23706 0
M  V30 4617 H 423.409 2.69926 -4.30235 0
M  V30 4618 H 423.339 4.13909 -3.25556 0
M  V30 4619 H 425.83 2.70382 -2.64012 0
M  V30 4620 H 426.143 5.07429 -5.82868 0
M  V30 4621 H 424.488 4.56869 -5.23733 0
M  V30 4622 H 427.679 3.28978 -3.33003 0
M  V30 4623 H 427.852 4.3709 -4.78389 0
M  V30 4624 N 421.258 1.00505 1.21394 0
M  V30 4625 C 422.168 0.574806 2.27449 0
M  V30 4626 C 423.184 -0.382206 1.6975 0
M  V30 4627 O 424.36 -0.246027 1.99892 0
M  V30 4628 C 421.425 -0.0917414 3.46579 0
M  V30 4629 C 420.486 0.909758 4.1955 0
M  V30 4630 C 419.719 0.274924 5.32991 0
M  V30 4631 O 419.942 -0.928254 5.62796 0
M  V30 4632 O 418.876 0.985877 5.93771 0
M  V30 4633 H 422.702 1.45744 2.66444 0
M  V30 4634 H 420.287 0.773923 1.27792 0
M  V30 4635 H 422.169 -0.464551 4.18832 0
M  V30 4636 H 420.844 -0.948755 3.09484 0
M  V30 4637 H 419.751 1.33372 3.49518 0
M  V30 4638 H 421.084 1.73636 4.60555 0
M  V30 4639 N 422.737 -1.36956 0.779787 0
M  V30 4640 C 423.962 -2.04283 0.358224 0
M  V30 4641 C 424.387 -1.58422 -1.01411 0
M  V30 4642 O 423.745 -0.748179 -1.65142 0
M  V30 4643 C 423.793 -3.58152 0.419479 0
M  V30 4644 O 422.897 -4.08342 -0.577142 0
M  V30 4645 H 422.238 -0.645967 0.153698 0
M  V30 4646 H 424.768 -1.75108 1.05822 0
M  V30 4647 H 424.778 -4.07041 0.279636 0
M  V30 4648 H 423.453 -3.90886 1.42061 0
M  V30 4649 H 422.03 -3.70751 -0.399755 0
M  V30 4650 N 424.215 -0.530993 -1.48385 0
M  V30 4651 C 425.462 0.0027373 -2.025 0
M  V30 4652 C 425.79 1.34186 -1.40799 0
M  V30 4653 O 425.045 1.88 -0.543544 0
M  V30 4654 C 425.344 0.172742 -3.56982 0
M  V30 4655 C 425.01 -1.09215 -4.37473 0
M  V30 4656 C 423.672 -1.43881 -4.59186 0
M  V30 4657 C 426.024 -1.93153 -4.84088 0
M  V30 4658 C 423.352 -2.62381 -5.2476 0
M  V30 4659 C 425.704 -3.10833 -5.50968 0
M  V30 4660 C 424.368 -3.45843 -5.70919 0
M  V30 4661 H 423.638 0.00100165 -0.740999 0
M  V30 4662 H 426.285 -0.697219 -1.78357 0
M  V30 4663 H 424.59 0.955473 -3.79971 0
M  V30 4664 H 426.287 0.600642 -3.96476 0
M  V30 4665 H 422.877 -0.812177 -4.20834 0
M  V30 4666 H 427.061 -1.67683 -4.67115 0
M  V30 4667 H 422.317 -2.89707 -5.38405 0
M  V30 4668 H 426.491 -3.7618 -5.86056 0
M  V30 4669 H 424.118 -4.37764 -6.21503 0
M  V30 4670 N 425.693 1.55336 -0.266172 0
M  V30 4671 C 426.921 2.03801 0.356756 0
M  V30 4672 C 427.336 1.14485 1.50129 0
M  V30 4673 O 426.693 0.163121 1.8177 0
M  V30 4674 C 426.744 3.51455 0.846281 0
M  V30 4675 O 426.465 4.37371 -0.252663 0
M  V30 4676 C 427.966 4.15767 1.53794 0
M  V30 4677 H 425.186 0.665906 0.0825218 0
M  V30 4678 H 427.73 2.00636 -0.39566 0
M  V30 4679 H 425.885 3.55092 1.54881 0
M  V30 4680 H 426.299 5.24358 0.122173 0
M  V30 4681 H 427.773 5.20714 1.83198 0
M  V30 4682 H 428.25 3.63404 2.46646 0
M  V30 4683 H 428.856 4.16107 0.879488 0
M  V30 4684 N 427.171 -0.0066808 1.57599 0
M  V30 4685 C 428.401 -0.703066 1.94269 0
M  V30 4686 C 428.809 -1.68206 0.866222 0
M  V30 4687 O 428.152 -1.82966 -0.164087 0
M  V30 4688 C 428.214 -1.49616 3.26887 0
M  V30 4689 C 427.878 -0.679494 4.5192 0
M  V30 4690 C 428.875 0.0299508 5.19891 0
M  V30 4691 C 426.56 -0.627433 4.98366 0
M  V30 4692 C 428.554 0.780514 6.32603 0
M  V30 4693 C 426.241 0.126861 6.10968 0
M  V30 4694 C 427.239 0.829574 6.77943 0
M  V30 4695 O 426.927 1.57157 7.88389 0
M  V30 4696 H 426.659 -0.201217 0.645359 0
M  V30 4697 H 429.213 0.0385326 2.05364 0
M  V30 4698 H 427.443 -2.28209 3.12182 0
M  V30 4699 H 429.132 -2.07726 3.48719 0
M  V30 4700 H 429.898 -0.00115963 4.85 0
M  V30 4701 H 425.777 -1.16392 4.46065 0
M  V30 4702 H 429.321 1.32954 6.84813 0
M  V30 4703 H 425.218 0.159815 6.45302 0
M  V30 4704 H 425.986 1.48758 8.04868 0
M  V30 4705 N 428.649 -1.55105 -0.279332 0
M  V30 4706 C 429.898 -1.74618 -1.00952 0
M  V30 4707 C 430.211 -0.551096 -1.87676 0
M  V30 4708 O 431.417 -0.628507 -2.64125 0
M  V30 4709 C 429.873 -3.09025 -1.84476 0
M  V30 4710 C 429.481 -4.36081 -1.0265 0
M  V30 4711 C 431.225 -3.37891 -2.56963 0
M  V30 4712 C 429.132 -5.6153 -1.85576 0
M  V30 4713 H 428.062 -0.650868 -0.38064 0
M  V30 4714 H 430.713 -1.81569 -0.265475 0
M  V30 4715 H 429.095 -2.96095 -2.62952 0
M  V30 4716 H 430.269 -4.59909 -0.286354 0
M  V30 4717 H 428.584 -4.14312 -0.416464 0
M  V30 4718 H 431.181 -4.28822 -3.19399 0
M  V30 4719 H 431.524 -2.57737 -3.26921 0
M  V30 4720 H 432.057 -3.5189 -1.85522 0
M  V30 4721 H 428.796 -6.44413 -1.2005 0
M  V30 4722 H 428.316 -5.41854 -2.57204 0
M  V30 4723 H 429.995 -5.99594 -2.43096 0
M  V30 4724 N 430.127 0.543554 -1.4793 0
M  V30 4725 C 431.376 1.29649 -1.54512 0
M  V30 4726 C 431.689 1.94382 -0.217973 0
M  V30 4727 O 432.895 2.71017 -0.161908 0
M  V30 4728 C 431.351 2.35175 -2.72435 0
M  V30 4729 C 430.959 1.76572 -4.11736 0
M  V30 4730 C 432.703 3.11564 -2.8832 0
M  V30 4731 C 430.61 2.79958 -5.20939 0
M  V30 4732 H 429.54 0.487541 -0.57517 0
M  V30 4733 H 432.191 0.575708 -1.74235 0
M  V30 4734 H 430.573 3.10229 -2.46118 0
M  V30 4735 H 431.747 1.07799 -4.48013 0
M  V30 4736 H 430.062 1.12722 -4.00852 0
M  V30 4737 H 432.659 3.88794 -3.67074 0
M  V30 4738 H 433.002 3.66594 -1.97268 0
M  V30 4739 H 433.535 2.43623 -3.14472 0
M  V30 4740 H 430.274 2.29766 -6.13912 0
M  V30 4741 H 429.794 3.47101 -4.89164 0
M  V30 4742 H 431.473 3.43198 -5.48474 0
M  V30 4743 N 431.605 1.3629 0.791371 0
M  V30 4744 C 432.552 1.30458 1.90393 0
M  V30 4745 C 433.522 0.173632 1.6519 0
M  V30 4746 O 434.707 0.35983 1.87376 0
M  V30 4747 C 431.847 1.09777 3.27174 0
M  V30 4748 C 430.96 2.31929 3.64462 0
M  V30 4749 C 430.095 2.04276 4.90352 0
M  V30 4750 C 429.134 3.224 5.20312 0
M  V30 4751 N 428.271 2.94424 6.37385 0
M  V30 4752 H 433.111 2.25589 1.94714 0
M  V30 4753 H 430.648 1.12122 0.952216 0
M  V30 4754 H 432.606 0.958133 4.06049 0
M  V30 4755 H 431.236 0.183014 3.22281 0
M  V30 4756 H 430.288 2.56703 2.80727 0
M  V30 4757 H 431.6 3.20085 3.82553 0
M  V30 4758 H 430.754 1.87231 5.77087 0
M  V30 4759 H 429.493 1.13428 4.74326 0
M  V30 4760 H 428.498 3.40005 4.32061 0
M  V30 4761 H 429.723 4.14071 5.38258 0
M  V30 4762 H 427.669 2.06185 6.22755 0
M  V30 4763 H 427.586 3.76118 6.55798 0
M  V30 4764 H 428.854 2.80953 7.27108 0
M  V30 4765 N 433.083 -1.0153 1.20538 0
M  V30 4766 C 434.36 -1.72327 0.925343 0
M  V30 4767 C 434.74 -2.03383 -0.565547 0
M  V30 4768 O 434.088 -1.69934 -1.52757 0
M  V30 4769 C 434.298 -2.9902 1.79967 0
M  V30 4770 C 435.646 -3.72258 2.04228 0
M  V30 4771 O 436.67 -3.08979 1.77231 0
M  V30 4772 O 435.529 -4.86053 2.4983 0
M  V30 4773 H 432.623 -0.751099 0.346092 0
M  V30 4774 H 435.169 -1.07366 1.31417 0
M  V30 4775 H 433.941 -2.72402 2.80915 0
M  V30 4776 H 433.564 -3.71721 1.41099 0
M  V30 4777 N 434.561 -1.01147 -1.20859 0
M  V30 4778 C 435.494 -0.522108 -2.22147 0
M  V30 4779 C 436.472 0.427686 -1.56874 0
M  V30 4780 O 437.656 0.34889 -1.85243 0
M  V30 4781 C 434.783 0.240819 -3.37843 0
M  V30 4782 C 433.829 -0.657752 -4.21398 0
M  V30 4783 S 434.662 -2.12393 -4.91578 0
M  V30 4784 C 435.818 -1.37102 -6.10699 0
M  V30 4785 H 436.051 -1.38035 -2.63313 0
M  V30 4786 H 433.584 -0.819941 -1.30829 0
M  V30 4787 H 435.542 0.674908 -4.04914 0
M  V30 4788 H 434.203 1.07457 -2.95147 0
M  V30 4789 H 433.396 -0.0697456 -5.03952 0
M  V30 4790 H 432.998 -1.0294 -3.59555 0
M  V30 4791 H 435.29 -0.648315 -6.74391 0
M  V30 4792 H 436.233 -2.17252 -6.73949 0
M  V30 4793 H 436.641 -0.876154 -5.57659 0
M  V30 4794 N 436.039 1.36541 -0.78704 0
M  V30 4795 C 437.285 1.99599 -0.358872 0
M  V30 4796 C 437.618 1.62323 1.06606 0
M  V30 4797 O 436.893 0.876858 1.73613 0
M  V30 4798 C 437.176 3.56327 -0.519944 0
M  V30 4799 C 437.029 4.03464 -1.98839 0
M  V30 4800 C 438.348 4.4005 0.0664737 0
M  V30 4801 H 435.467 0.725107 -0.131869 0
M  V30 4802 H 438.109 1.6199 -0.992936 0
M  V30 4803 H 436.259 3.88495 0.0198321 0
M  V30 4804 H 437.931 3.81793 -2.58905 0
M  V30 4805 H 436.174 3.55092 -2.49183 0
M  V30 4806 H 436.845 5.12439 -2.05207 0
M  V30 4807 H 439.321 4.14228 -0.394267 0
M  V30 4808 H 438.197 5.48847 -0.0762682 0
M  V30 4809 H 438.458 4.26655 1.15835 0
M  V30 4810 N 437.518 0.538854 1.48102 0
M  V30 4811 C 438.481 -0.208395 2.28251 0
M  V30 4812 C 439.481 -0.859656 1.35892 0
M  V30 4813 O 440.671 -0.71834 1.58699 0
M  V30 4814 C 437.803 -1.30252 3.15035 0
M  V30 4815 H 438.996 0.495407 2.9578 0
M  V30 4816 H 436.549 0.295112 1.53489 0
M  V30 4817 H 437.284 -2.0393 2.52157 0
M  V30 4818 H 437.069 -0.840551 3.82985 0
M  V30 4819 H 438.559 -1.82787 3.75471 0
M  V30 4820 N 438.996 -1.55193 0.274407 0
M  V30 4821 C 439.943 -2.225 -0.613374 0
M  V30 4822 C 440.913 -1.19823 -1.15029 0
M  V30 4823 O 442.098 -1.48362 -1.19973 0
M  V30 4824 C 439.238 -2.94927 -1.79199 0
M  V30 4825 C 438.351 -4.12322 -1.28899 0
M  V30 4826 C 437.486 -4.72394 -2.42934 0
M  V30 4827 C 436.525 -5.81984 -1.89634 0
M  V30 4828 N 435.662 -6.36123 -2.9714 0
M  V30 4829 H 440.502 -2.97982 -0.032756 0
M  V30 4830 H 438.039 -1.47099 -0.00440146 0
M  V30 4831 H 439.997 -3.35134 -2.48478 0
M  V30 4832 H 438.627 -2.2187 -2.34465 0
M  V30 4833 H 437.679 -3.7724 -0.489327 0
M  V30 4834 H 438.991 -4.91355 -0.858587 0
M  V30 4835 H 438.145 -5.15317 -3.20208 0
M  V30 4836 H 436.884 -3.92636 -2.8929 0
M  V30 4837 H 435.889 -5.38511 -1.1084 0
M  V30 4838 H 437.114 -6.6361 -1.44215 0
M  V30 4839 H 435.06 -5.59259 -3.42878 0
M  V30 4840 H 434.977 -7.10427 -2.58515 0
M  V30 4841 H 436.245 -6.83704 -3.74391 0
M  V30 4842 N 440.474 -0.00167713 -1.576 0
M  V30 4843 C 441.421 0.989195 -2.08527 0
M  V30 4844 C 442.391 1.34031 -0.981065 0
M  V30 4845 O 443.576 1.43839 -1.2536 0
M  V30 4846 C 440.716 2.27537 -2.59463 0
M  V30 4847 C 439.829 1.98314 -3.83791 0
M  V30 4848 C 438.964 3.21025 -4.23222 0
M  V30 4849 C 438.003 2.87495 -5.40382 0
M  V30 4850 N 437.14 4.02749 -5.75098 0
M  V30 4851 H 441.98 0.547973 -2.92919 0
M  V30 4852 H 439.517 0.258917 -1.44803 0
M  V30 4853 H 441.475 3.02729 -2.87073 0
M  V30 4854 H 440.105 2.69325 -1.77943 0
M  V30 4855 H 439.157 1.13482 -3.63078 0
M  V30 4856 H 440.469 1.69601 -4.69081 0
M  V30 4857 H 439.623 4.04561 -4.52123 0
M  V30 4858 H 438.362 3.52877 -3.36644 0
M  V30 4859 H 437.367 2.02367 -5.11202 0
M  V30 4860 H 438.592 2.56889 -6.28637 0
M  V30 4861 H 436.538 4.34494 -4.91478 0
M  V30 4862 H 436.455 3.77566 -6.54966 0
M  V30 4863 H 437.723 4.87068 -6.08592 0
M  V30 4864 N 441.952 1.55251 0.271103 0
M  V30 4865 C 443.368 1.47133 0.618393 0
M  V30 4866 C 443.568 0.686994 1.89427 0
M  V30 4867 O 442.624 0.206609 2.51653 0
M  V30 4868 C 443.937 2.91361 0.743593 0
M  V30 4869 C 445.485 3.01587 0.837522 0
M  V30 4870 C 445.96 4.47073 0.994483 0
M  V30 4871 N 447.451 4.50909 1.05996 0
M  V30 4872 C 448.186 5.60698 1.20024 0
M  V30 4873 N 447.682 6.80348 1.30759 0
M  V30 4874 N 449.475 5.48444 1.23149 0
M  V30 4875 H 441.626 2.04698 -0.566784 0
M  V30 4876 H 443.889 0.928319 -0.192165 0
M  V30 4877 H 443.595 3.51483 -0.123493 0
M  V30 4878 H 443.469 3.40484 1.62328 0
M  V30 4879 H 445.856 2.4156 1.69507 0
M  V30 4880 H 445.937 2.55713 -0.0668086 0
M  V30 4881 H 445.581 5.07703 0.141582 0
M  V30 4882 H 445.511 4.90605 1.91349 0
M  V30 4883 H 448.002 3.6472 0.989316 0
M  V30 4884 H 448.315 7.59772 1.41303 0
M  V30 4885 H 446.66 6.83156 1.27761 0
M  V30 4886 H 449.851 4.53907 1.14394 0
M  V30 4887 H 450.024 6.34049 1.33738 0
M  V30 4888 N 443.43 -0.535701 1.48216 0
M  V30 4889 C 444.377 -1.64083 1.62312 0
M  V30 4890 C 445.347 -1.59448 0.465365 0
M  V30 4891 O 446.532 -1.77959 0.688135 0
M  V30 4892 C 443.672 -3.0236 1.66349 0
M  V30 4893 C 442.785 -3.17273 2.93193 0
M  V30 4894 C 441.92 -4.46075 2.88427 0
M  V30 4895 C 440.959 -4.54496 4.1 0
M  V30 4896 N 440.096 -5.7468 4.03345 0
M  V30 4897 H 444.936 -1.51374 2.5669 0
M  V30 4898 H 442.473 -0.737059 1.27302 0
M  V30 4899 H 444.431 -3.82461 1.66672 0
M  V30 4900 H 443.061 -3.13854 0.754672 0
M  V30 4901 H 442.113 -2.30462 3.02641 0
M  V30 4902 H 443.425 -3.19357 3.83162 0
M  V30 4903 H 442.579 -5.3446 2.87119 0
M  V30 4904 H 441.318 -4.46504 1.96177 0
M  V30 4905 H 440.323 -3.64519 4.11589 0
M  V30 4906 H 441.548 -4.5581 5.03402 0
M  V30 4907 H 439.494 -5.76017 3.13912 0
M  V30 4908 H 439.411 -5.78234 4.87013 0
M  V30 4909 H 440.679 -6.65367 4.06087 0
M  V30 4910 N 444.908 -1.36708 -0.784132 0
M  V30 4911 C 445.841 -1.25827 -1.90375 0
M  V30 4912 C 446.819 -0.141331 -1.61985 0
M  V30 4913 O 448.003 -0.313389 -1.85877 0
M  V30 4914 C 445.13 -0.942621 -3.25319 0
M  V30 4915 C 444.176 -2.07474 -3.72635 0
M  V30 4916 S 445.009 -3.69317 -3.8777 0
M  V30 4917 C 446.165 -3.39876 -5.25581 0
M  V30 4918 H 446.398 -2.20593 -1.99314 0
M  V30 4919 H 443.931 -1.22186 -0.943926 0
M  V30 4920 H 445.889 -0.767321 -4.03265 0
M  V30 4921 H 444.55 -0.0126566 -3.14097 0
M  V30 4922 H 443.743 -1.80858 -4.70432 0
M  V30 4923 H 443.345 -2.20953 -3.01754 0
M  V30 4924 H 445.637 -2.94097 -6.10339 0
M  V30 4925 H 446.58 -4.36956 -5.57203 0
M  V30 4926 H 446.988 -2.75098 -4.92931 0
M  V30 4927 N 446.386 1.0089 -1.21074 0
M  V30 4928 C 447.616 1.77933 -1.04993 0
M  V30 4929 C 448.024 1.84847 0.403495 0
M  V30 4930 O 447.367 1.30606 1.29181 0
M  V30 4931 C 447.429 3.23541 -1.56722 0
M  V30 4932 C 447.093 3.40214 -3.05129 0
M  V30 4933 C 448.09 3.2881 -4.02716 0
M  V30 4934 C 445.775 3.65781 -3.44252 0
M  V30 4935 C 447.769 3.42732 -5.37414 0
M  V30 4936 C 445.456 3.79346 -4.79103 0
M  V30 4937 C 446.454 3.67827 -5.75493 0
M  V30 4938 O 446.142 3.80965 -7.07899 0
M  V30 4939 H 445.874 0.566157 -0.369381 0
M  V30 4940 H 448.428 1.27826 -1.60779 0
M  V30 4941 H 446.658 3.74766 -0.953285 0
M  V30 4942 H 448.347 3.82245 -1.36543 0
M  V30 4943 H 449.113 3.08986 -3.73835 0
M  V30 4944 H 444.992 3.73831 -2.69762 0
M  V30 4945 H 448.536 3.33658 -6.12632 0
M  V30 4946 H 444.433 3.98672 -5.07672 0
M  V30 4947 H 445.201 3.97937 -7.15254 0
M  V30 4948 N 447.864 1.01787 1.20321 0
M  V30 4949 C 448.774 0.598898 2.26827 0
M  V30 4950 C 449.79 -0.36418 1.70146 0
M  V30 4951 O 450.966 -0.224812 2.00141 0
M  V30 4952 C 448.031 -0.0549769 3.46656 0
M  V30 4953 C 447.092 0.954205 4.18561 0
M  V30 4954 C 446.325 0.331439 5.3267 0
M  V30 4955 O 446.548 -0.86851 5.63749 0
M  V30 4956 O 445.482 1.0488 5.92692 0
M  V30 4957 H 449.308 1.48562 2.64883 0
M  V30 4958 H 446.893 0.787434 1.26964 0
M  V30 4959 H 448.775 -0.420102 4.19301 0
M  V30 4960 H 447.45 -0.915876 3.10473 0
M  V30 4961 H 446.357 1.37072 3.48083 0
M  V30 4962 H 447.69 1.78511 4.58688 0
M  V30 4963 N 449.342 -1.36122 0.79427 0
M  V30 4964 C 450.619 -1.93398 0.292685 0
M  V30 4965 C 450.999 -1.72567 -1.21589 0
M  V30 4966 O 450.347 -1.08745 -2.00965 0
M  V30 4967 C 450.557 -3.42099 0.690614 0
M  V30 4968 C 451.905 -4.19231 0.673105 0
M  V30 4969 O 452.929 -3.50559 0.631389 0
M  V30 4970 O 451.788 -5.41732 0.720362 0
M  V30 4971 H 448.882 -0.823712 0.0736693 0
M  V30 4972 H 451.428 -1.45273 0.87714 0
M  V30 4973 H 450.2 -3.50938 1.73085 0
M  V30 4974 H 449.823 -3.97519 0.0803036 0
M  V30 4975 N 450.82 -0.546701 -1.47814 0
M  V30 4976 C 452.069 -0.0166497 -2.01693 0
M  V30 4977 C 452.382 1.33721 -1.42752 0
M  V30 4978 O 453.588 1.95658 -1.8823 0
M  V30 4979 C 452.044 0.0206769 -3.59894 0
M  V30 4980 C 451.652 -1.3293 -4.27824 0
M  V30 4981 C 453.396 0.498674 -4.21561 0
M  V30 4982 C 451.303 -1.25165 -5.78003 0
M  V30 4983 H 450.233 -0.0024541 -0.753996 0
M  V30 4984 H 452.884 -0.692984 -1.69912 0
M  V30 4985 H 451.266 0.76244 -3.88591 0
M  V30 4986 H 452.44 -2.08795 -4.10781 0
M  V30 4987 H 450.755 -1.74438 -3.78101 0
M  V30 4988 H 453.352 0.575 -5.31599 0
M  V30 4989 H 453.695 1.5083 -3.88016 0
M  V30 4990 H 454.228 -0.18791 -3.97356 0
M  V30 4991 H 450.967 -2.23695 -6.1615 0
M  V30 4992 H 450.487 -0.53464 -5.97412 0
M  V30 4993 H 452.166 -0.949299 -6.39998 0
M  V30 4994 N 452.299 1.55045 -0.282633 0
M  V30 4995 C 453.229 2.2579 0.595066 0
M  V30 4996 C 454.21 1.25074 1.15284 0
M  V30 4997 O 455.395 1.5381 1.18559 0
M  V30 4998 C 452.525 2.98472 1.77572 0
M  V30 4999 C 451.479 4.0618 1.34914 0
M  V30 5000 C 450.805 4.66477 2.6135 0
M  V30 5001 C 452.105 5.1996 0.493821 0
M  V30 5002 H 453.799 2.994 0.00505653 0
M  V30 5003 H 451.345 1.44 0.000992001 0
M  V30 5004 H 453.298 3.46677 2.39568 0
M  V30 5005 H 452.022 2.2241 2.39168 0
M  V30 5006 H 450.681 3.58797 0.752338 0
M  V30 5007 H 450.329 3.87074 3.2122 0
M  V30 5008 H 450.029 5.39207 2.33516 0
M  V30 5009 H 451.553 5.17435 3.24181 0
M  V30 5010 H 452.967 5.64172 1.01898 0
M  V30 5011 H 451.364 5.99299 0.310047 0
M  V30 5012 H 452.434 4.82462 -0.485593 0
M  V30 5013 N 453.777 0.010035 1.57597 0
M  V30 5014 C 455.002 -0.687021 1.95691 0
M  V30 5015 C 455.427 -1.65952 0.885519 0
M  V30 5016 O 454.785 -1.80633 -0.15543 0
M  V30 5017 C 454.833 -1.3864 3.32884 0
M  V30 5018 O 453.937 -2.50115 3.27897 0
M  V30 5019 H 453.278 -0.181989 0.638573 0
M  V30 5020 H 455.808 0.0662122 2.04493 0
M  V30 5021 H 455.818 -1.74754 3.6868 0
M  V30 5022 H 454.493 -0.673411 4.10412 0
M  V30 5023 H 453.07 -2.16253 3.03791 0
M  V30 5024 N 455.255 -1.55392 -0.262866 0
M  V30 5025 C 456.205 -1.85355 -1.32768 0
M  V30 5026 C 457.189 -0.713188 -1.44231 0
M  V30 5027 O 458.381 -0.974765 -1.47741 0
M  V30 5028 C 455.51 -2.13781 -2.68612 0
M  V30 5029 C 454.596 -3.34104 -2.61219 0
M  V30 5030 N 454.987 -4.53766 -2.2345 0
M  V30 5031 C 453.285 -3.36895 -2.92263 0
M  V30 5032 C 453.986 -5.35877 -2.26298 0
M  V30 5033 N 452.962 -4.74536 -2.65172 0
M  V30 5034 H 456.764 -2.75413 -1.02591 0
M  V30 5035 H 454.278 -1.55405 -0.471503 0
M  V30 5036 H 456.275 -2.33407 -3.45437 0
M  V30 5037 H 454.935 -1.25013 -2.99669 0
M  V30 5038 H 455.946 -4.79682 -1.95258 0
M  V30 5039 H 452.623 -2.58351 -3.27965 0
M  V30 5040 H 454.013 -6.41577 -1.99572 0
M  V30 5041 N 456.733 0.527833 -1.48498 0
M  V30 5042 C 457.979 1.28545 -1.56857 0
M  V30 5043 C 458.312 1.92678 -0.242651 0
M  V30 5044 O 457.587 1.79394 0.751545 0
M  V30 5045 C 457.87 2.37314 -2.70839 0
M  V30 5046 C 457.723 1.77858 -4.13142 0
M  V30 5047 C 459.042 3.39068 -2.80573 0
M  V30 5048 H 456.161 0.466006 -0.570971 0
M  V30 5049 H 458.803 0.587784 -1.8068 0
M  V30 5050 H 456.953 2.96821 -2.50658 0
M  V30 5051 H 458.625 1.22385 -4.44769 0
M  V30 5052 H 456.868 1.08383 -4.20042 0
M  V30 5053 H 457.539 2.56624 -4.88721 0
M  V30 5054 H 460.015 2.89518 -2.98862 0
M  V30 5055 H 458.891 4.12566 -3.6205 0
M  V30 5056 H 459.152 3.9975 -1.88818 0
M  V30 5057 N 458.211 1.37122 0.776871 0
M  V30 5058 C 459.159 1.32549 1.91138 0
M  V30 5059 C 460.153 0.215119 1.68029 0
M  V30 5060 O 461.359 0.382852 1.75881 0
M  V30 5061 H 457.734 0.412952 0.62847 0
M  V30 5062 H 459.705 2.28332 1.92112 0
M  V30 5063 C 458.454 1.14422 3.28333 0
M  V30 5064 H 457.777 1.99115 3.46689 0
M  V30 5065 H 459.217 1.15272 4.0803 0
M  V30 5066 C 457.676 -0.150434 3.36564 0
M  V30 5067 O 458.206 -1.13584 3.85307 0
M  V30 5068 N 456.412 -0.19939 2.89915 0
M  V30 5069 H 455.959 0.603142 2.5044 0
M  V30 5070 H 455.917 -1.06526 2.95803 0
M  V30 5071 N 459.689 -1.00246 1.21608 0
M  V30 5072 C 460.938 -1.73476 1.02902 0
M  V30 5073 C 461.251 -1.90643 -0.437561 0
M  V30 5074 O 462.457 -2.61105 -0.74407 0
M  V30 5075 C 460.913 -3.12079 1.79261 0
M  V30 5076 C 460.521 -3.02877 3.30106 0
M  V30 5077 C 462.265 -3.89421 1.68972 0
M  V30 5078 C 460.172 -4.36575 3.98944 0
M  V30 5079 H 459.102 -0.650408 0.381425 0
M  V30 5080 H 461.753 -1.11985 1.45367 0
M  V30 5081 H 460.135 -3.74196 1.2959 0
M  V30 5082 H 461.309 -2.49983 3.87098 0
M  V30 5083 H 459.624 -2.39022 3.40965 0
M  V30 5084 H 462.221 -4.88362 2.17731 0
M  V30 5085 H 462.564 -4.1122 0.648397 0
M  V30 5086 H 463.097 -3.33963 2.16133 0
M  V30 5087 H 459.836 -4.19978 5.03288 0
M  V30 5088 H 459.356 -4.8942 3.4674 0
M  V30 5089 H 461.035 -5.05364 4.04 0
M  V30 5090 N 461.167 -1.02423 -1.1978 0
M  V30 5091 C 462.097 -0.62157 -2.25075 0
M  V30 5092 C 463.078 0.367148 -1.6609 0
M  V30 5093 O 464.263 0.250892 -1.92573 0
M  V30 5094 C 461.393 0.0331826 -3.47284 0
M  V30 5095 C 460.347 -0.877323 -4.18912 0
M  V30 5096 C 459.673 -0.0879296 -5.34628 0
M  V30 5097 C 460.973 -2.18892 -4.74219 0
M  V30 5098 H 462.667 -1.50179 -2.59011 0
M  V30 5099 H 460.213 -0.723547 -1.24502 0
M  V30 5100 H 462.166 0.326488 -4.20133 0
M  V30 5101 H 460.89 0.948164 -3.12534 0
M  V30 5102 H 459.549 -1.15475 -3.47938 0
M  V30 5103 H 459.197 0.828941 -4.96123 0
M  V30 5104 H 458.897 -0.694359 -5.83483 0
M  V30 5105 H 460.421 0.198743 -6.10276 0
M  V30 5106 H 461.835 -1.95746 -5.38847 0
M  V30 5107 H 460.232 -2.74686 -5.33542 0
M  V30 5108 H 461.302 -2.84674 -3.92541 0
M  V30 5109 N 462.645 1.35699 -0.801477 0
M  V30 5110 C 463.592 2.29876 -0.206294 0
M  V30 5111 C 464.562 1.52565 0.656752 0
M  V30 5112 O 465.747 1.81024 0.602906 0
M  V30 5113 C 462.887 3.39052 0.643272 0
M  V30 5114 C 462 4.31335 -0.239644 0
M  V30 5115 C 461.135 5.27599 0.61744 0
M  V30 5116 C 460.174 6.11521 -0.26619 0
M  V30 5117 N 459.311 6.99938 0.550571 0
M  V30 5118 H 464.151 2.80187 -1.01484 0
M  V30 5119 H 461.688 1.37902 -0.511997 0
M  V30 5120 H 463.646 4.0101 1.15094 0
M  V30 5121 H 462.276 2.9003 1.41713 0
M  V30 5122 H 461.328 3.70426 -0.865381 0
M  V30 5123 H 462.64 4.90243 -0.919985 0
M  V30 5124 H 461.794 5.94906 1.19045 0
M  V30 5125 H 460.533 4.69176 1.33137 0
M  V30 5126 H 459.538 5.43166 -0.851507 0
M  V30 5127 H 460.763 6.72022 -0.9779 0
M  V30 5128 H 458.709 6.44008 1.24856 0
M  V30 5129 H 458.626 7.55966 -0.071832 0
M  V30 5130 H 459.894 7.71599 1.10702 0
M  V30 5131 N 464.123 0.554532 1.47522 0
M  V30 5132 C 465.4 -0.0360704 1.95567 0
M  V30 5133 C 465.78 -1.48828 1.49711 0
M  V30 5134 O 465.128 -2.16366 0.734717 0
M  V30 5135 C 465.338 0.106631 3.48837 0
M  V30 5136 C 466.686 -0.0400899 4.24581 0
M  V30 5137 O 467.71 0.0340453 3.56184 0
M  V30 5138 O 466.569 -0.199111 5.46137 0
M  V30 5139 H 463.663 -0.0656294 0.824392 0
M  V30 5140 H 466.209 0.620867 1.57935 0
M  V30 5141 H 464.981 1.11727 3.7501 0
M  V30 5142 H 464.604 -0.58804 3.93227 0
M  V30 5143 N 465.601 -1.54893 0.290851 0
M  V30 5144 C 466.534 -2.19289 -0.631489 0
M  V30 5145 C 467.512 -1.15893 -1.14051 0
M  V30 5146 O 468.696 -1.4449 -1.21058 0
M  V30 5147 C 465.823 -2.82866 -1.86291 0
M  V30 5148 C 464.869 -3.997 -1.48801 0
M  V30 5149 S 465.702 -5.32641 -0.552644 0
M  V30 5150 C 466.858 -5.99696 -1.79209 0
M  V30 5151 H 467.091 -2.9718 -0.0843791 0
M  V30 5152 H 464.624 -1.54218 0.075031 0
M  V30 5153 H 466.582 -3.20124 -2.56964 0
M  V30 5154 H 465.243 -2.04839 -2.38117 0
M  V30 5155 H 464.436 -4.42932 -2.40473 0
M  V30 5156 H 464.038 -3.63947 -0.861321 0
M  V30 5157 H 466.33 -6.19886 -2.734 0
M  V30 5158 H 467.273 -6.94071 -1.40251 0
M  V30 5159 H 467.681 -5.29226 -1.96419 0
M  V30 5160 N 467.08 -0.0183926 -1.57589 0
M  V30 5161 C 468.357 0.700621 -1.82622 0
M  V30 5162 C 468.737 1.90951 -0.90005 0
M  V30 5163 O 468.085 2.28452 0.0469145 0
M  V30 5164 C 468.295 1.08899 -3.31575 0
M  V30 5165 C 469.643 1.48514 -3.9778 0
M  V30 5166 O 470.667 1.18227 -3.36007 0
M  V30 5167 O 469.526 2.04903 -5.06633 0
M  V30 5168 H 466.62 0.342743 -0.752633 0
M  V30 5169 H 469.166 -0.0452548 -1.6964 0
M  V30 5170 H 467.938 0.228113 -3.90635 0
M  V30 5171 H 467.561 1.89338 -3.49624 0
M  V30 5172 N 468.558 1.5553 0.254621 0
M  V30 5173 C 469.969 1.67518 0.824286 0
M  V30 5174 C 470.32 0.614429 1.86331 0
M  V30 5175 O 469.445 -0.240736 2.15057 0
M  V30 5176 C 470.04 3.03692 1.50189 0
M  V30 5177 C 468.599 3.17646 2.01935 0
M  V30 5178 C 467.746 2.63373 0.867746 0
M  V30 5179 H 470.697 1.58671 0.0305843 0
M  V30 5180 H 470.718 2.97706 2.36962 0
M  V30 5181 H 470.23 3.80874 0.745431 0
M  V30 5182 H 468.331 2.45273 2.80485 0
M  V30 5183 H 468.444 4.24455 2.22204 0
M  V30 5184 H 466.808 2.20999 1.26616 0
M  V30 5185 H 467.591 3.43074 0.124498 0
M  V30 5186 N 470.036 -0.519951 1.48776 0
M  V30 5187 C 471.266 -1.29783 1.60748 0
M  V30 5188 C 471.674 -1.87253 0.27072 0
M  V30 5189 O 471.017 -1.67628 -0.751438 0
M  V30 5190 C 471.079 -2.47984 2.60277 0
M  V30 5191 C 470.743 -2.11526 4.051 0
M  V30 5192 C 471.74 -1.66608 4.92481 0
M  V30 5193 C 469.425 -2.21742 4.50706 0
M  V30 5194 C 471.419 -1.32384 6.23501 0
M  V30 5195 C 469.106 -1.87129 5.81744 0
M  V30 5196 C 470.104 -1.42523 6.67964 0
M  V30 5197 O 469.792 -1.0837 7.96562 0
M  V30 5198 H 469.524 -0.400562 0.544542 0
M  V30 5199 H 472.078 -0.632879 1.95407 0
M  V30 5200 H 470.308 -3.17493 2.2076 0
M  V30 5201 H 471.997 -3.10036 2.61978 0
M  V30 5202 H 472.763 -1.58178 4.58481 0
M  V30 5203 H 468.642 -2.55415 3.83776 0
M  V30 5204 H 472.186 -0.974949 6.90754 0
M  V30 5205 H 468.083 -1.95204 6.15277 0
M  V30 5206 H 468.851 -1.21681 8.09405 0
M  V30 5207 N 471.514 -1.37532 -0.769588 0
M  V30 5208 C 472.424 -1.35668 -1.91393 0
M  V30 5209 C 473.44 -0.255954 -1.72107 0
M  V30 5210 O 474.616 -0.491704 -1.95305 0
M  V30 5211 C 471.681 -1.16481 -3.26547 0
M  V30 5212 C 470.742 -2.36212 -3.58472 0
M  V30 5213 C 469.975 -2.17932 -4.87177 0
M  V30 5214 O 470.198 -1.1647 -5.58382 0
M  V30 5215 O 469.132 -3.06167 -5.18214 0
M  V30 5216 H 472.958 -2.32055 -1.95918 0
M  V30 5217 H 470.543 -1.18284 -0.912641 0
M  V30 5218 H 472.425 -1.07778 -4.07384 0
M  V30 5219 H 471.1 -0.231687 -3.2287 0
M  V30 5220 H 470.007 -2.50488 -2.77861 0
M  V30 5221 H 471.34 -3.281 -3.66894 0
M  V30 5222 N 472.992 0.995999 -1.22138 0
M  V30 5223 C 474.408 1.25917 -0.980667 0
M  V30 5224 C 474.608 1.98819 0.327604 0
M  V30 5225 O 473.664 2.29587 1.05101 0
M  V30 5226 C 474.977 2.07399 -2.17729 0
M  V30 5227 C 476.525 2.20594 -2.22052 0
M  V30 5228 C 477 3.05462 -3.41258 0
M  V30 5229 N 478.491 3.13049 -3.41401 0
M  V30 5230 C 479.226 3.78997 -4.30289 0
M  V30 5231 N 478.722 4.46899 -5.2939 0
M  V30 5232 N 480.515 3.75728 -4.18073 0
M  V30 5233 H 472.666 0.507158 -2.06256 0
M  V30 5234 H 474.929 0.28658 -0.903646 0
M  V30 5235 H 474.635 1.61191 -3.12586 0
M  V30 5236 H 474.509 3.08154 -2.17534 0
M  V30 5237 H 476.896 2.66017 -1.27745 0
M  V30 5238 H 476.977 1.1928 -2.26287 0
M  V30 5239 H 476.621 2.60739 -4.35864 0
M  V30 5240 H 476.551 4.06911 -3.34262 0
M  V30 5241 H 479.042 2.64721 -2.69688 0
M  V30 5242 H 479.355 4.94952 -5.935 0
M  V30 5243 H 477.7 4.45657 -5.33306 0
M  V30 5244 H 480.891 3.2184 -3.39907 0
M  V30 5245 H 481.064 4.26845 -4.87553 0
M  V30 5246 N 474.47 1.03057 1.19235 0
M  V30 5247 C 475.71 0.736757 1.9066 0
M  V30 5248 C 476.074 -0.721521 1.77927 0
M  V30 5249 O 477.275 -1.12849 2.43964 0
M  V30 5250 C 475.546 1.17755 3.37444 0
M  V30 5251 S 477.105 1.00783 4.27069 0
M  V30 5252 H 473.923 0.268174 0.658486 0
M  V30 5253 H 476.525 1.32076 1.4414 0
M  V30 5254 H 475.229 2.23448 3.44237 0
M  V30 5255 H 474.76 0.586912 3.88997 0
M  V30 5256 H 476.775 -0.0806356 4.96134 0
M  V30 5257 N 475.948 -1.35272 0.808662 0
M  V30 5258 C 476.895 -2.29764 0.218482 0
M  V30 5259 C 477.865 -1.52911 -0.648652 0
M  V30 5260 O 479.05 -1.81341 -0.593297 0
M  V30 5261 C 476.19 -3.39388 -0.625282 0
M  V30 5262 C 475.303 -4.31202 0.262516 0
M  V30 5263 C 474.438 -5.27919 -0.589451 0
M  V30 5264 C 473.477 -6.11371 0.298617 0
M  V30 5265 N 472.614 -7.0022 -0.513443 0
M  V30 5266 H 477.454 -2.79645 1.02968 0
M  V30 5267 H 474.991 -1.37629 0.519303 0
M  V30 5268 H 476.949 -4.01615 -1.12966 0
M  V30 5269 H 475.579 -2.90777 -1.40173 0
M  V30 5270 H 474.631 -3.69962 0.885013 0
M  V30 5271 H 475.943 -4.89748 0.945971 0
M  V30 5272 H 475.097 -5.95529 -1.15888 0
M  V30 5273 H 473.836 -4.69875 -1.30647 0
M  V30 5274 H 472.841 -5.42707 0.880301 0
M  V30 5275 H 474.066 -6.71494 1.01352 0
M  V30 5276 H 472.012 -6.44662 -1.21439 0
M  V30 5277 H 471.929 -7.55917 0.111922 0
M  V30 5278 H 473.197 -7.72175 -1.06608 0
M  V30 5279 N 477.426 -0.562348 -1.47226 0
M  V30 5280 C 478.672 -0.0402761 -2.0276 0
M  V30 5281 C 479.005 1.30823 -1.43523 0
M  V30 5282 O 478.28 1.85249 -0.592705 0
M  V30 5283 C 478.563 0.047311 -3.60069 0
M  V30 5284 C 478.416 -1.32865 -4.29729 0
M  V30 5285 C 479.735 0.758182 -4.3352 0
M  V30 5286 H 476.854 -0.0161105 -0.736824 0
M  V30 5287 H 479.496 -0.725628 -1.75598 0
M  V30 5288 H 477.646 0.630986 -3.83342 0
M  V30 5289 H 479.318 -1.95593 -4.17781 0
M  V30 5290 H 477.561 -1.90195 -3.89882 0
M  V30 5291 H 478.232 -1.22004 -5.38349 0
M  V30 5292 H 480.708 0.262546 -4.15271 0
M  V30 5293 H 479.584 0.78844 -5.43208 0
M  V30 5294 H 479.845 1.81537 -4.03109 0
M  V30 5295 N 478.904 1.54736 -0.299062 0
M  V30 5296 C 479.867 2.22127 0.565012 0
M  V30 5297 C 480.867 1.20669 1.06281 0
M  V30 5298 O 482.057 1.45417 0.959145 0
M  V30 5299 C 479.189 2.90611 1.78208 0
M  V30 5300 H 480.382 2.99891 -0.0237448 0
M  V30 5301 H 477.935 1.5622 -0.0498788 0
M  V30 5302 H 478.67 2.16921 2.41072 0
M  V30 5303 H 478.455 3.64984 1.43281 0
M  V30 5304 H 479.945 3.42026 2.396 0
M  V30 5305 N 480.382 0.0267497 1.57577 0
M  V30 5306 C 481.659 -0.690926 1.82991 0
M  V30 5307 C 482.039 -1.90471 0.910164 0
M  V30 5308 O 481.387 -2.28474 -0.0347985 0
M  V30 5309 C 481.597 -1.07139 3.32148 0
M  V30 5310 C 482.945 -1.46402 3.98562 0
M  V30 5311 O 483.969 -1.16443 3.36629 0
M  V30 5312 O 482.828 -2.02214 5.07712 0
M  V30 5313 H 479.922 -0.338747 0.75444 0
M  V30 5314 H 482.468 0.0542506 1.69613 0
M  V30 5315 H 481.24 -0.207394 3.9075 0
M  V30 5316 H 480.863 -1.87481 3.50623 0
M  V30 5317 N 481.861 -1.55662 -0.24637 0
M  V30 5318 C 483.101 -1.79283 -0.981685 0
M  V30 5319 C 483.465 -0.596356 -1.82504 0
M  V30 5320 O 484.666 -0.711342 -2.59217 0
M  V30 5321 C 482.937 -3.07648 -1.819 0
M  V30 5322 S 484.496 -3.52491 -2.61334 0
M  V30 5323 H 481.314 -0.629676 -0.330196 0
M  V30 5324 H 483.916 -1.93901 -0.249498 0
M  V30 5325 H 482.62 -3.92794 -1.18915 0
M  V30 5326 H 482.151 -2.95768 -2.59393 0
M  V30 5327 H 484.166 -3.13866 -3.84321 0
M  V30 5328 N 483.339 0.512053 -1.4905 0
M  V30 5329 C 484.269 1.62365 -1.67809 0
M  V30 5330 C 485.25 1.61737 -0.526809 0
M  V30 5331 O 486.435 1.78651 -0.761404 0
M  V30 5332 C 483.565 3.00895 -1.73435 0
M  V30 5333 C 482.519 3.16387 -2.88242 0
M  V30 5334 C 481.845 4.56157 -2.78971 0
M  V30 5335 C 483.145 2.97457 -4.29321 0
M  V30 5336 H 484.839 1.46921 -2.60873 0
M  V30 5337 H 482.385 0.705379 -1.2554 0
M  V30 5338 H 484.338 3.78549 -1.85145 0
M  V30 5339 H 483.062 3.17403 -0.769619 0
M  V30 5340 H 481.721 2.41155 -2.76116 0
M  V30 5341 H 481.369 4.69525 -1.8043 0
M  V30 5342 H 481.069 4.67465 -3.5602 0
M  V30 5343 H 482.593 5.35886 -2.92675 0
M  V30 5344 H 484.007 3.64888 -4.42187 0
M  V30 5345 H 482.404 3.20245 -5.07507 0
M  V30 5346 H 483.474 1.93692 -4.44535 0
M  V30 5347 N 484.817 1.37938 0.762283 0
M  V30 5348 C 485.764 1.34467 1.87583 0
M  V30 5349 C 486.734 0.208633 1.64785 0
M  V30 5350 O 487.919 0.399494 1.86571 0
M  V30 5351 C 485.059 1.16692 3.24772 0
M  V30 5352 C 484.172 2.39608 3.59461 0
M  V30 5353 C 483.307 2.14631 4.85908 0
M  V30 5354 C 482.346 3.33364 5.13357 0
M  V30 5355 N 481.483 3.07877 6.30996 0
M  V30 5356 H 486.323 2.29669 1.89885 0
M  V30 5357 H 483.86 1.14116 0.928219 0
M  V30 5358 H 485.818 1.04405 4.03925 0
M  V30 5359 H 484.448 0.251333 3.2182 0
M  V30 5360 H 483.5 2.626 2.75219 0
M  V30 5361 H 484.812 3.28128 3.75678 0
M  V30 5362 H 483.966 1.99429 5.72986 0
M  V30 5363 H 482.705 1.23463 4.71814 0
M  V30 5364 H 481.71 3.49094 4.24751 0
M  V30 5365 H 482.935 4.25395 5.29354 0
M  V30 5366 H 480.881 2.19348 6.18241 0
M  V30 5367 H 480.798 3.89944 6.47673 0
M  V30 5368 H 482.066 2.96313 7.20985 0
M  V30 5369 N 486.295 -0.989507 1.22664 0
M  V30 5370 C 487.52 -1.77031 1.08051 0
M  V30 5371 C 487.945 -1.84535 -0.364483 0
M  V30 5372 O 487.303 -1.3003 -1.2634 0
M  V30 5373 C 487.351 -3.18 1.70024 0
M  V30 5374 O 486.455 -4.01161 0.956216 0
M  V30 5375 H 485.796 -0.545008 0.379292 0
M  V30 5376 H 488.326 -1.24277 1.62531 0
M  V30 5377 H 488.336 -3.68616 1.74888 0
M  V30 5378 H 487.011 -3.11853 2.75174 0
M  V30 5379 H 485.588 -3.59687 0.98384 0
M  V30 5380 N 487.773 -1.03688 -1.18687 0
M  V30 5381 C 488.72 -0.624624 -2.22187 0
M  V30 5382 C 489.69 0.365636 -1.62026 0
M  V30 5383 O 490.875 0.260481 -1.89014 0
M  V30 5384 C 488.015 0.0101738 -3.45099 0
M  V30 5385 C 487.128 -1.02709 -4.19613 0
M  V30 5386 C 486.263 -0.361213 -5.2997 0
M  V30 5387 C 485.302 -1.38384 -5.96252 0
M  V30 5388 N 484.439 -0.743196 -6.98155 0
M  V30 5389 H 489.279 -1.51176 -2.56807 0
M  V30 5390 H 486.816 -0.75636 -1.26165 0
M  V30 5391 H 488.774 0.395528 -4.15321 0
M  V30 5392 H 487.404 0.860848 -3.1111 0
M  V30 5393 H 486.456 -1.53043 -3.48256 0
M  V30 5394 H 487.768 -1.80398 -4.65036 0
M  V30 5395 H 486.922 0.0785537 -6.06649 0
M  V30 5396 H 485.661 0.447799 -4.8564 0
M  V30 5397 H 484.666 -1.83378 -5.18317 0
M  V30 5398 H 485.891 -2.19448 -6.42666 0
M  V30 5399 H 483.837 0.0455789 -6.55984 0
M  V30 5400 H 483.754 -1.45784 -7.41811 0
M  V30 5401 H 485.022 -0.327698 -7.78811 0
M  V30 5402 N 489.251 1.34841 -0.815825 0
M  V30 5403 C 490.476 2.03261 -0.41226 0
M  V30 5404 C 490.901 1.61055 0.971751 0
M  V30 5405 O 490.259 0.7917 1.63101 0
M  V30 5406 C 490.307 3.56914 -0.514289 0
M  V30 5407 O 489.411 4.09728 0.468675 0
M  V30 5408 H 488.752 0.641664 -0.170771 0
M  V30 5409 H 491.282 1.72241 -1.10427 0
M  V30 5410 H 491.292 4.06156 -0.387457 0
M  V30 5411 H 489.967 3.86982 -1.52375 0
M  V30 5412 H 488.544 3.71681 0.301316 0
M  V30 5413 N 490.729 0.570148 1.46925 0
M  V30 5414 C 491.959 0.0561151 2.06524 0
M  V30 5415 C 492.367 -1.24874 1.42137 0
M  V30 5416 O 491.71 -1.76292 0.516417 0
M  V30 5417 C 491.772 -0.197035 3.5896 0
M  V30 5418 C 491.436 1.02033 4.45464 0
M  V30 5419 C 492.433 1.92921 4.82781 0
M  V30 5420 C 490.118 1.23864 4.86788 0
M  V30 5421 C 492.112 3.03999 5.60235 0
M  V30 5422 C 489.799 2.35249 5.64004 0
M  V30 5423 C 490.797 3.25146 6.0064 0
M  V30 5424 O 490.485 4.34598 6.76299 0
M  V30 5425 H 490.217 0.0487409 0.674241 0
M  V30 5426 H 492.771 0.786915 1.89728 0
M  V30 5427 H 491.001 -0.982299 3.74016 0
M  V30 5428 H 492.69 -0.658032 4.00531 0
M  V30 5429 H 493.456 1.77265 4.51444 0
M  V30 5430 H 489.335 0.54805 4.57731 0
M  V30 5431 H 492.879 3.74192 5.8875 0
M  V30 5432 H 488.776 2.50873 5.94755 0
M  V30 5433 H 489.544 4.32808 6.94708 0
M  V30 5434 N 492.207 -1.54576 0.307264 0
M  V30 5435 C 493.155 -2.25208 -0.581723 0
M  V30 5436 C 494.149 -1.26031 -1.13192 0
M  V30 5437 O 495.355 -1.43862 -1.08184 0
M  V30 5438 H 491.73 -0.723173 -0.206214 0
M  V30 5439 H 493.701 -2.98378 0.0364663 0
M  V30 5440 C 492.45 -3.01086 -1.73904 0
M  V30 5441 H 491.773 -3.77208 -1.32491 0
M  V30 5442 H 493.213 -3.5378 -2.33701 0
M  V30 5443 C 491.672 -2.08422 -2.64692 0
M  V30 5444 O 492.202 -1.65636 -3.65961 0
M  V30 5445 N 490.408 -1.74247 -2.32564 0
M  V30 5446 H 489.955 -2.09238 -1.50257 0
M  V30 5447 H 489.913 -1.12524 -2.93574 0
M  V30 5448 N 493.685 -0.035106 -1.57561 0
M  V30 5449 C 494.962 0.681212 -1.83354 0
M  V30 5450 C 495.342 1.89986 -0.920252 0
M  V30 5451 O 494.69 2.28489 0.0226815 0
M  V30 5452 C 494.9 1.05376 -3.32712 0
M  V30 5453 C 496.248 1.44286 -3.99333 0
M  V30 5454 O 497.272 1.14656 -3.37242 0
M  V30 5455 O 496.131 1.99518 -5.08778 0
M  V30 5456 H 493.225 0.334741 -0.756226 0
M  V30 5457 H 495.771 -0.0632448 -1.69582 0
M  V30 5458 H 494.543 0.186668 -3.90854 0
M  V30 5459 H 494.166 1.85619 -3.51613 0
M  V30 5460 N 495.163 1.55791 0.238111 0
M  V30 5461 C 496.411 1.77681 0.963001 0
M  V30 5462 C 496.732 0.600674 1.85518 0
M  V30 5463 O 496.002 -0.383182 1.92116 0
M  V30 5464 H 494.582 0.655315 0.358568 0
M  V30 5465 H 497.244 1.93239 0.253945 0
M  V30 5466 H 496.34 2.69177 1.57956 0
M  V30 5467 N 496.642 -0.504142 1.49319 0
M  V30 5468 C 497.552 -1.63248 1.68486 0
M  V30 5469 C 498.568 -1.64488 0.567432 0
M  V30 5470 O 499.744 -1.82966 0.841749 0
M  V30 5471 C 496.809 -2.99627 1.74426 0
M  V30 5472 C 495.87 -3.09039 2.97982 0
M  V30 5473 C 495.103 -4.38913 3.0363 0
M  V30 5474 O 495.326 -5.27528 2.16958 0
M  V30 5475 O 494.26 -4.53231 3.96062 0
M  V30 5476 H 498.086 -1.50008 2.64067 0
M  V30 5477 H 495.671 -0.680086 1.33023 0
M  V30 5478 H 497.553 -3.80689 1.80705 0
M  V30 5479 H 496.228 -3.13136 0.820233 0
M  V30 5480 H 495.135 -2.27177 2.97223 0
M  V30 5481 H 496.468 -3.00456 3.89855 0
M  V30 5482 N 498.12 -1.38341 -0.754957 0
M  V30 5483 C 499.369 -1.33791 -1.5094 0
M  V30 5484 C 499.682 0.0699267 -1.95475 0
M  V30 5485 O 500.888 0.237956 -2.70455 0
M  V30 5486 C 499.344 -2.34934 -2.72643 0
M  V30 5487 C 498.952 -3.81332 -2.35138 0
M  V30 5488 C 500.696 -2.39425 -3.50536 0
M  V30 5489 C 498.603 -4.74164 -3.53444 0
M  V30 5490 H 497.533 -0.497314 -0.566741 0
M  V30 5491 H 500.184 -1.63888 -0.825403 0
M  V30 5492 H 498.566 -1.97878 -3.43017 0
M  V30 5493 H 499.74 -4.27319 -1.7244 0
M  V30 5494 H 498.055 -3.79946 -1.70382 0
M  V30 5495 H 500.652 -3.0598 -4.38498 0
M  V30 5496 H 500.995 -1.41278 -3.91594 0
M  V30 5497 H 501.528 -2.75274 -2.87174 0
M  V30 5498 H 498.267 -5.73501 -3.17453 0
M  V30 5499 H 497.787 -4.3287 -4.15191 0
M  V30 5500 H 499.466 -4.92111 -4.20043 0
M  V30 5501 N 499.598 0.982988 -1.23187 0
M  V30 5502 C 500.847 1.71817 -1.05649 0
M  V30 5503 C 501.16 1.91315 0.407176 0
M  V30 5504 O 502.366 2.62256 0.702436 0
M  V30 5505 C 500.822 3.09188 -1.84203 0
M  V30 5506 C 500.43 2.97586 -3.34882 0
M  V30 5507 C 502.174 3.86684 -1.75146 0
M  V30 5508 C 500.081 4.30173 -4.05839 0
M  V30 5509 H 499.011 0.644258 -0.391724 0
M  V30 5510 H 501.662 1.09659 -1.4713 0
M  V30 5511 H 500.044 3.72087 -1.35527 0
M  V30 5512 H 501.218 2.43793 -3.91026 0
M  V30 5513 H 499.533 2.33567 -3.44725 0
M  V30 5514 H 502.13 4.84836 -2.25473 0
M  V30 5515 H 502.473 4.10136 -0.713737 0
M  V30 5516 H 503.006 3.30482 -2.21419 0
M  V30 5517 H 499.745 4.11918 -5.09906 0
M  V30 5518 H 499.265 4.83841 -3.54482 0
M  V30 5519 H 500.944 4.98873 -4.11989 0
M  V30 5520 N 501.076 1.04316 1.18135 0
M  V30 5521 C 502.325 0.74319 1.87509 0
M  V30 5522 C 502.638 -0.732136 1.81381 0
M  V30 5523 O 503.844 -1.14572 2.46141 0
M  V30 5524 C 502.3 1.27913 3.36402 0
M  V30 5525 C 501.908 2.78326 3.51053 0
M  V30 5526 C 503.652 1.0558 4.11161 0
M  V30 5527 C 501.559 3.25266 4.93919 0
M  V30 5528 H 500.489 0.274313 0.702331 0
M  V30 5529 H 503.14 1.25931 1.33467 0
M  V30 5530 H 501.522 0.690853 3.89927 0
M  V30 5531 H 502.696 3.42933 3.07788 0
M  V30 5532 H 501.011 2.991 2.89704 0
M  V30 5533 H 503.608 1.38161 5.16542 0
M  V30 5534 H 503.951 -0.00684729 4.16299 0
M  V30 5535 H 504.484 1.60882 3.63816 0
M  V30 5536 H 501.223 4.30922 4.9395 0
M  V30 5537 H 500.743 2.65396 5.3789 0
M  V30 5538 H 502.422 3.19433 5.62647 0
M  V30 5539 N 502.554 -1.34406 0.822964 0
M  V30 5540 C 503.501 -2.29519 0.24284 0
M  V30 5541 C 504.471 -1.5359 -0.632397 0
M  V30 5542 O 505.656 -1.8196 -0.57403 0
M  V30 5543 C 502.796 -3.40032 -0.58925 0
M  V30 5544 C 501.909 -4.30899 0.308236 0
M  V30 5545 C 501.044 -5.28515 -0.533425 0
M  V30 5546 C 500.083 -6.1102 0.363444 0
M  V30 5547 N 499.22 -7.00725 -0.439147 0
M  V30 5548 H 504.06 -2.78537 1.05929 0
M  V30 5549 H 501.597 -1.3707 0.533872 0
M  V30 5550 H 503.555 -4.0279 -1.087 0
M  V30 5551 H 502.185 -2.92248 -1.37081 0
M  V30 5552 H 501.237 -3.69002 0.924203 0
M  V30 5553 H 502.549 -4.88717 0.997862 0
M  V30 5554 H 501.703 -5.96725 -1.09565 0
M  V30 5555 H 500.442 -4.71235 -1.25656 0
M  V30 5556 H 499.447 -5.41743 0.937812 0
M  V30 5557 H 500.672 -6.70381 1.08469 0
M  V30 5558 H 498.618 -6.45913 -1.14595 0
M  V30 5559 H 498.535 -7.55756 0.19209 0
M  V30 5560 H 499.803 -7.73263 -0.984124 0
M  V30 5561 N 504.032 -0.577932 -1.46621 0
M  V30 5562 C 504.942 0.160651 -2.34049 0
M  V30 5563 C 505.958 0.890911 -1.49462 0
M  V30 5564 O 507.134 0.855166 -1.82343 0
M  V30 5565 C 504.199 1.16447 -3.26559 0
M  V30 5566 C 503.26 0.4394 -4.27045 0
M  V30 5567 C 502.493 1.3954 -5.15135 0
M  V30 5568 O 502.716 2.63162 -5.06065 0
M  V30 5569 O 501.65 0.908585 -5.95003 0
M  V30 5570 H 505.476 -0.557057 -2.98547 0
M  V30 5571 H 503.061 -0.338369 -1.45518 0
M  V30 5572 H 504.943 1.7434 -3.83645 0
M  V30 5573 H 503.618 1.86373 -2.64663 0
M  V30 5574 H 502.525 -0.181247 -3.73661 0
M  V30 5575 H 503.858 -0.218799 -4.91713 0
M  V30 5576 N 505.51 1.54411 -0.315457 0
M  V30 5577 C 506.758 2.00023 0.288971 0
M  V30 5578 C 507.079 1.20529 1.5329 0
M  V30 5579 O 506.349 0.304986 1.93511 0
M  V30 5580 H 504.929 0.738891 0.109766 0
M  V30 5581 H 507.591 1.90094 -0.430129 0
M  V30 5582 H 506.687 3.07198 0.550999 0
M  V30 5583 N 506.988 0.0434614 1.5754 0
M  V30 5584 C 507.898 -0.94893 2.14552 0
M  V30 5585 C 508.914 -1.34707 1.10136 0
M  V30 5586 O 510.09 -1.42557 1.42266 0
M  V30 5587 C 507.155 -2.208 2.67298 0
M  V30 5588 C 506.216 -1.86893 3.86484 0
M  V30 5589 C 505.449 -3.06797 4.36705 0
M  V30 5590 O 505.672 -4.19921 3.86034 0
M  V30 5591 O 504.606 -2.8826 5.28384 0
M  V30 5592 H 508.432 -0.494099 2.99654 0
M  V30 5593 H 506.017 -0.177989 1.48336 0
M  V30 5594 H 507.899 -2.94686 3.01228 0
M  V30 5595 H 506.574 -2.65436 1.85272 0
M  V30 5596 H 505.481 -1.10347 3.57455 0
M  V30 5597 H 506.814 -1.47062 4.69716 0
M  V30 5598 N 508.466 -1.55915 -0.229846 0
M  V30 5599 C 509.376 -1.94891 -1.30593 0
M  V30 5600 C 510.392 -0.851604 -1.51736 0
M  V30 5601 O 511.568 -1.15447 -1.65027 0
M  V30 5602 C 508.633 -2.25052 -2.63728 0
M  V30 5603 C 507.694 -3.48306 -2.5096 0
M  V30 5604 C 506.927 -3.77019 -3.77747 0
M  V30 5605 O 507.15 -3.07534 -4.80395 0
M  V30 5606 O 506.084 -4.70523 -3.75356 0
M  V30 5607 H 509.91 -2.86581 -1.00525 0
M  V30 5608 H 507.495 -1.43017 -0.432025 0
M  V30 5609 H 509.377 -2.45682 -3.42372 0
M  V30 5610 H 508.052 -1.36538 -2.93495 0
M  V30 5611 H 506.959 -3.32964 -1.70546 0
M  V30 5612 H 508.292 -4.37177 -2.26136 0
M  V30 5613 N 509.944 0.496216 -1.49584 0
M  V30 5614 C 511.192 1.24756 -1.58998 0
M  V30 5615 C 511.513 1.92968 -0.280775 0
M  V30 5616 O 510.783 1.82959 0.700198 0
M  V30 5617 H 509.363 0.463471 -0.585836 0
M  V30 5618 H 512.025 0.574678 -1.86235 0
M  V30 5619 H 511.121 2.00895 -2.38847 0
M  V30 5620 N 511.423 1.38739 0.74761 0
M  V30 5621 C 512.7 1.25791 1.49786 0
M  V30 5622 C 513.08 -0.138075 2.10648 0
M  V30 5623 O 512.428 -1.14815 1.9756 0
M  V30 5624 C 512.638 2.37265 2.55942 0
M  V30 5625 C 513.986 2.75978 3.22679 0
M  V30 5626 O 515.01 2.36621 2.6625 0
M  V30 5627 O 513.869 3.43867 4.24756 0
M  V30 5628 H 510.963 0.492251 0.664543 0
M  V30 5629 H 513.509 1.50582 0.782511 0
M  V30 5630 H 512.281 3.30644 2.0926 0
M  V30 5631 H 511.904 2.14071 3.35051 0
M  V30 5632 N 512.901 -0.976442 1.23707 0
M  V30 5633 C 514.129 -1.75341 1.09833 0
M  V30 5634 C 514.544 -1.8553 -0.349885 0
M  V30 5635 O 513.901 -1.33732 -1.24185 0
M  V30 5636 C 513.952 -3.17833 1.72233 0
M  V30 5637 O 513.673 -3.08167 3.11391 0
M  V30 5638 C 515.174 -4.11906 1.63853 0
M  V30 5639 H 512.394 -0.550137 0.384175 0
M  V30 5640 H 514.938 -1.2265 1.63638 0
M  V30 5641 H 513.093 -3.67538 1.22452 0
M  V30 5642 H 513.507 -3.97897 3.41729 0
M  V30 5643 H 514.981 -5.09579 2.12211 0
M  V30 5644 H 515.458 -4.35109 0.598092 0
M  V30 5645 H 516.064 -3.68107 2.13019 0
M  V30 5646 N 514.379 -1.04941 -1.1758 0
M  V30 5647 C 515.626 -0.757989 -1.87779 0
M  V30 5648 C 515.954 0.714827 -1.80888 0
M  V30 5649 O 515.209 1.53824 -1.20982 0
M  V30 5650 C 515.508 -1.18062 -3.37337 0
M  V30 5651 C 515.174 -2.65521 -3.6443 0
M  V30 5652 C 513.836 -3.05804 -3.71534 0
M  V30 5653 C 516.188 -3.60822 -3.76108 0
M  V30 5654 C 513.516 -4.40256 -3.87803 0
M  V30 5655 C 515.868 -4.95005 -3.93895 0
M  V30 5656 C 514.532 -5.34945 -3.99237 0
M  V30 5657 H 513.802 -0.277368 -0.68713 0
M  V30 5658 H 516.449 -1.31603 -1.39115 0
M  V30 5659 H 514.754 -0.541525 -3.8804 0
M  V30 5660 H 516.451 -0.932368 -3.9001 0
M  V30 5661 H 513.041 -2.33324 -3.59524 0
M  V30 5662 H 517.225 -3.30841 -3.69943 0
M  V30 5663 H 512.481 -4.70707 -3.90186 0
M  V30 5664 H 516.655 -5.68746 -4.01872 0
M  V30 5665 H 514.282 -6.39135 -4.11596 0
M  V30 5666 N 515.857 1.33968 -0.830081 0
M  V30 5667 C 517.104 1.98063 -0.421566 0
M  V30 5668 C 517.432 1.65787 1.0171 0
M  V30 5669 O 516.687 0.925348 1.72441 0
M  V30 5670 C 516.986 3.52679 -0.57898 0
M  V30 5671 C 516.652 4.04884 -1.98443 0
M  V30 5672 C 515.314 4.18852 -2.36888 0
M  V30 5673 C 517.666 4.32879 -2.90285 0
M  V30 5674 C 514.994 4.58145 -3.66497 0
M  V30 5675 C 517.346 4.7362 -4.19364 0
M  V30 5676 C 516.01 4.85794 -4.57778 0
M  V30 5677 H 515.28 0.724765 -0.154262 0
M  V30 5678 H 517.927 1.59792 -1.05541 0
M  V30 5679 H 516.232 3.91556 0.138219 0
M  V30 5680 H 517.929 4.00261 -0.243317 0
M  V30 5681 H 514.519 3.9448 -1.67581 0
M  V30 5682 H 518.703 4.21619 -2.61823 0
M  V30 5683 H 513.959 4.65762 -3.96075 0
M  V30 5684 H 518.133 4.9424 -4.90612 0
M  V30 5685 H 515.76 5.15998 -5.58256 0
M  V30 5686 N 517.335 0.585699 1.46312 0
M  V30 5687 C 518.584 0.0701192 2.01578 0
M  V30 5688 C 518.897 -1.29889 1.46247 0
M  V30 5689 O 520.103 -1.90598 1.93351 0
M  V30 5690 C 518.559 0.0747499 3.59822 0
M  V30 5691 C 518.167 1.44226 4.24149 0
M  V30 5692 C 519.911 -0.38673 4.22735 0
M  V30 5693 C 517.818 1.40446 5.74481 0
M  V30 5694 H 516.748 0.0224441 0.753666 0
M  V30 5695 H 519.399 0.737789 1.68015 0
M  V30 5696 H 517.781 -0.659144 3.90476 0
M  V30 5697 H 518.955 2.19612 4.05101 0
M  V30 5698 H 517.27 1.84401 3.73343 0
M  V30 5699 H 519.867 -0.433853 5.32937 0
M  V30 5700 H 520.21 -1.40489 3.91878 0
M  V30 5701 H 520.743 0.293195 3.96718 0
M  V30 5702 H 517.482 2.39952 6.10003 0
M  V30 5703 H 517.002 0.692845 5.95785 0
M  V30 5704 H 518.681 1.11865 6.37256 0
M  V30 5705 N 518.813 -1.54241 0.323641 0
M  V30 5706 C 519.743 -2.27289 -0.534993 0
M  V30 5707 C 520.724 -1.28087 -1.11927 0
M  V30 5708 O 521.909 -1.56899 -1.14439 0
M  V30 5709 C 519.039 -3.03075 -1.69596 0
M  V30 5710 C 517.993 -4.09614 -1.24098 0
M  V30 5711 C 517.319 -4.73242 -2.4889 0
M  V30 5712 C 518.619 -5.21087 -0.355789 0
M  V30 5713 H 520.313 -2.99308 0.0743257 0
M  V30 5714 H 517.859 -1.43952 0.0371874 0
M  V30 5715 H 519.812 -3.52907 -2.30293 0
M  V30 5716 H 518.536 -2.28673 -2.33187 0
M  V30 5717 H 517.195 -3.60666 -0.656945 0
M  V30 5718 H 516.843 -3.95455 -3.10845 0
M  V30 5719 H 516.543 -5.45209 -2.19138 0
M  V30 5720 H 518.067 -5.25848 -3.10348 0
M  V30 5721 H 519.481 -5.66675 -0.869042 0
M  V30 5722 H 517.878 -5.9991 -0.151045 0
M  V30 5723 H 518.948 -4.81005 0.613339 0
M  V30 5724 N 520.291 -0.0518155 -1.57515 0
M  V30 5725 C 521.54 0.621286 -1.91893 0
M  V30 5726 C 521.853 1.71966 -0.932052 0
M  V30 5727 O 523.059 2.45096 -1.16791 0
M  V30 5728 C 521.515 1.15641 -3.40816 0
M  V30 5729 C 521.123 0.0901146 -4.47909 0
M  V30 5730 C 522.867 1.80472 -3.84227 0
M  V30 5731 C 520.774 0.638154 -5.87947 0
M  V30 5732 H 519.704 0.235835 -0.716169 0
M  V30 5733 H 522.355 -0.120809 -1.83102 0
M  V30 5734 H 520.737 1.95084 -3.44613 0
M  V30 5735 H 521.911 -0.683525 -4.55702 0
M  V30 5736 H 520.226 -0.460774 -4.13843 0
M  V30 5737 H 522.823 2.22471 -4.86221 0
M  V30 5738 H 523.166 2.65669 -3.20508 0
M  V30 5739 H 523.699 1.07683 -3.82948 0
M  V30 5740 H 520.438 -0.176202 -6.55263 0
M  V30 5741 H 519.958 1.37976 -5.83714 0
M  V30 5742 H 521.637 1.12085 -6.37217 0
M  V30 5743 N 521.769 1.56035 0.221574 0
M  V30 5744 C 523.046 1.69837 0.970301 0
M  V30 5745 C 523.426 0.599065 2.02421 0
M  V30 5746 O 522.774 -0.393929 2.25079 0
M  V30 5747 C 522.984 3.11148 1.58076 0
M  V30 5748 C 524.332 3.70555 2.07302 0
M  V30 5749 O 525.356 3.14109 1.6797 0
M  V30 5750 O 524.215 4.69562 2.79596 0
M  V30 5751 H 521.309 0.691727 0.453257 0
M  V30 5752 H 523.855 1.68353 0.213358 0
M  V30 5753 H 522.627 3.82617 0.819759 0
M  V30 5754 H 522.25 3.16749 2.40324 0
M  V30 5755 N 523.247 -0.488276 1.49845 0
M  V30 5756 C 524.495 -1.23911 1.59657 0
M  V30 5757 C 524.816 -1.92816 0.291005 0
M  V30 5758 O 524.086 -1.83328 -0.690485 0
M  V30 5759 H 522.666 -0.460357 0.588286 0
M  V30 5760 H 525.328 -0.564794 1.86537 0
M  V30 5761 H 524.424 -1.99625 2.39909 0
M  V30 5762 N 524.725 -1.39134 -0.740242 0
M  V30 5763 C 525.673 -1.3757 -1.87556 0
M  V30 5764 C 526.667 -0.259593 -1.67399 0
M  V30 5765 O 527.873 -0.429349 -1.74804 0
M  V30 5766 H 524.248 -0.42947 -0.6173 0
M  V30 5767 H 526.219 -2.33345 -1.85991 0
M  V30 5768 C 524.968 -1.23087 -3.25184 0
M  V30 5769 H 524.291 -2.08237 -3.41288 0
M  V30 5770 H 525.731 -1.26049 -4.0483 0
M  V30 5771 C 524.19 0.0611471 -3.36845 0
M  V30 5772 O 524.72 1.03328 -3.88183 0
M  V30 5773 N 522.926 0.122454 -2.90342 0
M  V30 5774 H 522.473 -0.669329 -2.48752 0
M  V30 5775 H 522.431 0.986463 -2.98523 0
M  V30 5776 N 526.204 0.969867 -1.24223 0
M  V30 5777 C 527.167 2.04564 -1.03373 0
M  V30 5778 C 528.167 1.60798 0.00819206 0
M  V30 5779 O 529.357 1.72641 -0.232567 0
M  V30 5780 C 526.489 3.36163 -0.566343 0
M  V30 5781 H 527.682 2.24494 -1.98853 0
M  V30 5782 H 525.235 1.1448 -1.06415 0
M  V30 5783 H 525.97 3.21925 0.391751 0
M  V30 5784 H 525.755 3.69273 -1.31834 0
M  V30 5785 H 527.245 4.1526 -0.441435 0
M  V30 5786 N 527.682 1.05563 1.17022 0
M  V30 5787 C 528.928 0.769074 1.87652 0
M  V30 5788 C 529.261 -0.702326 1.81055 0
M  V30 5789 O 528.536 -1.5139 1.22112 0
M  V30 5790 C 528.819 1.25492 3.37526 0
M  V30 5791 C 528.672 2.78953 3.52853 0
M  V30 5792 C 529.991 0.856919 4.31677 0
M  V30 5793 H 527.11 0.280854 0.681388 0
M  V30 5794 H 529.752 1.31027 1.37593 0
M  V30 5795 H 527.902 0.794516 3.80289 0
M  V30 5796 H 529.574 3.33146 3.19079 0
M  V30 5797 H 527.817 3.18046 2.95007 0
M  V30 5798 H 528.488 3.08011 4.58076 0
M  V30 5799 H 530.964 1.25334 3.96775 0
M  V30 5800 H 529.84 1.22443 5.35069 0
M  V30 5801 H 530.101 -0.238787 4.41455 0
M  V30 5802 N 529.16 -1.33526 0.837174 0
M  V30 5803 C 530.123 -2.27551 0.274421 0
M  V30 5804 C 531.123 -1.50886 -0.555881 0
M  V30 5805 O 532.313 -1.70227 -0.369918 0
M  V30 5806 C 529.445 -3.35332 -0.613605 0
M  V30 5807 H 530.638 -2.78837 1.10408 0
M  V30 5808 H 528.191 -1.439 0.610126 0
M  V30 5809 H 528.926 -2.89285 -1.46577 0
M  V30 5810 H 528.711 -3.92095 -0.0195341 0
M  V30 5811 H 530.201 -4.05433 -1.00068 0
M  V30 5812 N 530.638 -0.59345 -1.46 0
M  V30 5813 C 531.863 -0.0872365 -2.07216 0
M  V30 5814 C 532.288 1.2131 -1.43755 0
M  V30 5815 O 531.646 1.73528 -0.525152 0
M  V30 5816 C 531.694 0.0538197 -3.6056 0
M  V30 5817 O 530.798 1.10765 -3.97247 0
M  V30 5818 H 530.139 -0.0676598 -0.660544 0
M  V30 5819 H 532.669 -0.819445 -1.87473 0
M  V30 5820 H 532.679 0.256567 -4.07193 0
M  V30 5821 H 531.354 -0.895739 -4.0614 0
M  V30 5822 H 529.931 0.882501 -3.62307 0
M  V30 5823 N 532.116 1.54067 -0.331816 0
M  V30 5824 C 533.063 2.24623 0.530372 0
M  V30 5825 C 534.033 1.24009 1.10503 0
M  V30 5826 O 535.218 1.52712 1.14384 0
M  V30 5827 C 532.358 3.01374 1.68129 0
M  V30 5828 C 531.471 4.16821 1.13507 0
M  V30 5829 C 530.606 4.81085 2.25234 0
M  V30 5830 C 529.645 5.88621 1.67903 0
M  V30 5831 N 528.782 6.46713 2.73326 0
M  V30 5832 H 533.622 2.97898 -0.0778607 0
M  V30 5833 H 531.159 1.47014 -0.0501965 0
M  V30 5834 H 533.117 3.44125 2.35868 0
M  V30 5835 H 531.747 2.30419 2.26069 0
M  V30 5836 H 530.799 3.78796 0.348979 0
M  V30 5837 H 532.111 4.94203 0.675633 0
M  V30 5838 H 531.265 5.26846 3.00862 0
M  V30 5839 H 530.004 4.03102 2.74518 0
M  V30 5840 H 529.009 5.42254 0.907773 0
M  V30 5841 H 530.234 6.68506 1.19487 0
M  V30 5842 H 528.18 5.71599 3.21886 0
M  V30 5843 H 528.097 7.19532 2.3197 0
M  V30 5844 H 529.365 6.97129 3.48758 0
M  V30 5845 N 533.594 0.0601682 1.57485 0
M  V30 5846 C 534.871 -0.651956 1.84415 0
M  V30 5847 C 535.251 -1.88498 0.950361 0
M  V30 5848 O 534.599 -2.28496 0.0136719 0
M  V30 5849 C 534.809 -1.00069 3.34346 0
M  V30 5850 C 536.157 -1.37915 4.01578 0
M  V30 5851 O 537.181 -1.09277 3.39024 0
M  V30 5852 O 536.04 -1.91399 5.11887 0
M  V30 5853 H 533.134 -0.322668 0.761455 0
M  V30 5854 H 535.68 0.0902159 1.6946 0
M  V30 5855 H 534.452 -0.124463 3.91102 0
M  V30 5856 H 534.075 -1.80001 3.54521 0
M  V30 5857 N 535.072 -1.5615 -0.213296 0
M  V30 5858 C 536.02 -1.93953 -1.28394 0
M  V30 5859 C 537.014 -0.822592 -1.48087 0
M  V30 5860 O 538.22 -1.00748 -1.49164 0
M  V30 5861 H 534.595 -0.61648 -0.430646 0
M  V30 5862 H 536.566 -2.83275 -0.937977 0
M  V30 5863 C 535.315 -2.27969 -2.62537 0
M  V30 5864 H 534.638 -3.13432 -2.48194 0
M  V30 5865 H 536.078 -2.58297 -3.36242 0
M  V30 5866 C 534.537 -1.10775 -3.18167 0
M  V30 5867 O 535.067 -0.373201 -3.99963 0
M  V30 5868 N 533.273 -0.889377 -2.76656 0
M  V30 5869 H 532.82 -1.48843 -2.10246 0
M  V30 5870 H 532.778 -0.107 -3.14218 0
M  V30 5871 N 536.55 0.480323 -1.50102 0
M  V30 5872 C 537.497 1.57946 -1.6829 0
M  V30 5873 C 538.467 1.57611 -0.524223 0
M  V30 5874 O 539.652 1.75282 -0.753709 0
M  V30 5875 C 536.792 2.95978 -1.77457 0
M  V30 5876 C 535.905 3.06173 -3.04766 0
M  V30 5877 C 535.04 4.35063 -3.04784 0
M  V30 5878 C 534.079 4.38966 -4.26586 0
M  V30 5879 N 533.216 5.59314 -4.24396 0
M  V30 5880 H 538.056 1.41743 -2.62131 0
M  V30 5881 H 535.593 0.689304 -1.2995 0
M  V30 5882 H 537.551 3.76011 -1.80752 0
M  V30 5883 H 536.181 3.10837 -0.870637 0
M  V30 5884 H 535.233 2.19071 -3.10986 0
M  V30 5885 H 536.545 3.04916 -3.9475 0
M  V30 5886 H 535.699 5.23436 -3.06757 0
M  V30 5887 H 534.438 4.38915 -2.12614 0
M  V30 5888 H 533.443 3.48992 -4.24835 0
M  V30 5889 H 534.668 4.36813 -5.19972 0
M  V30 5890 H 532.614 5.63969 -3.35074 0
M  V30 5891 H 532.531 5.5976 -5.08138 0
M  V30 5892 H 533.799 6.49837 -4.30502 0
M  V30 5893 N 538.028 1.39524 0.732853 0
M  V30 5894 C 539.274 1.37068 1.49467 0
M  V30 5895 C 539.607 -0.0327166 1.94172 0
M  V30 5896 O 538.882 -0.998071 1.66939 0
M  V30 5897 C 539.165 2.34494 2.73285 0
M  V30 5898 C 539.018 3.83784 2.34585 0
M  V30 5899 C 540.337 2.29717 3.75391 0
M  V30 5900 H 537.456 0.499206 0.542183 0
M  V30 5901 H 540.098 1.70532 0.837783 0
M  V30 5902 H 538.248 2.06087 3.29333 0
M  V30 5903 H 539.92 4.22949 1.84151 0
M  V30 5904 H 538.163 4.00455 1.66787 0
M  V30 5905 H 538.834 4.47444 3.23262 0
M  V30 5906 H 541.31 2.54839 3.28932 0
M  V30 5907 H 540.186 2.99962 4.59689 0
M  V30 5908 H 540.447 1.30291 4.22465 0
M  V30 5909 N 539.506 -0.963266 1.24736 0
M  V30 5910 C 540.755 -1.70115 1.08369 0
M  V30 5911 C 541.068 -1.91939 -0.376688 0
M  V30 5912 O 542.274 -2.6334 -0.660624 0
M  V30 5913 C 540.73 -3.06218 1.89099 0
M  V30 5914 C 540.338 -2.92221 3.39574 0
M  V30 5915 C 542.082 -3.83848 1.81275 0
M  V30 5916 C 539.989 -4.23662 4.12631 0
M  V30 5917 H 538.919 -0.637944 0.401924 0
M  V30 5918 H 541.57 -1.07304 1.48856 0
M  V30 5919 H 539.952 -3.69884 1.41429 0
M  V30 5920 H 541.126 -2.37541 3.94856 0
M  V30 5921 H 539.441 -2.28054 3.48397 0
M  V30 5922 H 542.038 -4.81188 2.33158 0
M  V30 5923 H 542.381 -4.08949 0.778895 0
M  V30 5924 H 542.914 -3.26918 2.26649 0
M  V30 5925 H 539.653 -4.03753 5.16395 0
M  V30 5926 H 539.173 -4.78141 3.62135 0
M  V30 5927 H 540.852 -4.92256 4.19873 0
M  V30 5928 N 540.985 -1.06182 -1.16461 0
M  V30 5929 C 541.932 -0.671613 -2.20812 0
M  V30 5930 C 542.902 0.331186 -1.62765 0
M  V30 5931 O 544.087 0.22033 -1.89524 0
M  V30 5932 C 541.227 -0.063029 -3.45042 0
M  V30 5933 C 540.34 -1.11587 -4.1734 0
M  V30 5934 C 539.475 -0.473546 -5.29085 0
M  V30 5935 C 538.514 -1.51 -5.93182 0
M  V30 5936 N 537.651 -0.891118 -6.96422 0
M  V30 5937 H 542.491 -1.56589 -2.53542 0
M  V30 5938 H 540.028 -0.782951 -1.24532 0
M  V30 5939 H 541.986 0.307344 -4.16066 0
M  V30 5940 H 540.616 0.794663 -3.12866 0
M  V30 5941 H 539.668 -1.60396 -3.44931 0
M  V30 5942 H 540.98 -1.90221 -4.61104 0
M  V30 5943 H 540.134 -0.0501432 -6.06679 0
M  V30 5944 H 538.873 0.344687 -4.8648 0
M  V30 5945 H 537.878 -1.94331 -5.14311 0
M  V30 5946 H 539.103 -2.33031 -6.37866 0
M  V30 5947 H 537.049 -0.0935753 -6.55933 0
M  V30 5948 H 536.966 -1.61486 -7.38551 0
M  V30 5949 H 538.234 -0.492822 -7.77941 0
M  V30 5950 N 542.463 1.3308 -0.844243 0
M  V30 5951 C 543.691 2.01808 -0.456203 0
M  V30 5952 C 544.106 1.63498 0.944131 0
M  V30 5953 O 543.463 0.85102 1.61443 0
M  V30 5954 C 543.514 3.56922 -0.573513 0
M  V30 5955 O 543.235 3.93851 -1.91868 0
M  V30 5956 C 544.736 4.42922 -0.183125 0
M  V30 5957 H 541.956 0.646273 -0.180477 0
M  V30 5958 H 544.5 1.69891 -1.1383 0
M  V30 5959 H 542.655 3.87352 0.0607367 0
M  V30 5960 H 543.069 4.88564 -1.90802 0
M  V30 5961 H 544.543 5.51093 -0.316241 0
M  V30 5962 H 545.02 4.30386 0.875477 0
M  V30 5963 H 545.626 4.1786 -0.792027 0
M  V30 5964 N 543.941 0.601185 1.45683 0
M  V30 5965 C 545.171 0.0999093 2.06358 0
M  V30 5966 C 545.579 -1.21831 1.44754 0
M  V30 5967 O 544.922 -1.75157 0.553695 0
M  V30 5968 C 544.984 -0.12085 3.59297 0
M  V30 5969 C 544.648 1.11459 4.432 0
M  V30 5970 C 545.645 2.03118 4.7858 0
M  V30 5971 C 543.33 1.34162 4.84051 0
M  V30 5972 C 545.324 3.15814 5.53661 0
M  V30 5973 C 543.011 2.4716 5.58888 0
M  V30 5974 C 544.009 3.37814 5.93608 0
M  V30 5975 O 543.697 4.48846 6.66928 0
M  V30 5976 H 543.429 0.0630316 0.673055 0
M  V30 5977 H 545.983 0.826982 1.88016 0
M  V30 5978 H 544.213 -0.902744 3.76015 0
M  V30 5979 H 545.902 -0.572925 4.01836 0
M  V30 5980 H 546.668 1.86801 4.47583 0
M  V30 5981 H 542.547 0.645018 4.56465 0
M  V30 5982 H 546.091 3.86596 5.8068 0
M  V30 5983 H 541.988 2.63432 5.89299 0
M  V30 5984 H 542.756 4.47446 6.85371 0
M  V30 5985 N 545.419 -1.53889 0.339982 0
M  V30 5986 C 546.647 -2.05271 -0.259114 0
M  V30 5987 C 547.062 -1.21517 -1.44496 0
M  V30 5988 O 546.419 -0.24966 -1.80784 0
M  V30 5989 C 546.47 -3.55092 -0.677634 0
M  V30 5990 O 546.191 -4.35667 0.461051 0
M  V30 5991 C 547.692 -4.22631 -1.33782 0
M  V30 5992 H 544.912 -0.669085 -0.0506566 0
M  V30 5993 H 547.456 -1.9852 0.490935 0
M  V30 5994 H 545.611 -3.62077 -1.37763 0
M  V30 5995 H 546.025 -5.24343 0.128144 0
M  V30 5996 H 547.499 -5.28861 -1.58145 0
M  V30 5997 H 547.976 -3.74758 -2.29027 0
M  V30 5998 H 548.582 -4.19829 -0.679957 0
M  V30 5999 N 546.897 -0.0685191 -1.57451 0
M  V30 6000 C 547.844 0.899861 -2.12535 0
M  V30 6001 C 548.814 1.29749 -1.03703 0
M  V30 6002 O 549.999 1.38392 -1.31348 0
M  V30 6003 C 547.139 2.16328 -2.6888 0
M  V30 6004 C 546.252 1.81857 -3.91857 0
M  V30 6005 C 545.387 3.02786 -4.36457 0
M  V30 6006 C 544.426 2.64317 -5.5209 0
M  V30 6007 N 543.563 3.77994 -5.91663 0
M  V30 6008 H 548.403 0.423243 -2.94979 0
M  V30 6009 H 545.94 0.197268 -1.45771 0
M  V30 6010 H 547.898 2.90281 -2.99655 0
M  V30 6011 H 546.528 2.61536 -1.89206 0
M  V30 6012 H 545.58 0.979808 -3.67565 0
M  V30 6013 H 546.892 1.49553 -4.75852 0
M  V30 6014 H 546.046 3.85021 -4.68875 0
M  V30 6015 H 544.785 3.38281 -3.51308 0
M  V30 6016 H 543.79 1.80503 -5.19325 0
M  V30 6017 H 545.015 2.29995 -6.38967 0
M  V30 6018 H 542.961 4.13258 -5.09464 0
M  V30 6019 H 542.878 3.49447 -6.7039 0
M  V30 6020 H 544.146 4.60818 -6.28703 0
M  V30 6021 N 548.375 1.56261 0.205012 0
M  V30 6022 C 549.623 1.79684 0.925096 0
M  V30 6023 C 549.944 0.63989 1.84202 0
M  V30 6024 O 549.214 -0.342345 1.92885 0
M  V30 6025 H 547.794 0.662774 0.344587 0
M  V30 6026 H 550.456 1.93734 0.212899 0
M  V30 6027 H 549.552 2.72467 1.52211 0
M  V30 6028 N 549.853 -0.472356 1.50355 0
M  V30 6029 C 551.13 -1.23356 1.51798 0
M  V30 6030 C 551.51 -2.09469 0.26193 0
M  V30 6031 O 550.858 -2.15677 -0.754691 0
M  V30 6032 C 551.068 -2.06568 2.81302 0
M  V30 6033 C 552.416 -2.648 3.31913 0
M  V30 6034 O 553.44 -2.16812 2.82614 0
M  V30 6035 O 552.299 -3.52231 4.17846 0
M  V30 6036 H 549.393 -0.559707 0.608816 0
M  V30 6037 H 551.939 -0.48428 1.62643 0
M  V30 6038 H 550.711 -1.43103 3.64194 0
M  V30 6039 H 550.334 -2.88633 2.73454 0
M  V30 6040 N 551.331 -1.39911 -0.725443 0
M  V30 6041 C 552.561 -1.40744 -1.51244 0
M  V30 6042 C 552.969 -0.00275403 -1.892 0
M  V30 6043 O 552.312 0.981299 -1.55294 0
M  V30 6044 C 552.374 -2.22527 -2.82351 0
M  V30 6045 C 552.038 -3.71053 -2.66774 0
M  V30 6046 C 553.035 -4.63916 -2.34686 0
M  V30 6047 C 550.72 -4.14753 -2.83347 0
M  V30 6048 C 552.714 -5.98463 -2.19366 0
M  V30 6049 C 550.401 -5.49372 -2.67644 0
M  V30 6050 C 551.399 -6.41042 -2.357 0
M  V30 6051 O 551.087 -7.73181 -2.20107 0
M  V30 6052 H 550.819 -0.482314 -0.473655 0
M  V30 6053 H 553.373 -1.84472 -0.903284 0
M  V30 6054 H 551.603 -1.73563 -3.45562 0
M  V30 6055 H 553.292 -2.15421 -3.44018 0
M  V30 6056 H 554.058 -4.31453 -2.21525 0
M  V30 6057 H 549.937 -3.43728 -3.072 0
M  V30 6058 H 553.481 -6.69979 -1.94354 0
M  V30 6059 H 549.378 -5.81424 -2.80387 0
M  V30 6060 H 550.146 -7.84008 -2.35103 0
M  V30 6061 N 552.809 0.956637 -1.25245 0
M  V30 6062 C 554.056 1.701 -1.09874 0
M  V30 6063 C 554.384 1.91128 0.36062 0
M  V30 6064 O 553.639 1.47837 1.28229 0
M  V30 6065 C 553.938 3.08996 -1.79601 0
M  V30 6066 C 553.604 3.07774 -3.29523 0
M  V30 6067 C 552.266 3.07149 -3.70423 0
M  V30 6068 C 554.618 3.01257 -4.25316 0
M  V30 6069 C 551.946 2.97752 -5.0553 0
M  V30 6070 C 554.298 2.93403 -5.60444 0
M  V30 6071 C 552.962 2.91111 -6.00675 0
M  V30 6072 H 552.232 0.62244 -0.402056 0
M  V30 6073 H 554.879 1.1178 -1.55491 0
M  V30 6074 H 553.184 3.70848 -1.26408 0
M  V30 6075 H 554.881 3.65407 -1.65162 0
M  V30 6076 H 551.471 3.09032 -2.9698 0
M  V30 6077 H 555.655 3.00861 -3.9471 0
M  V30 6078 H 550.911 2.94346 -5.35883 0
M  V30 6079 H 555.085 2.87321 -6.34366 0
M  V30 6080 H 552.712 2.83586 -7.05325 0
M  V30 6081 N 554.287 1.06798 1.15896 0
M  V30 6082 C 555.535 0.786211 1.8618 0
M  V30 6083 C 555.856 -0.689547 1.82401 0
M  V30 6084 O 555.126 -1.49913 1.26107 0
M  V30 6085 H 553.706 0.287843 0.689315 0
M  V30 6086 H 556.368 1.35055 1.40521 0
M  V30 6087 H 555.464 1.1157 2.91477 0
M  V30 6088 N 555.766 -1.3263 0.851289 0
M  V30 6089 C 556.676 -2.32722 0.296268 0
M  V30 6090 C 557.692 -1.63901 -0.584162 0
M  V30 6091 O 558.868 -1.95465 -0.485334 0
M  V30 6092 C 555.933 -3.42942 -0.509103 0
M  V30 6093 C 554.994 -4.2746 0.397069 0
M  V30 6094 C 554.227 -5.32416 -0.36996 0
M  V30 6095 O 554.45 -5.47491 -1.6003 0
M  V30 6096 O 553.384 -6.01327 0.262493 0
M  V30 6097 H 557.21 -2.82078 1.12543 0
M  V30 6098 H 554.795 -1.36194 0.614135 0
M  V30 6099 H 556.677 -4.1017 -0.96634 0
M  V30 6100 H 555.352 -2.95781 -1.31512 0
M  V30 6101 H 554.259 -3.63053 0.902411 0
M  V30 6102 H 555.592 -4.78136 1.16818 0
M  V30 6103 N 557.244 -0.608902 -1.45362 0
M  V30 6104 C 558.174 0.0964526 -2.33301 0
M  V30 6105 C 559.155 0.857444 -1.46908 0
M  V30 6106 O 560.34 0.827735 -1.75676 0
M  V30 6107 C 557.47 1.09354 -3.29635 0
M  V30 6108 C 556.424 0.445676 -4.25673 0
M  V30 6109 C 555.75 1.5511 -5.11708 0
M  V30 6110 C 557.05 -0.633972 -5.18438 0
M  V30 6111 H 558.744 -0.637829 -2.92527 0
M  V30 6112 H 556.29 -0.308178 -1.40664 0
M  V30 6113 H 558.243 1.59556 -3.90025 0
M  V30 6114 H 556.967 1.85843 -2.6857 0
M  V30 6115 H 555.626 -0.0354897 -3.66583 0
M  V30 6116 H 555.274 2.30631 -4.4701 0
M  V30 6117 H 554.974 1.12311 -5.76767 0
M  V30 6118 H 556.498 2.05537 -5.74967 0
M  V30 6119 H 557.912 -0.215974 -5.72893 0
M  V30 6120 H 556.309 -0.983789 -5.91981 0
M  V30 6121 H 557.379 -1.51005 -4.60788 0
M  V30 6122 N 558.722 1.53707 -0.348139 0
M  V30 6123 C 559.685 2.23812 0.494058 0
M  V30 6124 C 560.685 1.23989 1.02388 0
M  V30 6125 O 561.875 1.48395 0.912396 0
M  V30 6126 C 559.007 2.96133 1.68872 0
M  V30 6127 H 560.2 2.99663 -0.119141 0
M  V30 6128 H 557.753 1.55983 -0.0995539 0
M  V30 6129 H 558.488 2.24481 2.34049 0
M  V30 6130 H 558.273 3.69357 1.31596 0
M  V30 6131 H 559.763 3.49475 2.28597 0
M  V30 6132 N 560.2 0.0768682 1.57412 0
M  V30 6133 C 561.13 -0.886026 2.16037 0
M  V30 6134 C 562.111 -1.30691 1.08876 0
M  V30 6135 O 563.296 -1.37705 1.36934 0
M  V30 6136 C 560.426 -2.1518 2.72608 0
M  V30 6137 C 559.38 -1.87015 3.8498 0
M  V30 6138 C 558.706 -3.20266 4.28175 0
M  V30 6139 C 560.006 -1.17143 5.08994 0
M  V30 6140 H 561.7 -0.397642 2.96748 0
M  V30 6141 H 559.246 -0.189823 1.42743 0
M  V30 6142 H 561.199 -2.82962 3.12266 0
M  V30 6143 H 559.923 -2.66269 1.89125 0
M  V30 6144 H 558.582 -1.21636 3.45833 0
M  V30 6145 H 558.23 -3.69207 3.41607 0
M  V30 6146 H 557.93 -3.0221 5.03927 0
M  V30 6147 H 559.454 -3.89237 4.70454 0
M  V30 6148 H 560.868 -1.75003 5.45937 0
M  V30 6149 H 559.265 -1.09328 5.90057 0
M  V30 6150 H 560.335 -0.151295 4.84664 0
M  V30 6151 N 561.678 -1.56367 -0.196722 0
M  V30 6152 C 562.608 -1.97442 -1.24655 0
M  V30 6153 C 563.589 -0.846147 -1.47561 0
M  V30 6154 O 564.774 -1.11035 -1.59326 0
M  V30 6155 C 561.904 -2.31253 -2.59112 0
M  V30 6156 C 560.858 -3.46804 -2.50821 0
M  V30 6157 C 560.184 -3.66286 -3.89536 0
M  V30 6158 C 561.484 -4.8104 -2.03465 0
M  V30 6159 H 563.178 -2.85388 -0.905216 0
M  V30 6160 H 560.724 -1.37304 -0.434002 0
M  V30 6161 H 562.677 -2.58583 -3.32736 0
M  V30 6162 H 561.401 -1.40188 -2.94983 0
M  V30 6163 H 560.06 -3.19563 -1.79653 0
M  V30 6164 H 559.708 -2.72555 -4.22756 0
M  V30 6165 H 559.408 -4.4402 -3.84864 0
M  V30 6166 H 560.932 -3.9599 -4.64784 0
M  V30 6167 H 562.346 -5.07411 -2.66846 0
M  V30 6168 H 560.743 -5.62232 -2.09798 0
M  V30 6169 H 561.813 -4.74732 -0.98781 0
M  V30 6170 N 563.156 0.464375 -1.50603 0
M  V30 6171 C 564.103 1.56152 -1.69956 0
M  V30 6172 C 565.073 1.57046 -0.54091 0
M  V30 6173 O 566.258 1.74473 -0.772258 0
M  V30 6174 C 563.398 2.94079 -1.80586 0
M  V30 6175 C 562.511 3.02923 -3.07996 0
M  V30 6176 C 561.646 4.31806 -3.09382 0
M  V30 6177 C 560.685 4.34417 -4.31218 0
M  V30 6178 N 559.822 5.54782 -4.30304 0
M  V30 6179 H 564.662 1.38955 -2.6362 0
M  V30 6180 H 562.199 0.675482 -1.30674 0
M  V30 6181 H 564.157 3.74073 -1.8473 0
M  V30 6182 H 562.787 3.09896 -0.903556 0
M  V30 6183 H 561.839 2.1576 -3.13292 0
M  V30 6184 H 563.151 3.00712 -3.97962 0
M  V30 6185 H 562.305 5.20153 -3.12292 0
M  V30 6186 H 561.044 4.36636 -2.17257 0
M  V30 6187 H 560.049 3.44467 -4.28512 0
M  V30 6188 H 561.274 4.31273 -5.24576 0
M  V30 6189 H 559.22 5.60384 -3.41037 0
M  V30 6190 H 559.137 5.54339 -5.14047 0
M  V30 6191 H 560.405 6.45235 -4.3737 0
M  V30 6192 N 564.634 1.40294 0.718013 0
M  V30 6193 C 565.582 1.40536 1.85344 0
M  V30 6194 C 566.576 0.286192 1.66965 0
M  V30 6195 O 567.782 0.457105 1.74099 0
M  V30 6196 H 564.157 0.439236 0.61039 0
M  V30 6197 H 566.128 2.36275 1.82255 0
M  V30 6198 C 564.877 1.28245 3.23185 0
M  V30 6199 H 564.2 2.1364 3.37932 0
M  V30 6200 H 565.64 1.32474 4.02774 0
M  V30 6201 C 564.099 -0.0075503 3.36899 0
M  V30 6202 O 564.629 -0.971391 3.89778 0
M  V30 6203 N 562.835 -0.0762479 2.905 0
M  V30 6204 H 562.382 0.708819 2.47656 0
M  V30 6205 H 562.34 -0.938846 3.00055 0
M  V30 6206 N 566.112 -0.949982 1.2575 0
M  V30 6207 C 567.059 -2.04738 1.06541 0
M  V30 6208 C 568.029 -1.66078 -0.0268818 0
M  V30 6209 O 569.214 -1.90348 0.131196 0
M  V30 6210 C 566.354 -3.38027 0.695127 0
M  V30 6211 C 565.467 -3.89776 1.86276 0
M  V30 6212 C 564.602 -5.11411 1.4364 0
M  V30 6213 C 563.641 -5.554 2.57287 0
M  V30 6214 N 562.778 -6.68244 2.15395 0
M  V30 6215 H 567.618 -2.20502 2.00457 0
M  V30 6216 H 565.155 -1.0805 0.998178 0
M  V30 6217 H 567.113 -4.14641 0.461375 0
M  V30 6218 H 565.743 -3.22135 -0.207046 0
M  V30 6219 H 564.795 -3.0964 2.20969 0
M  V30 6220 H 566.107 -4.18368 2.71606 0
M  V30 6221 H 565.261 -5.95457 1.16257 0
M  V30 6222 H 564 -4.84545 0.553879 0
M  V30 6223 H 563.005 -4.69916 2.85409 0
M  V30 6224 H 564.23 -5.84272 3.46125 0
M  V30 6225 H 562.176 -6.43078 1.29565 0
M  V30 6226 H 562.093 -6.96377 2.94272 0
M  V30 6227 H 563.361 -7.55687 1.91201 0
M  V30 6228 N 567.59 -1.07411 -1.15328 0
M  V30 6229 C 569.001 -0.820261 -1.67716 0
M  V30 6230 C 569.352 0.654539 -1.8496 0
M  V30 6231 O 568.477 1.50664 -1.55337 0
M  V30 6232 C 569.072 -1.48242 -3.04647 0
M  V30 6233 C 567.631 -1.27606 -3.5411 0
M  V30 6234 C 566.778 -1.5517 -2.29821 0
M  V30 6235 H 569.729 -1.23608 -0.995332 0
M  V30 6236 H 569.75 -0.903984 -3.69606 0
M  V30 6237 H 569.262 -2.55578 -2.92064 0
M  V30 6238 H 567.363 -0.222948 -3.71932 0
M  V30 6239 H 567.476 -1.99667 -4.35511 0
M  V30 6240 H 565.84 -0.972747 -2.35393 0
M  V30 6241 H 566.623 -2.63689 -2.19824 0
M  V30 6242 N 569.068 1.32177 -0.85831 0
M  V30 6243 C 570.484 1.49873 -0.548656 0
M  V30 6244 C 570.684 1.79278 0.919874 0
M  V30 6245 O 569.74 1.86451 1.70271 0
M  V30 6246 C 571.053 2.64043 -1.4388 0
M  V30 6247 C 572.601 2.77928 -1.43961 0
M  V30 6248 C 573.076 3.95182 -2.31506 0
M  V30 6249 N 574.567 4.0245 -2.29321 0
M  V30 6250 C 575.302 4.9242 -2.93786 0
M  V30 6251 N 574.798 5.87373 -3.67376 0
M  V30 6252 N 576.591 4.85572 -2.83155 0
M  V30 6253 H 568.742 1.11357 -1.80868 0
M  V30 6254 H 571.005 0.549175 -0.772729 0
M  V30 6255 H 570.711 2.49055 -2.48324 0
M  V30 6256 H 570.585 3.59912 -1.12885 0
M  V30 6257 H 572.972 2.92338 -0.402813 0
M  V30 6258 H 573.053 1.82762 -1.78974 0
M  V30 6259 H 572.697 3.81531 -3.35256 0
M  V30 6260 H 572.627 4.89633 -1.93823 0
M  V30 6261 H 575.118 3.34507 -1.75822 0
M  V30 6262 H 575.431 6.52728 -4.13722 0
M  V30 6263 H 573.776 5.87388 -3.71484 0
M  V30 6264 H 576.967 4.10363 -2.25211 0
M  V30 6265 H 577.14 5.55486 -3.33676 0
M  V30 6266 N 570.547 0.616602 1.45037 0
M  V30 6267 C 571.51 -0.0871112 2.29034 0
M  V30 6268 C 572.51 -0.786414 1.40258 0
M  V30 6269 O 573.7 -0.633207 1.62284 0
M  V30 6270 C 570.832 -1.13369 3.21497 0
M  V30 6271 H 572.025 0.651497 2.92738 0
M  V30 6272 H 569.578 0.376058 1.51709 0
M  V30 6273 H 570.313 -1.90277 2.62612 0
M  V30 6274 H 570.098 -0.636358 3.86902 0
M  V30 6275 H 571.588 -1.62627 3.84633 0
M  V30 6276 N 572.025 -1.5352 0.356285 0
M  V30 6277 C 572.988 -2.24071 -0.482182 0
M  V30 6278 C 573.988 -1.24531 -1.01729 0
M  V30 6279 O 575.178 -1.48876 -0.904513 0
M  V30 6280 C 572.31 -2.97025 -1.67299 0
M  V30 6281 H 573.503 -2.99596 0.135031 0
M  V30 6282 H 571.056 -1.55928 0.107825 0
M  V30 6283 H 571.791 -2.25719 -2.32855 0
M  V30 6284 H 571.576 -3.7005 -1.29636 0
M  V30 6285 H 573.066 -3.50683 -2.26741 0
M  V30 6286 N 573.503 -0.0852151 -1.57369 0
M  V30 6287 C 574.731 0.58946 -1.98325 0
M  V30 6288 C 575.146 1.62333 -0.96403 0
M  V30 6289 O 574.503 1.82438 0.0476395 0
M  V30 6290 C 574.554 1.24604 -3.39347 0
M  V30 6291 O 574.275 0.253532 -4.37366 0
M  V30 6292 C 575.776 2.00726 -3.95252 0
M  V30 6293 H 572.996 0.158783 -0.651942 0
M  V30 6294 H 575.54 -0.161584 -2.03861 0
M  V30 6295 H 573.695 1.94808 -3.34856 0
M  V30 6296 H 574.109 0.726207 -5.19448 0
M  V30 6297 H 575.583 2.42039 -4.96106 0
M  V30 6298 H 576.06 2.86919 -3.32527 0
M  V30 6299 H 576.666 1.3536 -4.03185 0
M  V30 6300 N 574.981 1.5647 0.188427 0
M  V30 6301 C 576.23 1.80207 0.905995 0
M  V30 6302 C 576.543 0.659579 1.84144 0
M  V30 6303 O 577.749 0.781431 2.60011 0
M  V30 6304 C 576.205 3.19255 1.66145 0
M  V30 6305 C 575.813 4.41324 0.770504 0
M  V30 6306 C 577.557 3.52298 2.36826 0
M  V30 6307 C 575.464 5.71394 1.52521 0
M  V30 6308 H 574.394 0.671953 0.342045 0
M  V30 6309 H 577.045 1.82808 0.159164 0
M  V30 6310 H 575.427 3.10922 2.45242 0
M  V30 6311 H 576.601 4.60797 0.0177261 0
M  V30 6312 H 574.916 4.16035 0.174199 0
M  V30 6313 H 577.513 4.46715 2.93854 0
M  V30 6314 H 577.856 2.76359 3.11338 0
M  V30 6315 H 578.389 3.62108 1.6469 0
M  V30 6316 H 575.128 6.50316 0.82275 0
M  V30 6317 H 574.648 5.55928 2.25175 0
M  V30 6318 H 576.327 6.12747 2.07725 0
M  V30 6319 N 576.459 -0.456382 1.50847 0
M  V30 6320 C 577.406 -1.55249 1.70782 0
M  V30 6321 C 578.376 -1.56757 0.549231 0
M  V30 6322 O 579.561 -1.74061 0.7815 0
M  V30 6323 C 576.701 -2.93118 1.82143 0
M  V30 6324 C 575.814 -3.01285 3.09598 0
M  V30 6325 C 574.949 -4.30159 3.11667 0
M  V30 6326 C 573.988 -4.32124 4.33515 0
M  V30 6327 N 573.125 -5.52492 4.3324 0
M  V30 6328 H 577.965 -1.37555 2.64353 0
M  V30 6329 H 575.502 -0.668543 1.3103 0
M  V30 6330 H 577.46 -3.73088 1.86711 0
M  V30 6331 H 576.09 -3.09413 0.919978 0
M  V30 6332 H 575.142 -2.14096 3.14431 0
M  V30 6333 H 576.454 -2.98597 3.99551 0
M  V30 6334 H 575.608 -5.18489 3.15046 0
M  V30 6335 H 574.347 -4.35477 2.1957 0
M  V30 6336 H 573.352 -3.42189 4.30333 0
M  V30 6337 H 574.577 -4.28485 5.26856 0
M  V30 6338 H 572.523 -5.58567 3.44004 0
M  V30 6339 H 572.44 -5.51605 5.16979 0
M  V30 6340 H 573.708 -6.42906 4.40786 0
M  V30 6341 N 577.937 -1.40673 -0.710563 0
M  V30 6342 C 578.9 -1.4108 -1.80635 0
M  V30 6343 C 579.9 -0.303783 -1.57904 0
M  V30 6344 O 581.09 -0.562937 -1.64853 0
M  V30 6345 C 578.222 -1.20748 -3.18799 0
M  V30 6346 H 579.415 -2.38612 -1.81671 0
M  V30 6347 H 576.968 -1.26595 -0.916704 0
M  V30 6348 H 577.703 -0.239964 -3.23411 0
M  V30 6349 H 577.488 -2.00941 -3.36698 0
M  V30 6350 H 578.978 -1.23833 -3.98817 0
M  V30 6351 N 579.415 0.9433 -1.26252 0
M  V30 6352 C 580.347 2.04542 -1.03417 0
M  V30 6353 C 581.36 1.62799 0.0046911 0
M  V30 6354 O 582.549 1.76944 -0.235146 0
M  V30 6355 C 579.649 3.34511 -0.543671 0
M  V30 6356 C 578.822 4.05033 -1.65128 0
M  V30 6357 C 577.881 5.13273 -1.1592 0
M  V30 6358 O 576.907 5.38095 -1.85586 0
M  V30 6359 N 578.109 5.805 -0.00649279 0
M  V30 6360 H 580.874 2.24699 -1.98319 0
M  V30 6361 H 578.435 1.11264 -1.1761 0
M  V30 6362 H 580.427 4.04212 -0.198703 0
M  V30 6363 H 578.997 3.11042 0.311711 0
M  V30 6364 H 578.217 3.29275 -2.16729 0
M  V30 6365 H 579.505 4.48903 -2.39508 0
M  V30 6366 H 578.903 5.62767 0.575347 0
M  V30 6367 H 577.46 6.51201 0.279416 0
M  V30 6368 N 580.893 1.08022 1.14757 0
M  V30 6369 C 581.841 0.701088 2.21783 0
M  V30 6370 C 582.835 -0.291311 1.66876 0
M  V30 6371 O 584.041 -0.154296 1.79337 0
M  V30 6372 H 580.416 0.208668 0.722469 0
M  V30 6373 H 582.387 1.61321 2.51034 0
M  V30 6374 C 581.136 0.122278 3.47485 0
M  V30 6375 H 580.459 0.877065 3.90061 0
M  V30 6376 H 581.899 -0.105248 4.23869 0
M  V30 6377 C 580.358 -1.13883 3.17068 0
M  V30 6378 O 580.888 -2.22429 3.34497 0
M  V30 6379 N 579.094 -1.04767 2.71058 0
M  V30 6380 H 578.641 -0.164302 2.57075 0
M  V30 6381 H 578.599 -1.89224 2.51081 0
M  V30 6382 N 582.371 -1.3172 0.865308 0
M  V30 6383 C 583.618 -1.96876 0.473931 0
M  V30 6384 C 583.946 -1.68425 -0.972786 0
M  V30 6385 O 583.201 -0.970742 -1.69927 0
M  V30 6386 C 583.5 -3.5102 0.672283 0
M  V30 6387 C 583.166 -3.9948 2.09108 0
M  V30 6388 C 581.828 -4.12425 2.4791 0
M  V30 6389 C 584.18 -4.2503 3.0166 0
M  V30 6390 C 581.508 -4.48267 3.78515 0
M  V30 6391 C 583.86 -4.62335 4.31774 0
M  V30 6392 C 582.524 -4.73486 4.70497 0
M  V30 6393 H 581.794 -0.72042 0.173424 0
M  V30 6394 H 584.441 -1.56937 1.0974 0
M  V30 6395 H 582.746 -3.91785 -0.034356 0
M  V30 6396 H 584.443 -3.99475 0.349353 0
M  V30 6397 H 581.033 -3.89898 1.77981 0
M  V30 6398 H 585.217 -4.14529 2.7291 0
M  V30 6399 H 580.473 -4.55097 4.08285 0
M  V30 6400 H 584.647 -4.81058 5.03543 0
M  V30 6401 H 582.274 -5.01016 5.71741 0
M  V30 6402 N 583.85 -0.624285 -1.44708 0
M  V30 6403 C 585.09 -0.129273 -2.03991 0
M  V30 6404 C 585.454 1.22321 -1.47992 0
M  V30 6405 O 586.654 1.80993 -1.98734 0
M  V30 6406 C 584.926 -0.108231 -3.57236 0
M  V30 6407 S 586.485 0.323158 -4.37608 0
M  V30 6408 H 583.303 -0.0577318 -0.708652 0
M  V30 6409 H 585.904 -0.826139 -1.77187 0
M  V30 6410 H 584.609 -1.0958 -3.955 0
M  V30 6411 H 584.139 0.610101 -3.8864 0
M  V30 6412 H 586.154 1.56894 -4.70743 0
M  V30 6413 N 585.328 1.53329 -0.364422 0
M  V30 6414 C 586.26 2.23286 0.517293 0
M  V30 6415 C 587.273 1.24657 1.04711 0
M  V30 6416 O 588.462 1.50887 0.95369 0
M  V30 6417 C 585.562 2.91604 1.72685 0
M  V30 6418 C 584.735 4.1673 1.32873 0
M  V30 6419 C 583.794 4.68269 2.40022 0
M  V30 6420 O 582.82 5.31976 2.02461 0
M  V30 6421 N 584.022 4.45983 3.7159 0
M  V30 6422 H 586.787 2.99588 -0.0819391 0
M  V30 6423 H 584.348 1.60787 -0.189544 0
M  V30 6424 H 586.34 3.22992 2.4384 0
M  V30 6425 H 584.91 2.18763 2.23297 0
M  V30 6426 H 584.13 3.91657 0.447069 0
M  V30 6427 H 585.418 4.98078 1.03902 0
M  V30 6428 H 584.816 3.95077 4.04883 0
M  V30 6429 H 583.373 4.81924 4.38854 0
M  V30 6430 N 586.806 0.0935595 1.57322 0
M  V30 6431 C 588.052 -0.571355 1.94585 0
M  V30 6432 C 588.385 -1.67929 0.975366 0
M  V30 6433 O 587.66 -1.94498 0.00816206 0
M  V30 6434 C 587.943 -1.12797 3.41978 0
M  V30 6435 C 587.796 -0.0251881 4.49793 0
M  V30 6436 C 589.115 -2.02682 3.90651 0
M  V30 6437 H 586.234 -0.206223 0.70756 0
M  V30 6438 H 588.876 0.163956 1.89291 0
M  V30 6439 H 587.026 -1.75461 3.4662 0
M  V30 6440 H 588.698 0.608979 4.57263 0
M  V30 6441 H 586.941 0.641399 4.29032 0
M  V30 6442 H 587.612 -0.455433 5.50118 0
M  V30 6443 H 590.088 -1.49925 3.88152 0
M  V30 6444 H 588.964 -2.38555 4.94351 0
M  V30 6445 H 589.225 -2.94362 3.29854 0
M  V30 6446 N 588.284 -1.56567 -0.180126 0
M  V30 6447 C 589.53 -1.81761 -0.899497 0
M  V30 6448 C 589.863 -0.670015 -1.82276 0
M  V30 6449 O 589.138 0.328575 -1.91705 0
M  V30 6450 C 589.421 -3.17296 -1.7028 0
M  V30 6451 C 589.274 -4.4257 -0.803255 0
M  V30 6452 C 590.593 -3.49678 -2.67233 0
M  V30 6453 H 587.712 -0.661192 -0.325567 0
M  V30 6454 H 590.354 -1.89272 -0.16612 0
M  V30 6455 H 588.504 -3.11023 -2.32802 0
M  V30 6456 H 590.176 -4.60902 -0.191585 0
M  V30 6457 H 588.419 -4.33658 -0.110796 0
M  V30 6458 H 589.09 -5.33935 -1.40064 0
M  V30 6459 H 591.566 -3.56347 -2.14839 0
M  V30 6460 H 590.442 -4.45605 -3.20511 0
M  V30 6461 H 590.703 -2.73932 -3.47007 0
M  V30 6462 N 589.762 0.448376 -1.51087 0
M  V30 6463 C 590.992 1.21965 -1.66757 0
M  V30 6464 C 591.4 1.85748 -0.359753 0
M  V30 6465 O 590.743 1.71022 0.670604 0
M  V30 6466 C 590.805 2.35284 -2.71812 0
M  V30 6467 C 590.469 1.91957 -4.1473 0
M  V30 6468 C 591.466 1.42921 -4.9987 0
M  V30 6469 C 589.151 1.99985 -4.60772 0
M  V30 6470 C 591.145 1.02485 -6.29107 0
M  V30 6471 C 588.832 1.5916 -5.90009 0
M  V30 6472 C 589.83 1.10491 -6.74004 0
M  V30 6473 O 589.518 0.702413 -8.00825 0
M  V30 6474 H 589.25 0.374125 -0.563034 0
M  V30 6475 H 591.804 0.538927 -1.98204 0
M  V30 6476 H 590.034 3.06599 -2.35657 0
M  V30 6477 H 591.723 2.97184 -2.76472 0
M  V30 6478 H 592.489 1.36123 -4.65506 0
M  V30 6479 H 588.368 2.36814 -3.95525 0
M  V30 6480 H 591.912 0.644271 -6.94619 0
M  V30 6481 H 587.809 1.65626 -6.2389 0
M  V30 6482 H 588.577 0.829248 -8.14288 0
M  V30 6483 N 591.24 1.41047 0.703093 0
M  V30 6484 C 592.17 1.45067 1.82969 0
M  V30 6485 C 593.151 0.31016 1.67248 0
M  V30 6486 O 594.336 0.520548 1.87093 0
M  V30 6487 C 591.466 1.32478 3.2104 0
M  V30 6488 C 590.42 2.44262 3.51454 0
M  V30 6489 C 589.746 2.16742 4.88801 0
M  V30 6490 C 591.046 3.86606 3.51189 0
M  V30 6491 H 592.74 2.39353 1.79863 0
M  V30 6492 H 590.286 1.15206 0.863919 0
M  V30 6493 H 592.239 1.33904 3.99559 0
M  V30 6494 H 590.963 0.346735 3.24754 0
M  V30 6495 H 589.622 2.42107 2.75282 0
M  V30 6496 H 589.27 1.17299 4.89132 0
M  V30 6497 H 588.97 2.91643 5.10116 0
M  V30 6498 H 590.494 2.19872 5.69639 0
M  V30 6499 H 591.908 3.90517 4.19725 0
M  V30 6500 H 590.305 4.61128 3.84033 0
M  V30 6501 H 591.375 4.15296 2.50315 0
M  V30 6502 N 592.718 -0.936591 1.26751 0
M  V30 6503 C 593.995 -1.66094 1.03306 0
M  V30 6504 C 594.375 -2.06568 -0.435058 0
M  V30 6505 O 593.723 -1.79305 -1.41641 0
M  V30 6506 C 593.933 -2.86969 1.98619 0
M  V30 6507 C 595.281 -3.58516 2.27489 0
M  V30 6508 O 596.305 -2.97082 1.96522 0
M  V30 6509 O 595.164 -4.69181 2.80235 0
M  V30 6510 H 592.258 -0.727568 0.393158 0
M  V30 6511 H 594.804 -0.987914 1.3798 0
M  V30 6512 H 593.576 -2.53985 2.9767 0
M  V30 6513 H 593.199 -3.61996 1.64454 0
M  V30 6514 N 594.196 -1.08629 -1.14182 0
M  V30 6515 C 595.612 -0.814363 -1.3726 0
M  V30 6516 C 595.812 0.575271 -1.93114 0
M  V30 6517 O 594.868 1.33165 -2.1453 0
M  V30 6518 C 596.181 -1.8989 -2.33157 0
M  V30 6519 C 597.729 -1.92518 -2.46791 0
M  V30 6520 C 598.204 -3.00092 -3.45989 0
M  V30 6521 N 599.695 -2.99279 -3.53534 0
M  V30 6522 C 600.43 -3.79158 -4.30147 0
M  V30 6523 N 599.926 -4.68923 -5.09983 0
M  V30 6524 N 601.719 -3.67451 -4.25366 0
M  V30 6525 H 593.87 -1.98232 -0.762758 0
M  V30 6526 H 596.133 -0.860383 -0.398051 0
M  V30 6527 H 595.839 -2.89809 -1.99257 0
M  V30 6528 H 595.713 -1.77013 -3.33086 0
M  V30 6529 H 598.1 -0.932425 -2.79982 0
M  V30 6530 H 598.181 -2.09473 -1.46816 0
M  V30 6531 H 597.825 -3.99575 -3.13532 0
M  V30 6532 H 597.755 -2.80382 -4.45751 0
M  V30 6533 H 600.246 -2.3422 -2.96563 0
M  V30 6534 H 600.559 -5.26475 -5.65724 0
M  V30 6535 H 598.904 -4.72964 -5.09244 0
M  V30 6536 H 602.095 -2.9669 -3.62067 0
M  V30 6537 H 602.268 -4.29944 -4.84822 0
M  V30 6538 N 595.674 1.31259 -0.872281 0
M  V30 6539 C 596.621 2.28459 -0.327857 0
M  V30 6540 C 597.591 1.55831 0.574957 0
M  V30 6541 O 598.776 1.83965 0.506101 0
M  V30 6542 C 595.916 3.41985 0.462644 0
M  V30 6543 C 595.029 4.29458 -0.467949 0
M  V30 6544 C 594.164 5.30131 0.336903 0
M  V30 6545 C 593.203 6.0925 -0.58997 0
M  V30 6546 N 592.34 7.01872 0.178775 0
M  V30 6547 H 597.18 2.74414 -1.16193 0
M  V30 6548 H 594.717 1.34994 -0.584376 0
M  V30 6549 H 596.675 4.06547 0.936759 0
M  V30 6550 H 595.305 2.97134 1.2614 0
M  V30 6551 H 594.357 3.65318 -1.06052 0
M  V30 6552 H 595.669 4.84677 -1.17856 0
M  V30 6553 H 594.823 6.0038 0.873427 0
M  V30 6554 H 593.562 4.75573 1.08079 0
M  V30 6555 H 592.567 5.37889 -1.13823 0
M  V30 6556 H 593.792 6.65894 -1.33275 0
M  V30 6557 H 591.738 6.49721 0.905435 0
M  V30 6558 H 591.655 7.54522 -0.472452 0
M  V30 6559 H 592.923 7.76382 0.696454 0
M  V30 6560 N 597.152 0.631951 1.44375 0
M  V30 6561 C 598.377 0.142146 2.06912 0
M  V30 6562 C 598.802 -1.17456 1.4692 0
M  V30 6563 O 598.16 -1.72074 0.570975 0
M  V30 6564 C 598.208 0.0417952 3.60576 0
M  V30 6565 O 597.312 -1.00194 4.00044 0
M  V30 6566 H 596.653 0.0851491 0.658518 0
M  V30 6567 H 599.183 0.868863 1.85235 0
M  V30 6568 H 599.193 -0.148517 4.0773 0
M  V30 6569 H 597.868 1.0031 4.03622 0
M  V30 6570 H 596.445 -0.786131 3.64519 0
M  V30 6571 N 598.631 -1.53133 0.372548 0
M  V30 6572 C 599.878 -2.01356 -0.214959 0
M  V30 6573 C 600.206 -1.2596 -1.48204 0
M  V30 6574 O 599.461 -0.343511 -1.92662 0
M  V30 6575 C 599.76 -3.53206 -0.545938 0
M  V30 6576 C 599.426 -4.46511 0.627624 0
M  V30 6577 C 598.088 -4.71737 0.949615 0
M  V30 6578 C 600.44 -5.01666 1.41353 0
M  V30 6579 C 597.768 -5.4937 2.05936 0
M  V30 6580 C 600.12 -5.80511 2.51375 0
M  V30 6581 C 598.784 -6.04022 2.84101 0
M  V30 6582 H 598.054 -0.736813 -0.078659 0
M  V30 6583 H 600.701 -1.84682 0.506447 0
M  V30 6584 H 599.006 -3.67864 -1.34845 0
M  V30 6585 H 600.703 -3.87997 -1.01287 0
M  V30 6586 H 597.293 -4.27029 0.366635 0
M  V30 6587 H 601.477 -4.82117 1.17802 0
M  V30 6588 H 596.733 -5.65803 2.31682 0
M  V30 6589 H 600.907 -6.22255 3.12684 0
M  V30 6590 H 598.534 -6.63962 3.70214 0
M  V30 6591 N 600.109 -0.101901 -1.5727 0
M  V30 6592 C 601.056 0.854577 -2.14396 0
M  V30 6593 C 602.026 1.27521 -1.06432 0
M  V30 6594 O 603.211 1.35575 -1.34253 0
M  V30 6595 C 600.351 2.10576 -2.73408 0
M  V30 6596 C 599.464 1.73504 -3.95626 0
M  V30 6597 C 598.599 2.9346 -4.42781 0
M  V30 6598 C 597.638 2.52547 -5.57572 0
M  V30 6599 N 596.775 3.65359 -5.99547 0
M  V30 6600 H 601.615 0.360578 -2.9581 0
M  V30 6601 H 599.152 0.166303 -1.46157 0
M  V30 6602 H 601.11 2.83859 -3.05745 0
M  V30 6603 H 599.74 2.57463 -1.94711 0
M  V30 6604 H 598.792 0.901622 -3.6956 0
M  V30 6605 H 600.104 1.39426 -4.78917 0
M  V30 6606 H 599.258 3.74988 -4.76937 0
M  V30 6607 H 597.997 3.30753 -3.58404 0
M  V30 6608 H 597.002 1.69446 -5.23037 0
M  V30 6609 H 598.227 2.1639 -6.43702 0
M  V30 6610 H 596.173 4.02358 -5.18116 0
M  V30 6611 H 596.09 3.35148 -6.77652 0
M  V30 6612 H 597.358 4.47378 -6.38336 0
M  V30 6613 N 601.587 1.56661 0.17182 0
M  V30 6614 C 603.003 1.50768 0.52357 0
M  V30 6615 C 603.203 0.806072 1.84675 0
M  V30 6616 O 602.259 0.366233 2.4983 0
M  V30 6617 C 603.572 2.955 0.556793 0
M  V30 6618 C 605.12 3.06303 0.644029 0
M  V30 6619 C 605.595 4.52492 0.708148 0
M  V30 6620 N 607.086 4.56737 0.771051 0
M  V30 6621 C 607.821 5.67196 0.841229 0
M  V30 6622 N 607.317 6.87287 0.872272 0
M  V30 6623 N 609.11 5.55165 0.88021 0
M  V30 6624 H 601.261 2.00679 -0.695817 0
M  V30 6625 H 603.524 0.914219 -0.250814 0
M  V30 6626 H 603.23 3.49986 -0.346774 0
M  V30 6627 H 603.104 3.50119 1.40346 0
M  V30 6628 H 605.491 2.51851 1.53802 0
M  V30 6629 H 605.572 2.5477 -0.229297 0
M  V30 6630 H 605.216 5.07575 -0.181585 0
M  V30 6631 H 605.146 5.01781 1.59761 0
M  V30 6632 H 607.637 3.70274 0.755364 0
M  V30 6633 H 607.95 7.6722 0.92698 0
M  V30 6634 H 606.295 6.89898 0.840557 0
M  V30 6635 H 609.486 4.60263 0.852956 0
M  V30 6636 H 609.659 6.41271 0.931439 0
M  V30 6637 N 603.065 -0.440357 1.51323 0
M  V30 6638 C 603.995 -1.54174 1.75364 0
M  V30 6639 C 604.976 -1.59039 0.603375 0
M  V30 6640 O 606.161 -1.74815 0.845774 0
M  V30 6641 C 603.291 -2.92277 1.87593 0
M  V30 6642 C 602.245 -3.02274 3.03009 0
M  V30 6643 C 601.571 -4.42327 3.00418 0
M  V30 6644 C 602.871 -2.76634 4.43024 0
M  V30 6645 H 604.565 -1.34307 2.67585 0
M  V30 6646 H 602.111 -0.644678 1.28763 0
M  V30 6647 H 604.064 -3.69284 2.02995 0
M  V30 6648 H 602.788 -3.13369 0.920179 0
M  V30 6649 H 601.447 -2.27706 2.87307 0
M  V30 6650 H 601.095 -4.60382 2.02626 0
M  V30 6651 H 600.795 -4.49946 3.77918 0
M  V30 6652 H 602.319 -5.21312 3.17909 0
M  V30 6653 H 603.733 -3.43376 4.59093 0
M  V30 6654 H 602.13 -2.95666 5.22208 0
M  V30 6655 H 603.2 -1.72262 4.5327 0
M  V30 6656 N 604.543 -1.41418 -0.695603 0
M  V30 6657 C 605.473 -1.46035 -1.82197 0
M  V30 6658 C 606.454 -0.319025 -1.67082 0
M  V30 6659 O 607.639 -0.530462 -1.86815 0
M  V30 6660 C 604.769 -1.34179 -3.20333 0
M  V30 6661 C 603.723 -2.46123 -3.50154 0
M  V30 6662 C 603.049 -2.19332 -4.87645 0
M  V30 6663 C 604.349 -3.88463 -3.49133 0
M  V30 6664 H 606.043 -2.40303 -1.78591 0
M  V30 6665 H 603.589 -1.15663 -0.857797 0
M  V30 6666 H 605.542 -1.36021 -3.98844 0
M  V30 6667 H 604.266 -0.363952 -3.24566 0
M  V30 6668 H 602.925 -2.43563 -2.73994 0
M  V30 6669 H 602.573 -1.19891 -4.88503 0
M  V30 6670 H 602.273 -2.94344 -5.08562 0
M  V30 6671 H 603.797 -2.22889 -5.68465 0
M  V30 6672 H 605.211 -3.92738 -4.17648 0
M  V30 6673 H 603.608 -4.63158 -3.81582 0
M  V30 6674 H 604.678 -4.16617 -2.48109 0
M  V30 6675 N 606.021 0.929856 -1.27246 0
M  V30 6676 C 607.269 1.674 -1.13233 0
M  V30 6677 C 607.59 1.92311 0.322744 0
M  V30 6678 O 606.86 1.52784 1.22612 0
M  V30 6679 H 605.44 0.620411 -0.416052 0
M  V30 6680 H 608.102 1.11663 -1.59741 0
M  V30 6681 H 607.198 2.64308 -1.65975 0
M  V30 6682 N 607.499 1.09233 1.13605 0
M  V30 6683 C 608.91 0.846839 1.6639 0
M  V30 6684 C 609.261 -0.625031 1.85978 0
M  V30 6685 O 608.386 -1.48173 1.57714 0
M  V30 6686 C 608.981 1.5307 3.0225 0
M  V30 6687 C 607.54 1.33223 3.52035 0
M  V30 6688 C 606.687 1.58806 2.27323 0
M  V30 6689 H 609.638 1.25175 0.975541 0
M  V30 6690 H 609.659 0.96267 3.68121 0
M  V30 6691 H 609.171 2.60192 2.87961 0
M  V30 6692 H 607.272 0.282091 3.71531 0
M  V30 6693 H 607.385 2.0657 4.32279 0
M  V30 6694 H 605.749 1.01007 2.33815 0
M  V30 6695 H 606.532 2.67153 2.15602 0
M  V30 6696 N 608.977 -1.30795 0.87923 0
M  V30 6697 C 610.226 -1.95636 0.490875 0
M  V30 6698 C 610.539 -1.70214 -0.963674 0
M  V30 6699 O 611.745 -2.28991 -1.45861 0
M  V30 6700 C 610.201 -3.50271 0.826929 0
M  V30 6701 C 609.809 -3.84521 2.29886 0
M  V30 6702 C 611.553 -4.21456 0.507494 0
M  V30 6703 C 609.46 -5.32309 2.57685 0
M  V30 6704 H 608.39 -0.732238 0.179841 0
M  V30 6705 H 611.041 -1.48829 1.07341 0
M  V30 6706 H 609.423 -3.9562 0.173542 0
M  V30 6707 H 610.597 -3.50102 2.99609 0
M  V30 6708 H 608.912 -3.26425 2.58526 0
M  V30 6709 H 611.509 -5.30199 0.692293 0
M  V30 6710 H 611.852 -4.12614 -0.552718 0
M  V30 6711 H 612.385 -3.81772 1.11782 0
M  V30 6712 H 609.124 -5.46195 3.62424 0
M  V30 6713 H 608.644 -5.68048 1.92566 0
M  V30 6714 H 610.323 -5.99678 2.42889 0
M  V30 6715 N 610.455 -0.639598 -1.44038 0
M  V30 6716 C 611.365 0.0612377 -2.3452 0
M  V30 6717 C 612.381 0.826717 -1.53106 0
M  V30 6718 O 613.557 0.777059 -1.85806 0
M  V30 6719 C 610.622 1.02492 -3.31204 0
M  V30 6720 C 609.683 0.25788 -4.28525 0
M  V30 6721 C 608.916 1.17566 -5.2059 0
M  V30 6722 O 609.139 2.41461 -5.16771 0
M  V30 6723 O 608.073 0.655407 -5.98321 0
M  V30 6724 H 611.899 -0.68318 -2.95916 0
M  V30 6725 H 609.484 -0.399784 -1.43952 0
M  V30 6726 H 611.366 1.57911 -3.90694 0
M  V30 6727 H 610.041 1.7498 -2.7233 0
M  V30 6728 H 608.948 -0.339566 -3.72556 0
M  V30 6729 H 610.281 -0.427154 -4.90343 0
M  V30 6730 N 611.933 1.52934 -0.380664 0
M  V30 6731 C 613.21 1.93845 0.261417 0
M  V30 6732 C 613.59 1.31544 1.65104 0
M  V30 6733 O 612.938 0.480234 2.23397 0
M  V30 6734 C 613.148 3.47739 0.296466 0
M  V30 6735 C 614.496 4.21284 0.529578 0
M  V30 6736 O 615.52 3.54199 0.377041 0
M  V30 6737 O 614.379 5.40195 0.827753 0
M  V30 6738 H 611.473 0.811318 0.160285 0
M  V30 6739 H 614.019 1.64042 -0.434544 0
M  V30 6740 H 612.791 3.85395 -0.67724 0
M  V30 6741 H 612.414 3.8382 1.0377 0
M  V30 6742 N 613.412 0.11024 1.57214 0
M  V30 6743 C 614.661 -0.549638 1.94067 0
M  V30 6744 C 614.974 -1.68388 0.995234 0
M  V30 6745 O 616.18 -2.40593 1.25807 0
M  V30 6746 C 614.636 -1.02912 3.44873 0
M  V30 6747 C 614.244 0.0761861 4.47935 0
M  V30 6748 C 615.988 -1.66087 3.9066 0
M  V30 6749 C 613.895 -0.419502 5.8991 0
M  V30 6750 H 612.825 -0.209092 0.724428 0
M  V30 6751 H 615.476 0.188683 1.82527 0
M  V30 6752 H 613.858 -1.82159 3.51616 0
M  V30 6753 H 615.032 0.852185 4.52851 0
M  V30 6754 H 613.347 0.614052 4.11847 0
M  V30 6755 H 615.944 -2.04272 4.94143 0
M  V30 6756 H 616.287 -2.53591 3.30148 0
M  V30 6757 H 616.82 -0.933959 3.86681 0
M  V30 6758 H 613.559 0.419277 6.54158 0
M  V30 6759 H 613.079 -1.16217 5.88433 0
M  V30 6760 H 614.758 -0.883577 6.40938 0
M  V30 6761 N 614.89 -1.56749 -0.16351 0
M  V30 6762 C 615.82 -2.00042 -1.20438 0
M  V30 6763 C 616.801 -0.877256 -1.45733 0
M  V30 6764 O 617.986 -1.1439 -1.56935 0
M  V30 6765 C 615.116 -2.36697 -2.54149 0
M  V30 6766 C 614.07 -3.52046 -2.43408 0
M  V30 6767 C 613.396 -3.74466 -3.81679 0
M  V30 6768 C 614.696 -4.85247 -1.93216 0
M  V30 6769 H 616.39 -2.87244 -0.844477 0
M  V30 6770 H 613.936 -1.38194 -0.40478 0
M  V30 6771 H 615.889 -2.65582 -3.27176 0
M  V30 6772 H 614.613 -1.46414 -2.91943 0
M  V30 6773 H 613.272 -3.23301 -1.72834 0
M  V30 6774 H 612.92 -2.81461 -4.1688 0
M  V30 6775 H 612.62 -4.52084 -3.75359 0
M  V30 6776 H 614.144 -4.0576 -4.5628 0
M  V30 6777 H 615.558 -5.12957 -2.56023 0
M  V30 6778 H 613.955 -5.66556 -1.97825 0
M  V30 6779 H 615.025 -4.7672 -0.88689 0
M  V30 6780 N 616.368 0.432326 -1.51554 0
M  V30 6781 C 617.318 1.52366 -1.69614 0
M  V30 6782 C 618.302 1.51205 -0.550083 0
M  V30 6783 O 619.494 1.57573 -0.806206 0
M  V30 6784 C 616.623 2.90513 -1.82913 0
M  V30 6785 C 615.709 2.9641 -3.03318 0
M  V30 6786 N 616.1 2.72043 -4.26411 0
M  V30 6787 C 614.398 3.27572 -3.02675 0
M  V30 6788 C 615.099 2.83912 -5.07709 0
M  V30 6789 N 614.075 3.15798 -4.42462 0
M  V30 6790 H 617.877 1.32285 -2.62446 0
M  V30 6791 H 615.391 0.639708 -1.4927 0
M  V30 6792 H 617.388 3.69032 -1.93962 0
M  V30 6793 H 616.048 3.1161 -0.912655 0
M  V30 6794 H 617.059 2.46876 -4.55272 0
M  V30 6795 H 613.736 3.54411 -2.20678 0
M  V30 6796 H 615.126 2.68984 -6.15709 0
M  V30 6797 N 617.846 1.41785 0.688094 0
M  V30 6798 C 619.262 1.24419 0.999608 0
M  V30 6799 C 619.462 0.138868 2.01021 0
M  V30 6800 O 618.518 -0.494283 2.47615 0
M  V30 6801 C 619.831 2.59625 1.51709 0
M  V30 6802 C 621.379 2.66869 1.63554 0
M  V30 6803 C 621.854 4.0241 2.18702 0
M  V30 6804 N 623.345 4.04295 2.26053 0
M  V30 6805 C 624.08 5.05977 2.69768 0
M  V30 6806 N 623.576 6.18047 3.13033 0
M  V30 6807 N 625.369 4.93336 2.69398 0
M  V30 6808 H 617.52 2.12392 0.0187427 0
M  V30 6809 H 619.783 0.945347 0.0708673 0
M  V30 6810 H 619.489 3.41297 0.849059 0
M  V30 6811 H 619.363 2.82628 2.49803 0
M  V30 6812 H 621.75 1.8555 2.29467 0
M  V30 6813 H 621.831 2.47668 0.639857 0
M  V30 6814 H 621.475 4.8418 1.53402 0
M  V30 6815 H 621.405 4.18955 3.19037 0
M  V30 6816 H 623.896 3.23383 1.9553 0
M  V30 6817 H 624.209 6.91498 3.45038 0
M  V30 6818 H 622.554 6.21572 3.10923 0
M  V30 6819 H 625.745 4.04865 2.34952 0
M  V30 6820 H 625.918 5.72717 3.03148 0
M  V30 6821 N 619.324 -0.923095 1.27737 0
M  V30 6822 C 620.272 -2.04567 1.10703 0
M  V30 6823 C 621.266 -1.69375 0.0288445 0
M  V30 6824 O 622.472 -1.79027 0.186913 0
M  V30 6825 H 618.847 -0.670109 0.34126 0
M  V30 6826 H 620.818 -2.1608 2.05796 0
M  V30 6827 C 619.567 -3.38934 0.775837 0
M  V30 6828 H 618.89 -3.66501 1.59741 0
M  V30 6829 H 620.33 -4.18239 0.696548 0
M  V30 6830 C 618.789 -3.32863 -0.520012 0
M  V30 6831 O 619.319 -3.70462 -1.55308 0
M  V30 6832 N 617.525 -2.85958 -0.51732 0
M  V30 6833 H 617.072 -2.55557 0.32379 0
M  V30 6834 H 617.03 -2.82279 -1.38441 0
M  V30 6835 N 620.802 -1.09834 -1.13024 0
M  V30 6836 C 622.048 -0.83819 -1.84668 0
M  V30 6837 C 622.381 0.634645 -1.83537 0
M  V30 6838 O 621.656 1.46753 -1.27647 0
M  V30 6839 C 621.939 -1.37933 -3.32636 0
M  V30 6840 C 621.792 -2.91857 -3.42257 0
M  V30 6841 C 623.111 -1.01654 -4.28199 0
M  V30 6842 H 620.23 -0.30595 -0.670495 0
M  V30 6843 H 622.872 -1.36044 -1.32635 0
M  V30 6844 H 621.022 -0.935111 -3.77078 0
M  V30 6845 H 622.694 -3.44759 -3.06495 0
M  V30 6846 H 620.937 -3.28776 -2.83 0
M  V30 6847 H 621.608 -3.24799 -4.46329 0
M  V30 6848 H 624.084 -1.39973 -3.9185 0
M  V30 6849 H 622.96 -1.42217 -5.30156 0
M  V30 6850 H 623.221 0.0747794 -4.42037 0
M  V30 6851 N 622.28 1.30327 -0.886154 0
M  V30 6852 C 623.19 2.31854 -0.357866 0
M  V30 6853 C 624.206 1.65392 0.540502 0
M  V30 6854 O 625.382 1.96683 0.433339 0
M  V30 6855 C 622.447 3.44171 0.417999 0
M  V30 6856 C 621.508 4.26257 -0.510263 0
M  V30 6857 C 620.741 5.3321 0.228669 0
M  V30 6858 O 620.964 5.51542 1.45458 0
M  V30 6859 O 619.898 6.0042 -0.421832 0
M  V30 6860 H 623.724 2.78995 -1.19982 0
M  V30 6861 H 621.309 1.34518 -0.650028 0
M  V30 6862 H 623.191 4.12588 0.857251 0
M  V30 6863 H 621.866 2.99164 1.23623 0
M  V30 6864 H 620.773 3.60533 -0.99835 0
M  V30 6865 H 622.106 4.74871 -1.29454 0
M  V30 6866 N 623.758 0.647228 1.43697 0
M  V30 6867 C 624.706 -0.0600105 2.32523 0
M  V30 6868 C 625.7 -0.819277 1.48271 0
M  V30 6869 O 626.906 -0.730356 1.64517 0
M  V30 6870 H 623.281 -0.0381872 0.75103 0
M  V30 6871 H 625.252 0.706978 2.89904 0
M  V30 6872 C 624.001 -1.0169 3.32497 0
M  V30 6873 H 623.324 -0.442083 3.97348 0
M  V30 6874 H 624.764 -1.48095 3.97296 0
M  V30 6875 C 623.223 -2.11002 2.6264 0
M  V30 6876 O 623.753 -3.19302 2.4374 0
M  V30 6877 N 621.959 -1.87388 2.22113 0
M  V30 6878 H 621.506 -0.993174 2.37684 0
M  V30 6879 H 621.464 -2.60723 1.75701 0
M  V30 6880 N 625.236 -1.5273 0.388769 0
M  V30 6881 C 626.466 -2.05693 -0.193397 0
M  V30 6882 C 626.874 -1.26038 -1.41107 0
M  V30 6883 O 626.217 -0.30001 -1.81234 0
M  V30 6884 C 626.279 -3.53962 -0.628561 0
M  V30 6885 C 625.943 -4.54519 0.475576 0
M  V30 6886 C 626.94 -5.02526 1.33281 0
M  V30 6887 C 624.625 -4.98174 0.642453 0
M  V30 6888 C 626.619 -5.92812 2.34205 0
M  V30 6889 C 624.306 -5.88262 1.65503 0
M  V30 6890 C 625.304 -6.35473 2.50325 0
M  V30 6891 O 624.992 -7.23781 3.49852 0
M  V30 6892 H 624.724 -0.675197 -0.0329395 0
M  V30 6893 H 627.278 -1.97835 0.552326 0
M  V30 6894 H 625.508 -3.59437 -1.42625 0
M  V30 6895 H 627.197 -3.89669 -1.13633 0
M  V30 6896 H 627.963 -4.6953 1.21519 0
M  V30 6897 H 623.842 -4.60999 -0.00805093 0
M  V30 6898 H 627.386 -6.29585 3.00447 0
M  V30 6899 H 623.283 -6.20672 1.77304 0
M  V30 6900 H 624.051 -7.4184 3.45855 0
M  V30 6901 N 626.714 -0.118576 -1.57153 0
M  V30 6902 C 627.661 0.831789 -2.1529 0
M  V30 6903 C 628.631 1.26385 -1.07778 0
M  V30 6904 O 629.816 1.34144 -1.35684 0
M  V30 6905 C 626.956 2.07664 -2.75626 0
M  V30 6906 C 626.069 1.69298 -3.97444 0
M  V30 6907 C 625.204 2.88747 -4.45868 0
M  V30 6908 C 624.243 2.46619 -5.60219 0
M  V30 6909 N 623.38 3.5898 -6.03389 0
M  V30 6910 H 628.22 0.329183 -2.96176 0
M  V30 6911 H 625.757 0.150792 -1.46325 0
M  V30 6912 H 627.715 2.80601 -3.08738 0
M  V30 6913 H 626.345 2.55384 -1.97431 0
M  V30 6914 H 625.397 0.862374 -3.70496 0
M  V30 6915 H 626.709 1.34338 -4.80369 0
M  V30 6916 H 625.863 3.69909 -4.80887 0
M  V30 6917 H 624.602 3.26933 -3.61892 0
M  V30 6918 H 623.607 1.63889 -5.24805 0
M  V30 6919 H 624.832 2.0955 -6.45961 0
M  V30 6920 H 622.778 3.9684 -5.22354 0
M  V30 6921 H 622.695 3.27942 -6.81168 0
M  V30 6922 H 623.963 4.40583 -6.43045 0
M  V30 6923 N 628.193 1.56834 0.155195 0
M  V30 6924 C 629.14 1.97646 1.19184 0
M  V30 6925 C 630.11 0.842788 1.4313 0
M  V30 6926 O 631.295 1.1042 1.55602 0
M  V30 6927 C 628.435 2.35527 2.52232 0
M  V30 6928 C 627.548 3.62147 2.35529 0
M  V30 6929 C 626.683 3.89167 3.61555 0
M  V30 6930 C 625.722 5.09084 3.39853 0
M  V30 6931 N 624.859 5.32156 4.5799 0
M  V30 6932 H 629.699 2.8601 0.836802 0
M  V30 6933 H 627.236 1.41507 0.401758 0
M  V30 6934 H 629.194 2.55516 3.29799 0
M  V30 6935 H 627.824 1.50253 2.85699 0
M  V30 6936 H 626.876 3.4998 1.49057 0
M  V30 6937 H 628.188 4.49871 2.15448 0
M  V30 6938 H 627.342 4.09611 4.47553 0
M  V30 6939 H 626.081 2.9985 3.84632 0
M  V30 6940 H 625.086 4.88522 2.52243 0
M  V30 6941 H 626.311 5.99947 3.18183 0
M  V30 6942 H 624.257 4.45791 4.81255 0
M  V30 6943 H 624.174 6.14133 4.40882 0
M  V30 6944 H 625.442 5.57091 5.45225 0
M  V30 6945 N 629.671 -0.424282 1.51781 0
M  V30 6946 C 630.917 -1.17434 1.6534 0
M  V30 6947 C 631.25 -1.90549 0.374806 0
M  V30 6948 O 630.525 -1.84145 -0.626179 0
M  V30 6949 C 630.808 -2.18093 2.86544 0
M  V30 6950 C 630.661 -1.48975 4.24413 0
M  V30 6951 C 631.98 -3.18934 3.03264 0
M  V30 6952 H 629.099 -0.425566 0.601716 0
M  V30 6953 H 631.741 -0.461921 1.84299 0
M  V30 6954 H 629.891 -2.78849 2.7051 0
M  V30 6955 H 631.563 -0.914551 4.52143 0
M  V30 6956 H 629.806 -0.791893 4.26511 0
M  V30 6957 H 630.477 -2.22347 5.05238 0
M  V30 6958 H 632.953 -2.68243 3.18096 0
M  V30 6959 H 631.829 -3.86645 3.89611 0
M  V30 6960 H 632.09 -3.85793 2.15908 0
M  V30 6961 N 631.149 -1.42148 -0.680565 0
M  V30 6962 C 632.079 -1.4796 -1.80638 0
M  V30 6963 C 633.06 -0.336728 -1.66734 0
M  V30 6964 O 634.245 -0.550247 -1.86242 0
M  V30 6965 C 631.375 -1.37569 -3.18892 0
M  V30 6966 C 630.329 -2.49823 -3.47524 0
M  V30 6967 C 629.655 -2.24491 -4.85291 0
M  V30 6968 C 630.955 -3.92144 -3.44994 0
M  V30 6969 H 632.649 -2.42184 -1.76032 0
M  V30 6970 H 630.195 -1.16566 -0.845481 0
M  V30 6971 H 632.148 -1.40243 -3.97379 0
M  V30 6972 H 630.872 -0.398357 -3.24162 0
M  V30 6973 H 629.531 -2.46455 -2.71395 0
M  V30 6974 H 629.179 -1.25066 -4.87204 0
M  V30 6975 H 628.879 -2.99722 -5.05411 0
M  V30 6976 H 630.403 -2.28906 -5.66069 0
M  V30 6977 H 631.817 -3.97145 -4.13459 0
M  V30 6978 H 630.214 -4.67179 -3.76648 0
M  V30 6979 H 631.284 -4.19225 -2.43676 0
M  V30 6980 N 632.627 0.916307 -1.28225 0
M  V30 6981 C 633.575 2.03977 -1.11786 0
M  V30 6982 C 634.569 1.69358 -0.0378265 0
M  V30 6983 O 635.775 1.78925 -0.196405 0
M  V30 6984 H 632.15 0.66829 -0.344809 0
M  V30 6985 H 634.121 2.14985 -2.06939 0
M  V30 6986 C 632.87 3.38518 -0.7938 0
M  V30 6987 H 632.193 3.65649 -1.61682 0
M  V30 6988 H 633.633 4.17864 -0.718719 0
M  V30 6989 C 632.092 3.33134 0.502353 0
M  V30 6990 O 632.622 3.71281 1.53341 0
M  V30 6991 N 630.828 2.86229 0.502147 0
M  V30 6992 H 630.375 2.55382 -0.337338 0
M  V30 6993 H 630.333 2.83009 1.36942 0
M  V30 6994 N 634.105 1.10431 1.1244 0
M  V30 6995 C 635.015 0.765502 2.21759 0
M  V30 6996 C 636.031 -0.236966 1.72379 0
M  V30 6997 O 637.207 -0.0757329 2.01258 0
M  V30 6998 C 634.272 0.202316 3.46109 0
M  V30 6999 C 633.333 1.26205 4.1033 0
M  V30 7000 C 632.566 0.725648 5.28744 0
M  V30 7001 O 632.789 -0.447942 5.68638 0
M  V30 7002 O 631.723 1.48555 5.83279 0
M  V30 7003 H 635.549 1.67801 2.53133 0
M  V30 7004 H 633.134 0.879443 1.20773 0
M  V30 7005 H 635.016 -0.107918 4.21262 0
M  V30 7006 H 633.691 -0.683052 3.16411 0
M  V30 7007 H 632.598 1.62514 3.36957 0
M  V30 7008 H 633.931 2.12044 4.44183 0
M  V30 7009 N 635.583 -1.29855 0.893053 0
M  V30 7010 C 636.513 -2.3035 0.382249 0
M  V30 7011 C 637.494 -1.61328 -0.539203 0
M  V30 7012 O 638.679 -1.88882 -0.451342 0
M  V30 7013 C 635.809 -3.45024 -0.396983 0
M  V30 7014 C 634.763 -4.258 0.433437 0
M  V30 7015 C 634.089 -5.32605 -0.472889 0
M  V30 7016 C 635.389 -4.94549 1.67984 0
M  V30 7017 H 637.083 -2.73325 1.22205 0
M  V30 7018 H 634.629 -1.314 0.589073 0
M  V30 7019 H 636.582 -4.14398 -0.765024 0
M  V30 7020 H 635.306 -3.00875 -1.2705 0
M  V30 7021 H 633.965 -3.58125 0.783723 0
M  V30 7022 H 633.613 -4.84702 -1.34435 0
M  V30 7023 H 633.313 -5.87547 0.0789958 0
M  V30 7024 H 634.837 -6.04832 -0.837269 0
M  V30 7025 H 636.251 -5.56395 1.38192 0
M  V30 7026 H 634.648 -5.59393 2.17254 0
M  V30 7027 H 635.718 -4.20215 2.41965 0
M  V30 7028 N 637.061 -0.65484 -1.43351 0
M  V30 7029 C 638.309 -0.168559 -2.01396 0
M  V30 7030 C 638.63 1.22235 -1.51933 0
M  V30 7031 O 637.9 1.81685 -0.732627 0
M  V30 7032 H 636.48 -0.0593244 -0.744641 0
M  V30 7033 H 639.142 -0.846871 -1.75539 0
M  V30 7034 H 638.238 -0.154428 -3.11718 0
M  V30 7035 N 638.539 1.52521 -0.396863 0
M  V30 7036 C 639.469 2.29582 0.425941 0
M  V30 7037 C 640.45 1.33281 1.05689 0
M  V30 7038 O 641.635 1.62181 1.06823 0
M  V30 7039 C 638.765 3.10821 1.54943 0
M  V30 7040 C 637.719 4.15069 1.04413 0
M  V30 7041 C 637.045 4.84578 2.26028 0
M  V30 7042 C 638.345 5.22191 0.106767 0
M  V30 7043 H 640.039 2.98612 -0.217045 0
M  V30 7044 H 637.585 1.43611 -0.105826 0
M  V30 7045 H 639.538 3.63492 2.13193 0
M  V30 7046 H 638.262 2.39538 2.22011 0
M  V30 7047 H 636.921 3.63389 0.484118 0
M  V30 7048 H 636.569 4.09835 2.91623 0
M  V30 7049 H 636.269 5.55043 1.92876 0
M  V30 7050 H 637.793 5.40056 2.84906 0
M  V30 7051 H 639.207 5.70176 0.597685 0
M  V30 7052 H 637.604 5.99947 -0.135352 0
M  V30 7053 H 638.674 4.77531 -0.842134 0
M  V30 7054 N 640.017 0.126909 1.57088 0
M  V30 7055 C 641.294 -0.573152 1.87014 0
M  V30 7056 C 641.674 -1.84297 1.02945 0
M  V30 7057 O 641.022 -2.28232 0.110573 0
M  V30 7058 C 641.232 -0.857984 3.38289 0
M  V30 7059 C 642.58 -1.20759 4.07066 0
M  V30 7060 O 643.604 -0.947992 3.43353 0
M  V30 7061 O 642.463 -1.69516 5.19545 0
M  V30 7062 H 639.557 -0.290082 0.774456 0
M  V30 7063 H 642.103 0.162008 1.68925 0
M  V30 7064 H 640.875 0.0415286 3.91278 0
M  V30 7065 H 640.498 -1.64803 3.61837 0
M  V30 7066 N 641.495 -1.56914 -0.146875 0
M  V30 7067 C 642.723 -1.87515 -0.874394 0
M  V30 7068 C 643.138 -0.715116 -1.74733 0
M  V30 7069 O 642.495 0.315113 -1.79759 0
M  V30 7070 C 642.546 -3.17362 -1.731 0
M  V30 7071 O 642.267 -4.28897 -0.893245 0
M  V30 7072 C 643.768 -3.61479 -2.56609 0
M  V30 7073 H 640.988 -0.621546 -0.252827 0
M  V30 7074 H 643.532 -2.04023 -0.139627 0
M  V30 7075 H 641.687 -3.02608 -2.41883 0
M  V30 7076 H 642.101 -5.03146 -1.48137 0
M  V30 7077 H 643.575 -4.5517 -3.12289 0
M  V30 7078 H 644.052 -2.86773 -3.32653 0
M  V30 7079 H 644.658 -3.78927 -1.93117 0
M  V30 7080 N 642.974 0.416227 -1.52004 0
M  V30 7081 C 644.202 1.18573 -1.69553 0
M  V30 7082 C 644.617 1.84472 -0.401919 0
M  V30 7083 O 643.974 1.71593 0.621463 0
M  V30 7084 C 644.025 2.25413 -2.82615 0
M  V30 7085 O 643.746 1.62205 -4.06966 0
M  V30 7086 C 645.247 3.15297 -3.11613 0
M  V30 7087 H 642.467 0.356582 -0.56841 0
M  V30 7088 H 645.011 0.490618 -1.98528 0
M  V30 7089 H 643.166 2.90604 -2.56179 0
M  V30 7090 H 643.58 2.3298 -4.69916 0
M  V30 7091 H 645.054 3.86351 -3.94255 0
M  V30 7092 H 645.531 3.77264 -2.24874 0
M  V30 7093 H 646.137 2.55783 -3.39787 0
M  V30 7094 N 644.452 1.42507 0.673017 0
M  V30 7095 C 645.692 1.44559 1.44507 0
M  V30 7096 C 646.056 0.0606206 1.91904 0
M  V30 7097 O 647.257 -0.044139 2.68764 0
M  V30 7098 C 645.528 2.44291 2.60877 0
M  V30 7099 S 647.087 2.65059 3.49699 0
M  V30 7100 H 643.905 0.51181 0.49353 0
M  V30 7101 H 646.507 1.79124 0.783256 0
M  V30 7102 H 645.211 3.43685 2.24297 0
M  V30 7103 H 644.742 2.11157 3.31928 0
M  V30 7104 H 646.757 1.93494 4.56919 0
M  V30 7105 N 645.93 -0.909495 1.28709 0
M  V30 7106 C 647.179 -1.65365 1.15487 0
M  V30 7107 C 647.492 -1.93364 -0.294941 0
M  V30 7108 O 648.698 -2.65905 -0.548338 0
M  V30 7109 C 647.154 -2.97923 2.01916 0
M  V30 7110 C 646.762 -2.77556 3.51663 0
M  V30 7111 C 648.506 -3.75814 1.97393 0
M  V30 7112 C 646.413 -4.0578 4.30229 0
M  V30 7113 H 645.343 -0.620323 0.42862 0
M  V30 7114 H 647.994 -1.00894 1.53273 0
M  V30 7115 H 646.376 -3.63552 1.5699 0
M  V30 7116 H 647.55 -2.2058 4.04575 0
M  V30 7117 H 645.865 -2.13072 3.57756 0
M  V30 7118 H 648.462 -4.70866 2.53357 0
M  V30 7119 H 648.805 -4.05277 0.951643 0
M  V30 7120 H 649.338 -3.1701 2.40311 0
M  V30 7121 H 646.077 -3.81488 5.33055 0
M  V30 7122 H 645.597 -4.62351 3.82089 0
M  V30 7123 H 647.276 -4.74004 4.40374 0
M  V30 7124 N 647.408 -1.11026 -1.11852 0
M  V30 7125 C 648.685 -0.768347 -1.79877 0
M  V30 7126 C 649.065 0.744261 -1.97545 0
M  V30 7127 O 648.413 1.67271 -1.55669 0
M  V30 7128 C 648.623 -1.52648 -3.13846 0
M  V30 7129 C 649.971 -1.70297 -3.88953 0
M  V30 7130 O 650.995 -1.49037 -3.23522 0
M  V30 7131 O 649.854 -2.05593 -5.06353 0
M  V30 7132 H 646.948 -0.277891 -0.778913 0
M  V30 7133 H 649.494 -1.21343 -1.18633 0
M  V30 7134 H 648.266 -2.55564 -2.96315 0
M  V30 7135 H 647.889 -1.07466 -3.82801 0
M  V30 7136 N 648.886 1.2938 -0.899927 0
M  V30 7137 C 649.796 2.31462 -0.382437 0
M  V30 7138 C 650.812 1.65956 0.522929 0
M  V30 7139 O 651.988 1.97131 0.412454 0
M  V30 7140 C 649.053 3.44595 0.381472 0
M  V30 7141 C 648.114 4.25692 -0.555444 0
M  V30 7142 C 647.347 5.33422 0.172102 0
M  V30 7143 O 647.57 5.53053 1.396 0
M  V30 7144 O 646.504 5.99939 -0.485491 0
M  V30 7145 H 650.33 2.77706 -1.22934 0
M  V30 7146 H 647.915 1.33821 -0.664259 0
M  V30 7147 H 649.797 4.13474 0.813442 0
M  V30 7148 H 648.472 3.00458 1.20443 0
M  V30 7149 H 647.379 3.59453 -1.03653 0
M  V30 7150 H 648.712 4.73471 -1.34483 0
M  V30 7151 N 650.364 0.662433 1.43002 0
M  V30 7152 C 651.312 -0.035345 2.32573 0
M  V30 7153 C 652.306 -0.803505 1.49131 0
M  V30 7154 O 653.512 -0.712865 1.65282 0
M  V30 7155 H 649.887 -0.0302194 0.751393 0
M  V30 7156 H 651.858 0.737686 2.89138 0
M  V30 7157 C 650.607 -0.981575 3.33557 0
M  V30 7158 H 649.93 -0.399914 3.97795 0
M  V30 7159 H 651.37 -1.43873 3.98844 0
M  V30 7160 C 649.829 -2.08204 2.64863 0
M  V30 7161 O 650.359 -3.16698 2.47113 0
M  V30 7162 N 648.565 -1.85022 2.24088 0
M  V30 7163 H 648.112 -0.967909 2.38724 0
M  V30 7164 H 648.07 -2.58845 1.78457 0
M  V30 7165 O 651.881 -1.51951 0.5471 0
M  V30 7166 H 652.572 -1.93655 0.0418362 0
M  V30 END ATOM
M  V30 BEGIN BOND
M  V30 END BOND
M  V30 END CTAB
M  END
$$$$
