drugbank_target|Q7KZA3 Ferrochelatase (DB02659)
 OpenBabel12092120443D

  0  0  0     0  0            999 V3000
M  V30 BEGIN CTAB
M  V30 COUNTS 6648 6729 0 0 0
M  V30 BEGIN ATOM
M  V30 1 H -0.908 1.98254 -0.117106 0
M  V30 2 N 0 1.576 0 0
M  V30 3 C 0.933 2.03868 1.02534 0
M  V30 4 C 1.911 0.928543 1.3348 0
M  V30 5 O 3.095 1.19667 1.45644 0
M  V30 6 C 0.222 2.43627 2.35294 0
M  V30 7 C -0.732 3.65373 2.2001 0
M  V30 8 S 0.101 5.13292 1.52614 0
M  V30 9 C 1.257 5.56322 2.86805 0
M  V30 10 H 1.49 2.90518 0.631377 0
M  V30 11 H -0.977 1.52953 0.210867 0
M  V30 12 H 0.981 2.67203 3.11629 0
M  V30 13 H -0.358 1.57376 2.7183 0
M  V30 14 H -1.165 3.90944 3.18086 0
M  V30 15 H -1.563 3.418 1.51819 0
M  V30 16 H 0.729 5.58782 3.83104 0
M  V30 17 H 1.672 6.56266 2.65933 0
M  V30 18 H 2.08 4.83886 2.90714 0
M  V30 19 N 1.4781 -0.272755 1.55222 0
M  V30 20 C 2.4411 -1.32041 1.87344 0
M  V30 21 C 3.4411 -1.42342 0.74803 0
M  V30 22 O 4.6311 -1.41488 1.0162 0
M  V30 23 C 1.7631 -2.70173 2.07893 0
M  V30 24 H 2.9561 -1.04789 2.80997 0
M  V30 25 H 0.5091 -0.51083 1.47717 0
M  V30 26 H 1.2441 -3.02605 1.16622 0
M  V30 27 H 1.0291 -2.64082 2.89833 0
M  V30 28 H 2.5191 -3.45869 2.34017 0
M  V30 29 N 2.9562 -1.48159 -0.537278 0
M  V30 30 C 3.9192 -1.61665 -1.62472 0
M  V30 31 C 4.9192 -0.490395 -1.5314 0
M  V30 32 O 6.1092 -0.755998 -1.5694 0
M  V30 33 C 3.2412 -1.57997 -3.02076 0
M  V30 34 H 4.4342 -2.58621 -1.51839 0
M  V30 35 H 1.9872 -1.36647 -0.758771 0
M  V30 36 H 2.7222 -0.624913 -3.18222 0
M  V30 37 H 2.5072 -2.39755 -3.10258 0
M  V30 38 H 3.9972 -1.70627 -3.81151 0
M  V30 39 N 4.4343 0.785586 -1.36625 0
M  V30 40 C 5.3973 1.87999 -1.31107 0
M  V30 41 C 6.3973 1.59316 -0.217959 0
M  V30 42 O 7.5873 1.67656 -0.472977 0
M  V30 43 C 4.7193 3.24861 -1.03334 0
M  V30 44 H 5.9123 1.94307 -2.2844 0
M  V30 45 H 3.4653 0.983813 -1.21453 0
M  V30 46 H 4.2003 3.24235 -0.0647432 0
M  V30 47 H 3.9853 3.4707 -1.82441 0
M  V30 48 H 5.4753 4.04929 -1.02088 0
M  V30 49 N 5.9124 1.20967 1.01018 0
M  V30 50 C 6.8424 0.988272 2.11555 0
M  V30 51 C 7.8234 -0.0849778 1.69888 0
M  V30 52 O 9.0084 0.0738202 1.9406 0
M  V30 53 C 6.1384 0.546528 3.42973 0
M  V30 54 C 5.0924 1.56375 3.9841 0
M  V30 55 C 4.4184 0.97842 5.25672 0
M  V30 56 C 5.7184 2.94922 4.31066 0
M  V30 57 H 7.4124 1.91276 2.30334 0
M  V30 58 H 4.9584 0.921073 1.1069 0
M  V30 59 H 6.9114 0.378839 4.19694 0
M  V30 60 H 5.6354 -0.413598 3.23971 0
M  V30 61 H 4.2944 1.71891 3.23804 0
M  V30 62 H 3.9424 0.0101688 5.02999 0
M  V30 63 H 3.6424 1.65784 5.63728 0
M  V30 64 H 5.1664 0.821939 6.05043 0
M  V30 65 H 6.5804 2.8288 4.9865 0
M  V30 66 H 4.9774 3.5983 4.80253 0
M  V30 67 H 6.0474 3.4616 3.39561 0
M  V30 68 N 7.3905 -1.2043 1.01659 0
M  V30 69 C 8.8065 -1.41852 0.731442 0
M  V30 70 C 9.0065 -1.89358 -0.688898 0
M  V30 71 O 8.0625 -2.06247 -1.45666 0
M  V30 72 C 9.3755 -2.44019 1.75714 0
M  V30 73 C 10.9235 -2.57785 1.77527 0
M  V30 74 C 11.3985 -3.63194 2.79023 0
M  V30 75 N 12.8895 -3.70678 2.77763 0
M  V30 76 C 13.6245 -4.51897 3.52954 0
M  V30 77 N 13.1205 -5.36921 4.37821 0
M  V30 78 N 14.9135 -4.4643 3.41551 0
M  V30 79 H 7.0645 -0.879093 1.93354 0
M  V30 80 H 9.3275 -0.448425 0.835236 0
M  V30 81 H 9.0335 -2.1611 2.77469 0
M  V30 82 H 8.9075 -3.43007 1.56927 0
M  V30 83 H 11.2945 -2.85023 0.764569 0
M  V30 84 H 11.3755 -1.58992 2.00387 0
M  V30 85 H 11.0195 -3.36699 3.80258 0
M  V30 86 H 10.9495 -4.61609 2.53425 0
M  V30 87 H 13.4405 -3.09944 2.16201 0
M  V30 88 H 13.7535 -5.95981 4.91962 0
M  V30 89 H 12.0985 -5.36424 4.41899 0
M  V30 90 H 15.2895 -3.79042 2.74672 0
M  V30 91 H 15.4625 -5.09491 4.00404 0
M  V30 92 N 8.8686 -0.792821 -1.36206 0
M  V30 93 C 9.8316 -0.199459 -2.2833 0
M  V30 94 C 10.8316 0.605189 -1.48977 0
M  V30 95 O 12.0216 0.425685 -1.68919 0
M  V30 96 C 9.1536 0.723523 -3.33134 0
M  V30 97 H 10.3466 -1.01181 -2.82316 0
M  V30 98 H 7.8996 -0.562485 -1.45828 0
M  V30 99 H 8.6346 1.56008 -2.84309 0
M  V30 100 H 8.4196 0.148436 -3.91819 0
M  V30 101 H 9.9096 1.13344 -4.01924 0
M  V30 102 N 10.3467 1.47872 -0.545128 0
M  V30 103 C 11.3097 2.28337 0.198717 0
M  V30 104 C 12.3097 1.36255 0.853888 0
M  V30 105 O 13.4997 1.59003 0.711606 0
M  V30 106 C 10.6317 3.15585 1.28915 0
M  V30 107 H 11.8247 2.95567 -0.507941 0
M  V30 108 H 9.3777 1.53362 -0.301616 0
M  V30 109 H 10.1127 2.53019 2.02859 0
M  V30 110 H 9.8977 3.83337 0.824309 0
M  V30 111 H 11.3877 3.76243 1.81194 0
M  V30 112 N 11.8248 0.280983 1.55075 0
M  V30 113 C 13.0728 -0.333455 1.9933 0
M  V30 114 C 13.3938 -1.55937 1.17085 0
M  V30 115 O 12.6638 -1.94143 0.261805 0
M  V30 116 H 11.2438 -0.126197 0.736263 0
M  V30 117 H 13.9058 0.387678 1.91005 0
M  V30 118 H 13.0018 -0.619292 3.05894 0
M  V30 119 N 13.3029 -1.57598 0.00835791 0
M  V30 120 C 14.5489 -1.91211 -0.675732 0
M  V30 121 C 14.8819 -0.883139 -1.72958 0
M  V30 122 O 14.1569 0.097016 -1.94258 0
M  V30 123 C 14.4399 -3.35379 -1.31123 0
M  V30 124 C 14.2929 -4.48999 -0.268356 0
M  V30 125 C 15.6119 -3.7912 -2.23508 0
M  V30 126 H 12.7309 -0.695374 -0.244179 0
M  V30 127 H 15.3729 -1.89901 0.0613655 0
M  V30 128 H 13.5229 -3.36626 -1.93946 0
M  V30 129 H 15.1949 -4.59887 0.360844 0
M  V30 130 H 13.4379 -4.31873 0.408482 0
M  V30 131 H 14.1089 -5.46851 -0.752218 0
M  V30 132 H 16.5849 -3.79477 -1.70693 0
M  V30 133 H 15.4609 -4.80729 -2.64936 0
M  V30 134 H 15.7219 -3.13455 -3.11766 0
M  V30 135 N 14.781 0.264519 -1.55364 0
M  V30 136 C 15.711 1.33121 -1.91836 0
M  V30 137 C 16.692 1.51101 -0.781192 0
M  V30 138 O 17.877 1.64003 -1.04003 0
M  V30 139 C 15.007 2.68921 -2.19769 0
M  V30 140 C 13.961 2.65661 -3.35571 0
M  V30 141 C 13.287 4.05093 -3.49004 0
M  V30 142 C 14.587 2.24187 -4.71739 0
M  V30 143 H 16.281 1.02844 -2.81182 0
M  V30 144 H 13.827 0.493286 -1.35287 0
M  V30 145 H 15.78 3.43663 -2.43872 0
M  V30 146 H 14.504 3.00799 -1.27231 0
M  V30 147 H 13.163 1.93377 -3.1145 0
M  V30 148 H 12.811 4.34206 -2.53917 0
M  V30 149 H 12.511 4.03804 -4.26868 0
M  V30 150 H 14.035 4.81561 -3.75408 0
M  V30 151 H 15.449 2.88654 -4.9533 0
M  V30 152 H 13.846 2.34044 -5.52579 0
M  V30 153 H 14.916 1.19327 -4.69988 0
M  V30 154 N 16.2591 1.48442 0.529413 0
M  V30 155 C 17.1891 1.65902 1.64313 0
M  V30 156 C 18.1701 0.507897 1.6234 0
M  V30 157 O 19.3551 0.740503 1.79528 0
M  V30 158 C 16.4851 1.69911 3.02898 0
M  V30 159 C 15.4391 2.8453 3.19729 0
M  V30 160 C 14.7651 2.73629 4.59381 0
M  V30 161 C 16.0651 4.25821 3.02447 0
M  V30 162 H 17.7591 2.5914 1.49955 0
M  V30 163 H 15.3051 1.24709 0.719982 0
M  V30 164 H 17.2581 1.80715 3.80684 0
M  V30 165 H 15.9821 0.732524 3.18279 0
M  V30 166 H 14.6411 2.73283 2.44361 0
M  V30 167 H 14.2891 1.74938 4.71599 0
M  V30 168 H 13.9891 3.50541 4.71588 0
M  V30 169 H 15.5131 2.86401 5.39265 0
M  V30 170 H 16.9271 4.37898 3.70024 0
M  V30 171 H 15.3241 5.03735 3.26146 0
M  V30 172 H 16.3941 4.42244 1.98867 0
M  V30 173 N 17.7372 -0.778329 1.37039 0
M  V30 174 C 19.1532 -1.07796 1.17695 0
M  V30 175 C 19.3532 -2.01498 0.00860115 0
M  V30 176 O 18.4092 -2.43901 -0.653352 0
M  V30 177 C 19.7222 -1.68178 2.49272 0
M  V30 178 C 21.2702 -1.80467 2.55735 0
M  V30 179 C 21.7452 -2.44263 3.87427 0
M  V30 180 N 23.2362 -2.51721 3.88833 0
M  V30 181 C 23.9712 -3.01919 4.87476 0
M  V30 182 N 23.4672 -3.5234 5.96513 0
M  V30 183 N 25.2602 -3.00733 4.74885 0
M  V30 184 H 17.4112 -0.156032 2.11826 0
M  V30 185 H 19.6742 -0.131844 0.938787 0
M  V30 186 H 19.3802 -1.06796 3.35093 0
M  V30 187 H 19.2542 -2.67554 2.65885 0
M  V30 188 H 21.6412 -2.40984 1.70325 0
M  V30 189 H 21.7222 -0.798656 2.43013 0
M  V30 190 H 21.3662 -1.84388 4.73248 0
M  V30 191 H 21.2962 -3.45458 3.9745 0
M  V30 192 H 23.7872 -2.1603 3.10063 0
M  V30 193 H 24.1002 -3.89027 6.67741 0
M  V30 194 H 22.4452 -3.50462 6.00168 0
M  V30 195 H 25.6362 -2.60638 3.88826 0
M  V30 196 H 25.8092 -3.39545 5.51918 0
M  V30 197 N 19.2153 -1.21501 -1.00376 0
M  V30 198 C 20.4923 -0.941745 -1.71437 0
M  V30 199 C 20.8723 0.546114 -2.03914 0
M  V30 200 O 20.2203 1.51128 -1.71384 0
M  V30 201 C 20.4303 -1.82812 -2.97289 0
M  V30 202 C 21.7783 -2.07771 -3.70292 0
M  V30 203 O 22.8023 -1.80171 -3.07273 0
M  V30 204 O 21.6613 -2.54456 -4.83647 0
M  V30 205 H 18.7553 -0.353243 -0.747762 0
M  V30 206 H 21.3013 -1.32436 -1.06108 0
M  V30 207 H 20.0733 -2.83501 -2.69709 0
M  V30 208 H 19.6963 -1.4464 -3.70358 0
M  V30 209 N 20.6934 1.19889 -1.02296 0
M  V30 210 C 22.1044 1.71124 -0.746568 0
M  V30 211 C 22.4554 1.81939 0.734335 0
M  V30 212 O 21.5804 1.48639 1.57275 0
M  V30 213 C 22.1754 3.10804 -1.34857 0
M  V30 214 C 20.7344 3.59323 -1.1209 0
M  V30 215 C 19.8814 2.3635 -1.45031 0
M  V30 216 H 22.8324 1.04813 -1.19163 0
M  V30 217 H 22.8534 3.73186 -0.742437 0
M  V30 218 H 22.3654 3.029 -2.42638 0
M  V30 219 H 20.4664 3.7255 -0.0610337 0
M  V30 220 H 20.5794 4.4378 -1.80544 0
M  V30 221 H 18.9434 2.39399 -0.869487 0
M  V30 222 H 19.7264 2.31081 -2.53883 0
M  V30 223 N 22.1715 0.800033 1.35784 0
M  V30 224 C 23.1015 0.220184 2.3246 0
M  V30 225 C 24.0825 -0.65073 1.57161 0
M  V30 226 O 25.2675 -0.582359 1.85263 0
M  V30 227 C 22.3975 -0.637353 3.41402 0
M  V30 228 C 21.3515 0.134531 4.27789 0
M  V30 229 C 20.6775 -0.844285 5.27992 0
M  V30 230 C 21.9775 1.32979 5.05088 0
M  V30 231 H 23.6715 1.02787 2.81203 0
M  V30 232 H 21.2175 0.495717 1.35199 0
M  V30 233 H 23.1705 -1.05302 4.08031 0
M  V30 234 H 21.8945 -1.47785 2.91251 0
M  V30 235 H 20.5535 0.531296 3.6273 0
M  V30 236 H 20.2015 -1.68011 4.74111 0
M  V30 237 H 19.9015 -0.332184 5.8666 0
M  V30 238 H 21.4255 -1.2583 5.97494 0
M  V30 239 H 22.8395 0.98934 5.64699 0
M  V30 240 H 21.2365 1.77593 5.7322 0
M  V30 241 H 22.3065 2.11978 4.36111 0
M  V30 242 N 23.6496 -1.47581 0.552962 0
M  V30 243 C 24.6126 -2.28439 -0.186605 0
M  V30 244 C 25.6126 -1.36706 -0.84665 0
M  V30 245 O 26.8026 -1.59378 -0.703164 0
M  V30 246 C 23.9346 -3.16264 -1.2724 0
M  V30 247 H 25.1276 -2.95294 0.523609 0
M  V30 248 H 22.6806 -1.532 0.309745 0
M  V30 249 H 23.4156 -2.54091 -2.01514 0
M  V30 250 H 23.2006 -3.83769 -0.803968 0
M  V30 251 H 24.6906 -3.77198 -1.79196 0
M  V30 252 N 25.1277 -0.289203 -1.54924 0
M  V30 253 C 26.3527 0.329299 -2.04769 0
M  V30 254 C 26.7777 1.4763 -1.16564 0
M  V30 255 O 26.1357 1.80527 -0.167186 0
M  V30 256 C 26.1837 0.774438 -3.52186 0
M  V30 257 O 25.2877 1.88038 -3.67036 0
M  V30 258 H 24.6287 0.0659259 -0.660719 0
M  V30 259 H 27.1587 -0.42761 -2.00082 0
M  V30 260 H 27.1687 1.06642 -3.93816 0
M  V30 261 H 25.8437 -0.0646707 -4.1585 0
M  V30 262 H 24.4207 1.58985 -3.3731 0
M  V30 263 N 26.6058 1.57591 -0.0167156 0
M  V30 264 C 27.8308 1.9598 0.67872 0
M  V30 265 C 28.2558 0.892546 1.65575 0
M  V30 266 O 27.6138 -0.147772 1.80697 0
M  V30 267 C 27.6618 3.33468 1.37227 0
M  V30 268 O 26.7658 3.28954 2.48722 0
M  V30 269 H 26.1068 0.639339 0.17928 0
M  V30 270 H 28.6368 2.04463 -0.0748802 0
M  V30 271 H 28.6468 3.69417 1.7319 0
M  V30 272 H 27.3218 4.10694 0.656007 0
M  V30 273 H 25.8988 3.04705 2.14963 0
M  V30 274 N 28.0839 -0.256276 1.55502 0
M  V30 275 C 29.3089 -1.00766 1.81276 0
M  V30 276 C 29.7339 -1.78524 0.59252 0
M  V30 277 O 29.0919 -1.75413 -0.45827 0
M  V30 278 C 29.1399 -1.92869 3.04687 0
M  V30 279 O 28.2439 -3.019 2.80945 0
M  V30 280 H 27.5849 -0.287224 0.598664 0
M  V30 281 H 30.1149 -0.280109 2.02674 0
M  V30 282 H 30.1249 -2.34511 3.33869 0
M  V30 283 H 28.7999 -1.35689 3.93143 0
M  V30 284 H 27.3769 -2.64454 2.62904 0
M  V30 285 N 29.562 -1.4872 -0.521534 0
M  V30 286 C 30.808 -1.58378 -1.27624 0
M  V30 287 C 31.163 -0.258028 -1.90662 0
M  V30 288 O 30.456 0.739917 -1.76736 0
M  V30 289 C 30.65 -2.66497 -2.38148 0
M  V30 290 C 30.479 -4.09456 -1.85945 0
M  V30 291 C 29.249 -4.76495 -1.68168 0
M  V30 292 C 31.447 -4.95353 -1.3831 0
M  V30 293 N 29.429 -6.0384 -1.1068 0
M  V30 294 C 30.8 -6.13012 -0.928238 0
M  V30 295 C 32.855 -4.81512 -1.26692 0
M  V30 296 C 31.558 -7.18354 -0.368701 0
M  V30 297 C 33.584 -5.86984 -0.721368 0
M  V30 298 C 32.946 -7.03857 -0.276623 0
M  V30 299 H 29.045 -0.634045 -0.457724 0
M  V30 300 H 31.629 -1.85639 -0.587049 0
M  V30 301 H 29.8 -2.41043 -3.04553 0
M  V30 302 H 31.532 -2.65791 -3.05184 0
M  V30 303 H 28.287 -4.32962 -1.91939 0
M  V30 304 H 28.711 -6.71778 -0.839217 0
M  V30 305 H 33.353 -3.91487 -1.5968 0
M  V30 306 H 31.071 -8.08096 -0.0265122 0
M  V30 307 H 34.657 -5.78329 -0.634531 0
M  V30 308 H 33.537 -7.84077 0.138947 0
M  V30 309 N 31.0401 0.771051 -1.3745 0
M  V30 310 C 32.4561 1.07171 -1.18265 0
M  V30 311 C 32.6561 2.01491 -0.019287 0
M  V30 312 O 31.7121 2.44244 0.640408 0
M  V30 313 C 33.0251 1.66854 -2.50161 0
M  V30 314 C 34.5731 1.79109 -2.56689 0
M  V30 315 C 35.0481 2.42205 -3.88717 0
M  V30 316 N 36.5391 2.49655 -3.90162 0
M  V30 317 C 37.2741 2.9933 -4.8907 0
M  V30 318 N 36.7701 3.49172 -5.98374 0
M  V30 319 N 38.5631 2.9821 -4.76474 0
M  V30 320 H 30.7141 0.144796 -2.11906 0
M  V30 321 H 32.9771 0.126863 -0.939473 0
M  V30 322 H 32.6831 1.05017 -3.35655 0
M  V30 323 H 32.5571 2.6614 -2.673 0
M  V30 324 H 34.9441 2.40077 -1.71601 0
M  V30 325 H 35.0251 0.785757 -2.43433 0
M  V30 326 H 34.6691 1.81875 -4.74219 0
M  V30 327 H 34.5991 3.43345 -3.99276 0
M  V30 328 H 37.0901 2.14383 -3.11205 0
M  V30 329 H 37.4031 3.8548 -6.69795 0
M  V30 330 H 35.7481 3.47275 -6.02018 0
M  V30 331 H 38.9391 2.58572 -3.90203 0
M  V30 332 H 39.1121 3.36613 -5.53711 0
M  V30 333 N 32.5182 1.22032 0.997298 0
M  V30 334 C 33.7642 1.04376 1.73878 0
M  V30 335 C 34.0972 -0.420716 1.89588 0
M  V30 336 O 33.3722 -1.31202 1.43583 0
M  V30 337 C 33.6552 1.75047 3.14691 0
M  V30 338 C 33.5082 3.29062 3.06656 0
M  V30 339 C 34.8272 1.49928 4.13775 0
M  V30 340 H 31.9462 0.380578 0.631133 0
M  V30 341 H 34.5882 1.50312 1.16217 0
M  V30 342 H 32.7382 1.35996 3.63919 0
M  V30 343 H 34.4102 3.7753 2.65083 0
M  V30 344 H 32.6532 3.58967 2.43568 0
M  V30 345 H 33.3242 3.73683 4.06282 0
M  V30 346 H 35.8002 1.83842 3.73285 0
M  V30 347 H 34.6762 2.01878 5.10428 0
M  V30 348 H 34.9372 0.430929 4.39995 0
M  V30 349 N 33.9963 -1.19345 1.0293 0
M  V30 350 C 35.2363 -1.90738 0.734727 0
M  V30 351 C 35.6003 -1.7785 -0.723414 0
M  V30 352 O 36.8013 -2.43844 -1.13108 0
M  V30 353 C 35.0723 -3.37569 1.17396 0
M  V30 354 S 36.6313 -4.27176 1.00329 0
M  V30 355 H 33.4493 -0.658771 0.267474 0
M  V30 356 H 36.0513 -1.4428 1.31922 0
M  V30 357 H 34.7553 -3.44475 2.23081 0
M  V30 358 H 34.2863 -3.8906 0.582772 0
M  V30 359 H 36.3013 -4.96126 -0.0859152 0
M  V30 360 N 35.4744 -0.807222 -1.35358 0
M  V30 361 C 36.4064 -0.175717 -2.28525 0
M  V30 362 C 37.4194 0.625354 -1.5031 0
M  V30 363 O 38.6084 0.457611 -1.72535 0
M  V30 364 C 35.7084 0.773471 -3.29956 0
M  V30 365 C 34.8814 0.0186296 -4.37396 0
M  V30 366 C 33.9404 0.886395 -5.18681 0
M  V30 367 O 32.9664 0.337106 -5.68201 0
M  V30 368 N 34.1684 2.20839 -5.36852 0
M  V30 369 H 36.9334 -0.976091 -2.83359 0
M  V30 370 H 34.4944 -0.662737 -1.47714 0
M  V30 371 H 36.4864 1.35824 -3.81227 0
M  V30 372 H 35.0564 1.47465 -2.75632 0
M  V30 373 H 34.2764 -0.747349 -3.87051 0
M  V30 374 H 35.5644 -0.501577 -5.06322 0
M  V30 375 H 34.9624 2.67858 -4.98265 0
M  V30 376 H 33.5194 2.74237 -5.91301 0
M  V30 377 N 36.9525 1.47285 -0.560781 0
M  V30 378 C 38.3635 1.86258 -0.128343 0
M  V30 379 C 38.7145 1.46699 1.30284 0
M  V30 380 O 37.8395 0.871698 1.98067 0
M  V30 381 C 38.4345 3.38044 -0.22614 0
M  V30 382 C 36.9935 3.76096 0.151283 0
M  V30 383 C 36.1405 2.71335 -0.572084 0
M  V30 384 H 39.0915 1.38752 -0.770297 0
M  V30 385 H 39.1125 3.76441 0.554322 0
M  V30 386 H 38.6245 3.66806 -1.26788 0
M  V30 387 H 36.7255 3.52951 1.19399 0
M  V30 388 H 36.8385 4.78641 -0.209765 0
M  V30 389 H 35.2025 2.54696 -0.0147653 0
M  V30 390 H 35.9855 3.02938 -1.61504 0
M  V30 391 N 38.4306 0.297415 1.54768 0
M  V30 392 C 39.6766 -0.306263 2.01081 0
M  V30 393 C 40.0316 -1.518 1.18214 0
M  V30 394 O 39.3246 -1.89967 0.249613 0
M  V30 395 C 39.5186 -0.717561 3.50123 0
M  V30 396 C 39.3476 0.45277 4.47415 0
M  V30 397 C 38.1176 0.943651 4.9641 0
M  V30 398 C 40.3156 1.29657 4.97688 0
M  V30 399 N 38.2976 2.08112 5.77549 0
M  V30 400 C 39.6686 2.28158 5.76493 0
M  V30 401 C 41.7236 1.32735 4.79881 0
M  V30 402 C 40.4266 3.29509 6.39387 0
M  V30 403 C 42.4526 2.32943 5.43591 0
M  V30 404 C 41.8146 3.30174 6.22225 0
M  V30 405 H 37.9136 -0.0766274 0.778237 0
M  V30 406 H 40.4976 0.426515 1.89971 0
M  V30 407 H 38.6686 -1.41952 3.6153 0
M  V30 408 H 40.4006 -1.30047 3.83236 0
M  V30 409 H 37.1556 0.51922 4.70745 0
M  V30 410 H 37.5796 2.65414 6.22803 0
M  V30 411 H 42.2216 0.589375 4.18672 0
M  V30 412 H 39.9396 4.04228 6.99732 0
M  V30 413 H 43.5256 2.36094 5.31743 0
M  V30 414 H 42.4056 4.06445 6.7065 0
M  V30 415 N 39.9087 -1.5758 0.0250728 0
M  V30 416 C 41.3247 -1.56124 -0.331282 0
M  V30 417 C 41.5247 -1.03029 -1.73169 0
M  V30 418 O 40.5807 -0.675215 -2.43305 0
M  V30 419 C 41.8937 -3.00139 -0.183584 0
M  V30 420 C 43.4417 -3.11946 -0.256654 0
M  V30 421 C 43.9167 -4.57793 -0.137792 0
M  V30 422 N 45.4077 -4.6279 -0.194904 0
M  V30 423 C 46.1427 -5.7326 -0.126655 0
M  V30 424 N 45.6387 -6.928 -0.00755288 0
M  V30 425 N 47.4317 -5.61811 -0.180348 0
M  V30 426 H 39.5827 -1.90424 0.94087 0
M  V30 427 H 41.8457 -0.875761 0.362968 0
M  V30 428 H 41.5517 -3.4292 0.780927 0
M  V30 429 H 41.4257 -3.64899 -0.955448 0
M  V30 430 H 43.8127 -2.69079 -1.21162 0
M  V30 431 H 43.8937 -2.49915 0.545517 0
M  V30 432 H 43.5377 -5.01339 0.813739 0
M  V30 433 H 43.4677 -5.17798 -0.958775 0
M  V30 434 H 45.9587 -3.76807 -0.287267 0
M  V30 435 H 46.2717 -7.72791 0.0379428 0
M  V30 436 H 44.6167 -6.94995 0.0271731 0
M  V30 437 H 47.8077 -4.6731 -0.271767 0
M  V30 438 H 47.9807 -6.47882 -0.123697 0
M  V30 439 N 41.3868 0.248026 -1.55636 0
M  V30 440 C 42.6328 0.973427 -1.78594 0
M  V30 441 C 42.9878 1.83007 -0.593823 0
M  V30 442 O 42.2808 1.87097 0.412961 0
M  V30 443 C 42.4748 1.86819 -3.04686 0
M  V30 444 C 42.3038 1.09965 -4.36048 0
M  V30 445 C 41.0738 0.805204 -4.98843 0
M  V30 446 C 43.2718 0.477783 -5.12076 0
M  V30 447 N 41.2538 0.0124859 -6.13899 0
M  V30 448 C 42.6248 -0.179565 -6.1974 0
M  V30 449 C 44.6798 0.388136 -4.96385 0
M  V30 450 C 43.3828 -0.91795 -7.13419 0
M  V30 451 C 45.4088 -0.336716 -5.90441 0
M  V30 452 C 44.7708 -0.982705 -6.97511 0
M  V30 453 H 40.8698 0.337348 -0.705493 0
M  V30 454 H 43.4538 0.24667 -1.93131 0
M  V30 455 H 41.6248 2.56698 -2.9148 0
M  V30 456 H 43.3568 2.52907 -3.15944 0
M  V30 457 H 40.1118 1.11671 -4.60246 0
M  V30 458 H 40.5358 -0.371933 -6.75978 0
M  V30 459 H 45.1778 0.873237 -4.13684 0
M  V30 460 H 42.8958 -1.41466 -7.95621 0
M  V30 461 H 46.4818 -0.406731 -5.80377 0
M  V30 462 H 45.3618 -1.53464 -7.69037 0
M  V30 463 N 42.8649 1.48995 0.513639 0
M  V30 464 C 43.8119 1.6473 1.61656 0
M  V30 465 C 44.7819 0.488984 1.58739 0
M  V30 466 O 45.9669 0.714478 1.76918 0
M  V30 467 C 43.1069 1.7082 2.99858 0
M  V30 468 C 42.2199 2.9787 3.12885 0
M  V30 469 C 41.3549 2.95017 4.41744 0
M  V30 470 C 40.3939 4.16702 4.48359 0
M  V30 471 N 39.5309 4.11832 5.68629 0
M  V30 472 H 44.3709 2.58909 1.47547 0
M  V30 473 H 41.9079 1.28382 0.71808 0
M  V30 474 H 43.8659 1.72331 3.79944 0
M  V30 475 H 42.4959 0.801181 3.12699 0
M  V30 476 H 41.5479 3.06029 2.25944 0
M  V30 477 H 42.8599 3.8786 3.13633 0
M  V30 478 H 42.0139 2.95021 5.30139 0
M  V30 479 H 40.7529 2.02784 4.43542 0
M  V30 480 H 39.7579 4.16955 3.58369 0
M  V30 481 H 40.9829 5.10113 4.48287 0
M  V30 482 H 38.9289 3.22428 5.71293 0
M  V30 483 H 38.8459 4.95543 5.7094 0
M  V30 484 H 40.1139 4.1592 6.59266 0
M  V30 485 N 44.343 -0.763751 1.37857 0
M  V30 486 C 45.568 -1.55805 1.36893 0
M  V30 487 C 45.993 -1.88054 -0.0416135 0
M  V30 488 O 45.351 -1.49825 -1.02089 0
M  V30 489 C 45.399 -2.84012 2.22192 0
M  V30 490 O 44.503 -3.78732 1.63204 0
M  V30 491 H 43.844 -0.471638 0.46739 0
M  V30 492 H 46.374 -0.944657 1.81487 0
M  V30 493 H 46.384 -3.33037 2.35691 0
M  V30 494 H 45.059 -2.59869 3.24716 0
M  V30 495 H 43.636 -3.37402 1.58791 0
M  V30 496 N 45.8211 -1.22559 -0.990812 0
M  V30 497 C 47.0691 -1.04933 -1.72724 0
M  V30 498 C 47.3901 0.416158 -1.90508 0
M  V30 499 O 46.6601 1.29918 -1.46622 0
M  V30 500 H 45.2401 -0.385296 -0.639965 0
M  V30 501 H 47.9021 -1.54105 -1.19322 0
M  V30 502 H 46.9981 -1.52886 -2.72089 0
M  V30 503 N 47.2992 1.18797 -1.03562 0
M  V30 504 C 48.2622 2.20464 -0.626769 0
M  V30 505 C 49.2622 1.57721 0.313173 0
M  V30 506 O 50.4522 1.73917 0.0992615 0
M  V30 507 C 47.5842 3.40802 0.0818498 0
M  V30 508 H 48.7772 2.58149 -1.5264 0
M  V30 509 H 46.3302 1.32593 -0.827578 0
M  V30 510 H 47.0652 3.08642 0.995518 0
M  V30 511 H 46.8502 3.8758 -0.593652 0
M  V30 512 H 48.3402 4.16092 0.354584 0
M  V30 513 N 48.7773 0.814389 1.34928 0
M  V30 514 C 49.7403 0.235759 2.27984 0
M  V30 515 C 50.7403 -0.581412 1.49921 0
M  V30 516 O 51.9303 -0.398758 1.69575 0
M  V30 517 C 49.0623 -0.670433 3.34242 0
M  V30 518 H 50.2553 1.05659 2.80671 0
M  V30 519 H 47.8083 0.585614 1.44915 0
M  V30 520 H 48.5433 -1.51466 2.86755 0
M  V30 521 H 48.3283 -0.0860822 3.92005 0
M  V30 522 H 49.8183 -1.06935 4.03676 0
M  V30 523 N 50.2554 -1.46986 0.568584 0
M  V30 524 C 51.2184 -2.28624 -0.162366 0
M  V30 525 C 52.2184 -1.37596 -0.832103 0
M  V30 526 O 53.4084 -1.60115 -0.68622 0
M  V30 527 C 50.5404 -3.17596 -1.23878 0
M  V30 528 H 51.7334 -2.94722 0.554899 0
M  V30 529 H 49.2864 -1.52863 0.325976 0
M  V30 530 H 50.0214 -2.56214 -1.98808 0
M  V30 531 H 49.8064 -3.846 -0.763219 0
M  V30 532 H 51.2964 -3.79078 -1.75185 0
M  V30 533 N 51.7335 -0.305618 -1.54608 0
M  V30 534 C 52.6965 0.555591 -2.22364 0
M  V30 535 C 53.6965 1.05768 -1.21119 0
M  V30 536 O 54.8865 0.952972 -1.45822 0
M  V30 537 C 52.0185 1.76974 -2.91364 0
M  V30 538 H 53.2115 -0.0364572 -2.99878 0
M  V30 539 H 50.7645 -0.0565007 -1.56198 0
M  V30 540 H 51.4995 2.40151 -2.17941 0
M  V30 541 H 51.2845 1.41732 -3.65588 0
M  V30 542 H 52.7745 2.38148 -3.43038 0
M  V30 543 N 53.2116 1.57565 -0.0334293 0
M  V30 544 C 54.1746 2.09393 0.932048 0
M  V30 545 C 55.1746 1.00986 1.25134 0
M  V30 546 O 56.3646 1.27129 1.19096 0
M  V30 547 C 53.4966 2.56338 2.2473 0
M  V30 548 H 54.6896 2.95984 0.483085 0
M  V30 549 H 52.2426 1.54819 0.21468 0
M  V30 550 H 52.9776 1.7309 2.74245 0
M  V30 551 H 52.7626 3.35542 2.02865 0
M  V30 552 H 54.2526 2.96646 2.93923 0
M  V30 553 N 54.6897 -0.239769 1.55765 0
M  V30 554 C 55.9357 -0.968234 1.78194 0
M  V30 555 C 56.2687 -1.84701 0.599938 0
M  V30 556 O 55.5437 -1.9031 -0.401524 0
M  V30 557 C 55.8267 -1.8227 3.10564 0
M  V30 558 C 55.6797 -0.971633 4.3918 0
M  V30 559 C 56.9987 -2.80388 3.39221 0
M  V30 560 H 54.1177 -0.350572 0.648281 0
M  V30 561 H 56.7597 -0.238259 1.885 0
M  V30 562 H 54.9097 -2.44507 3.01908 0
M  V30 563 H 56.5817 -0.367408 4.59835 0
M  V30 564 H 54.8247 -0.276276 4.32919 0
M  V30 565 H 55.4957 -1.60346 5.28198 0
M  V30 566 H 57.9717 -2.28287 3.47885 0
M  V30 567 H 56.8477 -3.3729 4.33044 0
M  V30 568 H 57.1087 -3.57212 2.60484 0
M  V30 569 N 56.1678 -1.49265 -0.50573 0
M  V30 570 C 57.3958 -1.62215 -1.28429 0
M  V30 571 C 57.8108 -0.291697 -1.86533 0
M  V30 572 O 57.1678 0.722233 -1.67601 0
M  V30 573 C 57.2188 -2.68735 -2.41793 0
M  V30 574 O 56.9398 -3.96619 -1.86078 0
M  V30 575 C 58.4408 -2.92346 -3.3324 0
M  V30 576 H 55.6608 -0.546239 -0.389697 0
M  V30 577 H 58.2048 -1.95265 -0.607609 0
M  V30 578 H 56.3598 -2.38476 -3.053 0
M  V30 579 H 56.7738 -4.55256 -2.60465 0
M  V30 580 H 58.2478 -3.70623 -4.09075 0
M  V30 581 H 58.7248 -2.02081 -3.89948 0
M  V30 582 H 59.3308 -3.24003 -2.75503 0
M  V30 583 N 57.6459 0.756429 -1.3826 0
M  V30 584 C 58.8739 1.54565 -1.3754 0
M  V30 585 C 59.2889 1.88767 0.0355331 0
M  V30 586 O 58.6459 1.52572 1.0014 0
M  V30 587 C 58.6969 2.84654 -2.22833 0
M  V30 588 O 58.4179 2.51912 -3.5843 0
M  V30 589 C 59.9189 3.78807 -2.30261 0
M  V30 590 H 57.1389 0.478353 -0.470553 0
M  V30 591 H 59.6829 0.936381 -1.81803 0
M  V30 592 H 57.8379 3.41965 -1.8204 0
M  V30 593 H 58.2519 3.35325 -4.03308 0
M  V30 594 H 59.7259 4.67045 -2.94233 0
M  V30 595 H 60.2029 4.19038 -1.31545 0
M  V30 596 H 60.8089 3.2742 -2.71433 0
M  V30 597 N 59.124 1.23083 0.984299 0
M  V30 598 C 60.034 1.02515 2.11016 0
M  V30 599 C 61.05 -0.0291702 1.73976 0
M  V30 600 O 62.226 0.165434 2.00719 0
M  V30 601 C 59.291 0.614673 3.41208 0
M  V30 602 C 58.352 1.74359 3.92297 0
M  V30 603 C 57.585 1.35261 5.16275 0
M  V30 604 O 57.808 0.235136 5.69915 0
M  V30 605 O 56.742 2.17227 5.61334 0
M  V30 606 H 60.568 1.96862 2.31255 0
M  V30 607 H 58.153 1.01753 1.09392 0
M  V30 608 H 60.035 0.396518 4.1953 0
M  V30 609 H 58.71 -0.299851 3.22308 0
M  V30 610 H 57.617 2.01635 3.1511 0
M  V30 611 H 58.95 2.63629 4.15645 0
M  V30 612 N 60.6021 -1.18246 1.0419 0
M  V30 613 C 61.8301 -1.92195 0.766072 0
M  V30 614 C 62.2451 -1.76247 -0.676933 0
M  V30 615 O 61.6021 -1.09293 -1.46155 0
M  V30 616 C 61.6531 -3.43568 1.12442 0
M  V30 617 O 61.3741 -3.59015 2.51078 0
M  V30 618 C 62.8751 -4.34613 0.873275 0
M  V30 619 H 60.0951 -0.610114 0.279288 0
M  V30 620 H 62.6391 -1.50007 1.38989 0
M  V30 621 H 60.7941 -3.8354 0.545542 0
M  V30 622 H 61.2081 -4.5273 2.64831 0
M  V30 623 H 62.6821 -5.39374 1.17385 0
M  V30 624 H 63.1591 -4.38781 -0.191909 0
M  V30 625 H 63.7651 -4.00341 1.43551 0
M  V30 626 N 62.0802 -0.821533 -1.34494 0
M  V30 627 C 63.0432 -0.247847 -2.27856 0
M  V30 628 C 64.0432 0.573453 -1.50227 0
M  V30 629 O 65.2332 0.389759 -1.69784 0
M  V30 630 C 62.3652 0.652698 -3.34593 0
M  V30 631 H 63.5582 -1.07146 -2.80107 0
M  V30 632 H 61.1112 -0.593291 -1.44602 0
M  V30 633 H 61.8462 1.49943 -2.87555 0
M  V30 634 H 61.6312 0.065292 -3.92046 0
M  V30 635 H 63.1212 1.04793 -4.04238 0
M  V30 636 N 63.5583 1.46682 -0.576371 0
M  V30 637 C 64.4903 2.28341 0.198231 0
M  V30 638 C 65.5033 1.38141 0.861453 0
M  V30 639 O 66.6923 1.62797 0.732082 0
M  V30 640 C 63.7923 3.12986 1.29972 0
M  V30 641 C 62.9653 4.31271 0.729639 0
M  V30 642 C 62.0243 4.97363 1.71803 0
M  V30 643 O 61.0503 5.55156 1.25658 0
M  V30 644 N 62.2523 4.93796 3.05198 0
M  V30 645 H 65.0173 2.9546 -0.502324 0
M  V30 646 H 62.5783 1.56525 -0.413715 0
M  V30 647 H 64.5703 3.54066 1.96008 0
M  V30 648 H 63.1403 2.47984 1.90323 0
M  V30 649 H 62.3603 3.94052 -0.108012 0
M  V30 650 H 63.6483 5.07739 0.328438 0
M  V30 651 H 63.0463 4.48077 3.45317 0
M  V30 652 H 61.6033 5.38837 3.6674 0
M  V30 653 N 65.0364 0.313813 1.54444 0
M  V30 654 C 65.9864 -0.571898 2.20711 0
M  V30 655 C 66.9704 -1.08913 1.18435 0
M  V30 656 O 68.1624 -1.02777 1.44104 0
M  V30 657 C 65.2914 -1.7371 2.96108 0
M  V30 658 C 64.3774 -1.23522 4.05713 0
M  V30 659 N 64.7684 -0.452288 5.03774 0
M  V30 660 C 63.0664 -1.51482 4.19487 0
M  V30 661 C 63.7674 -0.183438 5.81411 0
M  V30 662 N 62.7434 -0.766845 5.38164 0
M  V30 663 H 66.5454 0.0336802 2.93881 0
M  V30 664 H 64.0594 0.119192 1.61962 0
M  V30 665 H 66.0564 -2.38329 3.4206 0
M  V30 666 H 64.7164 -2.34625 2.24458 0
M  V30 667 H 65.7274 -0.0960131 5.17811 0
M  V30 668 H 62.4044 -2.13053 3.59047 0
M  V30 669 H 63.7944 0.446216 6.70417 0
M  V30 670 N 66.5145 -1.57545 0.0417849 0
M  V30 671 C 67.4775 -2.09885 -0.92093 0
M  V30 672 C 68.4775 -1.01648 -1.24596 0
M  V30 673 O 69.6675 -1.27759 -1.1842 0
M  V30 674 C 66.7995 -2.57527 -2.23367 0
M  V30 675 H 67.9925 -2.96236 -0.467382 0
M  V30 676 H 65.5455 -1.5493 -0.206467 0
M  V30 677 H 66.2805 -1.74542 -2.73323 0
M  V30 678 H 66.0655 -3.36613 -2.01083 0
M  V30 679 H 67.5555 -2.98201 -2.92346 0
M  V30 680 N 67.9926 0.231505 -1.5589 0
M  V30 681 C 68.9246 1.31006 -1.8807 0
M  V30 682 C 69.9376 1.43539 -0.768145 0
M  V30 683 O 71.1266 1.44614 -1.04638 0
M  V30 684 C 68.2266 2.68688 -2.06543 0
M  V30 685 C 67.3996 2.78228 -3.37502 0
M  V30 686 C 66.4586 3.96857 -3.4553 0
M  V30 687 O 65.4846 3.85662 -4.18633 0
M  V30 688 N 66.6866 5.1072 -2.75944 0
M  V30 689 H 69.4516 1.03731 -2.81176 0
M  V30 690 H 67.0126 0.421573 -1.56315 0
M  V30 691 H 69.0046 3.46412 -2.09239 0
M  V30 692 H 67.5746 2.88605 -1.20109 0
M  V30 693 H 66.7946 1.87059 -3.46991 0
M  V30 694 H 68.0826 2.81564 -4.23791 0
M  V30 695 H 67.4806 5.2271 -2.16311 0
M  V30 696 H 66.0376 5.86523 -2.84314 0
M  V30 697 N 69.4707 1.49531 0.497807 0
M  V30 698 C 70.7187 1.58865 1.24926 0
M  V30 699 C 71.0397 0.278721 1.92998 0
M  V30 700 O 70.3097 -0.702144 1.82885 0
M  V30 701 H 68.8897 0.585343 0.464094 0
M  V30 702 H 71.5517 1.86174 0.57666 0
M  V30 703 H 70.6477 2.38633 2.01149 0
M  V30 704 N 70.9488 -0.749086 1.3866 0
M  V30 705 C 71.9118 -1.84457 1.36045 0
M  V30 706 C 72.9118 -1.58682 0.260122 0
M  V30 707 O 74.1018 -1.66343 0.517261 0
M  V30 708 C 71.2338 -3.22008 1.11911 0
M  V30 709 H 72.4268 -1.88182 2.33512 0
M  V30 710 H 69.9798 -0.951266 1.24019 0
M  V30 711 H 70.7148 -3.2395 0.150686 0
M  V30 712 H 70.4998 -3.42111 1.91579 0
M  V30 713 H 71.9898 -4.0208 1.12788 0
M  V30 714 N 72.4269 -1.23603 -0.977757 0
M  V30 715 C 73.3739 -1.01954 -2.07061 0
M  V30 716 C 74.3439 0.0638697 -1.65977 0
M  V30 717 O 75.5289 -0.0887624 -1.90593 0
M  V30 718 C 72.6689 -0.619658 -3.39491 0
M  V30 719 C 71.7819 -1.77547 -3.93829 0
M  V30 720 C 70.9169 -1.32212 -5.14484 0
M  V30 721 C 69.9559 -2.44852 -5.60994 0
M  V30 722 N 69.0929 -2.00456 -6.72876 0
M  V30 723 H 73.9329 -1.95495 -2.24913 0
M  V30 724 H 71.4699 -0.973861 -1.10247 0
M  V30 725 H 73.4279 -0.368898 -4.15566 0
M  V30 726 H 72.0579 0.278752 -3.21594 0
M  V30 727 H 71.1099 -2.14016 -3.14486 0
M  V30 728 H 72.4219 -2.62219 -4.24314 0
M  V30 729 H 71.5759 -1.02965 -5.97899 0
M  V30 730 H 70.3149 -0.445808 -4.85658 0
M  V30 731 H 69.3199 -2.74871 -4.76157 0
M  V30 732 H 70.5449 -3.33024 -5.91837 0
M  V30 733 H 68.4909 -1.15208 -6.45804 0
M  V30 734 H 68.4079 -2.78687 -7.02759 0
M  V30 735 H 69.6759 -1.7432 -7.59758 0
M  V30 736 N 73.905 1.17692 -1.04816 0
M  V30 737 C 75.316 1.69501 -0.782698 0
M  V30 738 C 75.667 1.83456 0.695577 0
M  V30 739 O 74.792 1.51942 1.54086 0
M  V30 740 C 75.387 3.07874 -1.41419 0
M  V30 741 C 73.946 3.56864 -1.19686 0
M  V30 742 C 73.093 2.3322 -1.50012 0
M  V30 743 H 76.044 1.02262 -1.2136 0
M  V30 744 H 76.065 3.71528 -0.821428 0
M  V30 745 H 75.577 2.97685 -2.49009 0
M  V30 746 H 73.678 3.72337 -0.140043 0
M  V30 747 H 73.791 4.39851 -1.89916 0
M  V30 748 H 72.155 2.37501 -0.920071 0
M  V30 749 H 72.938 2.25644 -2.58727 0
M  V30 750 N 75.3831 0.828654 1.34056 0
M  V30 751 C 76.3151 0.212052 2.28217 0
M  V30 752 C 77.3281 -0.601362 1.51286 0
M  V30 753 O 78.5171 -0.430104 1.73241 0
M  V30 754 C 75.6171 -0.72088 3.31144 0
M  V30 755 C 74.7901 0.0509587 4.3737 0
M  V30 756 C 73.8491 -0.803766 5.20025 0
M  V30 757 O 72.8751 -0.246667 5.68665 0
M  V30 758 N 74.0771 -2.1227 5.40298 0
M  V30 759 H 76.8421 1.02105 2.81771 0
M  V30 760 H 74.4031 0.686153 1.46641 0
M  V30 761 H 76.3951 -1.29742 3.8334 0
M  V30 762 H 74.9651 -1.43061 2.77943 0
M  V30 763 H 74.1851 0.808831 3.85813 0
M  V30 764 H 75.4731 0.582065 5.0546 0
M  V30 765 H 74.8711 -2.59898 5.02464 0
M  V30 766 H 73.4281 -2.64796 5.95589 0
M  V30 767 N 76.8612 -1.46375 0.584142 0
M  V30 768 C 78.1072 -2.02678 0.0703716 0
M  V30 769 C 78.4402 -1.4545 -1.28678 0
M  V30 770 O 77.7152 -0.62014 -1.84349 0
M  V30 771 C 77.9982 -3.60099 0.00614674 0
M  V30 772 C 77.8512 -4.27709 1.3923 0
M  V30 773 C 79.1702 -4.34598 -0.693742 0
M  V30 774 H 76.2892 -0.736504 0.027047 0
M  V30 775 H 78.9312 -1.74501 0.751615 0
M  V30 776 H 77.0812 -3.84236 -0.574009 0
M  V30 777 H 78.7532 -4.14832 2.01773 0
M  V30 778 H 76.9962 -3.87016 1.95962 0
M  V30 779 H 77.6672 -5.36478 1.29982 0
M  V30 780 H 80.1432 -4.15615 -0.200869 0
M  V30 781 H 79.0192 -5.44318 -0.707714 0
M  V30 782 H 79.2802 -4.05759 -1.75533 0
M  V30 783 N 78.3393 -0.321999 -1.54275 0
M  V30 784 C 79.2713 0.578671 -2.21775 0
M  V30 785 C 80.2843 1.08109 -1.21722 0
M  V30 786 O 81.4733 0.994938 -1.482 0
M  V30 787 C 78.5733 1.80661 -2.86731 0
M  V30 788 C 77.7463 1.44314 -4.12907 0
M  V30 789 C 76.8053 2.52845 -4.61472 0
M  V30 790 O 75.8313 2.17054 -5.2619 0
M  V30 791 N 77.0333 3.83748 -4.35566 0
M  V30 792 H 79.7983 0.000709447 -2.997 0
M  V30 793 H 77.3593 -0.145132 -1.61248 0
M  V30 794 H 79.3513 2.52655 -3.16145 0
M  V30 795 H 77.9213 2.29245 -2.12521 0
M  V30 796 H 77.1413 0.554906 -3.90275 0
M  V30 797 H 78.4293 1.17598 -4.95023 0
M  V30 798 H 77.8273 4.15625 -3.83761 0
M  V30 799 H 76.3843 4.51977 -4.69638 0
M  V30 800 N 79.8174 1.5752 -0.0501392 0
M  V30 801 C 81.2284 1.80271 0.485705 0
M  V30 802 C 81.5794 0.96228 1.70981 0
M  V30 803 O 80.7044 0.178578 2.15662 0
M  V30 804 C 81.2994 3.26957 0.887938 0
M  V30 805 C 79.8584 3.5063 1.36877 0
M  V30 806 C 79.0054 2.75165 0.343468 0
M  V30 807 H 81.9564 1.56281 -0.276028 0
M  V30 808 H 81.9774 3.37821 1.75093 0
M  V30 809 H 81.4894 3.881 -0.0031809 0
M  V30 810 H 79.5904 2.94766 2.27911 0
M  V30 811 H 79.7034 4.59343 1.36164 0
M  V30 812 H 78.0674 2.4127 0.816128 0
M  V30 813 H 78.8504 3.39034 -0.539548 0
M  V30 814 N 81.2955 -0.223234 1.56011 0
M  V30 815 C 82.2275 -1.30006 1.88762 0
M  V30 816 C 83.2405 -1.43129 0.775746 0
M  V30 817 O 84.4295 -1.44057 1.05403 0
M  V30 818 C 81.5295 -2.67589 2.07965 0
M  V30 819 C 80.7025 -2.76434 3.38973 0
M  V30 820 C 79.7615 -3.95019 3.47629 0
M  V30 821 O 78.7875 -3.83436 4.20672 0
M  V30 822 N 79.9895 -5.09249 2.78649 0
M  V30 823 H 82.7545 -1.02238 2.81722 0
M  V30 824 H 80.3155 -0.413278 1.56536 0
M  V30 825 H 82.3075 -3.45297 2.11073 0
M  V30 826 H 80.8775 -2.87964 1.21638 0
M  V30 827 H 80.0975 -1.85216 3.47978 0
M  V30 828 H 81.3855 -2.79313 4.25278 0
M  V30 829 H 80.7835 -5.21556 2.19081 0
M  V30 830 H 79.3405 -5.85007 2.8742 0
M  V30 831 N 82.7736 -1.49793 -0.48987 0
M  V30 832 C 83.7206 -1.67281 -1.59014 0
M  V30 833 C 84.6906 -0.514177 -1.57941 0
M  V30 834 O 85.8756 -0.742533 -1.75759 0
M  V30 835 C 83.0156 -1.75569 -2.97102 0
M  V30 836 C 82.1286 -3.0281 -3.08107 0
M  V30 837 C 81.2636 -3.02008 -4.36995 0
M  V30 838 C 80.3026 -4.23782 -4.41673 0
M  V30 839 N 79.4396 -4.20826 -5.62005 0
M  V30 840 H 84.2796 -2.61224 -1.43409 0
M  V30 841 H 81.8166 -1.29508 -0.697565 0
M  V30 842 H 83.7746 -1.78354 -3.77155 0
M  V30 843 H 82.4046 -0.850827 -3.11385 0
M  V30 844 H 81.4566 -3.09584 -2.21047 0
M  V30 845 H 82.7686 -3.92801 -3.07423 0
M  V30 846 H 81.9226 -3.03418 -5.25378 0
M  V30 847 H 80.6616 -2.09815 -4.4026 0
M  V30 848 H 79.6666 -4.22604 -3.5169 0
M  V30 849 H 80.8916 -5.17181 -4.40115 0
M  V30 850 H 78.8376 -3.31476 -5.66091 0
M  V30 851 H 78.7546 -5.04564 -5.62984 0
M  V30 852 H 80.0226 -4.26355 -6.52565 0
M  V30 853 N 84.2517 0.741722 -1.39055 0
M  V30 854 C 85.6677 1.04638 -1.20512 0
M  V30 855 C 85.8677 2.01405 -0.0620218 0
M  V30 856 O 84.9237 2.45547 0.588457 0
M  V30 857 C 86.2367 1.6151 -2.53643 0
M  V30 858 C 87.7847 1.73623 -2.6043 0
M  V30 859 C 88.2597 2.33906 -3.93767 0
M  V30 860 N 89.7507 2.41323 -3.9537 0
M  V30 861 C 90.4857 2.88888 -4.95309 0
M  V30 862 N 89.9817 3.36401 -6.05645 0
M  V30 863 N 91.7747 2.88037 -4.82692 0
M  V30 864 H 83.9257 0.0998155 -2.12165 0
M  V30 865 H 86.1887 0.106907 -0.941953 0
M  V30 866 H 85.8947 0.978739 -3.37807 0
M  V30 867 H 85.7687 2.60411 -2.72885 0
M  V30 868 H 88.1557 2.36384 -1.76655 0
M  V30 869 H 88.2367 0.733945 -2.45045 0
M  V30 870 H 87.8807 1.71776 -4.7797 0
M  V30 871 H 87.8107 3.34799 -4.06469 0
M  V30 872 H 90.3017 2.07734 -3.15682 0
M  V30 873 H 90.6147 3.71186 -6.77821 0
M  V30 874 H 88.9597 3.34427 -6.09248 0
M  V30 875 H 92.1507 2.50237 -3.95599 0
M  V30 876 H 92.3237 3.24792 -5.60726 0
M  V30 877 N 85.7298 1.2412 0.971189 0
M  V30 878 C 86.6768 1.0305 2.06517 0
M  V30 879 C 87.6468 -0.0550666 1.66009 0
M  V30 880 O 88.8318 0.0988688 1.90544 0
M  V30 881 C 85.9718 0.637653 3.39158 0
M  V30 882 C 85.0848 1.79633 3.92882 0
M  V30 883 C 84.2198 1.34939 5.13775 0
M  V30 884 C 83.2588 2.47823 5.59687 0
M  V30 885 N 82.3958 2.04022 6.71803 0
M  V30 886 H 87.2358 1.96685 2.23873 0
M  V30 887 H 84.7728 0.979694 1.09729 0
M  V30 888 H 86.7308 0.390931 4.15364 0
M  V30 889 H 85.3608 -0.261693 3.21737 0
M  V30 890 H 84.4128 2.15681 3.13346 0
M  V30 891 H 85.7248 2.64466 4.22918 0
M  V30 892 H 84.8788 1.06134 5.97345 0
M  V30 893 H 83.6178 0.471557 4.85415 0
M  V30 894 H 82.6228 2.77392 4.74693 0
M  V30 895 H 83.8478 3.36158 5.90063 0
M  V30 896 H 81.7938 1.18632 6.45184 0
M  V30 897 H 81.7108 2.82409 7.01271 0
M  V30 898 H 82.9788 1.78347 7.58823 0
M  V30 899 N 87.2079 -1.17134 1.05439 0
M  V30 900 C 88.6189 -1.69084 0.791676 0
M  V30 901 C 88.9699 -1.83822 -0.685839 0
M  V30 902 O 88.0949 -1.52757 -1.53278 0
M  V30 903 C 88.6899 -3.07119 1.4305 0
M  V30 904 C 87.2489 -3.56225 1.21577 0
M  V30 905 C 86.3959 -2.32421 1.51247 0
M  V30 906 H 89.3469 -1.01617 1.219 0
M  V30 907 H 89.3679 -3.71087 0.84112 0
M  V30 908 H 88.8799 -2.9636 2.50584 0
M  V30 909 H 86.9809 -3.72257 0.159787 0
M  V30 910 H 87.0939 -4.38837 1.92246 0
M  V30 911 H 85.4579 -2.3701 0.932653 0
M  V30 912 H 86.2409 -2.24268 2.5992 0
M  V30 913 N 88.686 -0.835752 -1.33615 0
M  V30 914 C 89.633 -0.26473 -2.29277 0
M  V30 915 C 90.603 0.617712 -1.54187 0
M  V30 916 O 91.788 0.556641 -1.825 0
M  V30 917 C 88.928 0.556777 -3.40579 0
M  V30 918 C 88.041 -0.349339 -4.30585 0
M  V30 919 C 87.176 0.482969 -5.29 0
M  V30 920 C 86.215 -0.421732 -6.10645 0
M  V30 921 N 85.352 0.372262 -7.01112 0
M  V30 922 H 90.192 -1.08582 -2.77514 0
M  V30 923 H 87.729 -0.546927 -1.36554 0
M  V30 924 H 89.687 1.04852 -4.03809 0
M  V30 925 H 88.317 1.34286 -2.93542 0
M  V30 926 H 87.369 -0.959372 -3.68104 0
M  V30 927 H 88.681 -1.04445 -4.87742 0
M  V30 928 H 87.835 1.03866 -5.97743 0
M  V30 929 H 86.574 1.21153 -4.72412 0
M  V30 930 H 85.579 -0.989464 -5.40823 0
M  V30 931 H 86.804 -1.14861 -6.69316 0
M  V30 932 H 84.75 1.08426 -6.46977 0
M  V30 933 H 84.667 -0.264198 -7.55538 0
M  V30 934 H 85.935 0.910293 -7.74167 0
M  V30 935 N 90.1641 1.46063 -0.591896 0
M  V30 936 C 91.3921 2.06717 -0.0868936 0
M  V30 937 C 91.8071 1.43916 1.22203 0
M  V30 938 O 91.1641 0.547698 1.74088 0
M  V30 939 C 91.2151 3.6142 0.0758725 0
M  V30 940 O 90.9361 4.21874 -1.18126 0
M  V30 941 C 92.4371 4.39025 0.61416 0
M  V30 942 H 89.6571 0.668162 -0.0616518 0
M  V30 943 H 92.2011 1.8755 -0.815175 0
M  V30 944 H 90.3561 3.79983 0.754413 0
M  V30 945 H 90.7701 5.14861 -1.00092 0
M  V30 946 H 92.2441 5.4783 0.677193 0
M  V30 947 H 92.7211 4.07708 1.63312 0
M  V30 948 H 93.3271 4.2529 -0.0298142 0
M  V30 949 N 91.6422 0.330177 1.54103 0
M  V30 950 C 92.8902 -0.269871 2.0029 0
M  V30 951 C 93.2112 -1.52133 1.21986 0
M  V30 952 O 92.4812 -1.93212 0.323438 0
M  V30 953 H 91.0612 -0.10271 0.739905 0
M  V30 954 H 93.7232 0.448249 1.89675 0
M  V30 955 H 92.8192 -0.52166 3.07709 0
M  V30 956 N 93.1203 -1.57491 0.0584922 0
M  V30 957 C 94.3693 -1.92155 -0.613146 0
M  V30 958 C 94.6823 -0.939334 -1.71569 0
M  V30 959 O 95.8883 -1.17829 -2.44599 0
M  V30 960 C 94.3443 -3.41303 -1.14195 0
M  V30 961 C 93.9523 -4.47944 -0.0711265 0
M  V30 962 C 95.6963 -3.84988 -1.78841 0
M  V30 963 C 93.6033 -5.88212 -0.613225 0
M  V30 964 H 92.5333 -0.717162 -0.232796 0
M  V30 965 H 95.1843 -1.83049 0.12857 0
M  V30 966 H 93.5663 -3.45437 -1.93621 0
M  V30 967 H 94.7403 -4.55408 0.702836 0
M  V30 968 H 93.0553 -4.13644 0.478313 0
M  V30 969 H 95.6523 -4.87159 -2.20408 0
M  V30 970 H 95.9953 -3.21632 -2.64308 0
M  V30 971 H 96.5283 -3.83401 -1.06059 0
M  V30 972 H 93.2673 -6.55183 0.203978 0
M  V30 973 H 92.7873 -5.84294 -1.35501 0
M  V30 974 H 94.4663 -6.37687 -1.09383 0
M  V30 975 N 94.5984 0.214957 -1.56127 0
M  V30 976 C 95.5284 1.2695 -1.95974 0
M  V30 977 C 96.5094 1.48539 -0.828868 0
M  V30 978 O 97.6944 1.60611 -1.09168 0
M  V30 979 C 94.8244 2.61794 -2.28214 0
M  V30 980 C 93.7784 2.54851 -3.43853 0
M  V30 981 C 93.1044 3.93785 -3.61715 0
M  V30 982 C 94.4044 2.09065 -4.78632 0
M  V30 983 H 96.0984 0.93846 -2.84312 0
M  V30 984 H 93.6444 0.449996 -1.36788 0
M  V30 985 H 95.5974 3.35731 -2.54682 0
M  V30 986 H 94.3214 2.96599 -1.36736 0
M  V30 987 H 92.9804 1.8337 -3.17444 0
M  V30 988 H 92.6284 4.25908 -2.67602 0
M  V30 989 H 92.3284 3.90019 -4.39498 0
M  V30 990 H 93.8524 4.69374 -3.90539 0
M  V30 991 H 95.2664 2.7275 -5.04262 0
M  V30 992 H 93.6634 2.16346 -5.59745 0
M  V30 993 H 94.7334 1.04315 -4.73547 0
M  V30 994 N 96.0765 1.50051 0.48192 0
M  V30 995 C 97.0095 1.62749 1.59963 0
M  V30 996 C 97.9875 0.475903 1.5548 0
M  V30 997 O 99.1715 0.693986 1.7526 0
M  V30 998 C 96.2985 1.60008 2.98522 0
M  V30 999 C 95.3445 2.80596 3.21198 0
M  V30 1000 S 96.1775 4.42038 3.02262 0
M  V30 1001 C 97.3335 4.41973 4.43182 0
M  V30 1002 H 97.5665 2.57296 1.4895 0
M  V30 1003 H 95.0995 1.39179 0.668477 0
M  V30 1004 H 97.0575 1.59112 3.78409 0
M  V30 1005 H 95.7185 0.667153 3.06933 0
M  V30 1006 H 94.9115 2.74952 4.22395 0
M  V30 1007 H 94.5135 2.79003 2.49065 0
M  V30 1008 H 96.8055 4.14868 5.35622 0
M  V30 1009 H 97.7485 5.43512 4.53873 0
M  V30 1010 H 98.1565 3.71812 4.24755 0
M  V30 1011 N 97.5546 -0.734337 1.39446 0
M  V30 1012 C 98.4846 -1.86155 1.40955 0
M  V30 1013 C 99.4656 -1.67898 0.272827 0
M  V30 1014 O 100.651 -1.88207 0.478743 0
M  V30 1015 C 97.7806 -3.23912 1.25294 0
M  V30 1016 C 96.7346 -3.56808 2.36373 0
M  V30 1017 C 96.0606 -4.93508 2.058 0
M  V30 1018 C 97.3606 -3.59713 3.78687 0
M  V30 1019 H 99.0546 -1.8515 2.35287 0
M  V30 1020 H 96.6006 -0.889367 1.13253 0
M  V30 1021 H 98.5536 -4.02443 1.2497 0
M  V30 1022 H 97.2776 -3.25446 0.274308 0
M  V30 1023 H 95.9366 -2.80606 2.35914 0
M  V30 1024 H 95.5846 -4.91623 1.06374 0
M  V30 1025 H 95.2846 -5.16486 2.80208 0
M  V30 1026 H 96.8086 -5.74396 2.07128 0
M  V30 1027 H 98.2226 -4.2832 3.81071 0
M  V30 1028 H 96.6196 -3.94209 4.52459 0
M  V30 1029 H 97.6896 -2.59504 4.09617 0
M  V30 1030 N 99.0327 -1.24633 -0.964593 0
M  V30 1031 C 99.9807 -1.03917 -2.08096 0
M  V30 1032 C 100.975 0.0268581 -1.69379 0
M  V30 1033 O 102.181 -0.127952 -1.79545 0
M  V30 1034 H 98.5557 -0.319044 -0.680966 0
M  V30 1035 H 100.527 -1.98581 -2.22729 0
M  V30 1036 C 99.2757 -0.663983 -3.41301 0
M  V30 1037 H 98.5987 -1.47605 -3.71555 0
M  V30 1038 H 100.039 -0.558663 -4.20303 0
M  V30 1039 C 98.4977 0.629169 -3.30973 0
M  V30 1040 O 99.0277 1.67404 -3.65156 0
M  V30 1041 N 97.2337 0.611057 -2.84103 0
M  V30 1042 H 96.7807 -0.239593 -2.56483 0
M  V30 1043 H 96.7387 1.47647 -2.77575 0
M  V30 1044 N 100.511 1.16574 -1.06058 0
M  V30 1045 C 101.444 2.19798 -0.61352 0
M  V30 1046 C 102.422 1.58509 0.362453 0
M  V30 1047 O 103.606 1.86527 0.271994 0
M  V30 1048 C 100.733 3.3855 0.100915 0
M  V30 1049 C 99.7788 4.18317 -0.831438 0
M  V30 1050 S 100.612 4.82375 -2.32539 0
M  V30 1051 C 101.768 6.04508 -1.62238 0
M  V30 1052 H 102.001 2.5738 -1.48805 0
M  V30 1053 H 99.5338 1.27327 -0.873338 0
M  V30 1054 H 101.492 4.07358 0.506898 0
M  V30 1055 H 100.153 2.99338 0.951604 0
M  V30 1056 H 99.3458 5.03232 -0.278071 0
M  V30 1057 H 98.9478 3.5499 -1.17719 0
M  V30 1058 H 101.24 6.71133 -0.926622 0
M  V30 1059 H 102.183 6.64389 -2.44934 0
M  V30 1060 H 102.591 5.53559 -1.106 0
M  V30 1061 N 101.989 0.842826 1.3317 0
M  V30 1062 C 103.237 0.439577 1.97262 0
M  V30 1063 C 103.558 -1.00548 1.67078 0
M  V30 1064 O 102.828 -1.70098 0.971779 0
M  V30 1065 H 101.408 0.159558 0.72976 0
M  V30 1066 H 104.07 1.07665 1.62463 0
M  V30 1067 H 103.166 0.574886 3.0676 0
M  V30 1068 N 103.467 -1.45747 0.599634 0
M  V30 1069 C 104.715 -2.01893 0.0915472 0
M  V30 1070 C 105.036 -1.47155 -1.27946 0
M  V30 1071 O 104.306 -0.66273 -1.84349 0
M  V30 1072 H 102.886 -0.746363 0.0308524 0
M  V30 1073 H 105.548 -1.78645 0.779237 0
M  V30 1074 H 104.644 -3.1208 0.0353086 0
M  V30 1075 N 104.945 -0.338344 -1.53925 0
M  V30 1076 C 106.356 0.146651 -1.86123 0
M  V30 1077 C 106.707 1.5042 -1.2597 0
M  V30 1078 O 105.832 2.08723 -0.571294 0
M  V30 1079 C 106.427 0.272879 -3.37699 0
M  V30 1080 C 104.986 0.702103 -3.69794 0
M  V30 1081 C 104.133 -0.167304 -2.76795 0
M  V30 1082 H 107.084 -0.558123 -1.48562 0
M  V30 1083 H 107.105 1.10128 -3.64214 0
M  V30 1084 H 106.617 -0.715307 -3.81451 0
M  V30 1085 H 104.718 1.6995 -3.31584 0
M  V30 1086 H 104.831 0.495604 -4.7653 0
M  V30 1087 H 103.195 0.359527 -2.5215 0
M  V30 1088 H 103.978 -1.15253 -3.23375 0
M  V30 1089 N 106.423 1.57458 -0.0668435 0
M  V30 1090 C 107.333 2.15937 0.916975 0
M  V30 1091 C 108.349 1.12123 1.33058 0
M  V30 1092 O 109.525 1.44366 1.40429 0
M  V30 1093 C 106.59 2.70547 2.16807 0
M  V30 1094 C 105.651 3.89215 1.81135 0
M  V30 1095 C 104.884 4.41211 3.0028 0
M  V30 1096 O 105.107 3.92225 4.14144 0
M  V30 1097 O 104.041 5.32605 2.80384 0
M  V30 1098 H 107.867 3.00354 0.449561 0
M  V30 1099 H 105.452 1.48584 0.155949 0
M  V30 1100 H 107.334 3.0557 2.90181 0
M  V30 1101 H 106.009 1.89192 2.62656 0
M  V30 1102 H 104.916 3.59054 1.05028 0
M  V30 1103 H 106.249 4.71848 1.40073 0
M  V30 1104 N 107.901 -0.206675 1.56239 0
M  V30 1105 C 109.129 -0.945345 1.8404 0
M  V30 1106 C 109.544 -1.77336 0.647885 0
M  V30 1107 O 108.901 -1.78425 -0.383511 0
M  V30 1108 C 108.952 -1.8509 3.10522 0
M  V30 1109 O 108.673 -1.05634 4.25174 0
M  V30 1110 C 110.174 -2.70222 3.51418 0
M  V30 1111 H 107.394 -0.276372 0.61144 0
M  V30 1112 H 109.938 -0.217417 2.03341 0
M  V30 1113 H 108.093 -2.53259 2.93153 0
M  V30 1114 H 108.507 -1.67238 4.97124 0
M  V30 1115 H 109.981 -3.29438 4.42916 0
M  V30 1116 H 110.458 -3.43358 2.73864 0
M  V30 1117 H 111.064 -2.07443 3.71278 0
M  V30 1118 N 109.379 -1.50304 -0.473955 0
M  V30 1119 C 110.309 -1.71886 -1.58042 0
M  V30 1120 C 111.29 -0.567799 -1.60344 0
M  V30 1121 O 112.475 -0.806623 -1.76656 0
M  V30 1122 C 109.605 -1.81036 -2.96384 0
M  V30 1123 C 108.559 -2.962 -3.08949 0
M  V30 1124 C 107.885 -2.9049 -4.48909 0
M  V30 1125 C 109.185 -4.36752 -2.86434 0
M  V30 1126 H 110.879 -2.64527 -1.40234 0
M  V30 1127 H 108.425 -1.27295 -0.673201 0
M  V30 1128 H 110.378 -1.94719 -3.73714 0
M  V30 1129 H 109.102 -0.850147 -3.15341 0
M  V30 1130 H 107.761 -2.82164 -2.3405 0
M  V30 1131 H 107.409 -1.92321 -4.64781 0
M  V30 1132 H 107.109 -3.67802 -4.58253 0
M  V30 1133 H 108.633 -3.06218 -5.28264 0
M  V30 1134 H 110.047 -4.5133 -3.53517 0
M  V30 1135 H 108.444 -5.15493 -3.07225 0
M  V30 1136 H 109.514 -4.49321 -1.82316 0
M  V30 1137 N 110.857 0.726932 -1.39834 0
M  V30 1138 C 112.105 1.4837 -1.37225 0
M  V30 1139 C 112.426 1.94979 0.0284857 0
M  V30 1140 O 111.696 1.69555 0.981213 0
M  V30 1141 H 110.276 0.55043 -0.505011 0
M  V30 1142 H 112.938 0.862468 -1.74778 0
M  V30 1143 H 112.034 2.36198 -2.04003 0
M  V30 1144 N 112.336 1.25143 0.95797 0
M  V30 1145 C 113.613 1.00472 1.67823 0
M  V30 1146 C 113.993 -0.470056 2.058 0
M  V30 1147 O 113.341 -1.44663 1.76875 0
M  V30 1148 C 113.551 1.9372 2.90299 0
M  V30 1149 C 114.899 2.21371 3.62326 0
M  V30 1150 O 115.923 1.91451 3.00375 0
M  V30 1151 O 114.782 2.72231 4.7387 0
M  V30 1152 H 111.876 0.380752 0.734137 0
M  V30 1153 H 114.422 1.36283 1.01119 0
M  V30 1154 H 113.194 2.93316 2.59001 0
M  V30 1155 H 112.817 1.58286 3.64735 0
M  V30 1156 N 113.814 -1.1601 1.06675 0
M  V30 1157 C 115.06 -1.86909 0.786945 0
M  V30 1158 C 115.393 -1.81717 -0.685018 0
M  V30 1159 O 114.668 -1.23551 -1.50218 0
M  V30 1160 C 114.951 -3.36313 1.28707 0
M  V30 1161 C 114.804 -3.50175 2.82308 0
M  V30 1162 C 116.123 -4.3084 0.898071 0
M  V30 1163 H 113.242 -0.678677 0.287343 0
M  V30 1164 H 115.884 -1.36336 1.32334 0
M  V30 1165 H 114.034 -3.79513 0.830768 0
M  V30 1166 H 115.706 -3.15886 3.36175 0
M  V30 1167 H 113.949 -2.91959 3.20847 0
M  V30 1168 H 114.62 -4.55116 3.12368 0
M  V30 1169 H 117.096 -3.95561 1.29114 0
M  V30 1170 H 115.972 -5.33876 1.27543 0
M  V30 1171 H 116.233 -4.41662 -0.196651 0
M  V30 1172 N 115.292 -0.849877 -1.32721 0
M  V30 1173 C 116.242 -0.262892 -2.26479 0
M  V30 1174 C 117.226 0.588493 -1.49752 0
M  V30 1175 O 118.418 0.438659 -1.71478 0
M  V30 1176 C 115.547 0.551818 -3.38836 0
M  V30 1177 C 114.633 -0.311689 -4.22953 0
M  V30 1178 N 115.024 -1.39567 -4.86163 0
M  V30 1179 C 113.322 -0.100611 -4.45887 0
M  V30 1180 C 114.023 -1.92651 -5.48872 0
M  V30 1181 N 112.999 -1.22637 -5.29586 0
M  V30 1182 H 116.801 -1.09166 -2.72873 0
M  V30 1183 H 114.315 -0.695486 -1.46754 0
M  V30 1184 H 116.312 0.988713 -4.05006 0
M  V30 1185 H 114.972 1.37844 -2.93988 0
M  V30 1186 H 115.983 -1.77859 -4.86402 0
M  V30 1187 H 112.66 0.691681 -4.11731 0
M  V30 1188 H 114.05 -2.83487 -6.09167 0
M  V30 1189 N 116.77 1.45427 -0.607355 0
M  V30 1190 C 118.047 1.9557 -0.0344566 0
M  V30 1191 C 118.427 1.54979 1.43334 0
M  V30 1192 O 117.775 0.812241 2.13576 0
M  V30 1193 C 117.985 3.48226 -0.232321 0
M  V30 1194 C 119.333 4.2445 -0.113001 0
M  V30 1195 O 120.357 3.55829 -0.162431 0
M  V30 1196 O 119.216 5.465 0.00209442 0
M  V30 1197 H 116.31 0.826222 0.0358667 0
M  V30 1198 H 118.856 1.55594 -0.6774 0
M  V30 1199 H 117.628 3.70739 -1.25174 0
M  V30 1200 H 117.251 3.95092 0.445896 0
M  V30 1201 N 118.248 0.346503 1.53744 0
M  V30 1202 C 119.495 -0.249104 2.00962 0
M  V30 1203 C 119.823 -1.5032 1.23426 0
M  V30 1204 O 119.078 -1.93217 0.310761 0
M  V30 1205 C 119.377 -0.605809 3.52228 0
M  V30 1206 C 119.043 0.551747 4.47512 0
M  V30 1207 C 117.705 0.86941 4.73281 0
M  V30 1208 C 120.057 1.32818 5.03993 0
M  V30 1209 C 117.385 1.96582 5.52786 0
M  V30 1210 C 119.737 2.41486 5.84694 0
M  V30 1211 C 118.401 2.73808 6.08757 0
M  V30 1212 H 117.671 -0.0911538 0.735372 0
M  V30 1213 H 120.318 0.475027 1.85515 0
M  V30 1214 H 118.623 -1.4107 3.65522 0
M  V30 1215 H 120.32 -1.07858 3.86222 0
M  V30 1216 H 116.91 0.294102 4.2759 0
M  V30 1217 H 121.094 1.09602 4.84047 0
M  V30 1218 H 116.35 2.22045 5.69654 0
M  V30 1219 H 120.524 3.02078 6.27473 0
M  V30 1220 H 118.151 3.58892 6.7015 0
M  V30 1221 N 119.726 -1.57421 0.075193 0
M  V30 1222 C 120.656 -2.15942 -0.888324 0
M  V30 1223 C 121.637 -1.08737 -1.30806 0
M  V30 1224 O 122.822 -1.36787 -1.37851 0
M  V30 1225 C 119.952 -2.72379 -2.1547 0
M  V30 1226 C 118.906 -3.8478 -1.87425 0
M  V30 1227 C 118.232 -4.27834 -3.20721 0
M  V30 1228 C 119.532 -5.08869 -1.17684 0
M  V30 1229 H 121.226 -2.96705 -0.400799 0
M  V30 1230 H 118.772 -1.42723 -0.191342 0
M  V30 1231 H 120.725 -3.11965 -2.83295 0
M  V30 1232 H 119.449 -1.88841 -2.6647 0
M  V30 1233 H 118.108 -3.45703 -1.22004 0
M  V30 1234 H 117.756 -3.41214 -3.6957 0
M  V30 1235 H 117.456 -5.03605 -3.02746 0
M  V30 1236 H 118.98 -4.70039 -3.89738 0
M  V30 1237 H 120.394 -5.4575 -1.75584 0
M  V30 1238 H 118.791 -5.8994 -1.09956 0
M  V30 1239 H 119.861 -4.84648 -0.156453 0
M  V30 1240 N 121.204 0.198386 -1.56346 0
M  V30 1241 C 122.134 1.24865 -1.9731 0
M  V30 1242 C 123.115 1.47651 -0.844576 0
M  V30 1243 O 124.3 1.59444 -1.10866 0
M  V30 1244 C 121.43 2.59358 -2.30977 0
M  V30 1245 C 120.384 2.5119 -3.46537 0
M  V30 1246 C 119.71 3.89926 -3.65871 0
M  V30 1247 C 121.01 2.03977 -4.80823 0
M  V30 1248 H 122.704 0.908252 -2.85291 0
M  V30 1249 H 120.25 0.435462 -1.37258 0
M  V30 1250 H 122.203 3.33011 -2.58228 0
M  V30 1251 H 120.927 2.95132 -1.39874 0
M  V30 1252 H 119.586 1.79993 -3.19371 0
M  V30 1253 H 119.234 4.23046 -2.72105 0
M  V30 1254 H 118.934 3.85336 -4.4361 0
M  V30 1255 H 120.458 4.65205 -3.95495 0
M  V30 1256 H 121.872 2.67386 -5.07127 0
M  V30 1257 H 120.269 2.10397 -5.62008 0
M  V30 1258 H 121.339 0.992861 -4.74626 0
M  V30 1259 N 122.682 1.50554 0.465978 0
M  V30 1260 C 124.098 1.38093 0.800154 0
M  V30 1261 C 124.298 0.440988 1.96615 0
M  V30 1262 O 123.354 -0.114499 2.5224 0
M  V30 1263 C 124.667 2.79565 1.10742 0
M  V30 1264 C 126.215 2.88516 1.21357 0
M  V30 1265 C 126.69 4.30833 1.55393 0
M  V30 1266 N 128.181 4.33807 1.62375 0
M  V30 1267 C 128.916 5.40927 1.90225 0
M  V30 1268 N 128.412 6.58247 2.16062 0
M  V30 1269 N 130.205 5.28376 1.9177 0
M  V30 1270 H 122.356 2.10237 -0.302366 0
M  V30 1271 H 124.619 0.945203 -0.0727746 0
M  V30 1272 H 124.325 3.50208 0.323661 0
M  V30 1273 H 124.199 3.17125 2.04234 0
M  V30 1274 H 126.586 2.1809 1.98799 0
M  V30 1275 H 126.667 2.54492 0.258321 0
M  V30 1276 H 126.311 5.01799 0.784889 0
M  V30 1277 H 126.241 4.62347 2.52076 0
M  V30 1278 H 128.732 3.49212 1.44427 0
M  V30 1279 H 129.045 7.3569 2.36601 0
M  V30 1280 H 127.39 6.61413 2.13444 0
M  V30 1281 H 130.581 4.35715 1.71085 0
M  V30 1282 H 130.754 6.11944 2.13139 0
M  V30 1283 N 124.16 -0.719506 1.40217 0
M  V30 1284 C 125.09 -1.8465 1.42922 0
M  V30 1285 C 126.071 -1.67599 0.29062 0
M  V30 1286 O 127.256 -1.87688 0.498677 0
M  V30 1287 C 124.386 -3.22565 1.28722 0
M  V30 1288 C 123.34 -3.54281 2.40144 0
M  V30 1289 C 122.666 -4.91298 2.11023 0
M  V30 1290 C 123.966 -3.55676 3.82481 0
M  V30 1291 H 125.66 -1.82644 2.37237 0
M  V30 1292 H 123.206 -0.877305 1.1419 0
M  V30 1293 H 125.159 -4.01095 1.29232 0
M  V30 1294 H 123.883 -3.25137 0.308811 0
M  V30 1295 H 122.542 -2.78088 2.38877 0
M  V30 1296 H 122.19 -4.90468 1.11582 0
M  V30 1297 H 121.89 -5.13485 2.8567 0
M  V30 1298 H 123.414 -5.72166 2.13209 0
M  V30 1299 H 124.828 -4.24254 3.85592 0
M  V30 1300 H 123.225 -3.89388 4.56614 0
M  V30 1301 H 124.295 -2.55144 4.12346 0
M  V30 1302 N 125.638 -1.25649 -0.95132 0
M  V30 1303 C 126.885 -1.10594 -1.69633 0
M  V30 1304 C 127.213 0.352515 -1.91279 0
M  V30 1305 O 126.468 1.27601 -1.4838 0
M  V30 1306 C 126.767 -1.80909 -3.08231 0
M  V30 1307 C 126.433 -3.30825 -3.06375 0
M  V30 1308 C 125.095 -3.71722 -3.05576 0
M  V30 1309 C 127.447 -4.26589 -2.99452 0
M  V30 1310 C 124.775 -5.06788 -2.95606 0
M  V30 1311 C 127.127 -5.61683 -2.91024 0
M  V30 1312 C 125.791 -6.01904 -2.88562 0
M  V30 1313 H 125.061 -0.404691 -0.620731 0
M  V30 1314 H 127.708 -1.55964 -1.11119 0
M  V30 1315 H 126.013 -1.27979 -3.70309 0
M  V30 1316 H 127.71 -1.6671 -3.64704 0
M  V30 1317 H 124.3 -2.98287 -3.07771 0
M  V30 1318 H 128.484 -3.95982 -2.99185 0
M  V30 1319 H 123.74 -5.37126 -2.92071 0
M  V30 1320 H 127.914 -6.35578 -2.84629 0
M  V30 1321 H 125.541 -7.06521 -2.80593 0
M  V30 1322 N 127.117 1.15442 -1.07289 0
M  V30 1323 C 128.047 2.22312 -0.714107 0
M  V30 1324 C 129.028 1.67467 0.298155 0
M  V30 1325 O 130.213 1.93445 0.171048 0
M  V30 1326 C 127.343 3.47124 -0.110448 0
M  V30 1327 C 126.297 4.14926 -1.04979 0
M  V30 1328 C 125.623 5.33807 -0.308924 0
M  V30 1329 C 126.923 4.64762 -2.38314 0
M  V30 1330 H 128.617 2.5258 -1.6076 0
M  V30 1331 H 126.163 1.21404 -0.77441 0
M  V30 1332 H 128.116 4.21124 0.152482 0
M  V30 1333 H 126.84 3.16187 0.81812 0
M  V30 1334 H 125.499 3.42866 -1.29764 0
M  V30 1335 H 125.147 4.99126 0.623084 0
M  V30 1336 H 124.847 5.80113 -0.935036 0
M  V30 1337 H 126.371 6.10576 -0.0537771 0
M  V30 1338 H 127.785 5.30292 -2.1786 0
M  V30 1339 H 126.182 5.21728 -2.96514 0
M  V30 1340 H 127.252 3.80434 -3.00663 0
M  V30 1341 N 128.595 0.856903 1.32268 0
M  V30 1342 C 129.872 0.382583 1.91822 0
M  V30 1343 C 130.252 -1.13407 1.78051 0
M  V30 1344 O 129.6 -1.95673 1.18001 0
M  V30 1345 C 129.81 0.849446 3.38505 0
M  V30 1346 C 131.158 0.867936 4.15634 0
M  V30 1347 O 132.182 0.794232 3.47232 0
M  V30 1348 O 131.041 0.972286 5.37781 0
M  V30 1349 H 128.135 0.112014 0.819379 0
M  V30 1350 H 130.681 0.943952 1.41024 0
M  V30 1351 H 129.453 1.89267 3.42482 0
M  V30 1352 H 129.076 0.265652 3.96712 0
M  V30 1353 N 130.073 -1.45103 0.615059 0
M  V30 1354 C 131.489 -1.57137 0.279322 0
M  V30 1355 C 131.689 -1.60523 -1.21797 0
M  V30 1356 O 130.745 -1.53956 -2.00134 0
M  V30 1357 C 132.058 -2.85062 0.957083 0
M  V30 1358 C 133.606 -2.98749 0.933706 0
M  V30 1359 C 134.081 -4.29455 1.59162 0
M  V30 1360 N 135.572 -4.36231 1.55746 0
M  V30 1361 C 136.307 -5.36051 2.0356 0
M  V30 1362 N 135.803 -6.42367 2.59494 0
M  V30 1363 N 137.596 -5.27456 1.94284 0
M  V30 1364 H 129.747 -1.41148 1.58717 0
M  V30 1365 H 132.01 -0.675331 0.665306 0
M  V30 1366 H 131.716 -2.88488 2.01166 0
M  V30 1367 H 131.59 -3.7407 0.48494 0
M  V30 1368 H 133.977 -2.94886 -0.112347 0
M  V30 1369 H 134.058 -2.11132 1.44419 0
M  V30 1370 H 133.702 -4.34077 2.63704 0
M  V30 1371 H 133.632 -5.15901 1.0561 0
M  V30 1372 H 136.123 -3.60011 1.14893 0
M  V30 1373 H 136.436 -7.14793 2.93752 0
M  V30 1374 H 134.781 -6.43097 2.63537 0
M  V30 1375 H 137.972 -4.43308 1.5032 0
M  V30 1376 H 138.145 -6.05099 2.3186 0
M  V30 1377 N 131.551 -0.354651 -1.53558 0
M  V30 1378 C 132.828 0.294281 -1.93374 0
M  V30 1379 C 133.208 1.67313 -1.28723 0
M  V30 1380 O 132.556 2.24179 -0.442247 0
M  V30 1381 C 132.766 0.355445 -3.47185 0
M  V30 1382 C 134.114 0.601007 -4.20325 0
M  V30 1383 O 135.138 0.437106 -3.53508 0
M  V30 1384 O 133.997 0.919322 -5.38712 0
M  V30 1385 H 131.091 0.174033 -0.808481 0
M  V30 1386 H 133.637 -0.406638 -1.64756 0
M  V30 1387 H 132.409 -0.611729 -3.86489 0
M  V30 1388 H 132.032 1.1027 -3.82003 0
M  V30 1389 N 133.029 1.57378 -0.0835403 0
M  V30 1390 C 133.959 2.1641 0.87686 0
M  V30 1391 C 134.94 1.09429 1.30228 0
M  V30 1392 O 136.125 1.37516 1.37124 0
M  V30 1393 C 133.255 2.73517 2.14022 0
M  V30 1394 C 132.209 3.85769 1.85381 0
M  V30 1395 C 131.535 4.29529 3.18448 0
M  V30 1396 C 132.835 5.09486 1.14984 0
M  V30 1397 H 134.529 2.96914 0.385059 0
M  V30 1398 H 132.075 1.42823 0.18377 0
M  V30 1399 H 134.028 3.13463 2.81636 0
M  V30 1400 H 132.752 1.90252 2.65465 0
M  V30 1401 H 131.411 3.46345 1.20169 0
M  V30 1402 H 131.059 3.43169 3.67755 0
M  V30 1403 H 130.759 5.05204 3.00071 0
M  V30 1404 H 132.283 4.72099 3.8724 0
M  V30 1405 H 133.697 5.46674 1.72687 0
M  V30 1406 H 132.094 5.90515 1.06826 0
M  V30 1407 H 133.164 4.84724 0.130749 0
M  V30 1408 N 134.507 -0.190092 1.56449 0
M  V30 1409 C 135.44 -1.26375 1.90012 0
M  V30 1410 C 136.418 -1.43705 0.760765 0
M  V30 1411 O 137.602 -1.59014 1.01226 0
M  V30 1412 C 134.729 -2.62962 2.13468 0
M  V30 1413 C 133.775 -2.62474 3.36169 0
M  V30 1414 S 134.608 -2.13412 4.91137 0
M  V30 1415 C 135.764 -3.51812 5.17667 0
M  V30 1416 H 135.997 -0.977181 2.80782 0
M  V30 1417 H 133.53 -0.393814 1.49293 0
M  V30 1418 H 135.488 -3.41583 2.27664 0
M  V30 1419 H 134.149 -2.88828 1.23439 0
M  V30 1420 H 133.342 -3.62918 3.49723 0
M  V30 1421 H 132.944 -1.91937 3.20992 0
M  V30 1422 H 135.236 -4.47706 5.08494 0
M  V30 1423 H 136.179 -3.43148 6.19399 0
M  V30 1424 H 136.587 -3.46956 4.45288 0
M  V30 1425 N 135.985 -1.50799 -0.457987 0
M  V30 1426 C 137.213 -1.66218 -1.23203 0
M  V30 1427 C 137.628 -0.350894 -1.85511 0
M  V30 1428 O 136.985 0.668546 -1.69814 0
M  V30 1429 C 137.036 -2.76291 -2.33121 0
M  V30 1430 O 136.757 -4.02338 -1.73366 0
M  V30 1431 C 138.258 -3.028 -3.2377 0
M  V30 1432 H 135.478 -0.558361 -0.372121 0
M  V30 1433 H 138.022 -1.97099 -0.545179 0
M  V30 1434 H 136.177 -2.48068 -2.97558 0
M  V30 1435 H 136.591 -4.63312 -2.4585 0
M  V30 1436 H 138.065 -3.8345 -3.97077 0
M  V30 1437 H 138.542 -2.14385 -3.83322 0
M  V30 1438 H 139.148 -3.32604 -2.65056 0
M  V30 1439 N 137.463 0.71206 -1.40597 0
M  V30 1440 C 138.393 1.83889 -1.43899 0
M  V30 1441 C 139.374 1.67442 -0.299504 0
M  V30 1442 O 140.559 1.87421 -0.508624 0
M  V30 1443 C 137.689 3.21877 -1.30431 0
M  V30 1444 C 136.643 3.53002 -2.42019 0
M  V30 1445 C 135.969 4.90172 -2.13626 0
M  V30 1446 C 137.269 3.53643 -3.84362 0
M  V30 1447 H 138.963 1.81383 -2.38203 0
M  V30 1448 H 136.509 0.871237 -1.14654 0
M  V30 1449 H 138.462 4.00404 -1.31357 0
M  V30 1450 H 137.186 3.24968 -0.326049 0
M  V30 1451 H 135.845 2.76818 -2.40349 0
M  V30 1452 H 135.493 4.89869 -1.14182 0
M  V30 1453 H 135.193 5.11962 -2.88389 0
M  V30 1454 H 136.717 5.71028 -2.1624 0
M  V30 1455 H 138.131 4.22203 -3.87837 0
M  V30 1456 H 136.528 3.86961 -4.58673 0
M  V30 1457 H 137.598 2.52954 -4.13693 0
M  V30 1458 N 138.941 1.26152 0.944643 0
M  V30 1459 C 140.352 1.10454 1.50522 0
M  V30 1460 C 140.703 -0.31635 1.93633 0
M  V30 1461 O 139.828 -1.20746 1.79581 0
M  V30 1462 C 140.423 1.99891 2.73549 0
M  V30 1463 C 138.982 1.88348 3.25886 0
M  V30 1464 C 138.129 1.93447 1.9868 0
M  V30 1465 H 141.08 1.39292 0.760489 0
M  V30 1466 H 141.101 1.54477 3.47732 0
M  V30 1467 H 140.613 3.03297 2.42141 0
M  V30 1468 H 138.714 0.878636 3.62092 0
M  V30 1469 H 138.827 2.73696 3.93227 0
M  V30 1470 H 137.191 1.37456 2.14425 0
M  V30 1471 H 137.974 2.98476 1.69607 0
M  V30 1472 N 140.419 -1.14872 1.07899 0
M  V30 1473 C 141.668 -1.85135 0.800499 0
M  V30 1474 C 141.981 -1.83547 -0.676014 0
M  V30 1475 O 143.187 -2.49548 -1.06948 0
M  V30 1476 C 141.643 -3.3231 1.38197 0
M  V30 1477 C 141.251 -3.42329 2.8899 0
M  V30 1478 C 142.995 -4.0772 1.18174 0
M  V30 1479 C 140.902 -4.83684 3.403 0
M  V30 1480 H 139.832 -0.693563 0.29578 0
M  V30 1481 H 142.483 -1.29532 1.29976 0
M  V30 1482 H 140.865 -3.87618 0.810431 0
M  V30 1483 H 142.039 -2.97097 3.52236 0
M  V30 1484 H 140.354 -2.80369 3.07867 0
M  V30 1485 H 142.951 -5.12049 1.5398 0
M  V30 1486 H 143.294 -4.16124 0.12117 0
M  V30 1487 H 143.827 -3.58696 1.71994 0
M  V30 1488 H 140.566 -4.80465 4.45907 0
M  V30 1489 H 140.086 -5.29474 2.81811 0
M  V30 1490 H 141.765 -5.52558 3.36584 0
M  V30 1491 N 141.898 -0.863906 -1.31812 0
M  V30 1492 C 142.83 -0.272485 -2.27575 0
M  V30 1493 C 143.843 0.56104 -1.52827 0
M  V30 1494 O 145.032 0.384021 -1.7432 0
M  V30 1495 C 142.132 0.63283 -3.32939 0
M  V30 1496 C 141.305 -0.166902 -4.37081 0
M  V30 1497 C 140.364 0.665608 -5.21973 0
M  V30 1498 O 139.39 0.0958091 -5.69119 0
M  V30 1499 N 140.592 1.9787 -5.45736 0
M  V30 1500 H 143.357 -1.0954 -2.78964 0
M  V30 1501 H 140.918 -0.724791 -1.4477 0
M  V30 1502 H 142.91 1.19532 -3.86645 0
M  V30 1503 H 141.48 1.35642 -2.81638 0
M  V30 1504 H 140.7 -0.910838 -3.83533 0
M  V30 1505 H 141.988 -0.715874 -5.03739 0
M  V30 1506 H 141.386 2.46484 -5.09178 0
M  V30 1507 H 139.943 2.48911 -6.024 0
M  V30 1508 N 143.376 1.44774 -0.622745 0
M  V30 1509 C 144.324 2.32387 0.0994683 0
M  V30 1510 C 145.318 1.46859 0.844326 0
M  V30 1511 O 146.524 1.63254 0.758174 0
M  V30 1512 H 142.899 0.750273 0.0509291 0
M  V30 1513 H 144.87 2.91062 -0.65767 0
M  V30 1514 C 143.619 3.30723 1.07319 0
M  V30 1515 H 142.942 3.96541 0.509462 0
M  V30 1516 H 144.382 3.94725 1.54817 0
M  V30 1517 C 142.841 2.59021 2.15429 0
M  V30 1518 O 143.371 2.38286 3.23393 0
M  V30 1519 N 141.577 2.189 1.91131 0
M  V30 1520 H 141.124 2.35964 1.03337 0
M  V30 1521 H 141.082 1.71251 2.63668 0
M  V30 1522 N 144.854 0.36279 1.53368 0
M  V30 1523 C 145.801 -0.485008 2.25646 0
M  V30 1524 C 146.771 -1.07982 1.2621 0
M  V30 1525 O 147.956 -1.11284 1.54986 0
M  V30 1526 C 145.096 -1.62023 3.04701 0
M  V30 1527 C 144.209 -1.05086 4.19024 0
M  V30 1528 C 143.344 -2.15496 4.85525 0
M  V30 1529 C 142.383 -1.5601 5.91884 0
M  V30 1530 N 141.52 -2.60241 6.52088 0
M  V30 1531 H 146.36 0.137864 2.97681 0
M  V30 1532 H 143.897 0.0798061 1.46883 0
M  V30 1533 H 145.855 -2.28887 3.48807 0
M  V30 1534 H 144.485 -2.2138 2.34927 0
M  V30 1535 H 143.537 -0.27259 3.79422 0
M  V30 1536 H 144.849 -0.575926 4.95464 0
M  V30 1537 H 144.003 -2.90186 5.32801 0
M  V30 1538 H 142.742 -2.66341 4.08551 0
M  V30 1539 H 141.747 -0.798338 5.43973 0
M  V30 1540 H 142.972 -1.05994 6.70777 0
M  V30 1541 H 140.918 -3.10304 5.77968 0
M  V30 1542 H 140.835 -2.17426 7.24059 0
M  V30 1543 H 142.103 -3.34641 7.04014 0
M  V30 1544 N 146.332 -1.57332 0.0918853 0
M  V30 1545 C 147.262 -2.16872 -0.865371 0
M  V30 1546 C 148.243 -1.10118 -1.29646 0
M  V30 1547 O 149.428 -1.38242 -1.36392 0
M  V30 1548 C 146.558 -2.74649 -2.12569 0
M  V30 1549 C 145.512 -3.86747 -1.83333 0
M  V30 1550 C 144.838 -4.31212 -3.16166 0
M  V30 1551 C 146.138 -5.10089 -1.1228 0
M  V30 1552 H 147.832 -2.97114 -0.369307 0
M  V30 1553 H 145.378 -1.42918 -0.176194 0
M  V30 1554 H 147.331 -3.14952 -2.7997 0
M  V30 1555 H 146.055 -1.91657 -2.64452 0
M  V30 1556 H 144.714 -3.46978 -1.18331 0
M  V30 1557 H 144.362 -3.45115 -3.6593 0
M  V30 1558 H 144.062 -5.06788 -2.97388 0
M  V30 1559 H 145.586 -4.74146 -3.84731 0
M  V30 1560 H 147 -5.47582 -1.69785 0
M  V30 1561 H 145.397 -5.91073 -1.03693 0
M  V30 1562 H 146.467 -4.84786 -0.105041 0
M  V30 1563 N 147.81 0.181792 -1.56548 0
M  V30 1564 C 148.773 1.20894 -1.94724 0
M  V30 1565 C 149.773 1.37738 -0.829747 0
M  V30 1566 O 150.963 1.35323 -1.09697 0
M  V30 1567 C 148.095 2.57593 -2.23291 0
M  V30 1568 H 149.288 0.882275 -2.86629 0
M  V30 1569 H 146.841 0.423838 -1.50444 0
M  V30 1570 H 147.576 2.95291 -1.34067 0
M  V30 1571 H 147.361 2.46735 -3.04736 0
M  V30 1572 H 148.851 3.31637 -2.53785 0
M  V30 1573 N 149.288 1.51039 0.449983 0
M  V30 1574 C 150.699 1.557 1.03026 0
M  V30 1575 C 151.05 0.372939 1.92623 0
M  V30 1576 O 150.175 -0.511771 2.10261 0
M  V30 1577 C 150.77 2.82171 1.87523 0
M  V30 1578 C 149.329 2.89444 2.40622 0
M  V30 1579 C 148.476 2.50228 1.19504 0
M  V30 1580 H 151.427 1.56999 0.231745 0
M  V30 1581 H 151.448 2.65219 2.72835 0
M  V30 1582 H 150.96 3.68331 1.22286 0
M  V30 1583 H 149.061 2.07685 3.0935 0
M  V30 1584 H 149.174 3.92816 2.74285 0
M  V30 1585 H 147.538 2.03139 1.53644 0
M  V30 1586 H 148.321 3.38719 0.558972 0
M  V30 1587 N 150.766 -0.704594 1.40972 0
M  V30 1588 C 152.013 -1.46458 1.39844 0
M  V30 1589 C 152.341 -1.94499 0.00447594 0
M  V30 1590 O 151.596 -1.69275 -0.982057 0
M  V30 1591 C 151.895 -2.698 2.34399 0
M  V30 1592 C 151.561 -2.40464 3.81429 0
M  V30 1593 C 150.223 -2.32174 4.21484 0
M  V30 1594 C 152.575 -2.16086 4.74296 0
M  V30 1595 C 149.903 -1.97589 5.52427 0
M  V30 1596 C 152.255 -1.83011 6.05549 0
M  V30 1597 C 150.919 -1.7321 6.44635 0
M  V30 1598 H 150.189 -0.535927 0.511725 0
M  V30 1599 H 152.836 -0.806124 1.73706 0
M  V30 1600 H 151.141 -3.40536 1.93759 0
M  V30 1601 H 152.838 -3.27919 2.30804 0
M  V30 1602 H 149.428 -2.47808 3.49699 0
M  V30 1603 H 153.612 -2.2144 4.4416 0
M  V30 1604 H 148.868 -1.88547 5.81601 0
M  V30 1605 H 153.042 -1.63164 6.77016 0
M  V30 1606 H 150.669 -1.46179 7.46013 0
M  V30 1607 N 152.244 -1.26651 -0.937939 0
M  V30 1608 C 153.493 -1.11775 -1.67897 0
M  V30 1609 C 153.806 0.33794 -1.92659 0
M  V30 1610 O 155.012 0.607434 -2.64618 0
M  V30 1611 C 153.468 -1.9523 -3.02346 0
M  V30 1612 C 153.076 -3.45393 -2.8532 0
M  V30 1613 C 154.82 -1.88972 -3.80118 0
M  V30 1614 C 152.727 -4.21083 -4.15263 0
M  V30 1615 H 151.657 -0.414696 -0.629717 0
M  V30 1616 H 154.308 -1.50988 -1.04283 0
M  V30 1617 H 152.69 -1.48853 -3.66959 0
M  V30 1618 H 153.864 -3.99561 -2.29537 0
M  V30 1619 H 152.179 -3.52921 -2.20988 0
M  V30 1620 H 154.776 -2.42805 -4.76392 0
M  V30 1621 H 155.119 -0.86113 -4.07296 0
M  V30 1622 H 155.652 -2.33189 -3.22285 0
M  V30 1623 H 152.391 -5.24425 -3.93267 0
M  V30 1624 H 151.911 -3.71695 -4.70747 0
M  V30 1625 H 153.59 -4.29706 -4.83696 0
M  V30 1626 N 153.722 1.14298 -1.08507 0
M  V30 1627 C 154.685 2.17607 -0.719711 0
M  V30 1628 C 155.685 1.58907 0.245997 0
M  V30 1629 O 156.875 1.74181 0.0254081 0
M  V30 1630 C 154.007 3.40842 -0.0627695 0
M  V30 1631 H 155.2 2.51443 -1.63452 0
M  V30 1632 H 152.753 1.28963 -0.88307 0
M  V30 1633 H 153.488 3.12587 0.863716 0
M  V30 1634 H 153.273 3.84713 -0.757504 0
M  V30 1635 H 154.763 4.17221 0.177786 0
M  V30 1636 N 155.201 0.870884 1.31352 0
M  V30 1637 C 156.148 0.325425 2.28494 0
M  V30 1638 C 157.118 -0.576615 1.5577 0
M  V30 1639 O 158.303 -0.508059 1.83911 0
M  V30 1640 C 155.443 -0.466283 3.41935 0
M  V30 1641 C 154.556 0.463378 4.29508 0
M  V30 1642 C 153.691 -0.342544 5.30094 0
M  V30 1643 C 152.73 0.583486 6.09313 0
M  V30 1644 N 151.867 -0.186244 7.01853 0
M  V30 1645 H 156.707 1.15901 2.74538 0
M  V30 1646 H 154.244 0.58294 1.35056 0
M  V30 1647 H 156.202 -0.941085 4.06447 0
M  V30 1648 H 154.832 -1.26456 2.97 0
M  V30 1649 H 153.884 1.05663 3.65431 0
M  V30 1650 H 155.196 1.1734 4.84802 0
M  V30 1651 H 154.35 -0.879816 6.00287 0
M  V30 1652 H 153.089 -1.08585 4.75458 0
M  V30 1653 H 152.094 1.13251 5.3801 0
M  V30 1654 H 153.319 1.32566 6.66035 0
M  V30 1655 H 151.265 -0.912348 6.49625 0
M  V30 1656 H 151.182 0.464422 7.54572 0
M  V30 1657 H 152.45 -0.704716 7.76308 0
M  V30 1658 N 156.679 -1.44442 0.630414 0
M  V30 1659 C 158.095 -1.56832 0.295973 0
M  V30 1660 C 158.295 -1.61806 -1.20088 0
M  V30 1661 O 157.351 -1.5607 -1.9849 0
M  V30 1662 C 158.664 -2.84031 0.987264 0
M  V30 1663 C 160.212 -2.97742 0.96534 0
M  V30 1664 C 160.687 -4.27743 1.63708 0
M  V30 1665 N 162.178 -4.34555 1.60364 0
M  V30 1666 C 162.913 -5.33862 2.09234 0
M  V30 1667 N 162.409 -6.39578 2.66292 0
M  V30 1668 N 164.202 -5.25366 1.99867 0
M  V30 1669 H 156.353 -1.39457 1.60205 0
M  V30 1670 H 158.616 -0.668237 0.672431 0
M  V30 1671 H 158.322 -2.86338 2.04215 0
M  V30 1672 H 158.196 -3.73534 0.524588 0
M  V30 1673 H 160.583 -2.94989 -0.0810639 0
M  V30 1674 H 160.664 -2.09589 1.4665 0
M  V30 1675 H 160.308 -4.31255 2.68293 0
M  V30 1676 H 160.238 -5.14752 1.11076 0
M  V30 1677 H 162.729 -3.58772 1.18705 0
M  V30 1678 H 163.042 -7.11637 3.01317 0
M  V30 1679 H 161.387 -6.40265 2.70343 0
M  V30 1680 H 164.578 -4.41688 1.55013 0
M  V30 1681 H 164.751 -6.02606 2.38265 0
M  V30 1682 N 158.157 -0.370918 -1.53173 0
M  V30 1683 C 159.573 -0.0200818 -1.59587 0
M  V30 1684 C 159.773 1.46279 -1.38581 0
M  V30 1685 O 158.829 2.22506 -1.19363 0
M  V30 1686 C 160.142 -0.4808 -2.96831 0
M  V30 1687 C 161.69 -0.435477 -3.09956 0
M  V30 1688 C 162.165 -0.872092 -4.4962 0
M  V30 1689 N 163.656 -0.827364 -4.55751 0
M  V30 1690 C 164.391 -1.13683 -5.62018 0
M  V30 1691 N 163.887 -1.51584 -6.76014 0
M  V30 1692 N 165.68 -1.05927 -5.52029 0
M  V30 1693 H 157.831 -1.33652 -1.65079 0
M  V30 1694 H 160.094 -0.546634 -0.774529 0
M  V30 1695 H 159.8 -1.51577 -3.1736 0
M  V30 1696 H 159.674 0.129796 -3.76977 0
M  V30 1697 H 162.061 0.590371 -2.89134 0
M  V30 1698 H 162.142 -1.08164 -2.31806 0
M  V30 1699 H 161.786 -1.89608 -4.71181 0
M  V30 1700 H 161.716 -0.203127 -5.26208 0
M  V30 1701 H 164.207 -0.548216 -3.73902 0
M  V30 1702 H 164.52 -1.73609 -7.53047 0
M  V30 1703 H 162.865 -1.55454 -6.77391 0
M  V30 1704 H 166.056 -0.762321 -4.61851 0
M  V30 1705 H 166.229 -1.30378 -6.34749 0
M  V30 1706 N 159.635 1.57281 -0.100228 0
M  V30 1707 C 160.863 1.98879 0.570509 0
M  V30 1708 C 161.278 0.979476 1.61405 0
M  V30 1709 O 160.635 -0.0302288 1.82475 0
M  V30 1710 C 160.686 3.4052 1.2136 0
M  V30 1711 O 160.407 4.37588 0.211786 0
M  V30 1712 C 161.908 3.97149 1.96945 0
M  V30 1713 H 159.128 0.653428 0.152555 0
M  V30 1714 H 161.672 2.03697 -0.18103 0
M  V30 1715 H 159.827 3.367 1.91603 0
M  V30 1716 H 160.241 5.20118 0.676607 0
M  V30 1717 H 161.715 4.98393 2.37294 0
M  V30 1718 H 162.192 3.3525 2.83733 0
M  V30 1719 H 162.798 4.04458 1.31506 0
M  V30 1720 N 161.113 -0.173488 1.56642 0
M  V30 1721 C 162.524 -0.736155 1.71574 0
M  V30 1722 C 162.875 -1.82888 0.710389 0
M  V30 1723 O 162 -2.16017 -0.1287 0
M  V30 1724 C 162.595 -1.34211 3.11083 0
M  V30 1725 C 161.154 -1.85162 3.27707 0
M  V30 1726 C 160.301 -0.729765 2.67525 0
M  V30 1727 H 163.252 0.0518786 1.58615 0
M  V30 1728 H 163.273 -2.21178 3.09613 0
M  V30 1729 H 162.785 -0.546579 3.84232 0
M  V30 1730 H 160.886 -2.67366 2.59512 0
M  V30 1731 H 160.999 -1.99855 4.35425 0
M  V30 1732 H 159.363 -1.14965 2.27278 0
M  V30 1733 H 160.146 0.0538806 3.43258 0
M  V30 1734 N 162.591 -1.51276 -0.441967 0
M  V30 1735 C 163.538 -1.72256 -1.53612 0
M  V30 1736 C 164.508 -0.564164 -1.56225 0
M  V30 1737 O 165.693 -0.798074 -1.73307 0
M  V30 1738 C 162.833 -1.84932 -2.91366 0
M  V30 1739 C 161.946 -3.12459 -2.98317 0
M  V30 1740 C 161.081 -3.15758 -4.27166 0
M  V30 1741 C 160.12 -4.37619 -4.27967 0
M  V30 1742 N 159.257 -4.38493 -5.48333 0
M  V30 1743 H 164.097 -2.65654 -1.35026 0
M  V30 1744 H 161.634 -1.31662 -0.656009 0
M  V30 1745 H 163.592 -1.90263 -3.7129 0
M  V30 1746 H 162.222 -0.949461 -3.08521 0
M  V30 1747 H 161.274 -3.1646 -2.11086 0
M  V30 1748 H 162.586 -4.02382 -2.94771 0
M  V30 1749 H 161.74 -3.19979 -5.15459 0
M  V30 1750 H 160.479 -2.23715 -4.33362 0
M  V30 1751 H 159.484 -4.33579 -3.38067 0
M  V30 1752 H 160.709 -5.30921 -4.23438 0
M  V30 1753 H 158.655 -3.49318 -5.55259 0
M  V30 1754 H 158.572 -5.22219 -5.46647 0
M  V30 1755 H 159.84 -4.469 -6.38671 0
M  V30 1756 N 164.069 0.697108 -1.41344 0
M  V30 1757 C 165.318 1.45279 -1.39918 0
M  V30 1758 C 165.631 1.95597 -0.0109624 0
M  V30 1759 O 166.837 2.71208 0.125919 0
M  V30 1760 C 165.293 2.62695 -2.46007 0
M  V30 1761 C 164.901 2.19169 -3.90729 0
M  V30 1762 C 166.645 3.40336 -2.53715 0
M  V30 1763 C 164.552 3.33535 -4.88373 0
M  V30 1764 H 163.482 0.545692 -0.520323 0
M  V30 1765 H 166.133 0.756929 -1.67161 0
M  V30 1766 H 164.515 3.34541 -2.11892 0
M  V30 1767 H 165.689 1.54623 -4.34083 0
M  V30 1768 H 164.004 1.54525 -3.86666 0
M  V30 1769 H 166.601 4.2547 -3.2385 0
M  V30 1770 H 166.944 3.85418 -1.5735 0
M  V30 1771 H 167.477 2.75546 -2.86913 0
M  V30 1772 H 164.216 2.93468 -5.86137 0
M  V30 1773 H 163.736 3.96936 -4.49668 0
M  V30 1774 H 165.415 3.99335 -5.09059 0
M  V30 1775 N 165.547 1.27147 0.931209 0
M  V30 1776 C 166.479 1.05364 2.03546 0
M  V30 1777 C 167.492 0.0108438 1.62796 0
M  V30 1778 O 168.681 0.25202 1.76712 0
M  V30 1779 C 165.781 0.575566 3.33977 0
M  V30 1780 C 164.954 1.68985 4.03439 0
M  V30 1781 C 164.013 1.20813 5.12143 0
M  V30 1782 O 163.039 1.90712 5.363 0
M  V30 1783 N 164.241 0.0618851 5.80467 0
M  V30 1784 H 167.006 2.00454 2.22796 0
M  V30 1785 H 164.567 1.18666 1.10136 0
M  V30 1786 H 166.559 0.237264 4.04004 0
M  V30 1787 H 165.129 -0.282016 3.11325 0
M  V30 1788 H 164.349 2.19861 3.27192 0
M  V30 1789 H 165.637 2.4378 4.46597 0
M  V30 1790 H 165.035 -0.521621 5.6329 0
M  V30 1791 H 163.592 -0.217264 6.51438 0
M  V30 1792 N 167.025 -1.13721 1.09112 0
M  V30 1793 C 167.935 -2.22638 0.73957 0
M  V30 1794 C 168.951 -1.72091 -0.257068 0
M  V30 1795 O 170.127 -2.01155 -0.0992154 0
M  V30 1796 C 167.192 -3.46322 0.16191 0
M  V30 1797 C 166.253 -4.11775 1.21408 0
M  V30 1798 C 165.486 -5.29555 0.663891 0
M  V30 1799 O 165.709 -5.68077 -0.514274 0
M  V30 1800 O 164.643 -5.84973 1.41738 0
M  V30 1801 H 168.469 -2.55074 1.64836 0
M  V30 1802 H 166.054 -1.21791 0.865289 0
M  V30 1803 H 167.936 -4.21107 -0.157073 0
M  V30 1804 H 166.611 -3.15593 -0.719932 0
M  V30 1805 H 165.518 -3.3883 1.58571 0
M  V30 1806 H 166.851 -4.46627 2.06845 0
M  V30 1807 N 168.503 -0.877838 -1.30888 0
M  V30 1808 C 169.435 -0.296607 -2.27273 0
M  V30 1809 C 170.448 0.544799 -1.53414 0
M  V30 1810 O 171.637 0.365511 -1.74718 0
M  V30 1811 C 168.737 0.597481 -3.33592 0
M  V30 1812 C 167.91 -0.213251 -4.3688 0
M  V30 1813 C 166.969 0.610208 -5.2265 0
M  V30 1814 O 165.995 0.035441 -5.69189 0
M  V30 1815 N 167.197 1.92071 -5.47804 0
M  V30 1816 H 169.962 -1.12492 -2.77787 0
M  V30 1817 H 167.523 -0.740105 -1.43993 0
M  V30 1818 H 169.515 1.15425 -3.87891 0
M  V30 1819 H 168.085 1.32647 -2.83061 0
M  V30 1820 H 167.305 -0.951466 -3.82545 0
M  V30 1821 H 168.593 -0.769262 -5.02951 0
M  V30 1822 H 167.991 2.4107 -5.11763 0
M  V30 1823 H 166.548 2.42508 -6.05007 0
M  V30 1824 N 169.982 1.44106 -0.638065 0
M  V30 1825 C 171.212 2.06037 -0.152394 0
M  V30 1826 C 171.62 1.47808 1.18108 0
M  V30 1827 O 170.963 0.598092 1.73691 0
M  V30 1828 C 171.025 3.59488 0.0293714 0
M  V30 1829 C 170.689 4.4022 -1.22702 0
M  V30 1830 C 171.686 4.73256 -2.15232 0
M  V30 1831 C 169.371 4.8048 -1.46437 0
M  V30 1832 C 171.365 5.45444 -3.29802 0
M  V30 1833 C 169.052 5.52417 -2.61303 0
M  V30 1834 C 170.05 5.84819 -3.52811 0
M  V30 1835 O 169.738 6.55289 -4.65673 0
M  V30 1836 H 169.47 0.671233 -0.0801401 0
M  V30 1837 H 172.024 1.85851 -0.874563 0
M  V30 1838 H 170.254 3.78191 0.806758 0
M  V30 1839 H 171.943 4.03164 0.470475 0
M  V30 1840 H 172.709 4.42684 -1.98131 0
M  V30 1841 H 168.588 4.54676 -0.760977 0
M  V30 1842 H 172.132 5.70653 -4.01249 0
M  V30 1843 H 168.029 5.82404 -2.78344 0
M  V30 1844 H 168.797 6.73762 -4.64744 0
M  V30 1845 N 171.46 0.379036 1.52974 0
M  V30 1846 C 172.876 0.0285448 1.59574 0
M  V30 1847 C 173.076 -1.45542 1.39355 0
M  V30 1848 O 172.132 -2.2187 1.20541 0
M  V30 1849 C 173.445 0.496535 2.96572 0
M  V30 1850 C 174.993 0.451909 3.0972 0
M  V30 1851 C 175.468 0.895924 4.49152 0
M  V30 1852 N 176.959 0.851522 4.55306 0
M  V30 1853 C 177.694 1.16661 5.61407 0
M  V30 1854 N 177.19 1.55166 6.752 0
M  V30 1855 N 178.983 1.08853 5.51459 0
M  V30 1856 H 171.134 1.34525 1.64367 0
M  V30 1857 H 173.397 0.550733 0.771619 0
M  V30 1858 H 173.103 1.53258 3.16552 0
M  V30 1859 H 172.977 -0.109802 3.7704 0
M  V30 1860 H 175.364 -0.575029 2.89443 0
M  V30 1861 H 175.445 1.09392 2.3123 0
M  V30 1862 H 175.089 1.92104 4.70168 0
M  V30 1863 H 175.019 0.23103 5.26093 0
M  V30 1864 H 177.51 0.568038 3.73606 0
M  V30 1865 H 177.823 1.776 7.52116 0
M  V30 1866 H 176.168 1.59044 6.76557 0
M  V30 1867 H 179.359 0.786803 4.6144 0
M  V30 1868 H 179.532 1.33742 6.34048 0
M  V30 1869 N 172.938 -1.57226 0.108567 0
M  V30 1870 C 174.354 -1.5766 -0.248058 0
M  V30 1871 C 174.554 -1.12063 -1.67464 0
M  V30 1872 O 173.61 -0.803236 -2.39383 0
M  V30 1873 C 174.923 -3.0069 -0.0242287 0
M  V30 1874 C 176.471 -3.12868 -0.0909372 0
M  V30 1875 C 176.946 -4.57879 0.105067 0
M  V30 1876 N 178.437 -4.63172 0.0506846 0
M  V30 1877 C 179.172 -5.73126 0.177396 0
M  V30 1878 N 178.668 -6.91866 0.359696 0
M  V30 1879 N 180.461 -5.61977 0.117709 0
M  V30 1880 H 172.612 -1.85169 1.04049 0
M  V30 1881 H 174.875 -0.85529 0.40888 0
M  V30 1882 H 174.581 -3.38299 0.961604 0
M  V30 1883 H 174.455 -3.6945 -0.76068 0
M  V30 1884 H 176.842 -2.75124 -1.06729 0
M  V30 1885 H 176.923 -2.46672 0.677225 0
M  V30 1886 H 176.567 -4.96321 1.07834 0
M  V30 1887 H 176.497 -5.22153 -0.682954 0
M  V30 1888 H 178.988 -3.778 -0.0871266 0
M  V30 1889 H 179.301 -7.71503 0.447529 0
M  V30 1890 H 177.646 -6.93874 0.395536 0
M  V30 1891 H 180.837 -4.68094 -0.0236741 0
M  V30 1892 H 181.01 -6.47627 0.219905 0
M  V30 1893 N 174.416 0.165178 -1.56732 0
M  V30 1894 C 175.665 0.879143 -1.81532 0
M  V30 1895 C 175.978 1.83144 -0.686842 0
M  V30 1896 O 177.184 2.58823 -0.819944 0
M  V30 1897 C 175.64 1.61388 -3.21686 0
M  V30 1898 C 175.248 0.704904 -4.4242 0
M  V30 1899 C 176.992 2.3157 -3.55774 0
M  V30 1900 C 174.899 1.44022 -5.73595 0
M  V30 1901 H 173.829 0.332033 -0.676957 0
M  V30 1902 H 176.48 0.132008 -1.83025 0
M  V30 1903 H 174.862 2.40599 -3.14529 0
M  V30 1904 H 176.036 -0.0506815 -4.60772 0
M  V30 1905 H 174.351 0.112419 -4.16248 0
M  V30 1906 H 176.948 2.8719 -4.51028 0
M  V30 1907 H 177.291 3.07201 -2.8095 0
M  V30 1908 H 177.824 1.59297 -3.64513 0
M  V30 1909 H 174.563 0.72612 -6.51466 0
M  V30 1910 H 174.083 2.16898 -5.5921 0
M  V30 1911 H 175.762 1.98606 -6.15764 0
M  V30 1912 N 175.894 1.51508 0.433938 0
M  V30 1913 C 177.142 1.6402 1.18075 0
M  V30 1914 C 177.463 0.360328 1.91642 0
M  V30 1915 O 176.733 -0.623945 1.85698 0
M  V30 1916 H 175.313 0.6045 0.43885 0
M  V30 1917 H 177.975 1.88452 0.497178 0
M  V30 1918 H 177.071 2.46949 1.90847 0
M  V30 1919 N 177.372 -0.689602 1.41712 0
M  V30 1920 C 178.62 -1.4468 1.4111 0
M  V30 1921 C 178.941 -1.94986 0.0232196 0
M  V30 1922 O 178.211 -1.72097 -0.935913 0
M  V30 1923 H 176.791 -0.536847 0.519427 0
M  V30 1924 H 179.453 -0.815825 1.77004 0
M  V30 1925 H 178.549 -2.30706 2.10193 0
M  V30 1926 N 178.85 -1.27639 -0.924453 0
M  V30 1927 C 180.098 -1.13941 -1.66918 0
M  V30 1928 C 180.419 0.314589 -1.92446 0
M  V30 1929 O 179.689 1.21964 -1.53303 0
M  V30 1930 H 178.269 -0.418678 -0.618642 0
M  V30 1931 H 180.931 -1.60213 -1.10985 0
M  V30 1932 H 180.027 -1.67094 -2.63602 0
M  V30 1933 N 180.328 1.1314 -1.09713 0
M  V30 1934 C 181.553 1.88862 -0.857081 0
M  V30 1935 C 181.978 1.78729 0.586304 0
M  V30 1936 O 181.336 1.13692 1.41222 0
M  V30 1937 C 181.384 3.36325 -1.30069 0
M  V30 1938 O 180.488 4.09815 -0.461007 0
M  V30 1939 H 179.829 0.587108 -0.310162 0
M  V30 1940 H 182.359 1.43129 -1.46203 0
M  V30 1941 H 182.369 3.87157 -1.28738 0
M  V30 1942 H 181.044 3.43017 -2.35185 0
M  V30 1943 H 179.621 3.68986 -0.538888 0
M  V30 1944 N 181.806 0.884767 1.30421 0
M  V30 1945 C 183.217 0.553656 1.78302 0
M  V30 1946 C 183.568 -0.930153 1.7275 0
M  V30 1947 O 182.693 -1.72681 1.30423 0
M  V30 1948 C 183.288 0.998234 3.2376 0
M  V30 1949 C 181.847 0.71854 3.69478 0
M  V30 1950 C 180.994 1.18132 2.50879 0
M  V30 1951 H 183.945 1.06901 1.17294 0
M  V30 1952 H 183.966 0.327118 3.79091 0
M  V30 1953 H 183.478 2.0782 3.27769 0
M  V30 1954 H 181.579 -0.349444 3.70958 0
M  V30 1955 H 181.692 1.30595 4.60958 0
M  V30 1956 H 180.056 0.600669 2.47516 0
M  V30 1957 H 180.839 2.26902 2.57624 0
M  V30 1958 N 183.284 -1.43765 0.645699 0
M  V30 1959 C 184.533 -2.01116 0.153412 0
M  V30 1960 C 184.846 -1.51493 -1.23731 0
M  V30 1961 O 186.052 -2.01067 -1.8244 0
M  V30 1962 C 184.508 -3.59206 0.223473 0
M  V30 1963 C 184.116 -4.17823 1.61642 0
M  V30 1964 C 185.86 -4.23972 -0.211597 0
M  V30 1965 C 183.767 -5.68183 1.64081 0
M  V30 1966 H 182.697 -0.752093 0.0535891 0
M  V30 1967 H 185.348 -1.6482 0.806633 0
M  V30 1968 H 183.73 -3.92867 -0.497118 0
M  V30 1969 H 184.904 -3.95674 2.36176 0
M  V30 1970 H 183.219 -3.65399 1.99681 0
M  V30 1971 H 185.816 -5.34275 -0.213112 0
M  V30 1972 H 186.159 -3.97352 -1.24165 0
M  V30 1973 H 186.692 -3.95166 0.456988 0
M  V30 1974 H 183.431 -5.99559 2.64971 0
M  V30 1975 H 182.951 -5.9241 0.938611 0
M  V30 1976 H 184.63 -6.32085 1.3812 0
M  V30 1977 N 184.763 -0.387143 -1.52771 0
M  V30 1978 C 185.71 0.449048 -2.26389 0
M  V30 1979 C 186.68 1.05961 -1.27912 0
M  V30 1980 O 187.865 1.08804 -1.56737 0
M  V30 1981 C 185.005 1.57155 -3.0724 0
M  V30 1982 C 184.118 0.984066 -4.20643 0
M  V30 1983 C 183.253 2.07745 -4.88892 0
M  V30 1984 C 182.292 1.46574 -5.94292 0
M  V30 1985 N 181.429 2.49834 -6.56146 0
M  V30 1986 H 186.269 -0.185205 -2.97424 0
M  V30 1987 H 183.806 -0.103164 -1.46738 0
M  V30 1988 H 185.764 2.23309 -3.52405 0
M  V30 1989 H 184.394 2.17615 -2.38419 0
M  V30 1990 H 183.446 0.212193 -3.79808 0
M  V30 1991 H 184.758 0.497029 -4.96318 0
M  V30 1992 H 183.912 2.81673 -5.3735 0
M  V30 1993 H 182.651 2.59807 -4.12737 0
M  V30 1994 H 181.656 0.711696 -5.45174 0
M  V30 1995 H 182.881 0.953088 -6.72379 0
M  V30 1996 H 180.827 3.0107 -5.82832 0
M  V30 1997 H 180.744 2.05879 -7.27427 0
M  V30 1998 H 182.012 3.23399 -7.09249 0
M  V30 1999 N 186.241 1.57166 -0.116904 0
M  V30 2000 C 187.49 1.94298 0.541407 0
M  V30 2001 C 187.803 1.00236 1.67964 0
M  V30 2002 O 189.009 1.26826 2.40057 0
M  V30 2003 C 187.465 3.45306 1.01449 0
M  V30 2004 C 187.073 4.47899 -0.0951738 0
M  V30 2005 C 188.817 3.91361 1.6443 0
M  V30 2006 C 186.724 5.90083 0.394491 0
M  V30 2007 H 185.654 0.725308 0.206019 0
M  V30 2008 H 188.305 1.82446 -0.196419 0
M  V30 2009 H 186.687 3.52385 1.80667 0
M  V30 2010 H 187.861 4.52486 -0.871374 0
M  V30 2011 H 186.176 4.11583 -0.631505 0
M  V30 2012 H 188.773 4.95004 2.02176 0
M  V30 2013 H 189.116 3.3122 2.52189 0
M  V30 2014 H 189.649 3.87073 0.917559 0
M  V30 2015 H 186.388 6.53974 -0.447004 0
M  V30 2016 H 185.908 5.88921 1.13722 0
M  V30 2017 H 187.587 6.41307 0.856399 0
M  V30 2018 N 187.719 -0.156864 1.56817 0
M  V30 2019 C 188.965 -0.867645 1.83966 0
M  V30 2020 C 189.32 -1.79233 0.699511 0
M  V30 2021 O 188.613 -1.89186 -0.303176 0
M  V30 2022 C 188.807 -1.68737 3.1506 0
M  V30 2023 C 188.636 -0.843548 4.41718 0
M  V30 2024 C 187.406 -0.512994 5.02689 0
M  V30 2025 C 189.604 -0.178416 5.1399 0
M  V30 2026 N 187.586 0.345456 6.12927 0
M  V30 2027 C 188.957 0.540586 6.17639 0
M  V30 2028 C 191.012 -0.0980696 4.97803 0
M  V30 2029 C 189.715 1.33233 7.06853 0
M  V30 2030 C 191.741 0.680387 5.87473 0
M  V30 2031 C 191.103 1.3877 6.90596 0
M  V30 2032 H 187.202 -0.295642 0.723961 0
M  V30 2033 H 189.786 -0.13365 1.94241 0
M  V30 2034 H 187.957 -2.39268 3.0595 0
M  V30 2035 H 189.689 -2.34056 3.30151 0
M  V30 2036 H 186.444 -0.846476 4.65974 0
M  V30 2037 H 186.868 0.765415 6.72659 0
M  V30 2038 H 191.51 -0.630562 4.18071 0
M  V30 2039 H 189.228 1.87612 7.8602 0
M  V30 2040 H 192.814 0.744415 5.77018 0
M  V30 2041 H 191.694 1.9804 7.58782 0
M  V30 2042 N 189.197 -1.51736 -0.425897 0
M  V30 2043 C 190.425 -1.68794 -1.1965 0
M  V30 2044 C 190.84 -0.390164 -1.84725 0
M  V30 2045 O 190.197 0.632376 -1.71194 0
M  V30 2046 C 190.248 -2.81174 -2.27208 0
M  V30 2047 O 189.969 -4.05925 -1.64793 0
M  V30 2048 C 191.47 -3.09599 -3.17275 0
M  V30 2049 H 188.69 -0.566128 -0.360194 0
M  V30 2050 H 191.234 -1.98211 -0.503249 0
M  V30 2051 H 189.389 -2.54324 -2.9223 0
M  V30 2052 H 189.803 -4.68423 -2.35967 0
M  V30 2053 H 191.277 -3.91786 -3.88854 0
M  V30 2054 H 191.754 -2.22468 -3.78688 0
M  V30 2055 H 192.36 -3.38151 -2.57941 0
M  V30 2056 N 190.675 0.682077 -1.42076 0
M  V30 2057 C 191.9 1.47558 -1.45744 0
M  V30 2058 C 192.325 1.87977 -0.0680981 0
M  V30 2059 O 191.683 1.55522 0.9318 0
M  V30 2060 C 191.731 2.70575 -2.38373 0
M  V30 2061 O 190.835 3.68573 -1.85007 0
M  V30 2062 H 190.176 0.443585 -0.494093 0
M  V30 2063 H 192.706 0.837238 -1.86686 0
M  V30 2064 H 192.716 3.18729 -2.54707 0
M  V30 2065 H 191.391 2.40495 -3.39315 0
M  V30 2066 H 189.968 3.2757 -1.78192 0
M  V30 2067 N 192.153 1.28127 0.917671 0
M  V30 2068 C 193.1 1.11717 2.0196 0
M  V30 2069 C 194.07 0.0153929 1.66093 0
M  V30 2070 O 195.255 0.179596 1.89953 0
M  V30 2071 C 192.395 0.780927 3.36148 0
M  V30 2072 C 191.508 1.96135 3.84909 0
M  V30 2073 C 190.643 1.56609 5.0759 0
M  V30 2074 C 189.682 2.71339 5.48673 0
M  V30 2075 N 188.819 2.32332 6.62545 0
M  V30 2076 H 193.659 2.06003 2.15329 0
M  V30 2077 H 191.196 1.02535 1.05475 0
M  V30 2078 H 193.154 0.56675 4.13333 0
M  V30 2079 H 191.784 -0.124998 3.22558 0
M  V30 2080 H 190.836 2.28777 3.03916 0
M  V30 2081 H 192.148 2.82165 4.1132 0
M  V30 2082 H 191.302 1.31374 5.92305 0
M  V30 2083 H 190.041 0.677014 4.82978 0
M  V30 2084 H 189.046 2.97276 4.62501 0
M  V30 2085 H 190.271 3.60882 5.75274 0
M  V30 2086 H 188.217 1.45889 6.39572 0
M  V30 2087 H 188.134 3.11899 6.88662 0
M  V30 2088 H 189.402 2.10371 7.50576 0
M  V30 2089 N 193.631 -1.12557 1.10312 0
M  V30 2090 C 194.563 -2.17971 0.708625 0
M  V30 2091 C 195.576 -1.60806 -0.254027 0
M  V30 2092 O 196.765 -1.78458 -0.0386891 0
M  V30 2093 C 193.865 -3.38891 0.0248198 0
M  V30 2094 C 193.038 -4.25548 1.01132 0
M  V30 2095 C 192.097 -5.24972 0.35924 0
M  V30 2096 O 191.123 -5.60174 1.00965 0
M  V30 2097 N 192.325 -5.73747 -0.882847 0
M  V30 2098 H 195.09 -2.52427 1.61557 0
M  V30 2099 H 192.651 -1.27967 0.991771 0
M  V30 2100 H 194.643 -4.02485 -0.422852 0
M  V30 2101 H 193.213 -3.02596 -0.784514 0
M  V30 2102 H 192.433 -3.58589 1.6373 0
M  V30 2103 H 193.721 -4.80294 1.67914 0
M  V30 2104 H 193.119 -5.4731 -1.43065 0
M  V30 2105 H 191.676 -6.39234 -1.27369 0
M  V30 2106 N 195.109 -0.891671 -1.2995 0
M  V30 2107 C 196.357 -0.512486 -1.95494 0
M  V30 2108 C 196.678 0.942776 -1.70695 0
M  V30 2109 O 195.948 1.66374 -1.03424 0
M  V30 2110 H 194.528 -0.186533 -0.723336 0
M  V30 2111 H 197.19 -1.13621 -1.58355 0
M  V30 2112 H 196.286 -0.688342 -3.04415 0
M  V30 2113 N 196.587 1.43421 -0.653314 0
M  V30 2114 C 197.497 2.34568 0.0388565 0
M  V30 2115 C 198.513 1.53888 0.81207 0
M  V30 2116 O 199.689 1.86539 0.759294 0
M  V30 2117 C 196.754 3.32167 0.993269 0
M  V30 2118 C 195.815 4.28751 0.216977 0
M  V30 2119 C 195.048 5.21688 1.12593 0
M  V30 2120 O 195.271 5.19052 2.36519 0
M  V30 2121 O 194.205 5.98919 0.598284 0
M  V30 2122 H 198.031 2.95251 -0.711386 0
M  V30 2123 H 195.616 1.43564 -0.413502 0
M  V30 2124 H 197.498 3.92183 1.54176 0
M  V30 2125 H 196.173 2.73987 1.72374 0
M  V30 2126 H 195.08 3.72215 -0.375101 0
M  V30 2127 H 196.413 4.89913 -0.473924 0
M  V30 2128 N 198.065 0.39524 1.52563 0
M  V30 2129 C 199.313 -0.184678 2.01254 0
M  V30 2130 C 199.634 -1.46822 1.28329 0
M  V30 2131 O 198.904 -1.91666 0.405094 0
M  V30 2132 H 197.484 -0.0712355 0.743596 0
M  V30 2133 H 200.146 0.528293 1.87603 0
M  V30 2134 H 199.242 -0.390681 3.09645 0
M  V30 2135 N 199.544 -1.57102 0.125237 0
M  V30 2136 C 200.477 -2.11371 -0.860094 0
M  V30 2137 C 201.455 -1.03168 -1.25679 0
M  V30 2138 O 202.639 -1.30862 -1.35674 0
M  V30 2139 C 199.766 -2.61555 -2.1519 0
M  V30 2140 C 198.812 -3.81701 -1.9028 0
M  V30 2141 S 199.645 -5.23797 -1.11343 0
M  V30 2142 C 200.801 -5.77353 -2.41689 0
M  V30 2143 H 201.034 -2.94617 -0.39852 0
M  V30 2144 H 198.567 -1.54145 -0.0886555 0
M  V30 2145 H 200.525 -2.91122 -2.89411 0
M  V30 2146 H 199.186 -1.78479 -2.58465 0
M  V30 2147 H 198.379 -4.14985 -2.86014 0
M  V30 2148 H 197.981 -3.52783 -1.24178 0
M  V30 2149 H 200.273 -5.87458 -3.37489 0
M  V30 2150 H 201.216 -6.75323 -2.12942 0
M  V30 2151 H 201.624 -5.05457 -2.51342 0
M  V30 2152 N 201.022 0.148545 -1.56898 0
M  V30 2153 C 202.268 0.862694 -1.83536 0
M  V30 2154 C 202.601 1.80889 -0.706604 0
M  V30 2155 O 201.876 1.92328 0.289885 0
M  V30 2156 C 202.159 1.63853 -3.20662 0
M  V30 2157 C 202.012 0.713925 -4.44098 0
M  V30 2158 C 203.331 2.60133 -3.54991 0
M  V30 2159 H 200.45 0.312179 -0.667618 0
M  V30 2160 H 203.092 0.127953 -1.89569 0
M  V30 2161 H 201.242 2.26489 -3.1565 0
M  V30 2162 H 202.914 0.098686 -4.61194 0
M  V30 2163 H 201.157 0.0234019 -4.33794 0
M  V30 2164 H 201.828 1.29278 -5.36648 0
M  V30 2165 H 204.304 2.07616 -3.60603 0
M  V30 2166 H 203.18 3.11468 -4.51972 0
M  V30 2167 H 203.441 3.41417 -2.80868 0
M  V30 2168 N 202.5 1.5196 0.417844 0
M  V30 2169 C 203.447 1.74678 1.50852 0
M  V30 2170 C 204.417 0.588947 1.55308 0
M  V30 2171 O 205.602 0.825544 1.72016 0
M  V30 2172 C 202.742 1.89544 2.88387 0
M  V30 2173 C 201.855 3.17166 2.93309 0
M  V30 2174 C 200.99 3.22513 4.22088 0
M  V30 2175 C 200.029 4.44372 4.20951 0
M  V30 2176 N 199.166 4.47161 5.41287 0
M  V30 2177 H 204.006 2.67768 1.30783 0
M  V30 2178 H 201.543 1.32689 0.63498 0
M  V30 2179 H 203.501 1.96146 3.68216 0
M  V30 2180 H 202.131 0.998424 3.06971 0
M  V30 2181 H 201.183 3.19778 2.06024 0
M  V30 2182 H 202.495 4.07021 2.88332 0
M  V30 2183 H 201.649 3.28139 5.10303 0
M  V30 2184 H 200.388 2.30581 4.29748 0
M  V30 2185 H 199.393 4.38902 3.31127 0
M  V30 2186 H 200.618 5.3759 4.14938 0
M  V30 2187 H 198.564 3.58108 5.49632 0
M  V30 2188 H 198.481 5.3085 5.3827 0
M  V30 2189 H 199.749 4.57005 6.3148 0
M  V30 2190 N 203.978 -0.674533 1.42435 0
M  V30 2191 C 204.908 -1.80009 1.48724 0
M  V30 2192 C 205.889 -1.6659 0.343793 0
M  V30 2193 O 207.074 -1.86007 0.558137 0
M  V30 2194 C 204.204 -3.18306 1.38919 0
M  V30 2195 C 203.158 -3.46461 2.51294 0
M  V30 2196 C 202.484 -4.84335 2.26547 0
M  V30 2197 C 203.784 -3.43328 3.93603 0
M  V30 2198 H 205.478 -1.75004 2.42928 0
M  V30 2199 H 203.024 -0.840533 1.16923 0
M  V30 2200 H 204.977 -3.9678 1.41927 0
M  V30 2201 H 203.701 -3.2399 0.412094 0
M  V30 2202 H 202.36 -2.70348 2.47604 0
M  V30 2203 H 202.008 -4.86669 1.2713 0
M  V30 2204 H 201.708 -5.04136 3.01861 0
M  V30 2205 H 203.232 -5.65094 2.31304 0
M  V30 2206 H 204.646 -4.11772 3.98894 0
M  V30 2207 H 203.043 -3.74664 4.68771 0
M  V30 2208 H 204.113 -2.41897 4.20255 0
M  V30 2209 N 205.456 -1.28612 -0.910864 0
M  V30 2210 C 206.386 -1.15326 -2.03032 0
M  V30 2211 C 207.367 -0.0502924 -1.70026 0
M  V30 2212 O 208.552 -0.227797 -1.92859 0
M  V30 2213 C 205.682 -0.817343 -3.37545 0
M  V30 2214 C 204.636 -1.8754 -3.84724 0
M  V30 2215 C 203.962 -1.39305 -5.16235 0
M  V30 2216 C 205.262 -3.28244 -4.06267 0
M  V30 2217 H 206.956 -2.08975 -2.14406 0
M  V30 2218 H 204.502 -1.00612 -1.03021 0
M  V30 2219 H 206.455 -0.711151 -4.15356 0
M  V30 2220 H 205.179 0.154846 -3.26233 0
M  V30 2221 H 203.838 -1.97079 -3.09121 0
M  V30 2222 H 203.486 -0.409846 -5.01328 0
M  V30 2223 H 203.186 -2.10057 -5.48771 0
M  V30 2224 H 204.71 -1.30014 -5.96598 0
M  V30 2225 H 206.124 -3.21611 -4.74594 0
M  V30 2226 H 204.521 -3.96855 -4.5014 0
M  V30 2227 H 205.591 -3.72048 -3.10979 0
M  V30 2228 N 206.934 1.1197 -1.10907 0
M  V30 2229 C 208.211 1.79959 -0.766432 0
M  V30 2230 C 208.591 1.97466 0.746363 0
M  V30 2231 O 207.939 1.55491 1.67436 0
M  V30 2232 C 208.149 3.14009 -1.52314 0
M  V30 2233 C 209.497 3.89134 -1.69883 0
M  V30 2234 O 210.521 3.2368 -1.48692 0
M  V30 2235 O 209.38 5.06572 -2.05054 0
M  V30 2236 H 206.474 0.779208 -0.277062 0
M  V30 2237 H 209.02 1.18762 -1.21217 0
M  V30 2238 H 207.792 2.96587 -2.55249 0
M  V30 2239 H 207.415 3.82915 -1.07059 0
M  V30 2240 N 208.412 0.89855 1.29475 0
M  V30 2241 C 209.322 0.379974 2.31502 0
M  V30 2242 C 210.338 -0.524695 1.659 0
M  V30 2243 O 211.514 -0.414551 1.97087 0
M  V30 2244 C 208.579 -0.385138 3.44554 0
M  V30 2245 C 207.64 0.550914 4.2575 0
M  V30 2246 C 206.873 -0.177778 5.33404 0
M  V30 2247 O 207.096 -1.40189 5.52904 0
M  V30 2248 O 206.03 0.479106 5.9999 0
M  V30 2249 H 209.856 1.22639 2.77837 0
M  V30 2250 H 207.441 0.662834 1.33891 0
M  V30 2251 H 209.323 -0.817841 4.13388 0
M  V30 2252 H 207.998 -1.20763 3.0033 0
M  V30 2253 H 206.905 1.03271 3.59564 0
M  V30 2254 H 208.238 1.33979 4.73614 0
M  V30 2255 N 209.89 -1.43072 0.660911 0
M  V30 2256 C 210.82 -2.33497 -0.0122829 0
M  V30 2257 C 211.801 -1.49903 -0.803925 0
M  V30 2258 O 212.986 -1.78546 -0.763864 0
M  V30 2259 C 210.116 -3.33363 -0.973994 0
M  V30 2260 C 209.07 -4.27003 -0.291928 0
M  V30 2261 C 208.396 -5.16967 -1.36562 0
M  V30 2262 C 209.696 -5.15816 0.820462 0
M  V30 2263 H 211.39 -2.90038 0.742873 0
M  V30 2264 H 208.936 -1.39461 0.358688 0
M  V30 2265 H 210.889 -3.95524 -1.45392 0
M  V30 2266 H 209.613 -2.75095 -1.7604 0
M  V30 2267 H 208.272 -3.66217 0.167623 0
M  V30 2268 H 207.92 -4.55034 -2.14366 0
M  V30 2269 H 207.62 -5.80441 -0.914454 0
M  V30 2270 H 209.144 -5.82003 -1.84675 0
M  V30 2271 H 210.558 -5.71742 0.422366 0
M  V30 2272 H 208.955 -5.8805 1.19656 0
M  V30 2273 H 210.025 -4.55045 1.67518 0
M  V30 2274 N 211.368 -0.403325 -1.52352 0
M  V30 2275 C 212.593 0.176499 -2.06648 0
M  V30 2276 C 213.018 1.38577 -1.27193 0
M  V30 2277 O 212.376 1.7879 -0.300637 0
M  V30 2278 C 212.424 0.511061 -3.5696 0
M  V30 2279 O 211.528 1.60294 -3.79973 0
M  V30 2280 H 210.869 0.0167337 -0.663789 0
M  V30 2281 H 213.399 -0.574848 -1.96359 0
M  V30 2282 H 213.409 0.771362 -4.00642 0
M  V30 2283 H 212.084 -0.37296 -4.14224 0
M  V30 2284 H 210.661 1.33526 -3.48174 0
M  V30 2285 N 212.846 1.57033 -0.133567 0
M  V30 2286 C 214.257 1.82593 0.389464 0
M  V30 2287 C 214.608 1.05156 1.6564 0
M  V30 2288 O 213.733 0.292644 2.14412 0
M  V30 2289 C 214.328 3.31204 0.713377 0
M  V30 2290 C 212.887 3.57393 1.18098 0
M  V30 2291 C 212.034 2.76598 0.197126 0
M  V30 2292 H 214.985 1.54598 -0.358481 0
M  V30 2293 H 215.006 3.46627 1.56939 0
M  V30 2294 H 214.518 3.87537 -0.2089 0
M  V30 2295 H 212.619 3.06433 2.11966 0
M  V30 2296 H 212.732 4.65915 1.11624 0
M  V30 2297 H 211.096 2.45257 0.687088 0
M  V30 2298 H 211.879 3.35697 -0.718504 0
M  V30 2299 N 214.325 -0.140222 1.56975 0
M  V30 2300 C 215.273 -1.19207 1.99731 0
M  V30 2301 C 216.267 -1.44089 0.890777 0
M  V30 2302 O 217.473 -1.44301 1.07597 0
M  V30 2303 H 213.848 -0.40142 0.635898 0
M  V30 2304 H 215.819 -0.804813 2.87342 0
M  V30 2305 C 214.568 -2.51617 2.39967 0
M  V30 2306 H 213.891 -2.33303 3.24669 0
M  V30 2307 H 215.331 -3.23827 2.73701 0
M  V30 2308 C 213.79 -3.12654 1.25496 0
M  V30 2309 O 214.32 -3.97786 0.559371 0
M  V30 2310 N 212.526 -2.72206 1.01746 0
M  V30 2311 H 212.073 -2.03074 1.58489 0
M  V30 2312 H 212.031 -3.13377 0.253461 0
M  V30 2313 N 215.803 -1.52179 -0.40978 0
M  V30 2314 C 217.031 -1.70054 -1.17853 0
M  V30 2315 C 217.446 -0.409735 -1.843 0
M  V30 2316 O 216.803 0.614183 -1.71855 0
M  V30 2317 C 216.854 -2.83568 -2.24213 0
M  V30 2318 O 216.575 -4.0765 -1.60478 0
M  V30 2319 C 218.076 -3.12947 -3.13973 0
M  V30 2320 H 215.296 -0.569917 -0.354169 0
M  V30 2321 H 217.84 -1.98734 -0.482198 0
M  V30 2322 H 215.995 -2.57409 -2.89516 0
M  V30 2323 H 216.409 -4.70899 -2.30986 0
M  V30 2324 H 217.883 -3.95889 -3.84677 0
M  V30 2325 H 218.36 -2.26472 -3.76307 0
M  V30 2326 H 218.966 -3.40868 -2.5434 0
M  V30 2327 N 217.281 0.66697 -1.42791 0
M  V30 2328 C 218.244 1.76211 -1.46568 0
M  V30 2329 C 219.244 1.56896 -0.352196 0
M  V30 2330 O 220.434 1.63044 -0.613364 0
M  V30 2331 C 217.566 3.14935 -1.30494 0
M  V30 2332 H 218.759 1.74247 -2.44086 0
M  V30 2333 H 216.312 0.877342 -1.29354 0
M  V30 2334 H 217.047 3.2252 -0.339301 0
M  V30 2335 H 216.832 3.30359 -2.11199 0
M  V30 2336 H 218.322 3.94821 -1.36038 0
M  V30 2337 N 218.759 1.29093 0.90403 0
M  V30 2338 C 220.17 1.15186 1.46932 0
M  V30 2339 C 220.521 -0.254587 1.94541 0
M  V30 2340 O 219.646 -1.14972 1.83332 0
M  V30 2341 C 220.241 2.08492 2.67051 0
M  V30 2342 C 218.8 1.98621 3.19729 0
M  V30 2343 C 217.947 1.9967 1.92425 0
M  V30 2344 H 220.898 1.41641 0.715789 0
M  V30 2345 H 220.919 1.65461 3.42641 0
M  V30 2346 H 220.431 3.10847 2.3237 0
M  V30 2347 H 218.532 0.993389 3.59114 0
M  V30 2348 H 218.645 2.86068 3.8432 0
M  V30 2349 H 217.009 1.44208 2.09943 0
M  V30 2350 H 217.792 3.03721 1.60026 0
M  V30 2351 N 220.237 -1.11381 1.11499 0
M  V30 2352 C 221.187 -2.15555 0.74298 0
M  V30 2353 C 222.171 -1.58894 -0.253276 0
M  V30 2354 O 223.363 -1.76897 -0.0602918 0
M  V30 2355 C 220.492 -3.42782 0.188481 0
M  V30 2356 C 219.578 -4.064 1.21244 0
M  V30 2357 N 219.969 -4.44864 2.40685 0
M  V30 2358 C 218.267 -4.3333 1.05552 0
M  V30 2359 C 218.968 -4.94715 3.05994 0
M  V30 2360 N 217.944 -4.90909 2.33472 0
M  V30 2361 H 221.746 -2.43074 1.65203 0
M  V30 2362 H 219.26 -1.28401 0.994329 0
M  V30 2363 H 221.257 -4.16789 -0.0961693 0
M  V30 2364 H 219.917 -3.16727 -0.715149 0
M  V30 2365 H 220.928 -4.36876 2.78136 0
M  V30 2366 H 217.605 -4.1698 0.208372 0
M  V30 2367 H 218.995 -5.34103 4.07656 0
M  V30 2368 N 221.715 -0.905404 -1.28997 0
M  V30 2369 C 222.662 -0.385892 -2.27551 0
M  V30 2370 C 223.632 0.535113 -1.57244 0
M  V30 2371 O 224.817 0.459119 -1.85194 0
M  V30 2372 C 221.957 0.375461 -3.43051 0
M  V30 2373 C 221.07 -0.577092 -4.28128 0
M  V30 2374 C 220.205 0.201879 -5.30816 0
M  V30 2375 C 219.244 -0.744829 -6.07551 0
M  V30 2376 N 218.381 9.42587e-05 -7.021 0
M  V30 2377 H 223.221 -1.23139 -2.71368 0
M  V30 2378 H 220.758 -0.618542 -1.33463 0
M  V30 2379 H 222.716 0.832992 -4.088 0
M  V30 2380 H 221.346 1.18537 -3.00248 0
M  V30 2381 H 220.398 -1.15315 -3.62501 0
M  V30 2382 H 221.71 -1.30152 -4.8152 0
M  V30 2383 H 220.864 0.720351 -6.02408 0
M  V30 2384 H 219.603 0.959413 -4.7817 0
M  V30 2385 H 218.608 -1.27475 -5.34818 0
M  V30 2386 H 219.833 -1.50178 -6.62286 0
M  V30 2387 H 217.779 0.739791 -6.51815 0
M  V30 2388 H 217.696 -0.664321 -7.53076 0
M  V30 2389 H 218.964 0.498644 -7.77903 0
M  V30 2390 N 223.193 1.4272 -0.668489 0
M  V30 2391 C 224.423 2.05668 -0.196063 0
M  V30 2392 C 224.831 1.5028 1.14946 0
M  V30 2393 O 224.174 0.6348 1.72383 0
M  V30 2394 C 224.236 3.59469 -0.0468879 0
M  V30 2395 C 223.9 4.37518 -1.32012 0
M  V30 2396 C 224.897 4.68584 -2.25222 0
M  V30 2397 C 222.582 4.77266 -1.56596 0
M  V30 2398 C 224.576 5.38326 -3.41297 0
M  V30 2399 C 222.263 5.4675 -2.72962 0
M  V30 2400 C 223.261 5.77204 -3.65137 0
M  V30 2401 O 222.949 6.45264 -4.79468 0
M  V30 2402 H 222.681 0.669382 -0.0943599 0
M  V30 2403 H 225.235 1.83954 -0.913788 0
M  V30 2404 H 223.465 3.79817 0.726357 0
M  V30 2405 H 225.154 4.04071 0.384852 0
M  V30 2406 H 225.92 4.38382 -2.07477 0
M  V30 2407 H 221.799 4.52959 -0.857249 0
M  V30 2408 H 225.343 5.62014 -4.13263 0
M  V30 2409 H 221.24 5.76369 -2.90635 0
M  V30 2410 H 222.008 6.63753 -4.78931 0
M  V30 2411 N 224.671 0.411399 1.52136 0
M  V30 2412 C 225.901 -0.16284 2.05957 0
M  V30 2413 C 226.309 -1.3922 1.28119 0
M  V30 2414 O 225.652 -1.80768 0.326881 0
M  V30 2415 C 225.714 -0.575946 3.54856 0
M  V30 2416 C 225.378 0.542998 4.53763 0
M  V30 2417 C 226.375 1.40726 5.00492 0
M  V30 2418 C 224.06 0.716337 4.97166 0
M  V30 2419 C 226.054 2.4298 5.8927 0
M  V30 2420 C 223.741 1.74218 5.8574 0
M  V30 2421 C 224.739 2.59731 6.31687 0
M  V30 2422 O 224.427 3.60558 7.18507 0
M  V30 2423 H 224.159 -0.0229125 0.675612 0
M  V30 2424 H 226.713 0.581634 1.96993 0
M  V30 2425 H 224.943 -1.37274 3.61515 0
M  V30 2426 H 226.632 -1.07836 3.91313 0
M  V30 2427 H 227.398 1.28476 4.67674 0
M  V30 2428 H 223.277 0.0603857 4.6096 0
M  V30 2429 H 226.821 3.0976 6.25055 0
M  V30 2430 H 222.718 1.86498 6.17971 0
M  V30 2431 H 223.486 3.56829 7.36624 0
M  V30 2432 N 226.149 -1.5696 0.141893 0
M  V30 2433 C 227.398 -1.95135 -0.510427 0
M  V30 2434 C 227.711 -1.02896 -1.66348 0
M  V30 2435 O 228.917 -1.30629 -2.38009 0
M  V30 2436 C 227.373 -3.46876 -0.959427 0
M  V30 2437 C 226.981 -4.47691 0.166419 0
M  V30 2438 C 228.725 -3.93927 -1.58183 0
M  V30 2439 C 226.632 -5.90636 -0.300565 0
M  V30 2440 H 225.562 -0.728494 -0.194454 0
M  V30 2441 H 228.213 -1.8211 0.22542 0
M  V30 2442 H 226.595 -3.55215 -1.75038 0
M  V30 2443 H 227.769 -4.51043 0.94325 0
M  V30 2444 H 226.084 -4.10527 0.696905 0
M  V30 2445 H 228.681 -4.98158 -1.94275 0
M  V30 2446 H 229.024 -3.3519 -2.46888 0
M  V30 2447 H 229.557 -3.88484 -0.855863 0
M  V30 2448 H 226.296 -6.5318 0.550989 0
M  V30 2449 H 225.816 -5.90655 -1.04338 0
M  V30 2450 H 227.495 -6.42588 -0.754265 0
M  V30 2451 N 227.627 0.131896 -1.57047 0
M  V30 2452 C 228.875 0.840269 -1.83804 0
M  V30 2453 C 229.196 1.81017 -0.72512 0
M  V30 2454 O 228.466 1.94272 0.251995 0
M  V30 2455 H 227.046 0.313294 -0.678127 0
M  V30 2456 H 229.708 0.122294 -1.94516 0
M  V30 2457 H 228.804 1.39335 -2.79271 0
M  V30 2458 N 229.106 1.52395 0.401703 0
M  V30 2459 C 230.353 1.66817 1.14796 0
M  V30 2460 C 230.681 0.401772 1.90305 0
M  V30 2461 O 229.936 -0.615487 1.85769 0
M  V30 2462 C 230.235 2.84578 2.16217 0
M  V30 2463 C 229.901 4.22513 1.5746 0
M  V30 2464 C 228.563 4.60029 1.41161 0
M  V30 2465 C 230.915 5.0844 1.14622 0
M  V30 2466 C 228.243 5.81144 0.80552 0
M  V30 2467 C 230.595 6.30167 0.55428 0
M  V30 2468 C 229.259 6.66426 0.378482 0
M  V30 2469 H 228.529 0.610428 0.420069 0
M  V30 2470 H 231.176 1.86512 0.434212 0
M  V30 2471 H 229.481 2.59248 2.93764 0
M  V30 2472 H 231.178 2.92933 2.73845 0
M  V30 2473 H 227.768 3.92953 1.71132 0
M  V30 2474 H 231.952 4.80034 1.26021 0
M  V30 2475 H 227.208 6.07855 0.657399 0
M  V30 2476 H 231.382 6.96071 0.213983 0
M  V30 2477 H 229.009 7.60143 -0.0932606 0
M  V30 2478 N 230.584 -0.659388 1.43143 0
M  V30 2479 C 232 -0.974337 1.26407 0
M  V30 2480 C 232.2 -2.007 0.179341 0
M  V30 2481 O 231.256 -2.4856 -0.444295 0
M  V30 2482 C 232.569 -1.46447 2.62628 0
M  V30 2483 C 234.117 -1.58144 2.7011 0
M  V30 2484 C 234.592 -2.1055 4.06734 0
M  V30 2485 N 236.083 -2.17861 4.08767 0
M  V30 2486 C 236.818 -2.59519 5.1131 0
M  V30 2487 N 236.314 -3.00518 6.24228 0
M  V30 2488 N 238.107 -2.59404 4.98664 0
M  V30 2489 H 230.258 0.0240528 2.12386 0
M  V30 2490 H 232.521 -0.0518065 0.946583 0
M  V30 2491 H 232.227 -0.780123 3.42939 0
M  V30 2492 H 232.101 -2.44058 2.87603 0
M  V30 2493 H 234.488 -2.25682 1.90136 0
M  V30 2494 H 234.569 -0.589828 2.48907 0
M  V30 2495 H 234.213 -1.43616 4.87172 0
M  V30 2496 H 234.143 -3.10531 4.25298 0
M  V30 2497 H 236.634 -1.88975 3.27257 0
M  V30 2498 H 236.947 -3.31036 6.98309 0
M  V30 2499 H 235.292 -2.98337 6.2771 0
M  V30 2500 H 238.483 -2.26747 4.09516 0
M  V30 2501 H 238.656 -2.91548 5.78709 0
M  V30 2502 N 232.062 -1.29571 -0.897171 0
M  V30 2503 C 233.292 -1.20408 -1.67886 0
M  V30 2504 C 233.7 0.237429 -1.87704 0
M  V30 2505 O 233.043 1.17048 -1.41582 0
M  V30 2506 C 233.105 -1.84887 -3.08314 0
M  V30 2507 C 232.769 -3.34189 -3.11716 0
M  V30 2508 C 233.766 -4.30374 -2.91675 0
M  V30 2509 C 231.451 -3.75431 -3.33701 0
M  V30 2510 C 233.445 -5.65776 -2.93557 0
M  V30 2511 C 231.132 -5.10955 -3.35214 0
M  V30 2512 C 232.13 -6.05938 -3.15164 0
M  V30 2513 O 231.818 -7.38987 -3.1647 0
M  V30 2514 H 231.55 -0.418289 -0.531046 0
M  V30 2515 H 234.104 -1.71514 -1.13014 0
M  V30 2516 H 232.334 -1.28295 -3.64798 0
M  V30 2517 H 234.023 -1.70011 -3.6858 0
M  V30 2518 H 234.789 -3.99844 -2.74499 0
M  V30 2519 H 230.668 -3.01953 -3.48347 0
M  V30 2520 H 234.212 -6.39889 -2.77826 0
M  V30 2521 H 230.109 -5.4113 -3.51922 0
M  V30 2522 H 230.877 -7.47823 -3.3272 0
M  V30 2523 N 233.54 1.10788 -1.12088 0
M  V30 2524 C 234.786 1.82942 -0.875226 0
M  V30 2525 C 235.119 1.84779 0.597538 0
M  V30 2526 O 234.394 1.30578 1.44152 0
M  V30 2527 C 234.677 3.29789 -1.44606 0
M  V30 2528 C 234.53 3.36307 -2.98693 0
M  V30 2529 C 235.849 4.26064 -1.10261 0
M  V30 2530 H 232.968 0.664195 -0.319397 0
M  V30 2531 H 235.61 1.29867 -1.38689 0
M  V30 2532 H 233.76 3.75118 -1.01089 0
M  V30 2533 H 235.432 2.99487 -3.50864 0
M  V30 2534 H 233.675 2.76318 -3.34411 0
M  V30 2535 H 234.346 4.39694 -3.33726 0
M  V30 2536 H 236.822 3.88951 -1.4784 0
M  V30 2537 H 235.698 5.27183 -1.52869 0
M  V30 2538 H 235.959 4.42098 -0.0142953 0
M  V30 2539 N 235.018 0.912232 1.28515 0
M  V30 2540 C 235.968 0.370649 2.24967 0
M  V30 2541 C 236.952 -0.516375 1.52389 0
M  V30 2542 O 238.144 -0.356345 1.73376 0
M  V30 2543 C 235.273 -0.389526 3.41083 0
M  V30 2544 C 234.359 0.51313 4.20984 0
M  V30 2545 N 234.75 1.62604 4.78951 0
M  V30 2546 C 233.048 0.313235 4.44899 0
M  V30 2547 C 233.749 2.18619 5.39055 0
M  V30 2548 N 232.725 1.47765 5.23132 0
M  V30 2549 H 236.527 1.22061 2.67354 0
M  V30 2550 H 234.041 0.764712 1.43269 0
M  V30 2551 H 236.038 -0.794353 4.09262 0
M  V30 2552 H 234.698 -1.2366 3.0023 0
M  V30 2553 H 235.709 2.00864 4.77362 0
M  V30 2554 H 232.386 -0.494452 4.14562 0
M  V30 2555 H 233.776 3.12228 5.94948 0
M  V30 2556 N 236.496 -1.42363 0.676048 0
M  V30 2557 C 237.907 -1.84649 0.275948 0
M  V30 2558 C 238.258 -1.56588 -1.18214 0
M  V30 2559 O 237.383 -1.02634 -1.90513 0
M  V30 2560 C 237.978 -3.35178 0.494053 0
M  V30 2561 C 236.537 -3.76109 0.148061 0
M  V30 2562 C 235.684 -2.65931 0.785891 0
M  V30 2563 H 238.635 -1.32192 0.878121 0
M  V30 2564 H 238.656 -3.79655 -0.25343 0
M  V30 2565 H 238.168 -3.55571 1.55535 0
M  V30 2566 H 236.269 -3.61323 -0.909742 0
M  V30 2567 H 236.382 -4.7546 0.589454 0
M  V30 2568 H 234.746 -2.53773 0.217113 0
M  V30 2569 H 235.529 -2.89146 1.85067 0
M  V30 2570 N 237.974 -0.419461 -1.51915 0
M  V30 2571 C 238.904 0.391813 -2.30189 0
M  V30 2572 C 239.885 1.03699 -1.34836 0
M  V30 2573 O 241.07 1.04403 -1.63748 0
M  V30 2574 C 238.2 1.50312 -3.13087 0
M  V30 2575 C 237.154 0.9824 -4.16573 0
M  V30 2576 C 236.48 2.18809 -4.8788 0
M  V30 2577 C 237.78 0.0292356 -5.22292 0
M  V30 2578 H 239.474 -0.26135 -2.98257 0
M  V30 2579 H 237.02 -0.127134 -1.43438 0
M  V30 2580 H 238.973 2.07773 -3.66617 0
M  V30 2581 H 237.697 2.18431 -2.42807 0
M  V30 2582 H 236.356 0.430119 -3.64068 0
M  V30 2583 H 236.004 2.85507 -4.14119 0
M  V30 2584 H 235.704 1.84615 -5.57845 0
M  V30 2585 H 237.228 2.76858 -5.44226 0
M  V30 2586 H 238.642 0.512976 -5.71 0
M  V30 2587 H 237.039 -0.2244 -5.9968 0
M  V30 2588 H 238.109 -0.912931 -4.76228 0
M  V30 2589 N 239.452 1.56882 -0.150215 0
M  V30 2590 C 240.68 2.00593 0.506948 0
M  V30 2591 C 241.095 1.03033 1.58208 0
M  V30 2592 O 240.452 0.0278396 1.82479 0
M  V30 2593 C 240.503 3.44209 1.10465 0
M  V30 2594 O 240.224 4.3804 0.0724636 0
M  V30 2595 C 241.725 4.03214 1.84211 0
M  V30 2596 H 238.945 0.65795 0.13169 0
M  V30 2597 H 241.489 2.03018 -0.245743 0
M  V30 2598 H 239.644 3.42625 1.80795 0
M  V30 2599 H 240.058 5.22007 0.510793 0
M  V30 2600 H 241.532 5.0569 2.21318 0
M  V30 2601 H 242.009 3.44107 2.72923 0
M  V30 2602 H 242.615 4.08437 1.18572 0
M  V30 2603 N 240.93 -0.123565 1.57115 0
M  V30 2604 C 241.84 -1.17074 2.033 0
M  V30 2605 C 242.856 -1.4561 0.952559 0
M  V30 2606 O 244.032 -1.56817 1.26374 0
M  V30 2607 C 241.097 -2.47857 2.42421 0
M  V30 2608 C 240.158 -2.26758 3.64526 0
M  V30 2609 C 239.391 -3.51305 4.01771 0
M  V30 2610 O 239.614 -4.5843 3.39409 0
M  V30 2611 O 238.548 -3.42578 4.94898 0
M  V30 2612 H 242.374 -0.808555 2.92739 0
M  V30 2613 H 239.959 -0.334027 1.45618 0
M  V30 2614 H 241.841 -3.2492 2.68338 0
M  V30 2615 H 240.516 -2.83558 1.5613 0
M  V30 2616 H 239.423 -1.47569 3.43765 0
M  V30 2617 H 240.756 -1.95963 4.51508 0
M  V30 2618 N 242.408 -1.52605 -0.393616 0
M  V30 2619 C 243.318 -1.79971 -1.50492 0
M  V30 2620 C 244.334 -0.686181 -1.59899 0
M  V30 2621 O 245.51 -0.973274 -1.76322 0
M  V30 2622 C 242.575 -1.95867 -2.86072 0
M  V30 2623 C 241.636 -3.19781 -2.86424 0
M  V30 2624 C 240.869 -3.34909 -4.15538 0
M  V30 2625 O 241.092 -2.54948 -5.10253 0
M  V30 2626 O 240.026 -4.28141 -4.23059 0
M  V30 2627 H 243.852 -2.74328 -1.30299 0
M  V30 2628 H 241.437 -1.3764 -0.581005 0
M  V30 2629 H 243.319 -2.08056 -3.66457 0
M  V30 2630 H 241.994 -1.04699 -3.063 0
M  V30 2631 H 240.901 -3.13038 -2.04837 0
M  V30 2632 H 242.234 -4.1078 -2.71147 0
M  V30 2633 N 243.887 0.651787 -1.4349 0
M  V30 2634 C 244.85 1.74647 -1.48429 0
M  V30 2635 C 245.85 1.56513 -0.368817 0
M  V30 2636 O 247.04 1.62385 -0.630623 0
M  V30 2637 C 244.172 3.13533 -1.33827 0
M  V30 2638 H 245.365 1.71649 -2.4592 0
M  V30 2639 H 242.918 0.863573 -1.30277 0
M  V30 2640 H 243.653 3.22142 -0.37349 0
M  V30 2641 H 243.438 3.28101 -2.14691 0
M  V30 2642 H 244.928 3.93356 -1.40218 0
M  V30 2643 N 245.365 1.30045 0.890287 0
M  V30 2644 C 246.614 1.17929 1.63633 0
M  V30 2645 C 246.927 -0.266204 1.9378 0
M  V30 2646 O 248.133 -0.508804 2.6669 0
M  V30 2647 C 246.589 2.06317 2.94892 0
M  V30 2648 C 246.197 3.55745 2.72305 0
M  V30 2649 C 247.941 2.0295 3.72843 0
M  V30 2650 C 245.848 4.36205 3.99348 0
M  V30 2651 H 244.778 0.437782 0.613892 0
M  V30 2652 H 247.429 1.54754 0.986075 0
M  V30 2653 H 245.811 1.6237 3.61182 0
M  V30 2654 H 246.985 4.07805 2.1455 0
M  V30 2655 H 245.3 3.6088 2.07737 0
M  V30 2656 H 247.897 2.60319 4.67053 0
M  V30 2657 H 248.24 1.0117 4.0382 0
M  V30 2658 H 248.773 2.4499 3.13408 0
M  V30 2659 H 245.512 5.38659 3.73533 0
M  V30 2660 H 245.032 3.8891 4.56628 0
M  V30 2661 H 246.711 4.47362 4.67415 0
M  V30 2662 N 246.843 -1.10192 1.12674 0
M  V30 2663 C 247.753 -2.20172 0.810026 0
M  V30 2664 C 248.769 -1.72821 -0.202188 0
M  V30 2665 O 249.945 -2.01369 -0.0351691 0
M  V30 2666 C 247.01 -3.45631 0.272007 0
M  V30 2667 C 246.071 -4.07704 1.34447 0
M  V30 2668 C 245.304 -5.27175 0.832029 0
M  V30 2669 O 245.527 -5.69425 -0.333284 0
M  V30 2670 O 244.461 -5.80168 1.60277 0
M  V30 2671 H 248.287 -2.49701 1.72867 0
M  V30 2672 H 245.872 -1.18977 0.903597 0
M  V30 2673 H 247.754 -4.21394 -0.0230219 0
M  V30 2674 H 246.429 -3.17723 -0.619164 0
M  V30 2675 H 245.336 -3.33614 1.6927 0
M  V30 2676 H 246.669 -4.3982 2.2095 0
M  V30 2677 N 248.321 -0.919034 -1.28029 0
M  V30 2678 C 249.231 -0.416756 -2.30869 0
M  V30 2679 C 250.247 0.498235 -1.66714 0
M  V30 2680 O 251.423 0.383144 -1.97722 0
M  V30 2681 C 248.488 0.330274 -3.45123 0
M  V30 2682 C 247.549 -0.618578 -4.2482 0
M  V30 2683 C 246.782 0.0928959 -5.33619 0
M  V30 2684 O 247.005 1.31375 -5.55065 0
M  V30 2685 O 245.939 -0.574499 -5.99152 0
M  V30 2686 H 249.765 -1.27043 -2.75851 0
M  V30 2687 H 247.35 -0.684052 -1.3282 0
M  V30 2688 H 249.232 0.751972 -4.14636 0
M  V30 2689 H 247.907 1.1597 -3.02213 0
M  V30 2690 H 246.814 -1.08978 -3.57875 0
M  V30 2691 H 248.147 -1.41497 -4.71423 0
M  V30 2692 N 249.799 1.42003 -0.683588 0
M  V30 2693 C 250.732 2.28166 0.039592 0
M  V30 2694 C 251.71 1.41562 0.799942 0
M  V30 2695 O 252.894 1.70997 0.793248 0
M  V30 2696 C 250.021 3.21575 1.06335 0
M  V30 2697 C 249.067 4.24643 0.397562 0
M  V30 2698 S 249.9 5.2869 -0.851296 0
M  V30 2699 C 251.056 6.25666 0.171166 0
M  V30 2700 H 251.289 2.89153 -0.691229 0
M  V30 2701 H 248.822 1.46962 -0.473435 0
M  V30 2702 H 250.78 3.75928 1.6489 0
M  V30 2703 H 249.441 2.59707 1.76667 0
M  V30 2704 H 248.634 4.90223 1.17035 0
M  V30 2705 H 248.236 3.73824 -0.114611 0
M  V30 2706 H 250.528 6.69653 1.02819 0
M  V30 2707 H 251.471 7.06666 -0.450397 0
M  V30 2708 H 251.879 5.62095 0.520578 0
M  V30 2709 N 251.277 0.427512 1.51691 0
M  V30 2710 C 252.187 -0.39527 2.31246 0
M  V30 2711 C 253.203 -1.03674 1.39742 0
M  V30 2712 O 254.379 -1.03425 1.72816 0
M  V30 2713 C 251.444 -1.48706 3.13189 0
M  V30 2714 C 250.505 -0.866743 4.20459 0
M  V30 2715 C 249.738 -1.90651 4.98486 0
M  V30 2716 O 249.961 -3.12733 4.77026 0
M  V30 2717 O 248.895 -1.5025 5.82845 0
M  V30 2718 H 252.721 0.253918 3.02637 0
M  V30 2719 H 250.306 0.190274 1.48183 0
M  V30 2720 H 252.188 -2.12047 3.64162 0
M  V30 2721 H 250.863 -2.12051 2.44573 0
M  V30 2722 H 249.77 -0.195544 3.73589 0
M  V30 2723 H 251.103 -0.276934 4.9142 0
M  V30 2724 N 252.755 -1.56801 0.158532 0
M  V30 2725 C 254.171 -1.5837 -0.197774 0
M  V30 2726 C 254.371 -1.17334 -1.63814 0
M  V30 2727 O 253.427 -0.878988 -2.36707 0
M  V30 2728 C 254.74 -3.00615 0.0714459 0
M  V30 2729 C 256.288 -3.12999 0.00864533 0
M  V30 2730 C 256.763 -4.57313 0.250685 0
M  V30 2731 N 258.254 -4.62777 0.198014 0
M  V30 2732 C 258.989 -5.72271 0.359642 0
M  V30 2733 N 258.485 -6.90371 0.579625 0
M  V30 2734 N 260.278 -5.61318 0.296438 0
M  V30 2735 H 252.429 -1.81765 1.09887 0
M  V30 2736 H 254.692 -0.841849 0.435884 0
M  V30 2737 H 254.398 -3.35068 1.06874 0
M  V30 2738 H 254.272 -3.71683 -0.642757 0
M  V30 2739 H 256.659 -2.7838 -0.979217 0
M  V30 2740 H 256.74 -2.44393 0.755359 0
M  V30 2741 H 256.384 -4.92639 1.2357 0
M  V30 2742 H 256.314 -5.24061 -0.516489 0
M  V30 2743 H 258.805 -3.77885 0.0331115 0
M  V30 2744 H 259.118 -7.69689 0.69275 0
M  V30 2745 H 257.463 -6.92264 0.616087 0
M  V30 2746 H 260.654 -4.67932 0.125258 0
M  V30 2747 H 260.827 -6.46599 0.425831 0
M  V30 2748 N 254.233 0.115231 -1.57178 0
M  V30 2749 C 255.51 0.852873 -1.76027 0
M  V30 2750 C 255.89 1.97892 -0.73498 0
M  V30 2751 O 255.238 2.27232 0.24036 0
M  V30 2752 C 255.448 1.36608 -3.21153 0
M  V30 2753 C 256.796 1.81692 -3.83762 0
M  V30 2754 O 257.82 1.46278 -3.24779 0
M  V30 2755 O 256.679 2.47104 -4.87444 0
M  V30 2756 H 253.773 0.405296 -0.720877 0
M  V30 2757 H 256.319 0.0986785 -1.69413 0
M  V30 2758 H 255.091 0.558357 -3.87296 0
M  V30 2759 H 254.714 2.18287 -3.3232 0
M  V30 2760 N 255.711 1.52812 0.385517 0
M  V30 2761 C 256.959 1.67694 1.12797 0
M  V30 2762 C 257.28 0.421115 1.90399 0
M  V30 2763 O 256.55 -0.564551 1.87589 0
M  V30 2764 H 255.13 0.618155 0.419396 0
M  V30 2765 H 257.792 1.89938 0.436972 0
M  V30 2766 H 256.888 2.52896 1.82894 0
M  V30 2767 N 257.189 -0.644168 1.43834 0
M  V30 2768 C 258.119 -1.76814 1.52509 0
M  V30 2769 C 259.1 -1.65823 0.379052 0
M  V30 2770 O 260.285 -1.84781 0.597466 0
M  V30 2771 C 257.415 -3.15288 1.4564 0
M  V30 2772 C 256.369 -3.41053 2.58586 0
M  V30 2773 C 255.695 -4.79421 2.36769 0
M  V30 2774 C 256.995 -3.34902 4.00797 0
M  V30 2775 H 258.689 -1.69812 2.46586 0
M  V30 2776 H 256.235 -0.815542 1.1868 0
M  V30 2777 H 258.188 -3.93681 1.50311 0
M  V30 2778 H 256.912 -3.23043 0.480725 0
M  V30 2779 H 255.571 -2.65035 2.53282 0
M  V30 2780 H 255.219 -4.83863 1.37424 0
M  V30 2781 H 254.919 -4.9762 3.12487 0
M  V30 2782 H 256.443 -5.6006 2.43238 0
M  V30 2783 H 257.857 -4.03218 4.07539 0
M  V30 2784 H 256.254 -3.64637 4.76613 0
M  V30 2785 H 257.324 -2.32928 4.25291 0
M  V30 2786 N 258.668 -1.30515 -0.883378 0
M  V30 2787 C 259.578 -1.18959 -2.02203 0
M  V30 2788 C 260.594 -0.109172 -1.73657 0
M  V30 2789 O 261.77 -0.324413 -1.9877 0
M  V30 2790 C 258.835 -0.883871 -3.35244 0
M  V30 2791 C 257.896 -2.04982 -3.77201 0
M  V30 2792 C 257.129 -1.75859 -5.03894 0
M  V30 2793 O 257.352 -0.687276 -5.66244 0
M  V30 2794 O 256.286 -2.61146 -5.42297 0
M  V30 2795 H 260.112 -2.14616 -2.1488 0
M  V30 2796 H 257.697 -1.10124 -1.0096 0
M  V30 2797 H 259.579 -0.728644 -4.15053 0
M  V30 2798 H 258.254 0.0427798 -3.23672 0
M  V30 2799 H 257.161 -2.26038 -2.9809 0
M  V30 2800 H 258.494 -2.95825 -3.93381 0
M  V30 2801 N 260.146 1.09593 -1.13257 0
M  V30 2802 C 261.562 1.33775 -0.870423 0
M  V30 2803 C 261.762 1.95327 0.494926 0
M  V30 2804 O 260.818 2.19853 1.2418 0
M  V30 2805 C 262.131 2.25106 -1.99369 0
M  V30 2806 C 263.679 2.3862 -2.02558 0
M  V30 2807 C 264.154 3.33285 -3.14142 0
M  V30 2808 N 265.645 3.40857 -3.13641 0
M  V30 2809 C 266.38 4.14101 -3.96621 0
M  V30 2810 N 265.876 4.90157 -4.8961 0
M  V30 2811 N 267.669 4.09808 -3.84726 0
M  V30 2812 H 259.82 0.680136 -2.01216 0
M  V30 2813 H 262.083 0.362133 -0.876107 0
M  V30 2814 H 261.789 1.87103 -2.97801 0
M  V30 2815 H 261.663 3.25481 -1.90635 0
M  V30 2816 H 264.05 2.75887 -1.0474 0
M  V30 2817 H 264.131 1.38028 -2.15364 0
M  V30 2818 H 263.775 2.96741 -4.12198 0
M  V30 2819 H 263.705 4.33776 -2.98574 0
M  V30 2820 H 266.196 2.86624 -2.46282 0
M  V30 2821 H 266.509 5.4347 -5.49418 0
M  V30 2822 H 264.854 4.89251 -4.93617 0
M  V30 2823 H 268.045 3.4949 -3.11408 0
M  V30 2824 H 268.218 4.66629 -4.49623 0
M  V30 2825 N 261.624 0.925811 1.2754 0
M  V30 2826 C 262.587 0.428129 2.25166 0
M  V30 2827 C 263.587 -0.452261 1.54309 0
M  V30 2828 O 264.777 -0.253608 1.72344 0
M  V30 2829 C 261.909 -0.384749 3.38722 0
M  V30 2830 H 263.102 1.29066 2.70706 0
M  V30 2831 H 260.655 0.706323 1.3943 0
M  V30 2832 H 261.39 -1.26618 2.98561 0
M  V30 2833 H 261.175 0.246454 3.91325 0
M  V30 2834 H 262.665 -0.723389 4.11287 0
M  V30 2835 N 263.102 -1.41638 0.69111 0
M  V30 2836 C 264.351 -2.00526 0.217318 0
M  V30 2837 C 264.664 -1.55353 -1.18848 0
M  V30 2838 O 265.87 -2.06769 -1.75951 0
M  V30 2839 C 264.326 -3.58313 0.337639 0
M  V30 2840 C 263.934 -4.12469 1.74852 0
M  V30 2841 C 265.678 -4.24431 -0.0766066 0
M  V30 2842 C 263.585 -5.62675 1.82074 0
M  V30 2843 H 262.515 -0.750008 0.0774893 0
M  V30 2844 H 265.166 -1.6217 0.858661 0
M  V30 2845 H 263.548 -3.9425 -0.371879 0
M  V30 2846 H 264.722 -3.8796 2.48644 0
M  V30 2847 H 263.037 -3.58861 2.11205 0
M  V30 2848 H 265.634 -5.34683 -0.0430284 0
M  V30 2849 H 265.977 -4.01101 -1.1146 0
M  V30 2850 H 266.51 -3.93512 0.582476 0
M  V30 2851 H 263.249 -5.90826 2.83911 0
M  V30 2852 H 262.769 -5.89124 1.12661 0
M  V30 2853 H 264.448 -6.27371 1.58159 0
M  V30 2854 N 264.58 -0.43555 -1.51462 0
M  V30 2855 C 265.543 0.365137 -2.26273 0
M  V30 2856 C 266.543 0.951227 -1.29647 0
M  V30 2857 O 267.733 0.825958 -1.53374 0
M  V30 2858 C 264.865 1.51645 -3.05314 0
M  V30 2859 H 266.058 -0.290474 -2.9849 0
M  V30 2860 H 263.611 -0.188676 -1.55157 0
M  V30 2861 H 264.346 2.20816 -2.3751 0
M  V30 2862 H 264.131 1.10238 -3.76284 0
M  V30 2863 H 265.621 2.08218 -3.61987 0
M  V30 2864 N 266.058 1.56714 -0.166846 0
M  V30 2865 C 267.305 1.96747 0.479252 0
M  V30 2866 C 267.633 1.05263 1.63554 0
M  V30 2867 O 266.888 0.0858098 1.95512 0
M  V30 2868 C 267.187 3.42889 1.00806 0
M  V30 2869 C 266.853 4.50889 -0.0318574 0
M  V30 2870 C 265.515 4.8015 -0.317675 0
M  V30 2871 C 267.867 5.15949 -0.737956 0
M  V30 2872 C 265.195 5.71772 -1.31506 0
M  V30 2873 C 267.547 6.08647 -1.72429 0
M  V30 2874 C 266.211 6.36277 -2.0176 0
M  V30 2875 H 265.481 0.719949 0.175371 0
M  V30 2876 H 268.128 1.89756 -0.257864 0
M  V30 2877 H 266.433 3.4681 1.82291 0
M  V30 2878 H 268.13 3.71203 1.51689 0
M  V30 2879 H 264.72 4.28128 0.201088 0
M  V30 2880 H 268.904 4.93458 -0.530351 0
M  V30 2881 H 264.16 5.91465 -1.54853 0
M  V30 2882 H 268.334 6.58129 -2.27682 0
M  V30 2883 H 265.961 7.07075 -2.79194 0
M  V30 2884 N 267.536 -0.106894 1.57237 0
M  V30 2885 C 268.764 -0.826389 1.8968 0
M  V30 2886 C 269.179 -1.72856 0.759353 0
M  V30 2887 O 268.536 -1.80503 -0.269263 0
M  V30 2888 C 268.587 -1.64967 3.21665 0
M  V30 2889 O 268.308 -0.783804 4.31031 0
M  V30 2890 C 269.809 -2.47326 3.67892 0
M  V30 2891 H 267.029 -0.236927 0.627779 0
M  V30 2892 H 269.573 -0.0876593 2.04312 0
M  V30 2893 H 267.728 -2.34103 3.08666 0
M  V30 2894 H 268.142 -1.35284 5.06753 0
M  V30 2895 H 269.616 -3.00604 4.6297 0
M  V30 2896 H 270.093 -3.25247 2.95146 0
M  V30 2897 H 270.699 -1.83411 3.83719 0
M  V30 2898 N 269.014 -1.53014 -0.377408 0
M  V30 2899 C 269.946 -1.74884 -1.48149 0
M  V30 2900 C 270.959 -0.629433 -1.5014 0
M  V30 2901 O 272.148 -0.905416 -1.53833 0
M  V30 2902 C 269.248 -1.80299 -2.86959 0
M  V30 2903 C 268.421 -3.09776 -3.08801 0
M  V30 2904 C 267.48 -3.06586 -4.27658 0
M  V30 2905 O 266.506 -3.80419 -4.23403 0
M  V30 2906 N 267.708 -2.26578 -5.34455 0
M  V30 2907 H 270.473 -2.70147 -1.29771 0
M  V30 2908 H 268.034 -1.51646 -0.56703 0
M  V30 2909 H 270.026 -1.75657 -3.64591 0
M  V30 2910 H 268.596 -0.92372 -2.98641 0
M  V30 2911 H 267.816 -3.27815 -2.18931 0
M  V30 2912 H 269.104 -3.95366 -3.20255 0
M  V30 2913 H 268.502 -1.66081 -5.40771 0
M  V30 2914 H 267.059 -2.27766 -6.10709 0
M  V30 2915 N 270.492 0.636531 -1.44174 0
M  V30 2916 C 271.722 1.42146 -1.49927 0
M  V30 2917 C 272.13 1.88812 -0.121063 0
M  V30 2918 O 271.473 1.61126 0.882267 0
M  V30 2919 C 271.535 2.67883 -2.39748 0
M  V30 2920 C 271.199 2.43048 -3.8701 0
M  V30 2921 C 272.196 2.05216 -4.77684 0
M  V30 2922 C 269.881 2.56856 -4.3166 0
M  V30 2923 C 271.875 1.81512 -6.11009 0
M  V30 2924 C 269.562 2.32766 -5.65034 0
M  V30 2925 C 270.56 1.95152 -6.54526 0
M  V30 2926 O 270.248 1.71326 -7.85431 0
M  V30 2927 H 269.98 0.442567 -0.51099 0
M  V30 2928 H 272.534 0.786158 -1.8976 0
M  V30 2929 H 270.764 3.34032 -1.94832 0
M  V30 2930 H 272.453 3.29874 -2.36513 0
M  V30 2931 H 273.219 1.94111 -4.44462 0
M  V30 2932 H 269.098 2.85104 -3.62266 0
M  V30 2933 H 272.642 1.52077 -6.80822 0
M  V30 2934 H 268.539 2.43479 -5.97819 0
M  V30 2935 H 269.307 1.85616 -7.97176 0
M  V30 2936 N 271.97 1.30982 0.876444 0
M  V30 2937 C 273.381 1.18277 1.44456 0
M  V30 2938 C 273.732 -0.213265 1.95037 0
M  V30 2939 O 272.857 -1.11057 1.85729 0
M  V30 2940 C 273.452 2.1411 2.62569 0
M  V30 2941 C 272.011 2.05358 3.15444 0
M  V30 2942 C 271.158 2.03706 1.88146 0
M  V30 2943 H 274.109 1.43127 0.685584 0
M  V30 2944 H 274.13 1.72692 3.39054 0
M  V30 2945 H 273.642 3.15706 2.25724 0
M  V30 2946 H 271.743 1.06934 3.56926 0
M  V30 2947 H 271.856 2.94156 3.78166 0
M  V30 2948 H 270.22 1.48629 2.06837 0
M  V30 2949 H 271.003 3.07047 1.53547 0
M  V30 2950 N 273.449 -1.08991 1.13837 0
M  V30 2951 C 274.381 -2.15606 0.777612 0
M  V30 2952 C 275.394 -1.61533 -0.202739 0
M  V30 2953 O 276.583 -1.78491 0.0181055 0
M  V30 2954 C 273.683 -3.3864 0.132623 0
M  V30 2955 C 272.856 -4.22115 1.1462 0
M  V30 2956 C 271.915 -5.23564 0.526074 0
M  V30 2957 O 270.941 -5.56678 1.18735 0
M  V30 2958 N 272.143 -5.76266 -0.699866 0
M  V30 2959 H 274.908 -2.47159 1.69506 0
M  V30 2960 H 272.469 -1.24747 1.03198 0
M  V30 2961 H 274.461 -4.03626 -0.29459 0
M  V30 2962 H 273.031 -3.04938 -0.687849 0
M  V30 2963 H 272.251 -3.53199 1.75055 0
M  V30 2964 H 273.539 -4.74709 1.83109 0
M  V30 2965 H 272.937 -5.51585 -1.25581 0
M  V30 2966 H 271.494 -6.42963 -1.06968 0
M  V30 2967 N 274.927 -0.932562 -1.27047 0
M  V30 2968 C 276.157 -0.591173 -1.97961 0
M  V30 2969 C 276.565 0.836219 -1.69717 0
M  V30 2970 O 275.908 1.56801 -0.957036 0
M  V30 2971 C 275.97 -0.743082 -3.51736 0
M  V30 2972 C 275.634 -2.1435 -4.03613 0
M  V30 2973 C 276.631 -3.11815 -4.16014 0
M  V30 2974 C 274.316 -2.46175 -4.37839 0
M  V30 2975 C 276.31 -4.39211 -4.61923 0
M  V30 2976 C 273.997 -3.73806 -4.83438 0
M  V30 2977 C 274.995 -4.70137 -4.95439 0
M  V30 2978 O 274.683 -5.95496 -5.40037 0
M  V30 2979 H 274.415 -0.222375 -0.638377 0
M  V30 2980 H 276.969 -1.25317 -1.62742 0
M  V30 2981 H 275.199 -0.0239739 -3.86693 0
M  V30 2982 H 276.888 -0.40603 -4.03864 0
M  V30 2983 H 277.654 -2.88549 -3.89826 0
M  V30 2984 H 273.533 -1.71936 -4.27737 0
M  V30 2985 H 277.077 -5.14404 -4.71205 0
M  V30 2986 H 272.974 -3.96888 -5.09068 0
M  V30 2987 H 273.742 -5.98554 -5.58279 0
M  V30 2988 N 276.405 1.4127 -0.698611 0
M  V30 2989 C 277.63 2.06024 -0.238512 0
M  V30 2990 C 278.055 1.5224 1.10475 0
M  V30 2991 O 277.413 0.650623 1.69223 0
M  V30 2992 C 277.461 3.59988 -0.209952 0
M  V30 2993 O 276.565 4.04282 0.814235 0
M  V30 2994 H 275.906 0.653829 -0.115775 0
M  V30 2995 H 278.436 1.8098 -0.954326 0
M  V30 2996 H 278.446 4.07979 -0.0418436 0
M  V30 2997 H 277.121 3.98503 -1.1903 0
M  V30 2998 H 275.698 3.6779 0.615234 0
M  V30 2999 N 277.883 0.443576 1.51229 0
M  V30 3000 C 279.123 -0.119889 2.04048 0
M  V30 3001 C 279.487 -1.39418 1.32009 0
M  V30 3002 O 280.688 -2.03829 1.75235 0
M  V30 3003 C 278.959 -0.327233 3.55899 0
M  V30 3004 S 280.518 -0.853208 4.30425 0
M  V30 3005 H 277.336 -0.028921 0.710412 0
M  V30 3006 H 279.938 0.604413 1.85922 0
M  V30 3007 H 278.642 0.606445 4.05895 0
M  V30 3008 H 278.173 -1.07844 3.7833 0
M  V30 3009 H 280.188 -2.13005 4.48155 0
M  V30 3010 N 279.361 -1.56624 0.175154 0
M  V30 3011 C 280.586 -2.01813 -0.478137 0
M  V30 3012 C 281.011 -1.05457 -1.55757 0
M  V30 3013 O 280.369 -0.0347439 -1.81267 0
M  V30 3014 C 280.417 -3.45581 -1.02987 0
M  V30 3015 O 279.521 -3.52305 -2.14371 0
M  V30 3016 H 278.862 -0.65413 -0.114059 0
M  V30 3017 H 281.392 -2.02673 0.280173 0
M  V30 3018 H 281.402 -3.84965 -1.35151 0
M  V30 3019 H 280.077 -4.1521 -0.239556 0
M  V30 3020 H 278.654 -3.24783 -1.83222 0
M  V30 3021 N 280.839 0.0985539 -1.57292 0
M  V30 3022 C 282.067 0.816318 -1.90115 0
M  V30 3023 C 282.482 1.72451 -0.768509 0
M  V30 3024 O 281.839 1.80643 0.259687 0
M  V30 3025 C 281.89 1.63259 -3.22535 0
M  V30 3026 O 281.611 0.760934 -4.31441 0
M  V30 3027 C 283.112 2.45372 -3.69199 0
M  V30 3028 H 280.332 0.233595 -0.629027 0
M  V30 3029 H 282.876 0.0768229 -2.04356 0
M  V30 3030 H 281.031 2.32463 -3.09903 0
M  V30 3031 H 281.445 1.32595 -5.07463 0
M  V30 3032 H 282.919 2.98144 -4.64558 0
M  V30 3033 H 283.396 3.23677 -2.96867 0
M  V30 3034 H 284.002 1.81373 -3.84687 0
M  V30 3035 N 282.317 1.53212 0.369288 0
M  V30 3036 C 283.545 1.73119 1.13303 0
M  V30 3037 C 283.96 0.458455 1.83149 0
M  V30 3038 O 283.317 -0.568403 1.73423 0
M  V30 3039 C 283.368 2.89413 2.16616 0
M  V30 3040 O 283.089 4.11761 1.49614 0
M  V30 3041 C 284.59 3.21161 3.05566 0
M  V30 3042 H 281.81 0.579107 0.338934 0
M  V30 3043 H 284.354 1.99942 0.429338 0
M  V30 3044 H 282.509 2.64994 2.82589 0
M  V30 3045 H 282.923 4.76858 2.18419 0
M  V30 3046 H 284.397 4.05949 3.74045 0
M  V30 3047 H 284.874 2.36369 3.70171 0
M  V30 3048 H 285.48 3.47492 2.45213 0
M  V30 3049 N 283.795 -0.628877 1.44509 0
M  V30 3050 C 285.043 -1.38565 1.4712 0
M  V30 3051 C 285.364 -1.94712 0.105899 0
M  V30 3052 O 284.634 -1.75912 -0.862079 0
M  V30 3053 H 283.214 -0.514333 0.541729 0
M  V30 3054 H 285.876 -0.740018 1.80305 0
M  V30 3055 H 284.972 -2.21583 2.19789 0
M  V30 3056 N 285.273 -1.31445 -0.869486 0
M  V30 3057 C 286.498 -1.24256 -1.66058 0
M  V30 3058 C 286.923 0.188928 -1.87149 0
M  V30 3059 O 286.281 1.13522 -1.4136 0
M  V30 3060 C 286.329 -1.9924 -3.00559 0
M  V30 3061 O 285.433 -1.33007 -3.90362 0
M  V30 3062 H 284.774 -0.428973 -0.506831 0
M  V30 3063 H 287.304 -1.73521 -1.08404 0
M  V30 3064 H 287.314 -2.08854 -3.50491 0
M  V30 3065 H 285.989 -3.03342 -2.84528 0
M  V30 3066 H 284.566 -1.31848 -3.48813 0
M  V30 3067 N 286.751 1.08385 -1.14413 0
M  V30 3068 C 287.976 1.85057 -0.936413 0
M  V30 3069 C 288.401 1.81055 0.509971 0
M  V30 3070 O 287.759 1.1958 1.36273 0
M  V30 3071 C 287.807 3.30505 -1.44217 0
M  V30 3072 O 286.911 4.07491 -0.634409 0
M  V30 3073 H 286.252 0.573425 -0.334784 0
M  V30 3074 H 288.782 1.36799 -1.52142 0
M  V30 3075 H 288.792 3.81348 -1.45043 0
M  V30 3076 H 287.467 3.32734 -2.49522 0
M  V30 3077 H 286.044 3.66368 -0.694902 0
M  V30 3078 N 288.23 0.939286 1.26551 0
M  V30 3079 C 289.16 0.465044 2.28822 0
M  V30 3080 C 290.141 -0.480692 1.63167 0
M  V30 3081 O 291.326 -0.382955 1.90387 0
M  V30 3082 C 288.456 -0.27234 3.46231 0
M  V30 3083 C 287.41 0.58666 4.2396 0
M  V30 3084 C 286.736 -0.280573 5.33963 0
M  V30 3085 C 288.036 1.85704 4.88171 0
M  V30 3086 H 289.73 1.31979 2.68741 0
M  V30 3087 H 287.276 0.636061 1.29191 0
M  V30 3088 H 289.229 -0.615133 4.16886 0
M  V30 3089 H 287.953 -1.16121 3.0526 0
M  V30 3090 H 286.612 0.91232 3.55067 0
M  V30 3091 H 286.26 -1.16874 4.89234 0
M  V30 3092 H 285.96 0.29076 5.8688 0
M  V30 3093 H 287.484 -0.618678 6.07458 0
M  V30 3094 H 288.898 1.58161 5.51052 0
M  V30 3095 H 287.295 2.37279 5.51197 0
M  V30 3096 H 288.365 2.56957 4.11219 0
M  V30 3097 N 289.708 -1.40897 0.706093 0
M  V30 3098 C 290.656 -2.32572 0.0361893 0
M  V30 3099 C 291.65 -1.51532 -0.757266 0
M  V30 3100 O 292.856 -1.67396 -0.661703 0
M  V30 3101 H 289.231 -0.751966 -0.00709935 0
M  V30 3102 H 291.202 -2.86733 0.826249 0
M  V30 3103 C 289.951 -3.36418 -0.87854 0
M  V30 3104 H 289.274 -3.98836 -0.277401 0
M  V30 3105 H 290.714 -4.0308 -1.3154 0
M  V30 3106 C 289.173 -2.71141 -1.99961 0
M  V30 3107 O 289.703 -2.56735 -3.0895 0
M  V30 3108 N 287.909 -2.29671 -1.78043 0
M  V30 3109 H 287.456 -2.41588 -0.894042 0
M  V30 3110 H 287.414 -1.86332 -2.53235 0
M  V30 3111 N 291.186 -0.45159 -1.50991 0
M  V30 3112 C 292.149 0.341117 -2.26647 0
M  V30 3113 C 293.149 0.937422 -1.30649 0
M  V30 3114 O 294.339 0.809644 -1.54241 0
M  V30 3115 C 291.471 1.48398 -3.06905 0
M  V30 3116 H 292.664 -0.322117 -2.98165 0
M  V30 3117 H 290.217 -0.205122 -1.54948 0
M  V30 3118 H 290.952 2.18284 -2.39838 0
M  V30 3119 H 290.737 1.06241 -3.77432 0
M  V30 3120 H 292.227 2.04367 -3.64176 0
M  V30 3121 N 292.664 1.56529 -0.183458 0
M  V30 3122 C 293.913 1.96419 0.458511 0
M  V30 3123 C 294.226 1.0727 1.63562 0
M  V30 3124 O 295.432 1.36893 2.34462 0
M  V30 3125 C 293.888 3.49298 0.867122 0
M  V30 3126 C 293.496 4.47092 -0.285057 0
M  V30 3127 C 295.24 3.97983 1.47683 0
M  V30 3128 C 293.147 5.91225 0.143862 0
M  V30 3129 H 292.077 0.733394 0.175071 0
M  V30 3130 H 294.728 1.81448 -0.273624 0
M  V30 3131 H 293.11 3.59731 1.65559 0
M  V30 3132 H 294.284 4.48383 -1.0625 0
M  V30 3133 H 292.599 4.08535 -0.805503 0
M  V30 3134 H 295.196 5.03134 1.80999 0
M  V30 3135 H 295.539 3.41618 2.37914 0
M  V30 3136 H 296.072 3.90617 0.752562 0
M  V30 3137 H 292.811 6.5149 -0.723974 0
M  V30 3138 H 292.331 5.93214 0.886413 0
M  V30 3139 H 294.01 6.44362 0.583628 0
M  V30 3140 N 294.142 -0.090211 1.57342 0
M  V30 3141 C 295.372 -0.805055 1.90269 0
M  V30 3142 C 295.78 -1.72561 0.775842 0
M  V30 3143 O 295.123 -1.81839 -0.260843 0
M  V30 3144 C 295.185 -1.66734 3.18497 0
M  V30 3145 C 294.849 -0.918092 4.47683 0
M  V30 3146 C 295.846 -0.245674 5.19319 0
M  V30 3147 C 293.531 -0.890724 4.94339 0
M  V30 3148 C 295.525 0.444088 6.35851 0
M  V30 3149 C 293.212 -0.197179 6.10782 0
M  V30 3150 C 294.21 0.469044 6.81388 0
M  V30 3151 O 293.898 1.15146 7.95611 0
M  V30 3152 H 293.63 -0.235143 0.633785 0
M  V30 3153 H 296.184 -0.0703805 2.05279 0
M  V30 3154 H 294.414 -2.44437 2.99646 0
M  V30 3155 H 296.103 -2.25919 3.37217 0
M  V30 3156 H 296.869 -0.258246 4.84312 0
M  V30 3157 H 292.748 -1.39873 4.39268 0
M  V30 3158 H 296.292 0.964667 6.90898 0
M  V30 3159 H 292.189 -0.18247 6.45242 0
M  V30 3160 H 292.957 1.05885 8.11622 0
M  V30 3161 N 295.62 -1.53406 -0.361157 0
M  V30 3162 C 297.036 -1.43277 -0.703124 0
M  V30 3163 C 297.236 -0.575384 -1.9311 0
M  V30 3164 O 296.292 -0.0595362 -2.5243 0
M  V30 3165 C 297.605 -2.8653 -0.9122 0
M  V30 3166 C 299.153 -2.96191 -1.01193 0
M  V30 3167 C 299.628 -4.40514 -1.25345 0
M  V30 3168 N 301.119 -4.43962 -1.32105 0
M  V30 3169 C 301.854 -5.52746 -1.5251 0
M  V30 3170 N 301.35 -6.71567 -1.70203 0
M  V30 3171 N 303.143 -5.40331 -1.54916 0
M  V30 3172 H 295.294 -2.07654 0.446475 0
M  V30 3173 H 297.557 -0.937944 0.137715 0
M  V30 3174 H 297.263 -3.51605 -0.0816414 0
M  V30 3175 H 297.137 -3.30441 -1.81903 0
M  V30 3176 H 299.524 -2.31266 -1.83303 0
M  V30 3177 H 299.605 -2.55667 -0.0823929 0
M  V30 3178 H 299.249 -5.06014 -0.437346 0
M  V30 3179 H 299.179 -4.78614 -2.19627 0
M  V30 3180 H 301.67 -3.58332 -1.20028 0
M  V30 3181 H 301.983 -7.50241 -1.85359 0
M  V30 3182 H 300.328 -6.74545 -1.67373 0
M  V30 3183 H 303.519 -4.46465 -1.40663 0
M  V30 3184 H 303.692 -6.25173 -1.70477 0
M  V30 3185 N 297.098 0.621204 -1.44841 0
M  V30 3186 C 298.328 1.40548 -1.51426 0
M  V30 3187 C 298.736 1.88673 -0.141083 0
M  V30 3188 O 298.079 1.62053 0.865128 0
M  V30 3189 C 298.141 2.65325 -2.42576 0
M  V30 3190 C 297.805 2.3893 -3.89566 0
M  V30 3191 C 298.802 2.00138 -4.79834 0
M  V30 3192 C 296.487 2.52263 -4.3436 0
M  V30 3193 C 298.481 1.75021 -6.129 0
M  V30 3194 C 296.168 2.2676 -5.67471 0
M  V30 3195 C 297.166 1.88199 -6.56559 0
M  V30 3196 O 296.854 1.62986 -7.87204 0
M  V30 3197 H 296.586 0.437122 -0.515655 0
M  V30 3198 H 299.14 0.765987 -1.90583 0
M  V30 3199 H 297.37 3.31947 -1.98364 0
M  V30 3200 H 299.059 3.27347 -2.39998 0
M  V30 3201 H 299.825 1.89386 -4.46495 0
M  V30 3202 H 295.704 2.81246 -3.65269 0
M  V30 3203 H 299.248 1.44848 -6.82396 0
M  V30 3204 H 295.145 2.37125 -6.00368 0
M  V30 3205 H 295.913 1.7715 -7.991 0
M  V30 3206 N 298.576 1.31904 0.862503 0
M  V30 3207 C 299.806 1.24817 1.64634 0
M  V30 3208 C 300.214 -0.187579 1.88268 0
M  V30 3209 O 299.557 -1.13253 1.44635 0
M  V30 3210 C 299.619 1.92996 3.03303 0
M  V30 3211 C 299.283 3.42336 3.02746 0
M  V30 3212 C 300.28 4.37956 2.80162 0
M  V30 3213 C 297.965 3.84147 3.2363 0
M  V30 3214 C 299.959 5.73361 2.78453 0
M  V30 3215 C 297.646 5.19663 3.21549 0
M  V30 3216 C 298.644 6.14081 2.98988 0
M  V30 3217 O 298.332 7.47118 2.96766 0
M  V30 3218 H 298.064 0.432222 0.519769 0
M  V30 3219 H 300.618 1.7445 1.08427 0
M  V30 3220 H 298.848 1.37922 3.61268 0
M  V30 3221 H 300.537 1.79723 3.63943 0
M  V30 3222 H 301.303 4.06981 2.63802 0
M  V30 3223 H 297.182 3.11083 3.40218 0
M  V30 3224 H 300.726 6.4703 2.60763 0
M  V30 3225 H 296.623 5.5027 3.37451 0
M  V30 3226 H 297.391 7.56382 3.12775 0
M  V30 3227 N 300.054 -1.07777 1.14986 0
M  V30 3228 C 301.002 -2.16964 0.838406 0
M  V30 3229 C 301.996 -1.68372 -0.186386 0
M  V30 3230 O 303.202 -1.79951 -0.0418465 0
M  V30 3231 H 299.577 -0.708006 0.253439 0
M  V30 3232 H 301.548 -2.40454 1.76704 0
M  V30 3233 C 300.297 -3.4604 0.339335 0
M  V30 3234 H 299.62 -3.83813 1.11927 0
M  V30 3235 H 301.06 -4.23698 0.160021 0
M  V30 3236 C 299.519 -3.23569 -0.938325 0
M  V30 3237 O 300.049 -3.47752 -2.01077 0
M  V30 3238 N 298.255 -2.77079 -0.876117 0
M  V30 3239 H 297.802 -2.576 -0.00322037 0
M  V30 3240 H 297.76 -2.62422 -1.73153 0
M  V30 3241 N 301.532 -0.945985 -1.26051 0
M  V30 3242 C 302.464 -0.416662 -2.25381 0
M  V30 3243 C 303.477 0.462712 -1.56086 0
M  V30 3244 O 304.666 0.272383 -1.7641 0
M  V30 3245 C 301.766 0.419812 -3.3629 0
M  V30 3246 C 300.939 -0.444531 -4.35135 0
M  V30 3247 C 299.998 0.332305 -5.2515 0
M  V30 3248 O 299.024 -0.266324 -5.68577 0
M  V30 3249 N 300.226 1.62763 -5.57215 0
M  V30 3250 H 302.991 -1.27059 -2.71433 0
M  V30 3251 H 300.552 -0.815392 -1.39868 0
M  V30 3252 H 302.544 0.947013 -3.93464 0
M  V30 3253 H 301.114 1.17456 -2.89694 0
M  V30 3254 H 300.334 -1.15291 -3.76964 0
M  V30 3255 H 301.622 -1.03478 -4.98166 0
M  V30 3256 H 301.02 2.13603 -5.23823 0
M  V30 3257 H 299.577 2.10097 -6.17011 0
M  V30 3258 N 303.011 1.40521 -0.713556 0
M  V30 3259 C 304.257 2.01221 -0.252564 0
M  V30 3260 C 304.59 1.56444 1.1506 0
M  V30 3261 O 303.865 0.783597 1.78017 0
M  V30 3262 C 304.148 3.58582 -0.330332 0
M  V30 3263 C 304.001 4.13437 -1.77173 0
M  V30 3264 C 305.32 4.39079 0.299641 0
M  V30 3265 H 302.439 0.731077 -0.0932471 0
M  V30 3266 H 305.081 1.67026 -0.905673 0
M  V30 3267 H 303.231 3.87844 0.225737 0
M  V30 3268 H 304.903 3.9498 -2.38303 0
M  V30 3269 H 303.146 3.67801 -2.3001 0
M  V30 3270 H 303.817 5.22597 -1.77755 0
M  V30 3271 H 306.293 4.15735 -0.174139 0
M  V30 3272 H 305.169 5.4848 0.214771 0
M  V30 3273 H 305.43 4.19915 1.38288 0
M  V30 3274 N 304.489 0.459591 1.5075 0
M  V30 3275 C 305.737 -0.0991532 2.01857 0
M  V30 3276 C 306.058 -1.41247 1.34441 0
M  V30 3277 O 305.328 -1.89775 0.486022 0
M  V30 3278 H 303.908 -0.039633 0.745948 0
M  V30 3279 H 306.57 0.607387 1.85194 0
M  V30 3280 H 305.666 -0.258998 3.11023 0
M  V30 3281 N 305.967 -1.56429 0.191757 0
M  V30 3282 C 307.383 -1.58754 -0.164137 0
M  V30 3283 C 307.583 -1.20782 -1.61288 0
M  V30 3284 O 306.639 -0.928999 -2.34789 0
M  V30 3285 C 307.952 -3.00396 0.135195 0
M  V30 3286 C 309.5 -3.1291 0.0750351 0
M  V30 3287 C 309.975 -4.56679 0.347632 0
M  V30 3288 N 311.466 -4.62252 0.296131 0
M  V30 3289 C 312.201 -5.71379 0.480948 0
M  V30 3290 N 311.697 -6.88986 0.725933 0
M  V30 3291 N 313.49 -5.60563 0.415435 0
M  V30 3292 H 305.641 -1.79393 1.13718 0
M  V30 3293 H 307.904 -0.832414 0.453643 0
M  V30 3294 H 307.61 -3.32726 1.13958 0
M  V30 3295 H 307.484 -3.72963 -0.563773 0
M  V30 3296 H 309.871 -2.80394 -0.919948 0
M  V30 3297 H 309.952 -2.42736 0.807029 0
M  V30 3298 H 309.596 -4.89907 1.33992 0
M  V30 3299 H 309.526 -5.25039 -0.405212 0
M  V30 3300 H 312.017 -3.7773 0.113259 0
M  V30 3301 H 312.33 -7.68046 0.855857 0
M  V30 3302 H 310.675 -6.90801 0.762788 0
M  V30 3303 H 313.866 -4.67561 0.224486 0
M  V30 3304 H 314.039 -6.45551 0.562889 0
M  V30 3305 N 307.445 0.0818655 -1.57387 0
M  V30 3306 C 308.392 1.09834 -2.0299 0
M  V30 3307 C 309.362 1.39043 -0.908639 0
M  V30 3308 O 310.547 1.50282 -1.17559 0
M  V30 3309 C 307.687 2.40971 -2.47037 0
M  V30 3310 C 306.8 2.18379 -3.7274 0
M  V30 3311 C 305.935 3.43008 -4.0561 0
M  V30 3312 C 304.974 3.15736 -5.24383 0
M  V30 3313 N 304.111 4.32667 -5.52941 0
M  V30 3314 H 308.951 0.702472 -2.89602 0
M  V30 3315 H 306.488 0.33531 -1.43227 0
M  V30 3316 H 308.446 3.1752 -2.70623 0
M  V30 3317 H 307.076 2.78379 -1.63417 0
M  V30 3318 H 306.128 1.32569 -3.56552 0
M  V30 3319 H 307.44 1.94227 -4.59431 0
M  V30 3320 H 306.594 4.27958 -4.30043 0
M  V30 3321 H 305.333 3.70225 -3.17466 0
M  V30 3322 H 304.338 2.2918 -4.99757 0
M  V30 3323 H 305.563 2.8985 -6.14136 0
M  V30 3324 H 303.509 4.59935 -4.67756 0
M  V30 3325 H 303.426 4.11753 -6.34031 0
M  V30 3326 H 304.694 5.18644 -5.81918 0
M  V30 3327 N 308.923 1.53595 0.353017 0
M  V30 3328 C 310.334 1.61937 0.929153 0
M  V30 3329 C 310.685 0.494686 1.89861 0
M  V30 3330 O 309.81 -0.377017 2.1309 0
M  V30 3331 C 310.405 2.93526 1.69199 0
M  V30 3332 C 308.964 3.04161 2.21727 0
M  V30 3333 C 308.111 2.57322 1.03348 0
M  V30 3334 H 311.062 1.58155 0.131431 0
M  V30 3335 H 311.083 2.82034 2.55416 0
M  V30 3336 H 310.595 3.75362 0.986144 0
M  V30 3337 H 308.696 2.26938 2.95516 0
M  V30 3338 H 308.809 4.09465 2.48748 0
M  V30 3339 H 307.173 2.12499 1.40414 0
M  V30 3340 H 307.956 3.41588 0.342428 0
M  V30 3341 N 310.401 -0.613514 1.45168 0
M  V30 3342 C 311.629 -1.39946 1.5239 0
M  V30 3343 C 312.044 -1.88167 0.154531 0
M  V30 3344 O 311.401 -1.61872 -0.842843 0
M  V30 3345 C 311.452 -2.60795 2.50337 0
M  V30 3346 O 311.173 -2.1458 3.81952 0
M  V30 3347 C 312.674 -3.53723 2.67198 0
M  V30 3348 H 309.894 -0.428593 0.516284 0
M  V30 3349 H 312.438 -0.748753 1.903 0
M  V30 3350 H 310.593 -3.21919 2.15515 0
M  V30 3351 H 311.007 -2.93055 4.34993 0
M  V30 3352 H 312.481 -4.35079 3.39721 0
M  V30 3353 H 312.958 -4.0368 1.73029 0
M  V30 3354 H 313.564 -2.98456 3.02992 0
M  V30 3355 N 311.879 -1.3236 -0.855495 0
M  V30 3356 C 312.812 -1.15559 -1.96777 0
M  V30 3357 C 313.79 -0.0552681 -1.62506 0
M  V30 3358 O 314.974 -0.214419 -1.87277 0
M  V30 3359 C 312.101 -0.768851 -3.29858 0
M  V30 3360 C 311.147 -1.87429 -3.83109 0
M  V30 3361 S 311.98 -3.48243 -4.06801 0
M  V30 3362 C 313.136 -3.11539 -5.42858 0
M  V30 3363 H 313.369 -2.09717 -2.10727 0
M  V30 3364 H 310.902 -1.17011 -1.00737 0
M  V30 3365 H 312.86 -0.55248 -4.06765 0
M  V30 3366 H 311.521 0.153857 -3.13723 0
M  V30 3367 H 310.714 -1.55667 -4.79358 0
M  V30 3368 H 310.316 -2.04647 -3.13042 0
M  V30 3369 H 312.608 -2.61331 -6.2507 0
M  V30 3370 H 313.551 -4.06806 -5.79582 0
M  V30 3371 H 313.959 -2.48582 -5.06821 0
M  V30 3372 N 313.357 1.07166 -1.15556 0
M  V30 3373 C 314.304 2.14417 -0.854055 0
M  V30 3374 C 315.274 1.64965 0.193806 0
M  V30 3375 O 316.459 1.90703 0.0609443 0
M  V30 3376 C 313.599 3.43304 -0.351574 0
M  V30 3377 C 312.712 4.06537 -1.46123 0
M  V30 3378 C 311.847 5.23266 -0.914677 0
M  V30 3379 C 310.886 5.78464 -2.00114 0
M  V30 3380 N 310.023 6.86521 -1.47083 0
M  V30 3381 H 314.863 2.39548 -1.77259 0
M  V30 3382 H 312.4 1.17543 -0.884425 0
M  V30 3383 H 314.358 4.17179 -0.0419409 0
M  V30 3384 H 312.988 3.18419 0.530037 0
M  V30 3385 H 312.04 3.30297 -1.88701 0
M  V30 3386 H 313.352 4.43567 -2.28144 0
M  V30 3387 H 312.506 6.04131 -0.557698 0
M  V30 3388 H 311.245 4.87658 -0.0636583 0
M  V30 3389 H 310.25 4.96243 -2.36692 0
M  V30 3390 H 311.475 6.16126 -2.85597 0
M  V30 3391 H 309.421 6.52849 -0.642198 0
M  V30 3392 H 309.338 7.22446 -2.22729 0
M  V30 3393 H 310.606 7.71087 -1.14215 0
M  V30 3394 N 314.835 0.952656 1.25548 0
M  V30 3395 C 316.081 0.616826 1.93822 0
M  V30 3396 C 316.436 -0.836684 1.73255 0
M  V30 3397 O 315.729 -1.59218 1.06584 0
M  V30 3398 C 315.923 0.908818 3.45652 0
M  V30 3399 C 315.752 2.38916 3.80984 0
M  V30 3400 C 314.522 3.04637 4.03143 0
M  V30 3401 C 316.72 3.36838 3.88645 0
M  V30 3402 N 314.702 4.42565 4.25453 0
M  V30 3403 C 316.073 4.60065 4.1562 0
M  V30 3404 C 318.128 3.31704 3.71318 0
M  V30 3405 C 316.831 5.78795 4.2707 0
M  V30 3406 C 318.857 4.4977 3.84006 0
M  V30 3407 C 318.219 5.71783 4.11392 0
M  V30 3408 H 314.318 0.27629 0.731565 0
M  V30 3409 H 316.902 1.22443 1.5138 0
M  V30 3410 H 315.073 0.330166 3.86994 0
M  V30 3411 H 316.805 0.533093 4.01174 0
M  V30 3412 H 313.56 2.55215 3.98952 0
M  V30 3413 H 313.984 5.1399 4.40617 0
M  V30 3414 H 318.626 2.3842 3.49164 0
M  V30 3415 H 316.344 6.72521 4.48041 0
M  V30 3416 H 319.93 4.47342 3.71989 0
M  V30 3417 H 318.81 6.61617 4.2099 0
M  V30 3418 N 316.313 -1.40141 0.720998 0
M  V30 3419 C 317.538 -2.05618 0.271258 0
M  V30 3420 C 317.963 -1.53978 -1.08039 0
M  V30 3421 O 317.321 -0.677463 -1.68167 0
M  V30 3422 C 317.369 -3.59609 0.267197 0
M  V30 3423 O 316.473 -4.05526 -0.749814 0
M  V30 3424 H 315.814 -0.651904 0.126162 0
M  V30 3425 H 318.344 -1.79439 0.982997 0
M  V30 3426 H 318.354 -4.0786 0.106744 0
M  V30 3427 H 317.029 -3.96559 1.25354 0
M  V30 3428 H 315.606 -3.68722 -0.556644 0
M  V30 3429 N 317.792 -0.46758 -1.50504 0
M  V30 3430 C 319.02 0.0864133 -2.06719 0
M  V30 3431 C 319.435 1.33819 -1.33184 0
M  V30 3432 O 318.792 1.78061 -0.400083 0
M  V30 3433 C 318.843 0.378079 -3.59517 0
M  V30 3434 O 318.564 -0.824044 -4.3028 0
M  V30 3435 C 320.065 0.979426 -4.32345 0
M  V30 3436 H 317.285 -0.00551697 -0.670977 0
M  V30 3437 H 319.829 -0.655354 -1.93715 0
M  V30 3438 H 317.984 1.06977 -3.72337 0
M  V30 3439 H 318.398 -0.566518 -5.21432 0
M  V30 3440 H 319.872 1.1333 -5.40241 0
M  V30 3441 H 320.349 1.9686 -3.9261 0
M  V30 3442 H 320.955 0.326216 -4.24047 0
M  V30 3443 N 319.27 1.56325 -0.20005 0
M  V30 3444 C 320.519 1.96895 0.437652 0
M  V30 3445 C 320.832 1.08999 1.62415 0
M  V30 3446 O 322.038 1.39372 2.32997 0
M  V30 3447 C 320.494 3.50198 0.830025 0
M  V30 3448 C 320.102 4.46765 -0.332461 0
M  V30 3449 C 321.846 3.99526 1.43453 0
M  V30 3450 C 319.753 5.91344 0.0811468 0
M  V30 3451 H 318.683 0.735209 0.167282 0
M  V30 3452 H 321.334 1.81148 -0.292853 0
M  V30 3453 H 319.716 3.61467 1.61734 0
M  V30 3454 H 320.89 4.47231 -1.11 0
M  V30 3455 H 319.205 4.07657 -0.848789 0
M  V30 3456 H 321.802 5.05025 1.75652 0
M  V30 3457 H 322.145 3.44122 2.34277 0
M  V30 3458 H 322.678 3.91393 0.71109 0
M  V30 3459 H 319.417 6.50685 -0.793033 0
M  V30 3460 H 318.937 5.94121 0.823445 0
M  V30 3461 H 320.616 6.44945 0.515252 0
M  V30 3462 N 320.748 -0.0735177 1.57428 0
M  V30 3463 C 322.025 -0.805903 1.78226 0
M  V30 3464 C 322.405 -1.95874 0.787189 0
M  V30 3465 O 321.753 -2.2779 -0.180029 0
M  V30 3466 C 321.963 -1.28045 3.24662 0
M  V30 3467 C 323.311 -1.71453 3.88444 0
M  V30 3468 O 324.335 -1.37616 3.28543 0
M  V30 3469 O 323.194 -2.34093 4.93825 0
M  V30 3470 H 320.288 -0.386041 0.73137 0
M  V30 3471 H 322.834 -0.0537269 1.69615 0
M  V30 3472 H 321.606 -0.455476 3.8864 0
M  V30 3473 H 321.229 -2.094 3.37991 0
M  V30 3474 N 322.226 -1.5378 -0.344866 0
M  V30 3475 C 323.642 -1.44015 -0.687888 0
M  V30 3476 C 323.842 -0.595834 -1.92489 0
M  V30 3477 O 322.898 -0.0863064 -2.52352 0
M  V30 3478 C 324.211 -2.87481 -0.881758 0
M  V30 3479 C 325.759 -2.97247 -0.980459 0
M  V30 3480 C 326.234 -4.41819 -1.20665 0
M  V30 3481 N 327.725 -4.45339 -1.27389 0
M  V30 3482 C 328.46 -5.54333 -1.46639 0
M  V30 3483 N 327.956 -6.73335 -1.63071 0
M  V30 3484 N 329.749 -5.41944 -1.49176 0
M  V30 3485 H 321.9 -2.07169 0.468475 0
M  V30 3486 H 324.163 -0.93643 0.147655 0
M  V30 3487 H 323.869 -3.51672 -0.0443444 0
M  V30 3488 H 323.743 -3.32352 -1.78388 0
M  V30 3489 H 326.13 -2.33197 -1.8084 0
M  V30 3490 H 326.211 -2.5574 -0.0552713 0
M  V30 3491 H 325.855 -5.06449 -0.383652 0
M  V30 3492 H 325.785 -4.80917 -2.14539 0
M  V30 3493 H 328.276 -3.59585 -1.1622 0
M  V30 3494 H 328.589 -7.52165 -1.77391 0
M  V30 3495 H 326.934 -6.76282 -1.60209 0
M  V30 3496 H 330.125 -4.47932 -1.3592 0
M  V30 3497 H 330.298 -6.26946 -1.63837 0
M  V30 3498 N 323.704 0.605807 -1.45491 0
M  V30 3499 C 324.95 1.36481 -1.50813 0
M  V30 3500 C 325.305 1.91826 -0.148469 0
M  V30 3501 O 324.598 1.72211 0.839869 0
M  V30 3502 C 324.792 2.53012 -2.52428 0
M  V30 3503 C 324.621 2.09078 -3.98141 0
M  V30 3504 C 323.391 1.95167 -4.66088 0
M  V30 3505 C 325.589 1.66438 -4.86624 0
M  V30 3506 N 323.571 1.45062 -5.96515 0
M  V30 3507 C 324.942 1.27761 -6.06694 0
M  V30 3508 C 326.997 1.54046 -4.7347 0
M  V30 3509 C 325.7 0.779286 -7.15066 0
M  V30 3510 C 327.726 1.05618 -5.81892 0
M  V30 3511 C 327.088 0.67906 -7.01119 0
M  V30 3512 H 323.187 0.493267 -0.606805 0
M  V30 3513 H 325.771 0.692347 -1.81974 0
M  V30 3514 H 323.942 3.17851 -2.23215 0
M  V30 3515 H 325.674 3.19897 -2.47887 0
M  V30 3516 H 322.429 2.16407 -4.21266 0
M  V30 3517 H 322.853 1.22237 -6.65873 0
M  V30 3518 H 327.495 1.81827 -3.81705 0
M  V30 3519 H 325.213 0.489026 -8.06619 0
M  V30 3520 H 328.799 0.964529 -5.73749 0
M  V30 3521 H 327.679 0.310091 -7.83587 0
M  V30 3522 N 325.182 1.32811 0.848464 0
M  V30 3523 C 326.593 1.21315 1.41914 0
M  V30 3524 C 326.944 -0.171847 1.95446 0
M  V30 3525 O 326.069 -1.07093 1.88043 0
M  V30 3526 C 326.664 2.19631 2.57968 0
M  V30 3527 C 325.223 2.12003 3.11017 0
M  V30 3528 C 324.37 2.07651 1.83783 0
M  V30 3529 H 327.321 1.44549 0.655071 0
M  V30 3530 H 327.342 1.79845 3.35315 0
M  V30 3531 H 326.854 3.20423 2.18976 0
M  V30 3532 H 324.955 1.14481 3.54577 0
M  V30 3533 H 325.068 3.02111 3.71841 0
M  V30 3534 H 323.432 1.52983 2.03638 0
M  V30 3535 H 324.215 3.10235 1.47 0
M  V30 3536 N 326.66 -1.06551 1.16123 0
M  V30 3537 C 327.888 -1.83005 0.965237 0
M  V30 3538 C 328.303 -1.82423 -0.486542 0
M  V30 3539 O 327.66 -1.24152 -1.33763 0
M  V30 3540 C 327.711 -3.29733 1.48183 0
M  V30 3541 O 327.432 -3.30416 2.87674 0
M  V30 3542 C 328.933 -4.22926 1.32848 0
M  V30 3543 H 326.153 -0.577118 0.342309 0
M  V30 3544 H 328.697 -1.3445 1.54089 0
M  V30 3545 H 326.852 -3.75609 0.948517 0
M  V30 3546 H 327.266 -4.22149 3.11272 0
M  V30 3547 H 328.74 -5.23916 1.73827 0
M  V30 3548 H 329.217 -4.38346 0.273692 0
M  V30 3549 H 329.823 -3.82894 1.85127 0
M  V30 3550 N 328.138 -0.959301 -1.25041 0
M  V30 3551 C 329.088 -0.453888 -2.23436 0
M  V30 3552 C 330.072 0.459461 -1.542 0
M  V30 3553 O 331.264 0.291752 -1.74579 0
M  V30 3554 C 328.393 0.262667 -3.42294 0
M  V30 3555 C 327.479 -0.669022 -4.1879 0
M  V30 3556 N 327.87 -1.80267 -4.72586 0
M  V30 3557 C 326.168 -0.47814 -4.4343 0
M  V30 3558 C 326.869 -2.38475 -5.3057 0
M  V30 3559 N 325.845 -1.67078 -5.17287 0
M  V30 3560 H 329.647 -1.319 -2.6264 0
M  V30 3561 H 327.161 -0.817358 -1.40332 0
M  V30 3562 H 329.158 0.641911 -4.11929 0
M  V30 3563 H 327.818 1.12432 -3.04613 0
M  V30 3564 H 328.829 -2.18442 -4.69578 0
M  V30 3565 H 325.506 0.340249 -4.16111 0
M  V30 3566 H 326.896 -3.34094 -5.8295 0
M  V30 3567 N 329.616 1.39756 -0.72842 0
M  V30 3568 C 330.566 2.2792 -0.0603424 0
M  V30 3569 C 331.55 1.43922 0.719399 0
M  V30 3570 O 332.742 1.66895 0.589489 0
M  V30 3571 C 329.871 3.32582 0.851104 0
M  V30 3572 C 328.957 4.24049 0.0658641 0
M  V30 3573 N 329.348 4.96653 -0.957578 0
M  V30 3574 C 327.646 4.45013 0.296509 0
M  V30 3575 C 328.347 5.63836 -1.43052 0
M  V30 3576 N 327.323 5.38397 -0.750315 0
M  V30 3577 H 331.125 2.81504 -0.84455 0
M  V30 3578 H 328.639 1.5236 -0.562155 0
M  V30 3579 H 330.636 3.94603 1.34514 0
M  V30 3580 H 329.296 2.80558 1.63454 0
M  V30 3581 H 330.307 5.00297 -1.33877 0
M  V30 3582 H 326.984 4.03943 1.05527 0
M  V30 3583 H 328.374 6.31974 -2.28163 0
M  V30 3584 N 331.094 0.475555 1.50254 0
M  V30 3585 C 332.024 -0.30611 2.31485 0
M  V30 3586 C 333.005 -0.986228 1.38591 0
M  V30 3587 O 334.19 -0.982541 1.67511 0
M  V30 3588 C 331.32 -1.38588 3.1845 0
M  V30 3589 C 330.274 -0.827115 4.19932 0
M  V30 3590 C 329.6 -2.00551 4.95665 0
M  V30 3591 C 330.9 0.16463 5.2204 0
M  V30 3592 H 332.594 0.371866 2.97082 0
M  V30 3593 H 330.14 0.180282 1.42867 0
M  V30 3594 H 332.093 -1.94023 3.74076 0
M  V30 3595 H 330.817 -2.09269 2.50747 0
M  V30 3596 H 329.476 -0.294702 3.65414 0
M  V30 3597 H 329.124 -2.6994 4.2443 0
M  V30 3598 H 328.824 -1.63784 5.64313 0
M  V30 3599 H 330.348 -2.56468 5.54127 0
M  V30 3600 H 331.762 -0.300699 5.72511 0
M  V30 3601 H 330.159 0.446813 5.98434 0
M  V30 3602 H 331.229 1.08905 4.72512 0
M  V30 3603 N 332.573 -1.56217 0.208337 0
M  V30 3604 C 333.503 -2.22694 -0.702116 0
M  V30 3605 C 334.484 -1.19432 -1.2112 0
M  V30 3606 O 335.669 -1.47978 -1.25762 0
M  V30 3607 C 332.799 -2.8966 -1.9161 0
M  V30 3608 C 331.753 -3.9928 -1.5414 0
M  V30 3609 C 331.079 -4.53476 -2.83308 0
M  V30 3610 C 332.379 -5.17012 -0.741339 0
M  V30 3611 H 334.073 -2.99034 -0.147898 0
M  V30 3612 H 331.619 -1.43831 -0.0696951 0
M  V30 3613 H 333.572 -3.34852 -2.55836 0
M  V30 3614 H 332.296 -2.10746 -2.49507 0
M  V30 3615 H 330.955 -3.54799 -0.922668 0
M  V30 3616 H 330.603 -3.71308 -3.39322 0
M  V30 3617 H 330.303 -5.27451 -2.58976 0
M  V30 3618 H 331.827 -5.01378 -3.485 0
M  V30 3619 H 333.241 -5.58667 -1.28699 0
M  V30 3620 H 331.638 -5.97137 -0.595627 0
M  V30 3621 H 332.708 -4.8423 0.254851 0
M  V30 3622 N 334.051 0.0651679 -1.57465 0
M  V30 3623 C 335.3 0.761916 -1.86756 0
M  V30 3624 C 335.613 1.78406 -0.801925 0
M  V30 3625 O 336.819 2.53084 -0.982885 0
M  V30 3626 C 335.275 1.40603 -3.31299 0
M  V30 3627 C 334.883 0.422115 -4.46007 0
M  V30 3628 C 336.627 2.08476 -3.69781 0
M  V30 3629 C 334.534 1.07252 -5.81593 0
M  V30 3630 H 333.464 0.288308 -0.696702 0
M  V30 3631 H 336.115 0.015344 -1.83494 0
M  V30 3632 H 334.497 2.20109 -3.29193 0
M  V30 3633 H 335.671 -0.343613 -4.59517 0
M  V30 3634 H 333.986 -0.152527 -4.16121 0
M  V30 3635 H 336.583 2.57925 -4.68379 0
M  V30 3636 H 336.926 2.88712 -2.99919 0
M  V30 3637 H 337.459 1.35792 -3.73905 0
M  V30 3638 H 334.198 0.310342 -6.54765 0
M  V30 3639 H 333.718 1.80895 -5.71872 0
M  V30 3640 H 335.397 1.59043 -6.27148 0
M  V30 3641 N 335.529 1.53961 0.336706 0
M  V30 3642 C 336.461 1.78751 1.4346 0
M  V30 3643 C 337.474 0.669019 1.48418 0
M  V30 3644 O 338.663 0.945884 1.51378 0
M  V30 3645 C 335.763 1.87844 2.82078 0
M  V30 3646 C 334.936 3.17854 3.00479 0
M  V30 3647 C 333.995 3.17816 4.19379 0
M  V30 3648 O 333.021 3.91511 4.13168 0
M  V30 3649 N 334.223 2.40669 5.2826 0
M  V30 3650 H 336.988 2.73493 1.22563 0
M  V30 3651 H 334.549 1.53096 0.526625 0
M  V30 3652 H 336.541 1.85261 3.59806 0
M  V30 3653 H 335.111 1.00257 2.96086 0
M  V30 3654 H 334.331 3.33504 2.10163 0
M  V30 3655 H 335.619 4.03718 3.0966 0
M  V30 3656 H 335.017 1.8036 5.36178 0
M  V30 3657 H 333.574 2.43877 6.04456 0
M  V30 3658 N 337.007 -0.598083 1.45811 0
M  V30 3659 C 338.247 -1.36802 1.5187 0
M  V30 3660 C 338.611 -1.9133 0.160224 0
M  V30 3661 O 339.812 -2.6863 0.0955302 0
M  V30 3662 C 338.083 -2.47835 2.57513 0
M  V30 3663 S 339.642 -3.35458 2.82866 0
M  V30 3664 H 336.46 -0.466278 0.536755 0
M  V30 3665 H 339.062 -0.689152 1.82951 0
M  V30 3666 H 337.766 -2.06141 3.54872 0
M  V30 3667 H 337.297 -3.20512 2.28114 0
M  V30 3668 H 339.312 -4.46251 2.16967 0
M  V30 3669 N 338.485 -1.33259 -0.841409 0
M  V30 3670 C 339.732 -1.24572 -1.5965 0
M  V30 3671 C 340.06 0.189137 -1.93578 0
M  V30 3672 O 339.315 1.14566 -1.5866 0
M  V30 3673 C 339.614 -2.06381 -2.9179 0
M  V30 3674 C 339.28 -3.556 -2.77235 0
M  V30 3675 C 337.942 -3.96282 -2.72973 0
M  V30 3676 C 340.294 -4.50433 -2.62221 0
M  V30 3677 C 337.622 -5.30017 -2.51592 0
M  V30 3678 C 339.974 -5.84327 -2.42374 0
M  V30 3679 C 338.638 -6.24194 -2.36512 0
M  V30 3680 H 337.908 -0.455842 -0.5842 0
M  V30 3681 H 340.555 -1.6482 -0.975016 0
M  V30 3682 H 338.86 -1.58903 -3.5813 0
M  V30 3683 H 340.557 -1.97019 -3.49263 0
M  V30 3684 H 337.147 -3.23298 -2.81384 0
M  V30 3685 H 341.331 -4.19914 -2.64549 0
M  V30 3686 H 336.587 -5.59947 -2.45499 0
M  V30 3687 H 340.761 -6.57414 -2.29739 0
M  V30 3688 H 338.388 -7.27759 -2.19706 0
M  V30 3689 N 339.963 1.05934 -1.16686 0
M  V30 3690 C 340.926 2.11669 -0.879144 0
M  V30 3691 C 341.926 1.60294 0.127445 0
M  V30 3692 O 343.116 1.7389 -0.103865 0
M  V30 3693 C 340.248 3.39438 -0.315425 0
M  V30 3694 H 341.441 2.38626 -1.81653 0
M  V30 3695 H 338.994 1.22058 -0.976299 0
M  V30 3696 H 339.729 3.18132 0.629468 0
M  V30 3697 H 339.514 3.78034 -1.04079 0
M  V30 3698 H 341.004 4.17391 -0.132189 0
M  V30 3699 N 341.441 0.965919 1.2453 0
M  V30 3700 C 342.718 0.543777 1.87889 0
M  V30 3701 C 343.098 -0.97909 1.87021 0
M  V30 3702 O 342.446 -1.84969 1.3416 0
M  V30 3703 C 342.656 1.13327 3.30088 0
M  V30 3704 C 344.004 1.21707 4.06783 0
M  V30 3705 O 345.028 1.08566 3.39252 0
M  V30 3706 O 343.887 1.42456 5.27606 0
M  V30 3707 H 340.981 0.181054 0.806938 0
M  V30 3708 H 343.527 1.06007 1.32516 0
M  V30 3709 H 342.299 2.17612 3.25209 0
M  V30 3710 H 341.922 0.600911 3.93033 0
M  V30 3711 N 342.919 -1.39368 0.735821 0
M  V30 3712 C 343.869 -2.27885 0.0724287 0
M  V30 3713 C 344.853 -1.44301 -0.711756 0
M  V30 3714 O 346.045 -1.67206 -0.58063 0
M  V30 3715 C 343.174 -3.33029 -0.833454 0
M  V30 3716 C 342.26 -4.24078 -0.0433749 0
M  V30 3717 N 342.651 -4.96138 0.983903 0
M  V30 3718 C 340.949 -4.45164 -0.272905 0
M  V30 3719 C 341.65 -5.63069 1.4604 0
M  V30 3720 N 340.626 -5.37991 0.778857 0
M  V30 3721 H 344.428 -2.81052 0.859467 0
M  V30 3722 H 341.942 -1.5206 0.570227 0
M  V30 3723 H 343.939 -3.95311 -1.32419 0
M  V30 3724 H 342.599 -2.81421 -1.61964 0
M  V30 3725 H 343.61 -4.9958 1.36528 0
M  V30 3726 H 340.287 -4.04497 -1.03383 0
M  V30 3727 H 341.677 -6.30755 2.31511 0
M  V30 3728 N 344.397 -0.483516 -1.5 0
M  V30 3729 C 345.646 0.0689102 -2.01582 0
M  V30 3730 C 345.959 1.39655 -1.36952 0
M  V30 3731 O 347.165 2.03465 -1.79762 0
M  V30 3732 C 345.621 0.173302 -3.59483 0
M  V30 3733 C 345.229 -1.14665 -4.33077 0
M  V30 3734 C 346.973 0.677024 -4.19066 0
M  V30 3735 C 344.88 -1.00537 -5.82792 0
M  V30 3736 H 343.81 0.0295277 -0.753422 0
M  V30 3737 H 346.461 -0.620295 -1.72698 0
M  V30 3738 H 344.843 0.926569 -3.85007 0
M  V30 3739 H 346.017 -1.91184 -4.19268 0
M  V30 3740 H 344.332 -1.58244 -3.85159 0
M  V30 3741 H 346.929 0.799952 -5.28682 0
M  V30 3742 H 347.272 1.67151 -3.81269 0
M  V30 3743 H 347.805 -0.0192083 -3.97795 0
M  V30 3744 H 344.544 -1.9736 -6.25083 0
M  V30 3745 H 344.064 -0.280776 -5.99142 0
M  V30 3746 H 345.743 -0.677 -6.43448 0
M  V30 3747 N 345.875 1.56104 -0.216619 0
M  V30 3748 C 346.805 2.23063 0.690296 0
M  V30 3749 C 347.786 1.20072 1.20485 0
M  V30 3750 O 348.971 1.48643 1.24976 0
M  V30 3751 C 346.101 2.90672 1.90072 0
M  V30 3752 C 345.055 4.00092 1.5202 0
M  V30 3753 C 344.381 4.54972 2.80899 0
M  V30 3754 C 345.681 5.17398 0.71391 0
M  V30 3755 H 347.375 2.99109 0.132038 0
M  V30 3756 H 344.921 1.43866 0.0620664 0
M  V30 3757 H 346.874 3.36204 2.54057 0
M  V30 3758 H 345.598 2.12066 2.48386 0
M  V30 3759 H 344.257 3.55283 0.903839 0
M  V30 3760 H 343.905 3.73102 3.37348 0
M  V30 3761 H 343.605 5.28817 2.56176 0
M  V30 3762 H 345.129 5.0322 3.45836 0
M  V30 3763 H 346.543 5.59342 1.25735 0
M  V30 3764 H 344.94 5.97444 0.563951 0
M  V30 3765 H 346.01 4.84088 -0.280527 0
M  V30 3766 N 347.353 -0.0568162 1.57498 0
M  V30 3767 C 348.3 -1.06591 2.04712 0
M  V30 3768 C 349.27 -1.3758 0.930644 0
M  V30 3769 O 350.455 -1.48392 1.19935 0
M  V30 3770 C 347.595 -2.3701 2.50839 0
M  V30 3771 C 346.708 -2.12421 3.76167 0
M  V30 3772 C 345.843 -3.36511 4.11015 0
M  V30 3773 C 344.882 -3.07353 5.2934 0
M  V30 3774 N 344.019 -4.23816 5.59754 0
M  V30 3775 H 348.859 -0.65631 2.90683 0
M  V30 3776 H 346.396 -0.312481 1.43743 0
M  V30 3777 H 348.354 -3.13175 2.7564 0
M  V30 3778 H 346.984 -2.75744 1.67825 0
M  V30 3779 H 346.036 -1.2688 3.58616 0
M  V30 3780 H 347.348 -1.86894 4.62463 0
M  V30 3781 H 346.502 -4.21062 4.36797 0
M  V30 3782 H 345.241 -3.65128 3.23315 0
M  V30 3783 H 344.246 -2.212 5.03339 0
M  V30 3784 H 345.471 -2.80043 6.1867 0
M  V30 3785 H 343.417 -4.52436 4.75014 0
M  V30 3786 H 343.334 -4.01614 6.40501 0
M  V30 3787 H 344.602 -5.0932 5.90096 0
M  V30 3788 N 348.832 -1.54138 -0.328536 0
M  V30 3789 C 349.742 -1.86192 -1.42723 0
M  V30 3790 C 350.758 -0.753382 -1.56844 0
M  V30 3791 O 351.934 -1.04718 -1.72035 0
M  V30 3792 C 348.999 -2.07824 -2.77507 0
M  V30 3793 C 348.06 -3.31641 -2.72603 0
M  V30 3794 C 347.293 -3.52232 -4.00959 0
M  V30 3795 O 347.516 -2.7636 -4.9898 0
M  V30 3796 O 346.45 -4.45699 -4.0452 0
M  V30 3797 H 350.276 -2.79608 -1.18547 0
M  V30 3798 H 347.861 -1.3998 -0.522104 0
M  V30 3799 H 349.743 -2.23411 -3.57303 0
M  V30 3800 H 348.418 -1.17596 -3.01584 0
M  V30 3801 H 347.325 -3.21444 -1.91376 0
M  V30 3802 H 348.658 -4.2191 -2.53481 0
M  V30 3803 N 350.31 0.590341 -1.46126 0
M  V30 3804 C 351.24 1.71032 -1.58966 0
M  V30 3805 C 352.221 1.64302 -0.440335 0
M  V30 3806 O 353.406 1.82436 -0.665634 0
M  V30 3807 C 350.536 3.09665 -1.57241 0
M  V30 3808 C 349.49 3.31221 -2.71066 0
M  V30 3809 C 348.816 4.70303 -2.54399 0
M  V30 3810 C 350.116 3.19796 -4.1295 0
M  V30 3811 H 351.81 1.60543 -2.52718 0
M  V30 3812 H 349.356 0.770933 -1.21625 0
M  V30 3813 H 351.309 3.87831 -1.64819 0
M  V30 3814 H 350.033 3.21036 -0.600289 0
M  V30 3815 H 348.692 2.55452 -2.62944 0
M  V30 3816 H 348.34 4.78429 -1.55288 0
M  V30 3817 H 348.04 4.85679 -3.30741 0
M  V30 3818 H 349.564 5.50647 -2.63857 0
M  V30 3819 H 350.978 3.87815 -4.22223 0
M  V30 3820 H 349.375 3.46696 -4.89818 0
M  V30 3821 H 350.445 2.16983 -4.33643 0
M  V30 3822 N 351.788 1.33704 0.83433 0
M  V30 3823 C 353.065 1.16011 1.57483 0
M  V30 3824 C 353.445 -0.27176 2.09343 0
M  V30 3825 O 352.793 -1.27146 1.89858 0
M  V30 3826 C 353.003 2.20507 2.70514 0
M  V30 3827 C 354.351 2.54898 3.39577 0
M  V30 3828 O 355.375 2.19209 2.80759 0
M  V30 3829 O 354.234 3.16158 4.45765 0
M  V30 3830 H 351.328 0.448992 0.694503 0
M  V30 3831 H 353.874 1.453 0.876691 0
M  V30 3832 H 352.646 3.16667 2.29865 0
M  V30 3833 H 352.269 1.92329 3.47987 0
M  V30 3834 N 353.266 -1.05314 1.17247 0
M  V30 3835 C 354.216 -2.11313 0.856196 0
M  V30 3836 C 355.2 -1.60013 -0.168694 0
M  V30 3837 O 356.392 -1.76968 0.0335624 0
M  V30 3838 C 353.521 -3.41301 0.369917 0
M  V30 3839 C 352.607 -3.99401 1.42616 0
M  V30 3840 N 352.998 -4.31481 2.63928 0
M  V30 3841 C 351.296 -4.27126 1.28373 0
M  V30 3842 C 351.997 -4.77799 3.31787 0
M  V30 3843 N 350.973 -4.77843 2.59166 0
M  V30 3844 H 354.775 -2.33976 1.77856 0
M  V30 3845 H 352.289 -1.2295 1.06099 0
M  V30 3846 H 354.286 -4.16713 0.124897 0
M  V30 3847 H 352.946 -3.20072 -0.546253 0
M  V30 3848 H 353.957 -4.21519 3.00902 0
M  V30 3849 H 350.634 -4.15289 0.429111 0
M  V30 3850 H 352.024 -5.11743 4.35395 0
M  V30 3851 N 354.744 -0.972509 -1.24016 0
M  V30 3852 C 355.991 -0.637034 -1.92219 0
M  V30 3853 C 356.319 0.828418 -1.75976 0
M  V30 3854 O 355.574 1.61206 -1.10955 0
M  V30 3855 C 355.873 -0.963694 -3.44162 0
M  V30 3856 C 355.539 -2.41807 -3.80579 0
M  V30 3857 C 354.201 -2.81556 -3.9023 0
M  V30 3858 C 356.553 -3.36172 -3.98293 0
M  V30 3859 C 353.881 -4.14702 -4.15017 0
M  V30 3860 C 356.233 -4.68952 -4.24578 0
M  V30 3861 C 354.897 -5.08472 -4.32449 0
M  V30 3862 H 354.167 -0.233107 -0.703379 0
M  V30 3863 H 356.814 -1.2249 -1.47202 0
M  V30 3864 H 355.119 -0.29365 -3.90698 0
M  V30 3865 H 356.816 -0.682449 -3.9515 0
M  V30 3866 H 353.406 -2.09988 -3.73635 0
M  V30 3867 H 357.59 -3.06644 -3.90234 0
M  V30 3868 H 352.846 -4.4494 -4.19331 0
M  V30 3869 H 357.02 -5.42037 -4.37229 0
M  V30 3870 H 354.647 -6.11665 -4.51409 0
M  V30 3871 N 356.222 1.38976 -0.743202 0
M  V30 3872 C 357.633 1.83123 -0.363732 0
M  V30 3873 C 357.984 1.6205 1.10609 0
M  V30 3874 O 357.109 1.11606 1.854 0
M  V30 3875 C 357.704 3.32439 -0.653408 0
M  V30 3876 C 356.263 3.74974 -0.327338 0
M  V30 3877 C 355.41 2.61878 -0.911875 0
M  V30 3878 H 358.361 1.27852 -0.940191 0
M  V30 3879 H 358.382 3.80432 0.0720031 0
M  V30 3880 H 357.894 3.47745 -1.72323 0
M  V30 3881 H 355.995 3.65252 0.736314 0
M  V30 3882 H 356.108 4.72106 -0.815631 0
M  V30 3883 H 354.472 2.52448 -0.337944 0
M  V30 3884 H 355.255 2.79987 -1.98651 0
M  V30 3885 N 357.7 0.491464 1.49741 0
M  V30 3886 C 358.63 -0.28154 2.31796 0
M  V30 3887 C 359.611 -0.971473 1.3963 0
M  V30 3888 O 360.796 -0.964719 1.68543 0
M  V30 3889 C 357.926 -1.35203 3.19902 0
M  V30 3890 C 356.88 -0.782529 4.20786 0
M  V30 3891 C 356.206 -1.95283 4.97764 0
M  V30 3892 C 357.506 0.21999 5.21837 0
M  V30 3893 H 359.2 0.403355 2.96671 0
M  V30 3894 H 356.746 0.195425 1.42668 0
M  V30 3895 H 358.699 -1.90045 3.76113 0
M  V30 3896 H 357.423 -2.06598 2.52953 0
M  V30 3897 H 356.082 -0.255928 3.65706 0
M  V30 3898 H 355.73 -2.65423 4.2727 0
M  V30 3899 H 355.43 -1.57789 5.66018 0
M  V30 3900 H 356.954 -2.50577 5.56816 0
M  V30 3901 H 358.368 -0.23996 5.72798 0
M  V30 3902 H 356.765 0.51026 5.97927 0
M  V30 3903 H 357.835 1.13911 4.7133 0
M  V30 3904 N 359.178 -1.55987 0.224894 0
M  V30 3905 C 360.088 -2.24066 -0.69511 0
M  V30 3906 C 361.104 -1.24939 -1.21104 0
M  V30 3907 O 362.28 -1.5776 -1.25195 0
M  V30 3908 C 359.345 -2.90983 -1.88493 0
M  V30 3909 C 358.406 -4.05462 -1.41064 0
M  V30 3910 C 357.639 -4.69179 -2.54375 0
M  V30 3911 O 357.862 -4.31895 -3.72589 0
M  V30 3912 O 356.796 -5.58108 -2.25386 0
M  V30 3913 H 360.622 -3.03353 -0.145149 0
M  V30 3914 H 358.207 -1.49399 -0.00569476 0
M  V30 3915 H 360.089 -3.33209 -2.57972 0
M  V30 3916 H 358.764 -2.14653 -2.42293 0
M  V30 3917 H 357.671 -3.67798 -0.683774 0
M  V30 3918 H 359.004 -4.83545 -0.918985 0
M  V30 3919 N 360.656 0.0484629 -1.57525 0
M  V30 3920 C 361.603 1.05504 -2.05275 0
M  V30 3921 C 362.573 1.37084 -0.937927 0
M  V30 3922 O 363.758 1.47754 -1.2072 0
M  V30 3923 C 360.898 2.35676 -2.52093 0
M  V30 3924 C 360.011 2.10423 -3.77288 0
M  V30 3925 C 359.146 3.34327 -4.12794 0
M  V30 3926 C 358.185 3.04542 -5.30962 0
M  V30 3927 N 357.322 4.20841 -5.61994 0
M  V30 3928 H 362.162 0.640885 -2.91027 0
M  V30 3929 H 359.699 0.304854 -1.43906 0
M  V30 3930 H 361.657 3.11709 -2.77297 0
M  V30 3931 H 360.287 2.7485 -1.69285 0
M  V30 3932 H 359.339 1.24976 -3.59284 0
M  V30 3933 H 360.651 1.84438 -4.63448 0
M  V30 3934 H 359.805 4.1874 -4.39024 0
M  V30 3935 H 358.544 3.63408 -3.25247 0
M  V30 3936 H 357.549 2.18528 -5.04505 0
M  V30 3937 H 358.774 2.76758 -6.20146 0
M  V30 3938 H 356.72 4.4991 -4.77406 0
M  V30 3939 H 356.637 3.98212 -6.42622 0
M  V30 3940 H 357.905 5.06184 -5.92789 0
M  V30 3941 N 362.134 1.5431 0.320358 0
M  V30 3942 C 363.55 1.45091 0.664889 0
M  V30 3943 C 363.75 0.626382 1.91517 0
M  V30 3944 O 362.806 0.126443 2.52183 0
M  V30 3945 C 364.119 2.88848 0.83591 0
M  V30 3946 C 365.667 2.9877 0.933046 0
M  V30 3947 C 366.142 4.43683 1.13621 0
M  V30 3948 N 367.633 4.47309 1.20287 0
M  V30 3949 C 368.368 5.56595 1.37801 0
M  V30 3950 N 367.864 6.75844 1.52338 0
M  V30 3951 N 369.657 5.44248 1.40535 0
M  V30 3952 H 361.808 2.06398 -0.501374 0
M  V30 3953 H 364.071 0.933963 -0.162534 0
M  V30 3954 H 363.777 3.51698 -0.0116092 0
M  V30 3955 H 363.651 3.35148 1.73078 0
M  V30 3956 H 366.038 2.36045 1.77107 0
M  V30 3957 H 366.119 2.55796 0.0145782 0
M  V30 3958 H 365.763 5.06995 0.303032 0
M  V30 3959 H 365.693 4.84269 2.0686 0
M  V30 3960 H 368.184 3.61388 1.10485 0
M  V30 3961 H 368.497 7.54892 1.65403 0
M  V30 3962 H 366.842 6.78746 1.4943 0
M  V30 3963 H 370.033 4.50038 1.28777 0
M  V30 3964 H 370.206 6.29473 1.53842 0
M  V30 3965 N 363.613 -0.582584 1.46437 0
M  V30 3966 C 364.838 -1.37168 1.55563 0
M  V30 3967 C 365.263 -1.87061 0.19743 0
M  V30 3968 O 364.621 -1.61572 -0.822451 0
M  V30 3969 C 364.669 -2.53511 2.56446 0
M  V30 3970 O 363.773 -3.54953 2.09958 0
M  V30 3971 H 363.114 -0.408494 0.523477 0
M  V30 3972 H 365.644 -0.706646 1.9201 0
M  V30 3973 H 365.654 -3.00426 2.76058 0
M  V30 3974 H 364.329 -2.16549 3.55076 0
M  V30 3975 H 362.906 -3.14516 2.00334 0
M  V30 3976 N 365.091 -1.34144 -0.827227 0
M  V30 3977 C 366.001 -1.27428 -1.96975 0
M  V30 3978 C 367.017 -0.182728 -1.73038 0
M  V30 3979 O 368.193 -0.408426 -1.97215 0
M  V30 3980 C 365.258 -1.02526 -3.31194 0
M  V30 3981 C 364.319 -2.20796 -3.68168 0
M  V30 3982 C 363.552 -1.97073 -4.95982 0
M  V30 3983 O 363.775 -0.926822 -5.6282 0
M  V30 3984 O 362.709 -2.83912 -5.30733 0
M  V30 3985 H 366.535 -2.23537 -2.05584 0
M  V30 3986 H 364.12 -1.14307 -0.961989 0
M  V30 3987 H 366.002 -0.904026 -4.11589 0
M  V30 3988 H 364.677 -0.0945389 -3.23562 0
M  V30 3989 H 363.584 -2.38477 -2.88235 0
M  V30 3990 H 364.917 -3.12243 -3.8048 0
M  V30 3991 N 366.569 1.04691 -1.17803 0
M  V30 3992 C 367.815 1.78045 -0.970969 0
M  V30 3993 C 368.148 1.87686 0.498751 0
M  V30 3994 O 367.423 1.38035 1.37027 0
M  V30 3995 C 367.706 3.2166 -1.61884 0
M  V30 3996 C 367.559 3.20001 -3.161 0
M  V30 3997 C 368.878 4.1962 -1.3269 0
M  V30 3998 H 365.997 0.64633 -0.354155 0
M  V30 3999 H 368.639 1.22333 -1.45378 0
M  V30 4000 H 366.789 3.69232 -1.20831 0
M  V30 4001 H 368.461 2.80467 -3.66246 0
M  V30 4002 H 366.704 2.58203 -3.48588 0
M  V30 4003 H 367.375 4.21386 -3.56564 0
M  V30 4004 H 369.851 3.80567 -1.68249 0
M  V30 4005 H 368.727 5.18339 -1.80599 0
M  V30 4006 H 368.988 4.414 -0.248622 0
M  V30 4007 N 368.047 0.979072 1.23499 0
M  V30 4008 C 369.293 0.648178 1.92163 0
M  V30 4009 C 369.626 -0.816049 1.76222 0
M  V30 4010 O 368.901 -1.58849 1.12237 0
M  V30 4011 C 369.184 1.03773 3.44824 0
M  V30 4012 C 369.037 2.55948 3.69879 0
M  V30 4013 C 370.356 0.580653 4.36253 0
M  V30 4014 H 367.475 0.236952 0.69787 0
M  V30 4015 H 370.117 1.22012 1.45647 0
M  V30 4016 H 368.267 0.551058 3.84572 0
M  V30 4017 H 369.939 3.12179 3.3962 0
M  V30 4018 H 368.182 2.98641 3.14636 0
M  V30 4019 H 368.853 2.78255 4.76737 0
M  V30 4020 H 371.329 0.998465 4.03943 0
M  V30 4021 H 370.205 0.881663 5.41773 0
M  V30 4022 H 370.466 -0.519052 4.39042 0
M  V30 4023 N 369.525 -1.3858 0.750561 0
M  V30 4024 C 370.774 -1.99424 0.302172 0
M  V30 4025 C 371.087 -1.60254 -1.12152 0
M  V30 4026 O 372.293 -2.14046 -1.67023 0
M  V30 4027 C 370.749 -3.56558 0.489307 0
M  V30 4028 C 370.357 -4.04682 1.92189 0
M  V30 4029 C 372.101 -4.24374 0.103478 0
M  V30 4030 C 370.008 -5.54446 2.05775 0
M  V30 4031 H 368.938 -0.746046 0.10923 0
M  V30 4032 H 371.589 -1.58383 0.92667 0
M  V30 4033 H 369.971 -3.95472 -0.204329 0
M  V30 4034 H 371.145 -3.77065 2.64875 0
M  V30 4035 H 369.46 -3.4958 2.26236 0
M  V30 4036 H 372.057 -5.34384 0.183787 0
M  V30 4037 H 372.4 -4.05468 -0.943481 0
M  V30 4038 H 372.933 -3.90688 0.748854 0
M  V30 4039 H 369.672 -5.78252 3.08714 0
M  V30 4040 H 369.192 -5.83816 1.37546 0
M  V30 4041 H 370.871 -6.20099 1.84626 0
M  V30 4042 N 371.003 -0.499398 -1.49478 0
M  V30 4043 C 371.933 0.269244 -2.31943 0
M  V30 4044 C 372.914 0.964054 -1.40143 0
M  V30 4045 O 374.099 0.955767 -1.69052 0
M  V30 4046 C 371.229 1.33504 -3.20615 0
M  V30 4047 C 370.183 0.760202 -4.21195 0
M  V30 4048 C 369.509 1.9264 -4.98792 0
M  V30 4049 C 370.809 -0.247661 -5.21712 0
M  V30 4050 H 372.503 -0.419082 -2.96452 0
M  V30 4051 H 370.049 -0.202988 -1.42562 0
M  V30 4052 H 372.002 1.88048 -3.77115 0
M  V30 4053 H 370.726 2.05253 -2.54045 0
M  V30 4054 H 369.385 0.23653 -3.65836 0
M  V30 4055 H 369.033 2.63154 -4.28671 0
M  V30 4056 H 368.733 1.54785 -5.66847 0
M  V30 4057 H 370.257 2.4762 -5.58137 0
M  V30 4058 H 371.671 0.209579 -5.72917 0
M  V30 4059 H 370.068 -0.541962 -5.97648 0
M  V30 4060 H 371.138 -1.16409 -4.7072 0
M  V30 4061 N 372.481 1.55866 -0.233164 0
M  V30 4062 C 373.728 1.98603 0.395374 0
M  V30 4063 C 374.056 1.12105 1.58942 0
M  V30 4064 O 373.311 0.168656 1.94972 0
M  V30 4065 C 373.61 3.46856 0.861724 0
M  V30 4066 C 373.276 4.50348 -0.223066 0
M  V30 4067 C 371.938 4.78371 -0.521038 0
M  V30 4068 C 374.29 5.12355 -0.956124 0
M  V30 4069 C 371.618 5.6568 -1.55638 0
M  V30 4070 C 373.97 6.00786 -1.98089 0
M  V30 4071 C 372.634 6.27148 -2.28565 0
M  V30 4072 H 371.904 0.726739 0.144677 0
M  V30 4073 H 374.551 1.88491 -0.338114 0
M  V30 4074 H 372.856 3.5423 1.67418 0
M  V30 4075 H 374.553 3.77302 1.35809 0
M  V30 4076 H 371.143 4.28596 0.0193234 0
M  V30 4077 H 375.327 4.90765 -0.739166 0
M  V30 4078 H 370.583 5.84365 -1.798 0
M  V30 4079 H 374.757 6.4788 -2.55391 0
M  V30 4080 H 372.384 6.94597 -3.08932 0
M  V30 4081 N 373.959 -0.0401083 1.57549 0
M  V30 4082 C 375.184 -0.748931 1.93406 0
M  V30 4083 C 375.609 -1.68686 0.832274 0
M  V30 4084 O 374.967 -1.80047 -0.212818 0
M  V30 4085 C 375.015 -1.4916 3.28304 0
M  V30 4086 O 374.119 -2.6042 3.19774 0
M  V30 4087 H 373.46 -0.202212 0.63246 0
M  V30 4088 H 375.99 0.00112086 2.046 0
M  V30 4089 H 376 -1.86395 3.62934 0
M  V30 4090 H 374.675 -0.80364 4.08062 0
M  V30 4091 H 373.252 -2.25808 2.96758 0
M  V30 4092 N 375.437 -1.54477 -0.31217 0
M  V30 4093 C 376.4 -1.83923 -1.36766 0
M  V30 4094 C 377.4 -0.711563 -1.44199 0
M  V30 4095 O 378.59 -0.979866 -1.44029 0
M  V30 4096 C 375.722 -2.0095 -2.75376 0
M  V30 4097 H 376.915 -2.78239 -1.11906 0
M  V30 4098 H 374.468 -1.46369 -0.548257 0
M  V30 4099 H 375.203 -1.08883 -3.05475 0
M  V30 4100 H 374.988 -2.83018 -2.71373 0
M  V30 4101 H 376.478 -2.2514 -3.51713 0
M  V30 4102 N 376.915 0.57481 -1.46744 0
M  V30 4103 C 377.865 1.67838 -1.54319 0
M  V30 4104 C 378.849 1.55759 -0.40346 0
M  V30 4105 O 380.041 1.6454 -0.652347 0
M  V30 4106 C 377.17 3.06624 -1.5439 0
M  V30 4107 C 376.256 3.23971 -2.73685 0
M  V30 4108 N 376.647 3.11447 -3.9854 0
M  V30 4109 C 374.945 3.5493 -2.70075 0
M  V30 4110 C 375.646 3.31011 -4.78337 0
M  V30 4111 N 374.622 3.56533 -4.10348 0
M  V30 4112 H 378.424 1.56698 -2.48642 0
M  V30 4113 H 375.938 0.779071 -1.42493 0
M  V30 4114 H 377.935 3.85839 -1.57905 0
M  V30 4115 H 376.595 3.1889 -0.611493 0
M  V30 4116 H 377.606 2.89145 -4.29669 0
M  V30 4117 H 374.283 3.73832 -1.85893 0
M  V30 4118 H 375.673 3.26445 -5.87268 0
M  V30 4119 N 378.394 1.34581 0.820102 0
M  V30 4120 C 379.619 1.30333 1.61332 0
M  V30 4121 C 380.044 -0.119339 1.87721 0
M  V30 4122 O 379.402 -1.08197 1.45475 0
M  V30 4123 C 379.45 2.10258 2.92957 0
M  V30 4124 O 378.554 1.47404 3.85157 0
M  V30 4125 H 377.895 0.447488 0.490561 0
M  V30 4126 H 380.425 1.77425 1.01889 0
M  V30 4127 H 380.435 2.21718 3.42498 0
M  V30 4128 H 379.11 3.13693 2.73074 0
M  V30 4129 H 377.687 1.44703 3.43679 0
M  V30 4130 N 379.872 -1.04064 1.18357 0
M  V30 4131 C 380.802 -2.14001 0.934113 0
M  V30 4132 C 381.783 -1.69616 -0.128186 0
M  V30 4133 O 382.968 -1.94185 0.0244093 0
M  V30 4134 C 380.098 -3.44253 0.459066 0
M  V30 4135 C 379.052 -4.02261 1.46185 0
M  V30 4136 C 378.378 -5.27992 0.844322 0
M  V30 4137 C 379.678 -4.38432 2.83856 0
M  V30 4138 H 381.372 -2.35127 1.85352 0
M  V30 4139 H 378.918 -1.12998 0.892604 0
M  V30 4140 H 380.871 -4.20522 0.271907 0
M  V30 4141 H 379.595 -3.22813 -0.495912 0
M  V30 4142 H 378.254 -3.28074 1.63595 0
M  V30 4143 H 377.902 -5.02862 -0.117845 0
M  V30 4144 H 377.602 -5.67765 1.51384 0
M  V30 4145 H 379.126 -6.06938 0.667693 0
M  V30 4146 H 380.54 -5.05688 2.70098 0
M  V30 4147 H 378.937 -4.89254 3.47491 0
M  V30 4148 H 380.007 -3.4826 3.37406 0
M  V30 4149 N 381.35 -0.985608 -1.22978 0
M  V30 4150 C 382.761 -0.693593 -1.73338 0
M  V30 4151 C 383.112 0.789935 -1.79595 0
M  V30 4152 O 382.237 1.61771 -1.43733 0
M  V30 4153 C 382.832 -1.25235 -3.14804 0
M  V30 4154 C 381.391 -1.00987 -3.626 0
M  V30 4155 C 380.538 -1.37695 -2.40698 0
M  V30 4156 H 383.489 -1.15884 -1.08428 0
M  V30 4157 H 383.51 -0.627329 -3.75293 0
M  V30 4158 H 383.022 -2.33209 -3.10218 0
M  V30 4159 H 381.123 0.0535565 -3.72562 0
M  V30 4160 H 381.236 -1.66812 -4.49122 0
M  V30 4161 H 379.6 -0.795459 -2.4196 0
M  V30 4162 H 380.383 -2.46657 -2.38779 0
M  V30 4163 N 382.828 1.3818 -0.7579 0
M  V30 4164 C 383.761 2.28055 -0.0814093 0
M  V30 4165 C 384.739 1.45603 0.723779 0
M  V30 4166 O 385.923 1.74961 0.701491 0
M  V30 4167 C 383.05 3.2676 0.891394 0
M  V30 4168 C 382.096 4.26153 0.171909 0
M  V30 4169 S 382.929 5.23434 -1.13035 0
M  V30 4170 C 384.085 6.25694 -0.160727 0
M  V30 4171 H 384.318 2.85082 -0.84353 0
M  V30 4172 H 381.851 1.44246 -0.550671 0
M  V30 4173 H 383.809 3.8414 1.44731 0
M  V30 4174 H 382.47 2.68706 1.62652 0
M  V30 4175 H 381.663 4.95738 0.908843 0
M  V30 4176 H 381.265 3.72691 -0.312606 0
M  V30 4177 H 383.557 6.74161 0.671773 0
M  V30 4178 H 384.5 7.03285 -0.824353 0
M  V30 4179 H 384.908 5.64064 0.221892 0
M  V30 4180 N 384.306 0.507319 1.49211 0
M  V30 4181 C 385.531 -0.033725 2.07373 0
M  V30 4182 C 385.956 -1.29485 1.36437 0
M  V30 4183 O 385.314 -1.76294 0.423087 0
M  V30 4184 C 385.362 -0.263945 3.59633 0
M  V30 4185 O 384.466 -1.33737 3.90113 0
M  V30 4186 H 383.807 0.0290331 0.663365 0
M  V30 4187 H 386.337 0.708749 1.91932 0
M  V30 4188 H 386.347 -0.493536 4.05004 0
M  V30 4189 H 385.022 0.657424 4.10671 0
M  V30 4190 H 383.599 -1.09224 3.56545 0
M  V30 4191 N 385.784 -1.5574 0.241426 0
M  V30 4192 C 387.03 -1.99104 -0.385406 0
M  V30 4193 C 387.363 -1.1293 -1.57988 0
M  V30 4194 O 386.638 -0.191449 -1.93555 0
M  V30 4195 C 386.921 -3.51087 -0.800616 0
M  V30 4196 C 386.774 -4.48028 0.398874 0
M  V30 4197 C 388.093 -4.08015 -1.64959 0
M  V30 4198 H 385.212 -0.723848 -0.138614 0
M  V30 4199 H 387.854 -1.86903 0.341642 0
M  V30 4200 H 386.004 -3.61615 -1.4201 0
M  V30 4201 H 387.676 -4.49487 1.03726 0
M  V30 4202 H 385.919 -4.21077 1.04293 0
M  V30 4203 H 386.59 -5.51962 0.0651056 0
M  V30 4204 H 389.066 -4.00555 -1.12672 0
M  V30 4205 H 387.942 -5.14635 -1.90898 0
M  V30 4206 H 388.203 -3.56131 -2.61961 0
M  V30 4207 N 387.262 0.0317525 -1.57568 0
M  V30 4208 C 388.508 0.724175 -1.8943 0
M  V30 4209 C 388.841 1.75149 -0.838836 0
M  V30 4210 O 388.116 1.93948 0.146422 0
M  V30 4211 C 388.399 1.39615 -3.31933 0
M  V30 4212 C 388.252 0.382537 -4.4817 0
M  V30 4213 C 389.571 2.33084 -3.73309 0
M  V30 4214 H 386.69 0.261797 -0.688935 0
M  V30 4215 H 389.332 -0.013017 -1.89996 0
M  V30 4216 H 387.482 2.02451 -3.31581 0
M  V30 4217 H 389.154 -0.243689 -4.60656 0
M  V30 4218 H 387.397 -0.29844 -4.32772 0
M  V30 4219 H 388.068 0.891145 -5.44759 0
M  V30 4220 H 390.544 1.80295 -3.7501 0
M  V30 4221 H 389.42 2.77084 -4.73831 0
M  V30 4222 H 389.681 3.19643 -3.05419 0
M  V30 4223 N 388.74 1.54641 0.303973 0
M  V30 4224 C 389.688 1.86137 1.39484 0
M  V30 4225 C 390.682 0.734854 1.52631 0
M  V30 4226 O 391.888 0.918803 1.54784 0
M  V30 4227 H 388.263 0.590324 0.465856 0
M  V30 4228 H 390.234 2.77324 1.10154 0
M  V30 4229 C 388.983 2.12274 2.75382 0
M  V30 4230 H 388.306 2.98429 2.66046 0
M  V30 4231 H 389.746 2.38254 3.5073 0
M  V30 4232 C 388.205 0.920365 3.24085 0
M  V30 4233 O 388.735 0.139377 4.01458 0
M  V30 4234 N 386.941 0.726566 2.81371 0
M  V30 4235 H 386.488 1.36332 2.18567 0
M  V30 4236 H 386.446 -0.0763799 3.14307 0
M  V30 4237 N 390.218 -0.567019 1.47046 0
M  V30 4238 C 391.634 -0.891975 1.32348 0
M  V30 4239 C 391.834 -1.99154 0.306616 0
M  V30 4240 O 390.89 -2.50883 -0.28532 0
M  V30 4241 C 392.203 -1.29449 2.7141 0
M  V30 4242 C 393.751 -1.40646 2.79621 0
M  V30 4243 C 394.226 -1.84257 4.19301 0
M  V30 4244 N 395.717 -1.91424 4.21795 0
M  V30 4245 C 396.452 -2.26476 5.26779 0
M  V30 4246 N 395.948 -2.60211 6.42077 0
M  V30 4247 N 397.741 -2.27166 5.14152 0
M  V30 4248 H 389.892 0.159074 2.11803 0
M  V30 4249 H 392.155 0.00849752 0.947962 0
M  V30 4250 H 391.861 -0.560448 3.47206 0
M  V30 4251 H 391.735 -2.25273 3.02542 0
M  V30 4252 H 394.122 -2.13133 2.04104 0
M  V30 4253 H 394.203 -0.430339 2.52154 0
M  V30 4254 H 393.847 -1.12343 4.95319 0
M  V30 4255 H 393.777 -2.82855 4.44185 0
M  V30 4256 H 396.268 -1.6778 3.38612 0
M  V30 4257 H 396.581 -2.85956 7.17948 0
M  V30 4258 H 394.926 -2.57813 6.45413 0
M  V30 4259 H 398.117 -2.00244 4.23107 0
M  V30 4260 H 398.29 -2.54154 5.96079 0
M  V30 4261 N 391.696 -1.35014 -0.812953 0
M  V30 4262 C 392.944 -1.27678 -1.56661 0
M  V30 4263 C 393.265 0.150359 -1.94419 0
M  V30 4264 O 392.535 1.08532 -1.63088 0
M  V30 4265 H 391.115 -0.469602 -0.580933 0
M  V30 4266 H 393.777 -1.69043 -0.970076 0
M  V30 4267 H 392.873 -1.88833 -2.48492 0
M  V30 4268 N 393.175 1.03435 -1.18907 0
M  V30 4269 C 394.452 1.73778 -0.89781 0
M  V30 4270 C 394.832 2.02458 0.597832 0
M  V30 4271 O 394.18 1.67482 1.55441 0
M  V30 4272 C 394.39 3.01845 -1.75187 0
M  V30 4273 C 395.738 3.7546 -1.9828 0
M  V30 4274 O 396.762 3.11759 -1.72293 0
M  V30 4275 O 395.621 4.89966 -2.42065 0
M  V30 4276 H 392.715 0.75651 -0.334098 0
M  V30 4277 H 395.261 1.09444 -1.29693 0
M  V30 4278 H 394.033 2.76836 -2.76545 0
M  V30 4279 H 393.656 3.73919 -1.35167 0
M  V30 4280 N 394.653 0.992116 1.22453 0
M  V30 4281 C 396.064 0.702776 1.72968 0
M  V30 4282 C 396.415 -0.780399 1.80012 0
M  V30 4283 O 395.54 -1.61007 1.44589 0
M  V30 4284 C 396.135 1.26903 3.14135 0
M  V30 4285 C 394.694 1.02909 3.62059 0
M  V30 4286 C 393.841 1.38969 2.39964 0
M  V30 4287 H 396.792 1.16457 1.07812 0
M  V30 4288 H 396.813 0.647223 3.74955 0
M  V30 4289 H 396.325 2.34851 3.08977 0
M  V30 4290 H 394.426 -0.0337979 3.72585 0
M  V30 4291 H 394.539 1.69191 4.48231 0
M  V30 4292 H 392.903 0.808279 2.41535 0
M  V30 4293 H 393.686 2.4792 2.37467 0
M  V30 4294 N 396.131 -1.37776 0.765217 0
M  V30 4295 C 397.361 -2.03828 0.337277 0
M  V30 4296 C 397.769 -1.57841 -1.04321 0
M  V30 4297 O 397.112 -0.752043 -1.67601 0
M  V30 4298 C 397.174 -3.58292 0.294407 0
M  V30 4299 C 396.838 -4.27384 1.61838 0
M  V30 4300 C 397.835 -4.51956 2.56967 0
M  V30 4301 C 395.52 -4.65345 1.89102 0
M  V30 4302 C 397.514 -5.13536 3.77571 0
M  V30 4303 C 395.201 -5.26647 3.09978 0
M  V30 4304 C 396.199 -5.50679 4.04032 0
M  V30 4305 O 395.887 -6.10702 5.2278 0
M  V30 4306 H 395.619 -0.661292 0.140248 0
M  V30 4307 H 398.173 -1.77222 1.03834 0
M  V30 4308 H 396.403 -3.83918 -0.462983 0
M  V30 4309 H 398.092 -4.05763 -0.105581 0
M  V30 4310 H 398.858 -4.23048 2.37183 0
M  V30 4311 H 394.737 -4.45978 1.16725 0
M  V30 4312 H 398.281 -5.3221 4.50997 0
M  V30 4313 H 394.178 -5.54979 3.29649 0
M  V30 4314 H 394.946 -6.29183 5.23517 0
M  V30 4315 N 397.609 -0.515225 -1.4894 0
M  V30 4316 C 399.02 -0.0710067 -1.86565 0
M  V30 4317 C 399.371 1.34733 -1.42623 0
M  V30 4318 O 398.496 2.00653 -0.810379 0
M  V30 4319 C 399.091 -0.122083 -3.3858 0
M  V30 4320 C 397.65 0.266863 -3.75453 0
M  V30 4321 C 396.797 -0.488376 -2.72966 0
M  V30 4322 H 399.748 -0.727266 -1.41055 0
M  V30 4323 H 399.769 0.669818 -3.74558 0
M  V30 4324 H 399.281 -1.15448 -3.70531 0
M  V30 4325 H 397.382 1.30196 -3.49113 0
M  V30 4326 H 397.495 -0.0624811 -4.79059 0
M  V30 4327 H 395.859 0.0635622 -2.54621 0
M  V30 4328 H 396.642 -1.52113 -3.07761 0
M  V30 4329 N 399.087 1.5561 -0.249682 0
M  V30 4330 C 400.019 2.18834 0.681496 0
M  V30 4331 C 401.032 1.16546 1.1367 0
M  V30 4332 O 402.221 1.43397 1.06299 0
M  V30 4333 C 399.321 2.77992 1.9384 0
M  V30 4334 C 398.494 4.05725 1.63419 0
M  V30 4335 C 397.553 4.49174 2.74096 0
M  V30 4336 O 396.579 5.15492 2.41364 0
M  V30 4337 N 397.781 4.17191 4.03649 0
M  V30 4338 H 400.546 2.9937 0.140514 0
M  V30 4339 H 398.107 1.6175 -0.0697541 0
M  V30 4340 H 400.099 3.04015 2.67127 0
M  V30 4341 H 398.669 2.01596 2.38909 0
M  V30 4342 H 397.889 3.87261 0.736358 0
M  V30 4343 H 399.177 4.88999 1.40562 0
M  V30 4344 H 398.575 3.63955 4.33074 0
M  V30 4345 H 397.132 4.48043 4.73393 0
M  V30 4346 N 400.565 -0.0233959 1.57583 0
M  V30 4347 C 401.475 -1.03907 2.10334 0
M  V30 4348 C 402.491 -1.39257 1.04323 0
M  V30 4349 O 403.667 -1.48462 1.36091 0
M  V30 4350 C 400.732 -2.31938 2.57693 0
M  V30 4351 C 399.793 -2.03117 3.78209 0
M  V30 4352 C 399.026 -3.25043 4.233 0
M  V30 4353 O 399.249 -4.35916 3.67876 0
M  V30 4354 O 398.183 -3.10411 5.15683 0
M  V30 4355 H 402.009 -0.620748 2.97288 0
M  V30 4356 H 399.594 -0.240743 1.47448 0
M  V30 4357 H 401.476 -3.07196 2.88458 0
M  V30 4358 H 400.151 -2.73055 1.73847 0
M  V30 4359 H 399.058 -1.25408 3.52454 0
M  V30 4360 H 400.391 -1.66852 4.63056 0
M  V30 4361 N 402.043 -1.548 -0.295768 0
M  V30 4362 C 403.289 -1.74588 -1.03184 0
M  V30 4363 C 403.622 -0.532962 -1.86744 0
M  V30 4364 O 402.897 0.469872 -1.88739 0
M  V30 4365 C 403.18 -3.03791 -1.93347 0
M  V30 4366 C 403.033 -4.35392 -1.12933 0
M  V30 4367 C 404.352 -3.28892 -2.92435 0
M  V30 4368 H 401.471 -0.635221 -0.373715 0
M  V30 4369 H 404.113 -1.87519 -0.30606 0
M  V30 4370 H 402.263 -2.92898 -2.55232 0
M  V30 4371 H 403.935 -4.58211 -0.532943 0
M  V30 4372 H 402.178 -4.31642 -0.432168 0
M  V30 4373 H 402.849 -5.22074 -1.79284 0
M  V30 4374 H 405.325 -3.39429 -2.4068 0
M  V30 4375 H 404.201 -4.20603 -3.52682 0
M  V30 4376 H 404.462 -2.47437 -3.6637 0
M  V30 4377 N 403.521 0.559213 -1.47345 0
M  V30 4378 C 404.746 1.34676 -1.57725 0
M  V30 4379 C 405.171 1.86723 -0.227164 0
M  V30 4380 O 404.529 1.6286 0.796642 0
M  V30 4381 C 404.577 2.49399 -2.60447 0
M  V30 4382 O 403.681 3.51567 -2.15578 0
M  V30 4383 H 403.022 0.400115 -0.52991 0
M  V30 4384 H 405.552 0.676009 -1.93109 0
M  V30 4385 H 405.562 2.95996 -2.80803 0
M  V30 4386 H 404.237 2.10873 -3.58477 0
M  V30 4387 H 402.814 3.11289 -2.05313 0
M  V30 4388 N 404.999 1.35443 0.805782 0
M  V30 4389 C 405.962 1.28301 1.89925 0
M  V30 4390 C 406.962 0.194285 1.59622 0
M  V30 4391 O 408.152 0.448036 1.6834 0
M  V30 4392 C 405.284 0.984997 3.2636 0
M  V30 4393 H 406.477 2.2553 1.97677 0
M  V30 4394 H 404.03 1.19979 1.00173 0
M  V30 4395 H 404.765 0.016603 3.24296 0
M  V30 4396 H 404.55 1.77269 3.4974 0
M  V30 4397 H 406.04 0.960651 4.064 0
M  V30 4398 N 406.477 -1.02803 1.19454 0
M  V30 4399 C 407.705 -1.79841 1.02297 0
M  V30 4400 C 408.12 -1.83879 -0.428259 0
M  V30 4401 O 407.477 -1.28345 -1.29745 0
M  V30 4402 C 407.528 -3.24852 1.58598 0
M  V30 4403 O 407.249 -3.21097 2.98041 0
M  V30 4404 C 408.75 -4.18485 1.46236 0
M  V30 4405 H 405.97 -0.565936 0.360496 0
M  V30 4406 H 408.514 -1.2948 1.58288 0
M  V30 4407 H 406.669 -3.72401 1.06753 0
M  V30 4408 H 407.083 -4.12033 3.24545 0
M  V30 4409 H 408.557 -5.18121 1.90407 0
M  V30 4410 H 409.034 -4.37254 0.41301 0
M  V30 4411 H 409.64 -3.76811 1.97215 0
M  V30 4412 N 407.956 -0.998596 -1.21925 0
M  V30 4413 C 409.202 -0.678667 -1.91107 0
M  V30 4414 C 409.535 0.78791 -1.77498 0
M  V30 4415 O 408.81 1.57043 -1.1475 0
M  V30 4416 C 409.093 -1.09245 -3.43129 0
M  V30 4417 C 408.946 -2.61801 -3.6576 0
M  V30 4418 C 410.265 -0.649984 -4.35274 0
M  V30 4419 H 407.384 -0.248025 -0.694012 0
M  V30 4420 H 410.026 -1.24314 -1.43688 0
M  V30 4421 H 408.176 -0.612171 -3.83647 0
M  V30 4422 H 409.848 -3.17543 -3.34611 0
M  V30 4423 H 408.091 -3.03609 -3.09845 0
M  V30 4424 H 408.762 -2.85804 -4.7225 0
M  V30 4425 H 411.238 -1.0626 -4.02303 0
M  V30 4426 H 410.114 -0.967743 -5.40302 0
M  V30 4427 H 410.375 0.449139 -4.39813 0
M  V30 4428 N 409.434 1.37368 -0.772513 0
M  V30 4429 C 410.366 2.28899 -0.117502 0
M  V30 4430 C 411.379 1.4867 0.663405 0
M  V30 4431 O 412.568 1.71314 0.501372 0
M  V30 4432 C 409.668 3.2788 0.857192 0
M  V30 4433 C 408.841 4.37207 0.129938 0
M  V30 4434 C 407.9 5.16257 1.01811 0
M  V30 4435 O 406.926 5.67159 0.481601 0
M  V30 4436 N 408.128 5.31058 2.3443 0
M  V30 4437 H 410.893 2.85752 -0.903662 0
M  V30 4438 H 408.454 1.49353 -0.62493 0
M  V30 4439 H 410.446 3.77647 1.45482 0
M  V30 4440 H 409.016 2.7179 1.54432 0
M  V30 4441 H 408.236 3.88827 -0.648605 0
M  V30 4442 H 409.524 5.07434 -0.372559 0
M  V30 4443 H 408.922 4.91287 2.80452 0
M  V30 4444 H 407.479 5.84131 2.89197 0
M  V30 4445 N 410.912 0.523116 1.48665 0
M  V30 4446 C 411.859 -0.243398 2.29513 0
M  V30 4447 C 412.829 -0.940139 1.36933 0
M  V30 4448 O 414.014 -0.942503 1.65896 0
M  V30 4449 C 411.154 -1.28855 3.20141 0
M  V30 4450 C 410.267 -0.60135 4.27794 0
M  V30 4451 C 409.402 -1.62884 5.05611 0
M  V30 4452 C 408.441 -0.924726 6.05075 0
M  V30 4453 N 407.578 -1.89744 6.75975 0
M  V30 4454 H 412.418 0.452234 2.94549 0
M  V30 4455 H 409.955 0.234858 1.45213 0
M  V30 4456 H 411.913 -1.90674 3.71079 0
M  V30 4457 H 410.543 -1.95266 2.57043 0
M  V30 4458 H 409.595 0.130623 3.80176 0
M  V30 4459 H 410.907 -0.0481585 4.98777 0
M  V30 4460 H 410.061 -2.32149 5.60528 0
M  V30 4461 H 408.8 -2.21592 4.34452 0
M  V30 4462 H 407.805 -0.217966 5.49368 0
M  V30 4463 H 409.03 -0.343851 6.78229 0
M  V30 4464 H 406.976 -2.47373 6.07571 0
M  V30 4465 H 406.893 -1.3955 7.43009 0
M  V30 4466 H 408.161 -2.58229 7.35485 0
M  V30 4467 N 412.39 -1.55475 0.257931 0
M  V30 4468 C 413.636 -1.99502 -0.364266 0
M  V30 4469 C 413.969 -1.146 -1.56782 0
M  V30 4470 O 413.244 -0.211968 -1.93342 0
M  V30 4471 C 413.527 -3.51917 -0.763333 0
M  V30 4472 C 413.38 -4.4758 0.446371 0
M  V30 4473 C 414.699 -4.09742 -1.60623 0
M  V30 4474 H 411.818 -0.725277 -0.130929 0
M  V30 4475 H 414.46 -1.8653 0.361446 0
M  V30 4476 H 412.61 -3.63101 -1.38166 0
M  V30 4477 H 414.282 -4.48362 1.08487 0
M  V30 4478 H 412.525 -4.19947 1.08753 0
M  V30 4479 H 413.196 -5.51862 0.123645 0
M  V30 4480 H 415.672 -4.01727 -1.08418 0
M  V30 4481 H 414.548 -5.16631 -1.85429 0
M  V30 4482 H 414.809 -3.58889 -2.58169 0
M  V30 4483 N 413.868 0.0150385 -1.57593 0
M  V30 4484 C 414.801 1.04475 -2.0288 0
M  V30 4485 C 415.779 1.3436 -0.915764 0
M  V30 4486 O 416.963 1.46779 -1.18271 0
M  V30 4487 C 414.09 2.37608 -2.41371 0
M  V30 4488 C 413.136 2.23487 -3.63257 0
M  V30 4489 S 413.969 1.57505 -5.11813 0
M  V30 4490 C 415.125 2.921 -5.5356 0
M  V30 4491 H 415.358 0.65907 -2.89903 0
M  V30 4492 H 412.891 0.225452 -1.52745 0
M  V30 4493 H 414.849 3.14165 -2.64217 0
M  V30 4494 H 413.51 2.7332 -1.54775 0
M  V30 4495 H 412.703 3.21802 -3.87891 0
M  V30 4496 H 412.305 1.55074 -3.40335 0
M  V30 4497 H 414.597 3.88419 -5.55101 0
M  V30 4498 H 415.54 2.72184 -6.53698 0
M  V30 4499 H 415.948 2.95318 -4.8109 0
M  V30 4500 N 415.346 1.54954 0.287554 0
M  V30 4501 C 416.256 1.8991 1.37736 0
M  V30 4502 C 417.272 0.794701 1.54792 0
M  V30 4503 O 418.448 1.09243 1.69198 0
M  V30 4504 C 415.513 2.15108 2.71899 0
M  V30 4505 C 414.574 3.38752 2.63715 0
M  V30 4506 C 413.807 3.62739 3.91479 0
M  V30 4507 O 414.03 2.89492 4.91478 0
M  V30 4508 O 412.964 4.56267 3.92561 0
M  V30 4509 H 416.79 2.82652 1.11092 0
M  V30 4510 H 414.375 1.41315 0.484807 0
M  V30 4511 H 416.257 2.32806 3.51254 0
M  V30 4512 H 414.932 1.25551 2.9836 0
M  V30 4513 H 413.839 3.26405 1.82786 0
M  V30 4514 H 415.172 4.28483 2.42205 0
M  V30 4515 N 416.824 -0.551391 1.4764 0
M  V30 4516 C 418.24 -0.877887 1.33287 0
M  V30 4517 C 418.44 -1.98817 0.327721 0
M  V30 4518 O 417.496 -2.51171 -0.258695 0
M  V30 4519 C 418.809 -1.26563 2.72768 0
M  V30 4520 C 420.357 -1.37673 2.81097 0
M  V30 4521 C 420.832 -1.79799 4.21232 0
M  V30 4522 N 422.323 -1.8694 4.23802 0
M  V30 4523 C 423.058 -2.20876 5.29151 0
M  V30 4524 N 422.554 -2.53386 6.448 0
M  V30 4525 N 424.347 -2.217 5.16532 0
M  V30 4526 H 416.498 0.18153 2.11623 0
M  V30 4527 H 418.761 0.0185514 0.947818 0
M  V30 4528 H 418.467 -0.523591 3.47781 0
M  V30 4529 H 418.341 -2.22052 3.04915 0
M  V30 4530 H 420.728 -2.10956 2.06353 0
M  V30 4531 H 420.809 -0.40357 2.52596 0
M  V30 4532 H 420.453 -1.07083 4.96483 0
M  V30 4533 H 420.383 -2.78128 4.4716 0
M  V30 4534 H 422.874 -1.64179 3.40373 0
M  V30 4535 H 423.187 -2.78325 7.20941 0
M  V30 4536 H 421.532 -2.50953 6.48111 0
M  V30 4537 H 424.723 -1.95745 4.25207 0
M  V30 4538 H 424.896 -2.47818 5.98741 0
M  V30 4539 N 418.302 -1.35869 -0.798587 0
M  V30 4540 C 419.232 -1.32118 -1.92528 0
M  V30 4541 C 420.213 -0.194209 -1.68988 0
M  V30 4542 O 421.398 -0.390426 -1.90235 0
M  V30 4543 C 418.528 -1.10047 -3.29404 0
M  V30 4544 C 417.482 -2.19471 -3.67446 0
M  V30 4545 C 416.808 -1.82555 -5.02571 0
M  V30 4546 C 418.108 -3.61495 -3.76987 0
M  V30 4547 H 419.802 -2.26394 -1.95924 0
M  V30 4548 H 417.348 -1.08981 -0.94123 0
M  V30 4549 H 419.301 -1.06061 -4.07835 0
M  V30 4550 H 418.025 -0.122195 -3.26371 0
M  V30 4551 H 416.684 -2.22568 -2.91306 0
M  V30 4552 H 416.332 -0.833249 -4.9605 0
M  V30 4553 H 416.032 -2.5581 -5.28995 0
M  V30 4554 H 417.556 -1.80108 -5.83432 0
M  V30 4555 H 418.97 -3.60676 -4.4563 0
M  V30 4556 H 417.367 -4.33577 -4.14887 0
M  V30 4557 H 418.437 -3.97065 -2.78329 0
M  V30 4558 N 419.78 1.02168 -1.19998 0
M  V30 4559 C 420.69 2.14069 -0.959774 0
M  V30 4560 C 421.706 1.73804 0.082655 0
M  V30 4561 O 422.882 2.01133 -0.103633 0
M  V30 4562 C 419.947 3.42936 -0.509459 0
M  V30 4563 C 419.008 3.97474 -1.62213 0
M  V30 4564 C 418.241 5.2019 -1.19321 0
M  V30 4565 O 418.464 5.70369 -0.0597726 0
M  V30 4566 O 417.398 5.67749 -1.99863 0
M  V30 4567 H 421.224 2.37199 -1.89658 0
M  V30 4568 H 418.809 1.12469 -0.983411 0
M  V30 4569 H 420.691 4.20551 -0.267322 0
M  V30 4570 H 419.366 3.21234 0.398821 0
M  V30 4571 H 418.273 3.21161 -1.9185 0
M  V30 4572 H 419.606 4.23555 -2.50723 0
M  V30 4573 N 421.258 1.00505 1.21394 0
M  V30 4574 C 422.488 0.705584 1.94178 0
M  V30 4575 C 422.896 -0.735846 1.74304 0
M  V30 4576 O 422.239 -1.50954 1.04683 0
M  V30 4577 C 422.301 0.94689 3.46806 0
M  V30 4578 C 421.965 2.37517 3.90429 0
M  V30 4579 C 422.962 3.35539 3.97127 0
M  V30 4580 C 420.647 2.71284 4.22742 0
M  V30 4581 C 422.641 4.65395 4.3553 0
M  V30 4582 C 420.328 4.01356 4.60822 0
M  V30 4583 C 421.326 4.98223 4.67186 0
M  V30 4584 O 421.014 6.25969 5.04399 0
M  V30 4585 H 420.746 0.259216 0.624326 0
M  V30 4586 H 423.3 1.34592 1.55159 0
M  V30 4587 H 421.53 0.249386 3.85895 0
M  V30 4588 H 423.219 0.640804 4.0081 0
M  V30 4589 H 423.985 3.10786 3.7234 0
M  V30 4590 H 419.864 1.96581 4.16985 0
M  V30 4591 H 423.408 5.41002 4.40412 0
M  V30 4592 H 419.305 4.25893 4.85063 0
M  V30 4593 H 420.073 6.30085 5.22431 0
M  V30 4594 N 422.737 -1.36956 0.779787 0
M  V30 4595 C 423.977 -2.01328 0.353043 0
M  V30 4596 C 424.341 -1.60558 -1.05286 0
M  V30 4597 O 425.542 -2.1745 -1.58016 0
M  V30 4598 C 423.813 -3.53874 0.500822 0
M  V30 4599 S 425.372 -4.38506 0.16053 0
M  V30 4600 H 422.19 -0.69799 0.13539 0
M  V30 4601 H 424.792 -1.67016 1.01617 0
M  V30 4602 H 423.496 -3.81034 1.52451 0
M  V30 4603 H 423.027 -3.92994 -0.178574 0
M  V30 4604 H 425.042 -4.85153 -1.04121 0
M  V30 4605 N 424.215 -0.530993 -1.48385 0
M  V30 4606 C 425.163 0.244595 -2.3131 0
M  V30 4607 C 426.157 0.93451 -1.41291 0
M  V30 4608 O 427.363 0.85878 -1.58193 0
M  V30 4609 H 423.738 0.0977472 -0.74562 0
M  V30 4610 H 425.709 -0.474369 -2.94605 0
M  V30 4611 C 424.458 1.2779 -3.23365 0
M  V30 4612 H 423.781 0.756439 -3.92579 0
M  V30 4613 H 425.221 1.79198 -3.84271 0
M  V30 4614 C 423.68 2.31205 -2.45042 0
M  V30 4615 O 424.21 3.37661 -2.17596 0
M  V30 4616 N 422.416 2.04446 -2.0652 0
M  V30 4617 H 421.963 1.17891 -2.2904 0
M  V30 4618 H 421.921 2.73861 -1.54427 0
M  V30 4619 N 425.693 1.55336 -0.266172 0
M  V30 4620 C 427.104 1.85236 0.233315 0
M  V30 4621 C 427.455 1.18816 1.56132 0
M  V30 4622 O 426.58 0.473307 2.11161 0
M  V30 4623 C 427.175 3.36059 0.430113 0
M  V30 4624 C 425.734 3.66116 0.873842 0
M  V30 4625 C 424.881 2.77274 -0.0380016 0
M  V30 4626 H 427.832 1.51004 -0.488214 0
M  V30 4627 H 427.853 3.58681 1.26998 0
M  V30 4628 H 427.365 3.84373 -0.536588 0
M  V30 4629 H 425.466 3.23295 1.85233 0
M  V30 4630 H 425.579 4.73699 0.717358 0
M  V30 4631 H 423.943 2.50198 0.476759 0
M  V30 4632 H 424.726 3.284 -1.00042 0
M  V30 4633 N 427.171 -0.0066808 1.57599 0
M  V30 4634 C 428.401 -0.703066 1.94269 0
M  V30 4635 C 428.809 -1.68206 0.866222 0
M  V30 4636 O 428.152 -1.82966 -0.164087 0
M  V30 4637 C 428.214 -1.49616 3.26887 0
M  V30 4638 C 427.878 -0.679494 4.5192 0
M  V30 4639 C 428.875 0.0299508 5.19891 0
M  V30 4640 C 426.56 -0.627433 4.98366 0
M  V30 4641 C 428.554 0.780514 6.32603 0
M  V30 4642 C 426.241 0.126861 6.10968 0
M  V30 4643 C 427.239 0.829574 6.77943 0
M  V30 4644 O 426.927 1.57157 7.88389 0
M  V30 4645 H 426.659 -0.201217 0.645359 0
M  V30 4646 H 429.213 0.0385326 2.05364 0
M  V30 4647 H 427.443 -2.28209 3.12182 0
M  V30 4648 H 429.132 -2.07726 3.48719 0
M  V30 4649 H 429.898 -0.00115963 4.85 0
M  V30 4650 H 425.777 -1.16392 4.46065 0
M  V30 4651 H 429.321 1.32954 6.84813 0
M  V30 4652 H 425.218 0.159815 6.45302 0
M  V30 4653 H 425.986 1.48758 8.04868 0
M  V30 4654 N 428.649 -1.55105 -0.279332 0
M  V30 4655 C 430.065 -1.46803 -0.626187 0
M  V30 4656 C 430.265 -0.676939 -1.89789 0
M  V30 4657 O 429.321 -0.19326 -2.51759 0
M  V30 4658 C 430.634 -2.90962 -0.759034 0
M  V30 4659 C 432.182 -3.01138 -0.853504 0
M  V30 4660 C 432.657 -4.46539 -1.01818 0
M  V30 4661 N 434.148 -4.50341 -1.08386 0
M  V30 4662 C 434.883 -5.60053 -1.22996 0
M  V30 4663 N 434.379 -6.79645 -1.34366 0
M  V30 4664 N 436.172 -5.47783 -1.26056 0
M  V30 4665 H 428.323 -2.04996 0.555921 0
M  V30 4666 H 430.586 -0.929325 0.187239 0
M  V30 4667 H 430.292 -3.51544 0.104852 0
M  V30 4668 H 430.166 -3.39619 -1.64131 0
M  V30 4669 H 432.553 -2.40658 -1.70786 0
M  V30 4670 H 432.634 -2.55745 0.0532466 0
M  V30 4671 H 432.278 -5.0762 -0.168504 0
M  V30 4672 H 432.208 -4.89583 -1.93948 0
M  V30 4673 H 434.699 -3.64191 -1.00864 0
M  V30 4674 H 435.012 -7.59012 -1.4533 0
M  V30 4675 H 433.357 -6.82469 -1.31382 0
M  V30 4676 H 436.548 -4.53294 -1.168 0
M  V30 4677 H 436.721 -6.33331 -1.37098 0
M  V30 4678 N 430.127 0.543554 -1.4793 0
M  V30 4679 C 431.057 1.65888 -1.64327 0
M  V30 4680 C 432.038 1.62818 -0.492383 0
M  V30 4681 O 433.223 1.80226 -0.723338 0
M  V30 4682 C 430.353 3.04506 -1.67013 0
M  V30 4683 C 429.307 3.2243 -2.81466 0
M  V30 4684 C 428.633 4.61972 -2.69233 0
M  V30 4685 C 429.933 3.06496 -4.22915 0
M  V30 4686 H 431.627 1.52421 -2.57698 0
M  V30 4687 H 429.173 0.731849 -1.24016 0
M  V30 4688 H 431.126 3.82391 -1.77074 0
M  V30 4689 H 429.85 3.18964 -0.70212 0
M  V30 4690 H 428.509 2.46957 -2.70938 0
M  V30 4691 H 428.157 4.73247 -1.7043 0
M  V30 4692 H 427.857 4.74911 -3.46025 0
M  V30 4693 H 429.381 5.41974 -2.81242 0
M  V30 4694 H 430.795 3.74186 -4.34348 0
M  V30 4695 H 429.192 3.30938 -5.006 0
M  V30 4696 H 430.262 2.03077 -4.40327 0
M  V30 4697 N 431.605 1.3629 0.791371 0
M  V30 4698 C 432.851 1.30605 1.55146 0
M  V30 4699 C 433.184 -0.115042 1.93859 0
M  V30 4700 O 432.459 -1.06798 1.62556 0
M  V30 4701 C 432.742 2.22692 2.82985 0
M  V30 4702 C 432.595 3.73489 2.50651 0
M  V30 4703 C 433.914 2.13588 3.84796 0
M  V30 4704 H 431.033 0.475761 0.562868 0
M  V30 4705 H 433.675 1.66825 0.909358 0
M  V30 4706 H 431.825 1.91933 3.37778 0
M  V30 4707 H 433.497 4.14758 2.01924 0
M  V30 4708 H 431.74 3.93021 1.83622 0
M  V30 4709 H 432.411 4.3333 3.41949 0
M  V30 4710 H 434.887 2.40659 3.39445 0
M  V30 4711 H 433.763 2.80195 4.71998 0
M  V30 4712 H 434.024 1.12256 4.27611 0
M  V30 4713 N 433.083 -1.0153 1.20538 0
M  V30 4714 C 434.329 -1.75517 1.02787 0
M  V30 4715 C 434.684 -1.87411 -0.435289 0
M  V30 4716 O 433.977 -1.38982 -1.31889 0
M  V30 4717 C 434.171 -3.17213 1.64654 0
M  V30 4718 C 434 -3.19134 3.16834 0
M  V30 4719 C 432.77 -3.26301 3.85818 0
M  V30 4720 C 434.968 -3.05077 4.14044 0
M  V30 4721 N 432.95 -3.17739 5.25276 0
M  V30 4722 C 434.321 -3.04299 5.40187 0
M  V30 4723 C 436.376 -2.89303 4.05226 0
M  V30 4724 C 435.079 -2.89365 6.58529 0
M  V30 4725 C 437.105 -2.75723 5.23193 0
M  V30 4726 C 436.467 -2.75612 6.48242 0
M  V30 4727 H 432.566 -0.652919 0.430373 0
M  V30 4728 H 435.15 -1.20755 1.52729 0
M  V30 4729 H 433.321 -3.70266 1.17294 0
M  V30 4730 H 435.053 -3.79637 1.40208 0
M  V30 4731 H 431.808 -3.33078 3.36684 0
M  V30 4732 H 432.232 -3.16829 5.98288 0
M  V30 4733 H 436.874 -2.88201 3.09354 0
M  V30 4734 H 434.592 -2.89216 7.54573 0
M  V30 4735 H 438.178 -2.64533 5.18183 0
M  V30 4736 H 437.058 -2.65224 7.37988 0
M  V30 4737 N 434.561 -1.01147 -1.20859 0
M  V30 4738 C 435.493 -0.535546 -2.22855 0
M  V30 4739 C 436.506 0.379323 -1.58319 0
M  V30 4740 O 437.695 0.178489 -1.77605 0
M  V30 4741 C 434.795 0.240962 -3.38042 0
M  V30 4742 C 433.968 -0.674562 -4.32167 0
M  V30 4743 C 433.027 0.053467 -5.26173 0
M  V30 4744 O 432.053 -0.567339 -5.66366 0
M  V30 4745 N 433.255 1.32997 -5.65059 0
M  V30 4746 H 436.02 -1.41268 -2.64317 0
M  V30 4747 H 433.581 -0.888386 -1.35349 0
M  V30 4748 H 435.573 0.737115 -3.97931 0
M  V30 4749 H 434.143 1.01935 -2.95513 0
M  V30 4750 H 433.363 -1.35111 -3.70322 0
M  V30 4751 H 434.651 -1.2974 -4.91981 0
M  V30 4752 H 434.049 1.85536 -5.34409 0
M  V30 4753 H 432.606 1.77095 -6.2728 0
M  V30 4754 N 436.039 1.36541 -0.78704 0
M  V30 4755 C 437.264 2.0409 -0.369053 0
M  V30 4756 C 437.689 1.58957 1.00569 0
M  V30 4757 O 437.047 0.756926 1.64743 0
M  V30 4758 C 437.095 3.57924 -0.438466 0
M  V30 4759 O 436.199 4.08642 0.555479 0
M  V30 4760 H 435.54 0.645142 -0.157122 0
M  V30 4761 H 438.07 1.74545 -1.06749 0
M  V30 4762 H 438.08 4.06887 -0.301218 0
M  V30 4763 H 436.755 3.90127 -1.44132 0
M  V30 4764 H 435.332 3.70958 0.380088 0
M  V30 4765 N 437.518 0.538854 1.48102 0
M  V30 4766 C 438.465 -0.219042 2.29758 0
M  V30 4767 C 439.435 -0.925562 1.37922 0
M  V30 4768 O 440.62 -0.924855 1.66886 0
M  V30 4769 C 437.76 -1.25452 3.2149 0
M  V30 4770 C 436.873 -0.555943 4.28408 0
M  V30 4771 C 436.008 -1.57512 5.0731 0
M  V30 4772 C 435.047 -0.860498 6.06021 0
M  V30 4773 N 434.184 -1.82564 6.77949 0
M  V30 4774 H 439.024 0.483449 2.94052 0
M  V30 4775 H 436.561 0.250247 1.44956 0
M  V30 4776 H 438.519 -1.86727 3.7308 0
M  V30 4777 H 437.149 -1.92528 2.591 0
M  V30 4778 H 436.201 0.170938 3.80016 0
M  V30 4779 H 437.513 0.00474616 4.988 0
M  V30 4780 H 436.667 -2.26191 5.62959 0
M  V30 4781 H 435.406 -2.16972 4.36778 0
M  V30 4782 H 434.411 -0.159686 5.49568 0
M  V30 4783 H 435.636 -0.271897 6.78555 0
M  V30 4784 H 433.582 -2.40915 6.10161 0
M  V30 4785 H 433.499 -1.31662 7.44447 0
M  V30 4786 H 434.767 -2.50414 7.38182 0
M  V30 4787 N 438.996 -1.55193 0.274407 0
M  V30 4788 C 440.242 -1.99877 -0.343086 0
M  V30 4789 C 440.575 -1.16256 -1.55558 0
M  V30 4790 O 439.85 -0.232462 -1.93106 0
M  V30 4791 C 440.133 -3.52706 -0.725965 0
M  V30 4792 C 439.986 -4.47081 0.493818 0
M  V30 4793 C 441.305 -4.11422 -1.56268 0
M  V30 4794 H 438.424 -0.726625 -0.123229 0
M  V30 4795 H 441.066 -1.86136 0.38121 0
M  V30 4796 H 439.216 -3.64546 -1.34307 0
M  V30 4797 H 440.888 -4.47186 1.13237 0
M  V30 4798 H 439.131 -4.1877 1.13201 0
M  V30 4799 H 439.802 -5.51699 0.18217 0
M  V30 4800 H 442.278 -4.02855 -1.04151 0
M  V30 4801 H 441.154 -5.18568 -1.79939 0
M  V30 4802 H 441.415 -3.61607 -2.54348 0
M  V30 4803 N 440.474 -0.00167713 -1.576 0
M  V30 4804 C 441.722 0.681471 -1.90264 0
M  V30 4805 C 442.043 1.7422 -0.875924 0
M  V30 4806 O 441.313 1.95709 0.0864412 0
M  V30 4807 H 439.893 0.254696 -0.702239 0
M  V30 4808 H 442.555 -0.0429996 -1.94853 0
M  V30 4809 H 441.651 1.15166 -2.90075 0
M  V30 4810 N 441.952 1.55251 0.271103 0
M  V30 4811 C 443.363 1.66635 0.842007 0
M  V30 4812 C 443.714 0.594631 1.86972 0
M  V30 4813 O 442.839 -0.263532 2.14789 0
M  V30 4814 C 443.434 3.02082 1.53401 0
M  V30 4815 C 441.993 3.15487 2.05293 0
M  V30 4816 C 441.14 2.62438 0.895631 0
M  V30 4817 H 444.091 1.58629 0.0474117 0
M  V30 4818 H 444.112 2.95176 2.40107 0
M  V30 4819 H 443.624 3.80062 0.785786 0
M  V30 4820 H 441.725 2.42284 2.83071 0
M  V30 4821 H 441.838 4.22075 2.26693 0
M  V30 4822 H 440.202 2.19644 1.28953 0
M  V30 4823 H 440.985 3.42923 0.160878 0
M  V30 4824 N 443.43 -0.535701 1.48216 0
M  V30 4825 C 444.363 -1.65726 1.56876 0
M  V30 4826 C 445.341 -1.57094 0.419542 0
M  V30 4827 O 446.525 -1.77648 0.630352 0
M  V30 4828 C 443.652 -3.04096 1.49142 0
M  V30 4829 C 442.698 -3.31105 2.68834 0
M  V30 4830 S 443.531 -3.18001 4.30854 0
M  V30 4831 C 444.687 -4.58828 4.25709 0
M  V30 4832 H 444.92 -1.58129 2.51759 0
M  V30 4833 H 442.453 -0.718218 1.36678 0
M  V30 4834 H 444.411 -3.839 1.45366 0
M  V30 4835 H 443.072 -3.09139 0.556067 0
M  V30 4836 H 442.265 -4.32033 2.59545 0
M  V30 4837 H 441.867 -2.58961 2.69843 0
M  V30 4838 H 444.159 -5.5023 3.95289 0
M  V30 4839 H 445.102 -4.73172 5.26796 0
M  V30 4840 H 445.51 -4.37883 3.56257 0
M  V30 4841 N 444.908 -1.36708 -0.784132 0
M  V30 4842 C 446.319 -1.27947 -1.35965 0
M  V30 4843 C 446.67 0.0784013 -1.96043 0
M  V30 4844 O 445.795 0.979989 -1.92938 0
M  V30 4845 C 446.39 -2.31689 -2.47195 0
M  V30 4846 C 444.949 -2.26601 -3.00548 0
M  V30 4847 C 444.096 -2.16184 -1.73666 0
M  V30 4848 H 447.047 -1.4751 -0.585358 0
M  V30 4849 H 447.068 -1.95638 -3.26352 0
M  V30 4850 H 446.58 -3.30506 -2.03439 0
M  V30 4851 H 444.681 -1.31268 -3.48711 0
M  V30 4852 H 444.794 -3.19508 -3.57004 0
M  V30 4853 H 443.158 -1.62524 -1.96107 0
M  V30 4854 H 443.941 -3.16896 -1.32031 0
M  V30 4855 N 446.386 1.0089 -1.21074 0
M  V30 4856 C 447.632 1.7497 -1.03717 0
M  V30 4857 C 447.987 1.8764 0.425344 0
M  V30 4858 O 447.28 1.39679 1.3115 0
M  V30 4859 C 447.474 3.16335 -1.66334 0
M  V30 4860 C 447.303 3.17449 -3.18522 0
M  V30 4861 C 446.073 3.2425 -3.87543 0
M  V30 4862 C 448.271 3.02877 -4.15656 0
M  V30 4863 N 446.253 3.14949 -5.26954 0
M  V30 4864 C 447.624 3.0143 -5.41793 0
M  V30 4865 C 449.679 2.8715 -4.06755 0
M  V30 4866 C 448.382 2.85869 -6.60054 0
M  V30 4867 C 450.408 2.72944 -5.24648 0
M  V30 4868 C 449.77 2.72171 -6.49694 0
M  V30 4869 H 445.869 0.650627 -0.43383 0
M  V30 4870 H 448.453 1.19944 -1.53367 0
M  V30 4871 H 446.624 3.69638 -1.19256 0
M  V30 4872 H 448.356 3.78888 -1.42219 0
M  V30 4873 H 445.111 3.31288 -3.38446 0
M  V30 4874 H 445.535 3.13651 -5.9996 0
M  V30 4875 H 450.177 2.86557 -3.10878 0
M  V30 4876 H 447.895 2.8521 -7.56096 0
M  V30 4877 H 451.481 2.61782 -5.19578 0
M  V30 4878 H 450.361 2.61307 -7.39384 0
M  V30 4879 N 447.864 1.01787 1.20321 0
M  V30 4880 C 448.794 0.609625 2.25401 0
M  V30 4881 C 449.775 -0.375951 1.65893 0
M  V30 4882 O 450.96 -0.261101 1.92437 0
M  V30 4883 C 448.09 -0.0515995 3.47262 0
M  V30 4884 C 447.044 0.855095 4.19371 0
M  V30 4885 C 446.37 0.0595757 5.34667 0
M  V30 4886 C 447.67 2.16374 4.75373 0
M  V30 4887 H 449.364 1.48803 2.59804 0
M  V30 4888 H 446.91 0.716934 1.24884 0
M  V30 4889 H 448.863 -0.348764 4.19954 0
M  V30 4890 H 447.587 -0.964726 3.12027 0
M  V30 4891 H 446.246 1.13628 3.48546 0
M  V30 4892 H 445.894 -0.85524 4.95676 0
M  V30 4893 H 445.594 0.663406 5.83843 0
M  V30 4894 H 447.118 -0.231105 6.10162 0
M  V30 4895 H 448.532 1.92885 5.39878 0
M  V30 4896 H 446.929 2.71853 5.34991 0
M  V30 4897 H 447.999 2.82589 3.94045 0
M  V30 4898 N 449.342 -1.36122 0.79427 0
M  V30 4899 C 450.59 -1.98718 0.368177 0
M  V30 4900 C 450.911 -1.63345 -1.06506 0
M  V30 4901 O 450.181 -0.909825 -1.73491 0
M  V30 4902 H 448.761 -0.735038 0.133146 0
M  V30 4903 H 451.423 -1.66239 1.01739 0
M  V30 4904 H 450.519 -3.08633 0.463923 0
M  V30 4905 N 450.82 -0.546701 -1.47814 0
M  V30 4906 C 452.231 -0.110564 -1.86372 0
M  V30 4907 C 452.582 1.31678 -1.45449 0
M  V30 4908 O 451.707 1.98889 -0.852758 0
M  V30 4909 C 452.302 -0.193873 -3.38245 0
M  V30 4910 C 450.861 0.187164 -3.75934 0
M  V30 4911 C 450.008 -0.546166 -2.71868 0
M  V30 4912 H 452.959 -0.757022 -1.39481 0
M  V30 4913 H 452.98 0.590218 -3.75895 0
M  V30 4914 H 452.492 -1.23282 -3.67999 0
M  V30 4915 H 450.593 1.22762 -3.51796 0
M  V30 4916 H 450.706 -0.164083 -4.78819 0
M  V30 4917 H 449.07 0.00953904 -2.54698 0
M  V30 4918 H 449.853 -1.58606 -3.04465 0
M  V30 4919 N 452.299 1.55045 -0.282633 0
M  V30 4920 C 453.231 2.2023 0.634924 0
M  V30 4921 C 454.244 1.18931 1.11172 0
M  V30 4922 O 455.433 1.4562 1.03233 0
M  V30 4923 C 452.533 2.82041 1.87899 0
M  V30 4924 C 451.706 4.091 1.54776 0
M  V30 4925 C 450.765 4.54887 2.64507 0
M  V30 4926 O 449.791 5.20496 2.30375 0
M  V30 4927 N 450.993 4.25659 3.94709 0
M  V30 4928 H 453.758 2.99601 0.0769811 0
M  V30 4929 H 451.319 1.61565 -0.104048 0
M  V30 4930 H 453.311 3.09613 2.60619 0
M  V30 4931 H 451.881 2.06618 2.3458 0
M  V30 4932 H 451.101 3.88736 0.654049 0
M  V30 4933 H 452.389 4.9187 1.30158 0
M  V30 4934 H 451.787 3.7306 4.25256 0
M  V30 4935 H 450.344 4.57984 4.63782 0
M  V30 4936 N 453.777 0.010035 1.57597 0
M  V30 4937 C 455.005 -0.683413 1.95287 0
M  V30 4938 C 455.42 -1.66747 0.885481 0
M  V30 4939 O 454.777 -1.82003 -0.134629 0
M  V30 4940 C 454.828 -1.40652 3.33015 0
M  V30 4941 O 454.549 -0.461916 4.35658 0
M  V30 4942 C 456.05 -2.19356 3.85225 0
M  V30 4943 H 453.27 -0.189708 0.643624 0
M  V30 4944 H 455.814 0.0641359 2.04399 0
M  V30 4945 H 453.969 -2.10562 3.2518 0
M  V30 4946 H 454.383 -0.973215 5.15392 0
M  V30 4947 H 455.857 -2.65433 4.83993 0
M  V30 4948 H 456.334 -3.02457 3.18459 0
M  V30 4949 H 456.94 -1.54442 3.96267 0
M  V30 4950 N 455.255 -1.55392 -0.262866 0
M  V30 4951 C 456.532 -1.67204 -1.01499 0
M  V30 4952 C 456.912 -0.545186 -2.03939 0
M  V30 4953 O 456.26 0.453467 -2.23955 0
M  V30 4954 C 456.47 -3.06847 -1.6627 0
M  V30 4955 C 457.818 -3.64928 -2.17054 0
M  V30 4956 O 458.842 -3.09545 -1.76239 0
M  V30 4957 O 457.701 -4.61984 -2.91947 0
M  V30 4958 H 454.795 -0.679467 -0.471438 0
M  V30 4959 H 457.341 -1.67729 -0.257918 0
M  V30 4960 H 456.113 -3.80309 -0.920915 0
M  V30 4961 H 455.736 -3.10266 -2.48638 0
M  V30 4962 N 456.733 0.527833 -1.48498 0
M  V30 4963 C 457.643 1.65907 -1.65867 0
M  V30 4964 C 458.659 1.6537 -0.541192 0
M  V30 4965 O 459.835 1.84282 -0.812534 0
M  V30 4966 C 456.9 3.02364 -1.69637 0
M  V30 4967 C 455.961 3.1374 -2.93028 0
M  V30 4968 C 455.194 4.43688 -2.96609 0
M  V30 4969 O 455.417 5.30913 -2.08538 0
M  V30 4970 O 454.351 4.59475 -3.88802 0
M  V30 4971 H 458.177 1.5419 -2.61647 0
M  V30 4972 H 455.762 0.701163 -1.31924 0
M  V30 4973 H 457.644 3.83515 -1.74625 0
M  V30 4974 H 456.319 3.14401 -0.770312 0
M  V30 4975 H 455.226 2.31877 -2.93571 0
M  V30 4976 H 456.559 3.06621 -3.85026 0
M  V30 4977 N 458.211 1.37122 0.776871 0
M  V30 4978 C 459.436 1.354 1.57104 0
M  V30 4979 C 459.861 -0.0595562 1.88006 0
M  V30 4980 O 459.219 -1.03514 1.48844 0
M  V30 4981 C 459.267 2.19472 2.8612 0
M  V30 4982 O 458.371 1.59582 3.80273 0
M  V30 4983 H 457.712 0.462869 0.476076 0
M  V30 4984 H 460.242 1.80577 0.961932 0
M  V30 4985 H 460.252 2.32502 3.35271 0
M  V30 4986 H 458.927 3.22222 2.62956 0
M  V30 4987 H 457.504 1.55564 3.38902 0
M  V30 4988 N 459.689 -1.00246 1.21608 0
M  V30 4989 C 460.938 -1.73476 1.02902 0
M  V30 4990 C 461.251 -1.90643 -0.437561 0
M  V30 4991 O 462.457 -2.61105 -0.74407 0
M  V30 4992 C 460.913 -3.12079 1.79261 0
M  V30 4993 C 460.521 -3.02877 3.30106 0
M  V30 4994 C 462.265 -3.89421 1.68972 0
M  V30 4995 C 460.172 -4.36575 3.98944 0
M  V30 4996 H 459.102 -0.650408 0.381425 0
M  V30 4997 H 461.753 -1.11985 1.45367 0
M  V30 4998 H 460.135 -3.74196 1.2959 0
M  V30 4999 H 461.309 -2.49983 3.87098 0
M  V30 5000 H 459.624 -2.39022 3.40965 0
M  V30 5001 H 462.221 -4.88362 2.17731 0
M  V30 5002 H 462.564 -4.1122 0.648397 0
M  V30 5003 H 463.097 -3.33963 2.16133 0
M  V30 5004 H 459.836 -4.19978 5.03288 0
M  V30 5005 H 459.356 -4.8942 3.4674 0
M  V30 5006 H 461.035 -5.05364 4.04 0
M  V30 5007 N 461.167 -1.02423 -1.1978 0
M  V30 5008 C 462.114 -0.601023 -2.22837 0
M  V30 5009 C 463.084 0.382801 -1.61629 0
M  V30 5010 O 464.269 0.280514 -1.88727 0
M  V30 5011 C 461.409 0.0467755 -3.45068 0
M  V30 5012 C 460.522 -0.98253 -4.20678 0
M  V30 5013 C 459.657 -0.304982 -5.30324 0
M  V30 5014 C 458.696 -1.32052 -5.97686 0
M  V30 5015 N 457.833 -0.669105 -6.98904 0
M  V30 5016 H 462.673 -1.48444 -2.58396 0
M  V30 5017 H 460.21 -0.742936 -1.2696 0
M  V30 5018 H 462.168 0.439556 -4.14878 0
M  V30 5019 H 460.798 0.893796 -3.10179 0
M  V30 5020 H 459.85 -1.49341 -3.49859 0
M  V30 5021 H 461.162 -1.75455 -4.66923 0
M  V30 5022 H 460.316 0.142893 -6.06532 0
M  V30 5023 H 459.055 0.499283 -4.85138 0
M  V30 5024 H 458.06 -1.7787 -5.20233 0
M  V30 5025 H 459.285 -2.1262 -6.44957 0
M  V30 5026 H 457.231 0.115152 -6.55899 0
M  V30 5027 H 457.148 -1.37908 -7.43315 0
M  V30 5028 H 458.416 -0.245076 -7.79115 0
M  V30 5029 N 462.645 1.35699 -0.801477 0
M  V30 5030 C 463.893 1.9852 -0.37871 0
M  V30 5031 C 464.214 1.63907 1.05638 0
M  V30 5032 O 463.484 0.919013 1.73006 0
M  V30 5033 H 462.064 0.734322 -0.137042 0
M  V30 5034 H 464.726 1.65697 -1.02619 0
M  V30 5035 H 463.822 3.08382 -0.480284 0
M  V30 5036 N 464.123 0.554532 1.47522 0
M  V30 5037 C 465.053 -0.182974 2.32782 0
M  V30 5038 C 466.034 -0.911377 1.43624 0
M  V30 5039 O 467.219 -0.892366 1.72483 0
M  V30 5040 C 464.349 -1.21513 3.25349 0
M  V30 5041 C 463.303 -0.603355 4.23726 0
M  V30 5042 C 462.629 -1.73995 5.05598 0
M  V30 5043 C 463.929 0.441121 5.20434 0
M  V30 5044 H 465.623 0.52882 2.94693 0
M  V30 5045 H 463.169 0.255759 1.41711 0
M  V30 5046 H 465.122 -1.73922 3.83835 0
M  V30 5047 H 463.846 -1.95683 2.61487 0
M  V30 5048 H 462.505 -0.10059 3.66462 0
M  V30 5049 H 462.153 -2.47063 4.38143 0
M  V30 5050 H 461.853 -1.3364 5.72201 0
M  V30 5051 H 463.377 -2.26735 5.66942 0
M  V30 5052 H 464.791 0.00319931 5.733 0
M  V30 5053 H 463.188 0.763402 5.95224 0
M  V30 5054 H 464.258 1.33799 4.66075 0
M  V30 5055 N 465.601 -1.54893 0.290851 0
M  V30 5056 C 466.841 -2.01842 -0.322388 0
M  V30 5057 C 467.205 -1.17477 -1.51865 0
M  V30 5058 O 468.406 -1.54077 -2.20258 0
M  V30 5059 C 466.677 -3.50874 -0.679844 0
M  V30 5060 S 468.236 -4.19796 -1.27739 0
M  V30 5061 H 465.054 -0.704005 -0.0994866 0
M  V30 5062 H 467.656 -1.91015 0.416358 0
M  V30 5063 H 466.36 -4.09915 0.199435 0
M  V30 5064 H 465.891 -3.65717 -1.44964 0
M  V30 5065 H 467.906 -4.24729 -2.56554 0
M  V30 5066 N 467.08 -0.0183926 -1.57589 0
M  V30 5067 C 467.99 0.982943 -2.13015 0
M  V30 5068 C 469.006 1.36443 -1.07979 0
M  V30 5069 O 470.182 1.44802 -1.3998 0
M  V30 5070 C 467.247 2.25024 -2.63752 0
M  V30 5071 C 466.308 1.93018 -3.83461 0
M  V30 5072 C 465.541 3.13706 -4.31769 0
M  V30 5073 O 465.764 4.2601 -3.79305 0
M  V30 5074 O 464.698 2.96629 -5.23732 0
M  V30 5075 H 468.524 0.541709 -2.9883 0
M  V30 5076 H 466.109 0.201565 -1.48034 0
M  V30 5077 H 467.991 2.99441 -2.96502 0
M  V30 5078 H 466.666 2.68349 -1.81026 0
M  V30 5079 H 465.573 1.16019 -3.55655 0
M  V30 5080 H 466.906 1.54516 -4.67317 0
M  V30 5081 N 468.558 1.5553 0.254621 0
M  V30 5082 C 469.974 1.4778 0.602753 0
M  V30 5083 C 470.174 0.707047 1.88688 0
M  V30 5084 O 469.23 0.233288 2.5142 0
M  V30 5085 C 470.543 2.92133 0.712648 0
M  V30 5086 C 472.091 3.02458 0.805488 0
M  V30 5087 C 472.566 4.48102 0.947009 0
M  V30 5088 N 474.057 4.52008 1.01207 0
M  V30 5089 C 474.792 5.61939 1.1407 0
M  V30 5090 N 474.288 6.81697 1.23536 0
M  V30 5091 N 476.081 5.49719 1.17325 0
M  V30 5092 H 468.232 2.04085 -0.588463 0
M  V30 5093 H 470.495 0.926229 -0.202001 0
M  V30 5094 H 470.201 3.51332 -0.160766 0
M  V30 5095 H 470.075 3.42187 1.58707 0
M  V30 5096 H 472.462 2.43344 1.66936 0
M  V30 5097 H 472.543 2.55627 -0.0939266 0
M  V30 5098 H 472.187 5.07824 0.087725 0
M  V30 5099 H 472.117 4.92607 1.86135 0
M  V30 5100 H 474.608 3.65749 0.950577 0
M  V30 5101 H 474.921 7.61228 1.33236 0
M  V30 5102 H 473.266 6.84473 1.20508 0
M  V30 5103 H 476.457 4.55095 1.09573 0
M  V30 5104 H 476.63 6.35432 1.27005 0
M  V30 5105 N 470.036 -0.519951 1.48776 0
M  V30 5106 C 471.284 -1.2727 1.56993 0
M  V30 5107 C 471.605 -1.9339 0.25004 0
M  V30 5108 O 470.875 -1.81822 -0.729216 0
M  V30 5109 H 469.455 -0.472732 0.578389 0
M  V30 5110 H 472.117 -0.604234 1.85297 0
M  V30 5111 H 471.213 -2.04669 2.3562 0
M  V30 5112 N 471.514 -1.37532 -0.769588 0
M  V30 5113 C 472.93 -1.18379 -1.07045 0
M  V30 5114 C 473.13 -0.0214312 -2.01489 0
M  V30 5115 O 472.186 0.637809 -2.44312 0
M  V30 5116 C 473.499 -2.50338 -1.66588 0
M  V30 5117 C 475.047 -2.56879 -1.78835 0
M  V30 5118 C 475.522 -3.88974 -2.41792 0
M  V30 5119 N 477.013 -3.90428 -2.4924 0
M  V30 5120 C 477.748 -4.89388 -2.98809 0
M  V30 5121 N 477.244 -5.98745 -3.48535 0
M  V30 5122 N 479.037 -4.76791 -2.97703 0
M  V30 5123 H 471.188 -2.11921 -0.142541 0
M  V30 5124 H 473.451 -0.939608 -0.125863 0
M  V30 5125 H 473.157 -3.35767 -1.0466 0
M  V30 5126 H 473.031 -2.67583 -2.65856 0
M  V30 5127 H 475.418 -1.71856 -2.39895 0
M  V30 5128 H 475.499 -2.43516 -0.783166 0
M  V30 5129 H 475.143 -4.74412 -1.81371 0
M  V30 5130 H 475.073 -3.99641 -3.4292 0
M  V30 5131 H 477.564 -3.11433 -2.14052 0
M  V30 5132 H 477.877 -6.70205 -3.84767 0
M  V30 5133 H 476.222 -6.02387 -3.46634 0
M  V30 5134 H 479.413 -3.90478 -2.58157 0
M  V30 5135 H 479.586 -5.54069 -3.36024 0
M  V30 5136 N 472.992 0.995999 -1.22138 0
M  V30 5137 C 473.939 2.08551 -0.988687 0
M  V30 5138 C 474.909 1.65864 0.0885021 0
M  V30 5139 O 476.094 1.90704 -0.0604589 0
M  V30 5140 C 473.234 3.40374 -0.569191 0
M  V30 5141 C 472.347 3.96421 -1.71681 0
M  V30 5142 C 471.482 5.1639 -1.2456 0
M  V30 5143 C 470.521 5.64567 -2.36497 0
M  V30 5144 N 469.658 6.75777 -1.90445 0
M  V30 5145 H 474.498 2.2779 -1.92135 0
M  V30 5146 H 472.035 1.1168 -0.957388 0
M  V30 5147 H 473.993 4.16068 -0.307166 0
M  V30 5148 H 472.623 3.21145 0.326462 0
M  V30 5149 H 471.675 3.17628 -2.09324 0
M  V30 5150 H 472.987 4.2816 -2.55891 0
M  V30 5151 H 472.141 5.99362 -0.940774 0
M  V30 5152 H 470.88 4.86266 -0.373662 0
M  V30 5153 H 469.885 4.80185 -2.67772 0
M  V30 5154 H 471.11 5.96716 -3.24202 0
M  V30 5155 H 469.056 6.47443 -1.05609 0
M  V30 5156 H 468.973 7.06818 -2.68223 0
M  V30 5157 H 470.241 7.62262 -1.63022 0
M  V30 5158 N 474.47 1.03057 1.19235 0
M  V30 5159 C 475.418 0.606391 2.24557 0
M  V30 5160 C 476.412 -0.361826 1.65491 0
M  V30 5161 O 477.618 -0.23022 1.78522 0
M  V30 5162 H 473.993 0.177838 0.730669 0
M  V30 5163 H 475.964 1.50529 2.5765 0
M  V30 5164 C 474.713 -0.0252127 3.47691 0
M  V30 5165 H 474.036 0.710838 3.9343 0
M  V30 5166 H 475.476 -0.284931 4.23042 0
M  V30 5167 C 473.935 -1.27229 3.11953 0
M  V30 5168 O 474.465 -2.36416 3.24762 0
M  V30 5169 N 472.671 -1.16169 2.6637 0
M  V30 5170 H 472.218 -0.273189 2.56147 0
M  V30 5171 H 472.176 -1.99703 2.42829 0
M  V30 5172 N 475.948 -1.35272 0.808662 0
M  V30 5173 C 477.197 -1.97963 0.386483 0
M  V30 5174 C 477.51 -1.64866 -1.05255 0
M  V30 5175 O 478.716 -2.20937 -1.57794 0
M  V30 5176 C 477.172 -3.54162 0.640096 0
M  V30 5177 C 476.78 -3.96166 2.0918 0
M  V30 5178 C 478.524 -4.23553 0.283376 0
M  V30 5179 C 476.431 -5.4522 2.29106 0
M  V30 5180 H 475.361 -0.740742 0.140774 0
M  V30 5181 H 478.012 -1.5431 0.993012 0
M  V30 5182 H 476.394 -3.95983 -0.0364117 0
M  V30 5183 H 477.568 -3.65491 2.80629 0
M  V30 5184 H 475.883 -3.3967 2.40859 0
M  V30 5185 H 478.48 -5.33124 0.410273 0
M  V30 5186 H 478.823 -4.09105 -0.770659 0
M  V30 5187 H 479.356 -3.8716 0.913884 0
M  V30 5188 H 476.095 -5.64638 3.32962 0
M  V30 5189 H 475.615 -5.77457 1.62184 0
M  V30 5190 H 477.294 -6.1171 2.1076 0
M  V30 5191 N 477.426 -0.562348 -1.47226 0
M  V30 5192 C 478.356 0.170627 -2.32876 0
M  V30 5193 C 479.337 0.903748 -1.44106 0
M  V30 5194 O 480.522 0.883206 -1.72954 0
M  V30 5195 C 477.652 1.19786 -3.25989 0
M  V30 5196 C 476.606 0.580875 -4.2404 0
M  V30 5197 C 475.932 1.71311 -5.06514 0
M  V30 5198 C 477.232 -0.468714 -5.20193 0
M  V30 5199 H 478.926 -0.544441 -2.94408 0
M  V30 5200 H 476.472 -0.263271 -1.41573 0
M  V30 5201 H 478.425 1.71884 -3.84752 0
M  V30 5202 H 477.149 1.94294 -2.62521 0
M  V30 5203 H 475.808 0.0811538 -3.6651 0
M  V30 5204 H 475.456 2.44736 -4.39447 0
M  V30 5205 H 475.156 1.30604 -5.72902 0
M  V30 5206 H 476.68 2.23725 -5.68137 0
M  V30 5207 H 478.094 -0.0336028 -5.7329 0
M  V30 5208 H 476.491 -0.794957 -5.94811 0
M  V30 5209 H 477.561 -1.36269 -4.65359 0
M  V30 5210 N 478.904 1.54736 -0.299062 0
M  V30 5211 C 479.834 2.26409 0.571085 0
M  V30 5212 C 480.815 1.2629 1.13951 0
M  V30 5213 O 482 1.55059 1.16921 0
M  V30 5214 C 479.13 3.00338 1.74396 0
M  V30 5215 C 478.084 4.07588 1.30599 0
M  V30 5216 C 477.41 4.69222 2.56387 0
M  V30 5217 C 478.71 5.20455 0.438645 0
M  V30 5218 H 480.404 2.99388 -0.0266991 0
M  V30 5219 H 477.95 1.43993 -0.0142812 0
M  V30 5220 H 479.903 3.49198 2.35878 0
M  V30 5221 H 478.627 2.24934 2.36796 0
M  V30 5222 H 477.286 3.59575 0.71424 0
M  V30 5223 H 476.934 3.9046 3.17097 0
M  V30 5224 H 476.634 5.41653 2.27784 0
M  V30 5225 H 478.158 5.20844 3.18675 0
M  V30 5226 H 479.572 5.65221 0.959085 0
M  V30 5227 H 477.969 5.99594 0.246466 0
M  V30 5228 H 479.039 4.8192 -0.536738 0
M  V30 5229 N 480.382 0.0267497 1.57577 0
M  V30 5230 C 481.628 -0.653371 1.91987 0
M  V30 5231 C 481.961 -1.71915 0.903263 0
M  V30 5232 O 481.236 -1.94358 -0.0743387 0
M  V30 5233 C 481.519 -1.272 3.36886 0
M  V30 5234 C 481.372 -0.215938 4.49281 0
M  V30 5235 C 482.691 -2.19069 3.81703 0
M  V30 5236 H 479.81 -0.236047 0.698177 0
M  V30 5237 H 482.452 0.0835236 1.89816 0
M  V30 5238 H 480.602 -1.90005 3.38866 0
M  V30 5239 H 482.274 0.41449 4.59434 0
M  V30 5240 H 480.517 0.458855 4.31366 0
M  V30 5241 H 481.188 -0.688347 5.47691 0
M  V30 5242 H 483.664 -1.66253 3.81444 0
M  V30 5243 H 482.54 -2.59307 4.83788 0
M  V30 5244 H 482.801 -3.08087 3.17072 0
M  V30 5245 N 481.861 -1.55662 -0.24637 0
M  V30 5246 C 483.272 -1.67953 -0.81539 0
M  V30 5247 C 483.623 -0.624302 -1.86002 0
M  V30 5248 O 482.748 0.229328 -2.15181 0
M  V30 5249 C 483.343 -3.04484 -1.48576 0
M  V30 5250 C 481.902 -3.18713 -2.00248 0
M  V30 5251 C 481.049 -2.6383 -0.853766 0
M  V30 5252 H 484 -1.58685 -0.0221692 0
M  V30 5253 H 484.021 -2.98959 -2.3538 0
M  V30 5254 H 483.533 -3.81264 -0.725222 0
M  V30 5255 H 481.634 -2.46757 -2.79181 0
M  V30 5256 H 481.747 -4.25628 -2.1995 0
M  V30 5257 H 480.111 -2.21667 -1.25442 0
M  V30 5258 H 480.894 -3.43135 -0.106302 0
M  V30 5259 N 483.339 0.512053 -1.4905 0
M  V30 5260 C 484.588 1.26343 -1.57227 0
M  V30 5261 C 484.901 1.93876 -0.259155 0
M  V30 5262 O 486.107 2.70612 -0.219358 0
M  V30 5263 C 484.563 2.29343 -2.77362 0
M  V30 5264 C 484.171 1.67799 -4.15388 0
M  V30 5265 C 485.915 3.05378 -2.94864 0
M  V30 5266 C 483.822 2.68845 -5.2676 0
M  V30 5267 H 482.752 0.475231 -0.585382 0
M  V30 5268 H 485.403 0.53862 -1.75417 0
M  V30 5269 H 483.785 3.04938 -2.52643 0
M  V30 5270 H 484.959 0.982715 -4.50199 0
M  V30 5271 H 483.274 1.04194 -4.03153 0
M  V30 5272 H 485.871 3.80921 -3.75238 0
M  V30 5273 H 486.214 3.62327 -2.05 0
M  V30 5274 H 486.747 2.36898 -3.19569 0
M  V30 5275 H 483.486 2.16692 -6.18647 0
M  V30 5276 H 483.006 3.36647 -4.96416 0
M  V30 5277 H 484.685 3.31487 -5.5563 0
M  V30 5278 N 484.817 1.37938 0.762283 0
M  V30 5279 C 485.78 1.34279 1.85747 0
M  V30 5280 C 486.78 0.244969 1.58923 0
M  V30 5281 O 487.97 0.501365 1.66829 0
M  V30 5282 C 485.102 1.08833 3.23061 0
M  V30 5283 H 486.295 2.31705 1.90401 0
M  V30 5284 H 483.848 1.23105 0.963057 0
M  V30 5285 H 484.583 0.119767 3.24079 0
M  V30 5286 H 484.368 1.88306 3.43923 0
M  V30 5287 H 485.858 1.08946 4.03138 0
M  V30 5288 N 486.295 -0.989507 1.22664 0
M  V30 5289 C 487.542 -1.72953 1.05325 0
M  V30 5290 C 487.87 -1.90104 -0.411168 0
M  V30 5291 O 487.125 -1.44386 -1.32103 0
M  V30 5292 C 487.424 -3.13649 1.71345 0
M  V30 5293 C 487.09 -3.16403 3.21248 0
M  V30 5294 C 485.752 -3.16862 3.62149 0
M  V30 5295 C 488.104 -3.12428 4.17179 0
M  V30 5296 C 485.432 -3.11051 4.97458 0
M  V30 5297 C 487.784 -3.08159 5.52468 0
M  V30 5298 C 486.448 -3.06935 5.92746 0
M  V30 5299 H 485.718 -0.632881 0.385412 0
M  V30 5300 H 488.365 -1.15863 1.52473 0
M  V30 5301 H 486.67 -3.74069 1.16532 0
M  V30 5302 H 488.367 -3.69658 1.55416 0
M  V30 5303 H 484.957 -3.16798 2.88682 0
M  V30 5304 H 489.141 -3.11221 3.86595 0
M  V30 5305 H 484.397 -3.0845 5.27891 0
M  V30 5306 H 488.571 -3.04039 6.26525 0
M  V30 5307 H 486.198 -3.02186 6.97558 0
M  V30 5308 N 487.773 -1.03688 -1.18687 0
M  V30 5309 C 489.001 -0.757918 -1.92518 0
M  V30 5310 C 489.416 0.684398 -1.75959 0
M  V30 5311 O 488.773 1.46617 -1.08673 0
M  V30 5312 C 488.824 -1.10985 -3.44042 0
M  V30 5313 O 488.545 -2.49554 -3.60076 0
M  V30 5314 C 490.046 -0.854844 -4.3498 0
M  V30 5315 H 487.266 -0.276699 -0.611293 0
M  V30 5316 H 489.81 -1.38352 -1.50595 0
M  V30 5317 H 487.965 -0.529279 -3.83767 0
M  V30 5318 H 488.379 -2.6291 -4.53849 0
M  V30 5319 H 489.853 -1.15098 -5.39867 0
M  V30 5320 H 490.33 0.210507 -4.38695 0
M  V30 5321 H 490.936 -1.41853 -4.00946 0
M  V30 5322 N 489.251 1.34841 -0.815825 0
M  V30 5323 C 490.476 2.03261 -0.41226 0
M  V30 5324 C 490.901 1.61055 0.971751 0
M  V30 5325 O 490.259 0.7917 1.63101 0
M  V30 5326 C 490.307 3.56914 -0.514289 0
M  V30 5327 O 489.411 4.09728 0.468675 0
M  V30 5328 H 488.752 0.641664 -0.170771 0
M  V30 5329 H 491.282 1.72241 -1.10427 0
M  V30 5330 H 491.292 4.06156 -0.387457 0
M  V30 5331 H 489.967 3.86982 -1.52375 0
M  V30 5332 H 488.544 3.71681 0.301316 0
M  V30 5333 N 490.729 0.570148 1.46925 0
M  V30 5334 C 492.006 -0.0153259 1.95594 0
M  V30 5335 C 492.386 -1.47232 1.51281 0
M  V30 5336 O 491.734 -2.15574 0.757624 0
M  V30 5337 C 491.944 0.143624 3.48704 0
M  V30 5338 C 493.292 0.00494484 4.246 0
M  V30 5339 O 494.316 0.0718214 3.56128 0
M  V30 5340 O 493.175 -0.141175 5.46318 0
M  V30 5341 H 490.269 -0.0568819 0.825041 0
M  V30 5342 H 492.815 0.637583 1.57267 0
M  V30 5343 H 491.587 1.15699 3.73804 0
M  V30 5344 H 491.21 -0.5463 3.93829 0
M  V30 5345 N 492.207 -1.54576 0.307264 0
M  V30 5346 C 493.157 -2.20467 -0.581249 0
M  V30 5347 C 494.141 -1.17972 -1.09414 0
M  V30 5348 O 495.333 -1.43667 -1.03387 0
M  V30 5349 C 492.462 -2.95369 -1.74963 0
M  V30 5350 C 491.548 -4.05186 -1.25241 0
M  V30 5351 N 491.939 -5.03577 -0.47364 0
M  V30 5352 C 490.237 -4.18841 -1.53259 0
M  V30 5353 C 490.938 -5.81328 -0.208083 0
M  V30 5354 N 489.914 -5.37834 -0.789651 0
M  V30 5355 H 493.716 -2.93892 0.0212221 0
M  V30 5356 H 491.23 -1.62011 0.112325 0
M  V30 5357 H 493.227 -3.41046 -2.39777 0
M  V30 5358 H 491.887 -2.23461 -2.35574 0
M  V30 5359 H 492.898 -5.17766 -0.117963 0
M  V30 5360 H 489.575 -3.58141 -2.14573 0
M  V30 5361 H 490.965 -6.706 0.417793 0
M  V30 5362 N 493.685 -0.035106 -1.57561 0
M  V30 5363 C 494.934 0.641604 -1.91223 0
M  V30 5364 C 495.247 1.72944 -0.913761 0
M  V30 5365 O 496.453 2.46321 -1.14185 0
M  V30 5366 C 494.909 1.19249 -3.3957 0
M  V30 5367 C 494.517 0.137616 -4.47789 0
M  V30 5368 C 496.261 1.84537 -3.82291 0
M  V30 5369 C 494.168 0.700478 -5.87237 0
M  V30 5370 H 493.098 0.243417 -0.713627 0
M  V30 5371 H 495.749 -0.101382 -1.8322 0
M  V30 5372 H 494.131 1.98728 -3.42525 0
M  V30 5373 H 495.305 -0.635153 -4.56402 0
M  V30 5374 H 493.62 -0.416855 -4.14308 0
M  V30 5375 H 496.217 2.27616 -4.83834 0
M  V30 5376 H 496.56 2.69054 -3.17672 0
M  V30 5377 H 497.093 1.11739 -3.81784 0
M  V30 5378 H 493.832 -0.106693 -6.55413 0
M  V30 5379 H 493.352 1.4416 -5.82218 0
M  V30 5380 H 495.031 1.18837 -6.35993 0
M  V30 5381 N 495.163 1.55791 0.238111 0
M  V30 5382 C 496.073 1.94196 1.31625 0
M  V30 5383 C 497.089 0.843545 1.52185 0
M  V30 5384 O 498.265 1.1457 1.65637 0
M  V30 5385 C 495.33 2.2365 2.64918 0
M  V30 5386 C 494.391 3.46971 2.52804 0
M  V30 5387 C 493.624 3.7501 3.79741 0
M  V30 5388 O 493.847 3.04982 4.82019 0
M  V30 5389 O 492.781 4.68525 3.77846 0
M  V30 5390 H 496.607 2.86044 1.02043 0
M  V30 5391 H 494.192 1.42786 0.439603 0
M  V30 5392 H 496.074 2.43863 3.4367 0
M  V30 5393 H 494.749 1.34979 2.94215 0
M  V30 5394 H 493.656 3.32055 1.72309 0
M  V30 5395 H 494.989 4.35971 2.28451 0
M  V30 5396 N 496.642 -0.504142 1.49319 0
M  V30 5397 C 497.87 -1.28256 1.62351 0
M  V30 5398 C 498.285 -1.86502 0.293682 0
M  V30 5399 O 497.642 -1.67678 -0.720449 0
M  V30 5400 C 497.693 -2.41507 2.68992 0
M  V30 5401 O 497.414 -1.85656 3.96817 0
M  V30 5402 C 498.915 -3.32929 2.927 0
M  V30 5403 H 496.135 -0.389115 0.546654 0
M  V30 5404 H 498.679 -0.605531 1.95329 0
M  V30 5405 H 496.834 -3.05046 2.38801 0
M  V30 5406 H 497.248 -2.59981 4.55533 0
M  V30 5407 H 498.722 -4.0868 3.71058 0
M  V30 5408 H 499.199 -3.89733 2.02496 0
M  V30 5409 H 499.805 -2.75158 3.24296 0
M  V30 5410 N 498.12 -1.38341 -0.754957 0
M  V30 5411 C 499.05 -1.38176 -1.88227 0
M  V30 5412 C 500.031 -0.247873 -1.68284 0
M  V30 5413 O 501.216 -0.45075 -1.88896 0
M  V30 5414 C 498.346 -1.20471 -3.25736 0
M  V30 5415 C 497.3 -2.3105 -3.60278 0
M  V30 5416 C 496.626 -1.98452 -4.96509 0
M  V30 5417 C 497.926 -3.73305 -3.65295 0
M  V30 5418 H 499.62 -2.32512 -1.88622 0
M  V30 5419 H 497.166 -1.1192 -0.906082 0
M  V30 5420 H 499.119 -1.18982 -4.04254 0
M  V30 5421 H 497.843 -0.225965 -3.25817 0
M  V30 5422 H 496.502 -2.31723 -2.84078 0
M  V30 5423 H 496.15 -0.990641 -4.93148 0
M  V30 5424 H 495.85 -2.7251 -5.20588 0
M  V30 5425 H 497.374 -1.98578 -5.77407 0
M  V30 5426 H 498.788 -3.7467 -4.3393 0
M  V30 5427 H 497.185 -4.46557 -4.00883 0
M  V30 5428 H 498.255 -4.05719 -2.65556 0
M  V30 5429 N 499.598 0.982988 -1.23187 0
M  V30 5430 C 500.828 1.75666 -1.08743 0
M  V30 5431 C 501.236 1.85662 0.364195 0
M  V30 5432 O 500.579 1.33317 1.26382 0
M  V30 5433 C 500.641 3.20144 -1.63549 0
M  V30 5434 C 500.305 3.33665 -3.12277 0
M  V30 5435 C 501.302 3.20194 -4.096 0
M  V30 5436 C 498.987 3.58397 -3.51933 0
M  V30 5437 C 500.981 3.31256 -5.44563 0
M  V30 5438 C 498.668 3.69098 -4.87042 0
M  V30 5439 C 499.666 3.55537 -5.83166 0
M  V30 5440 O 499.354 3.65864 -7.1582 0
M  V30 5441 H 499.086 0.558194 -0.381307 0
M  V30 5442 H 501.64 1.24387 -1.63454 0
M  V30 5443 H 499.87 3.72659 -1.03256 0
M  V30 5444 H 501.559 3.79262 -1.4462 0
M  V30 5445 H 502.325 3.00987 -3.80305 0
M  V30 5446 H 498.204 3.68025 -2.77631 0
M  V30 5447 H 501.748 3.20588 -6.19572 0
M  V30 5448 H 497.645 3.87814 -5.16014 0
M  V30 5449 H 498.413 3.82675 -7.23534 0
M  V30 5450 N 501.076 1.04316 1.18135 0
M  V30 5451 C 501.986 0.646876 2.25505 0
M  V30 5452 C 503.002 -0.328008 1.7088 0
M  V30 5453 O 504.178 -0.182309 2.00573 0
M  V30 5454 C 501.243 0.0185664 3.46695 0
M  V30 5455 C 500.304 1.04277 4.16443 0
M  V30 5456 C 499.537 0.444352 5.31847 0
M  V30 5457 O 499.76 -0.748735 5.65465 0
M  V30 5458 O 498.694 1.17428 5.90334 0
M  V30 5459 H 502.52 1.54147 2.61672 0
M  V30 5460 H 500.105 0.814188 1.25265 0
M  V30 5461 H 501.987 -0.331068 4.20097 0
M  V30 5462 H 500.662 -0.849814 3.12346 0
M  V30 5463 H 499.569 1.44425 3.45098 0
M  V30 5464 H 500.902 1.882 4.54798 0
M  V30 5465 N 502.554 -1.34406 0.822964 0
M  V30 5466 C 503.484 -2.32052 0.259608 0
M  V30 5467 C 504.465 -1.58243 -0.623961 0
M  V30 5468 O 505.65 -1.86224 -0.55083 0
M  V30 5469 C 502.78 -3.42434 -0.579314 0
M  V30 5470 C 501.734 -4.27499 0.20712 0
M  V30 5471 C 501.06 -5.29349 -0.754547 0
M  V30 5472 C 502.36 -5.02758 1.41533 0
M  V30 5473 H 504.054 -2.79418 1.07545 0
M  V30 5474 H 501.6 -1.34338 0.518593 0
M  V30 5475 H 503.553 -4.0976 -0.983612 0
M  V30 5476 H 502.277 -2.93717 -1.4282 0
M  V30 5477 H 500.936 -3.61776 0.592787 0
M  V30 5478 H 500.584 -4.76895 -1.59939 0
M  V30 5479 H 500.284 -5.8714 -0.232561 0
M  V30 5480 H 501.808 -5.99544 -1.1567 0
M  V30 5481 H 503.222 -5.62938 1.08504 0
M  V30 5482 H 501.619 -5.70123 1.87296 0
M  V30 5483 H 502.689 -4.32451 2.1935 0
M  V30 5484 N 504.032 -0.577932 -1.46621 0
M  V30 5485 C 505.309 0.00495287 -1.95599 0
M  V30 5486 C 505.689 1.46428 -1.5206 0
M  V30 5487 O 505.037 2.1517 -0.769046 0
M  V30 5488 C 505.247 -0.162114 -3.48623 0
M  V30 5489 C 506.595 -0.0274623 -4.24591 0
M  V30 5490 O 507.619 -0.0907067 -3.56084 0
M  V30 5491 O 506.478 0.1122 -5.46385 0
M  V30 5492 H 503.572 0.0525057 -0.825332 0
M  V30 5493 H 506.118 -0.645914 -1.56927 0
M  V30 5494 H 504.89 -1.17679 -3.73185 0
M  V30 5495 H 504.513 0.525407 -3.94113 0
M  V30 5496 N 505.51 1.54411 -0.315457 0
M  V30 5497 C 506.759 1.99599 0.290395 0
M  V30 5498 C 507.072 1.20746 1.53882 0
M  V30 5499 O 508.278 1.56272 2.22017 0
M  V30 5500 C 506.734 3.5539 0.56797 0
M  V30 5501 C 506.342 4.43068 -0.662945 0
M  V30 5502 C 508.086 4.09067 1.13422 0
M  V30 5503 C 505.993 5.90317 -0.357722 0
M  V30 5504 H 504.923 0.745592 0.112286 0
M  V30 5505 H 507.574 1.78477 -0.426418 0
M  V30 5506 H 505.956 3.72468 1.34476 0
M  V30 5507 H 507.13 4.37765 -1.43869 0
M  V30 5508 H 505.445 4.00238 -1.14884 0
M  V30 5509 H 508.042 5.16663 1.37707 0
M  V30 5510 H 508.385 3.60552 2.08106 0
M  V30 5511 H 508.918 3.95589 0.418805 0
M  V30 5512 H 505.657 6.4301 -1.27351 0
M  V30 5513 H 505.177 5.98592 0.380472 0
M  V30 5514 H 506.856 6.4699 0.0354284 0
M  V30 5515 N 506.988 0.0434614 1.5754 0
M  V30 5516 C 507.898 -0.94893 2.14552 0
M  V30 5517 C 508.914 -1.34707 1.10136 0
M  V30 5518 O 510.09 -1.42557 1.42266 0
M  V30 5519 C 507.155 -2.208 2.67298 0
M  V30 5520 C 506.216 -1.86893 3.86484 0
M  V30 5521 C 505.449 -3.06797 4.36705 0
M  V30 5522 O 505.672 -4.19921 3.86034 0
M  V30 5523 O 504.606 -2.8826 5.28384 0
M  V30 5524 H 508.432 -0.494099 2.99654 0
M  V30 5525 H 506.017 -0.177989 1.48336 0
M  V30 5526 H 507.899 -2.94686 3.01228 0
M  V30 5527 H 506.574 -2.65436 1.85272 0
M  V30 5528 H 505.481 -1.10347 3.57455 0
M  V30 5529 H 506.814 -1.47062 4.69716 0
M  V30 5530 N 508.466 -1.55915 -0.229846 0
M  V30 5531 C 509.696 -1.82352 -0.971152 0
M  V30 5532 C 510.104 -0.619231 -1.7878 0
M  V30 5533 O 509.447 0.421597 -1.78797 0
M  V30 5534 C 509.509 -3.02399 -1.9441 0
M  V30 5535 C 509.173 -4.37739 -1.31277 0
M  V30 5536 C 510.17 -5.15074 -0.706757 0
M  V30 5537 C 507.855 -4.84454 -1.32702 0
M  V30 5538 C 509.849 -6.37281 -0.123413 0
M  V30 5539 C 507.536 -6.06605 -0.739831 0
M  V30 5540 C 508.534 -6.82858 -0.139071 0
M  V30 5541 O 508.222 -8.027 0.439007 0
M  V30 5542 H 507.954 -0.61035 -0.290601 0
M  V30 5543 H 510.508 -2.03839 -0.252746 0
M  V30 5544 H 508.738 -2.76709 -2.70128 0
M  V30 5545 H 510.427 -3.15779 -2.55026 0
M  V30 5546 H 511.193 -4.80093 -0.688131 0
M  V30 5547 H 507.072 -4.25081 -1.78402 0
M  V30 5548 H 510.616 -6.96741 0.346124 0
M  V30 5549 H 506.513 -6.4106 -0.755841 0
M  V30 5550 H 507.281 -8.17824 0.332521 0
M  V30 5551 N 509.944 0.496216 -1.49584 0
M  V30 5552 C 511.169 1.27865 -1.63295 0
M  V30 5553 C 511.594 1.85592 -0.306156 0
M  V30 5554 O 510.952 1.66092 0.726851 0
M  V30 5555 C 511 2.38128 -2.7079 0
M  V30 5556 O 510.104 3.42108 -2.30296 0
M  V30 5557 H 509.445 0.377279 -0.546403 0
M  V30 5558 H 511.975 0.593497 -1.95803 0
M  V30 5559 H 511.985 2.8382 -2.93104 0
M  V30 5560 H 510.66 1.95479 -3.67098 0
M  V30 5561 H 509.237 3.02301 -2.18331 0
M  V30 5562 N 511.423 1.38739 0.74761 0
M  V30 5563 C 512.355 1.32341 1.87132 0
M  V30 5564 C 513.368 0.234502 1.61102 0
M  V30 5565 O 514.557 0.492516 1.71571 0
M  V30 5566 C 511.657 1.02915 3.22896 0
M  V30 5567 C 510.83 2.22834 3.76383 0
M  V30 5568 C 509.889 1.90059 4.90677 0
M  V30 5569 O 508.915 2.62615 5.04997 0
M  V30 5570 N 510.117 0.859141 5.74107 0
M  V30 5571 H 512.882 2.29175 1.93129 0
M  V30 5572 H 510.443 1.32678 0.927805 0
M  V30 5573 H 512.435 0.79031 3.96908 0
M  V30 5574 H 511.005 0.148572 3.12247 0
M  V30 5575 H 510.225 2.62747 2.93867 0
M  V30 5576 H 511.513 3.02851 4.08851 0
M  V30 5577 H 510.911 0.257564 5.65113 0
M  V30 5578 H 509.468 0.680189 6.48241 0
M  V30 5579 N 512.901 -0.976442 1.23707 0
M  V30 5580 C 514.147 -1.72081 1.07312 0
M  V30 5581 C 514.48 -1.90275 -0.388476 0
M  V30 5582 O 513.755 -1.4579 -1.28746 0
M  V30 5583 C 514.038 -3.11675 1.80363 0
M  V30 5584 C 513.891 -3.01027 3.3422 0
M  V30 5585 C 515.21 -4.1117 1.5693 0
M  V30 5586 H 512.329 -0.624583 0.391236 0
M  V30 5587 H 514.971 -1.13649 1.52263 0
M  V30 5588 H 513.121 -3.61559 1.42153 0
M  V30 5589 H 514.793 -2.58637 3.81975 0
M  V30 5590 H 513.036 -2.3744 3.63049 0
M  V30 5591 H 513.707 -3.9988 3.80525 0
M  V30 5592 H 516.183 -3.7011 1.90151 0
M  V30 5593 H 515.059 -5.06928 2.10513 0
M  V30 5594 H 515.32 -4.392 0.505548 0
M  V30 5595 N 514.379 -1.04941 -1.1758 0
M  V30 5596 C 515.309 -0.669172 -2.23706 0
M  V30 5597 C 516.29 0.331835 -1.66832 0
M  V30 5598 O 517.475 0.209988 -1.93061 0
M  V30 5599 C 514.605 -0.0404889 -3.47276 0
M  V30 5600 C 513.559 -0.965983 -4.16957 0
M  V30 5601 C 512.885 -0.201312 -5.34321 0
M  V30 5602 C 514.185 -2.28902 -4.69469 0
M  V30 5603 H 515.879 -1.55639 -2.55767 0
M  V30 5604 H 513.425 -0.749793 -1.22939 0
M  V30 5605 H 515.378 0.237298 -4.20731 0
M  V30 5606 H 514.102 0.881658 -3.14475 0
M  V30 5607 H 512.761 -1.22829 -3.45411 0
M  V30 5608 H 512.409 0.723519 -4.97769 0
M  V30 5609 H 512.109 -0.817968 -5.81879 0
M  V30 5610 H 513.633 0.0692499 -6.10561 0
M  V30 5611 H 515.047 -2.07132 -5.34574 0
M  V30 5612 H 513.444 -2.85942 -5.27596 0
M  V30 5613 H 514.514 -2.92937 -3.86414 0
M  V30 5614 N 515.857 1.33968 -0.830081 0
M  V30 5615 C 516.82 2.27694 -0.26235 0
M  V30 5616 C 517.82 1.50589 0.563876 0
M  V30 5617 O 519.01 1.70028 0.378941 0
M  V30 5618 C 516.142 3.35002 0.63138 0
M  V30 5619 H 517.335 2.79419 -1.08928 0
M  V30 5620 H 514.888 1.44221 -0.602486 0
M  V30 5621 H 515.623 2.88504 1.48109 0
M  V30 5622 H 515.408 3.92079 0.0403276 0
M  V30 5623 H 516.898 4.04897 1.02217 0
M  V30 5624 N 517.335 0.585699 1.46312 0
M  V30 5625 C 518.282 -0.145835 2.30339 0
M  V30 5626 C 519.252 -0.881215 1.40797 0
M  V30 5627 O 520.437 -0.871293 1.69744 0
M  V30 5628 C 517.577 -1.15161 3.25318 0
M  V30 5629 C 516.69 -0.419367 4.2996 0
M  V30 5630 C 515.825 -1.41293 5.12064 0
M  V30 5631 C 514.864 -0.667261 6.08452 0
M  V30 5632 N 514.001 -1.60903 6.83414 0
M  V30 5633 H 518.841 0.576755 2.92365 0
M  V30 5634 H 516.378 0.296237 1.44086 0
M  V30 5635 H 518.336 -1.74763 3.78832 0
M  V30 5636 H 516.966 -1.84188 2.65094 0
M  V30 5637 H 516.018 0.291751 3.7928 0
M  V30 5638 H 517.33 0.163433 4.98532 0
M  V30 5639 H 516.484 -2.08167 5.6987 0
M  V30 5640 H 515.223 -2.02966 4.43459 0
M  V30 5641 H 514.228 0.0152356 5.49798 0
M  V30 5642 H 515.453 -0.0558817 6.79077 0
M  V30 5643 H 513.399 -2.21381 6.17516 0
M  V30 5644 H 513.316 -1.07911 7.48259 0
M  V30 5645 H 514.584 -2.26802 7.45775 0
M  V30 5646 N 518.813 -1.54241 0.323641 0
M  V30 5647 C 519.723 -2.28033 -0.551205 0
M  V30 5648 C 520.739 -1.32388 -1.12913 0
M  V30 5649 O 521.915 -1.65403 -1.14908 0
M  V30 5650 C 518.98 -3.02382 -1.69606 0
M  V30 5651 C 518.041 -4.13612 -1.14993 0
M  V30 5652 C 517.274 -4.84407 -2.24022 0
M  V30 5653 O 517.497 -4.54716 -3.44368 0
M  V30 5654 O 516.431 -5.71312 -1.89436 0
M  V30 5655 H 520.257 -3.03662 0.048066 0
M  V30 5656 H 517.842 -1.49133 0.0893289 0
M  V30 5657 H 519.724 -3.48941 -2.36259 0
M  V30 5658 H 518.399 -2.29628 -2.28151 0
M  V30 5659 H 517.306 -3.71402 -0.448484 0
M  V30 5660 H 518.639 -4.8841 -0.609608 0
M  V30 5661 N 520.291 -0.0518155 -1.57515 0
M  V30 5662 C 521.531 0.625712 -1.94587 0
M  V30 5663 C 521.895 1.6797 -0.930053 0
M  V30 5664 O 523.096 2.41135 -1.18774 0
M  V30 5665 C 521.367 1.20574 -3.36447 0
M  V30 5666 S 522.926 1.90118 -3.95475 0
M  V30 5667 H 519.744 0.205434 -0.680675 0
M  V30 5668 H 522.346 -0.120906 -1.95126 0
M  V30 5669 H 521.05 0.426521 -4.08178 0
M  V30 5670 H 520.581 1.98916 -3.39405 0
M  V30 5671 H 522.596 3.18184 -3.80753 0
M  V30 5672 N 521.769 1.56035 0.221574 0
M  V30 5673 C 523.017 1.78693 0.944102 0
M  V30 5674 C 523.338 0.620317 1.8487 0
M  V30 5675 O 522.608 -0.362784 1.92512 0
M  V30 5676 H 521.188 0.659082 0.351597 0
M  V30 5677 H 523.85 1.93497 0.233435 0
M  V30 5678 H 522.946 2.70837 1.55093 0
M  V30 5679 N 523.247 -0.488276 1.49845 0
M  V30 5680 C 524.493 -1.24341 1.6021 0
M  V30 5681 C 524.826 -1.91967 0.293651 0
M  V30 5682 O 524.101 -1.81323 -0.703718 0
M  V30 5683 C 524.384 -2.3005 2.77036 0
M  V30 5684 C 524.237 -1.66842 4.17713 0
M  V30 5685 C 525.556 -3.31509 2.89464 0
M  V30 5686 H 522.675 -0.450704 0.583125 0
M  V30 5687 H 525.317 -0.539673 1.82174 0
M  V30 5688 H 523.467 -2.90071 2.58439 0
M  V30 5689 H 525.139 -1.1055 4.47858 0
M  V30 5690 H 523.382 -0.972079 4.22768 0
M  V30 5691 H 524.053 -2.43576 4.95353 0
M  V30 5692 H 526.529 -2.81493 3.06433 0
M  V30 5693 H 525.405 -4.02822 3.72861 0
M  V30 5694 H 525.666 -3.94603 1.99351 0
M  V30 5695 N 524.725 -1.39134 -0.740242 0
M  V30 5696 C 525.635 -1.39697 -1.88473 0
M  V30 5697 C 526.651 -0.292403 -1.71526 0
M  V30 5698 O 527.827 -0.533021 -1.94219 0
M  V30 5699 C 524.892 -1.23382 -3.24003 0
M  V30 5700 C 523.953 -2.43763 -3.53381 0
M  V30 5701 C 523.186 -2.28216 -4.82445 0
M  V30 5702 O 523.409 -1.28288 -5.55786 0
M  V30 5703 O 522.343 -3.1709 -5.11603 0
M  V30 5704 H 526.169 -2.36159 -1.90952 0
M  V30 5705 H 523.754 -1.20194 -0.887346 0
M  V30 5706 H 525.636 -1.16395 -4.05006 0
M  V30 5707 H 524.311 -0.300121 -3.22306 0
M  V30 5708 H 523.218 -2.56325 -2.72485 0
M  V30 5709 H 524.551 -3.35808 -3.59852 0
M  V30 5710 N 526.204 0.969867 -1.24223 0
M  V30 5711 C 527.152 2.08535 -1.03034 0
M  V30 5712 C 528.146 1.69366 0.0340379 0
M  V30 5713 O 529.352 1.79597 -0.12034 0
M  V30 5714 H 525.727 0.682313 -0.316154 0
M  V30 5715 H 527.698 2.23569 -1.97635 0
M  V30 5716 C 526.447 3.4158 -0.649509 0
M  V30 5717 H 525.77 3.72177 -1.46028 0
M  V30 5718 H 527.21 4.20536 -0.540841 0
M  V30 5719 C 525.669 3.30703 0.643194 0
M  V30 5720 O 526.199 3.64443 1.68951 0
M  V30 5721 N 524.405 2.83841 0.623095 0
M  V30 5722 H 523.952 2.56583 -0.228719 0
M  V30 5723 H 523.91 2.76946 1.48823 0
M  V30 5724 N 527.682 1.05563 1.17022 0
M  V30 5725 C 528.931 0.763036 1.8671 0
M  V30 5726 C 529.244 -0.712857 1.82147 0
M  V30 5727 O 530.45 -1.11955 2.47343 0
M  V30 5728 C 528.906 1.31474 3.35026 0
M  V30 5729 C 528.514 2.82034 3.48081 0
M  V30 5730 C 530.258 1.09935 4.10018 0
M  V30 5731 C 528.165 3.30486 4.90442 0
M  V30 5732 H 527.095 0.281747 0.699382 0
M  V30 5733 H 529.746 1.2734 1.32124 0
M  V30 5734 H 528.128 0.732171 3.89173 0
M  V30 5735 H 529.302 3.46178 3.04133 0
M  V30 5736 H 527.617 3.02156 2.86515 0
M  V30 5737 H 530.214 1.43632 5.15048 0
M  V30 5738 H 530.557 0.0373072 4.16283 0
M  V30 5739 H 531.09 1.64732 3.62089 0
M  V30 5740 H 527.829 4.36137 4.89352 0
M  V30 5741 H 527.349 2.71086 5.35044 0
M  V30 5742 H 529.028 3.25382 5.59227 0
M  V30 5743 N 529.16 -1.33526 0.837174 0
M  V30 5744 C 530.576 -1.50727 0.524743 0
M  V30 5745 C 530.776 -1.77792 -0.948279 0
M  V30 5746 O 529.832 -1.83719 -1.73216 0
M  V30 5747 C 531.145 -2.66299 1.39661 0
M  V30 5748 C 532.693 -2.80183 1.39521 0
M  V30 5749 C 533.168 -3.98815 2.25189 0
M  V30 5750 N 534.659 -4.06047 2.2289 0
M  V30 5751 C 535.394 -4.97032 2.85915 0
M  V30 5752 N 534.89 -5.93143 3.57985 0
M  V30 5753 N 536.683 -4.90015 2.75394 0
M  V30 5754 H 528.834 -1.1422 1.79074 0
M  V30 5755 H 531.097 -0.561399 0.763894 0
M  V30 5756 H 530.803 -2.52974 2.4433 0
M  V30 5757 H 530.677 -3.61663 1.07145 0
M  V30 5758 H 533.064 -2.92942 0.356253 0
M  V30 5759 H 533.145 -1.85586 1.76044 0
M  V30 5760 H 532.789 -3.86817 3.29143 0
M  V30 5761 H 532.719 -4.92654 1.86009 0
M  V30 5762 H 535.21 -3.37262 1.70478 0
M  V30 5763 H 535.523 -6.59227 4.03286 0
M  V30 5764 H 533.868 -5.93223 3.62093 0
M  V30 5765 H 537.059 -4.13894 2.18654 0
M  V30 5766 H 537.232 -5.60724 3.24796 0
M  V30 5767 N 530.638 -0.59345 -1.46 0
M  V30 5768 C 532.054 -0.255965 -1.57534 0
M  V30 5769 C 532.254 1.24167 -1.58697 0
M  V30 5770 O 531.31 2.02398 -1.50968 0
M  V30 5771 C 532.623 -0.91466 -2.86451 0
M  V30 5772 C 534.171 -0.889253 -3.00102 0
M  V30 5773 C 534.646 -1.52769 -4.3177 0
M  V30 5774 N 536.137 -1.49253 -4.38495 0
M  V30 5775 C 536.872 -1.9558 -5.39014 0
M  V30 5776 N 536.368 -2.49929 -6.46148 0
M  V30 5777 N 538.161 -1.86432 -5.30282 0
M  V30 5778 H 530.312 -1.56604 -1.43489 0
M  V30 5779 H 532.575 -0.655207 -0.685133 0
M  V30 5780 H 532.281 -1.96861 -2.91442 0
M  V30 5781 H 532.155 -0.429356 -3.74748 0
M  V30 5782 H 534.542 0.156111 -2.94687 0
M  V30 5783 H 534.623 -1.41268 -2.13253 0
M  V30 5784 H 534.267 -2.57231 -4.37944 0
M  V30 5785 H 534.197 -0.979398 -5.17412 0
M  V30 5786 H 536.688 -1.09536 -3.61677 0
M  V30 5787 H 537.001 -2.83109 -7.19075 0
M  V30 5788 H 535.346 -2.53961 -6.46938 0
M  V30 5789 H 538.537 -1.43722 -4.4549 0
M  V30 5790 H 538.71 -2.22852 -6.08474 0
M  V30 5791 N 532.116 1.54067 -0.331816 0
M  V30 5792 C 533.079 2.23275 0.517768 0
M  V30 5793 C 534.079 1.22897 1.03697 0
M  V30 5794 O 535.269 1.47419 0.928084 0
M  V30 5795 C 532.401 2.94326 1.72004 0
M  V30 5796 H 533.594 2.99773 -0.0873507 0
M  V30 5797 H 531.147 1.56079 -0.0830042 0
M  V30 5798 H 531.882 2.21986 2.36417 0
M  V30 5799 H 531.667 3.67941 1.35507 0
M  V30 5800 H 533.157 3.47031 2.32291 0
M  V30 5801 N 533.594 0.0601682 1.57485 0
M  V30 5802 C 534.504 -0.926121 2.15546 0
M  V30 5803 C 535.52 -1.33532 1.11558 0
M  V30 5804 O 536.696 -1.4104 1.4377 0
M  V30 5805 C 533.761 -2.17952 2.69625 0
M  V30 5806 C 532.822 -1.82783 3.88444 0
M  V30 5807 C 532.055 -3.02148 4.39935 0
M  V30 5808 O 532.278 -4.15803 3.90466 0
M  V30 5809 O 531.212 -2.82639 5.31412 0
M  V30 5810 H 535.038 -0.462289 3.00161 0
M  V30 5811 H 532.623 -0.162246 1.48516 0
M  V30 5812 H 534.505 -2.91474 3.04337 0
M  V30 5813 H 533.18 -2.63456 1.88077 0
M  V30 5814 H 532.087 -1.06549 3.58606 0
M  V30 5815 H 533.42 -1.42072 4.7125 0
M  V30 5816 N 535.072 -1.5615 -0.213296 0
M  V30 5817 C 536.297 -1.83986 -0.957282 0
M  V30 5818 C 536.722 -0.641526 -1.76822 0
M  V30 5819 O 536.08 0.409722 -1.7661 0
M  V30 5820 C 536.128 -3.09889 -1.84393 0
M  V30 5821 O 535.232 -2.89163 -2.94038 0
M  V30 5822 H 534.573 -0.606357 -0.270605 0
M  V30 5823 H 537.103 -2.03369 -0.224111 0
M  V30 5824 H 537.113 -3.40209 -2.25215 0
M  V30 5825 H 535.788 -3.96735 -1.24795 0
M  V30 5826 H 534.365 -2.70097 -2.57103 0
M  V30 5827 N 536.55 0.480323 -1.50102 0
M  V30 5828 C 537.48 1.58769 -1.71215 0
M  V30 5829 C 538.461 1.60583 -0.560997 0
M  V30 5830 O 539.646 1.76996 -0.799127 0
M  V30 5831 C 536.776 2.97148 -1.79778 0
M  V30 5832 C 535.73 3.10201 -2.94888 0
M  V30 5833 C 535.056 4.50137 -2.88584 0
M  V30 5834 C 536.356 2.88283 -4.35534 0
M  V30 5835 H 538.05 1.41354 -2.6393 0
M  V30 5836 H 535.596 0.678591 -1.27008 0
M  V30 5837 H 537.549 3.74536 -1.93133 0
M  V30 5838 H 536.273 3.15699 -0.836772 0
M  V30 5839 H 534.932 2.35244 -2.81169 0
M  V30 5840 H 534.58 4.65593 -1.90349 0
M  V30 5841 H 534.28 4.59808 -3.65856 0
M  V30 5842 H 535.804 5.29558 -3.03976 0
M  V30 5843 H 537.218 3.55427 -4.49827 0
M  V30 5844 H 535.615 3.09408 -5.14186 0
M  V30 5845 H 536.685 1.84219 -4.48544 0
M  V30 5846 N 538.028 1.39524 0.732853 0
M  V30 5847 C 538.976 1.38563 1.86824 0
M  V30 5848 C 539.97 0.268467 1.67259 0
M  V30 5849 O 541.176 0.438613 1.74574 0
M  V30 5850 H 537.551 0.432737 0.615014 0
M  V30 5851 H 539.522 2.34328 1.84751 0
M  V30 5852 C 538.271 1.2481 3.24527 0
M  V30 5853 H 537.594 2.10044 3.40179 0
M  V30 5854 H 539.034 1.28194 4.04156 0
M  V30 5855 C 537.493 -0.0432825 3.36872 0
M  V30 5856 O 538.023 -1.01268 3.88726 0
M  V30 5857 N 536.229 -0.107055 2.90403 0
M  V30 5858 H 535.776 0.682512 2.48394 0
M  V30 5859 H 535.734 -0.970618 2.99042 0
M  V30 5860 N 539.506 -0.963266 1.24736 0
M  V30 5861 C 540.754 -1.70343 1.08755 0
M  V30 5862 C 541.075 -1.91387 -0.373619 0
M  V30 5863 O 540.345 -1.4948 -1.2662 0
M  V30 5864 H 538.925 -0.631224 0.399456 0
M  V30 5865 H 541.587 -1.15859 1.56725 0
M  V30 5866 H 540.683 -2.68616 1.58909 0
M  V30 5867 N 540.985 -1.06182 -1.16461 0
M  V30 5868 C 541.933 -0.665716 -2.2287 0
M  V30 5869 C 542.927 0.317822 -1.66392 0
M  V30 5870 O 544.133 0.182807 -1.79069 0
M  V30 5871 H 540.508 -0.197148 -0.725697 0
M  V30 5872 H 542.479 -1.57307 -2.53569 0
M  V30 5873 C 541.228 -0.0669803 -3.47635 0
M  V30 5874 H 540.551 -0.814899 -3.91407 0
M  V30 5875 H 541.991 0.172669 -4.23648 0
M  V30 5876 C 540.45 1.18913 -3.15216 0
M  V30 5877 O 540.98 2.27723 -3.30916 0
M  V30 5878 N 539.186 1.09066 -2.69357 0
M  V30 5879 H 538.733 0.20518 -2.56782 0
M  V30 5880 H 538.691 1.93195 -2.48039 0
M  V30 5881 N 542.463 1.3308 -0.844243 0
M  V30 5882 C 543.874 1.7992 -0.498566 0
M  V30 5883 C 544.225 1.69808 0.982834 0
M  V30 5884 O 543.35 1.25051 1.7661 0
M  V30 5885 C 543.945 3.26677 -0.898204 0
M  V30 5886 C 542.504 3.71513 -0.604583 0
M  V30 5887 C 541.651 2.54393 -1.10362 0
M  V30 5888 H 544.602 1.20526 -1.03244 0
M  V30 5889 H 544.623 3.79918 -0.21039 0
M  V30 5890 H 544.135 3.34004 -1.97643 0
M  V30 5891 H 542.236 3.69708 0.46335 0
M  V30 5892 H 542.349 4.64755 -1.16358 0
M  V30 5893 H 540.713 2.49246 -0.524273 0
M  V30 5894 H 541.496 2.6448 -2.18873 0
M  V30 5895 N 543.941 0.601185 1.45683 0
M  V30 5896 C 544.871 -0.108824 2.33246 0
M  V30 5897 C 545.852 -0.865223 1.46451 0
M  V30 5898 O 547.037 -0.83704 1.75235 0
M  V30 5899 C 544.167 -1.11101 3.2905 0
M  V30 5900 C 543.121 -0.468244 4.25431 0
M  V30 5901 C 542.447 -1.57822 5.10878 0
M  V30 5902 C 543.747 0.606469 5.18767 0
M  V30 5903 H 545.441 0.622306 2.92861 0
M  V30 5904 H 542.987 0.300714 1.40825 0
M  V30 5905 H 544.94 -1.61622 3.89174 0
M  V30 5906 H 543.664 -1.87265 2.67581 0
M  V30 5907 H 542.323 0.0160484 3.66596 0
M  V30 5908 H 541.971 -2.32998 4.45781 0
M  V30 5909 H 541.671 -1.15369 5.76163 0
M  V30 5910 H 543.195 -2.08583 5.73869 0
M  V30 5911 H 544.609 0.185589 5.73 0
M  V30 5912 H 543.006 0.952381 5.92494 0
M  V30 5913 H 544.076 1.48559 4.61582 0
M  V30 5914 N 545.419 -1.53889 0.339982 0
M  V30 5915 C 546.666 -2.00855 -0.257621 0
M  V30 5916 C 546.994 -1.22788 -1.50842 0
M  V30 5917 O 546.249 -0.302567 -1.93347 0
M  V30 5918 C 546.548 -3.51968 -0.620735 0
M  V30 5919 C 546.214 -4.47741 0.532771 0
M  V30 5920 C 544.876 -4.73645 0.849339 0
M  V30 5921 C 547.228 -5.04551 1.3068 0
M  V30 5922 C 544.556 -5.53614 1.94237 0
M  V30 5923 C 546.908 -5.85713 2.39005 0
M  V30 5924 C 545.572 -6.09912 2.71225 0
M  V30 5925 H 544.842 -0.734979 -0.0942703 0
M  V30 5926 H 547.489 -1.85714 0.467159 0
M  V30 5927 H 545.794 -3.64921 -1.42618 0
M  V30 5928 H 547.491 -3.85762 -1.09495 0
M  V30 5929 H 544.081 -4.27711 0.275973 0
M  V30 5930 H 548.265 -4.84507 1.07549 0
M  V30 5931 H 543.521 -5.7059 2.19628 0
M  V30 5932 H 547.695 -6.28748 2.99415 0
M  V30 5933 H 545.322 -6.71665 3.56047 0
M  V30 5934 N 546.897 -0.0685191 -1.57451 0
M  V30 5935 C 548.122 0.613919 -1.98106 0
M  V30 5936 C 548.547 1.62551 -0.946501 0
M  V30 5937 O 547.905 1.81085 0.0882824 0
M  V30 5938 C 547.953 1.26189 -3.378 0
M  V30 5939 O 547.057 2.37773 -3.36954 0
M  V30 5940 H 546.398 0.158163 -0.644888 0
M  V30 5941 H 548.928 -0.142063 -2.04106 0
M  V30 5942 H 548.938 1.60951 -3.74912 0
M  V30 5943 H 547.613 0.520625 -4.12629 0
M  V30 5944 H 546.19 2.04829 -3.11608 0
M  V30 5945 N 548.375 1.56261 0.205012 0
M  V30 5946 C 549.322 1.93754 1.25411 0
M  V30 5947 C 550.292 0.796826 1.45739 0
M  V30 5948 O 551.477 1.05414 1.59036 0
M  V30 5949 C 548.617 2.27383 2.59598 0
M  V30 5950 C 547.73 3.5447 2.46931 0
M  V30 5951 C 546.865 3.77468 3.73753 0
M  V30 5952 C 545.904 4.98014 3.55877 0
M  V30 5953 N 545.041 5.17316 4.74688 0
M  V30 5954 H 549.881 2.83203 0.92737 0
M  V30 5955 H 547.418 1.40158 0.446574 0
M  V30 5956 H 549.376 2.44895 3.37761 0
M  V30 5957 H 548.006 1.41088 2.90335 0
M  V30 5958 H 547.058 3.45061 1.60116 0
M  V30 5959 H 548.37 4.42789 2.29651 0
M  V30 5960 H 547.524 3.95165 4.60358 0
M  V30 5961 H 546.263 2.87461 3.93976 0
M  V30 5962 H 545.268 4.80249 2.67657 0
M  V30 5963 H 546.493 5.8952 3.37109 0
M  V30 5964 H 544.439 4.30255 4.95194 0
M  V30 5965 H 544.356 5.99796 4.60197 0
M  V30 5966 H 545.624 5.39463 5.62672 0
M  V30 5967 N 549.853 -0.472356 1.50355 0
M  V30 5968 C 550.816 -1.5529 1.68576 0
M  V30 5969 C 551.816 -1.50863 0.556511 0
M  V30 5970 O 553.006 -1.53505 0.823516 0
M  V30 5971 C 550.138 -2.94921 1.70981 0
M  V30 5972 H 551.331 -1.40451 2.64978 0
M  V30 5973 H 548.884 -0.698645 1.39816 0
M  V30 5974 H 549.619 -3.15204 0.762675 0
M  V30 5975 H 549.404 -2.99541 2.53017 0
M  V30 5976 H 550.894 -3.73372 1.87037 0
M  V30 5977 N 551.331 -1.39911 -0.725443 0
M  V30 5978 C 552.261 -1.42138 -1.85254 0
M  V30 5979 C 553.242 -0.283513 -1.67721 0
M  V30 5980 O 554.427 -0.490717 -1.87898 0
M  V30 5981 C 551.557 -1.27354 -3.23107 0
M  V30 5982 C 550.511 -2.3864 -3.55296 0
M  V30 5983 C 549.837 -2.08939 -4.92188 0
M  V30 5984 C 551.137 -3.8097 -3.57295 0
M  V30 5985 H 552.831 -2.36461 -1.83648 0
M  V30 5986 H 550.377 -1.13817 -0.882138 0
M  V30 5987 H 552.33 -1.2753 -4.01639 0
M  V30 5988 H 551.054 -0.295025 -3.25265 0
M  V30 5989 H 549.713 -2.37696 -2.79099 0
M  V30 5990 H 549.361 -1.09502 -4.90936 0
M  V30 5991 H 549.061 -2.83491 -5.14691 0
M  V30 5992 H 550.585 -2.10781 -5.73065 0
M  V30 5993 H 551.999 -3.8379 -4.25885 0
M  V30 5994 H 550.396 -4.5496 -3.9132 0
M  V30 5995 H 551.466 -4.11261 -2.5689 0
M  V30 5996 N 552.809 0.956637 -1.25245 0
M  V30 5997 C 553.772 2.03457 -1.05537 0
M  V30 5998 C 554.772 1.60798 -0.00886317 0
M  V30 5999 O 555.962 1.72384 -0.250865 0
M  V30 6000 C 553.094 3.35543 -0.601965 0
M  V30 6001 H 554.287 2.22372 -2.01223 0
M  V30 6002 H 551.84 1.13344 -1.07623 0
M  V30 6003 H 552.575 3.22323 0.357584 0
M  V30 6004 H 552.36 3.67854 -1.35743 0
M  V30 6005 H 553.85 4.14769 -0.485454 0
M  V30 6006 N 554.287 1.06798 1.15896 0
M  V30 6007 C 555.564 0.701057 1.82605 0
M  V30 6008 C 555.944 -0.817066 1.94646 0
M  V30 6009 O 555.292 -1.72933 1.49353 0
M  V30 6010 C 555.502 1.40895 3.19296 0
M  V30 6011 C 556.85 1.55744 3.95005 0
M  V30 6012 O 557.874 1.36927 3.28831 0
M  V30 6013 O 556.733 1.86658 5.13635 0
M  V30 6014 H 553.827 0.248791 0.78869 0
M  V30 6015 H 556.373 1.16857 1.23055 0
M  V30 6016 H 555.145 2.4439 3.05596 0
M  V30 6017 H 554.768 0.931847 3.86526 0
M  V30 6018 N 555.766 -1.3263 0.851289 0
M  V30 6019 C 556.696 -2.31449 0.308771 0
M  V30 6020 C 557.677 -1.59531 -0.590255 0
M  V30 6021 O 558.862 -1.87351 -0.511205 0
M  V30 6022 C 555.992 -3.43586 -0.506548 0
M  V30 6023 C 554.946 -4.26963 0.297753 0
M  V30 6024 C 554.272 -5.30831 -0.642094 0
M  V30 6025 C 555.572 -4.99643 1.52166 0
M  V30 6026 H 557.266 -2.77074 1.13447 0
M  V30 6027 H 554.812 -1.33207 0.546971 0
M  V30 6028 H 556.765 -4.11754 -0.896474 0
M  V30 6029 H 555.489 -2.96681 -1.36558 0
M  V30 6030 H 554.148 -3.60437 0.669391 0
M  V30 6031 H 553.796 -4.8018 -1.49788 0
M  V30 6032 H 553.496 -5.87501 -0.107968 0
M  V30 6033 H 555.02 -6.01862 -1.02927 0
M  V30 6034 H 556.434 -5.6051 1.20421 0
M  V30 6035 H 554.831 -5.66022 1.99347 0
M  V30 6036 H 555.901 -4.27701 2.28474 0
M  V30 6037 N 557.244 -0.608902 -1.45362 0
M  V30 6038 C 558.49 -0.104762 -2.02529 0
M  V30 6039 C 558.823 1.26191 -1.47613 0
M  V30 6040 O 558.098 1.8327 -0.65134 0
M  V30 6041 C 558.381 -0.0672661 -3.60037 0
M  V30 6042 C 558.234 -1.4647 -4.25284 0
M  V30 6043 C 559.553 0.619877 -4.35713 0
M  V30 6044 H 556.672 -0.0395438 -0.735938 0
M  V30 6045 H 559.314 -0.781126 -1.73201 0
M  V30 6046 H 557.464 0.50871 -3.85155 0
M  V30 6047 H 559.136 -2.08785 -4.11347 0
M  V30 6048 H 557.379 -2.02502 -3.83634 0
M  V30 6049 H 558.05 -1.39069 -5.34195 0
M  V30 6050 H 560.526 0.130297 -4.15896 0
M  V30 6051 H 559.402 0.615224 -5.45441 0
M  V30 6052 H 559.663 1.68621 -4.0868 0
M  V30 6053 N 558.722 1.53707 -0.348139 0
M  V30 6054 C 559.672 2.2193 0.522592 0
M  V30 6055 C 560.656 1.20831 1.06248 0
M  V30 6056 O 561.848 1.46357 0.995415 0
M  V30 6057 C 558.977 2.99904 1.6707 0
M  V30 6058 C 558.063 4.08364 1.14454 0
M  V30 6059 N 558.454 5.04656 0.339958 0
M  V30 6060 C 556.752 4.22757 1.421 0
M  V30 6061 C 557.453 5.81675 0.0538806 0
M  V30 6062 N 556.429 5.39739 0.646776 0
M  V30 6063 H 560.231 2.93733 -0.099135 0
M  V30 6064 H 557.745 1.61656 -0.15524 0
M  V30 6065 H 559.742 3.47284 2.30651 0
M  V30 6066 H 558.402 2.29629 2.29566 0
M  V30 6067 H 559.413 5.17896 -0.0193552 0
M  V30 6068 H 556.09 3.63704 2.05002 0
M  V30 6069 H 557.48 6.69256 -0.595443 0
M  V30 6070 N 560.2 0.0768682 1.57412 0
M  V30 6071 C 561.425 -0.603404 1.98428 0
M  V30 6072 C 561.85 -1.62047 0.955108 0
M  V30 6073 O 561.208 -1.81129 -0.0786778 0
M  V30 6074 C 561.256 -1.24396 3.38464 0
M  V30 6075 O 560.36 -2.35982 3.3821 0
M  V30 6076 H 559.701 -0.154741 0.645718 0
M  V30 6077 H 562.231 0.152885 2.04028 0
M  V30 6078 H 562.241 -1.5896 3.7576 0
M  V30 6079 H 560.916 -0.498735 4.12899 0
M  V30 6080 H 559.493 -2.03173 3.1269 0
M  V30 6081 N 561.678 -1.56367 -0.196722 0
M  V30 6082 C 562.628 -1.9082 -1.24787 0
M  V30 6083 C 563.612 -0.773719 -1.41076 0
M  V30 6084 O 564.804 -1.03655 -1.43474 0
M  V30 6085 C 561.933 -2.24982 -2.59303 0
M  V30 6086 C 561.019 -3.44882 -2.46814 0
M  V30 6087 N 561.41 -4.62835 -2.04003 0
M  V30 6088 C 559.708 -3.48988 -2.77711 0
M  V30 6089 C 560.409 -5.44993 -2.03366 0
M  V30 6090 N 559.385 -4.85356 -2.44807 0
M  V30 6091 H 563.187 -2.79516 -0.908175 0
M  V30 6092 H 560.701 -1.57265 -0.405166 0
M  V30 6093 H 562.698 -2.47848 -3.35227 0
M  V30 6094 H 561.358 -1.37611 -2.94098 0
M  V30 6095 H 562.369 -4.87532 -1.74738 0
M  V30 6096 H 559.046 -2.72029 -3.16712 0
M  V30 6097 H 560.436 -6.49464 -1.72181 0
M  V30 6098 N 563.156 0.464375 -1.50603 0
M  V30 6099 C 564.405 1.21277 -1.61167 0
M  V30 6100 C 564.718 1.92953 -0.320704 0
M  V30 6101 O 565.924 2.69778 -0.30534 0
M  V30 6102 C 564.38 2.20403 -2.84518 0
M  V30 6103 C 563.988 1.54499 -4.20516 0
M  V30 6104 C 565.732 2.95843 -3.0443 0
M  V30 6105 C 563.639 2.51951 -5.35047 0
M  V30 6106 H 562.569 0.456367 -0.600204 0
M  V30 6107 H 565.22 0.48254 -1.77042 0
M  V30 6108 H 563.602 2.96746 -2.62217 0
M  V30 6109 H 564.776 0.83899 -4.53098 0
M  V30 6110 H 563.091 0.913152 -4.06264 0
M  V30 6111 H 565.688 3.6879 -3.87167 0
M  V30 6112 H 566.031 3.55622 -2.16423 0
M  V30 6113 H 566.564 2.26611 -3.26944 0
M  V30 6114 H 563.303 1.96901 -6.25228 0
M  V30 6115 H 562.823 3.20683 -5.06875 0
M  V30 6116 H 564.502 3.13643 -5.65895 0
M  V30 6117 N 564.634 1.40294 0.718013 0
M  V30 6118 C 565.566 1.36281 1.84283 0
M  V30 6119 C 566.579 0.268621 1.60569 0
M  V30 6120 O 567.768 0.528798 1.70487 0
M  V30 6121 C 564.868 1.09741 3.2064 0
M  V30 6122 C 564.041 2.30767 3.71571 0
M  V30 6123 C 563.1 2.00424 4.86535 0
M  V30 6124 O 562.126 2.73268 4.99313 0
M  V30 6125 N 563.328 0.980724 5.72156 0
M  V30 6126 H 566.093 2.3322 1.88225 0
M  V30 6127 H 563.654 1.34616 0.899453 0
M  V30 6128 H 565.646 0.874322 3.95143 0
M  V30 6129 H 564.216 0.214771 3.11861 0
M  V30 6130 H 563.436 2.68921 2.88228 0
M  V30 6131 H 564.724 3.11455 4.02335 0
M  V30 6132 H 564.122 0.377375 5.6444 0
M  V30 6133 H 562.679 0.817538 6.46653 0
M  V30 6134 N 566.112 -0.949982 1.2575 0
M  V30 6135 C 567.337 -1.73503 1.13628 0
M  V30 6136 C 567.762 -1.85601 -0.30559 0
M  V30 6137 O 567.12 -1.33984 -1.22139 0
M  V30 6138 C 567.168 -3.1243 1.80055 0
M  V30 6139 O 566.272 -3.97916 1.08336 0
M  V30 6140 H 565.613 -0.532665 0.396439 0
M  V30 6141 H 568.143 -1.19043 1.66403 0
M  V30 6142 H 568.153 -3.62866 1.86527 0
M  V30 6143 H 566.828 -3.02941 2.84956 0
M  V30 6144 H 565.405 -3.56375 1.09777 0
M  V30 6145 N 567.59 -1.07411 -1.15328 0
M  V30 6146 C 568.538 -0.689316 -2.22151 0
M  V30 6147 C 569.532 0.300156 -1.6672 0
M  V30 6148 O 570.738 0.163804 -1.79253 0
M  V30 6149 H 567.113 -0.204834 -0.723566 0
M  V30 6150 H 569.084 -1.59988 -2.51886 0
M  V30 6151 C 567.833 -0.103848 -3.47545 0
M  V30 6152 H 567.156 -0.856367 -3.90521 0
M  V30 6153 H 568.596 0.127725 -4.23808 0
M  V30 6154 C 567.055 1.15563 -3.1646 0
M  V30 6155 O 567.585 2.242 -3.33312 0
M  V30 6156 N 565.791 1.06203 -2.70498 0
M  V30 6157 H 565.338 0.177933 -2.56985 0
M  V30 6158 H 565.296 1.90553 -2.50074 0
M  V30 6159 N 569.068 1.32177 -0.85831 0
M  V30 6160 C 569.978 2.32561 -0.308606 0
M  V30 6161 C 570.994 1.64209 0.575462 0
M  V30 6162 O 572.17 1.95719 0.474961 0
M  V30 6163 C 569.235 3.43207 0.490909 0
M  V30 6164 C 568.296 4.27243 -0.419733 0
M  V30 6165 C 567.529 5.32605 0.341719 0
M  V30 6166 O 567.752 5.48332 1.57125 0
M  V30 6167 O 566.686 6.0118 -0.294379 0
M  V30 6168 H 570.512 2.81477 -1.14037 0
M  V30 6169 H 568.097 1.35866 -0.621349 0
M  V30 6170 H 569.979 4.10677 0.944574 0
M  V30 6171 H 568.654 2.96474 1.29941 0
M  V30 6172 H 567.561 3.62569 -0.921652 0
M  V30 6173 H 568.894 4.7751 -1.19352 0
M  V30 6174 N 570.547 0.616602 1.45037 0
M  V30 6175 C 571.477 -0.0840787 2.33349 0
M  V30 6176 C 572.458 -0.849641 1.4736 0
M  V30 6177 O 573.643 -0.818407 1.76113 0
M  V30 6178 C 570.773 -1.07604 3.3021 0
M  V30 6179 C 569.727 -0.423096 4.25904 0
M  V30 6180 C 569.053 -1.52394 5.12523 0
M  V30 6181 C 570.353 0.661457 5.18095 0
M  V30 6182 H 572.047 0.653333 2.92185 0
M  V30 6183 H 569.593 0.315634 1.40498 0
M  V30 6184 H 571.546 -1.57485 3.90866 0
M  V30 6185 H 570.27 -1.84416 2.69552 0
M  V30 6186 H 568.929 0.05493 3.66559 0
M  V30 6187 H 568.577 -2.28257 4.48227 0
M  V30 6188 H 568.277 -1.09251 5.77354 0
M  V30 6189 H 569.801 -2.02485 5.76049 0
M  V30 6190 H 571.215 0.246353 5.7277 0
M  V30 6191 H 569.612 1.01517 5.91451 0
M  V30 6192 H 570.682 1.53446 4.59981 0
M  V30 6193 N 572.025 -1.5352 0.356285 0
M  V30 6194 C 573.265 -2.03027 -0.23649 0
M  V30 6195 C 573.629 -1.23813 -1.46746 0
M  V30 6196 O 574.83 -1.63281 -2.13525 0
M  V30 6197 C 573.101 -3.53442 -0.530415 0
M  V30 6198 S 574.66 -4.24836 -1.09819 0
M  V30 6199 H 571.478 -0.707591 -0.0695378 0
M  V30 6200 H 574.08 -1.89077 0.496999 0
M  V30 6201 H 572.784 -4.087 0.373114 0
M  V30 6202 H 572.315 -3.71536 -1.29323 0
M  V30 6203 H 574.33 -4.35228 -2.38309 0
M  V30 6204 N 573.503 -0.0852151 -1.57369 0
M  V30 6205 C 574.728 0.592872 -1.98746 0
M  V30 6206 C 575.153 1.61538 -0.963689 0
M  V30 6207 O 574.511 1.81168 0.069071 0
M  V30 6208 C 574.559 1.22599 -3.39119 0
M  V30 6209 O 573.663 2.34185 -3.39457 0
M  V30 6210 H 573.004 0.151314 -0.646529 0
M  V30 6211 H 575.534 -0.163703 -2.03944 0
M  V30 6212 H 575.544 1.56965 -3.76598 0
M  V30 6213 H 574.219 0.476831 -4.13158 0
M  V30 6214 H 572.796 2.01512 -3.13763 0
M  V30 6215 N 574.981 1.5647 0.188427 0
M  V30 6216 C 575.928 1.95073 1.23349 0
M  V30 6217 C 576.898 0.812238 1.44886 0
M  V30 6218 O 578.083 1.07095 1.57909 0
M  V30 6219 C 575.223 2.30124 2.57171 0
M  V30 6220 C 574.336 3.57069 2.43157 0
M  V30 6221 C 573.471 3.81411 3.69729 0
M  V30 6222 C 572.51 5.0176 3.50575 0
M  V30 6223 N 571.647 5.22321 4.69175 0
M  V30 6224 H 576.487 2.84171 0.89728 0
M  V30 6225 H 574.024 1.40623 0.431683 0
M  V30 6226 H 575.982 2.48463 3.35145 0
M  V30 6227 H 574.612 1.44159 2.88822 0
M  V30 6228 H 573.664 3.4674 1.56447 0
M  V30 6229 H 574.976 4.452 2.24942 0
M  V30 6230 H 574.13 4.00026 4.56141 0
M  V30 6231 H 572.869 2.91624 3.90905 0
M  V30 6232 H 571.874 4.83061 2.62549 0
M  V30 6233 H 573.099 5.93063 3.30837 0
M  V30 6234 H 571.045 4.35483 4.90602 0
M  V30 6235 H 570.962 6.04643 4.53809 0
M  V30 6236 H 572.23 5.45401 5.56919 0
M  V30 6237 N 576.459 -0.456382 1.50847 0
M  V30 6238 C 577.391 -1.57033 1.66953 0
M  V30 6239 C 578.404 -1.53207 0.550593 0
M  V30 6240 O 579.593 -1.58328 0.824285 0
M  V30 6241 C 576.693 -2.95937 1.65149 0
M  V30 6242 C 575.866 -3.24475 2.93317 0
M  V30 6243 C 574.925 -4.43007 2.83957 0
M  V30 6244 O 573.951 -4.42592 3.57912 0
M  V30 6245 N 575.153 -5.45503 1.9851 0
M  V30 6246 H 577.918 -1.43629 2.63042 0
M  V30 6247 H 575.479 -0.645037 1.48495 0
M  V30 6248 H 577.471 -3.73224 1.56481 0
M  V30 6249 H 576.041 -3.03036 0.767343 0
M  V30 6250 H 575.261 -2.35664 3.16 0
M  V30 6251 H 576.549 -3.4036 3.78196 0
M  V30 6252 H 575.947 -5.48668 1.37766 0
M  V30 6253 H 574.504 -6.21716 1.95735 0
M  V30 6254 N 577.937 -1.40673 -0.710563 0
M  V30 6255 C 578.867 -1.44095 -1.83736 0
M  V30 6256 C 579.848 -0.301286 -1.67411 0
M  V30 6257 O 581.033 -0.510618 -1.87367 0
M  V30 6258 C 578.163 -1.30773 -3.21738 0
M  V30 6259 C 577.117 -2.42395 -3.52745 0
M  V30 6260 C 576.443 -2.14147 -4.89944 0
M  V30 6261 C 577.743 -3.84738 -3.53234 0
M  V30 6262 H 579.437 -2.38396 -1.81129 0
M  V30 6263 H 576.983 -1.14746 -0.870017 0
M  V30 6264 H 578.936 -1.31783 -4.00264 0
M  V30 6265 H 577.66 -0.329507 -3.24934 0
M  V30 6266 H 576.319 -2.40643 -2.76562 0
M  V30 6267 H 575.967 -1.14703 -4.89747 0
M  V30 6268 H 575.667 -2.88934 -5.11655 0
M  V30 6269 H 577.191 -2.16848 -5.70797 0
M  V30 6270 H 578.605 -3.88286 -4.2179 0
M  V30 6271 H 577.002 -4.59085 -3.86473 0
M  V30 6272 H 578.072 -4.13962 -2.52514 0
M  V30 6273 N 579.415 0.9433 -1.26252 0
M  V30 6274 C 580.643 1.72367 -1.14443 0
M  V30 6275 C 581.058 1.86392 0.300572 0
M  V30 6276 O 580.415 1.36978 1.20596 0
M  V30 6277 C 580.466 3.13155 -1.806 0
M  V30 6278 O 580.187 2.99803 -3.19452 0
M  V30 6279 C 581.688 4.07417 -1.74717 0
M  V30 6280 H 578.908 0.539758 -0.398626 0
M  V30 6281 H 581.452 1.18268 -1.66832 0
M  V30 6282 H 579.607 3.64162 -1.32154 0
M  V30 6283 H 580.021 3.88697 -3.52158 0
M  V30 6284 H 581.495 5.03773 -2.25647 0
M  V30 6285 H 581.972 4.3337 -0.713244 0
M  V30 6286 H 582.578 3.6233 -2.22704 0
M  V30 6287 N 580.893 1.08022 1.14757 0
M  V30 6288 C 581.823 0.728248 2.21853 0
M  V30 6289 C 582.804 -0.287486 1.67653 0
M  V30 6290 O 583.989 -0.158727 1.9355 0
M  V30 6291 C 581.119 0.132549 3.47047 0
M  V30 6292 C 580.073 1.07619 4.14249 0
M  V30 6293 C 579.399 0.342907 5.33599 0
M  V30 6294 C 580.699 2.41268 4.63235 0
M  V30 6295 H 582.393 1.62365 2.51551 0
M  V30 6296 H 579.939 0.782125 1.20908 0
M  V30 6297 H 581.892 -0.125665 4.21213 0
M  V30 6298 H 580.616 -0.797971 3.16702 0
M  V30 6299 H 579.275 1.31944 3.42033 0
M  V30 6300 H 578.923 -0.59129 4.99513 0
M  V30 6301 H 578.623 0.971955 5.79506 0
M  V30 6302 H 580.147 0.0926538 6.1053 0
M  V30 6303 H 581.561 2.21232 5.28894 0
M  V30 6304 H 579.958 2.9983 5.19829 0
M  V30 6305 H 581.028 3.03079 3.78512 0
M  V30 6306 N 582.371 -1.3172 0.865308 0
M  V30 6307 C 583.596 -2.01591 0.487415 0
M  V30 6308 C 584.021 -1.6455 -0.911307 0
M  V30 6309 O 583.379 -0.851689 -1.6005 0
M  V30 6310 C 583.427 -3.54759 0.646401 0
M  V30 6311 O 582.531 -4.11185 -0.316284 0
M  V30 6312 H 581.872 -0.634884 0.194468 0
M  V30 6313 H 584.402 -1.68024 1.16744 0
M  V30 6314 H 584.412 -4.04438 0.537932 0
M  V30 6315 H 583.087 -3.8106 1.66632 0
M  V30 6316 H 581.664 -3.72543 -0.163162 0
M  V30 6317 N 583.85 -0.624285 -1.44708 0
M  V30 6318 C 585.09 -0.129273 -2.03991 0
M  V30 6319 C 585.454 1.22321 -1.47992 0
M  V30 6320 O 586.654 1.80993 -1.98734 0
M  V30 6321 C 584.926 -0.108231 -3.57236 0
M  V30 6322 S 586.485 0.323158 -4.37608 0
M  V30 6323 H 583.303 -0.0577318 -0.708652 0
M  V30 6324 H 585.904 -0.826139 -1.77187 0
M  V30 6325 H 584.609 -1.0958 -3.955 0
M  V30 6326 H 584.139 0.610101 -3.8864 0
M  V30 6327 H 586.154 1.56894 -4.70743 0
M  V30 6328 N 585.328 1.53329 -0.364422 0
M  V30 6329 C 586.739 1.86345 0.115039 0
M  V30 6330 C 587.09 1.28505 1.4826 0
M  V30 6331 O 586.215 0.606639 2.07723 0
M  V30 6332 C 586.81 3.38114 0.215522 0
M  V30 6333 C 585.369 3.70932 0.639237 0
M  V30 6334 C 584.516 2.76471 -0.214261 0
M  V30 6335 H 587.467 1.47593 -0.583258 0
M  V30 6336 H 587.488 3.66031 1.0393 0
M  V30 6337 H 587 3.80182 -0.779948 0
M  V30 6338 H 585.101 3.3442 1.64298 0
M  V30 6339 H 585.214 4.77302 0.41465 0
M  V30 6340 H 583.578 2.52724 0.316678 0
M  V30 6341 H 584.361 3.21373 -1.20725 0
M  V30 6342 N 586.806 0.0935595 1.57322 0
M  V30 6343 C 587.736 -0.863062 2.16964 0
M  V30 6344 C 588.717 -1.29528 1.10256 0
M  V30 6345 O 589.902 -1.36245 1.38387 0
M  V30 6346 C 587.032 -2.12276 2.74875 0
M  V30 6347 C 585.986 -1.82921 3.86942 0
M  V30 6348 C 585.312 -3.15707 4.31548 0
M  V30 6349 C 586.612 -1.11737 5.10208 0
M  V30 6350 H 588.306 -0.366145 2.97153 0
M  V30 6351 H 585.852 -0.174673 1.42937 0
M  V30 6352 H 587.805 -2.79634 3.1525 0
M  V30 6353 H 586.529 -2.64248 1.91938 0
M  V30 6354 H 585.188 -1.17961 3.47103 0
M  V30 6355 H 584.836 -3.65563 3.45504 0
M  V30 6356 H 584.536 -2.96849 5.07104 0
M  V30 6357 H 586.06 -3.84226 4.74555 0
M  V30 6358 H 587.474 -1.69203 5.47762 0
M  V30 6359 H 585.871 -1.03064 5.91183 0
M  V30 6360 H 586.941 -0.0998818 4.84797 0
M  V30 6361 N 588.284 -1.56567 -0.180126 0
M  V30 6362 C 589.524 -1.83285 -0.904761 0
M  V30 6363 C 589.888 -0.673226 -1.7981 0
M  V30 6364 O 591.089 -0.820645 -2.55967 0
M  V30 6365 C 589.36 -3.15086 -1.68688 0
M  V30 6366 S 590.919 -3.63258 -2.46149 0
M  V30 6367 H 587.737 -0.643114 -0.303193 0
M  V30 6368 H 590.339 -1.94785 -0.167034 0
M  V30 6369 H 589.043 -3.97484 -1.02148 0
M  V30 6370 H 588.574 -3.06504 -2.46615 0
M  V30 6371 H 590.589 -3.29884 -3.70663 0
M  V30 6372 N 589.762 0.448376 -1.51087 0
M  V30 6373 C 591.008 1.20049 -1.6345 0
M  V30 6374 C 591.341 1.91121 -0.344444 0
M  V30 6375 O 590.616 1.83125 0.655396 0
M  V30 6376 C 590.899 2.22624 -2.83038 0
M  V30 6377 C 590.752 1.55708 -4.21989 0
M  V30 6378 C 592.071 3.23718 -2.98152 0
M  V30 6379 H 589.19 0.435085 -0.59487 0
M  V30 6380 H 591.832 0.491183 -1.83541 0
M  V30 6381 H 589.982 2.83117 -2.66039 0
M  V30 6382 H 591.654 0.986367 -4.50631 0
M  V30 6383 H 589.897 0.859647 -4.25197 0
M  V30 6384 H 590.568 2.30357 -5.01637 0
M  V30 6385 H 593.044 2.73269 -3.13788 0
M  V30 6386 H 591.92 3.92795 -3.83411 0
M  V30 6387 H 592.181 3.89179 -2.09743 0
M  V30 6388 N 591.24 1.41047 0.703093 0
M  V30 6389 C 592.188 1.42494 1.83843 0
M  V30 6390 C 593.182 0.303885 1.66652 0
M  V30 6391 O 594.388 0.475544 1.73605 0
M  V30 6392 H 590.763 0.445685 0.605697 0
M  V30 6393 H 592.734 2.38194 1.79739 0
M  V30 6394 C 591.483 1.31666 3.21807 0
M  V30 6395 H 590.806 2.17212 3.35647 0
M  V30 6396 H 592.246 1.36738 4.01346 0
M  V30 6397 C 590.705 0.0281828 3.36888 0
M  V30 6398 O 591.235 -0.929995 3.90786 0
M  V30 6399 N 589.441 -0.0454322 2.90564 0
M  V30 6400 H 588.988 0.735046 2.4689 0
M  V30 6401 H 588.946 -0.906968 3.01034 0
M  V30 6402 N 592.718 -0.936591 1.26751 0
M  V30 6403 C 594.129 -1.49816 1.1141 0
M  V30 6404 C 594.48 -1.9383 -0.304015 0
M  V30 6405 O 593.605 -1.80346 -1.196 0
M  V30 6406 C 594.2 -2.72271 2.01629 0
M  V30 6407 C 592.759 -3.2468 1.9042 0
M  V30 6408 C 591.906 -1.97444 1.94708 0
M  V30 6409 H 594.857 -0.751604 1.39773 0
M  V30 6410 H 594.878 -3.46741 1.56688 0
M  V30 6411 H 594.39 -2.40205 3.04833 0
M  V30 6412 H 592.491 -3.61525 0.901674 0
M  V30 6413 H 592.604 -3.91476 2.76195 0
M  V30 6414 H 590.968 -2.13545 1.38818 0
M  V30 6415 H 591.751 -1.67703 2.9955 0
M  V30 6416 N 594.196 -1.08629 -1.14182 0
M  V30 6417 C 595.442 -0.818556 -1.85546 0
M  V30 6418 C 595.775 0.654076 -1.82854 0
M  V30 6419 O 595.05 1.48099 -1.26083 0
M  V30 6420 C 595.333 -1.34397 -3.3408 0
M  V30 6421 C 595.186 -2.8821 -3.45333 0
M  V30 6422 C 596.505 -0.971069 -4.29253 0
M  V30 6423 H 593.624 -0.298821 -0.673702 0
M  V30 6424 H 596.266 -1.34629 -1.34071 0
M  V30 6425 H 594.416 -0.895064 -3.78049 0
M  V30 6426 H 596.088 -3.41488 -3.10134 0
M  V30 6427 H 594.331 -3.25756 -2.86471 0
M  V30 6428 H 595.002 -3.20047 -4.49749 0
M  V30 6429 H 597.478 -1.35809 -3.93313 0
M  V30 6430 H 596.354 -1.36586 -5.31635 0
M  V30 6431 H 596.615 0.121659 -4.41933 0
M  V30 6432 N 595.674 1.31259 -0.872281 0
M  V30 6433 C 596.914 1.98418 -0.490894 0
M  V30 6434 C 597.278 1.67429 0.939755 0
M  V30 6435 O 598.479 2.27818 1.42661 0
M  V30 6436 C 596.75 3.49583 -0.743408 0
M  V30 6437 S 598.309 4.36359 -0.462226 0
M  V30 6438 H 595.127 0.687005 -0.183151 0
M  V30 6439 H 597.729 1.59619 -1.12881 0
M  V30 6440 H 596.433 3.69627 -1.78338 0
M  V30 6441 H 595.964 3.93291 -0.0925758 0
M  V30 6442 H 597.979 4.91173 0.704525 0
M  V30 6443 N 597.152 0.631951 1.44375 0
M  V30 6444 C 598.568 0.297642 1.568 0
M  V30 6445 C 598.768 -1.19916 1.61934 0
M  V30 6446 O 597.824 -1.98324 1.56281 0
M  V30 6447 C 599.137 0.990286 2.83926 0
M  V30 6448 C 600.685 0.968507 2.97639 0
M  V30 6449 C 601.16 1.64163 4.27568 0
M  V30 6450 N 602.651 1.60826 4.34384 0
M  V30 6451 C 603.386 2.09802 5.33639 0
M  V30 6452 N 602.882 2.66973 6.39294 0
M  V30 6453 N 604.675 2.00426 5.25153 0
M  V30 6454 H 596.826 1.60353 1.39286 0
M  V30 6455 H 599.089 0.673142 0.667521 0
M  V30 6456 H 598.795 2.04519 2.8612 0
M  V30 6457 H 598.669 0.528563 3.73478 0
M  V30 6458 H 601.056 -0.0779247 2.94997 0
M  V30 6459 H 601.137 1.46873 2.09433 0
M  V30 6460 H 600.781 2.68752 4.3097 0
M  V30 6461 H 600.711 1.11624 5.14634 0
M  V30 6462 H 603.202 1.19087 3.58646 0
M  V30 6463 H 603.515 3.02074 7.11316 0
M  V30 6464 H 601.86 2.71024 6.39977 0
M  V30 6465 H 605.051 1.55483 4.41523 0
M  V30 6466 H 605.224 2.38906 6.02352 0
M  V30 6467 N 598.631 -1.53133 0.372548 0
M  V30 6468 C 599.541 -2.29671 -0.478379 0
M  V30 6469 C 600.557 -1.35913 -1.08644 0
M  V30 6470 O 601.733 -1.68975 -1.09588 0
M  V30 6471 C 598.798 -3.07625 -1.599 0
M  V30 6472 C 597.859 -4.17061 -1.01776 0
M  V30 6473 C 597.092 -4.91289 -2.08497 0
M  V30 6474 O 597.315 -4.65442 -3.29727 0
M  V30 6475 O 596.249 -5.7705 -1.71164 0
M  V30 6476 H 600.075 -3.03355 0.144649 0
M  V30 6477 H 597.66 -1.48773 0.136729 0
M  V30 6478 H 599.542 -3.56281 -2.25038 0
M  V30 6479 H 598.217 -2.3677 -2.2073 0
M  V30 6480 H 597.124 -3.72641 -0.330098 0
M  V30 6481 H 598.457 -4.90102 -0.453915 0
M  V30 6482 N 600.109 -0.101901 -1.5727 0
M  V30 6483 C 601.337 0.568392 -1.98939 0
M  V30 6484 C 601.752 1.61301 -0.981194 0
M  V30 6485 O 601.109 1.82478 0.0282869 0
M  V30 6486 C 601.16 1.20997 -3.40649 0
M  V30 6487 O 600.881 0.207129 -4.3761 0
M  V30 6488 C 602.382 1.96523 -3.97358 0
M  V30 6489 H 599.602 0.15186 -0.65359 0
M  V30 6490 H 602.146 -0.183198 -2.03678 0
M  V30 6491 H 600.301 1.91245 -3.36904 0
M  V30 6492 H 600.715 0.671071 -5.20189 0
M  V30 6493 H 602.189 2.36764 -4.98645 0
M  V30 6494 H 602.666 2.83376 -3.35552 0
M  V30 6495 H 603.272 1.31076 -4.04598 0
M  V30 6496 N 601.587 1.56661 0.17182 0
M  V30 6497 C 602.534 1.96371 1.21273 0
M  V30 6498 C 603.504 0.82756 1.44016 0
M  V30 6499 O 604.689 1.08764 1.56764 0
M  V30 6500 C 601.829 2.32838 2.54716 0
M  V30 6501 C 600.942 3.59628 2.39356 0
M  V30 6502 C 600.077 3.85311 3.65662 0
M  V30 6503 C 599.116 5.0545 3.45234 0
M  V30 6504 N 598.253 5.27268 4.63608 0
M  V30 6505 H 603.093 2.85106 0.86709 0
M  V30 6506 H 600.63 1.41073 0.416744 0
M  V30 6507 H 602.588 2.52004 3.3249 0
M  V30 6508 H 601.218 1.47214 2.87277 0
M  V30 6509 H 600.27 3.4838 1.52761 0
M  V30 6510 H 601.582 4.4756 2.20207 0
M  V30 6511 H 600.736 4.04841 4.51872 0
M  V30 6512 H 599.475 2.95753 3.8779 0
M  V30 6513 H 598.48 4.85819 2.5741 0
M  V30 6514 H 599.705 5.96538 3.24529 0
M  V30 6515 H 597.651 4.40662 4.85956 0
M  V30 6516 H 597.568 6.09422 4.4737 0
M  V30 6517 H 598.836 5.51277 5.51103 0
M  V30 6518 N 603.065 -0.440357 1.51323 0
M  V30 6519 C 604.29 -1.21716 1.67928 0
M  V30 6520 C 604.715 -1.84328 0.374826 0
M  V30 6521 O 604.073 -1.68675 -0.664706 0
M  V30 6522 C 604.121 -2.27914 2.79442 0
M  V30 6523 O 603.225 -3.33325 2.42834 0
M  V30 6524 H 602.566 -0.35674 0.560029 0
M  V30 6525 H 605.096 -0.520417 1.97871 0
M  V30 6526 H 605.106 -2.72746 3.03436 0
M  V30 6527 H 603.781 -1.8172 3.741 0
M  V30 6528 H 602.358 -2.9399 2.294 0
M  V30 6529 N 604.543 -1.41418 -0.695603 0
M  V30 6530 C 605.79 -1.40774 -1.45564 0
M  V30 6531 C 606.118 -0.0168604 -1.94493 0
M  V30 6532 O 605.373 0.971259 -1.69897 0
M  V30 6533 C 605.672 -2.36112 -2.68302 0
M  V30 6534 C 605.338 -3.82952 -2.38031 0
M  V30 6535 C 604 -4.22954 -2.29486 0
M  V30 6536 C 606.352 -4.75662 -2.13061 0
M  V30 6537 C 603.68 -5.53674 -1.94067 0
M  V30 6538 C 606.032 -6.06702 -1.79151 0
M  V30 6539 C 604.696 -6.45725 -1.69102 0
M  V30 6540 H 603.966 -0.515128 -0.532658 0
M  V30 6541 H 606.613 -1.74216 -0.795047 0
M  V30 6542 H 604.918 -1.95924 -3.39295 0
M  V30 6543 H 606.615 -2.32887 -3.26442 0
M  V30 6544 H 603.205 -3.5127 -2.45576 0
M  V30 6545 H 607.389 -4.45561 -2.18608 0
M  V30 6546 H 602.645 -5.8279 -1.8484 0
M  V30 6547 H 606.819 -6.78041 -1.5885 0
M  V30 6548 H 604.446 -7.46929 -1.41426 0
M  V30 6549 N 606.021 0.929856 -1.27246 0
M  V30 6550 C 607.268 1.67731 -1.13457 0
M  V30 6551 C 607.596 1.9185 0.319998 0
M  V30 6552 O 606.851 1.50524 1.25064 0
M  V30 6553 C 607.15 3.05116 -1.86115 0
M  V30 6554 C 606.816 3.00715 -3.35978 0
M  V30 6555 C 605.478 2.99222 -3.76855 0
M  V30 6556 C 607.83 2.92168 -4.3161 0
M  V30 6557 C 605.158 2.86962 -5.11732 0
M  V30 6558 C 607.51 2.81449 -5.66542 0
M  V30 6559 C 606.174 2.78305 -6.06715 0
M  V30 6560 H 605.444 0.613772 -0.415168 0
M  V30 6561 H 608.091 1.08456 -1.57827 0
M  V30 6562 H 606.396 3.68083 -1.34246 0
M  V30 6563 H 608.093 3.61822 -1.72876 0
M  V30 6564 H 604.683 3.02664 -3.03468 0
M  V30 6565 H 608.867 2.92421 -4.01003 0
M  V30 6566 H 604.123 2.82913 -5.42006 0
M  V30 6567 H 608.297 2.738 -6.40317 0
M  V30 6568 H 605.924 2.68561 -7.11181 0
M  V30 6569 N 607.499 1.09233 1.13605 0
M  V30 6570 C 608.727 0.848908 1.88683 0
M  V30 6571 C 609.142 -0.599667 1.79024 0
M  V30 6572 O 608.499 -1.41265 1.15544 0
M  V30 6573 C 608.55 1.27273 3.38355 0
M  V30 6574 O 608.271 2.66449 3.47759 0
M  V30 6575 C 609.772 1.0614 4.30406 0
M  V30 6576 H 606.992 0.305549 0.597395 0
M  V30 6577 H 609.536 1.4538 1.43823 0
M  V30 6578 H 607.691 0.711776 3.80805 0
M  V30 6579 H 608.105 2.84264 4.40788 0
M  V30 6580 H 609.579 1.40725 5.33761 0
M  V30 6581 H 610.056 -0.000960332 4.392 0
M  V30 6582 H 610.662 1.60821 3.93722 0
M  V30 6583 N 608.977 -1.30795 0.87923 0
M  V30 6584 C 610.202 -2.01063 0.508769 0
M  V30 6585 C 610.627 -1.65508 -0.893803 0
M  V30 6586 O 609.985 -0.868616 -1.59138 0
M  V30 6587 C 610.033 -3.54054 0.683991 0
M  V30 6588 O 609.137 -4.11498 -0.272654 0
M  V30 6589 H 608.478 -0.632786 0.201191 0
M  V30 6590 H 611.008 -1.66776 1.18519 0
M  V30 6591 H 611.018 -4.03845 0.580798 0
M  V30 6592 H 609.693 -3.79271 1.70665 0
M  V30 6593 H 608.27 -3.72695 -0.12364 0
M  V30 6594 N 610.455 -0.639598 -1.44038 0
M  V30 6595 C 611.387 0.0987684 -2.28987 0
M  V30 6596 C 612.4 0.80058 -1.41755 0
M  V30 6597 O 613.589 0.660611 -1.65826 0
M  V30 6598 C 610.689 1.16242 -3.18341 0
M  V30 6599 C 609.862 0.541447 -4.34036 0
M  V30 6600 C 608.921 1.50017 -5.04362 0
M  V30 6601 O 607.947 1.01403 -5.60095 0
M  V30 6602 N 609.149 2.83441 -5.06598 0
M  V30 6603 H 611.914 -0.630305 -2.92997 0
M  V30 6604 H 609.475 -0.481376 -1.54578 0
M  V30 6605 H 611.467 1.80429 -3.62253 0
M  V30 6606 H 610.037 1.79362 -2.56024 0
M  V30 6607 H 609.257 -0.27923 -3.9321 0
M  V30 6608 H 610.545 0.107379 -5.08687 0
M  V30 6609 H 609.943 3.2551 -4.62666 0
M  V30 6610 H 608.5 3.42966 -5.54272 0
M  V30 6611 N 611.933 1.52934 -0.380664 0
M  V30 6612 C 612.865 2.23822 0.493581 0
M  V30 6613 C 613.878 1.25761 1.03383 0
M  V30 6614 O 615.067 1.5189 0.937633 0
M  V30 6615 C 612.167 2.9342 1.69582 0
M  V30 6616 C 611.34 4.18115 1.28445 0
M  V30 6617 C 610.399 4.70788 2.35042 0
M  V30 6618 O 609.425 5.34093 1.96807 0
M  V30 6619 N 610.627 4.49899 3.66839 0
M  V30 6620 H 613.392 2.99484 -0.11371 0
M  V30 6621 H 610.953 1.60577 -0.206587 0
M  V30 6622 H 612.945 3.2556 2.40401 0
M  V30 6623 H 611.515 2.21119 2.20965 0
M  V30 6624 H 610.735 3.92109 0.405503 0
M  V30 6625 H 612.023 4.99152 0.986132 0
M  V30 6626 H 611.421 3.99349 4.0067 0
M  V30 6627 H 609.978 4.86551 4.33718 0
M  V30 6628 N 613.412 0.11024 1.57214 0
M  V30 6629 C 614.342 -0.840002 2.17867 0
M  V30 6630 C 615.323 -1.28352 1.11624 0
M  V30 6631 O 616.508 -1.3477 1.39824 0
M  V30 6632 C 613.638 -2.09349 2.77111 0
M  V30 6633 C 612.592 -1.78807 3.8886 0
M  V30 6634 C 611.918 -3.11112 4.34872 0
M  V30 6635 C 613.218 -1.0632 5.11364 0
M  V30 6636 H 614.912 -0.334608 2.97524 0
M  V30 6637 H 612.458 -0.159502 1.43114 0
M  V30 6638 H 614.411 -2.76275 3.18198 0
M  V30 6639 H 613.135 -2.62198 1.9473 0
M  V30 6640 H 611.794 -1.14273 3.48335 0
M  V30 6641 H 611.442 -3.61877 3.49362 0
M  V30 6642 H 611.142 -2.91453 5.10224 0
M  V30 6643 H 612.666 -3.79171 4.78604 0
M  V30 6644 H 614.08 -1.63383 5.49526 0
M  V30 6645 H 612.477 -0.967876 5.92243 0
M  V30 6646 H 613.547 -0.0484569 4.84876 0
M  V30 6647 O 614.929 -1.61473 -0.0293866 0
M  V30 6648 H 615.62 -1.82469 -0.649975 0
M  V30 END ATOM
M  V30 BEGIN BOND
M  V30 END BOND
M  V30 END CTAB
M  END
$$$$
