drugbank_target|Q7L5Y9 Macrophage erythroblast attacher (DB05389)
 OpenBabel12092120313D

  0  0  0     0  0            999 V3000
M  V30 BEGIN CTAB
M  V30 COUNTS 6372 6427 0 0 0
M  V30 BEGIN ATOM
M  V30 1 H -0.908 1.98254 -0.117106 0
M  V30 2 N 0 1.576 0 0
M  V30 3 C 0.933 2.03868 1.02534 0
M  V30 4 C 1.911 0.928543 1.3348 0
M  V30 5 O 3.095 1.19667 1.45644 0
M  V30 6 C 0.222 2.43627 2.35294 0
M  V30 7 C -0.732 3.65373 2.2001 0
M  V30 8 S 0.101 5.13292 1.52614 0
M  V30 9 C 1.257 5.56322 2.86805 0
M  V30 10 H 1.49 2.90518 0.631377 0
M  V30 11 H -0.977 1.52953 0.210867 0
M  V30 12 H 0.981 2.67203 3.11629 0
M  V30 13 H -0.358 1.57376 2.7183 0
M  V30 14 H -1.165 3.90944 3.18086 0
M  V30 15 H -1.563 3.418 1.51819 0
M  V30 16 H 0.729 5.58782 3.83104 0
M  V30 17 H 1.672 6.56266 2.65933 0
M  V30 18 H 2.08 4.83886 2.90714 0
M  V30 19 N 1.4781 -0.272755 1.55222 0
M  V30 20 C 2.4411 -1.32041 1.87344 0
M  V30 21 C 3.4411 -1.42342 0.74803 0
M  V30 22 O 4.6311 -1.41488 1.0162 0
M  V30 23 C 1.7631 -2.70173 2.07893 0
M  V30 24 H 2.9561 -1.04789 2.80997 0
M  V30 25 H 0.5091 -0.51083 1.47717 0
M  V30 26 H 1.2441 -3.02605 1.16622 0
M  V30 27 H 1.0291 -2.64082 2.89833 0
M  V30 28 H 2.5191 -3.45869 2.34017 0
M  V30 29 N 2.9562 -1.48159 -0.537278 0
M  V30 30 C 4.2022 -1.56035 -1.29541 0
M  V30 31 C 4.5352 -0.230377 -1.92829 0
M  V30 32 O 3.8102 0.762952 -1.78911 0
M  V30 33 C 4.0932 -2.69323 -2.39034 0
M  V30 34 C 3.9462 -4.12002 -1.80485 0
M  V30 35 C 5.2652 -2.78408 -3.40847 0
M  V30 36 H 2.3842 -0.567992 -0.469632 0
M  V30 37 H 5.0262 -1.80302 -0.599277 0
M  V30 38 H 3.1762 -2.48763 -2.98412 0
M  V30 39 H 4.8482 -4.43981 -1.25215 0
M  V30 40 H 3.0912 -4.19344 -1.11055 0
M  V30 41 H 3.7622 -4.87077 -2.59731 0
M  V30 42 H 6.2382 -2.97012 -2.91416 0
M  V30 43 H 5.1142 -3.59416 -4.14863 0
M  V30 44 H 5.3752 -1.86269 -4.00944 0
M  V30 45 N 4.4343 0.785586 -1.36625 0
M  V30 46 C 5.3663 1.90711 -1.2713 0
M  V30 47 C 6.3793 1.61688 -0.189986 0
M  V30 48 O 7.5683 1.72864 -0.445014 0
M  V30 49 C 4.6683 3.25611 -0.939713 0
M  V30 50 C 3.8413 3.82385 -2.12369 0
M  V30 51 C 2.9003 4.95732 -1.76456 0
M  V30 52 O 1.9263 5.12047 -2.48589 0
M  V30 53 N 3.1283 5.76258 -0.700492 0
M  V30 54 H 5.8933 1.99376 -2.23762 0
M  V30 55 H 3.4543 0.964041 -1.30069 0
M  V30 56 H 5.4463 3.98937 -0.680554 0
M  V30 57 H 4.0163 3.12538 -0.0624074 0
M  V30 58 H 3.2363 3.01001 -2.54543 0
M  V30 59 H 4.5243 4.17047 -2.9146 0
M  V30 60 H 3.9223 5.65609 -0.101624 0
M  V30 61 H 2.4793 6.4987 -0.501165 0
M  V30 62 N 5.9124 1.20967 1.01018 0
M  V30 63 C 6.8224 0.980157 2.13143 0
M  V30 64 C 7.8384 -0.0660665 1.73875 0
M  V30 65 O 9.0144 0.122821 2.01025 0
M  V30 66 C 6.0794 0.54216 3.42435 0
M  V30 67 C 5.1404 1.65999 3.95908 0
M  V30 68 C 4.3734 1.2428 5.19028 0
M  V30 69 O 4.5964 0.114196 5.70286 0
M  V30 70 O 3.5304 2.05271 5.65816 0
M  V30 71 H 7.3564 1.91913 2.35379 0
M  V30 72 H 4.9414 0.994099 1.11526 0
M  V30 73 H 6.8234 0.30744 4.20277 0
M  V30 74 H 5.4984 -0.36815 3.216 0
M  V30 75 H 4.4054 1.94906 3.19316 0
M  V30 76 H 5.7384 2.54753 4.21143 0
M  V30 77 N 7.3905 -1.2043 1.01659 0
M  V30 78 C 8.6155 -1.94318 0.724942 0
M  V30 79 C 9.0405 -1.74266 -0.708034 0
M  V30 80 O 8.3985 -1.03694 -1.48719 0
M  V30 81 C 8.4465 -3.44486 1.06591 0
M  V30 82 O 7.5505 -4.12017 0.177599 0
M  V30 83 H 6.8915 -0.60708 0.26898 0
M  V30 84 H 9.4215 -1.52861 1.35995 0
M  V30 85 H 9.4315 -3.95106 1.01762 0
M  V30 86 H 8.1065 -3.58404 2.10997 0
M  V30 87 H 6.6835 -3.71821 0.283421 0
M  V30 88 N 8.8686 -0.792821 -1.36206 0
M  V30 89 C 9.8316 -0.199459 -2.2833 0
M  V30 90 C 10.8316 0.605189 -1.48977 0
M  V30 91 O 12.0216 0.425685 -1.68919 0
M  V30 92 C 9.1536 0.723523 -3.33134 0
M  V30 93 H 10.3466 -1.01181 -2.82316 0
M  V30 94 H 7.8996 -0.562485 -1.45828 0
M  V30 95 H 8.6346 1.56008 -2.84309 0
M  V30 96 H 8.4196 0.148436 -3.91819 0
M  V30 97 H 9.9096 1.13344 -4.01924 0
M  V30 98 N 10.3467 1.47872 -0.545128 0
M  V30 99 C 11.3097 2.28337 0.198717 0
M  V30 100 C 12.3097 1.36255 0.853888 0
M  V30 101 O 13.4997 1.59003 0.711606 0
M  V30 102 C 10.6317 3.15585 1.28915 0
M  V30 103 H 11.8247 2.95567 -0.507941 0
M  V30 104 H 9.3777 1.53362 -0.301616 0
M  V30 105 H 10.1127 2.53019 2.02859 0
M  V30 106 H 9.8977 3.83337 0.824309 0
M  V30 107 H 11.3877 3.76243 1.81194 0
M  V30 108 N 11.8248 0.280983 1.55075 0
M  V30 109 C 12.7568 -0.637268 2.20163 0
M  V30 110 C 13.7698 -1.11298 1.18813 0
M  V30 111 O 14.9588 -1.03388 1.4551 0
M  V30 112 C 12.0588 -1.88199 2.81841 0
M  V30 113 C 11.2318 -1.55211 4.08936 0
M  V30 114 C 10.2908 -2.64991 4.54606 0
M  V30 115 O 9.3168 -2.30929 5.2025 0
M  V30 116 N 10.5188 -3.95161 4.25238 0
M  V30 117 H 13.2838 -0.0801694 2.99593 0
M  V30 118 H 10.8448 0.102329 1.61576 0
M  V30 119 H 12.8368 -2.60948 3.09335 0
M  V30 120 H 11.4068 -2.34799 2.06369 0
M  V30 121 H 10.6268 -0.658185 3.88666 0
M  V30 122 H 11.9148 -1.30681 4.91732 0
M  V30 123 H 11.3128 -4.25653 3.72607 0
M  V30 124 H 9.8698 -4.6427 4.5749 0
M  V30 125 N 13.3029 -1.57598 0.00835791 0
M  V30 126 C 14.2329 -2.1198 -0.979113 0
M  V30 127 C 15.2139 -1.03091 -1.35301 0
M  V30 128 O 16.3989 -1.30818 -1.43528 0
M  V30 129 C 13.5289 -2.62995 -2.26828 0
M  V30 130 C 12.4829 -3.76485 -2.03576 0
M  V30 131 C 11.8089 -4.13846 -3.38579 0
M  V30 132 C 13.1089 -5.0342 -1.39161 0
M  V30 133 H 14.8029 -2.94738 -0.526281 0
M  V30 134 H 12.3489 -1.41783 -0.251704 0
M  V30 135 H 14.3019 -2.99669 -2.96271 0
M  V30 136 H 13.0259 -1.7737 -2.7424 0
M  V30 137 H 11.6849 -3.40217 -1.36557 0
M  V30 138 H 11.3329 -3.25232 -3.83709 0
M  V30 139 H 11.0329 -4.90312 -3.23834 0
M  V30 140 H 12.5569 -4.53086 -4.09323 0
M  V30 141 H 13.9709 -5.37812 -1.98573 0
M  V30 142 H 12.3679 -5.84746 -1.34878 0
M  V30 143 H 13.4379 -4.83548 -0.361868 0
M  V30 144 N 14.781 0.264519 -1.55364 0
M  V30 145 C 16.006 1.01726 -1.80739 0
M  V30 146 C 16.431 1.78836 -0.583044 0
M  V30 147 O 15.789 1.75167 0.467566 0
M  V30 148 C 15.837 1.94482 -3.03659 0
M  V30 149 O 14.941 3.03386 -2.7934 0
M  V30 150 H 14.282 0.290395 -0.597132 0
M  V30 151 H 16.812 0.290854 -2.02522 0
M  V30 152 H 16.822 2.36278 -3.32621 0
M  V30 153 H 15.497 1.37772 -3.92418 0
M  V30 154 H 14.074 2.65844 -2.61498 0
M  V30 155 N 16.2591 1.48442 0.529413 0
M  V30 156 C 17.1921 1.57577 1.65059 0
M  V30 157 C 18.1701 0.426198 1.56915 0
M  V30 158 O 19.3541 0.637877 1.77379 0
M  V30 159 C 16.4811 1.5043 3.03461 0
M  V30 160 C 15.5271 2.70235 3.29962 0
M  V30 161 S 16.3601 4.32198 3.16172 0
M  V30 162 C 17.5161 4.2765 4.57019 0
M  V30 163 H 17.7491 2.52427 1.5706 0
M  V30 164 H 15.2821 1.36982 0.712417 0
M  V30 165 H 17.2401 1.46992 3.8328 0
M  V30 166 H 15.9011 0.569167 3.089 0
M  V30 167 H 15.0941 2.61374 4.30929 0
M  V30 168 H 14.6961 2.70938 2.57815 0
M  V30 169 H 16.9881 3.97618 5.48549 0
M  V30 170 H 17.9311 5.28797 4.70934 0
M  V30 171 H 18.3391 3.5811 4.36368 0
M  V30 172 N 17.7372 -0.778329 1.37039 0
M  V30 173 C 18.9652 -1.56734 1.35063 0
M  V30 174 C 19.3802 -1.88686 -0.0655597 0
M  V30 175 O 18.7372 -1.5096 -1.02554 0
M  V30 176 C 18.7882 -2.88163 2.18276 0
M  V30 177 O 18.5092 -2.57583 3.54376 0
M  V30 178 C 20.0102 -3.82422 2.24206 0
M  V30 179 H 17.2302 -0.485778 0.462883 0
M  V30 180 H 19.7742 -0.965185 1.8029 0
M  V30 181 H 17.9292 -3.44818 1.76576 0
M  V30 182 H 18.3432 -3.41699 3.97922 0
M  V30 183 H 19.8172 -4.71667 2.86765 0
M  V30 184 H 20.2942 -4.21078 1.24861 0
M  V30 185 H 20.9002 -3.31697 2.6619 0
M  V30 186 N 19.2153 -1.21501 -1.00376 0
M  V30 187 C 20.1453 -0.999478 -2.11028 0
M  V30 188 C 21.1263 0.0759671 -1.6993 0
M  V30 189 O 22.3113 -0.0841106 -1.94018 0
M  V30 190 C 19.4413 -0.564709 -3.42678 0
M  V30 191 C 18.3953 -1.58486 -3.97576 0
M  V30 192 C 17.7213 -1.00628 -5.25146 0
M  V30 193 C 19.0213 -2.97204 -4.29496 0
M  V30 194 H 20.7153 -1.92495 -2.29317 0
M  V30 195 H 18.2613 -0.92693 -1.102 0
M  V30 196 H 20.2143 -0.401091 -4.19487 0
M  V30 197 H 18.9383 0.396411 -3.24185 0
M  V30 198 H 17.5973 -1.73606 -3.22888 0
M  V30 199 H 17.2453 -0.0368439 -5.02987 0
M  V30 200 H 16.9453 -1.68771 -5.62841 0
M  V30 201 H 18.4693 -0.854015 -6.04598 0
M  V30 202 H 19.8833 -2.8552 -4.97143 0
M  V30 203 H 18.2803 -3.62372 -4.78338 0
M  V30 204 H 19.3503 -3.47956 -3.3772 0
M  V30 205 N 20.6934 1.19889 -1.02296 0
M  V30 206 C 21.6404 2.22901 -0.598651 0
M  V30 207 C 22.6104 1.61588 0.384521 0
M  V30 208 O 23.7954 1.88697 0.282522 0
M  V30 209 C 20.9354 3.45063 0.0504476 0
M  V30 210 C 20.0484 4.20783 -0.978053 0
M  V30 211 C 19.1834 5.30356 -0.299338 0
M  V30 212 C 18.2224 5.97826 -1.31416 0
M  V30 213 N 17.3594 6.98975 -0.661667 0
M  V30 214 H 22.1994 2.58554 -1.48169 0
M  V30 215 H 19.7364 1.27039 -0.741584 0
M  V30 216 H 21.6944 4.14831 0.443971 0
M  V30 217 H 20.3244 3.10084 0.897097 0
M  V30 218 H 19.3764 3.50018 -1.48969 0
M  V30 219 H 20.6884 4.67109 -1.74958 0
M  V30 220 H 19.8424 6.06516 0.149347 0
M  V30 221 H 18.5814 4.85084 0.504445 0
M  V30 222 H 17.5864 5.20422 -1.77317 0
M  V30 223 H 18.8114 6.45183 -2.11933 0
M  V30 224 H 16.7574 6.55886 0.122132 0
M  V30 225 H 16.6744 7.43461 -1.37117 0
M  V30 226 H 17.9424 7.7914 -0.236785 0
M  V30 227 N 22.1715 0.800033 1.35784 0
M  V30 228 C 23.4175 0.377901 1.99248 0
M  V30 229 C 23.7505 -1.05052 1.63333 0
M  V30 230 O 23.0255 -1.72768 0.893385 0
M  V30 231 C 23.3085 0.553922 3.55814 0
M  V30 232 C 23.1615 2.0268 4.01548 0
M  V30 233 C 24.4805 -0.0244802 4.40093 0
M  V30 234 H 21.5995 0.138782 0.723815 0
M  V30 235 H 24.2415 1.00835 1.61035 0
M  V30 236 H 22.3915 0.0172398 3.88496 0
M  V30 237 H 24.0635 2.62536 3.79305 0
M  V30 238 H 22.3065 2.5256 3.52698 0
M  V30 239 H 22.9775 2.10087 5.10458 0
M  V30 240 H 25.4535 0.433775 4.13833 0
M  V30 241 H 24.3295 0.128637 5.48749 0
M  V30 242 H 24.5905 -1.11758 4.27741 0
M  V30 243 N 23.6496 -1.47581 0.552962 0
M  V30 244 C 24.5816 -2.27997 -0.234533 0
M  V30 245 C 25.5946 -1.36753 -0.883321 0
M  V30 246 O 26.7836 -1.61612 -0.757889 0
M  V30 247 C 23.8836 -3.10879 -1.34935 0
M  V30 248 C 23.0566 -4.30056 -0.798158 0
M  V30 249 C 22.1156 -4.94567 -1.79694 0
M  V30 250 O 21.1416 -5.53087 -1.34474 0
M  V30 251 N 22.3436 -4.88878 -3.13015 0
M  V30 252 H 25.1086 -2.96222 0.455255 0
M  V30 253 H 22.6696 -1.57163 0.388761 0
M  V30 254 H 24.6616 -3.50903 -2.01616 0
M  V30 255 H 23.2316 -2.44924 -1.94244 0
M  V30 256 H 22.4516 -3.94174 0.0453079 0
M  V30 257 H 23.7396 -5.07152 -0.409173 0
M  V30 258 H 23.1376 -4.42526 -3.52402 0
M  V30 259 H 21.6946 -5.32934 -3.75266 0
M  V30 260 N 25.1277 -0.289203 -1.54924 0
M  V30 261 C 26.0377 0.601863 -2.26748 0
M  V30 262 C 27.0537 1.15834 -1.2984 0
M  V30 263 O 28.2297 1.18564 -1.62802 0
M  V30 264 C 25.2947 1.76299 -2.98529 0
M  V30 265 C 24.3557 1.24178 -4.10948 0
M  V30 266 C 23.5887 2.34757 -4.79296 0
M  V30 267 O 23.8117 3.54411 -4.46933 0
M  V30 268 O 22.7457 2.02115 -5.66951 0
M  V30 269 H 26.5717 0.0195879 -3.03694 0
M  V30 270 H 24.1567 -0.0560868 -1.49295 0
M  V30 271 H 26.0387 2.43973 -3.43592 0
M  V30 272 H 24.7137 2.33209 -2.24488 0
M  V30 273 H 23.6207 0.531104 -3.70311 0
M  V30 274 H 24.9537 0.718252 -4.86931 0
M  V30 275 N 26.6058 1.57591 -0.0167156 0
M  V30 276 C 27.8358 1.95292 0.674149 0
M  V30 277 C 28.2438 0.891097 1.66901 0
M  V30 278 O 27.5868 -0.136908 1.83189 0
M  V30 279 C 27.6488 3.29072 1.44747 0
M  V30 280 C 27.3128 4.52879 0.612331 0
M  V30 281 C 28.3098 5.1979 -0.107126 0
M  V30 282 C 25.9948 4.99242 0.553381 0
M  V30 283 C 27.9888 6.31375 -0.874339 0
M  V30 284 C 25.6758 6.10713 -0.217546 0
M  V30 285 C 26.6738 6.76637 -0.930123 0
M  V30 286 O 26.3618 7.85969 -1.68844 0
M  V30 287 H 26.0938 0.648275 0.191615 0
M  V30 288 H 28.6478 2.05284 -0.0690148 0
M  V30 289 H 26.8778 3.15535 2.2355 0
M  V30 290 H 28.5668 3.51764 2.02526 0
M  V30 291 H 29.3328 4.84948 -0.0708392 0
M  V30 292 H 25.2118 4.47744 1.09757 0
M  V30 293 H 28.7558 6.82764 -1.43106 0
M  V30 294 H 24.6528 6.44994 -0.255593 0
M  V30 295 H 25.4208 8.02571 -1.6069 0
M  V30 296 N 28.0839 -0.256276 1.55502 0
M  V30 297 C 29.4949 -0.826068 1.67431 0
M  V30 298 C 29.8459 -1.86396 0.612446 0
M  V30 299 O 28.9709 -2.15031 -0.243025 0
M  V30 300 C 29.5659 -1.50512 3.03532 0
M  V30 301 C 28.1249 -2.02273 3.17431 0
M  V30 302 C 27.2719 -0.870548 2.63281 0
M  V30 303 H 30.2229 -0.0322728 1.58667 0
M  V30 304 H 30.2439 -2.37279 2.97454 0
M  V30 305 H 29.7559 -0.749484 3.80794 0
M  V30 306 H 27.8569 -2.80746 2.44974 0
M  V30 307 H 27.9699 -2.22655 4.24219 0
M  V30 308 H 26.3339 -1.26851 2.20864 0
M  V30 309 H 27.1169 -0.128149 3.43061 0
M  V30 310 N 29.562 -1.4872 -0.521534 0
M  V30 311 C 30.79 -1.60843 -1.30142 0
M  V30 312 C 31.205 -0.271897 -1.86832 0
M  V30 313 O 30.562 0.739969 -1.66825 0
M  V30 314 C 30.613 -2.66155 -2.4463 0
M  V30 315 O 30.334 -3.94623 -1.90275 0
M  V30 316 C 31.835 -2.88795 -3.36322 0
M  V30 317 H 29.055 -0.542075 -0.395468 0
M  V30 318 H 31.599 -1.94609 -0.628285 0
M  V30 319 H 29.754 -2.35224 -3.07812 0
M  V30 320 H 30.168 -4.52468 -2.65279 0
M  V30 321 H 31.642 -3.66264 -4.12983 0
M  V30 322 H 32.119 -1.97934 -3.9207 0
M  V30 323 H 32.725 -3.21063 -2.78924 0
M  V30 324 N 31.0401 0.771051 -1.3745 0
M  V30 325 C 31.9701 1.89827 -1.3597 0
M  V30 326 C 32.9511 1.68562 -0.228216 0
M  V30 327 O 34.1361 1.8941 -0.428675 0
M  V30 328 C 31.2661 3.2712 -1.16662 0
M  V30 329 C 30.2201 3.6295 -2.2683 0
M  V30 330 C 29.5461 4.98791 -1.92644 0
M  V30 331 C 30.8461 3.69627 -3.69017 0
M  V30 332 H 32.5401 1.91323 -2.30295 0
M  V30 333 H 30.0861 0.919082 -1.10855 0
M  V30 334 H 32.0391 4.05615 -1.14256 0
M  V30 335 H 30.7631 3.26059 -0.187926 0
M  V30 336 H 29.4221 2.86763 -2.28392 0
M  V30 337 H 29.0701 4.94271 -0.933021 0
M  V30 338 H 28.7701 5.23733 -2.66416 0
M  V30 339 H 30.2941 5.79685 -1.91826 0
M  V30 340 H 31.7081 4.38273 -3.69581 0
M  V30 341 H 30.1051 4.06067 -4.41848 0
M  V30 342 H 31.1751 2.70273 -4.02592 0
M  V30 343 N 32.5182 1.22032 0.997298 0
M  V30 344 C 33.4652 0.986467 2.08656 0
M  V30 345 C 34.4352 -0.0902671 1.65855 0
M  V30 346 O 35.6202 0.0584294 1.90711 0
M  V30 347 C 32.7602 0.565569 3.40434 0
M  V30 348 C 31.8732 1.71259 3.96604 0
M  V30 349 C 31.0082 1.24011 5.16522 0
M  V30 350 C 30.0472 2.35896 5.64818 0
M  V30 351 N 29.1842 1.89726 6.7598 0
M  V30 352 H 34.0242 1.91892 2.27994 0
M  V30 353 H 31.5612 0.956199 1.11782 0
M  V30 354 H 33.5192 0.302738 4.161 0
M  V30 355 H 32.1492 -0.329879 3.2111 0
M  V30 356 H 31.2012 2.08986 3.17851 0
M  V30 357 H 32.5132 2.55436 4.28432 0
M  V30 358 H 31.6672 0.934395 5.99461 0
M  V30 359 H 30.4062 0.368487 4.86306 0
M  V30 360 H 29.4112 2.67261 4.8047 0
M  V30 361 H 30.6362 3.23567 5.97061 0
M  V30 362 H 28.5822 1.0492 6.47555 0
M  V30 363 H 28.4992 2.67471 7.07103 0
M  V30 364 H 29.7672 1.62211 7.62435 0
M  V30 365 N 33.9963 -1.19345 1.0293 0
M  V30 366 C 35.2423 -1.89318 0.727083 0
M  V30 367 C 35.5753 -1.79446 -0.742483 0
M  V30 368 O 34.8503 -1.1871 -1.54072 0
M  V30 369 C 35.1333 -3.40238 1.17942 0
M  V30 370 C 34.9863 -3.58979 2.71024 0
M  V30 371 C 36.3053 -4.33479 0.760548 0
M  V30 372 H 33.4243 -0.687475 0.265606 0
M  V30 373 H 36.0663 -1.40477 1.2793 0
M  V30 374 H 34.2163 -3.81964 0.709608 0
M  V30 375 H 35.8883 -3.26421 3.25955 0
M  V30 376 H 34.1313 -3.02018 3.11396 0
M  V30 377 H 34.8023 -4.64823 2.9773 0
M  V30 378 H 37.2783 -3.99469 1.16464 0
M  V30 379 H 36.1543 -5.37664 1.10493 0
M  V30 380 H 36.4153 -4.40813 -0.337063 0
M  V30 381 N 35.4744 -0.807222 -1.35358 0
M  V30 382 C 36.8854 -0.44876 -1.81226 0
M  V30 383 C 37.2364 1.02929 -1.67033 0
M  V30 384 O 36.3614 1.79991 -1.20133 0
M  V30 385 C 36.9564 -0.807774 -3.2903 0
M  V30 386 C 35.5154 -0.501901 -3.73039 0
M  V30 387 C 34.6624 -1.03304 -2.57339 0
M  V30 388 H 37.6134 -0.998808 -1.23327 0
M  V30 389 H 37.6344 -0.10554 -3.80354 0
M  V30 390 H 37.1464 -1.88357 -3.39328 0
M  V30 391 H 35.2474 0.565128 -3.68289 0
M  V30 392 H 35.3604 -1.03497 -4.67787 0
M  V30 393 H 33.7244 -0.455339 -2.50597 0
M  V30 394 H 34.5074 -2.11496 -2.70415 0
M  V30 395 N 36.9525 1.47285 -0.560781 0
M  V30 396 C 38.1825 2.06555 -0.0429638 0
M  V30 397 C 38.5905 1.41339 1.25777 0
M  V30 398 O 37.9335 0.505182 1.76617 0
M  V30 399 C 37.9955 3.58827 0.219887 0
M  V30 400 C 37.6595 4.46105 -0.991944 0
M  V30 401 C 38.6565 4.84 -1.89843 0
M  V30 402 C 36.3415 4.87567 -1.20762 0
M  V30 403 C 38.3355 5.6216 -3.00425 0
M  V30 404 C 36.0225 5.65491 -2.31653 0
M  V30 405 C 37.0205 6.02699 -3.21315 0
M  V30 406 O 36.7085 6.79052 -4.30283 0
M  V30 407 H 36.4405 0.674537 -0.0444468 0
M  V30 408 H 38.9945 1.90225 -0.774818 0
M  V30 409 H 37.2245 3.73383 1.00609 0
M  V30 410 H 38.9135 4.00103 0.683522 0
M  V30 411 H 39.6795 4.52564 -1.74387 0
M  V30 412 H 35.5585 4.5807 -0.518893 0
M  V30 413 H 39.1025 5.9112 -3.70436 0
M  V30 414 H 34.9995 5.9634 -2.47081 0
M  V30 415 H 35.7675 6.9745 -4.28376 0
M  V30 416 N 38.4306 0.297415 1.54768 0
M  V30 417 C 39.3406 -0.58983 2.27064 0
M  V30 418 C 40.3566 -1.15144 1.30453 0
M  V30 419 O 41.5326 -1.17699 1.63428 0
M  V30 420 C 38.5976 -1.74714 2.9946 0
M  V30 421 C 37.6586 -1.21997 4.11601 0
M  V30 422 C 36.8916 -2.32212 4.80535 0
M  V30 423 O 37.1146 -3.52036 4.48806 0
M  V30 424 O 36.0486 -1.99106 5.68014 0
M  V30 425 H 39.8746 -0.00348199 3.037 0
M  V30 426 H 37.4596 0.0640035 1.49263 0
M  V30 427 H 39.3416 -2.42147 3.44881 0
M  V30 428 H 38.0166 -2.32016 2.25722 0
M  V30 429 H 36.9236 -0.511458 3.70587 0
M  V30 430 H 38.2566 -0.692419 4.87305 0
M  V30 431 N 39.9087 -1.5758 0.0250728 0
M  V30 432 C 41.1367 -1.9593 -0.664747 0
M  V30 433 C 41.5517 -0.901352 -1.65895 0
M  V30 434 O 40.9087 0.117255 -1.82123 0
M  V30 435 C 40.9597 -3.34342 -1.37468 0
M  V30 436 O 40.6807 -4.36079 -0.420324 0
M  V30 437 C 42.1817 -3.873 -2.1567 0
M  V30 438 H 39.4017 -0.645405 -0.183557 0
M  V30 439 H 41.9457 -2.04329 0.0836372 0
M  V30 440 H 40.1007 -3.27175 -2.0745 0
M  V30 441 H 40.5147 -5.16297 -0.923991 0
M  V30 442 H 41.9887 -4.86504 -2.60803 0
M  V30 443 H 42.4657 -3.21331 -2.99405 0
M  V30 444 H 43.0717 -3.97723 -1.50654 0
M  V30 445 N 41.3868 0.248026 -1.55636 0
M  V30 446 C 42.3168 1.31079 -1.93237 0
M  V30 447 C 43.2978 1.50264 -0.797174 0
M  V30 448 O 44.4828 1.62891 -1.05737 0
M  V30 449 C 41.6128 2.66575 -2.22609 0
M  V30 450 C 40.5668 2.62087 -3.3837 0
M  V30 451 C 39.8928 4.01369 -3.53281 0
M  V30 452 C 41.1928 2.19171 -4.7409 0
M  V30 453 H 42.8868 0.998556 -2.82257 0
M  V30 454 H 40.4328 0.47891 -1.35803 0
M  V30 455 H 42.3858 3.41057 -2.47503 0
M  V30 456 H 41.1098 2.99432 -1.30414 0
M  V30 457 H 39.7688 1.90063 -3.13483 0
M  V30 458 H 39.4168 4.31489 -2.58508 0
M  V30 459 H 39.1168 3.99254 -4.31127 0
M  V30 460 H 40.6408 4.77552 -3.80495 0
M  V30 461 H 42.0548 2.83384 -4.98363 0
M  V30 462 H 40.4518 2.2817 -5.5503 0
M  V30 463 H 41.5218 1.14336 -4.71227 0
M  V30 464 N 42.8649 1.48995 0.513639 0
M  V30 465 C 43.8129 1.65199 1.63744 0
M  V30 466 C 44.8069 0.51809 1.61283 0
M  V30 467 O 46.0129 0.697335 1.65943 0
M  V30 468 H 42.3879 0.52069 0.542574 0
M  V30 469 H 44.3589 2.59552 1.47226 0
M  V30 470 C 43.1079 1.72409 3.01945 0
M  V30 471 H 42.4309 2.59029 3.04539 0
M  V30 472 H 43.8709 1.87785 3.80148 0
M  V30 473 C 42.3299 0.46618 3.33659 0
M  V30 474 O 42.8599 -0.413744 3.99564 0
M  V30 475 N 41.0659 0.332931 2.88687 0
M  V30 476 H 40.6129 1.04996 2.35231 0
M  V30 477 H 40.5709 -0.507665 3.10274 0
M  V30 478 N 44.343 -0.763751 1.37857 0
M  V30 479 C 45.29 -1.87726 1.34267 0
M  V30 480 C 46.26 -1.64807 0.206879 0
M  V30 481 O 47.445 -1.86613 0.397508 0
M  V30 482 C 44.585 -3.24896 1.16346 0
M  V30 483 C 43.698 -3.59716 2.39225 0
M  V30 484 C 42.833 -4.86137 2.14114 0
M  V30 485 C 41.872 -5.13711 3.32817 0
M  V30 486 N 41.009 -6.31323 3.07206 0
M  V30 487 H 45.849 -1.90129 2.29466 0
M  V30 488 H 43.386 -0.929433 1.14017 0
M  V30 489 H 45.344 -4.04036 1.03975 0
M  V30 490 H 43.974 -3.21847 0.247909 0
M  V30 491 H 43.026 -2.75498 2.62307 0
M  V30 492 H 44.338 -3.76027 3.27728 0
M  V30 493 H 43.492 -5.73198 1.9882 0
M  V30 494 H 42.231 -4.71945 1.22961 0
M  V30 495 H 41.236 -4.25123 3.48641 0
M  V30 496 H 42.461 -5.29807 4.24832 0
M  V30 497 H 40.407 -6.18474 2.1869 0
M  V30 498 H 40.324 -6.48087 3.89254 0
M  V30 499 H 41.592 -7.213 2.95546 0
M  V30 500 N 45.8211 -1.22559 -0.990812 0
M  V30 501 C 47.2371 -0.985996 -1.255 0
M  V30 502 C 47.4371 0.319173 -1.98956 0
M  V30 503 O 46.4931 1.04127 -2.3003 0
M  V30 504 C 47.8061 -2.18607 -2.06474 0
M  V30 505 C 49.3541 -2.22985 -2.19651 0
M  V30 506 C 49.8291 -3.4255 -3.04012 0
M  V30 507 N 51.3201 -3.42725 -3.11599 0
M  V30 508 C 52.0551 -4.31892 -3.7717 0
M  V30 509 N 51.5511 -5.31279 -4.44651 0
M  V30 510 N 53.3441 -4.19662 -3.73952 0
M  V30 511 H 45.4951 -2.06469 -0.49841 0
M  V30 512 H 47.7581 -0.904853 -0.282747 0
M  V30 513 H 47.4641 -3.13267 -1.59865 0
M  V30 514 H 47.3381 -2.18838 -3.07229 0
M  V30 515 H 49.7251 -1.28871 -2.65474 0
M  V30 516 H 49.8061 -2.26791 -1.18319 0
M  V30 517 H 49.4501 -4.36965 -2.58889 0
M  V30 518 H 49.3801 -3.35984 -4.0549 0
M  V30 519 H 51.8711 -2.70807 -2.63575 0
M  V30 520 H 52.1841 -5.95593 -4.92431 0
M  V30 521 H 50.5291 -5.3519 -4.43392 0
M  V30 522 H 53.7201 -3.41268 -3.20396 0
M  V30 523 H 53.8931 -4.89358 -4.24774 0
M  V30 524 N 47.2992 1.18797 -1.03562 0
M  V30 525 C 48.5462 1.8865 -0.736023 0
M  V30 526 C 48.8742 1.80041 0.735889 0
M  V30 527 O 48.1292 1.19179 1.55225 0
M  V30 528 C 48.4282 3.38692 -1.14117 0
M  V30 529 C 48.0942 3.67504 -2.6125 0
M  V30 530 C 46.7562 3.75078 -3.01447 0
M  V30 531 C 49.1082 3.80293 -3.56408 0
M  V30 532 C 46.4362 3.92915 -4.35701 0
M  V30 533 C 48.7882 3.99645 -4.90374 0
M  V30 534 C 47.4522 4.05453 -5.30249 0
M  V30 535 H 46.7222 0.690321 -0.26933 0
M  V30 536 H 49.3692 1.40641 -1.29971 0
M  V30 537 H 47.6742 3.88645 -0.496202 0
M  V30 538 H 49.3712 3.91072 -0.886789 0
M  V30 539 H 45.9612 3.62223 -2.29113 0
M  V30 540 H 50.1452 3.73779 -3.26501 0
M  V30 541 H 45.4012 3.95653 -4.66121 0
M  V30 542 H 49.5752 4.08482 -5.64017 0
M  V30 543 H 47.2022 4.19027 -6.34288 0
M  V30 544 N 48.7773 0.814389 1.34928 0
M  V30 545 C 50.1933 0.499084 1.51596 0
M  V30 546 C 50.3933 -0.978319 1.76157 0
M  V30 547 O 49.4493 -1.76309 1.80752 0
M  V30 548 C 50.7623 1.35121 2.68631 0
M  V30 549 C 52.3103 1.34746 2.82511 0
M  V30 550 C 52.7853 2.18388 4.0258 0
M  V30 551 N 54.2763 2.15966 4.09772 0
M  V30 552 C 55.0113 2.77437 5.01813 0
M  V30 553 N 54.5073 3.47866 5.99134 0
M  V30 554 N 56.3003 2.67037 4.94619 0
M  V30 555 H 48.4513 1.7711 1.17243 0
M  V30 556 H 50.7143 0.754256 0.574284 0
M  V30 557 H 50.4203 2.40001 2.57085 0
M  V30 558 H 50.2943 1.00991 3.63429 0
M  V30 559 H 52.6813 0.30648 2.93504 0
M  V30 560 H 52.7623 1.72869 1.88547 0
M  V30 561 H 52.4063 3.2253 3.92347 0
M  V30 562 H 52.3363 1.77621 4.9574 0
M  V30 563 H 54.8273 1.64729 3.40107 0
M  V30 564 H 55.1403 3.92038 6.65977 0
M  V30 565 H 53.4853 3.51972 5.99284 0
M  V30 566 H 56.6763 2.11597 4.17546 0
M  V30 567 H 56.8493 3.15232 5.66156 0
M  V30 568 N 50.2554 -1.46986 0.568584 0
M  V30 569 C 51.2184 -2.28624 -0.162366 0
M  V30 570 C 52.2184 -1.37596 -0.832103 0
M  V30 571 O 53.4084 -1.60115 -0.68622 0
M  V30 572 C 50.5404 -3.17596 -1.23878 0
M  V30 573 H 51.7334 -2.94722 0.554899 0
M  V30 574 H 49.2864 -1.52863 0.325976 0
M  V30 575 H 50.0214 -2.56214 -1.98808 0
M  V30 576 H 49.8064 -3.846 -0.763219 0
M  V30 577 H 51.2964 -3.79078 -1.75185 0
M  V30 578 N 51.7335 -0.305618 -1.54608 0
M  V30 579 C 52.6965 0.555591 -2.22364 0
M  V30 580 C 53.6965 1.05768 -1.21119 0
M  V30 581 O 54.8865 0.952972 -1.45822 0
M  V30 582 C 52.0185 1.76974 -2.91364 0
M  V30 583 H 53.2115 -0.0364572 -2.99878 0
M  V30 584 H 50.7645 -0.0565007 -1.56198 0
M  V30 585 H 51.4995 2.40151 -2.17941 0
M  V30 586 H 51.2845 1.41732 -3.65588 0
M  V30 587 H 52.7745 2.38148 -3.43038 0
M  V30 588 N 53.2116 1.57565 -0.0334293 0
M  V30 589 C 54.1436 2.0739 0.975811 0
M  V30 590 C 55.1566 0.998166 1.2861 0
M  V30 591 O 56.3456 1.27426 1.25 0
M  V30 592 C 53.4456 2.4871 2.30209 0
M  V30 593 C 52.6186 3.79413 2.17634 0
M  V30 594 C 51.6776 4.07237 3.33233 0
M  V30 595 O 50.7036 4.77425 3.09927 0
M  V30 596 N 51.9056 3.5775 4.5716 0
M  V30 597 H 54.6706 2.94598 0.55066 0
M  V30 598 H 52.2316 1.61173 0.15323 0
M  V30 599 H 54.2236 2.64413 3.06378 0
M  V30 600 H 52.7936 1.66845 2.64351 0
M  V30 601 H 52.0136 3.73465 1.26165 0
M  V30 602 H 53.3016 4.65038 2.0644 0
M  V30 603 H 52.6996 3.00976 4.78989 0
M  V30 604 H 51.2566 3.78724 5.30482 0
M  V30 605 N 54.6897 -0.239769 1.55765 0
M  V30 606 C 55.6367 -1.29696 1.90913 0
M  V30 607 C 56.6067 -1.47478 0.764164 0
M  V30 608 O 57.7917 -1.61345 1.01845 0
M  V30 609 C 54.9317 -2.64598 2.21544 0
M  V30 610 C 54.0447 -2.54765 3.48882 0
M  V30 611 C 53.1797 -3.82069 3.69049 0
M  V30 612 C 52.2187 -3.66883 4.89963 0
M  V30 613 N 51.3557 -4.86094 5.06614 0
M  V30 614 H 56.1957 -0.990224 2.81067 0
M  V30 615 H 53.7327 -0.477684 1.39128 0
M  V30 616 H 55.6907 -3.43132 2.3731 0
M  V30 617 H 54.3207 -2.93405 1.34585 0
M  V30 618 H 53.3727 -1.67763 3.41409 0
M  V30 619 H 54.6847 -2.39457 4.37563 0
M  V30 620 H 53.8387 -4.69046 3.84812 0
M  V30 621 H 52.5777 -4.00282 2.78614 0
M  V30 622 H 51.5827 -2.78289 4.74168 0
M  V30 623 H 52.8077 -3.50157 5.81865 0
M  V30 624 H 50.7537 -5.04655 4.19117 0
M  V30 625 H 50.6707 -4.73443 5.89396 0
M  V30 626 H 51.9387 -5.74549 5.26795 0
M  V30 627 N 56.1678 -1.49265 -0.50573 0
M  V30 628 C 57.1158 -1.66065 -1.62866 0
M  V30 629 C 58.1098 -0.526636 -1.61006 0
M  V30 630 O 59.3158 -0.706126 -1.65571 0
M  V30 631 H 55.6908 -0.52356 -0.539805 0
M  V30 632 H 57.6618 -2.60329 -1.45848 0
M  V30 633 C 56.4108 -1.74008 -3.01026 0
M  V30 634 H 55.7338 -2.6064 -3.03161 0
M  V30 635 H 57.1738 -1.89798 -3.79147 0
M  V30 636 C 55.6328 -0.483868 -3.33407 0
M  V30 637 O 56.1628 0.392548 -3.99777 0
M  V30 638 N 54.3688 -0.348236 -2.88506 0
M  V30 639 H 53.9158 -1.06242 -2.34671 0
M  V30 640 H 53.8738 0.491204 -3.10539 0
M  V30 641 N 57.6459 0.756429 -1.3826 0
M  V30 642 C 58.8949 1.51082 -1.3363 0
M  V30 643 C 59.2079 1.95467 0.0720068 0
M  V30 644 O 60.4139 2.7043 0.240834 0
M  V30 645 C 58.8699 2.72893 -2.34644 0
M  V30 646 C 58.4779 2.35544 -3.81081 0
M  V30 647 C 60.2219 3.50791 -2.39052 0
M  V30 648 C 58.1289 3.53948 -4.73787 0
M  V30 649 H 57.0589 0.56727 -0.49671 0
M  V30 650 H 59.7099 0.827147 -1.638 0
M  V30 651 H 58.0919 3.43227 -1.97513 0
M  V30 652 H 59.2659 1.72894 -4.27135 0
M  V30 653 H 57.5809 1.70786 -3.79764 0
M  V30 654 H 60.1779 4.38823 -3.05513 0
M  V30 655 H 60.5209 3.91745 -1.40861 0
M  V30 656 H 61.0539 2.87467 -2.74968 0
M  V30 657 H 57.7929 3.18064 -5.73163 0
M  V30 658 H 57.3129 4.15651 -4.32428 0
M  V30 659 H 58.9919 4.20566 -4.91663 0
M  V30 660 N 59.124 1.23083 0.984299 0
M  V30 661 C 60.401 0.9689 1.69917 0
M  V30 662 C 60.781 -0.513604 2.04757 0
M  V30 663 O 60.129 -1.48383 1.73767 0
M  V30 664 C 60.339 1.87518 2.94343 0
M  V30 665 C 61.687 2.13636 3.6694 0
M  V30 666 O 62.711 1.85036 3.04368 0
M  V30 667 O 61.57 2.62119 4.79537 0
M  V30 668 H 58.664 0.365095 0.742048 0
M  V30 669 H 61.21 1.34107 1.03987 0
M  V30 670 H 59.982 2.87756 2.65164 0
M  V30 671 H 59.605 1.50514 3.6801 0
M  V30 672 N 60.6021 -1.18246 1.0419 0
M  V30 673 C 62.0181 -1.40269 0.761366 0
M  V30 674 C 62.2181 -1.90777 -0.648578 0
M  V30 675 O 61.2741 -2.0929 -1.41258 0
M  V30 676 C 62.5871 -2.40237 1.8085 0
M  V30 677 C 64.1351 -2.53961 1.82955 0
M  V30 678 C 64.6101 -3.57194 2.86664 0
M  V30 679 N 66.1011 -3.64702 2.85563 0
M  V30 680 C 66.8361 -4.44309 3.6246 0
M  V30 681 N 66.3321 -5.27514 4.49111 0
M  V30 682 N 68.1251 -4.39084 3.50944 0
M  V30 683 H 60.2761 -0.837882 1.95175 0
M  V30 684 H 62.5391 -0.430608 0.84456 0
M  V30 685 H 62.2451 -2.10176 2.81991 0
M  V30 686 H 62.1191 -3.39601 1.64168 0
M  V30 687 H 64.5061 -2.83338 0.824855 0
M  V30 688 H 64.5871 -1.54706 2.03715 0
M  V30 689 H 64.2311 -3.28558 3.87314 0
M  V30 690 H 64.1611 -4.5613 2.6316 0
M  V30 691 H 66.6521 -3.05289 2.22727 0
M  V30 692 H 66.9651 -5.85411 5.04493 0
M  V30 693 H 65.3101 -5.2693 4.53178 0
M  V30 694 H 68.5011 -3.7313 2.82651 0
M  V30 695 H 68.6741 -5.00883 4.11121 0
M  V30 696 N 62.0802 -0.821533 -1.34494 0
M  V30 697 C 62.9902 -0.244355 -2.33324 0
M  V30 698 C 64.0062 0.620527 -1.62559 0
M  V30 699 O 65.1822 0.528754 -1.94335 0
M  V30 700 C 62.2472 0.585368 -3.41723 0
M  V30 701 C 61.3082 -0.301752 -4.28238 0
M  V30 702 C 60.5412 0.488466 -5.3146 0
M  V30 703 O 60.7642 1.72186 -5.4379 0
M  V30 704 O 59.6982 -0.12848 -6.01763 0
M  V30 705 H 63.5242 -1.06231 -2.84515 0
M  V30 706 H 61.1092 -0.583645 -1.37528 0
M  V30 707 H 62.9912 1.05747 -4.07916 0
M  V30 708 H 61.6662 1.38068 -2.92778 0
M  V30 709 H 60.5732 -0.821315 -3.64973 0
M  V30 710 H 61.9062 -1.06138 -4.8062 0
M  V30 711 N 63.5583 1.46682 -0.576371 0
M  V30 712 C 64.7863 2.06798 -0.0649635 0
M  V30 713 C 65.2013 1.42612 1.23723 0
M  V30 714 O 64.5583 0.529203 1.74659 0
M  V30 715 C 64.6093 3.6132 0.114202 0
M  V30 716 O 64.3303 4.23104 -1.13644 0
M  V30 717 C 65.8313 4.38349 0.66069 0
M  V30 718 H 63.0513 0.668778 -0.0545616 0
M  V30 719 H 65.5953 1.88404 -0.795237 0
M  V30 720 H 63.7503 3.79162 0.794673 0
M  V30 721 H 64.1643 5.15894 -0.946253 0
M  V30 722 H 65.6383 5.47081 0.73526 0
M  V30 723 H 66.1153 4.05953 1.67627 0
M  V30 724 H 66.7213 4.25297 0.0152951 0
M  V30 725 N 65.0364 0.313813 1.54444 0
M  V30 726 C 66.2614 -0.296681 2.05267 0
M  V30 727 C 66.6864 -1.45757 1.18897 0
M  V30 728 O 66.0444 -1.80239 0.195886 0
M  V30 729 C 66.0924 -0.71831 3.53373 0
M  V30 730 O 65.1964 -1.82175 3.69981 0
M  V30 731 H 64.5374 -0.0554061 0.661684 0
M  V30 732 H 67.0674 0.459387 1.99376 0
M  V30 733 H 67.0774 -1.00364 3.95463 0
M  V30 734 H 65.7524 0.130821 4.15694 0
M  V30 735 H 64.3294 -1.53598 3.39797 0
M  V30 736 N 66.5145 -1.57545 0.0417849 0
M  V30 737 C 67.4645 -2.07483 -0.945247 0
M  V30 738 C 68.4485 -0.977983 -1.27767 0
M  V30 739 O 69.6405 -1.24142 -1.26166 0
M  V30 740 C 66.7695 -2.61576 -2.22335 0
M  V30 741 C 65.8555 -3.78213 -1.91874 0
M  V30 742 N 66.2465 -4.88344 -1.31733 0
M  V30 743 C 64.5445 -3.8694 -2.21796 0
M  V30 744 C 65.2455 -5.69462 -1.1869 0
M  V30 745 N 64.2215 -5.16771 -1.68666 0
M  V30 746 H 68.0235 -2.90029 -0.475441 0
M  V30 747 H 65.5375 -1.61581 -0.162911 0
M  V30 748 H 67.5345 -2.95651 -2.93932 0
M  V30 749 H 66.1945 -1.80465 -2.69931 0
M  V30 750 H 67.2055 -5.08335 -0.990729 0
M  V30 751 H 63.8825 -3.16757 -2.71977 0
M  V30 752 H 65.2725 -6.68023 -0.720793 0
M  V30 753 N 67.9926 0.231505 -1.5589 0
M  V30 754 C 69.2386 0.95877 -1.78705 0
M  V30 755 C 69.5716 1.8438 -0.609725 0
M  V30 756 O 68.8466 1.90521 0.391426 0
M  V30 757 C 69.1296 1.8062 -3.11526 0
M  V30 758 C 68.9826 0.948328 -4.39689 0
M  V30 759 C 70.3016 2.78585 -3.40703 0
M  V30 760 H 67.4206 0.347129 -0.650131 0
M  V30 761 H 70.0626 0.228259 -1.88624 0
M  V30 762 H 68.2126 2.42902 -3.03201 0
M  V30 763 H 69.8846 0.343016 -4.60023 0
M  V30 764 H 68.1276 0.253314 -4.3306 0
M  V30 765 H 68.7986 1.57543 -5.29041 0
M  V30 766 H 71.2746 2.26439 -3.49091 0
M  V30 767 H 70.1506 3.34988 -4.34826 0
M  V30 768 H 70.4116 3.55825 -2.62375 0
M  V30 769 N 69.4707 1.49531 0.497807 0
M  V30 770 C 70.6987 1.62893 1.27567 0
M  V30 771 C 71.1137 0.301585 1.86376 0
M  V30 772 O 70.4707 -0.713335 1.67982 0
M  V30 773 C 70.5217 2.70013 2.40364 0
M  V30 774 O 70.2427 3.976 1.83972 0
M  V30 775 C 71.7437 2.94109 3.31685 0
M  V30 776 H 68.9637 0.548298 0.386794 0
M  V30 777 H 71.5077 1.95584 0.597245 0
M  V30 778 H 69.6627 2.40092 3.04031 0
M  V30 779 H 70.0767 4.56631 2.58047 0
M  V30 780 H 71.5507 3.72788 4.07104 0
M  V30 781 H 72.0277 2.04147 3.88871 0
M  V30 782 H 72.6337 3.2546 2.73781 0
M  V30 783 N 70.9488 -0.749086 1.3866 0
M  V30 784 C 71.8818 -1.87111 1.30631 0
M  V30 785 C 72.8598 -1.61572 0.18251 0
M  V30 786 O 74.0438 -1.85019 0.360592 0
M  V30 787 C 71.1708 -3.22815 1.02511 0
M  V30 788 C 70.2168 -3.67234 2.1689 0
M  V30 789 S 71.0498 -3.78245 3.79066 0
M  V30 790 C 72.2058 -5.16761 3.53142 0
M  V30 791 H 72.4388 -1.93636 2.25594 0
M  V30 792 H 69.9718 -0.912525 1.24549 0
M  V30 793 H 71.9298 -4.01181 0.869701 0
M  V30 794 H 70.5908 -3.13964 0.0925884 0
M  V30 795 H 69.7838 -4.65677 1.92771 0
M  V30 796 H 69.3858 -2.96034 2.28561 0
M  V30 797 H 71.6778 -6.02656 3.09534 0
M  V30 798 H 72.6208 -5.45902 4.50995 0
M  V30 799 H 73.0288 -4.85771 2.87554 0
M  V30 800 N 72.4269 -1.23603 -0.977757 0
M  V30 801 C 73.6729 -1.07129 -1.72195 0
M  V30 802 C 74.0059 0.390501 -1.90233 0
M  V30 803 O 73.2809 1.28902 -1.45653 0
M  V30 804 C 73.5639 -1.80031 -3.11867 0
M  V30 805 C 73.4169 -3.33899 -3.01383 0
M  V30 806 C 74.7359 -1.56492 -4.11337 0
M  V30 807 H 71.8549 -0.390571 -0.624999 0
M  V30 808 H 74.4969 -1.52142 -1.13811 0
M  V30 809 H 72.6469 -1.41768 -3.6171 0
M  V30 810 H 74.3189 -3.81699 -2.59043 0
M  V30 811 H 72.5619 -3.62796 -2.37827 0
M  V30 812 H 73.2329 -3.801 -4.00285 0
M  V30 813 H 75.7089 -1.89757 -3.70313 0
M  V30 814 H 74.5849 -2.09973 -5.07151 0
M  V30 815 H 74.8459 -0.500874 -4.39254 0
M  V30 816 N 73.905 1.17692 -1.04816 0
M  V30 817 C 75.151 1.88137 -0.75711 0
M  V30 818 C 75.484 1.80604 0.713841 0
M  V30 819 O 74.759 1.21146 1.52164 0
M  V30 820 C 75.042 3.38318 -1.2334 0
M  V30 821 C 74.895 3.54622 -2.76701 0
M  V30 822 C 76.214 4.32214 -0.829415 0
M  V30 823 H 73.333 0.683163 -0.27651 0
M  V30 824 H 75.975 1.38424 -1.30149 0
M  V30 825 H 74.125 3.80787 -0.770286 0
M  V30 826 H 75.797 3.21194 -3.31107 0
M  V30 827 H 74.04 2.97026 -3.16161 0
M  V30 828 H 74.711 4.60028 -3.05088 0
M  V30 829 H 77.187 3.97565 -1.22805 0
M  V30 830 H 76.063 5.35838 -1.19033 0
M  V30 831 H 76.324 4.41294 0.266891 0
M  V30 832 N 75.3831 0.828654 1.34056 0
M  V30 833 C 76.3461 0.259927 2.27721 0
M  V30 834 C 77.3461 -0.565478 1.50529 0
M  V30 835 O 78.5361 -0.38075 1.69988 0
M  V30 836 C 75.6681 -0.634944 3.34935 0
M  V30 837 H 76.8611 1.0863 2.79534 0
M  V30 838 H 74.4141 0.600951 1.44285 0
M  V30 839 H 75.1491 -1.48416 2.88346 0
M  V30 840 H 74.9341 -0.0444999 3.92075 0
M  V30 841 H 76.4241 -1.02648 4.04788 0
M  V30 842 N 76.8612 -1.46375 0.584142 0
M  V30 843 C 77.7712 -2.34115 -0.150728 0
M  V30 844 C 78.7872 -1.49838 -0.884567 0
M  V30 845 O 79.9632 -1.82704 -0.847429 0
M  V30 846 C 77.0282 -3.2705 -1.15062 0
M  V30 847 C 76.0892 -4.27228 -0.421293 0
M  V30 848 C 75.3222 -5.15722 -1.37355 0
M  V30 849 O 75.5452 -5.07176 -2.61014 0
M  V30 850 O 74.4792 -5.95383 -0.883355 0
M  V30 851 H 78.3052 -2.98309 0.569708 0
M  V30 852 H 75.8902 -1.45373 0.344535 0
M  V30 853 H 77.7722 -3.84381 -1.72712 0
M  V30 854 H 76.4472 -2.65451 -1.8525 0
M  V30 855 H 75.3542 -3.7358 0.197085 0
M  V30 856 H 76.6872 -4.91616 0.239641 0
M  V30 857 N 78.3393 -0.321999 -1.54275 0
M  V30 858 C 79.2693 0.537411 -2.27231 0
M  V30 859 C 80.2503 1.12064 -1.27968 0
M  V30 860 O 81.4353 1.14606 -1.56777 0
M  V30 861 C 78.5653 1.69919 -3.02894 0
M  V30 862 C 77.5193 1.24534 -4.09482 0
M  V30 863 C 76.8453 2.49394 -4.72977 0
M  V30 864 C 78.1453 0.361335 -5.21049 0
M  V30 865 H 79.8393 -0.0711406 -2.99315 0
M  V30 866 H 77.3853 -0.0356555 -1.43956 0
M  V30 867 H 79.3383 2.30668 -3.52662 0
M  V30 868 H 78.0623 2.33431 -2.28424 0
M  V30 869 H 76.7213 0.660782 -3.60596 0
M  V30 870 H 76.3693 3.11265 -3.95124 0
M  V30 871 H 76.0693 2.19718 -5.44975 0
M  V30 872 H 77.5933 3.10908 -5.25517 0
M  V30 873 H 79.0073 0.875072 -5.66582 0
M  V30 874 H 77.4043 0.157428 -5.99893 0
M  V30 875 H 78.4743 -0.60822 -4.8107 0
M  V30 876 N 79.8174 1.5752 -0.0501392 0
M  V30 877 C 80.7274 2.14952 0.939827 0
M  V30 878 C 81.7434 1.10706 1.34239 0
M  V30 879 O 82.9194 1.42869 1.41952 0
M  V30 880 C 79.9844 2.68232 2.19665 0
M  V30 881 C 79.0454 3.87272 1.85253 0
M  V30 882 C 78.2784 4.38002 3.04943 0
M  V30 883 O 78.5014 3.87811 4.18281 0
M  V30 884 O 77.4354 5.29602 2.86017 0
M  V30 885 H 81.2614 2.9986 0.481392 0
M  V30 886 H 78.8464 1.4841 0.171699 0
M  V30 887 H 80.7284 3.02475 2.93406 0
M  V30 888 H 79.4034 1.86395 2.64648 0
M  V30 889 H 78.3104 3.5792 1.0883 0
M  V30 890 H 79.6434 4.70336 1.4507 0
M  V30 891 N 81.2955 -0.223234 1.56011 0
M  V30 892 C 82.2425 -1.27664 1.92277 0
M  V30 893 C 83.2125 -1.46659 0.779763 0
M  V30 894 O 84.3975 -1.60256 1.03551 0
M  V30 895 C 81.5375 -2.62234 2.24338 0
M  V30 896 C 80.6505 -2.51051 3.51564 0
M  V30 897 C 79.7855 -3.78133 3.7308 0
M  V30 898 C 78.8245 -3.61665 4.93827 0
M  V30 899 N 77.9615 -4.80693 5.11741 0
M  V30 900 H 82.8015 -0.960358 2.82101 0
M  V30 901 H 80.3385 -0.462901 1.39627 0
M  V30 902 H 82.2965 -3.40596 2.40936 0
M  V30 903 H 80.9265 -2.91961 1.3769 0
M  V30 904 H 79.9785 -1.64132 3.43169 0
M  V30 905 H 81.2905 -2.34803 4.40079 0
M  V30 906 H 80.4445 -4.64938 3.89766 0
M  V30 907 H 79.1835 -3.97304 2.82844 0
M  V30 908 H 78.1885 -2.73244 4.77093 0
M  V30 909 H 79.4135 -3.43966 5.85546 0
M  V30 910 H 77.3595 -5.00181 4.24446 0
M  V30 911 H 77.2765 -4.67165 5.94384 0
M  V30 912 H 78.5445 -5.6893 5.3286 0
M  V30 913 N 82.7736 -1.49793 -0.48987 0
M  V30 914 C 84.0016 -1.63568 -1.26701 0
M  V30 915 C 84.4166 -0.311465 -1.86213 0
M  V30 916 O 83.7736 0.704416 -1.68357 0
M  V30 917 C 83.8246 -2.71284 -2.38929 0
M  V30 918 O 83.5456 -3.9857 -1.81861 0
M  V30 919 C 85.0466 -2.95864 -3.3012 0
M  V30 920 H 82.2666 -0.550342 -0.383881 0
M  V30 921 H 84.8106 -1.95898 -0.586864 0
M  V30 922 H 82.9656 -2.417 -3.02753 0
M  V30 923 H 83.3796 -4.57993 -2.55622 0
M  V30 924 H 84.8536 -3.74941 -4.05121 0
M  V30 925 H 85.3306 -2.06206 -3.87783 0
M  V30 926 H 85.9366 -3.26907 -2.72051 0
M  V30 927 N 84.2517 0.741722 -1.39055 0
M  V30 928 C 85.1817 1.869 -1.39966 0
M  V30 929 C 86.1627 1.6804 -0.26392 0
M  V30 930 O 87.3477 1.88458 -0.468755 0
M  V30 931 C 84.4777 3.24572 -1.23574 0
M  V30 932 C 83.4317 3.58056 -2.34477 0
M  V30 933 C 82.7577 4.94593 -2.0318 0
M  V30 934 C 84.0577 3.61716 -3.76774 0
M  V30 935 H 85.7517 1.86395 -2.34302 0
M  V30 936 H 83.2977 0.895361 -1.1278 0
M  V30 937 H 85.2507 4.031 -1.22834 0
M  V30 938 H 83.9747 3.25587 -0.257045 0
M  V30 939 H 82.6337 2.81854 -2.34423 0
M  V30 940 H 82.2817 4.92181 -1.03765 0
M  V30 941 H 81.9817 5.17964 -2.77465 0
M  V30 942 H 83.5057 5.75486 -2.04079 0
M  V30 943 H 84.9197 4.30335 -3.78794 0
M  V30 944 H 83.3167 3.96603 -4.50362 0
M  V30 945 H 84.3867 2.61672 -4.08235 0
M  V30 946 N 85.7298 1.2412 0.971189 0
M  V30 947 C 86.9548 1.10667 1.75407 0
M  V30 948 C 87.3798 -0.337048 1.85056 0
M  V30 949 O 86.7378 -1.24396 1.31892 0
M  V30 950 C 86.7858 1.74726 3.15441 0
M  V30 951 O 85.8898 1.01566 3.99697 0
M  V30 952 H 85.2308 0.387341 0.539317 0
M  V30 953 H 87.7608 1.64358 1.2185 0
M  V30 954 H 87.7708 1.80341 3.6598 0
M  V30 955 H 86.4458 2.79773 3.07734 0
M  V30 956 H 85.0228 1.03713 3.58187 0
M  V30 957 N 87.2079 -1.17134 1.05439 0
M  V30 958 C 88.4559 -1.87085 0.764429 0
M  V30 959 C 88.7769 -1.81584 -0.710787 0
M  V30 960 O 88.0469 -1.24349 -1.51374 0
M  V30 961 H 86.6269 -0.692627 0.279779 0
M  V30 962 H 89.2889 -1.42087 1.33406 0
M  V30 963 H 88.3849 -2.92759 1.0816 0
M  V30 964 N 88.686 -0.835752 -1.33615 0
M  V30 965 C 89.926 -0.43599 -1.99696 0
M  V30 966 C 90.29 0.98557 -1.64774 0
M  V30 967 O 91.491 1.48889 -2.23798 0
M  V30 968 C 89.762 -0.646721 -3.515 0
M  V30 969 S 91.321 -0.341715 -4.37467 0
M  V30 970 H 88.139 -0.164136 -0.691795 0
M  V30 971 H 90.741 -1.08436 -1.62671 0
M  V30 972 H 89.445 -1.68077 -3.74404 0
M  V30 973 H 88.976 0.0159173 -3.93397 0
M  V30 974 H 90.991 0.839708 -4.89043 0
M  V30 975 N 90.1641 1.46063 -0.591896 0
M  V30 976 C 91.5751 1.85944 -0.167822 0
M  V30 977 C 91.9261 1.49429 1.27143 0
M  V30 978 O 91.0511 0.913515 1.96173 0
M  V30 979 C 91.6461 3.37489 -0.297794 0
M  V30 980 C 90.2051 3.76332 0.0714732 0
M  V30 981 C 89.3521 2.7006 -0.629509 0
M  V30 982 H 92.3031 1.37087 -0.799555 0
M  V30 983 H 92.3241 3.77532 0.474349 0
M  V30 984 H 91.8361 3.64034 -1.3454 0
M  V30 985 H 89.9371 3.55405 1.11886 0
M  V30 986 H 90.0501 4.78088 -0.311245 0
M  V30 987 H 88.4141 2.54607 -0.0687867 0
M  V30 988 H 89.1971 2.99444 -1.67894 0
M  V30 989 N 91.6422 0.330177 1.54103 0
M  V30 990 C 92.6052 -0.520144 2.2322 0
M  V30 991 C 93.6052 -1.03828 1.22786 0
M  V30 992 O 94.7952 -0.929652 1.4732 0
M  V30 993 C 91.9272 -1.72317 2.94142 0
M  V30 994 H 93.1202 0.0841605 2.99782 0
M  V30 995 H 90.6732 0.0813433 1.56088 0
M  V30 996 H 91.4082 -2.36653 2.21734 0
M  V30 997 H 91.1932 -1.35898 3.67796 0
M  V30 998 H 92.6832 -2.3266 3.46784 0
M  V30 999 N 93.1203 -1.57491 0.0584922 0
M  V30 1000 C 94.3663 -1.93264 -0.614558 0
M  V30 1001 C 94.6993 -0.937717 -1.7006 0
M  V30 1002 O 93.9743 0.0351652 -1.94468 0
M  V30 1003 C 94.2573 -3.3938 -1.20386 0
M  V30 1004 C 94.1103 -4.49625 -0.125375 0
M  V30 1005 C 95.4293 -3.86039 -2.11334 0
M  V30 1006 H 92.5483 -0.702791 -0.221933 0
M  V30 1007 H 95.1903 -1.8961 0.12175 0
M  V30 1008 H 93.3403 -3.42626 -1.83139 0
M  V30 1009 H 95.0123 -4.58506 0.506971 0
M  V30 1010 H 93.2553 -4.30354 0.545672 0
M  V30 1011 H 93.9263 -5.48967 -0.577861 0
M  V30 1012 H 96.4023 -3.84716 -1.58534 0
M  V30 1013 H 95.2783 -4.88914 -2.49507 0
M  V30 1014 H 95.5393 -3.23215 -3.01636 0
M  V30 1015 N 94.5984 0.214957 -1.56127 0
M  V30 1016 C 95.8754 0.963093 -1.70247 0
M  V30 1017 C 96.2554 2.02166 -0.60764 0
M  V30 1018 O 95.6034 2.25244 0.384385 0
M  V30 1019 C 95.8134 1.56756 -3.11815 0
M  V30 1020 C 97.1614 2.0573 -3.7143 0
M  V30 1021 O 98.1854 1.66637 -3.14818 0
M  V30 1022 O 97.0444 2.77603 -4.70743 0
M  V30 1023 H 94.1384 0.450321 -0.693643 0
M  V30 1024 H 96.6844 0.206219 -1.68442 0
M  V30 1025 H 95.4564 0.803533 -3.82961 0
M  V30 1026 H 95.0794 2.3898 -3.17765 0
M  V30 1027 N 96.0765 1.50051 0.48192 0
M  V30 1028 C 97.3015 1.64508 1.26301 0
M  V30 1029 C 97.7265 0.323851 1.85291 0
M  V30 1030 O 97.0845 -0.710969 1.66778 0
M  V30 1031 C 97.1325 2.7305 2.35533 0
M  V30 1032 O 96.2365 2.3355 3.39895 0
M  V30 1033 H 95.5775 0.549978 0.372048 0
M  V30 1034 H 98.1075 1.9636 0.574786 0
M  V30 1035 H 98.1175 2.95799 2.8101 0
M  V30 1036 H 96.7925 3.68946 1.91967 0
M  V30 1037 H 95.3695 2.21205 3.00204 0
M  V30 1038 N 97.5546 -0.734337 1.39446 0
M  V30 1039 C 98.8006 -1.49613 1.36908 0
M  V30 1040 C 99.1336 -1.94169 -0.0347829 0
M  V30 1041 O 98.4086 -1.66833 -0.999847 0
M  V30 1042 C 98.6916 -2.73534 2.34203 0
M  V30 1043 C 98.5446 -2.34993 3.83534 0
M  V30 1044 C 99.8636 -3.75635 2.29317 0
M  V30 1045 H 96.9826 -0.542714 0.498629 0
M  V30 1046 H 99.6246 -0.839597 1.70443 0
M  V30 1047 H 97.7746 -3.29553 2.05736 0
M  V30 1048 H 99.4466 -1.84601 4.22753 0
M  V30 1049 H 97.6896 -1.67213 4.00278 0
M  V30 1050 H 98.3606 -3.23738 4.47099 0
M  V30 1051 H 100.837 -3.29203 2.54489 0
M  V30 1052 H 99.7126 -4.60008 2.99472 0
M  V30 1053 H 99.9736 -4.22603 1.29842 0
M  V30 1054 N 99.0327 -1.24633 -0.964593 0
M  V30 1055 C 100.279 -1.08949 -1.71049 0
M  V30 1056 C 100.612 0.370302 -1.90637 0
M  V30 1057 O 99.8867 1.27349 -1.47011 0
M  V30 1058 C 100.17 -1.83329 -3.0994 0
M  V30 1059 C 100.023 -3.37077 -2.97824 0
M  V30 1060 C 101.342 -1.60846 -4.09654 0
M  V30 1061 H 98.4607 -0.397178 -0.620821 0
M  V30 1062 H 101.103 -1.5334 -1.12191 0
M  V30 1063 H 99.2527 -1.45597 -3.60186 0
M  V30 1064 H 100.925 -3.84425 -2.5498 0
M  V30 1065 H 99.1677 -3.65298 -2.33965 0
M  V30 1066 H 99.8387 -3.84324 -3.96231 0
M  V30 1067 H 102.315 -1.93674 -3.68279 0
M  V30 1068 H 101.191 -2.1534 -5.04896 0
M  V30 1069 H 101.452 -0.547434 -4.38698 0
M  V30 1070 N 100.511 1.16574 -1.06058 0
M  V30 1071 C 101.736 1.91493 -0.796562 0
M  V30 1072 C 102.161 1.76773 0.642868 0
M  V30 1073 O 101.519 1.09142 1.44768 0
M  V30 1074 C 101.567 3.40293 -1.19303 0
M  V30 1075 O 100.671 4.11074 -0.330394 0
M  V30 1076 H 100.012 0.596678 -0.291326 0
M  V30 1077 H 102.542 1.47708 -1.41575 0
M  V30 1078 H 102.552 3.91057 -1.16356 0
M  V30 1079 H 101.227 3.50326 -2.24153 0
M  V30 1080 H 99.8038 3.70513 -0.421225 0
M  V30 1081 N 101.989 0.842826 1.3317 0
M  V30 1082 C 102.919 0.294028 2.31641 0
M  V30 1083 C 103.9 -0.600401 1.59151 0
M  V30 1084 O 105.085 -0.523124 1.87022 0
M  V30 1085 C 102.215 -0.528416 3.43257 0
M  V30 1086 C 101.169 0.27056 4.27144 0
M  V30 1087 C 100.495 -0.675881 5.30411 0
M  V30 1088 C 101.795 1.48981 5.00602 0
M  V30 1089 H 103.489 1.11681 2.77791 0
M  V30 1090 H 101.035 0.538478 1.33553 0
M  V30 1091 H 102.988 -0.922674 4.11175 0
M  V30 1092 H 101.712 -1.38445 2.95805 0
M  V30 1093 H 100.371 0.646427 3.60856 0
M  V30 1094 H 100.019 -1.52842 4.79216 0
M  V30 1095 H 99.7189 -0.145374 5.8742 0
M  V30 1096 H 101.243 -1.06757 6.01195 0
M  V30 1097 H 102.657 1.16849 5.61266 0
M  V30 1098 H 101.054 1.95739 5.6728 0
M  V30 1099 H 102.124 2.25746 4.29147 0
M  V30 1100 N 103.467 -1.45747 0.599634 0
M  V30 1101 C 104.397 -2.33235 -0.111306 0
M  V30 1102 C 105.378 -1.46359 -0.866781 0
M  V30 1103 O 106.563 -1.75146 -0.838904 0
M  V30 1104 C 103.693 -3.28932 -1.11451 0
M  V30 1105 C 102.647 -4.25381 -0.472772 0
M  V30 1106 C 101.973 -5.1071 -1.58365 0
M  V30 1107 C 103.273 -5.18831 0.600948 0
M  V30 1108 H 104.967 -2.92927 0.61919 0
M  V30 1109 H 102.513 -1.40857 0.299215 0
M  V30 1110 H 104.466 -3.89002 -1.62036 0
M  V30 1111 H 103.19 -2.67381 -1.8755 0
M  V30 1112 H 101.849 -3.66598 0.0121472 0
M  V30 1113 H 101.497 -4.45533 -2.33473 0
M  V30 1114 H 101.197 -5.7604 -1.15982 0
M  V30 1115 H 102.721 -5.73647 -2.09194 0
M  V30 1116 H 104.135 -5.73019 0.179491 0
M  V30 1117 H 102.532 -5.92595 0.946076 0
M  V30 1118 H 103.602 -4.6174 1.48068 0
M  V30 1119 N 104.945 -0.338344 -1.53925 0
M  V30 1120 C 106.222 0.314774 -1.93051 0
M  V30 1121 C 106.602 1.68669 -1.26941 0
M  V30 1122 O 105.95 2.24636 -0.418445 0
M  V30 1123 C 106.16 0.392249 -3.46789 0
M  V30 1124 C 107.508 0.645554 -4.19664 0
M  V30 1125 O 108.532 0.474575 -3.53024 0
M  V30 1126 O 107.391 0.976408 -5.37707 0
M  V30 1127 H 104.485 0.182598 -0.80659 0
M  V30 1128 H 107.031 -0.389141 -1.65178 0
M  V30 1129 H 105.803 -0.570702 -3.87116 0
M  V30 1130 H 105.426 1.14316 -3.80812 0
M  V30 1131 N 106.423 1.57458 -0.0668435 0
M  V30 1132 C 107.671 1.92919 0.602214 0
M  V30 1133 C 107.992 0.947215 1.70449 0
M  V30 1134 O 107.262 -0.00544117 1.95899 0
M  V30 1135 H 105.842 0.71217 0.22544 0
M  V30 1136 H 108.504 1.94508 -0.123535 0
M  V30 1137 H 107.6 2.94589 1.03073 0
M  V30 1138 N 107.901 -0.206675 1.56239 0
M  V30 1139 C 109.147 -0.930218 1.80208 0
M  V30 1140 C 109.48 -1.83387 0.638981 0
M  V30 1141 O 108.755 -1.91119 -0.361066 0
M  V30 1142 C 109.038 -1.75641 3.1436 0
M  V30 1143 C 108.891 -0.878257 4.41142 0
M  V30 1144 C 110.21 -2.73129 3.45092 0
M  V30 1145 H 107.329 -0.336742 0.655571 0
M  V30 1146 H 109.971 -0.198222 1.88963 0
M  V30 1147 H 108.121 -2.38048 3.07027 0
M  V30 1148 H 109.793 -0.269787 4.6051 0
M  V30 1149 H 108.036 -0.184385 4.33408 0
M  V30 1150 H 108.707 -1.49106 5.3148 0
M  V30 1151 H 111.183 -2.20856 3.52649 0
M  V30 1152 H 110.059 -3.28028 4.40101 0
M  V30 1153 H 110.32 -3.51606 2.68003 0
M  V30 1154 N 109.379 -1.50304 -0.473955 0
M  V30 1155 C 110.625 -1.61389 -1.22806 0
M  V30 1156 C 110.958 -0.311955 -1.91678 0
M  V30 1157 O 110.233 0.686384 -1.81986 0
M  V30 1158 C 110.516 -2.79219 -2.27396 0
M  V30 1159 C 110.369 -4.19286 -1.62848 0
M  V30 1160 C 111.688 -2.92614 -3.28732 0
M  V30 1161 H 108.807 -0.587399 -0.445119 0
M  V30 1162 H 111.449 -1.82681 -0.522265 0
M  V30 1163 H 109.599 -2.61195 -2.87592 0
M  V30 1164 H 111.271 -4.48892 -1.06271 0
M  V30 1165 H 109.514 -4.23677 -0.931693 0
M  V30 1166 H 110.185 -4.97655 -2.38838 0
M  V30 1167 H 112.661 -3.09105 -2.78556 0
M  V30 1168 H 111.537 -3.76688 -3.99246 0
M  V30 1169 H 111.798 -2.03107 -3.92683 0
M  V30 1170 N 110.857 0.726932 -1.39834 0
M  V30 1171 C 111.767 1.87131 -1.41489 0
M  V30 1172 C 112.783 1.71239 -0.308757 0
M  V30 1173 O 113.959 1.93701 -0.551529 0
M  V30 1174 C 111.024 3.22811 -1.26468 0
M  V30 1175 C 110.085 3.51039 -2.47124 0
M  V30 1176 C 109.318 4.80245 -2.3281 0
M  V30 1177 O 109.541 5.54537 -1.33585 0
M  V30 1178 O 108.475 5.08554 -3.21957 0
M  V30 1179 H 112.301 1.8869 -2.3797 0
M  V30 1180 H 109.886 0.875837 -1.21035 0
M  V30 1181 H 111.768 4.03877 -1.20255 0
M  V30 1182 H 110.443 3.22005 -0.330862 0
M  V30 1183 H 109.35 2.70027 -2.58914 0
M  V30 1184 H 110.683 3.56632 -3.39227 0
M  V30 1185 N 112.336 1.25143 0.95797 0
M  V30 1186 C 113.283 1.05235 2.05412 0
M  V30 1187 C 114.253 -0.0374561 1.66058 0
M  V30 1188 O 115.438 0.119073 1.90428 0
M  V30 1189 C 112.578 0.673589 3.38462 0
M  V30 1190 C 111.691 1.8379 3.90954 0
M  V30 1191 C 110.826 1.40381 5.12315 0
M  V30 1192 C 109.865 2.53746 5.57027 0
M  V30 1193 N 109.002 2.11136 6.69601 0
M  V30 1194 H 113.842 1.99048 2.21774 0
M  V30 1195 H 111.379 0.991277 1.08683 0
M  V30 1196 H 113.337 0.434964 4.14926 0
M  V30 1197 H 111.967 -0.227554 3.21997 0
M  V30 1198 H 111.019 2.18992 3.11041 0
M  V30 1199 H 112.331 2.68937 4.20089 0
M  V30 1200 H 111.485 1.12464 5.96185 0
M  V30 1201 H 110.224 0.523015 4.84887 0
M  V30 1202 H 109.229 2.82412 4.71724 0
M  V30 1203 H 110.454 3.42398 5.86464 0
M  V30 1204 H 108.4 1.25468 6.4389 0
M  V30 1205 H 108.317 2.89832 6.98236 0
M  V30 1206 H 109.585 1.86385 7.56889 0
M  V30 1207 N 113.814 -1.1601 1.06675 0
M  V30 1208 C 114.744 -2.22688 0.702307 0
M  V30 1209 C 115.725 -1.67306 -0.307032 0
M  V30 1210 O 116.91 -1.93352 -0.181305 0
M  V30 1211 C 114.04 -3.47178 0.092038 0
M  V30 1212 C 112.994 -4.15477 1.02777 0
M  V30 1213 C 112.32 -5.33963 0.28061 0
M  V30 1214 C 113.62 -4.66019 2.35846 0
M  V30 1215 H 115.314 -2.53429 1.59419 0
M  V30 1216 H 112.86 -1.21813 0.767961 0
M  V30 1217 H 114.813 -4.21037 -0.174814 0
M  V30 1218 H 113.537 -3.15749 -0.834877 0
M  V30 1219 H 112.196 -3.43549 1.27944 0
M  V30 1220 H 111.844 -4.98788 -0.649545 0
M  V30 1221 H 111.544 -5.806 0.904258 0
M  V30 1222 H 113.068 -6.10596 0.021396 0
M  V30 1223 H 114.482 -5.3144 2.15045 0
M  V30 1224 H 112.879 -5.23293 2.93743 0
M  V30 1225 H 113.949 -3.82023 2.98641 0
M  V30 1226 N 115.292 -0.849877 -1.32721 0
M  V30 1227 C 116.517 -0.463856 -2.02146 0
M  V30 1228 C 116.942 0.930449 -1.63476 0
M  V30 1229 O 116.3 1.61033 -0.832952 0
M  V30 1230 C 116.348 -0.604955 -3.55489 0
M  V30 1231 O 115.452 0.36425 -4.10788 0
M  V30 1232 H 114.793 -0.187046 -0.637111 0
M  V30 1233 H 117.323 -1.14775 -1.69375 0
M  V30 1234 H 117.333 -0.490696 -4.05038 0
M  V30 1235 H 116.008 -1.62174 -3.82978 0
M  V30 1236 H 114.585 0.206628 -3.72327 0
M  V30 1237 N 116.77 1.45427 -0.607355 0
M  V30 1238 C 118.016 2.0254 -0.102607 0
M  V30 1239 C 118.349 1.47478 1.26348 0
M  V30 1240 O 117.624 0.64939 1.83339 0
M  V30 1241 C 117.907 3.60044 -0.0634347 0
M  V30 1242 C 117.76 4.2544 -1.46017 0
M  V30 1243 C 119.079 4.35646 0.624514 0
M  V30 1244 H 116.198 0.73598 -0.0387607 0
M  V30 1245 H 118.84 1.73284 -0.779282 0
M  V30 1246 H 116.99 3.85101 0.512808 0
M  V30 1247 H 118.662 4.11569 -2.08347 0
M  V30 1248 H 116.905 3.83849 -2.02094 0
M  V30 1249 H 117.576 5.34342 -1.385 0
M  V30 1250 H 120.052 4.15882 0.134723 0
M  V30 1251 H 118.928 5.45376 0.621028 0
M  V30 1252 H 119.189 4.08501 1.69055 0
M  V30 1253 N 118.248 0.346503 1.53744 0
M  V30 1254 C 119.178 -0.501193 2.28058 0
M  V30 1255 C 120.159 -1.10014 1.29734 0
M  V30 1256 O 121.344 -1.12097 1.58581 0
M  V30 1257 C 118.474 -1.65078 3.05559 0
M  V30 1258 C 117.428 -1.18003 4.11411 0
M  V30 1259 C 116.754 -2.41837 4.76884 0
M  V30 1260 C 118.054 -0.278394 5.21558 0
M  V30 1261 H 119.748 0.11875 2.99164 0
M  V30 1262 H 117.294 0.0585531 1.43881 0
M  V30 1263 H 119.247 -2.25028 3.56287 0
M  V30 1264 H 117.971 -2.29767 2.32109 0
M  V30 1265 H 116.63 -0.603331 3.61601 0
M  V30 1266 H 116.278 -3.0494 4.00026 0
M  V30 1267 H 115.978 -2.1102 5.48402 0
M  V30 1268 H 117.502 -3.02508 5.30397 0
M  V30 1269 H 118.916 -0.784823 5.67903 0
M  V30 1270 H 117.313 -0.0619707 6.00068 0
M  V30 1271 H 118.383 0.684677 4.80042 0
M  V30 1272 N 119.726 -1.57421 0.075193 0
M  V30 1273 C 120.673 -2.12915 -0.890843 0
M  V30 1274 C 121.643 -1.04252 -1.29309 0
M  V30 1275 O 122.828 -1.31933 -1.37834 0
M  V30 1276 C 119.968 -2.69795 -2.15186 0
M  V30 1277 C 119.081 -3.92624 -1.80194 0
M  V30 1278 C 118.216 -4.37736 -3.00933 0
M  V30 1279 C 117.255 -5.53205 -2.61974 0
M  V30 1280 N 116.392 -5.9326 -3.75483 0
M  V30 1281 H 121.232 -2.95156 -0.410735 0
M  V30 1282 H 118.769 -1.45854 -0.191086 0
M  V30 1283 H 120.727 -3.00883 -2.89008 0
M  V30 1284 H 119.357 -1.90313 -2.60731 0
M  V30 1285 H 118.409 -3.67977 -0.964218 0
M  V30 1286 H 119.721 -4.76482 -1.47534 0
M  V30 1287 H 118.875 -4.70503 -3.8303 0
M  V30 1288 H 117.614 -3.52739 -3.36789 0
M  V30 1289 H 116.619 -5.20086 -1.783 0
M  V30 1290 H 117.844 -6.39936 -2.27284 0
M  V30 1291 H 115.79 -5.11212 -4.11094 0
M  V30 1292 H 115.707 -6.71865 -3.46602 0
M  V30 1293 H 116.975 -6.30651 -4.58148 0
M  V30 1294 N 121.204 0.198386 -1.56346 0
M  V30 1295 C 122.62 0.549085 -1.49857 0
M  V30 1296 C 122.82 1.86016 -0.774611 0
M  V30 1297 O 121.876 2.50416 -0.323776 0
M  V30 1298 C 123.189 0.606868 -2.94512 0
M  V30 1299 C 124.737 0.695925 -3.05165 0
M  V30 1300 C 125.212 0.784848 -4.51225 0
M  V30 1301 N 126.703 0.848463 -4.55363 0
M  V30 1302 C 127.438 0.937378 -5.65686 0
M  V30 1303 N 126.934 0.9888 -6.85707 0
M  V30 1304 N 128.727 0.974312 -5.53592 0
M  V30 1305 H 120.878 -0.661655 -2.01831 0
M  V30 1306 H 123.141 -0.235261 -0.918344 0
M  V30 1307 H 122.847 -0.28732 -3.50524 0
M  V30 1308 H 122.721 1.46268 -3.47686 0
M  V30 1309 H 125.108 1.58055 -2.49204 0
M  V30 1310 H 125.189 -0.186022 -2.55123 0
M  V30 1311 H 124.833 -0.0954072 -5.0781 0
M  V30 1312 H 124.763 1.68255 -4.98997 0
M  V30 1313 H 127.254 0.818103 -3.68938 0
M  V30 1314 H 127.567 1.05707 -7.65536 0
M  V30 1315 H 125.912 0.957534 -6.88372 0
M  V30 1316 H 129.103 0.930954 -4.58749 0
M  V30 1317 H 129.276 1.04015 -6.39597 0
M  V30 1318 N 122.682 1.50554 0.465978 0
M  V30 1319 C 123.629 1.6979 1.56333 0
M  V30 1320 C 124.599 0.539239 1.57103 0
M  V30 1321 O 125.784 0.770401 1.74555 0
M  V30 1322 C 122.924 1.80273 2.94271 0
M  V30 1323 C 122.037 3.07674 3.0325 0
M  V30 1324 C 121.172 3.08922 4.32135 0
M  V30 1325 C 120.211 4.30755 4.34875 0
M  V30 1326 N 119.348 4.29714 5.55239 0
M  V30 1327 H 124.188 2.63472 1.39235 0
M  V30 1328 H 121.725 1.30602 0.676873 0
M  V30 1329 H 123.683 1.84332 3.74269 0
M  V30 1330 H 122.313 0.900258 3.09992 0
M  V30 1331 H 121.365 3.13062 2.16094 0
M  V30 1332 H 122.677 3.97642 3.01135 0
M  V30 1333 H 121.831 3.11738 5.20485 0
M  V30 1334 H 120.57 2.16792 4.36866 0
M  V30 1335 H 119.575 4.28146 3.44922 0
M  V30 1336 H 120.8 5.24117 4.31831 0
M  V30 1337 H 118.746 3.4044 5.60746 0
M  V30 1338 H 118.663 5.13456 5.54886 0
M  V30 1339 H 119.931 4.36683 6.457 0
M  V30 1340 N 124.16 -0.719506 1.40217 0
M  V30 1341 C 125.123 -1.8153 1.39927 0
M  V30 1342 C 126.123 -1.58095 0.293723 0
M  V30 1343 O 127.313 -1.65209 0.552429 0
M  V30 1344 C 124.445 -3.19561 1.18716 0
M  V30 1345 H 125.638 -1.83186 2.37451 0
M  V30 1346 H 123.191 -0.924746 1.26008 0
M  V30 1347 H 123.926 -3.23557 0.219366 0
M  V30 1348 H 123.711 -3.3797 1.98793 0
M  V30 1349 H 125.201 -3.99598 1.21291 0
M  V30 1350 N 125.638 -1.25649 -0.95132 0
M  V30 1351 C 126.884 -1.10757 -1.69884 0
M  V30 1352 C 127.217 0.350061 -1.91019 0
M  V30 1353 O 126.492 1.25783 -1.48354 0
M  V30 1354 C 126.775 -1.86606 -3.07978 0
M  V30 1355 C 126.628 -3.40217 -2.94232 0
M  V30 1356 C 127.947 -1.65182 -4.07925 0
M  V30 1357 H 125.066 -0.40374 -0.616574 0
M  V30 1358 H 127.708 -1.54521 -1.10558 0
M  V30 1359 H 125.858 -1.49409 -3.58621 0
M  V30 1360 H 127.53 -3.87108 -2.50889 0
M  V30 1361 H 125.773 -3.67759 -2.30078 0
M  V30 1362 H 126.444 -3.88505 -3.92133 0
M  V30 1363 H 128.92 -1.9757 -3.66204 0
M  V30 1364 H 127.796 -2.20683 -5.02583 0
M  V30 1365 H 128.057 -0.593933 -4.38092 0
M  V30 1366 N 127.117 1.15442 -1.07289 0
M  V30 1367 C 128.027 2.23786 -0.704057 0
M  V30 1368 C 129.043 1.7166 0.284413 0
M  V30 1369 O 130.219 2.00972 0.131205 0
M  V30 1370 C 127.284 3.46535 -0.106792 0
M  V30 1371 C 126.345 4.13654 -1.14842 0
M  V30 1372 C 125.578 5.30544 -0.57956 0
M  V30 1373 O 125.801 5.67187 0.604585 0
M  V30 1374 O 124.735 5.87154 -1.32414 0
M  V30 1375 H 128.561 2.57664 -1.60757 0
M  V30 1376 H 126.146 1.23152 -0.845803 0
M  V30 1377 H 128.028 4.20804 0.224048 0
M  V30 1378 H 126.703 3.14407 0.770049 0
M  V30 1379 H 125.61 3.4131 -1.5316 0
M  V30 1380 H 126.943 4.49861 -1.99714 0
M  V30 1381 N 128.595 0.856903 1.32268 0
M  V30 1382 C 129.82 0.474569 2.01897 0
M  V30 1383 C 130.245 -0.921766 1.63967 0
M  V30 1384 O 129.603 -1.60589 0.84148 0
M  V30 1385 C 129.651 0.623799 3.55164 0
M  V30 1386 O 128.755 -0.342459 4.10976 0
M  V30 1387 H 128.096 0.190422 0.63611 0
M  V30 1388 H 130.626 1.15672 1.68764 0
M  V30 1389 H 130.636 0.512169 4.04773 0
M  V30 1390 H 129.311 1.64202 3.82113 0
M  V30 1391 H 127.888 -0.18688 3.72431 0
M  V30 1392 N 130.073 -1.45103 0.615059 0
M  V30 1393 C 131.322 -2.01396 0.110718 0
M  V30 1394 C 131.635 -1.48834 -1.26916 0
M  V30 1395 O 132.841 -1.97152 -1.86664 0
M  V30 1396 C 131.297 -3.59599 0.14723 0
M  V30 1397 C 130.905 -4.21158 1.52743 0
M  V30 1398 C 132.649 -4.23428 -0.30148 0
M  V30 1399 C 130.556 -5.71535 1.51992 0
M  V30 1400 H 129.486 -0.753061 0.0376241 0
M  V30 1401 H 132.137 -1.66494 0.77149 0
M  V30 1402 H 130.519 -3.91724 -0.580339 0
M  V30 1403 H 131.693 -4.00594 2.2773 0
M  V30 1404 H 130.008 -3.69552 1.91886 0
M  V30 1405 H 132.605 -5.33703 -0.326392 0
M  V30 1406 H 132.948 -3.94629 -1.32565 0
M  V30 1407 H 133.481 -3.96047 0.373065 0
M  V30 1408 H 130.22 -6.05044 2.52193 0
M  V30 1409 H 129.74 -5.94268 0.81274 0
M  V30 1410 H 131.419 -6.34873 1.24681 0
M  V30 1411 N 131.551 -0.354651 -1.53558 0
M  V30 1412 C 132.483 0.5315 -2.22952 0
M  V30 1413 C 133.496 1.05503 -1.23988 0
M  V30 1414 O 134.685 0.963279 -1.50277 0
M  V30 1415 C 131.785 1.74538 -2.90499 0
M  V30 1416 C 130.958 1.35524 -4.15875 0
M  V30 1417 C 130.017 2.42999 -4.66731 0
M  V30 1418 O 129.043 2.05844 -5.30676 0
M  V30 1419 N 130.245 3.74423 -4.43608 0
M  V30 1420 H 133.01 -0.0628615 -2.99634 0
M  V30 1421 H 130.571 -0.179302 -1.60904 0
M  V30 1422 H 132.563 2.45892 -3.21433 0
M  V30 1423 H 131.133 2.24686 -2.17336 0
M  V30 1424 H 130.353 0.471998 -3.91364 0
M  V30 1425 H 131.641 1.07071 -4.97406 0
M  V30 1426 H 131.039 4.07391 -3.92491 0
M  V30 1427 H 129.596 4.41913 -4.7912 0
M  V30 1428 N 133.029 1.57378 -0.0835403 0
M  V30 1429 C 133.992 2.12252 0.864959 0
M  V30 1430 C 134.992 1.04916 1.21858 0
M  V30 1431 O 136.182 1.30853 1.14991 0
M  V30 1432 C 133.314 2.63358 2.16461 0
M  V30 1433 H 134.507 2.97371 0.388676 0
M  V30 1434 H 132.06 1.55423 0.165317 0
M  V30 1435 H 132.795 1.81727 2.686 0
M  V30 1436 H 132.58 3.41826 1.92087 0
M  V30 1437 H 134.07 3.05847 2.84337 0
M  V30 1438 N 134.507 -0.190092 1.56449 0
M  V30 1439 C 135.417 -1.25591 1.98152 0
M  V30 1440 C 136.433 -1.49519 0.889944 0
M  V30 1441 O 137.609 -1.62036 1.19609 0
M  V30 1442 C 134.674 -2.57916 2.3169 0
M  V30 1443 C 133.735 -2.42015 3.5458 0
M  V30 1444 C 132.968 -3.6803 3.8651 0
M  V30 1445 O 133.191 -4.72413 3.1966 0
M  V30 1446 O 132.125 -3.6326 4.79923 0
M  V30 1447 H 135.951 -0.931988 2.89046 0
M  V30 1448 H 133.536 -0.395488 1.4407 0
M  V30 1449 H 135.418 -3.36008 2.54316 0
M  V30 1450 H 134.093 -2.89925 1.43963 0
M  V30 1451 H 133 -1.62017 3.37196 0
M  V30 1452 H 134.333 -2.14937 4.4279 0
M  V30 1453 N 135.985 -1.50799 -0.457987 0
M  V30 1454 C 137.262 -1.52968 -1.21902 0
M  V30 1455 C 137.642 -0.281906 -2.09209 0
M  V30 1456 O 136.99 0.734076 -2.16388 0
M  V30 1457 C 137.2 -2.8326 -2.03875 0
M  V30 1458 C 138.548 -3.34425 -2.6162 0
M  V30 1459 O 139.572 -2.8467 -2.14106 0
M  V30 1460 O 138.431 -4.21188 -3.48228 0
M  V30 1461 H 135.525 -0.614129 -0.553873 0
M  V30 1462 H 138.071 -1.63098 -0.468739 0
M  V30 1463 H 136.843 -3.65543 -1.39621 0
M  V30 1464 H 136.466 -2.76195 -2.8601 0
M  V30 1465 N 137.463 0.71206 -1.40597 0
M  V30 1466 C 138.373 1.8562 -1.43466 0
M  V30 1467 C 139.389 1.70902 -0.326902 0
M  V30 1468 O 140.565 1.93105 -0.572043 0
M  V30 1469 C 137.63 3.21451 -1.29884 0
M  V30 1470 C 136.691 3.48398 -2.50833 0
M  V30 1471 C 135.924 4.77749 -2.3789 0
M  V30 1472 O 136.147 5.53089 -1.39459 0
M  V30 1473 O 135.081 5.05111 -3.27333 0
M  V30 1474 H 138.907 1.86155 -2.39958 0
M  V30 1475 H 136.492 0.86295 -1.21957 0
M  V30 1476 H 138.374 4.02579 -1.24531 0
M  V30 1477 H 137.049 3.21636 -0.364997 0
M  V30 1478 H 135.956 2.67265 -2.61763 0
M  V30 1479 H 137.289 3.53014 -3.4299 0
M  V30 1480 N 138.941 1.26152 0.944643 0
M  V30 1481 C 140.166 1.14363 1.7302 0
M  V30 1482 C 140.591 -0.29772 1.85729 0
M  V30 1483 O 139.949 -1.2157 1.34501 0
M  V30 1484 C 139.997 1.81378 3.11664 0
M  V30 1485 O 139.101 1.10022 3.97453 0
M  V30 1486 H 138.442 0.398694 0.53098 0
M  V30 1487 H 140.972 1.66906 1.18337 0
M  V30 1488 H 140.982 1.88064 3.62072 0
M  V30 1489 H 139.657 2.86237 3.0173 0
M  V30 1490 H 138.234 1.11287 3.55907 0
M  V30 1491 N 140.419 -1.14872 1.07899 0
M  V30 1492 C 141.382 -2.17986 0.708161 0
M  V30 1493 C 142.382 -1.58775 -0.25442 0
M  V30 1494 O 143.572 -1.74166 -0.034645 0
M  V30 1495 C 140.704 -3.40871 0.0446929 0
M  V30 1496 H 141.897 -2.52306 1.62116 0
M  V30 1497 H 139.45 -1.2943 0.876218 0
M  V30 1498 H 140.185 -3.12124 -0.880281 0
M  V30 1499 H 139.97 -3.8511 0.737091 0
M  V30 1500 H 141.46 -4.17121 -0.19991 0
M  V30 1501 N 141.898 -0.863906 -1.31812 0
M  V30 1502 C 142.845 -0.313303 -2.28664 0
M  V30 1503 C 143.815 0.584868 -1.55462 0
M  V30 1504 O 145 0.517805 -1.83639 0
M  V30 1505 C 142.14 0.48441 -3.41683 0
M  V30 1506 C 141.253 -0.440594 -4.29747 0
M  V30 1507 C 140.388 0.370652 -5.29905 0
M  V30 1508 C 139.427 -0.551164 -6.09613 0
M  V30 1509 N 138.564 0.223462 -7.01744 0
M  V30 1510 H 143.404 -1.14444 -2.75148 0
M  V30 1511 H 140.941 -0.575769 -1.35364 0
M  V30 1512 H 142.899 0.962627 -4.05943 0
M  V30 1513 H 141.529 1.28029 -2.96325 0
M  V30 1514 H 140.581 -1.03724 -3.65986 0
M  V30 1515 H 141.893 -1.14767 -4.85417 0
M  V30 1516 H 141.047 0.911638 -5.99812 0
M  V30 1517 H 139.786 1.11105 -4.74876 0
M  V30 1518 H 138.791 -1.10396 -5.38603 0
M  V30 1519 H 140.016 -1.29032 -6.66729 0
M  V30 1520 H 137.962 0.946787 -6.49132 0
M  V30 1521 H 137.879 -0.424399 -7.54808 0
M  V30 1522 H 139.147 0.745876 -7.75923 0
M  V30 1523 N 143.376 1.44774 -0.622745 0
M  V30 1524 C 144.306 2.33382 0.0741861 0
M  V30 1525 C 145.287 1.47719 0.843387 0
M  V30 1526 O 146.472 1.76458 0.810934 0
M  V30 1527 C 143.602 3.30663 1.06204 0
M  V30 1528 C 142.556 4.26079 0.405037 0
M  V30 1529 C 141.882 5.13165 1.5022 0
M  V30 1530 C 143.182 5.1781 -0.683414 0
M  V30 1531 H 144.876 2.91905 -0.665713 0
M  V30 1532 H 142.422 1.40363 -0.321587 0
M  V30 1533 H 144.375 3.9153 1.55827 0
M  V30 1534 H 143.099 2.70331 1.83272 0
M  V30 1535 H 141.758 3.66532 -0.0704683 0
M  V30 1536 H 141.406 4.49191 2.26355 0
M  V30 1537 H 141.106 5.77812 1.06803 0
M  V30 1538 H 142.63 5.76902 2.00041 0
M  V30 1539 H 144.044 5.72661 -0.270631 0
M  V30 1540 H 142.441 5.91015 -1.04023 0
M  V30 1541 H 143.511 4.59326 -1.55395 0
M  V30 1542 N 144.854 0.36279 1.53368 0
M  V30 1543 C 146.094 -0.227882 2.03126 0
M  V30 1544 C 146.458 -1.4622 1.24434 0
M  V30 1545 O 147.659 -2.12831 1.64184 0
M  V30 1546 C 145.93 -0.515427 3.53664 0
M  V30 1547 S 147.489 -1.08017 4.25297 0
M  V30 1548 H 144.307 -0.0665377 0.70788 0
M  V30 1549 H 146.909 0.50501 1.88865 0
M  V30 1550 H 145.613 0.390436 4.08539 0
M  V30 1551 H 145.144 -1.27747 3.72081 0
M  V30 1552 H 147.159 -2.36462 4.36234 0
M  V30 1553 N 146.332 -1.57332 0.0918853 0
M  V30 1554 C 147.279 -2.13847 -0.868211 0
M  V30 1555 C 148.249 -1.05618 -1.28196 0
M  V30 1556 O 149.434 -1.33387 -1.36427 0
M  V30 1557 C 146.574 -2.72062 -2.12312 0
M  V30 1558 C 145.687 -3.94514 -1.7602 0
M  V30 1559 C 144.822 -4.40903 -2.96273 0
M  V30 1560 C 143.861 -5.55953 -2.56092 0
M  V30 1561 N 142.998 -5.97209 -3.69169 0
M  V30 1562 H 147.838 -2.95575 -0.379406 0
M  V30 1563 H 145.375 -1.46048 -0.175606 0
M  V30 1564 H 147.333 -3.03931 -2.858 0
M  V30 1565 H 145.963 -1.93068 -2.58698 0
M  V30 1566 H 145.015 -3.68979 -0.925135 0
M  V30 1567 H 146.327 -4.7802 -1.42472 0
M  V30 1568 H 145.481 -4.74539 -3.78018 0
M  V30 1569 H 144.22 -3.56291 -3.33029 0
M  V30 1570 H 143.225 -5.21948 -1.72773 0
M  V30 1571 H 144.45 -6.42311 -2.20484 0
M  V30 1572 H 142.396 -5.15543 -4.05649 0
M  V30 1573 H 142.313 -6.75504 -3.39456 0
M  V30 1574 H 143.581 -6.35475 -4.51434 0
M  V30 1575 N 147.81 0.181792 -1.56548 0
M  V30 1576 C 149.226 0.53316 -1.50431 0
M  V30 1577 C 149.426 1.85184 -0.794297 0
M  V30 1578 O 148.482 2.50058 -0.350318 0
M  V30 1579 C 149.795 0.575597 -2.9514 0
M  V30 1580 C 151.343 0.663519 -3.05886 0
M  V30 1581 C 151.818 0.736946 -4.52032 0
M  V30 1582 N 153.309 0.800118 -4.56237 0
M  V30 1583 C 154.044 0.877327 -5.66649 0
M  V30 1584 N 153.54 0.916016 -6.86718 0
M  V30 1585 N 155.333 0.915542 -5.54594 0
M  V30 1586 H 147.484 -0.683025 -2.01118 0
M  V30 1587 H 149.747 -0.244988 -0.915797 0
M  V30 1588 H 149.453 -0.324482 -3.502 0
M  V30 1589 H 149.327 1.42572 -3.49218 0
M  V30 1590 H 151.714 1.55403 -2.50867 0
M  V30 1591 H 151.795 -0.21307 -2.54911 0
M  V30 1592 H 151.439 -0.149262 -5.07681 0
M  V30 1593 H 151.369 1.62953 -5.00753 0
M  V30 1594 H 153.86 0.778926 -3.69785 0
M  V30 1595 H 154.173 0.975813 -7.66614 0
M  V30 1596 H 152.518 0.884469 -6.89349 0
M  V30 1597 H 155.709 0.882245 -4.59711 0
M  V30 1598 H 155.882 0.972253 -6.40665 0
M  V30 1599 N 149.288 1.51039 0.449983 0
M  V30 1600 C 150.704 1.38934 0.785462 0
M  V30 1601 C 150.904 0.461817 1.96136 0
M  V30 1602 O 149.96 -0.0877389 2.52348 0
M  V30 1603 C 151.273 2.80724 1.0777 0
M  V30 1604 C 152.821 2.89787 1.1829 0
M  V30 1605 C 153.296 4.32457 1.50815 0
M  V30 1606 N 154.787 4.35505 1.57764 0
M  V30 1607 C 155.522 5.42914 1.84477 0
M  V30 1608 N 155.018 6.60502 2.09068 0
M  V30 1609 N 156.811 5.3038 1.86155 0
M  V30 1610 H 148.962 2.09904 -0.324647 0
M  V30 1611 H 151.225 0.944378 -0.0827957 0
M  V30 1612 H 150.931 3.50531 0.286498 0
M  V30 1613 H 150.805 3.19273 2.00859 0
M  V30 1614 H 153.192 2.20186 1.96474 0
M  V30 1615 H 153.273 2.54752 0.231314 0
M  V30 1616 H 152.917 5.02603 0.731622 0
M  V30 1617 H 152.847 4.64995 2.47158 0
M  V30 1618 H 155.338 3.50724 1.40715 0
M  V30 1619 H 155.651 7.38158 2.28785 0
M  V30 1620 H 153.996 6.63639 2.06416 0
M  V30 1621 H 157.187 4.37505 1.66454 0
M  V30 1622 H 157.36 6.1417 2.06637 0
M  V30 1623 N 150.766 -0.704594 1.40972 0
M  V30 1624 C 152.015 -1.46018 1.39146 0
M  V30 1625 C 152.328 -1.956 0.000589254 0
M  V30 1626 O 153.534 -2.71137 -0.1403 0
M  V30 1627 C 151.99 -2.63996 2.4461 0
M  V30 1628 C 151.598 -2.21238 3.89561 0
M  V30 1629 C 153.342 -3.41677 2.51907 0
M  V30 1630 C 151.249 -3.3612 4.86598 0
M  V30 1631 H 150.179 -0.548444 0.517422 0
M  V30 1632 H 152.83 -0.765784 1.66757 0
M  V30 1633 H 151.212 -3.3566 2.10115 0
M  V30 1634 H 152.386 -1.56923 4.33257 0
M  V30 1635 H 150.701 -1.56574 3.85841 0
M  V30 1636 H 153.298 -4.27182 3.2159 0
M  V30 1637 H 153.641 -3.86247 1.55303 0
M  V30 1638 H 154.174 -2.77064 2.85448 0
M  V30 1639 H 150.913 -2.96572 5.84573 0
M  V30 1640 H 150.433 -3.99315 4.47557 0
M  V30 1641 H 152.112 -4.02029 5.06934 0
M  V30 1642 N 152.244 -1.26651 -0.937939 0
M  V30 1643 C 153.154 -1.10276 -2.07066 0
M  V30 1644 C 154.17 -0.0354197 -1.73964 0
M  V30 1645 O 155.346 -0.239816 -1.99967 0
M  V30 1646 C 152.411 -0.740887 -3.38691 0
M  V30 1647 C 151.472 -1.88799 -3.85556 0
M  V30 1648 C 150.705 -1.54329 -5.10899 0
M  V30 1649 O 150.928 -0.446494 -5.6865 0
M  V30 1650 O 149.862 -2.37911 -5.52885 0
M  V30 1651 H 153.688 -2.05309 -2.23789 0
M  V30 1652 H 151.273 -1.05743 -1.0554 0
M  V30 1653 H 153.155 -0.55195 -4.1777 0
M  V30 1654 H 151.83 0.180022 -3.23199 0
M  V30 1655 H 150.737 -2.13191 -3.07409 0
M  V30 1656 H 152.07 -2.78874 -4.05574 0
M  V30 1657 N 153.722 1.14298 -1.08507 0
M  V30 1658 C 154.672 2.17449 -0.685569 0
M  V30 1659 C 155.656 1.58167 0.295315 0
M  V30 1660 O 156.848 1.76675 0.107172 0
M  V30 1661 C 153.977 3.43161 -0.0975318 0
M  V30 1662 C 153.063 4.09471 -1.10426 0
M  V30 1663 N 153.454 4.51089 -2.28806 0
M  V30 1664 C 151.752 4.35976 -0.940258 0
M  V30 1665 C 152.453 5.02654 -2.9277 0
M  V30 1666 N 151.429 4.96927 -2.20374 0
M  V30 1667 H 155.231 2.47369 -1.587 0
M  V30 1668 H 152.745 1.30992 -0.959936 0
M  V30 1669 H 154.742 4.16388 0.20664 0
M  V30 1670 H 153.402 3.14719 0.798872 0
M  V30 1671 H 154.413 4.44097 -2.66455 0
M  V30 1672 H 151.09 4.17386 -0.0977441 0
M  V30 1673 H 152.48 5.44723 -3.93352 0
M  V30 1674 N 155.201 0.870884 1.31352 0
M  V30 1675 C 156.131 0.343096 2.30966 0
M  V30 1676 C 157.112 -0.566507 1.60389 0
M  V30 1677 O 158.297 -0.483336 1.88089 0
M  V30 1678 C 155.427 -0.455487 3.443 0
M  V30 1679 C 154.381 0.361103 4.26474 0
M  V30 1680 C 153.707 -0.563221 5.31725 0
M  V30 1681 C 155.007 1.59566 4.97329 0
M  V30 1682 H 156.701 1.17548 2.75359 0
M  V30 1683 H 154.247 0.566686 1.32381 0
M  V30 1684 H 156.2 -0.83525 4.13039 0
M  V30 1685 H 154.924 -1.32139 2.98675 0
M  V30 1686 H 153.583 0.722825 3.59403 0
M  V30 1687 H 153.231 -1.42643 4.82351 0
M  V30 1688 H 152.931 -0.0207409 5.87596 0
M  V30 1689 H 154.455 -0.939808 6.03324 0
M  V30 1690 H 155.869 1.28728 5.58661 0
M  V30 1691 H 154.266 2.07728 5.63 0
M  V30 1692 H 155.336 2.34798 4.24262 0
M  V30 1693 N 156.679 -1.44442 0.630414 0
M  V30 1694 C 157.626 -2.30678 -0.0749355 0
M  V30 1695 C 158.596 -1.4344 -0.837502 0
M  V30 1696 O 159.781 -1.72343 -0.818684 0
M  V30 1697 C 156.921 -3.28706 -1.05103 0
M  V30 1698 C 156.034 -4.31046 -0.286954 0
M  V30 1699 C 155.169 -5.16167 -1.2548 0
M  V30 1700 C 154.208 -6.10216 -0.479843 0
M  V30 1701 N 153.345 -6.88039 -1.39811 0
M  V30 1702 H 158.185 -2.90454 0.666386 0
M  V30 1703 H 155.722 -1.43107 0.340404 0
M  V30 1704 H 157.68 -3.84027 -1.63031 0
M  V30 1705 H 156.31 -2.70632 -1.75949 0
M  V30 1706 H 155.362 -3.78203 0.408243 0
M  V30 1707 H 156.674 -4.97794 0.316657 0
M  V30 1708 H 155.828 -5.76002 -1.90544 0
M  V30 1709 H 154.567 -4.49491 -1.89233 0
M  V30 1710 H 153.572 -5.49491 0.184295 0
M  V30 1711 H 154.797 -6.78928 0.152965 0
M  V30 1712 H 152.743 -6.24032 -2.02287 0
M  V30 1713 H 152.66 -7.51223 -0.848508 0
M  V30 1714 H 153.928 -7.52397 -2.03762 0
M  V30 1715 N 158.157 -0.370918 -1.53173 0
M  V30 1716 C 159.067 0.480823 -2.2962 0
M  V30 1717 C 160.083 1.08789 -1.35798 0
M  V30 1718 O 161.259 1.09768 -1.68858 0
M  V30 1719 C 158.324 1.60227 -3.07454 0
M  V30 1720 C 157.385 1.0222 -4.16953 0
M  V30 1721 C 156.618 2.0902 -4.91066 0
M  V30 1722 O 156.841 3.30222 -4.65091 0
M  V30 1723 O 155.775 1.71778 -5.76867 0
M  V30 1724 H 159.601 -0.141421 -3.03371 0
M  V30 1725 H 157.186 -0.135146 -1.48787 0
M  V30 1726 H 159.068 2.25417 -3.56041 0
M  V30 1727 H 157.743 2.20982 -2.36535 0
M  V30 1728 H 156.65 0.334064 -3.72605 0
M  V30 1729 H 157.983 0.459131 -4.90054 0
M  V30 1730 N 159.635 1.57281 -0.100228 0
M  V30 1731 C 160.585 2.10848 0.86759 0
M  V30 1732 C 161.569 1.02473 1.24049 0
M  V30 1733 O 162.761 1.28739 1.21471 0
M  V30 1734 C 159.89 2.69648 2.12474 0
M  V30 1735 C 158.976 3.85074 1.77704 0
M  V30 1736 N 159.367 4.92897 1.13518 0
M  V30 1737 C 157.665 3.94905 2.07282 0
M  V30 1738 C 158.366 5.73475 0.974735 0
M  V30 1739 N 157.342 5.22675 1.4937 0
M  V30 1740 H 161.144 2.91594 0.367471 0
M  V30 1741 H 158.658 1.62074 0.102829 0
M  V30 1742 H 160.655 3.06356 2.82757 0
M  V30 1743 H 159.315 1.90359 2.63047 0
M  V30 1744 H 160.326 5.11662 0.801381 0
M  V30 1745 H 157.003 3.26633 2.60033 0
M  V30 1746 H 158.393 6.70238 0.472364 0
M  V30 1747 N 161.113 -0.173488 1.56642 0
M  V30 1748 C 162.338 -0.910149 1.86363 0
M  V30 1749 C 162.763 -1.75132 0.686318 0
M  V30 1750 O 162.121 -1.77595 -0.364643 0
M  V30 1751 C 162.169 -1.76447 3.14482 0
M  V30 1752 O 161.273 -2.86584 2.96553 0
M  V30 1753 H 160.614 -0.255086 0.613047 0
M  V30 1754 H 163.144 -0.172283 2.03873 0
M  V30 1755 H 163.154 -2.16483 3.45831 0
M  V30 1756 H 161.829 -1.14658 3.99783 0
M  V30 1757 H 160.406 -2.50146 2.76553 0
M  V30 1758 N 162.591 -1.51276 -0.441967 0
M  V30 1759 C 163.816 -1.67799 -1.21895 0
M  V30 1760 C 164.241 -0.372864 -1.84367 0
M  V30 1761 O 163.599 0.666501 -1.68604 0
M  V30 1762 C 163.647 -2.79199 -2.28211 0
M  V30 1763 O 162.751 -2.42479 -3.33583 0
M  V30 1764 H 162.092 -0.559649 -0.357336 0
M  V30 1765 H 164.622 -1.97815 -0.522522 0
M  V30 1766 H 164.632 -3.03146 -2.73069 0
M  V30 1767 H 163.307 -3.73906 -1.82118 0
M  V30 1768 H 161.884 -2.29087 -2.94234 0
M  V30 1769 N 164.069 0.697108 -1.41344 0
M  V30 1770 C 165.346 1.45154 -1.31109 0
M  V30 1771 C 165.726 2.11009 0.0620449 0
M  V30 1772 O 165.074 2.01571 1.07618 0
M  V30 1773 C 165.284 2.47223 -2.46337 0
M  V30 1774 C 166.632 3.1252 -2.87431 0
M  V30 1775 O 167.656 2.57547 -2.46065 0
M  V30 1776 O 166.515 4.12083 -3.58957 0
M  V30 1777 H 163.609 0.646365 -0.515889 0
M  V30 1778 H 166.155 0.727716 -1.53305 0
M  V30 1779 H 164.927 1.97204 -3.37974 0
M  V30 1780 H 164.55 3.27116 -2.2601 0
M  V30 1781 N 165.547 1.27147 0.931209 0
M  V30 1782 C 166.479 1.05364 2.03546 0
M  V30 1783 C 167.492 0.0108438 1.62796 0
M  V30 1784 O 168.681 0.25202 1.76712 0
M  V30 1785 C 165.781 0.575566 3.33977 0
M  V30 1786 C 164.954 1.68985 4.03439 0
M  V30 1787 C 164.013 1.20813 5.12143 0
M  V30 1788 O 163.039 1.90712 5.363 0
M  V30 1789 N 164.241 0.0618851 5.80467 0
M  V30 1790 H 167.006 2.00454 2.22796 0
M  V30 1791 H 164.567 1.18666 1.10136 0
M  V30 1792 H 166.559 0.237264 4.04004 0
M  V30 1793 H 165.129 -0.282016 3.11325 0
M  V30 1794 H 164.349 2.19861 3.27192 0
M  V30 1795 H 165.637 2.4378 4.46597 0
M  V30 1796 H 165.035 -0.521621 5.6329 0
M  V30 1797 H 163.592 -0.217264 6.51438 0
M  V30 1798 N 167.025 -1.13721 1.09112 0
M  V30 1799 C 168.436 -1.6648 0.845068 0
M  V30 1800 C 168.787 -1.85911 -0.62701 0
M  V30 1801 O 167.912 -1.57556 -1.48341 0
M  V30 1802 C 168.507 -3.02413 1.52748 0
M  V30 1803 C 167.066 -3.52176 1.32849 0
M  V30 1804 C 166.213 -2.27492 1.58564 0
M  V30 1805 H 169.164 -0.976872 1.25072 0
M  V30 1806 H 169.185 -3.68223 0.958752 0
M  V30 1807 H 168.697 -2.88238 2.59885 0
M  V30 1808 H 166.798 -3.7156 0.278137 0
M  V30 1809 H 166.911 -4.32499 2.0611 0
M  V30 1810 H 165.275 -2.33923 1.00758 0
M  V30 1811 H 166.058 -2.15886 2.66924 0
M  V30 1812 N 168.503 -0.877838 -1.30888 0
M  V30 1813 C 169.466 -0.344265 -2.266 0
M  V30 1814 C 170.466 0.50922 -1.52524 0
M  V30 1815 O 171.656 0.317398 -1.71284 0
M  V30 1816 C 168.788 0.510198 -3.37061 0
M  V30 1817 H 169.981 -1.1893 -2.7531 0
M  V30 1818 H 167.534 -0.654088 -1.41956 0
M  V30 1819 H 168.269 1.37612 -2.93655 0
M  V30 1820 H 168.054 -0.101047 -3.9197 0
M  V30 1821 H 169.544 0.875537 -4.08319 0
M  V30 1822 N 169.982 1.44106 -0.638065 0
M  V30 1823 C 170.945 2.29138 0.0531013 0
M  V30 1824 C 171.945 1.41409 0.765506 0
M  V30 1825 O 173.135 1.63206 0.609046 0
M  V30 1826 C 170.267 3.23144 1.08584 0
M  V30 1827 H 171.46 2.91739 -0.694883 0
M  V30 1828 H 169.013 1.51134 -0.398538 0
M  V30 1829 H 169.748 2.65408 1.86357 0
M  V30 1830 H 169.533 3.87804 0.578852 0
M  V30 1831 H 171.023 3.87004 1.56899 0
M  V30 1832 N 171.46 0.379036 1.52974 0
M  V30 1833 C 172.423 -0.448865 2.24762 0
M  V30 1834 C 173.423 -0.998689 1.26027 0
M  V30 1835 O 174.613 -0.882313 1.50203 0
M  V30 1836 C 171.745 -1.62872 2.99476 0
M  V30 1837 H 172.938 0.179491 2.99362 0
M  V30 1838 H 170.491 0.13096 1.5575 0
M  V30 1839 H 171.226 -2.29479 2.29151 0
M  V30 1840 H 171.011 -1.24128 3.71934 0
M  V30 1841 H 172.501 -2.2151 3.5401 0
M  V30 1842 N 172.938 -1.57226 0.108567 0
M  V30 1843 C 174.163 -1.99604 -0.563303 0
M  V30 1844 C 174.588 -0.987563 -1.6009 0
M  V30 1845 O 173.946 0.0421687 -1.81251 0
M  V30 1846 C 173.994 -3.40902 -1.17552 0
M  V30 1847 O 173.098 -3.42896 -2.2912 0
M  V30 1848 H 172.439 -0.648704 -0.1417 0
M  V30 1849 H 174.969 -2.03679 0.193961 0
M  V30 1850 H 174.979 -3.78886 -1.51357 0
M  V30 1851 H 173.654 -4.1382 -0.415445 0
M  V30 1852 H 172.231 -3.1672 -1.96832 0
M  V30 1853 N 174.416 0.165178 -1.56732 0
M  V30 1854 C 175.662 0.882112 -1.82611 0
M  V30 1855 C 175.995 1.81628 -0.687378 0
M  V30 1856 O 175.27 1.92009 0.310267 0
M  V30 1857 C 175.553 1.67245 -3.18906 0
M  V30 1858 C 175.406 0.760987 -4.43316 0
M  V30 1859 C 176.725 2.63884 -3.52212 0
M  V30 1860 H 173.844 0.319242 -0.664269 0
M  V30 1861 H 176.486 0.148052 -1.89422 0
M  V30 1862 H 174.636 2.29824 -3.1323 0
M  V30 1863 H 176.308 0.147596 -4.61064 0
M  V30 1864 H 174.551 0.0694102 -4.33744 0
M  V30 1865 H 175.222 1.34962 -5.35247 0
M  V30 1866 H 177.698 2.11429 -3.58381 0
M  V30 1867 H 176.574 3.16245 -4.48643 0
M  V30 1868 H 176.835 3.44377 -2.77231 0
M  V30 1869 N 175.894 1.51508 0.433938 0
M  V30 1870 C 177.14 1.65549 1.18173 0
M  V30 1871 C 177.495 0.368751 1.88833 0
M  V30 1872 O 176.788 -0.635616 1.8075 0
M  V30 1873 C 176.982 2.79928 2.22205 0
M  V30 1874 C 176.811 4.19601 1.61756 0
M  V30 1875 C 175.581 4.85489 1.40101 0
M  V30 1876 C 177.779 5.02574 1.09194 0
M  V30 1877 N 175.761 6.09266 0.752859 0
M  V30 1878 C 177.132 6.17381 0.569255 0
M  V30 1879 C 179.187 4.88079 0.984025 0
M  V30 1880 C 177.89 7.19282 -0.0507472 0
M  V30 1881 C 179.916 5.90191 0.377912 0
M  V30 1882 C 179.278 7.04272 -0.134216 0
M  V30 1883 H 175.377 0.659653 0.419979 0
M  V30 1884 H 177.961 1.88746 0.477818 0
M  V30 1885 H 176.132 2.5839 2.89982 0
M  V30 1886 H 177.864 2.83132 2.89168 0
M  V30 1887 H 174.619 4.43417 1.66369 0
M  V30 1888 H 175.043 6.75528 0.446123 0
M  V30 1889 H 179.685 4.00131 1.36583 0
M  V30 1890 H 177.403 8.06876 -0.444676 0
M  V30 1891 H 180.989 5.81045 0.296269 0
M  V30 1892 H 179.869 7.81933 -0.59585 0
M  V30 1893 N 177.372 -0.689602 1.41712 0
M  V30 1894 C 178.319 -1.80345 1.44029 0
M  V30 1895 C 179.289 -1.63478 0.293948 0
M  V30 1896 O 180.474 -1.84244 0.495869 0
M  V30 1897 C 177.614 -3.18272 1.33405 0
M  V30 1898 C 176.727 -3.46529 2.57956 0
M  V30 1899 C 175.862 -4.74103 2.39582 0
M  V30 1900 C 174.901 -4.95347 3.5958 0
M  V30 1901 N 174.038 -6.14151 3.40239 0
M  V30 1902 H 178.878 -1.77698 2.39222 0
M  V30 1903 H 176.415 -0.867688 1.18784 0
M  V30 1904 H 178.373 -3.97956 1.25246 0
M  V30 1905 H 177.003 -3.2008 0.418164 0
M  V30 1906 H 176.055 -2.61207 2.76542 0
M  V30 1907 H 177.367 -3.58126 3.47199 0
M  V30 1908 H 176.521 -5.61853 2.28924 0
M  V30 1909 H 175.26 -4.64763 1.47805 0
M  V30 1910 H 174.265 -4.06044 3.70686 0
M  V30 1911 H 175.49 -5.06542 4.52318 0
M  V30 1912 H 173.436 -6.06013 2.51167 0
M  V30 1913 H 173.353 -6.26543 4.23061 0
M  V30 1914 H 174.621 -7.04619 3.33365 0
M  V30 1915 N 178.85 -1.27639 -0.924453 0
M  V30 1916 C 180.266 -1.05113 -1.20097 0
M  V30 1917 C 180.466 0.213262 -2.00368 0
M  V30 1918 O 179.522 0.91787 -2.35226 0
M  V30 1919 C 180.835 -2.29244 -1.94596 0
M  V30 1920 C 182.383 -2.34315 -2.07522 0
M  V30 1921 C 182.858 -3.58183 -2.85427 0
M  V30 1922 N 184.349 -3.5876 -2.92994 0
M  V30 1923 C 185.084 -4.51277 -3.53746 0
M  V30 1924 N 184.58 -5.54102 -4.15863 0
M  V30 1925 N 186.373 -4.38894 -3.51181 0
M  V30 1926 H 178.524 -2.08821 -0.388264 0
M  V30 1927 H 180.787 -0.918568 -0.234385 0
M  V30 1928 H 180.493 -3.21301 -1.43034 0
M  V30 1929 H 180.367 -2.34816 -2.95197 0
M  V30 1930 H 182.754 -1.42762 -2.58269 0
M  V30 1931 H 182.835 -2.32744 -1.06131 0
M  V30 1932 H 182.479 -4.50074 -2.35363 0
M  V30 1933 H 182.409 -3.57006 -3.8711 0
M  V30 1934 H 184.9 -2.84398 -2.4885 0
M  V30 1935 H 185.213 -6.20859 -4.60168 0
M  V30 1936 H 183.558 -5.57941 -4.144 0
M  V30 1937 H 186.749 -3.57772 -3.01856 0
M  V30 1938 H 186.922 -5.11186 -3.98237 0
M  V30 1939 N 180.328 1.1314 -1.09713 0
M  V30 1940 C 181.275 2.18642 -0.739196 0
M  V30 1941 C 182.245 1.63706 0.280978 0
M  V30 1942 O 183.43 1.90111 0.161946 0
M  V30 1943 C 180.57 3.44685 -0.169102 0
M  V30 1944 C 179.683 4.13711 -1.24367 0
M  V30 1945 C 178.818 5.27379 -0.636019 0
M  V30 1946 C 177.857 5.88259 -1.69169 0
M  V30 1947 N 176.994 6.93352 -1.10485 0
M  V30 1948 H 181.834 2.48607 -1.64312 0
M  V30 1949 H 179.371 1.22066 -0.820875 0
M  V30 1950 H 181.329 4.16815 0.179256 0
M  V30 1951 H 179.959 3.15161 0.698079 0
M  V30 1952 H 179.011 3.39835 -1.70927 0
M  V30 1953 H 180.323 4.55037 -2.04311 0
M  V30 1954 H 179.477 6.06238 -0.236677 0
M  V30 1955 H 178.216 4.8731 0.194928 0
M  V30 1956 H 177.221 5.08092 -2.10055 0
M  V30 1957 H 178.446 6.30399 -2.52536 0
M  V30 1958 H 176.392 6.55335 -0.295234 0
M  V30 1959 H 176.309 7.33236 -1.84121 0
M  V30 1960 H 177.577 7.76057 -0.73181 0
M  V30 1961 N 181.806 0.884767 1.30421 0
M  V30 1962 C 183.222 0.57874 1.48737 0
M  V30 1963 C 183.422 -0.883567 1.81095 0
M  V30 1964 O 182.478 -1.6648 1.89844 0
M  V30 1965 C 183.791 1.49171 2.61091 0
M  V30 1966 C 185.339 1.49532 2.74971 0
M  V30 1967 C 185.814 2.39421 3.90438 0
M  V30 1968 N 187.305 2.37383 3.97748 0
M  V30 1969 C 188.04 3.03647 4.86401 0
M  V30 1970 N 187.536 3.79136 5.79852 0
M  V30 1971 N 189.329 2.9288 4.79768 0
M  V30 1972 H 181.48 1.83075 1.0769 0
M  V30 1973 H 183.743 0.783637 0.533495 0
M  V30 1974 H 183.449 2.53291 2.44001 0
M  V30 1975 H 183.323 1.20113 3.57565 0
M  V30 1976 H 185.71 0.46163 2.91467 0
M  V30 1977 H 185.791 1.8262 1.79119 0
M  V30 1978 H 185.435 3.42874 3.74699 0
M  V30 1979 H 185.365 2.03649 4.85628 0
M  V30 1980 H 187.856 1.82525 3.30897 0
M  V30 1981 H 188.169 4.26789 6.4426 0
M  V30 1982 H 186.514 3.83243 5.79784 0
M  V30 1983 H 189.705 2.33433 4.05742 0
M  V30 1984 H 189.878 3.448 5.4865 0
M  V30 1985 N 183.284 -1.43765 0.645699 0
M  V30 1986 C 184.217 -2.2798 -0.100072 0
M  V30 1987 C 185.195 -1.39391 -0.837194 0
M  V30 1988 O 186.379 -1.68833 -0.838306 0
M  V30 1989 C 183.506 -3.18643 -1.14823 0
M  V30 1990 C 182.552 -4.2344 -0.510009 0
M  V30 1991 S 183.385 -5.30761 0.710824 0
M  V30 1992 C 184.541 -6.24992 -0.33699 0
M  V30 1993 H 184.774 -2.90884 0.614322 0
M  V30 1994 H 182.307 -1.48166 0.434304 0
M  V30 1995 H 184.265 -3.71424 -1.74799 0
M  V30 1996 H 182.926 -2.54932 -1.8349 0
M  V30 1997 H 182.119 -4.86948 -1.29991 0
M  V30 1998 H 181.721 -3.73997 0.0154577 0
M  V30 1999 H 184.013 -6.66691 -1.20537 0
M  V30 2000 H 184.956 -7.07612 0.262879 0
M  V30 2001 H 185.364 -5.60517 -0.669425 0
M  V30 2002 N 184.763 -0.387143 -1.52771 0
M  V30 2003 C 186.04 0.253197 -1.93954 0
M  V30 2004 C 186.42 1.64545 -1.32243 0
M  V30 2005 O 185.768 2.23191 -0.489699 0
M  V30 2006 C 185.978 0.281722 -3.47861 0
M  V30 2007 C 187.326 0.511715 -4.21505 0
M  V30 2008 O 188.35 0.362023 -3.54356 0
M  V30 2009 O 187.209 0.804847 -5.40541 0
M  V30 2010 H 184.303 0.156845 -0.811991 0
M  V30 2011 H 186.849 -0.441494 -1.63856 0
M  V30 2012 H 185.621 -0.693571 -3.85104 0
M  V30 2013 H 185.244 1.02142 -3.84256 0
M  V30 2014 N 186.241 1.57166 -0.116904 0
M  V30 2015 C 187.657 1.5779 0.239693 0
M  V30 2016 C 187.857 1.1295 1.66867 0
M  V30 2017 O 186.913 0.81592 2.38954 0
M  V30 2018 C 188.226 3.00699 0.00828202 0
M  V30 2019 C 189.774 3.12912 0.0743438 0
M  V30 2020 C 190.249 4.57817 -0.129348 0
M  V30 2021 N 191.74 4.63139 -0.075247 0
M  V30 2022 C 192.475 5.73023 -0.207788 0
M  V30 2023 N 191.971 6.91665 -0.396382 0
M  V30 2024 N 193.764 5.61906 -0.14751 0
M  V30 2025 H 185.915 1.84615 -1.05029 0
M  V30 2026 H 188.178 0.85311 -0.41341 0
M  V30 2027 H 187.884 3.37784 -0.979531 0
M  V30 2028 H 187.758 3.69848 0.741077 0
M  V30 2029 H 190.145 2.75686 1.05268 0
M  V30 2030 H 190.226 2.4631 -0.690297 0
M  V30 2031 H 189.87 4.95742 -1.10465 0
M  V30 2032 H 189.8 5.22507 0.655253 0
M  V30 2033 H 192.291 3.7784 0.0670898 0
M  V30 2034 H 192.604 7.71255 -0.488437 0
M  V30 2035 H 190.949 6.93654 -0.432329 0
M  V30 2036 H 194.14 4.681 -0.00115036 0
M  V30 2037 H 194.313 6.47501 -0.254247 0
M  V30 2038 N 187.719 -0.156864 1.56817 0
M  V30 2039 C 188.652 -1.22316 1.9265 0
M  V30 2040 C 189.63 -1.42059 0.791076 0
M  V30 2041 O 190.814 -1.56831 1.04576 0
M  V30 2042 C 187.941 -2.58375 2.18998 0
M  V30 2043 C 186.987 -2.55284 3.41661 0
M  V30 2044 S 187.82 -2.02946 4.95553 0
M  V30 2045 C 188.976 -3.40753 5.25013 0
M  V30 2046 H 189.209 -0.917403 2.82791 0
M  V30 2047 H 186.742 -0.362059 1.50095 0
M  V30 2048 H 188.7 -3.36677 2.34859 0
M  V30 2049 H 187.361 -2.86145 1.29538 0
M  V30 2050 H 186.554 -3.55418 3.57343 0
M  V30 2051 H 186.156 -1.85086 3.24991 0
M  V30 2052 H 188.448 -4.36819 5.17876 0
M  V30 2053 H 189.391 -3.29933 6.26538 0
M  V30 2054 H 189.799 -3.37433 4.52548 0
M  V30 2055 N 189.197 -1.51736 -0.425897 0
M  V30 2056 C 190.13 -1.68574 -1.53812 0
M  V30 2057 C 191.108 -0.53328 -1.53606 0
M  V30 2058 O 192.292 -0.758555 -1.72564 0
M  V30 2059 C 189.419 -1.70977 -2.92377 0
M  V30 2060 C 188.465 -2.92324 -3.10563 0
M  V30 2061 S 189.298 -4.52952 -2.85648 0
M  V30 2062 C 190.454 -4.58117 -4.26474 0
M  V30 2063 H 190.687 -2.62647 -1.39298 0
M  V30 2064 H 188.22 -1.41564 -0.616361 0
M  V30 2065 H 190.178 -1.73047 -3.72243 0
M  V30 2066 H 188.839 -0.78061 -3.04245 0
M  V30 2067 H 188.032 -2.90439 -4.11899 0
M  V30 2068 H 187.634 -2.88055 -2.38538 0
M  V30 2069 H 189.926 -4.34462 -5.19855 0
M  V30 2070 H 190.869 -5.59983 -4.33388 0
M  V30 2071 H 191.277 -3.8732 -4.10662 0
M  V30 2072 N 190.675 0.682077 -1.42076 0
M  V30 2073 C 191.921 1.44428 -1.42367 0
M  V30 2074 C 192.254 1.94164 -0.0373056 0
M  V30 2075 O 191.529 1.70429 0.937239 0
M  V30 2076 C 191.812 2.64654 -2.44194 0
M  V30 2077 C 191.665 2.20596 -3.91991 0
M  V30 2078 C 192.984 3.66865 -2.431 0
M  V30 2079 H 190.103 0.523834 -0.518428 0
M  V30 2080 H 192.745 0.77576 -1.73442 0
M  V30 2081 H 190.895 3.2169 -2.17826 0
M  V30 2082 H 192.567 1.68783 -4.29313 0
M  V30 2083 H 190.81 1.52242 -4.06208 0
M  V30 2084 H 191.481 3.06921 -4.58807 0
M  V30 2085 H 193.957 3.19531 -2.66532 0
M  V30 2086 H 192.833 4.48577 -3.16339 0
M  V30 2087 H 193.094 4.17493 -1.45437 0
M  V30 2088 N 192.153 1.28127 0.917671 0
M  V30 2089 C 193.063 1.13556 2.05286 0
M  V30 2090 C 194.079 0.0630914 1.73886 0
M  V30 2091 O 195.255 0.271598 1.9956 0
M  V30 2092 C 192.32 0.794676 3.3747 0
M  V30 2093 C 191.381 1.94909 3.82504 0
M  V30 2094 C 190.614 1.62437 5.0838 0
M  V30 2095 O 190.837 0.536905 5.67867 0
M  V30 2096 O 189.771 2.46677 5.4903 0
M  V30 2097 H 193.597 2.08844 2.20495 0
M  V30 2098 H 191.182 1.07409 1.03845 0
M  V30 2099 H 193.064 0.618344 4.16839 0
M  V30 2100 H 191.739 -0.128581 3.23445 0
M  V30 2101 H 190.646 2.18055 3.03978 0
M  V30 2102 H 191.979 2.85291 4.01086 0
M  V30 2103 N 193.631 -1.12557 1.10312 0
M  V30 2104 C 194.581 -2.16331 0.720076 0
M  V30 2105 C 195.565 -1.58616 -0.270115 0
M  V30 2106 O 196.757 -1.76823 -0.0790507 0
M  V30 2107 C 193.886 -3.42963 0.152113 0
M  V30 2108 C 192.972 -4.07663 1.16927 0
M  V30 2109 N 193.363 -4.47392 2.35953 0
M  V30 2110 C 191.661 -4.34425 1.0095 0
M  V30 2111 C 192.362 -4.97932 3.0073 0
M  V30 2112 N 191.338 -4.93358 2.28252 0
M  V30 2113 H 195.14 -2.44813 1.62616 0
M  V30 2114 H 192.654 -1.29449 0.980654 0
M  V30 2115 H 194.651 -4.16664 -0.14037 0
M  V30 2116 H 193.311 -3.1595 -0.748701 0
M  V30 2117 H 194.322 -4.39802 2.73486 0
M  V30 2118 H 190.999 -4.17177 0.164134 0
M  V30 2119 H 192.389 -5.38397 4.01969 0
M  V30 2120 N 195.109 -0.891671 -1.2995 0
M  V30 2121 C 196.039 -0.379797 -2.30391 0
M  V30 2122 C 197.02 0.540919 -1.6127 0
M  V30 2123 O 198.205 0.453352 -1.88834 0
M  V30 2124 C 195.335 0.400654 -3.44981 0
M  V30 2125 C 194.289 -0.428905 -4.25846 0
M  V30 2126 C 193.615 0.478557 -5.32554 0
M  V30 2127 C 194.915 -1.67458 -4.94727 0
M  V30 2128 H 196.609 -1.21914 -2.73454 0
M  V30 2129 H 194.155 -0.587675 -1.31462 0
M  V30 2130 H 196.108 0.769434 -4.14316 0
M  V30 2131 H 194.832 1.27371 -3.0074 0
M  V30 2132 H 193.491 -0.779911 -3.58208 0
M  V30 2133 H 193.139 1.34951 -4.84559 0
M  V30 2134 H 192.839 -0.0727433 -5.87555 0
M  V30 2135 H 194.363 0.843705 -6.04743 0
M  V30 2136 H 195.777 -1.376 -5.56542 0
M  V30 2137 H 194.174 -2.16659 -5.59624 0
M  V30 2138 H 195.244 -2.41518 -4.20473 0
M  V30 2139 N 196.587 1.43421 -0.653314 0
M  V30 2140 C 197.517 2.33487 0.0246656 0
M  V30 2141 C 198.498 1.49475 0.811863 0
M  V30 2142 O 199.683 1.78139 0.773322 0
M  V30 2143 C 196.813 3.32841 0.99166 0
M  V30 2144 C 195.767 4.26842 0.314568 0
M  V30 2145 C 195.093 5.16236 1.39302 0
M  V30 2146 C 196.393 5.16243 -0.793095 0
M  V30 2147 H 198.087 2.90427 -0.727481 0
M  V30 2148 H 195.633 1.39649 -0.351287 0
M  V30 2149 H 197.586 3.94747 1.47487 0
M  V30 2150 H 196.31 2.74158 1.77497 0
M  V30 2151 H 194.969 3.663 -0.148199 0
M  V30 2152 H 194.617 4.53891 2.16776 0
M  V30 2153 H 194.317 5.79948 0.945223 0
M  V30 2154 H 195.841 5.81015 1.87759 0
M  V30 2155 H 197.255 5.71958 -0.392039 0
M  V30 2156 H 195.652 5.88676 -1.16536 0
M  V30 2157 H 196.722 4.55927 -1.65103 0
M  V30 2158 N 198.065 0.39524 1.52563 0
M  V30 2159 C 199.481 0.0454682 1.59535 0
M  V30 2160 C 199.681 -1.44056 1.4089 0
M  V30 2161 O 198.737 -2.20579 1.22888 0
M  V30 2162 C 200.05 0.527963 2.96029 0
M  V30 2163 C 201.598 0.484733 3.09224 0
M  V30 2164 C 202.073 0.943512 4.48176 0
M  V30 2165 N 203.564 0.899765 4.54377 0
M  V30 2166 C 204.299 1.22609 5.60138 0
M  V30 2167 N 203.795 1.62319 6.73516 0
M  V30 2168 N 205.588 1.14696 5.50274 0
M  V30 2169 H 197.739 1.36261 1.62931 0
M  V30 2170 H 200.002 0.558887 0.765735 0
M  V30 2171 H 199.708 1.56607 3.14908 0
M  V30 2172 H 199.582 -0.0698056 3.77135 0
M  V30 2173 H 201.969 -0.544298 2.90037 0
M  V30 2174 H 202.05 1.11838 2.30056 0
M  V30 2175 H 201.694 1.9708 4.68104 0
M  V30 2176 H 201.624 0.286817 5.25818 0
M  V30 2177 H 204.115 0.607632 3.72983 0
M  V30 2178 H 204.428 1.85567 7.5019 0
M  V30 2179 H 202.773 1.66211 6.74833 0
M  V30 2180 H 205.964 0.835701 4.6058 0
M  V30 2181 H 206.137 1.40459 6.32594 0
M  V30 2182 N 199.544 -1.57102 0.125237 0
M  V30 2183 C 200.784 -1.97294 -0.534259 0
M  V30 2184 C 201.148 -1.0074 -1.63449 0
M  V30 2185 O 202.349 -1.29893 -2.35332 0
M  V30 2186 C 200.62 -3.41705 -1.04748 0
M  V30 2187 S 202.179 -4.03913 -1.71463 0
M  V30 2188 H 198.997 -0.689517 -0.173458 0
M  V30 2189 H 201.599 -1.94349 0.211797 0
M  V30 2190 H 200.303 -4.09723 -0.235649 0
M  V30 2191 H 199.834 -3.48315 -1.82867 0
M  V30 2192 H 201.849 -3.95182 -3.00077 0
M  V30 2193 N 201.022 0.148545 -1.56898 0
M  V30 2194 C 202.27 0.859717 -1.82902 0
M  V30 2195 C 202.591 1.81775 -0.70588 0
M  V30 2196 O 201.861 1.93994 0.272586 0
M  V30 2197 H 200.441 0.320469 -0.674766 0
M  V30 2198 H 203.103 0.142918 -1.94375 0
M  V30 2199 H 202.199 1.4229 -2.77777 0
M  V30 2200 N 202.5 1.5196 0.417844 0
M  V30 2201 C 203.73 1.69181 1.18581 0
M  V30 2202 C 204.138 0.397104 1.84986 0
M  V30 2203 O 203.481 -0.636011 1.72339 0
M  V30 2204 C 203.543 2.76497 2.29759 0
M  V30 2205 C 203.207 4.18514 1.83563 0
M  V30 2206 C 204.204 5.02648 1.32821 0
M  V30 2207 C 201.889 4.64708 1.90661 0
M  V30 2208 C 203.883 6.31044 0.897894 0
M  V30 2209 C 201.57 5.93096 1.47241 0
M  V30 2210 C 202.568 6.76093 0.968891 0
M  V30 2211 O 202.256 8.02078 0.540924 0
M  V30 2212 H 201.988 0.570457 0.362705 0
M  V30 2213 H 204.542 1.99249 0.498885 0
M  V30 2214 H 202.772 2.41786 3.01789 0
M  V30 2215 H 204.461 2.82403 2.91553 0
M  V30 2216 H 205.227 4.68154 1.26716 0
M  V30 2217 H 201.106 4.00216 2.28797 0
M  V30 2218 H 204.65 6.95776 0.504192 0
M  V30 2219 H 200.547 6.271 1.53022 0
M  V30 2220 H 201.315 8.15794 0.66502 0
M  V30 2221 N 203.978 -0.674533 1.42435 0
M  V30 2222 C 205.208 -1.46071 1.46105 0
M  V30 2223 C 205.616 -1.89067 0.0709605 0
M  V30 2224 O 204.959 -1.58731 -0.924677 0
M  V30 2225 C 205.021 -2.74145 2.32561 0
M  V30 2226 C 204.685 -2.53224 3.8043 0
M  V30 2227 C 205.682 -2.17809 4.72075 0
M  V30 2228 C 203.367 -2.6821 4.24698 0
M  V30 2229 C 205.361 -1.97648 6.05982 0
M  V30 2230 C 203.048 -2.47665 5.58664 0
M  V30 2231 C 204.046 -2.12437 6.49122 0
M  V30 2232 O 203.734 -1.9209 7.80613 0
M  V30 2233 H 203.466 -0.455959 0.499076 0
M  V30 2234 H 206.02 -0.836193 1.87609 0
M  V30 2235 H 204.25 -3.3908 1.85908 0
M  V30 2236 H 205.939 -3.36028 2.27683 0
M  V30 2237 H 206.705 -2.05826 4.39159 0
M  V30 2238 H 202.584 -2.94609 3.54579 0
M  V30 2239 H 206.128 -1.70075 6.7655 0
M  V30 2240 H 202.025 -2.59244 5.91154 0
M  V30 2241 H 202.793 -2.06686 7.91974 0
M  V30 2242 N 205.456 -1.28612 -0.910864 0
M  V30 2243 C 206.404 -1.1265 -2.03501 0
M  V30 2244 C 207.398 -0.0450054 -1.6934 0
M  V30 2245 O 208.604 -0.203988 -1.7884 0
M  V30 2246 H 204.979 -0.347639 -0.666822 0
M  V30 2247 H 206.95 -2.07849 -2.14106 0
M  V30 2248 C 205.699 -0.808143 -3.38178 0
M  V30 2249 H 205.022 -1.63231 -3.6496 0
M  V30 2250 H 206.462 -0.736426 -4.17556 0
M  V30 2251 C 204.921 0.488226 -3.33344 0
M  V30 2252 O 205.451 1.51766 -3.71927 0
M  V30 2253 N 203.657 0.490009 -2.86439 0
M  V30 2254 H 203.204 -0.348161 -2.55236 0
M  V30 2255 H 203.162 1.35741 -2.83587 0
M  V30 2256 N 206.934 1.1197 -1.10907 0
M  V30 2257 C 208.162 1.87402 -0.876824 0
M  V30 2258 C 208.577 1.79894 0.573025 0
M  V30 2259 O 207.934 1.17629 1.39534 0
M  V30 2260 C 207.985 3.36428 -1.32282 0
M  V30 2261 O 207.706 3.43765 -2.71582 0
M  V30 2262 C 209.207 4.28783 -1.12518 0
M  V30 2263 H 206.427 0.592793 -0.314384 0
M  V30 2264 H 208.971 1.41649 -1.47499 0
M  V30 2265 H 207.126 3.79706 -0.768229 0
M  V30 2266 H 207.54 4.3652 -2.90776 0
M  V30 2267 H 209.014 5.31613 -1.48633 0
M  V30 2268 H 209.491 4.39153 -0.0642394 0
M  V30 2269 H 210.097 3.91291 -1.66648 0
M  V30 2270 N 208.412 0.89855 1.29475 0
M  V30 2271 C 209.375 0.380272 2.26023 0
M  V30 2272 C 210.375 -0.484891 1.53315 0
M  V30 2273 O 211.565 -0.290108 1.71767 0
M  V30 2274 C 208.697 -0.45651 3.3783 0
M  V30 2275 H 209.89 1.23295 2.73383 0
M  V30 2276 H 207.443 0.676589 1.40897 0
M  V30 2277 H 208.178 -1.32922 2.95808 0
M  V30 2278 H 207.963 0.163393 3.91759 0
M  V30 2279 H 209.453 -0.810466 4.0966 0
M  V30 2280 N 209.89 -1.43072 0.660911 0
M  V30 2281 C 211.136 -2.0202 0.177708 0
M  V30 2282 C 211.469 -1.52066 -1.20787 0
M  V30 2283 O 210.744 -0.716987 -1.80802 0
M  V30 2284 C 211.027 -3.59561 0.197019 0
M  V30 2285 C 210.88 -4.19727 1.61706 0
M  V30 2286 C 212.199 -4.37664 -0.462396 0
M  V30 2287 H 209.318 -0.734034 0.0660494 0
M  V30 2288 H 211.96 -1.70272 0.843058 0
M  V30 2289 H 210.11 -3.86739 -0.369527 0
M  V30 2290 H 211.782 -4.03553 2.23479 0
M  V30 2291 H 210.025 -3.76084 2.16201 0
M  V30 2292 H 210.696 -5.28834 1.58237 0
M  V30 2293 H 213.172 -4.16095 0.0197215 0
M  V30 2294 H 212.048 -5.47305 -0.418188 0
M  V30 2295 H 212.309 -4.14493 -1.53778 0
M  V30 2296 N 211.368 -0.403325 -1.52352 0
M  V30 2297 C 212.315 0.425011 -2.26853 0
M  V30 2298 C 213.285 1.04598 -1.29029 0
M  V30 2299 O 214.47 1.07135 -1.57882 0
M  V30 2300 C 211.61 1.53888 -3.08889 0
M  V30 2301 C 210.723 0.939396 -4.21663 0
M  V30 2302 C 209.858 2.02547 -4.91068 0
M  V30 2303 C 208.897 1.40263 -5.95813 0
M  V30 2304 N 208.034 2.4286 -6.58759 0
M  V30 2305 H 212.874 -0.21674 -2.97211 0
M  V30 2306 H 210.411 -0.118722 -1.4662 0
M  V30 2307 H 212.369 2.19558 -3.54753 0
M  V30 2308 H 210.999 2.15074 -2.40714 0
M  V30 2309 H 210.051 0.171898 -3.80011 0
M  V30 2310 H 211.363 0.44436 -4.96817 0
M  V30 2311 H 210.517 2.75958 -5.40308 0
M  V30 2312 H 209.256 2.55415 -4.15469 0
M  V30 2313 H 208.261 0.653833 -5.45898 0
M  V30 2314 H 209.486 0.881719 -6.73352 0
M  V30 2315 H 207.432 2.94871 -5.85992 0
M  V30 2316 H 207.349 1.98152 -7.2957 0
M  V30 2317 H 208.617 3.15858 -7.12639 0
M  V30 2318 N 212.846 1.57033 -0.133567 0
M  V30 2319 C 213.776 2.1909 0.807567 0
M  V30 2320 C 214.757 1.13517 1.26681 0
M  V30 2321 O 215.942 1.41809 1.32679 0
M  V30 2322 C 213.072 2.80188 2.05212 0
M  V30 2323 C 212.026 3.91471 1.73015 0
M  V30 2324 C 211.352 4.39443 3.04622 0
M  V30 2325 C 212.652 5.12886 0.987168 0
M  V30 2326 H 214.346 2.97988 0.290403 0
M  V30 2327 H 211.892 1.43335 0.138239 0
M  V30 2328 H 213.845 3.22264 2.71521 0
M  V30 2329 H 212.569 1.98601 2.59278 0
M  V30 2330 H 211.228 3.49993 1.0909 0
M  V30 2331 H 210.876 3.54695 3.56651 0
M  V30 2332 H 210.576 5.14495 2.83847 0
M  V30 2333 H 212.1 4.8418 3.72024 0
M  V30 2334 H 213.514 5.51891 1.55208 0
M  V30 2335 H 211.911 5.93615 0.87985 0
M  V30 2336 H 212.981 4.84894 -0.0235286 0
M  V30 2337 N 214.325 -0.140222 1.56975 0
M  V30 2338 C 215.288 -1.15689 1.97861 0
M  V30 2339 C 216.288 -1.3549 0.865974 0
M  V30 2340 O 217.478 -1.32367 1.13246 0
M  V30 2341 C 214.61 -2.51582 2.30042 0
M  V30 2342 H 215.803 -0.805971 2.88867 0
M  V30 2343 H 213.356 -0.383801 1.51515 0
M  V30 2344 H 214.091 -2.91632 1.41849 0
M  V30 2345 H 213.876 -2.38569 3.11171 0
M  V30 2346 H 215.366 -3.24792 2.62488 0
M  V30 2347 N 215.803 -1.52179 -0.40978 0
M  V30 2348 C 217.219 -1.40968 -0.74835 0
M  V30 2349 C 217.419 -0.513657 -1.94843 0
M  V30 2350 O 216.475 0.0208026 -2.52491 0
M  V30 2351 C 217.788 -2.83483 -1.0029 0
M  V30 2352 C 219.336 -2.92821 -1.10565 0
M  V30 2353 C 219.811 -4.36303 -1.39296 0
M  V30 2354 N 221.302 -4.39535 -1.46162 0
M  V30 2355 C 222.037 -5.47614 -1.70018 0
M  V30 2356 N 221.533 -6.65812 -1.91483 0
M  V30 2357 N 223.326 -5.35129 -1.72027 0
M  V30 2358 H 215.477 -2.0897 0.380186 0
M  V30 2359 H 217.74 -0.94185 0.107805 0
M  V30 2360 H 217.446 -3.51168 -0.193461 0
M  V30 2361 H 217.32 -3.24487 -1.92323 0
M  V30 2362 H 219.707 -2.25318 -1.90568 0
M  V30 2363 H 219.788 -2.55276 -0.16369 0
M  V30 2364 H 219.432 -5.04366 -0.598109 0
M  V30 2365 H 219.362 -4.71385 -2.34743 0
M  V30 2366 H 221.853 -3.54332 -1.31367 0
M  V30 2367 H 222.166 -7.43964 -2.09134 0
M  V30 2368 H 220.511 -6.68879 -1.88749 0
M  V30 2369 H 223.702 -4.41764 -1.54796 0
M  V30 2370 H 223.875 -6.19433 -1.9028 0
M  V30 2371 N 217.281 0.66697 -1.42791 0
M  V30 2372 C 218.213 1.7925 -1.42836 0
M  V30 2373 C 219.226 1.59496 -0.326333 0
M  V30 2374 O 220.415 1.6847 -0.589916 0
M  V30 2375 C 217.515 3.16476 -1.21229 0
M  V30 2376 C 216.688 3.63011 -2.44013 0
M  V30 2377 C 215.747 4.78993 -2.17834 0
M  V30 2378 O 214.773 4.89137 -2.91091 0
M  V30 2379 N 215.975 5.68248 -1.18635 0
M  V30 2380 H 218.74 1.79695 -2.39854 0
M  V30 2381 H 216.301 0.850338 -1.37771 0
M  V30 2382 H 218.293 3.91734 -1.01621 0
M  V30 2383 H 216.863 3.10884 -0.32706 0
M  V30 2384 H 216.083 2.78346 -2.79137 0
M  V30 2385 H 217.371 3.90845 -3.25757 0
M  V30 2386 H 216.769 5.62712 -0.580615 0
M  V30 2387 H 215.326 6.43285 -1.05013 0
M  V30 2388 N 218.759 1.29093 0.90403 0
M  V30 2389 C 219.984 1.19809 1.69294 0
M  V30 2390 C 220.409 -0.238481 1.86582 0
M  V30 2391 O 219.767 -1.1723 1.383 0
M  V30 2392 C 219.815 1.91202 3.05736 0
M  V30 2393 O 218.919 1.22611 3.93752 0
M  V30 2394 H 218.26 0.415385 0.518027 0
M  V30 2395 H 220.79 1.70586 1.12967 0
M  V30 2396 H 220.8 1.99487 3.55906 0
M  V30 2397 H 219.475 2.95692 2.92471 0
M  V30 2398 H 218.052 1.22554 3.52186 0
M  V30 2399 N 220.237 -1.11381 1.11499 0
M  V30 2400 C 221.485 -1.8277 0.862524 0
M  V30 2401 C 221.806 -1.85097 -0.613534 0
M  V30 2402 O 221.076 -1.32198 -1.4457 0
M  V30 2403 H 219.656 -0.676823 0.316101 0
M  V30 2404 H 222.318 -1.34816 1.4075 0
M  V30 2405 H 221.414 -2.86614 1.23527 0
M  V30 2406 N 221.715 -0.905404 -1.28997 0
M  V30 2407 C 222.964 -0.530191 -1.94607 0
M  V30 2408 C 223.277 0.929185 -1.72121 0
M  V30 2409 O 224.483 1.41218 -2.31883 0
M  V30 2410 C 222.939 -0.897333 -3.48534 0
M  V30 2411 C 222.547 -2.37587 -3.79811 0
M  V30 2412 C 224.291 -0.592304 -4.20347 0
M  V30 2413 C 222.198 -2.68357 -5.27009 0
M  V30 2414 H 221.128 -0.194558 -0.728466 0
M  V30 2415 H 223.779 -1.10318 -1.46636 0
M  V30 2416 H 222.161 -0.253214 -3.9519 0
M  V30 2417 H 223.335 -3.06602 -3.43994 0
M  V30 2418 H 221.65 -2.6505 -3.2115 0
M  V30 2419 H 224.247 -0.798975 -5.28697 0
M  V30 2420 H 224.59 0.469474 -4.13644 0
M  V30 2421 H 225.123 -1.19452 -3.79442 0
M  V30 2422 H 221.862 -3.73355 -5.38782 0
M  V30 2423 H 221.382 -2.03971 -5.64053 0
M  V30 2424 H 223.061 -2.54922 -5.94663 0
M  V30 2425 N 223.193 1.4272 -0.668489 0
M  V30 2426 C 224.103 2.34596 0.0139753 0
M  V30 2427 C 225.119 1.5474 0.795703 0
M  V30 2428 O 226.295 1.87334 0.739466 0
M  V30 2429 C 223.36 3.33202 0.957982 0
M  V30 2430 C 222.421 4.28957 0.17149 0
M  V30 2431 C 221.654 5.22853 1.07053 0
M  V30 2432 O 221.877 5.21531 2.31001 0
M  V30 2433 O 220.811 5.9952 0.534727 0
M  V30 2434 H 224.637 2.9448 -0.742661 0
M  V30 2435 H 222.222 1.43117 -0.428705 0
M  V30 2436 H 224.104 3.93796 1.50008 0
M  V30 2437 H 222.779 2.758 1.69458 0
M  V30 2438 H 221.686 3.71796 -0.414558 0
M  V30 2439 H 223.019 4.89383 -0.52586 0
M  V30 2440 N 224.671 0.411399 1.52136 0
M  V30 2441 C 225.948 -0.222308 1.94333 0
M  V30 2442 C 226.328 -1.6242 1.34844 0
M  V30 2443 O 225.676 -2.22384 0.525145 0
M  V30 2444 C 225.886 -0.226345 3.48265 0
M  V30 2445 C 227.234 -0.444592 4.22266 0
M  V30 2446 O 228.258 -0.305602 3.54887 0
M  V30 2447 O 227.117 -0.718749 5.41753 0
M  V30 2448 H 224.211 -0.143907 0.814383 0
M  V30 2449 H 226.757 0.467506 1.63133 0
M  V30 2450 H 225.529 0.75475 3.83952 0
M  V30 2451 H 225.152 -0.960163 3.85832 0
M  V30 2452 N 226.149 -1.5696 0.141893 0
M  V30 2453 C 227.079 -2.19516 -0.795936 0
M  V30 2454 C 228.06 -1.14187 -1.26077 0
M  V30 2455 O 229.245 -1.42511 -1.31925 0
M  V30 2456 C 226.375 -2.81272 -2.03723 0
M  V30 2457 C 225.329 -3.92384 -1.70936 0
M  V30 2458 C 224.655 -4.41052 -3.02287 0
M  V30 2459 C 225.955 -5.13403 -0.959954 0
M  V30 2460 H 227.649 -2.98138 -0.274596 0
M  V30 2461 H 225.195 -1.43406 -0.130636 0
M  V30 2462 H 227.148 -3.237 -2.69808 0
M  V30 2463 H 225.872 -1.99973 -2.58221 0
M  V30 2464 H 224.531 -3.50566 -1.07232 0
M  V30 2465 H 224.179 -3.56582 -3.54765 0
M  V30 2466 H 223.879 -5.15993 -2.81114 0
M  V30 2467 H 225.403 -4.86146 -3.69451 0
M  V30 2468 H 226.817 -5.52706 -1.52279 0
M  V30 2469 H 225.214 -5.94073 -0.848357 0
M  V30 2470 H 226.284 -4.84875 0.0492434 0
M  V30 2471 N 227.627 0.131896 -1.57047 0
M  V30 2472 C 228.873 0.843179 -1.84441 0
M  V30 2473 C 229.206 1.80129 -0.725749 0
M  V30 2474 O 228.481 1.92624 0.269469 0
M  V30 2475 C 228.764 1.60442 -3.22382 0
M  V30 2476 C 228.617 0.666782 -4.4483 0
M  V30 2477 C 229.936 2.56354 -3.5773 0
M  V30 2478 H 227.055 0.305081 -0.670891 0
M  V30 2479 H 229.697 0.107839 -1.89694 0
M  V30 2480 H 227.847 2.23128 -3.18035 0
M  V30 2481 H 229.519 0.0497646 -4.61273 0
M  V30 2482 H 227.762 -0.022609 -4.33794 0
M  V30 2483 H 228.433 1.23579 -5.37989 0
M  V30 2484 H 230.909 2.0378 -3.62785 0
M  V30 2485 H 229.785 3.06657 -4.5525 0
M  V30 2486 H 230.046 3.38419 -2.84473 0
M  V30 2487 N 229.106 1.52395 0.401703 0
M  V30 2488 C 230.054 1.7689 1.51039 0
M  V30 2489 C 231.048 0.636298 1.56996 0
M  V30 2490 O 232.254 0.818507 1.60314 0
M  V30 2491 H 228.629 0.559502 0.502456 0
M  V30 2492 H 230.6 2.69757 1.27568 0
M  V30 2493 C 229.349 1.94331 2.88324 0
M  V30 2494 H 228.672 2.80905 2.84486 0
M  V30 2495 H 230.112 2.15466 3.65172 0
M  V30 2496 C 228.571 0.712396 3.29282 0
M  V30 2497 O 229.101 -0.116218 4.01532 0
M  V30 2498 N 227.307 0.546154 2.85422 0
M  V30 2499 H 226.854 1.22156 2.26794 0
M  V30 2500 H 226.812 -0.276113 3.13185 0
M  V30 2501 N 230.584 -0.659388 1.43143 0
M  V30 2502 C 231.833 -1.41518 1.43721 0
M  V30 2503 C 232.146 -1.95499 0.0628176 0
M  V30 2504 O 233.352 -2.71446 -0.0539683 0
M  V30 2505 C 231.808 -2.5608 2.52885 0
M  V30 2506 C 231.416 -2.08733 3.96402 0
M  V30 2507 C 233.16 -3.3349 2.62649 0
M  V30 2508 C 231.067 -3.20469 4.97045 0
M  V30 2509 H 229.997 -0.531705 0.534608 0
M  V30 2510 H 232.648 -0.712343 1.69109 0
M  V30 2511 H 231.03 -3.28805 2.20688 0
M  V30 2512 H 232.204 -1.43059 4.3803 0
M  V30 2513 H 230.519 -1.44219 3.90627 0
M  V30 2514 H 233.116 -4.16734 3.35017 0
M  V30 2515 H 233.459 -3.8111 1.67513 0
M  V30 2516 H 233.992 -2.67842 2.94118 0
M  V30 2517 H 230.731 -2.77824 5.93712 0
M  V30 2518 H 230.251 -3.84874 4.60034 0
M  V30 2519 H 231.93 -3.85698 5.19467 0
M  V30 2520 N 232.062 -1.29571 -0.897171 0
M  V30 2521 C 232.972 -1.16808 -2.03453 0
M  V30 2522 C 233.988 -0.0907471 -1.73763 0
M  V30 2523 O 235.164 -0.303312 -1.99103 0
M  V30 2524 C 232.229 -0.848264 -3.36163 0
M  V30 2525 C 231.29 -2.0097 -3.79354 0
M  V30 2526 C 230.523 -1.70505 -5.05731 0
M  V30 2527 O 230.746 -0.62718 -5.66941 0
M  V30 2528 O 229.68 -2.5538 -5.45036 0
M  V30 2529 H 233.506 -2.12325 -2.17144 0
M  V30 2530 H 231.091 -1.09047 -1.02123 0
M  V30 2531 H 232.973 -0.684581 -4.15802 0
M  V30 2532 H 231.648 0.0771071 -3.23608 0
M  V30 2533 H 230.555 -2.22863 -3.00471 0
M  V30 2534 H 231.888 -2.91636 -3.96496 0
M  V30 2535 N 233.54 1.10788 -1.12088 0
M  V30 2536 C 234.473 2.16237 -0.729168 0
M  V30 2537 C 235.451 1.60207 0.277921 0
M  V30 2538 O 236.635 1.87707 0.172737 0
M  V30 2539 C 233.762 3.38609 -0.0786848 0
M  V30 2540 C 232.808 4.13322 -1.05201 0
M  V30 2541 S 233.641 4.69371 -2.57781 0
M  V30 2542 C 234.797 5.95058 -1.94053 0
M  V30 2543 H 235.03 2.4913 -1.62239 0
M  V30 2544 H 232.563 1.22519 -0.939603 0
M  V30 2545 H 234.521 4.09473 0.290254 0
M  V30 2546 H 233.182 3.03962 0.791593 0
M  V30 2547 H 232.375 5.01051 -0.544433 0
M  V30 2548 H 231.977 3.48251 -1.36371 0
M  V30 2549 H 234.269 6.65278 -1.28107 0
M  V30 2550 H 235.212 6.50472 -2.79807 0
M  V30 2551 H 235.62 5.46918 -1.39787 0
M  V30 2552 N 235.018 0.912232 1.28515 0
M  V30 2553 C 236.265 0.544599 1.95039 0
M  V30 2554 C 236.593 -0.911435 1.71823 0
M  V30 2555 O 235.848 -1.66317 1.03137 0
M  V30 2556 C 236.147 0.798392 3.48368 0
M  V30 2557 C 235.813 2.23374 3.91682 0
M  V30 2558 C 234.475 2.62617 4.03219 0
M  V30 2559 C 236.827 3.16786 4.13879 0
M  V30 2560 C 234.155 3.94429 4.3433 0
M  V30 2561 C 236.507 4.48161 4.46469 0
M  V30 2562 C 235.171 4.8726 4.56217 0
M  V30 2563 H 234.441 0.199283 0.7137 0
M  V30 2564 H 237.088 1.15327 1.52879 0
M  V30 2565 H 235.393 0.106908 3.91654 0
M  V30 2566 H 237.09 0.493141 3.97956 0
M  V30 2567 H 233.68 1.91922 3.83228 0
M  V30 2568 H 237.864 2.87677 4.0442 0
M  V30 2569 H 233.12 4.24426 4.40082 0
M  V30 2570 H 237.294 5.20559 4.62592 0
M  V30 2571 H 234.921 5.89431 4.80078 0
M  V30 2572 N 236.496 -1.42363 0.676048 0
M  V30 2573 C 237.426 -2.33497 0.0124832 0
M  V30 2574 C 238.407 -1.50748 -0.787981 0
M  V30 2575 O 239.592 -1.79346 -0.744884 0
M  V30 2576 C 236.722 -3.34377 -0.938582 0
M  V30 2577 C 235.676 -4.27289 -0.246622 0
M  V30 2578 C 235.002 -5.18386 -1.31071 0
M  V30 2579 C 236.302 -5.14916 0.875125 0
M  V30 2580 H 237.996 -2.89233 0.773593 0
M  V30 2581 H 235.542 -1.39073 0.37346 0
M  V30 2582 H 237.495 -3.97044 -1.41188 0
M  V30 2583 H 236.219 -2.76947 -1.73113 0
M  V30 2584 H 234.878 -3.66018 0.206456 0
M  V30 2585 H 234.526 -4.57282 -2.09528 0
M  V30 2586 H 234.226 -5.81378 -0.852839 0
M  V30 2587 H 235.75 -5.83929 -1.78492 0
M  V30 2588 H 237.164 -5.71262 0.482983 0
M  V30 2589 H 235.561 -5.86747 1.25887 0
M  V30 2590 H 236.631 -4.53242 1.72335 0
M  V30 2591 N 237.974 -0.419461 -1.51915 0
M  V30 2592 C 239.202 0.152136 -2.0634 0
M  V30 2593 C 239.617 1.37988 -1.28859 0
M  V30 2594 O 238.974 1.79243 -0.343232 0
M  V30 2595 C 239.025 0.492266 -3.58133 0
M  V30 2596 O 238.746 -0.686736 -4.32684 0
M  V30 2597 C 240.247 1.11648 -4.2901 0
M  V30 2598 H 237.467 0.0158325 -0.670813 0
M  V30 2599 H 240.011 -0.593394 -1.95702 0
M  V30 2600 H 238.166 1.18769 -3.68745 0
M  V30 2601 H 238.58 -0.400341 -5.2297 0
M  V30 2602 H 240.054 1.3046 -5.36362 0
M  V30 2603 H 240.531 2.09251 -3.86148 0
M  V30 2604 H 241.137 0.460958 -4.22795 0
M  V30 2605 N 239.452 1.56882 -0.150215 0
M  V30 2606 C 240.415 2.1573 0.774157 0
M  V30 2607 C 241.415 1.0999 1.17298 0
M  V30 2608 O 242.605 1.35613 1.09338 0
M  V30 2609 C 239.737 2.72302 2.05096 0
M  V30 2610 H 240.93 2.98752 0.262201 0
M  V30 2611 H 238.483 1.55985 0.099248 0
M  V30 2612 H 239.218 1.92956 2.6065 0
M  V30 2613 H 239.003 3.49665 1.77416 0
M  V30 2614 H 240.493 3.17632 2.71109 0
M  V30 2615 N 240.93 -0.123565 1.57115 0
M  V30 2616 C 241.877 -1.15177 2.00007 0
M  V30 2617 C 242.847 -1.41403 0.871454 0
M  V30 2618 O 244.032 -1.53346 1.13533 0
M  V30 2619 C 241.172 -2.47436 2.40561 0
M  V30 2620 C 240.285 -2.28184 3.66819 0
M  V30 2621 C 239.42 -3.53641 3.96373 0
M  V30 2622 C 238.459 -3.29528 5.15827 0
M  V30 2623 N 237.596 -4.47175 5.41275 0
M  V30 2624 H 242.436 -0.779008 2.87638 0
M  V30 2625 H 239.973 -0.373166 1.42288 0
M  V30 2626 H 241.931 -3.24584 2.62109 0
M  V30 2627 H 240.561 -2.82614 1.55978 0
M  V30 2628 H 239.613 -1.41976 3.52912 0
M  V30 2629 H 240.925 -2.0634 4.5412 0
M  V30 2630 H 240.079 -4.39209 4.18545 0
M  V30 2631 H 238.818 -3.78512 3.07538 0
M  V30 2632 H 237.823 -2.42349 4.93505 0
M  V30 2633 H 239.048 -3.06031 6.06236 0
M  V30 2634 H 236.994 -4.72175 4.55397 0
M  V30 2635 H 236.911 -4.28419 6.22891 0
M  V30 2636 H 238.179 -5.3389 5.67963 0
M  V30 2637 N 242.408 -1.52605 -0.393616 0
M  V30 2638 C 243.318 -1.79971 -1.50492 0
M  V30 2639 C 244.334 -0.686181 -1.59899 0
M  V30 2640 O 245.51 -0.973274 -1.76322 0
M  V30 2641 C 242.575 -1.95867 -2.86072 0
M  V30 2642 C 241.636 -3.19781 -2.86424 0
M  V30 2643 C 240.869 -3.34909 -4.15538 0
M  V30 2644 O 241.092 -2.54948 -5.10253 0
M  V30 2645 O 240.026 -4.28141 -4.23059 0
M  V30 2646 H 243.852 -2.74328 -1.30299 0
M  V30 2647 H 241.437 -1.3764 -0.581005 0
M  V30 2648 H 243.319 -2.08056 -3.66457 0
M  V30 2649 H 241.994 -1.04699 -3.063 0
M  V30 2650 H 240.901 -3.13038 -2.04837 0
M  V30 2651 H 242.234 -4.1078 -2.71147 0
M  V30 2652 N 243.887 0.651787 -1.4349 0
M  V30 2653 C 245.133 1.41376 -1.45398 0
M  V30 2654 C 245.466 1.94041 -0.0784823 0
M  V30 2655 O 244.741 1.72379 0.900878 0
M  V30 2656 C 245.024 2.59414 -2.49752 0
M  V30 2657 C 244.877 2.12232 -3.96582 0
M  V30 2658 C 246.196 3.61626 -2.50827 0
M  V30 2659 H 243.315 0.512719 -0.529422 0
M  V30 2660 H 245.957 0.738796 -1.75048 0
M  V30 2661 H 244.107 3.16997 -2.246 0
M  V30 2662 H 245.779 1.59639 -4.32797 0
M  V30 2663 H 244.022 1.43592 -4.09346 0
M  V30 2664 H 244.693 2.9712 -4.65214 0
M  V30 2665 H 247.169 3.13805 -2.7325 0
M  V30 2666 H 246.045 4.41766 -3.25783 0
M  V30 2667 H 246.306 4.14314 -1.5426 0
M  V30 2668 N 245.365 1.30045 0.890287 0
M  V30 2669 C 246.275 1.17885 2.02831 0
M  V30 2670 C 247.291 0.0999609 1.73713 0
M  V30 2671 O 248.467 0.313867 1.98939 0
M  V30 2672 C 245.532 0.866079 3.35708 0
M  V30 2673 C 244.593 2.02979 3.78283 0
M  V30 2674 C 243.826 1.73184 5.0482 0
M  V30 2675 O 244.049 0.657237 5.66601 0
M  V30 2676 O 242.983 2.58267 5.43674 0
M  V30 2677 H 246.809 2.13474 2.16015 0
M  V30 2678 H 244.394 1.09587 1.01543 0
M  V30 2679 H 246.276 0.706623 4.15433 0
M  V30 2680 H 244.951 -0.0599443 3.23644 0
M  V30 2681 H 243.858 2.24454 2.99285 0
M  V30 2682 H 245.191 2.93734 3.94944 0
M  V30 2683 N 246.843 -1.10192 1.12674 0
M  V30 2684 C 247.753 -2.20172 0.810026 0
M  V30 2685 C 248.769 -1.72821 -0.202188 0
M  V30 2686 O 249.945 -2.01369 -0.0351691 0
M  V30 2687 C 247.01 -3.45631 0.272007 0
M  V30 2688 C 246.071 -4.07704 1.34447 0
M  V30 2689 C 245.304 -5.27175 0.832029 0
M  V30 2690 O 245.527 -5.69425 -0.333284 0
M  V30 2691 O 244.461 -5.80168 1.60277 0
M  V30 2692 H 248.287 -2.49701 1.72867 0
M  V30 2693 H 245.872 -1.18977 0.903597 0
M  V30 2694 H 247.754 -4.21394 -0.0230219 0
M  V30 2695 H 246.429 -3.17723 -0.619164 0
M  V30 2696 H 245.336 -3.33614 1.6927 0
M  V30 2697 H 246.669 -4.3982 2.2095 0
M  V30 2698 N 248.321 -0.919034 -1.28029 0
M  V30 2699 C 249.546 -0.570357 -1.99403 0
M  V30 2700 C 249.971 0.842486 -1.68178 0
M  V30 2701 O 249.329 1.56391 -0.917141 0
M  V30 2702 C 249.377 -0.792541 -3.51783 0
M  V30 2703 O 248.481 0.145988 -4.12142 0
M  V30 2704 H 247.822 -0.220555 -0.6263 0
M  V30 2705 H 250.352 -1.23592 -1.63053 0
M  V30 2706 H 250.362 -0.704708 -4.01868 0
M  V30 2707 H 249.037 -1.82247 -3.73844 0
M  V30 2708 H 247.614 0.00897528 -3.72899 0
M  V30 2709 N 249.799 1.42003 -0.683588 0
M  V30 2710 C 250.729 2.33487 -0.024866 0
M  V30 2711 C 251.71 1.51163 0.779975 0
M  V30 2712 O 252.895 1.79739 0.735362 0
M  V30 2713 C 250.025 3.3487 0.920836 0
M  V30 2714 C 248.979 4.27414 0.223958 0
M  V30 2715 C 248.305 5.19074 1.2832 0
M  V30 2716 C 249.605 5.14445 -0.90242 0
M  V30 2717 H 251.299 2.88819 -0.788921 0
M  V30 2718 H 248.845 1.38873 -0.38083 0
M  V30 2719 H 250.798 3.97787 1.39081 0
M  V30 2720 H 249.522 2.77861 1.71642 0
M  V30 2721 H 248.181 3.65904 -0.225864 0
M  V30 2722 H 247.829 4.58387 2.071 0
M  V30 2723 H 247.529 5.81822 0.821995 0
M  V30 2724 H 249.053 5.84867 1.75392 0
M  V30 2725 H 250.467 5.70998 -0.513272 0
M  V30 2726 H 248.864 5.86072 -1.28997 0
M  V30 2727 H 249.934 4.52322 -1.74737 0
M  V30 2728 N 251.277 0.427512 1.51691 0
M  V30 2729 C 252.187 -0.39527 2.31246 0
M  V30 2730 C 253.203 -1.03674 1.39742 0
M  V30 2731 O 254.379 -1.03425 1.72816 0
M  V30 2732 C 251.444 -1.48706 3.13189 0
M  V30 2733 C 250.505 -0.866743 4.20459 0
M  V30 2734 C 249.738 -1.90651 4.98486 0
M  V30 2735 O 249.961 -3.12733 4.77026 0
M  V30 2736 O 248.895 -1.5025 5.82845 0
M  V30 2737 H 252.721 0.253918 3.02637 0
M  V30 2738 H 250.306 0.190274 1.48183 0
M  V30 2739 H 252.188 -2.12047 3.64162 0
M  V30 2740 H 250.863 -2.12051 2.44573 0
M  V30 2741 H 249.77 -0.195544 3.73589 0
M  V30 2742 H 251.103 -0.276934 4.9142 0
M  V30 2743 N 252.755 -1.56801 0.158532 0
M  V30 2744 C 254.171 -1.5837 -0.197774 0
M  V30 2745 C 254.371 -1.17334 -1.63814 0
M  V30 2746 O 253.427 -0.878988 -2.36707 0
M  V30 2747 C 254.74 -3.00615 0.0714459 0
M  V30 2748 C 256.288 -3.12999 0.00864533 0
M  V30 2749 C 256.763 -4.57313 0.250685 0
M  V30 2750 N 258.254 -4.62777 0.198014 0
M  V30 2751 C 258.989 -5.72271 0.359642 0
M  V30 2752 N 258.485 -6.90371 0.579625 0
M  V30 2753 N 260.278 -5.61318 0.296438 0
M  V30 2754 H 252.429 -1.81765 1.09887 0
M  V30 2755 H 254.692 -0.841849 0.435884 0
M  V30 2756 H 254.398 -3.35068 1.06874 0
M  V30 2757 H 254.272 -3.71683 -0.642757 0
M  V30 2758 H 256.659 -2.7838 -0.979217 0
M  V30 2759 H 256.74 -2.44393 0.755359 0
M  V30 2760 H 256.384 -4.92639 1.2357 0
M  V30 2761 H 256.314 -5.24061 -0.516489 0
M  V30 2762 H 258.805 -3.77885 0.0331115 0
M  V30 2763 H 259.118 -7.69689 0.69275 0
M  V30 2764 H 257.463 -6.92264 0.616087 0
M  V30 2765 H 260.654 -4.67932 0.125258 0
M  V30 2766 H 260.827 -6.46599 0.425831 0
M  V30 2767 N 254.233 0.115231 -1.57178 0
M  V30 2768 C 255.649 0.468877 -1.52557 0
M  V30 2769 C 255.849 1.81649 -0.872125 0
M  V30 2770 O 254.905 2.48347 -0.45606 0
M  V30 2771 C 256.218 0.4499 -2.97315 0
M  V30 2772 C 257.766 0.533185 -3.08425 0
M  V30 2773 C 258.241 0.54456 -4.54751 0
M  V30 2774 N 259.732 0.605892 -4.5922 0
M  V30 2775 C 260.467 0.636203 -5.6986 0
M  V30 2776 N 259.963 0.623931 -6.89985 0
M  V30 2777 N 261.756 0.679496 -5.57978 0
M  V30 2778 H 253.907 -0.767712 -1.9804 0
M  V30 2779 H 256.17 -0.283609 -0.904583 0
M  V30 2780 H 255.876 -0.472721 -3.48509 0
M  V30 2781 H 255.75 1.27632 -3.5495 0
M  V30 2782 H 258.137 1.44623 -2.57232 0
M  V30 2783 H 258.218 -0.320995 -2.53778 0
M  V30 2784 H 257.862 -0.364452 -5.06591 0
M  V30 2785 H 257.792 1.41568 -5.07214 0
M  V30 2786 H 260.283 0.621386 -3.72756 0
M  V30 2787 H 260.596 0.649787 -7.70063 0
M  V30 2788 H 258.941 0.591296 -6.9248 0
M  V30 2789 H 262.132 0.686472 -4.63039 0
M  V30 2790 H 262.305 0.69965 -6.44212 0
M  V30 2791 N 255.711 1.52812 0.385517 0
M  V30 2792 C 256.621 1.80766 1.49535 0
M  V30 2793 C 257.637 0.694651 1.59532 0
M  V30 2794 O 258.813 0.982611 1.75803 0
M  V30 2795 C 255.878 1.97381 2.85029 0
M  V30 2796 C 254.939 3.21295 2.84724 0
M  V30 2797 C 254.172 3.37108 4.13756 0
M  V30 2798 O 254.395 2.5765 5.08893 0
M  V30 2799 O 253.329 4.30378 4.20783 0
M  V30 2800 H 257.155 2.75015 1.28842 0
M  V30 2801 H 254.74 1.37946 0.573697 0
M  V30 2802 H 256.622 2.09996 3.65349 0
M  V30 2803 H 255.297 1.06322 3.05741 0
M  V30 2804 H 254.204 3.1412 2.03174 0
M  V30 2805 H 255.537 4.12212 2.68965 0
M  V30 2806 N 257.189 -0.644168 1.43834 0
M  V30 2807 C 258.417 -1.43147 1.49387 0
M  V30 2808 C 258.832 -1.88452 0.114583 0
M  V30 2809 O 258.189 -1.60047 -0.876989 0
M  V30 2810 C 258.24 -2.66046 2.44748 0
M  V30 2811 O 257.961 -2.22633 3.77314 0
M  V30 2812 C 259.462 -3.59311 2.59635 0
M  V30 2813 H 256.682 -0.439447 0.507077 0
M  V30 2814 H 259.226 -0.78895 1.88669 0
M  V30 2815 H 257.381 -3.26418 2.08638 0
M  V30 2816 H 257.795 -3.02216 4.28679 0
M  V30 2817 H 259.269 -4.42187 3.30416 0
M  V30 2818 H 259.746 -4.07259 1.64427 0
M  V30 2819 H 260.352 -3.04816 2.96593 0
M  V30 2820 N 258.668 -1.30515 -0.883378 0
M  V30 2821 C 259.631 -1.1701 -1.97082 0
M  V30 2822 C 260.631 -0.10089 -1.60483 0
M  V30 2823 O 261.821 -0.349127 -1.70666 0
M  V30 2824 C 258.953 -0.793045 -3.31547 0
M  V30 2825 H 260.146 -2.13622 -2.10489 0
M  V30 2826 H 257.699 -1.13935 -1.06998 0
M  V30 2827 H 258.434 0.172499 -3.23841 0
M  V30 2828 H 258.219 -1.56576 -3.5948 0
M  V30 2829 H 259.709 -0.722073 -4.1131 0
M  V30 2830 N 260.146 1.09593 -1.13257 0
M  V30 2831 C 261.374 1.855 -0.916378 0
M  V30 2832 C 261.789 1.81069 0.534738 0
M  V30 2833 O 261.146 1.20562 1.37007 0
M  V30 2834 C 261.197 3.33546 -1.39388 0
M  V30 2835 O 260.918 3.37927 -2.78813 0
M  V30 2836 C 262.419 4.26299 -1.21588 0
M  V30 2837 H 259.639 0.585991 -0.326887 0
M  V30 2838 H 262.183 1.38488 -1.5047 0
M  V30 2839 H 260.338 3.77992 -0.848597 0
M  V30 2840 H 260.752 4.30254 -2.9997 0
M  V30 2841 H 262.226 5.28341 -1.59876 0
M  V30 2842 H 262.703 4.38918 -0.157376 0
M  V30 2843 H 263.309 3.87668 -1.7491 0
M  V30 2844 N 261.624 0.925811 1.2754 0
M  V30 2845 C 262.864 0.572521 1.96218 0
M  V30 2846 C 263.228 -0.869719 1.71172 0
M  V30 2847 O 264.429 -1.33119 2.33523 0
M  V30 2848 C 262.7 0.887325 3.4621 0
M  V30 2849 S 264.259 0.642266 4.34074 0
M  V30 2850 H 261.077 0.211403 0.678845 0
M  V30 2851 H 263.679 1.19384 1.54815 0
M  V30 2852 H 262.383 1.93469 3.61936 0
M  V30 2853 H 261.914 0.255123 3.92572 0
M  V30 2854 H 263.929 -0.500822 4.93666 0
M  V30 2855 N 263.102 -1.41638 0.69111 0
M  V30 2856 C 264.032 -2.3347 0.037248 0
M  V30 2857 C 265.013 -1.51575 -0.771947 0
M  V30 2858 O 266.198 -1.80126 -0.72582 0
M  V30 2859 C 263.328 -3.35354 -0.903064 0
M  V30 2860 C 262.282 -4.27526 -0.201288 0
M  V30 2861 C 261.608 -5.19747 -1.25565 0
M  V30 2862 C 262.908 -5.13959 0.929689 0
M  V30 2863 H 264.602 -2.88397 0.804227 0
M  V30 2864 H 262.148 -1.38669 0.388189 0
M  V30 2865 H 264.101 -3.98519 -1.36969 0
M  V30 2866 H 262.825 -2.78767 -1.70166 0
M  V30 2867 H 261.484 -3.65779 0.245265 0
M  V30 2868 H 261.132 -4.59479 -2.04666 0
M  V30 2869 H 260.832 -5.8225 -0.791128 0
M  V30 2870 H 262.356 -5.85789 -1.72288 0
M  V30 2871 H 263.77 -5.70718 0.543546 0
M  V30 2872 H 262.167 -5.85379 1.32103 0
M  V30 2873 H 263.237 -4.51389 1.77133 0
M  V30 2874 N 264.58 -0.43555 -1.51462 0
M  V30 2875 C 265.543 0.365137 -2.26273 0
M  V30 2876 C 266.543 0.951227 -1.29647 0
M  V30 2877 O 267.733 0.825958 -1.53374 0
M  V30 2878 C 264.865 1.51645 -3.05314 0
M  V30 2879 H 266.058 -0.290474 -2.9849 0
M  V30 2880 H 263.611 -0.188676 -1.55157 0
M  V30 2881 H 264.346 2.20816 -2.3751 0
M  V30 2882 H 264.131 1.10238 -3.76284 0
M  V30 2883 H 265.621 2.08218 -3.61987 0
M  V30 2884 N 266.058 1.56714 -0.166846 0
M  V30 2885 C 267.304 1.97813 0.473473 0
M  V30 2886 C 267.659 1.05095 1.61161 0
M  V30 2887 O 266.952 0.0897541 1.9139 0
M  V30 2888 C 267.146 3.42889 1.00806 0
M  V30 2889 C 266.975 4.49635 -0.0767392 0
M  V30 2890 C 265.745 5.02566 -0.524894 0
M  V30 2891 C 267.943 5.06793 -0.875504 0
M  V30 2892 N 265.925 5.9294 -1.59047 0
M  V30 2893 C 267.296 5.93565 -1.79111 0
M  V30 2894 C 269.351 4.89306 -0.921083 0
M  V30 2895 C 268.054 6.64721 -2.74843 0
M  V30 2896 C 270.08 5.61179 -1.86633 0
M  V30 2897 C 269.442 6.47675 -2.76942 0
M  V30 2898 H 265.541 0.769093 0.141489 0
M  V30 2899 H 268.125 1.92874 -0.266031 0
M  V30 2900 H 266.296 3.48382 1.7171 0
M  V30 2901 H 268.028 3.71008 1.61664 0
M  V30 2902 H 264.783 4.73439 -0.123432 0
M  V30 2903 H 265.207 6.42831 -2.12361 0
M  V30 2904 H 269.849 4.22136 -0.23692 0
M  V30 2905 H 267.567 7.31107 -3.44249 0
M  V30 2906 H 271.153 5.49636 -1.90764 0
M  V30 2907 H 270.033 7.02313 -3.48893 0
M  V30 2908 N 267.536 -0.106894 1.57237 0
M  V30 2909 C 268.776 -0.818277 1.87306 0
M  V30 2910 C 269.14 -1.76474 0.756371 0
M  V30 2911 O 270.341 -2.5186 0.939155 0
M  V30 2912 C 268.612 -1.53806 3.22612 0
M  V30 2913 S 270.171 -2.28935 3.74345 0
M  V30 2914 H 266.989 -0.272862 0.656557 0
M  V30 2915 H 269.591 -0.075988 1.95352 0
M  V30 2916 H 268.295 -0.834951 4.01817 0
M  V30 2917 H 267.826 -2.32049 3.17674 0
M  V30 2918 H 269.841 -3.54871 3.46815 0
M  V30 2919 N 269.014 -1.53014 -0.377408 0
M  V30 2920 C 269.964 -1.74996 -1.46152 0
M  V30 2921 C 270.948 -0.604236 -1.49123 0
M  V30 2922 O 272.14 -0.862489 -1.54564 0
M  V30 2923 C 269.269 -1.93267 -2.8373 0
M  V30 2924 C 268.355 -3.13807 -2.85283 0
M  V30 2925 N 268.746 -4.35941 -2.56493 0
M  V30 2926 C 267.044 -3.14288 -3.16448 0
M  V30 2927 C 267.745 -5.17615 -2.65424 0
M  V30 2928 N 266.721 -4.53559 -2.99641 0
M  V30 2929 H 270.523 -2.67044 -1.22738 0
M  V30 2930 H 268.037 -1.51479 -0.585479 0
M  V30 2931 H 270.034 -2.0714 -3.61799 0
M  V30 2932 H 268.694 -1.0244 -3.08117 0
M  V30 2933 H 269.705 -4.63876 -2.30302 0
M  V30 2934 H 266.382 -2.33312 -3.46225 0
M  V30 2935 H 267.772 -6.25006 -2.46612 0
M  V30 2936 N 270.492 0.636531 -1.44174 0
M  V30 2937 C 271.769 1.39463 -1.37148 0
M  V30 2938 C 272.149 2.11082 -0.027507 0
M  V30 2939 O 271.497 2.05954 0.989716 0
M  V30 2940 C 271.707 2.36552 -2.56601 0
M  V30 2941 C 273.055 3.00048 -3.00427 0
M  V30 2942 O 274.079 2.46878 -2.56767 0
M  V30 2943 O 272.938 3.96488 -3.76111 0
M  V30 2944 H 270.032 0.623903 -0.542839 0
M  V30 2945 H 272.578 0.662039 -1.56253 0
M  V30 2946 H 271.35 1.82692 -3.46034 0
M  V30 2947 H 270.973 3.17236 -2.39681 0
M  V30 2948 N 271.97 1.30982 0.876444 0
M  V30 2949 C 272.918 1.18006 2.00443 0
M  V30 2950 C 273.912 0.0898871 1.69161 0
M  V30 2951 O 275.118 0.251333 1.78237 0
M  V30 2952 H 271.493 0.365196 0.65737 0
M  V30 2953 H 273.464 2.13453 2.0852 0
M  V30 2954 C 272.213 0.897521 3.35916 0
M  V30 2955 H 271.536 1.7285 3.60504 0
M  V30 2956 H 272.976 0.846874 4.15456 0
M  V30 2957 C 271.435 -0.399674 3.34521 0
M  V30 2958 O 271.965 -1.41852 3.7582 0
M  V30 2959 N 270.171 -0.413893 2.87637 0
M  V30 2960 H 269.718 0.41571 2.54224 0
M  V30 2961 H 269.676 -1.28175 2.87086 0
M  V30 2962 N 273.449 -1.08991 1.13837 0
M  V30 2963 C 274.396 -2.15748 0.819835 0
M  V30 2964 C 275.366 -1.64636 -0.220026 0
M  V30 2965 O 276.551 -1.90582 -0.0912757 0
M  V30 2966 C 273.691 -3.4382 0.296913 0
M  V30 2967 C 272.804 -4.0881 1.39636 0
M  V30 2968 C 271.939 -5.24655 0.831314 0
M  V30 2969 C 270.978 -5.81575 1.90886 0
M  V30 2970 N 270.115 -6.88774 1.36142 0
M  V30 2971 H 274.955 -2.42338 1.73426 0
M  V30 2972 H 272.492 -1.18935 0.865613 0
M  V30 2973 H 274.45 -4.17193 -0.0244339 0
M  V30 2974 H 273.08 -3.17535 -0.580628 0
M  V30 2975 H 272.132 -3.33258 1.83422 0
M  V30 2976 H 273.444 -4.47141 2.21058 0
M  V30 2977 H 272.598 -6.04942 0.461515 0
M  V30 2978 H 271.337 -4.87698 -0.013932 0
M  V30 2979 H 270.342 -4.99946 2.28767 0
M  V30 2980 H 271.567 -6.20592 2.75758 0
M  V30 2981 H 269.513 -6.53788 0.538254 0
M  V30 2982 H 269.43 -7.25898 2.11208 0
M  V30 2983 H 270.698 -7.72806 1.01933 0
M  V30 2984 N 274.927 -0.932562 -1.27047 0
M  V30 2985 C 276.152 -0.591474 -1.98787 0
M  V30 2986 C 276.577 0.824601 -1.69062 0
M  V30 2987 O 275.935 1.5541 -0.933677 0
M  V30 2988 C 275.983 -0.829808 -3.50922 0
M  V30 2989 O 275.087 0.102266 -4.12273 0
M  V30 2990 H 274.428 -0.227185 -0.623926 0
M  V30 2991 H 276.958 -1.25314 -1.61733 0
M  V30 2992 H 276.968 -0.747292 -4.01098 0
M  V30 2993 H 275.643 -1.86201 -3.7189 0
M  V30 2994 H 274.22 -0.0305761 -3.72887 0
M  V30 2995 N 276.405 1.4127 -0.698611 0
M  V30 2996 C 277.821 1.55241 -0.370462 0
M  V30 2997 C 278.021 1.67351 1.12231 0
M  V30 2998 O 277.077 1.65363 1.90818 0
M  V30 2999 C 278.39 2.78997 -1.12165 0
M  V30 3000 C 279.938 2.92797 -1.1063 0
M  V30 3001 C 280.413 4.19445 -1.8393 0
M  V30 3002 N 281.904 4.26409 -1.80914 0
M  V30 3003 C 282.639 5.23271 -2.34467 0
M  V30 3004 N 282.135 6.26145 -2.96504 0
M  V30 3005 N 283.928 5.15232 -2.24706 0
M  V30 3006 H 276.079 1.31654 -1.66676 0
M  V30 3007 H 278.342 0.635393 -0.703548 0
M  V30 3008 H 278.048 2.76268 -2.17644 0
M  V30 3009 H 277.922 3.70606 -0.702209 0
M  V30 3010 H 280.309 2.95039 -0.0597713 0
M  V30 3011 H 280.39 2.02353 -1.56483 0
M  V30 3012 H 280.034 4.17964 -2.88563 0
M  V30 3013 H 279.964 5.08866 -1.35509 0
M  V30 3014 H 282.455 3.527 -1.35687 0
M  V30 3015 H 282.768 6.96451 -3.34927 0
M  V30 3016 H 281.113 6.26638 -3.00583 0
M  V30 3017 H 284.304 4.33789 -1.7591 0
M  V30 3018 H 284.477 5.90552 -2.66745 0
M  V30 3019 N 277.883 0.443576 1.51229 0
M  V30 3020 C 278.813 -0.355142 2.30783 0
M  V30 3021 C 279.794 -1.0154 1.36468 0
M  V30 3022 O 280.979 -1.01785 1.65389 0
M  V30 3023 C 278.109 -1.45312 3.15439 0
M  V30 3024 C 277.063 -0.916002 4.18083 0
M  V30 3025 C 276.389 -2.1102 4.91299 0
M  V30 3026 C 277.689 0.0538602 5.22272 0
M  V30 3027 H 279.383 0.308767 2.97804 0
M  V30 3028 H 276.929 0.149937 1.43217 0
M  V30 3029 H 278.882 -2.01914 3.69876 0
M  V30 3030 H 277.606 -2.14541 2.46252 0
M  V30 3031 H 276.265 -0.372145 3.64706 0
M  V30 3032 H 275.913 -2.78882 4.18609 0
M  V30 3033 H 275.613 -1.75717 5.60712 0
M  V30 3034 H 277.137 -2.68164 5.48562 0
M  V30 3035 H 278.551 -0.422069 5.71744 0
M  V30 3036 H 276.948 0.319776 5.99247 0
M  V30 3037 H 278.018 0.98858 4.74716 0
M  V30 3038 N 279.361 -1.56624 0.175154 0
M  V30 3039 C 280.777 -1.58571 -0.180966 0
M  V30 3040 C 280.977 -1.19065 -1.6256 0
M  V30 3041 O 280.033 -0.904044 -2.35761 0
M  V30 3042 C 281.346 -3.00522 0.103326 0
M  V30 3043 C 282.894 -3.12972 0.0418426 0
M  V30 3044 C 283.369 -4.57022 0.299175 0
M  V30 3045 N 284.86 -4.62541 0.247086 0
M  V30 3046 C 285.595 -5.71857 0.420318 0
M  V30 3047 N 285.091 -6.89717 0.652816 0
M  V30 3048 N 286.884 -5.60972 0.355957 0
M  V30 3049 H 279.035 -1.80589 1.11809 0
M  V30 3050 H 281.298 -0.837178 0.444788 0
M  V30 3051 H 281.004 -3.33916 1.10422 0
M  V30 3052 H 280.878 -3.72344 -0.603299 0
M  V30 3053 H 283.265 -2.79403 -0.949636 0
M  V30 3054 H 283.346 -2.43578 0.781238 0
M  V30 3055 H 282.99 -4.913 1.28788 0
M  V30 3056 H 282.92 -5.24579 -0.460876 0
M  V30 3057 H 285.411 -3.77829 0.0731895 0
M  V30 3058 H 285.724 -7.68911 0.774347 0
M  V30 3059 H 284.069 -6.91572 0.689476 0
M  V30 3060 H 287.26 -4.67773 0.174882 0
M  V30 3061 H 287.433 -6.46111 0.494388 0
M  V30 3062 N 280.839 0.0985539 -1.57292 0
M  V30 3063 C 281.786 1.11981 -2.01814 0
M  V30 3064 C 282.756 1.39999 -0.89384 0
M  V30 3065 O 283.941 1.5152 -1.15958 0
M  V30 3066 C 281.081 2.43577 -2.44467 0
M  V30 3067 C 280.194 2.2232 -3.70402 0
M  V30 3068 C 279.329 3.4729 -4.01949 0
M  V30 3069 C 278.368 3.2128 -5.21005 0
M  V30 3070 N 277.505 4.38507 -5.48321 0
M  V30 3071 H 282.345 0.733149 -2.88841 0
M  V30 3072 H 279.882 0.350482 -1.42864 0
M  V30 3073 H 281.84 3.20373 -2.6724 0
M  V30 3074 H 280.47 2.80097 -1.60455 0
M  V30 3075 H 279.522 1.36343 -3.55126 0
M  V30 3076 H 280.834 1.99089 -4.57345 0
M  V30 3077 H 279.988 4.32495 -4.25479 0
M  V30 3078 H 278.727 3.73572 -3.13521 0
M  V30 3079 H 277.732 2.34468 -4.97298 0
M  V30 3080 H 278.957 2.96348 -6.11028 0
M  V30 3081 H 276.903 4.64871 -4.62851 0
M  V30 3082 H 276.82 4.18455 -6.29628 0
M  V30 3083 H 278.088 5.24787 -5.76385 0
M  V30 3084 N 282.317 1.53212 0.369288 0
M  V30 3085 C 283.25 1.74166 1.4745 0
M  V30 3086 C 284.228 0.589923 1.51521 0
M  V30 3087 O 285.412 0.822078 1.69629 0
M  V30 3088 C 282.539 1.81711 2.8583 0
M  V30 3089 C 281.585 3.03649 2.99499 0
M  V30 3090 S 282.418 4.63242 2.6864 0
M  V30 3091 C 283.574 4.7363 4.09177 0
M  V30 3092 H 283.807 2.67636 1.29454 0
M  V30 3093 H 281.34 1.43754 0.563396 0
M  V30 3094 H 283.298 1.86743 3.65564 0
M  V30 3095 H 281.959 0.89299 3.01139 0
M  V30 3096 H 281.152 3.05526 4.00836 0
M  V30 3097 H 280.754 2.9671 2.27683 0
M  V30 3098 H 283.046 4.53456 5.03372 0
M  V30 3099 H 283.989 5.75682 4.12306 0
M  V30 3100 H 284.397 4.02295 3.96004 0
M  V30 3101 N 283.795 -0.628877 1.44509 0
M  V30 3102 C 284.742 -1.74074 1.51549 0
M  V30 3103 C 285.712 -1.62084 0.363021 0
M  V30 3104 O 286.897 -1.81975 0.573567 0
M  V30 3105 C 284.037 -3.12328 1.46784 0
M  V30 3106 C 283.15 -3.35277 2.72422 0
M  V30 3107 C 282.285 -4.63515 2.59475 0
M  V30 3108 C 281.324 -4.7965 3.80266 0
M  V30 3109 N 280.461 -5.99168 3.65981 0
M  V30 3110 H 285.301 -1.67392 2.46544 0
M  V30 3111 H 282.838 -0.816527 1.22357 0
M  V30 3112 H 284.796 -3.92286 1.42012 0
M  V30 3113 H 283.426 -3.18018 0.553544 0
M  V30 3114 H 282.478 -2.49242 2.87372 0
M  V30 3115 H 283.79 -3.43078 3.62076 0
M  V30 3116 H 282.944 -5.51638 2.52548 0
M  V30 3117 H 281.683 -4.58076 1.67384 0
M  V30 3118 H 280.688 -3.89957 3.87574 0
M  V30 3119 H 281.913 -4.86902 4.73395 0
M  V30 3120 H 279.859 -5.94814 2.76644 0
M  V30 3121 H 279.776 -6.08035 4.49254 0
M  V30 3122 H 281.044 -6.89846 3.6295 0
M  V30 3123 N 285.273 -1.31445 -0.869486 0
M  V30 3124 C 286.498 -1.24256 -1.66058 0
M  V30 3125 C 286.923 0.188928 -1.87149 0
M  V30 3126 O 286.281 1.13522 -1.4136 0
M  V30 3127 C 286.329 -1.9924 -3.00559 0
M  V30 3128 O 285.433 -1.33007 -3.90362 0
M  V30 3129 H 284.774 -0.428973 -0.506831 0
M  V30 3130 H 287.304 -1.73521 -1.08404 0
M  V30 3131 H 287.314 -2.08854 -3.50491 0
M  V30 3132 H 285.989 -3.03342 -2.84528 0
M  V30 3133 H 284.566 -1.31848 -3.48813 0
M  V30 3134 N 286.751 1.08385 -1.14413 0
M  V30 3135 C 287.991 1.8238 -0.922868 0
M  V30 3136 C 288.355 1.84225 0.540842 0
M  V30 3137 O 289.556 2.53985 0.880058 0
M  V30 3138 C 287.827 3.24048 -1.50757 0
M  V30 3139 S 289.386 4.14917 -1.4279 0
M  V30 3140 H 286.204 0.628524 -0.332384 0
M  V30 3141 H 288.806 1.30278 -1.45766 0
M  V30 3142 H 287.51 3.20288 -2.56601 0
M  V30 3143 H 287.041 3.81224 -0.971178 0
M  V30 3144 H 289.056 4.94473 -0.413582 0
M  V30 3145 N 288.23 0.939286 1.26551 0
M  V30 3146 C 289.16 0.465044 2.28822 0
M  V30 3147 C 290.141 -0.480692 1.63167 0
M  V30 3148 O 291.326 -0.382955 1.90387 0
M  V30 3149 C 288.456 -0.27234 3.46231 0
M  V30 3150 C 287.41 0.58666 4.2396 0
M  V30 3151 C 286.736 -0.280573 5.33963 0
M  V30 3152 C 288.036 1.85704 4.88171 0
M  V30 3153 H 289.73 1.31979 2.68741 0
M  V30 3154 H 287.276 0.636061 1.29191 0
M  V30 3155 H 289.229 -0.615133 4.16886 0
M  V30 3156 H 287.953 -1.16121 3.0526 0
M  V30 3157 H 286.612 0.91232 3.55067 0
M  V30 3158 H 286.26 -1.16874 4.89234 0
M  V30 3159 H 285.96 0.29076 5.8688 0
M  V30 3160 H 287.484 -0.618678 6.07458 0
M  V30 3161 H 288.898 1.58161 5.51052 0
M  V30 3162 H 287.295 2.37279 5.51197 0
M  V30 3163 H 288.365 2.56957 4.11219 0
M  V30 3164 N 289.708 -1.40897 0.706093 0
M  V30 3165 C 290.618 -2.3455 0.0482286 0
M  V30 3166 C 291.634 -1.56796 -0.754396 0
M  V30 3167 O 292.81 -1.89228 -0.689538 0
M  V30 3168 C 289.875 -3.35625 -0.869303 0
M  V30 3169 C 288.936 -4.29261 -0.0576994 0
M  V30 3170 C 288.169 -5.25508 -0.931531 0
M  V30 3171 O 288.392 -5.27472 -2.17092 0
M  V30 3172 O 287.326 -6.00727 -0.375587 0
M  V30 3173 H 291.152 -2.92407 0.820476 0
M  V30 3174 H 288.737 -1.4193 0.4665 0
M  V30 3175 H 290.619 -3.97635 -1.39514 0
M  V30 3176 H 289.294 -2.80196 -1.62086 0
M  V30 3177 H 288.201 -3.70566 0.512988 0
M  V30 3178 H 289.534 -4.87817 0.655426 0
M  V30 3179 N 291.186 -0.45159 -1.50991 0
M  V30 3180 C 292.433 0.110074 -2.02201 0
M  V30 3181 C 292.761 1.4146 -1.33489 0
M  V30 3182 O 292.016 1.90617 -0.443125 0
M  V30 3183 C 292.315 0.361728 -3.55565 0
M  V30 3184 C 291.981 -0.858717 -4.42648 0
M  V30 3185 C 290.643 -1.19338 -4.66167 0
M  V30 3186 C 292.995 -1.67221 -4.93646 0
M  V30 3187 C 290.323 -2.34195 -5.37931 0
M  V30 3188 C 292.675 -2.8119 -5.6667 0
M  V30 3189 C 291.339 -3.15094 -5.88449 0
M  V30 3190 H 290.609 0.040279 -0.739904 0
M  V30 3191 H 293.256 -0.601696 -1.81802 0
M  V30 3192 H 291.561 1.15554 -3.74372 0
M  V30 3193 H 293.258 0.80996 -3.92735 0
M  V30 3194 H 289.848 -0.58796 -4.24548 0
M  V30 3195 H 294.032 -1.42686 -4.75347 0
M  V30 3196 H 289.288 -2.6076 -5.53005 0
M  V30 3197 H 293.462 -3.44585 -6.05173 0
M  V30 3198 H 291.089 -4.04204 -6.43835 0
M  V30 3199 N 292.664 1.56529 -0.183458 0
M  V30 3200 C 293.889 2.02064 0.467428 0
M  V30 3201 C 294.314 1.06282 1.55196 0
M  V30 3202 O 293.672 0.0443565 1.81246 0
M  V30 3203 C 293.72 3.46122 1.01153 0
M  V30 3204 O 292.824 3.53437 2.12499 0
M  V30 3205 H 292.165 0.654726 0.110588 0
M  V30 3206 H 294.695 2.02521 -0.290917 0
M  V30 3207 H 294.705 3.85676 1.33108 0
M  V30 3208 H 293.38 4.15331 0.217533 0
M  V30 3209 H 291.957 3.2575 1.81497 0
M  V30 3210 N 294.142 -0.090211 1.57342 0
M  V30 3211 C 295.072 -1.10976 2.05443 0
M  V30 3212 C 296.053 -1.41482 0.944284 0
M  V30 3213 O 297.238 -1.51428 1.21586 0
M  V30 3214 C 294.368 -2.42831 2.48295 0
M  V30 3215 C 293.322 -2.26721 3.63018 0
M  V30 3216 C 292.648 -3.63796 3.91863 0
M  V30 3217 C 293.948 -1.7037 4.93732 0
M  V30 3218 H 295.642 -0.709564 2.9087 0
M  V30 3219 H 293.188 -0.339874 1.39932 0
M  V30 3220 H 295.141 -3.14431 2.80555 0
M  V30 3221 H 293.865 -2.84795 1.59873 0
M  V30 3222 H 292.524 -1.57565 3.31012 0
M  V30 3223 H 292.172 -4.03297 3.00601 0
M  V30 3224 H 291.872 -3.53861 4.69101 0
M  V30 3225 H 293.396 -4.36855 4.26603 0
M  V30 3226 H 294.81 -2.31816 5.24342 0
M  V30 3227 H 293.207 -1.71181 5.75167 0
M  V30 3228 H 294.277 -0.663542 4.80339 0
M  V30 3229 N 295.62 -1.53406 -0.361157 0
M  V30 3230 C 297.036 -1.43277 -0.703124 0
M  V30 3231 C 297.236 -0.575384 -1.9311 0
M  V30 3232 O 296.292 -0.0595362 -2.5243 0
M  V30 3233 C 297.605 -2.8653 -0.9122 0
M  V30 3234 C 299.153 -2.96191 -1.01193 0
M  V30 3235 C 299.628 -4.40514 -1.25345 0
M  V30 3236 N 301.119 -4.43962 -1.32105 0
M  V30 3237 C 301.854 -5.52746 -1.5251 0
M  V30 3238 N 301.35 -6.71567 -1.70203 0
M  V30 3239 N 303.143 -5.40331 -1.54916 0
M  V30 3240 H 295.294 -2.07654 0.446475 0
M  V30 3241 H 297.557 -0.937944 0.137715 0
M  V30 3242 H 297.263 -3.51605 -0.0816414 0
M  V30 3243 H 297.137 -3.30441 -1.81903 0
M  V30 3244 H 299.524 -2.31266 -1.83303 0
M  V30 3245 H 299.605 -2.55667 -0.0823929 0
M  V30 3246 H 299.249 -5.06014 -0.437346 0
M  V30 3247 H 299.179 -4.78614 -2.19627 0
M  V30 3248 H 301.67 -3.58332 -1.20028 0
M  V30 3249 H 301.983 -7.50241 -1.85359 0
M  V30 3250 H 300.328 -6.74545 -1.67373 0
M  V30 3251 H 303.519 -4.46465 -1.40663 0
M  V30 3252 H 303.692 -6.25173 -1.70477 0
M  V30 3253 N 297.098 0.621204 -1.44841 0
M  V30 3254 C 298.347 1.37658 -1.47422 0
M  V30 3255 C 298.66 1.95264 -0.114629 0
M  V30 3256 O 299.866 2.71494 -0.0180199 0
M  V30 3257 C 298.322 2.49285 -2.59586 0
M  V30 3258 C 297.93 1.98149 -4.01797 0
M  V30 3259 C 299.674 3.26409 -2.71399 0
M  V30 3260 C 297.581 3.07178 -5.05367 0
M  V30 3261 H 296.511 0.517344 -0.548517 0
M  V30 3262 H 299.162 0.667257 -1.70938 0
M  V30 3263 H 297.544 3.22839 -2.29328 0
M  V30 3264 H 298.718 1.31395 -4.41669 0
M  V30 3265 H 297.033 1.33812 -3.94314 0
M  V30 3266 H 299.63 4.07706 -3.45948 0
M  V30 3267 H 299.973 3.76535 -1.77559 0
M  V30 3268 H 300.506 2.5995 -3.01116 0
M  V30 3269 H 297.245 2.61985 -6.00869 0
M  V30 3270 H 296.765 3.72542 -4.70077 0
M  V30 3271 H 298.444 3.71789 -5.29511 0
M  V30 3272 N 298.576 1.31904 0.862503 0
M  V30 3273 C 299.508 1.16005 1.97675 0
M  V30 3274 C 300.521 0.0971234 1.6251 0
M  V30 3275 O 301.71 0.345337 1.75128 0
M  V30 3276 C 298.81 0.751791 3.30456 0
M  V30 3277 C 297.983 1.90133 3.93914 0
M  V30 3278 C 297.042 1.4779 5.05019 0
M  V30 3279 O 296.068 2.18872 5.25437 0
M  V30 3280 N 297.27 0.369491 5.79323 0
M  V30 3281 H 300.035 2.11982 2.11857 0
M  V30 3282 H 297.596 1.24337 1.03691 0
M  V30 3283 H 299.588 0.451084 4.02178 0
M  V30 3284 H 298.158 -0.116593 3.12382 0
M  V30 3285 H 297.378 2.36896 3.15078 0
M  V30 3286 H 298.666 2.67111 4.33047 0
M  V30 3287 H 298.064 -0.222299 5.65263 0
M  V30 3288 H 296.621 0.128354 6.51674 0
M  V30 3289 N 300.054 -1.07777 1.14986 0
M  V30 3290 C 300.964 -2.18404 0.856546 0
M  V30 3291 C 301.98 -1.73211 -0.165485 0
M  V30 3292 O 303.156 -2.01399 0.00755219 0
M  V30 3293 C 300.221 -3.44977 0.34526 0
M  V30 3294 C 299.282 -4.0476 1.43065 0
M  V30 3295 C 298.515 -5.25291 0.943663 0
M  V30 3296 O 298.738 -5.70004 -0.212426 0
M  V30 3297 O 297.672 -5.76638 1.72547 0
M  V30 3298 H 301.498 -2.45978 1.78125 0
M  V30 3299 H 299.083 -1.17033 0.928631 0
M  V30 3300 H 300.965 -4.21348 0.0663671 0
M  V30 3301 H 299.64 -3.18965 -0.551631 0
M  V30 3302 H 298.547 -3.29949 1.76309 0
M  V30 3303 H 299.88 -4.35035 2.30229 0
M  V30 3304 N 301.532 -0.945985 -1.26051 0
M  V30 3305 C 302.779 -0.596118 -1.93527 0
M  V30 3306 C 303.107 0.865559 -1.74179 0
M  V30 3307 O 302.362 1.63524 -1.0751 0
M  V30 3308 C 302.661 -0.890475 -3.46129 0
M  V30 3309 C 302.327 -2.3368 -3.85622 0
M  V30 3310 C 300.989 -2.73216 -3.96114 0
M  V30 3311 C 303.341 -3.27648 -4.05334 0
M  V30 3312 C 300.669 -4.05806 -4.2372 0
M  V30 3313 C 303.021 -4.59841 -4.3443 0
M  V30 3314 C 301.685 -4.99185 -4.43137 0
M  V30 3315 H 300.955 -0.218135 -0.708165 0
M  V30 3316 H 303.602 -1.1934 -1.49768 0
M  V30 3317 H 301.907 -0.210711 -3.91233 0
M  V30 3318 H 303.604 -0.598478 -3.96509 0
M  V30 3319 H 300.194 -2.02015 -3.78005 0
M  V30 3320 H 304.378 -2.98298 -3.96651 0
M  V30 3321 H 299.634 -4.35945 -4.28675 0
M  V30 3322 H 303.808 -5.32641 -4.48628 0
M  V30 3323 H 301.435 -6.01952 -4.64282 0
M  V30 3324 N 303.011 1.40521 -0.713556 0
M  V30 3325 C 304.26 2.00155 -0.249192 0
M  V30 3326 C 304.573 1.57224 1.16362 0
M  V30 3327 O 305.779 2.09542 1.72639 0
M  V30 3328 C 304.235 3.5773 -0.3946 0
M  V30 3329 C 303.843 4.09635 -1.81392 0
M  V30 3330 C 305.587 4.24499 0.00907364 0
M  V30 3331 C 303.494 5.59707 -1.91003 0
M  V30 3332 H 302.424 0.74868 -0.0894114 0
M  V30 3333 H 305.075 1.60784 -0.884352 0
M  V30 3334 H 303.457 3.94792 0.30911 0
M  V30 3335 H 304.631 3.83955 -2.54785 0
M  V30 3336 H 302.946 3.55456 -2.16888 0
M  V30 3337 H 305.543 5.34683 -0.0420404 0
M  V30 3338 H 305.886 4.02824 1.05065 0
M  V30 3339 H 306.419 3.92536 -0.645007 0
M  V30 3340 H 303.158 5.86234 -2.93275 0
M  V30 3341 H 302.678 5.87258 -1.22019 0
M  V30 3342 H 304.357 6.24776 -1.6812 0
M  V30 3343 N 304.489 0.459591 1.5075 0
M  V30 3344 C 305.399 -0.34613 2.32033 0
M  V30 3345 C 306.415 -1.00686 1.41909 0
M  V30 3346 O 307.591 -0.997361 1.7497 0
M  V30 3347 C 304.656 -1.42029 3.16273 0
M  V30 3348 C 303.717 -0.777362 4.22203 0
M  V30 3349 C 302.95 -1.80034 5.02418 0
M  V30 3350 O 303.173 -3.02544 4.83553 0
M  V30 3351 O 302.107 -1.37853 5.85901 0
M  V30 3352 H 305.933 0.318054 3.0203 0
M  V30 3353 H 303.518 0.221663 1.47746 0
M  V30 3354 H 305.4 -2.04275 3.68578 0
M  V30 3355 H 304.075 -2.06815 2.49016 0
M  V30 3356 H 302.982 -0.116256 3.73919 0
M  V30 3357 H 304.315 -0.172634 4.91897 0
M  V30 3358 N 305.967 -1.56429 0.191757 0
M  V30 3359 C 306.897 -2.21937 -0.725696 0
M  V30 3360 C 307.878 -1.1814 -1.2238 0
M  V30 3361 O 309.063 -1.46636 -1.27325 0
M  V30 3362 C 306.193 -2.87611 -1.94672 0
M  V30 3363 C 305.147 -3.97623 -1.58366 0
M  V30 3364 C 304.473 -4.50446 -2.88102 0
M  V30 3365 C 305.773 -5.16197 -0.796133 0
M  V30 3366 H 307.467 -2.98861 -0.179606 0
M  V30 3367 H 305.013 -1.43749 -0.0849464 0
M  V30 3368 H 306.966 -3.3212 -2.59373 0
M  V30 3369 H 305.69 -2.08087 -2.51728 0
M  V30 3370 H 304.349 -3.53801 -0.960247 0
M  V30 3371 H 303.997 -3.67688 -3.43241 0
M  V30 3372 H 303.697 -5.24675 -2.64556 0
M  V30 3373 H 305.221 -4.97654 -3.53798 0
M  V30 3374 H 306.635 -5.57271 -1.34618 0
M  V30 3375 H 305.032 -5.96471 -0.658928 0
M  V30 3376 H 306.102 -4.84473 0.203478 0
M  V30 3377 N 307.445 0.0818655 -1.57387 0
M  V30 3378 C 308.694 0.781681 -1.85937 0
M  V30 3379 C 309.007 1.79246 -0.782957 0
M  V30 3380 O 310.213 2.54112 -0.955987 0
M  V30 3381 C 308.669 1.44109 -3.29789 0
M  V30 3382 C 308.277 0.469396 -4.45534 0
M  V30 3383 C 310.021 2.12386 -3.67549 0
M  V30 3384 C 307.928 1.13415 -5.80423 0
M  V30 3385 H 306.858 0.295682 -0.693605 0
M  V30 3386 H 309.509 0.0348051 -1.83467 0
M  V30 3387 H 307.891 2.23588 -3.2684 0
M  V30 3388 H 309.065 -0.294856 -4.59856 0
M  V30 3389 H 307.38 -0.108383 -4.16259 0
M  V30 3390 H 309.977 2.62878 -4.65617 0
M  V30 3391 H 310.32 2.91877 -2.96839 0
M  V30 3392 H 310.853 1.39751 -3.72444 0
M  V30 3393 H 307.592 0.379771 -6.54399 0
M  V30 3394 H 307.112 1.8695 -5.69921 0
M  V30 3395 H 308.791 1.65686 -6.25426 0
M  V30 3396 N 308.923 1.53595 0.353017 0
M  V30 3397 C 310.339 1.43648 0.695516 0
M  V30 3398 C 310.539 0.585617 1.92802 0
M  V30 3399 O 309.595 0.0729223 2.52395 0
M  V30 3400 C 310.908 2.8701 0.896991 0
M  V30 3401 C 312.456 2.96723 0.996209 0
M  V30 3402 C 312.931 4.41173 1.23007 0
M  V30 3403 N 314.422 4.44657 1.29749 0
M  V30 3404 C 315.157 5.53547 1.49577 0
M  V30 3405 N 314.653 6.72461 1.66639 0
M  V30 3406 N 316.446 5.41145 1.52048 0
M  V30 3407 H 308.597 2.07415 -0.457481 0
M  V30 3408 H 310.86 0.9372 -0.142687 0
M  V30 3409 H 310.566 3.51644 0.0629938 0
M  V30 3410 H 310.44 3.31401 1.80148 0
M  V30 3411 H 312.827 2.32235 1.82074 0
M  V30 3412 H 312.908 2.55707 0.0688331 0
M  V30 3413 H 312.552 5.06238 0.410505 0
M  V30 3414 H 312.482 4.79772 2.17086 0
M  V30 3415 H 314.973 3.58963 1.18126 0
M  V30 3416 H 315.286 7.51214 1.81378 0
M  V30 3417 H 313.631 6.75423 1.63794 0
M  V30 3418 H 316.822 4.47205 1.38294 0
M  V30 3419 H 316.995 6.26068 1.67159 0
M  V30 3420 N 310.401 -0.613514 1.45168 0
M  V30 3421 C 311.333 -1.73825 1.4939 0
M  V30 3422 C 312.346 -1.58175 0.385304 0
M  V30 3423 O 313.535 -1.66165 0.652036 0
M  V30 3424 C 310.635 -3.11758 1.32891 0
M  V30 3425 C 309.808 -3.53704 2.57317 0
M  V30 3426 C 308.867 -4.70579 2.35462 0
M  V30 3427 O 307.893 -4.77996 3.09044 0
M  V30 3428 N 309.095 -5.63454 1.39644 0
M  V30 3429 H 311.86 -1.70669 2.46358 0
M  V30 3430 H 309.421 -0.79862 1.40832 0
M  V30 3431 H 311.413 -3.87692 1.1609 0
M  V30 3432 H 309.983 -3.09456 0.442218 0
M  V30 3433 H 309.203 -2.67794 2.89275 0
M  V30 3434 H 310.491 -3.78486 3.40038 0
M  V30 3435 H 309.889 -5.6017 0.789062 0
M  V30 3436 H 308.446 -6.38944 1.28816 0
M  V30 3437 N 311.879 -1.3236 -0.855495 0
M  V30 3438 C 312.827 -1.2118 -1.9854 0
M  V30 3439 C 313.821 -0.116788 -1.68997 0
M  V30 3440 O 315.027 -0.279657 -1.77814 0
M  V30 3441 H 311.402 -0.375608 -0.651477 0
M  V30 3442 H 313.373 -2.16743 -2.05098 0
M  V30 3443 C 312.122 -0.950849 -3.34446 0
M  V30 3444 H 311.445 -1.78563 -3.57708 0
M  V30 3445 H 312.885 -0.912863 -4.14057 0
M  V30 3446 C 311.344 0.346404 -3.35114 0
M  V30 3447 O 311.874 1.35855 -3.7803 0
M  V30 3448 N 310.08 0.36808 -2.88259 0
M  V30 3449 H 309.627 -0.456102 -2.5353 0
M  V30 3450 H 309.585 1.23591 -2.89089 0
M  V30 3451 N 313.357 1.07166 -1.15556 0
M  V30 3452 C 314.304 2.14417 -0.854055 0
M  V30 3453 C 315.274 1.64965 0.193806 0
M  V30 3454 O 316.459 1.90703 0.0609443 0
M  V30 3455 C 313.599 3.43304 -0.351574 0
M  V30 3456 C 312.712 4.06537 -1.46123 0
M  V30 3457 C 311.847 5.23266 -0.914677 0
M  V30 3458 C 310.886 5.78464 -2.00114 0
M  V30 3459 N 310.023 6.86521 -1.47083 0
M  V30 3460 H 314.863 2.39548 -1.77259 0
M  V30 3461 H 312.4 1.17543 -0.884425 0
M  V30 3462 H 314.358 4.17179 -0.0419409 0
M  V30 3463 H 312.988 3.18419 0.530037 0
M  V30 3464 H 312.04 3.30297 -1.88701 0
M  V30 3465 H 313.352 4.43567 -2.28144 0
M  V30 3466 H 312.506 6.04131 -0.557698 0
M  V30 3467 H 311.245 4.87658 -0.0636583 0
M  V30 3468 H 310.25 4.96243 -2.36692 0
M  V30 3469 H 311.475 6.16126 -2.85597 0
M  V30 3470 H 309.421 6.52849 -0.642198 0
M  V30 3471 H 309.338 7.22446 -2.22729 0
M  V30 3472 H 310.606 7.71087 -1.14215 0
M  V30 3473 N 314.835 0.952656 1.25548 0
M  V30 3474 C 316.251 0.656769 1.4546 0
M  V30 3475 C 316.451 -0.78633 1.85524 0
M  V30 3476 O 315.507 -1.56183 1.98402 0
M  V30 3477 C 316.82 1.62801 2.52817 0
M  V30 3478 C 318.368 1.63897 2.66659 0
M  V30 3479 C 318.843 2.5978 3.77198 0
M  V30 3480 N 320.334 2.58133 3.84606 0
M  V30 3481 C 321.069 3.29003 4.69621 0
M  V30 3482 N 320.565 4.09339 5.58939 0
M  V30 3483 N 322.358 3.179 4.63569 0
M  V30 3484 H 314.509 1.88526 0.978344 0
M  V30 3485 H 316.772 0.810815 0.491206 0
M  V30 3486 H 316.478 2.65869 2.30232 0
M  V30 3487 H 316.352 1.38898 3.50695 0
M  V30 3488 H 318.739 0.615481 2.8861 0
M  V30 3489 H 318.82 1.91858 1.69187 0
M  V30 3490 H 318.464 3.62254 3.55997 0
M  V30 3491 H 318.394 2.29105 4.7415 0
M  V30 3492 H 320.885 1.99809 3.20757 0
M  V30 3493 H 321.198 4.6034 6.20731 0
M  V30 3494 H 319.543 4.13438 5.58654 0
M  V30 3495 H 322.734 2.54612 3.92798 0
M  V30 3496 H 322.907 3.73398 5.29602 0
M  V30 3497 N 316.313 -1.40141 0.720998 0
M  V30 3498 C 317.243 -2.33339 0.0867621 0
M  V30 3499 C 318.224 -1.53178 -0.739622 0
M  V30 3500 O 319.409 -1.81625 -0.687449 0
M  V30 3501 C 316.539 -3.37194 -0.831728 0
M  V30 3502 C 315.493 -4.27857 -0.110558 0
M  V30 3503 C 314.819 -5.22294 -1.14513 0
M  V30 3504 C 316.119 -5.11872 1.0385 0
M  V30 3505 H 317.813 -2.86626 0.865219 0
M  V30 3506 H 315.359 -1.37814 0.417516 0
M  V30 3507 H 317.312 -4.01335 -1.28485 0
M  V30 3508 H 316.036 -2.82314 -1.64214 0
M  V30 3509 H 314.695 -3.65176 0.322797 0
M  V30 3510 H 314.343 -4.63717 -1.94874 0
M  V30 3511 H 314.043 -5.83797 -0.667446 0
M  V30 3512 H 315.567 -5.89312 -1.59824 0
M  V30 3513 H 316.981 -5.69436 0.664482 0
M  V30 3514 H 315.378 -5.82445 1.4449 0
M  V30 3515 H 316.448 -4.4753 1.86668 0
M  V30 3516 N 317.792 -0.46758 -1.50504 0
M  V30 3517 C 319.069 0.15003 -1.95024 0
M  V30 3518 C 319.449 1.57304 -1.40779 0
M  V30 3519 O 318.797 2.20281 -0.607319 0
M  V30 3520 C 319.007 0.0969324 -3.48865 0
M  V30 3521 C 320.355 0.287565 -4.23625 0
M  V30 3522 O 321.379 0.173678 -3.55776 0
M  V30 3523 O 320.238 0.517186 -5.44047 0
M  V30 3524 H 317.332 0.113582 -0.819163 0
M  V30 3525 H 319.878 -0.52773 -1.61286 0
M  V30 3526 H 318.65 -0.896732 -3.80886 0
M  V30 3527 H 318.273 0.816303 -3.8913 0
M  V30 3528 N 319.27 1.56325 -0.20005 0
M  V30 3529 C 320.233 2.18084 0.705132 0
M  V30 3530 C 321.233 1.13666 1.1374 0
M  V30 3531 O 322.423 1.39023 1.04968 0
M  V30 3532 C 319.555 2.78689 1.96329 0
M  V30 3533 H 320.748 2.99435 0.167023 0
M  V30 3534 H 318.301 1.56221 0.0495725 0
M  V30 3535 H 319.036 2.0115 2.5438 0
M  V30 3536 H 318.821 3.55133 1.66202 0
M  V30 3537 H 320.311 3.26096 2.60866 0
M  V30 3538 N 320.748 -0.0735177 1.57428 0
M  V30 3539 C 321.994 -0.774145 1.87443 0
M  V30 3540 C 322.327 -1.77311 0.792103 0
M  V30 3541 O 321.602 -1.93492 -0.197793 0
M  V30 3542 C 321.885 -1.48367 3.28115 0
M  V30 3543 C 321.738 -0.501227 4.46999 0
M  V30 3544 C 323.057 -2.429 3.66998 0
M  V30 3545 H 320.176 -0.279971 0.681752 0
M  V30 3546 H 322.818 -0.0373616 1.89963 0
M  V30 3547 H 320.968 -2.11171 3.26097 0
M  V30 3548 H 322.64 0.121468 4.6114 0
M  V30 3549 H 320.883 0.183593 4.33411 0
M  V30 3550 H 321.554 -1.03526 5.42205 0
M  V30 3551 H 324.03 -1.90175 3.70098 0
M  V30 3552 H 322.906 -2.89549 4.66318 0
M  V30 3553 H 323.167 -3.27628 2.96837 0
M  V30 3554 N 322.226 -1.5378 -0.344866 0
M  V30 3555 C 323.642 -1.44015 -0.687888 0
M  V30 3556 C 323.842 -0.595834 -1.92489 0
M  V30 3557 O 322.898 -0.0863064 -2.52352 0
M  V30 3558 C 324.211 -2.87481 -0.881758 0
M  V30 3559 C 325.759 -2.97247 -0.980459 0
M  V30 3560 C 326.234 -4.41819 -1.20665 0
M  V30 3561 N 327.725 -4.45339 -1.27389 0
M  V30 3562 C 328.46 -5.54333 -1.46639 0
M  V30 3563 N 327.956 -6.73335 -1.63071 0
M  V30 3564 N 329.749 -5.41944 -1.49176 0
M  V30 3565 H 321.9 -2.07169 0.468475 0
M  V30 3566 H 324.163 -0.93643 0.147655 0
M  V30 3567 H 323.869 -3.51672 -0.0443444 0
M  V30 3568 H 323.743 -3.32352 -1.78388 0
M  V30 3569 H 326.13 -2.33197 -1.8084 0
M  V30 3570 H 326.211 -2.5574 -0.0552713 0
M  V30 3571 H 325.855 -5.06449 -0.383652 0
M  V30 3572 H 325.785 -4.80917 -2.14539 0
M  V30 3573 H 328.276 -3.59585 -1.1622 0
M  V30 3574 H 328.589 -7.52165 -1.77391 0
M  V30 3575 H 326.934 -6.76282 -1.60209 0
M  V30 3576 H 330.125 -4.47932 -1.3592 0
M  V30 3577 H 330.298 -6.26946 -1.63837 0
M  V30 3578 N 323.704 0.605807 -1.45491 0
M  V30 3579 C 324.654 1.71074 -1.50724 0
M  V30 3580 C 325.638 1.5658 -0.37033 0
M  V30 3581 O 326.83 1.65887 -0.617299 0
M  V30 3582 C 323.959 3.0983 -1.47852 0
M  V30 3583 C 323.045 3.29704 -2.66751 0
M  V30 3584 N 323.436 3.19831 -3.91844 0
M  V30 3585 C 321.734 3.60579 -2.62486 0
M  V30 3586 C 322.435 3.41083 -4.71208 0
M  V30 3587 N 321.411 3.65157 -4.02693 0
M  V30 3588 H 325.213 1.61937 -2.45263 0
M  V30 3589 H 322.727 0.80912 -1.40808 0
M  V30 3590 H 324.724 3.89101 -1.49686 0
M  V30 3591 H 323.384 3.20115 -0.543714 0
M  V30 3592 H 324.395 2.98194 -4.23439 0
M  V30 3593 H 321.072 3.7769 -1.77922 0
M  V30 3594 H 322.462 3.38828 -5.80211 0
M  V30 3595 N 325.182 1.32811 0.848464 0
M  V30 3596 C 326.145 1.22194 1.9391 0
M  V30 3597 C 327.145 0.143404 1.60159 0
M  V30 3598 O 328.335 0.394253 1.6968 0
M  V30 3599 C 325.467 0.88067 3.29328 0
M  V30 3600 H 326.66 2.19127 2.04752 0
M  V30 3601 H 324.213 1.16731 1.0394 0
M  V30 3602 H 324.948 -0.0865776 3.24184 0
M  V30 3603 H 324.733 1.66052 3.55203 0
M  V30 3604 H 326.223 0.830871 4.09251 0
M  V30 3605 N 326.66 -1.06551 1.16123 0
M  V30 3606 C 328.076 -1.3142 0.905585 0
M  V30 3607 C 328.276 -1.96571 -0.442964 0
M  V30 3608 O 327.332 -2.23068 -1.18308 0
M  V30 3609 C 328.645 -2.19741 2.05267 0
M  V30 3610 C 330.193 -2.33165 2.08813 0
M  V30 3611 C 330.668 -3.24838 3.22868 0
M  V30 3612 N 332.159 -3.32421 3.22568 0
M  V30 3613 C 332.894 -4.0344 4.0746 0
M  V30 3614 N 332.39 -4.77003 5.02434 0
M  V30 3615 N 334.183 -3.99464 3.95456 0
M  V30 3616 H 326.334 -0.626548 2.02949 0
M  V30 3617 H 328.597 -0.338777 0.8854 0
M  V30 3618 H 328.303 -1.79142 3.02657 0
M  V30 3619 H 328.177 -3.20313 1.99198 0
M  V30 3620 H 330.564 -2.73013 1.12018 0
M  V30 3621 H 330.645 -1.3227 2.18948 0
M  V30 3622 H 330.289 -2.85708 4.19921 0
M  V30 3623 H 330.219 -4.25707 3.0997 0
M  V30 3624 H 332.71 -2.79994 2.53795 0
M  V30 3625 H 333.023 -5.28712 5.63634 0
M  V30 3626 H 331.368 -4.75992 5.06415 0
M  V30 3627 H 334.559 -3.4111 3.20564 0
M  V30 3628 H 334.732 -4.54544 4.61837 0
M  V30 3629 N 328.138 -0.959301 -1.25041 0
M  V30 3630 C 329.085 -0.482057 -2.2571 0
M  V30 3631 C 330.055 0.467939 -1.59372 0
M  V30 3632 O 331.24 0.380159 -1.86974 0
M  V30 3633 C 328.38 0.229623 -3.44335 0
M  V30 3634 C 327.493 -0.758156 -4.25295 0
M  V30 3635 C 326.628 -0.0234403 -5.31195 0
M  V30 3636 C 325.667 -1.00184 -6.03846 0
M  V30 3637 N 324.804 -0.29769 -7.01469 0
M  V30 3638 H 329.644 -1.34538 -2.65901 0
M  V30 3639 H 327.181 -0.674592 -1.3072 0
M  V30 3640 H 329.139 0.658856 -4.11965 0
M  V30 3641 H 327.769 1.05696 -3.05005 0
M  V30 3642 H 326.821 -1.30586 -3.57284 0
M  V30 3643 H 328.133 -1.50458 -4.75567 0
M  V30 3644 H 327.287 0.464201 -6.04922 0
M  V30 3645 H 326.026 0.755741 -4.81809 0
M  V30 3646 H 325.031 -1.50044 -5.2893 0
M  V30 3647 H 326.256 -1.78133 -6.55321 0
M  V30 3648 H 324.202 0.462668 -6.54366 0
M  V30 3649 H 324.119 -0.983128 -7.4958 0
M  V30 3650 H 325.387 0.16826 -7.79318 0
M  V30 3651 N 329.616 1.39756 -0.72842 0
M  V30 3652 C 330.566 2.2792 -0.0603424 0
M  V30 3653 C 331.55 1.43922 0.719399 0
M  V30 3654 O 332.742 1.66895 0.589489 0
M  V30 3655 C 329.871 3.32582 0.851104 0
M  V30 3656 C 328.957 4.24049 0.0658641 0
M  V30 3657 N 329.348 4.96653 -0.957578 0
M  V30 3658 C 327.646 4.45013 0.296509 0
M  V30 3659 C 328.347 5.63836 -1.43052 0
M  V30 3660 N 327.323 5.38397 -0.750315 0
M  V30 3661 H 331.125 2.81504 -0.84455 0
M  V30 3662 H 328.639 1.5236 -0.562155 0
M  V30 3663 H 330.636 3.94603 1.34514 0
M  V30 3664 H 329.296 2.80558 1.63454 0
M  V30 3665 H 330.307 5.00297 -1.33877 0
M  V30 3666 H 326.984 4.03943 1.05527 0
M  V30 3667 H 328.374 6.31974 -2.28163 0
M  V30 3668 N 331.094 0.475555 1.50254 0
M  V30 3669 C 332.341 -0.0778919 2.0235 0
M  V30 3670 C 332.669 -1.39319 1.35722 0
M  V30 3671 O 331.924 -1.89888 0.473395 0
M  V30 3672 C 332.223 -0.305114 3.56095 0
M  V30 3673 C 331.889 0.92903 4.41225 0
M  V30 3674 C 330.551 1.26739 4.6421 0
M  V30 3675 C 332.903 1.75054 4.90923 0
M  V30 3676 C 330.231 2.42724 5.34137 0
M  V30 3677 C 332.583 2.9017 5.62125 0
M  V30 3678 C 331.247 3.24416 5.83362 0
M  V30 3679 H 330.517 -0.0285027 0.740452 0
M  V30 3680 H 333.164 0.630543 1.80821 0
M  V30 3681 H 331.469 -1.09584 3.76163 0
M  V30 3682 H 333.166 -0.747377 3.93974 0
M  V30 3683 H 329.756 0.655428 4.23559 0
M  V30 3684 H 333.94 1.50231 4.73016 0
M  V30 3685 H 329.196 2.69525 5.48786 0
M  V30 3686 H 333.37 3.54169 5.99614 0
M  V30 3687 H 330.997 4.14396 6.37323 0
M  V30 3688 N 332.573 -1.56217 0.208337 0
M  V30 3689 C 333.798 -2.02782 -0.435222 0
M  V30 3690 C 334.223 -1.08738 -1.53485 0
M  V30 3691 O 333.581 -0.0731855 -1.81152 0
M  V30 3692 C 333.629 -3.47687 -0.956335 0
M  V30 3693 O 332.733 -3.56773 -2.06849 0
M  V30 3694 H 332.074 -0.656403 -0.100158 0
M  V30 3695 H 334.604 -2.02033 0.3231 0
M  V30 3696 H 334.614 -3.87745 -1.26955 0
M  V30 3697 H 333.289 -4.15624 -0.15143 0
M  V30 3698 H 331.866 -3.28597 -1.76292 0
M  V30 3699 N 334.051 0.0651679 -1.57465 0
M  V30 3700 C 334.983 1.10359 -2.00882 0
M  V30 3701 C 335.996 1.346 -0.915788 0
M  V30 3702 O 337.185 1.32723 -1.1936 0
M  V30 3703 C 334.285 2.45312 -2.33828 0
M  V30 3704 C 333.458 2.40934 -3.65061 0
M  V30 3705 C 332.517 3.58047 -3.85602 0
M  V30 3706 O 331.543 3.39175 -4.57109 0
M  V30 3707 N 332.745 4.78637 -3.28462 0
M  V30 3708 H 335.51 0.733807 -2.90578 0
M  V30 3709 H 333.071 0.253719 -1.599 0
M  V30 3710 H 335.063 3.22314 -2.44737 0
M  V30 3711 H 333.633 2.74267 -1.49988 0
M  V30 3712 H 332.853 1.49273 -3.64844 0
M  V30 3713 H 334.141 2.35117 -4.51218 0
M  V30 3714 H 333.539 4.96872 -2.70433 0
M  V30 3715 H 332.096 5.53127 -3.44809 0
M  V30 3716 N 335.529 1.53961 0.336706 0
M  V30 3717 C 336.492 1.81724 1.39675 0
M  V30 3718 C 337.492 0.688532 1.45313 0
M  V30 3719 O 338.682 0.956829 1.45569 0
M  V30 3720 C 335.814 1.96543 2.78538 0
M  V30 3721 H 337.007 2.76424 1.16318 0
M  V30 3722 H 334.56 1.45478 0.571474 0
M  V30 3723 H 335.295 1.0401 3.07168 0
M  V30 3724 H 335.08 2.78665 2.75841 0
M  V30 3725 H 336.57 2.19516 3.5525 0
M  V30 3726 N 337.007 -0.598083 1.45811 0
M  V30 3727 C 337.917 -1.73632 1.57763 0
M  V30 3728 C 338.933 -1.67763 0.461676 0
M  V30 3729 O 340.109 -1.87949 0.723685 0
M  V30 3730 C 337.174 -3.10114 1.55018 0
M  V30 3731 C 336.235 -3.27364 2.77726 0
M  V30 3732 C 335.468 -4.57334 2.75102 0
M  V30 3733 O 335.691 -5.40258 1.8297 0
M  V30 3734 O 334.625 -4.77502 3.66437 0
M  V30 3735 H 338.451 -1.66498 2.53992 0
M  V30 3736 H 336.036 -0.763308 1.28429 0
M  V30 3737 H 337.918 -3.9141 1.56129 0
M  V30 3738 H 336.593 -3.17718 0.619431 0
M  V30 3739 H 335.5 -2.45619 2.82174 0
M  V30 3740 H 336.833 -3.24641 3.69958 0
M  V30 3741 N 338.485 -1.33259 -0.841409 0
M  V30 3742 C 339.733 -1.24326 -1.59334 0
M  V30 3743 C 340.054 0.191564 -1.94057 0
M  V30 3744 O 339.324 1.11967 -1.60749 0
M  V30 3745 H 337.904 -0.457174 -0.590763 0
M  V30 3746 H 340.566 -1.66947 -1.00571 0
M  V30 3747 H 339.662 -1.8352 -2.52442 0
M  V30 3748 N 339.963 1.05934 -1.16686 0
M  V30 3749 C 341.188 1.83029 -0.975455 0
M  V30 3750 C 341.613 1.82096 0.471452 0
M  V30 3751 O 340.971 1.22443 1.33706 0
M  V30 3752 C 341.019 3.27372 -1.51195 0
M  V30 3753 O 340.123 4.06054 -0.720701 0
M  V30 3754 H 339.464 0.566194 -0.346872 0
M  V30 3755 H 341.994 1.33541 -1.55009 0
M  V30 3756 H 342.004 3.78186 -1.53099 0
M  V30 3757 H 340.679 3.27366 -2.56523 0
M  V30 3758 H 339.256 3.64812 -0.772458 0
M  V30 3759 N 341.441 0.965919 1.2453 0
M  V30 3760 C 342.373 0.452465 2.2469 0
M  V30 3761 C 343.386 -0.437821 1.56802 0
M  V30 3762 O 344.575 -0.244283 1.76821 0
M  V30 3763 C 341.675 -0.366258 3.36915 0
M  V30 3764 C 340.848 0.513701 4.34373 0
M  V30 3765 C 339.907 -0.248716 5.25612 0
M  V30 3766 O 338.933 0.356745 5.68081 0
M  V30 3767 N 340.135 -1.53877 5.59734 0
M  V30 3768 H 342.9 1.31361 2.69378 0
M  V30 3769 H 340.461 0.837541 1.38553 0
M  V30 3770 H 342.453 -0.884297 3.94921 0
M  V30 3771 H 341.023 -1.12832 2.91526 0
M  V30 3772 H 340.243 1.21273 3.75082 0
M  V30 3773 H 341.531 1.11391 4.96457 0
M  V30 3774 H 340.929 -2.05243 5.27154 0
M  V30 3775 H 339.486 -2.00254 6.20275 0
M  V30 3776 N 342.919 -1.39368 0.735821 0
M  V30 3777 C 343.849 -2.33234 0.111506 0
M  V30 3778 C 344.83 -1.53954 -0.723334 0
M  V30 3779 O 346.015 -1.82344 -0.668147 0
M  V30 3780 C 343.145 -3.38057 -0.795917 0
M  V30 3781 C 342.099 -4.2795 -0.065172 0
M  V30 3782 C 341.425 -5.23479 -1.08967 0
M  V30 3783 C 342.725 -5.10741 1.09273 0
M  V30 3784 H 344.419 -2.85692 0.895571 0
M  V30 3785 H 341.965 -1.37364 0.432109 0
M  V30 3786 H 343.918 -4.02675 -1.24221 0
M  V30 3787 H 342.642 -2.8404 -1.61211 0
M  V30 3788 H 341.301 -3.64813 0.361511 0
M  V30 3789 H 340.949 -4.65758 -1.89944 0
M  V30 3790 H 340.649 -5.84472 -0.605489 0
M  V30 3791 H 342.173 -5.90974 -1.53565 0
M  V30 3792 H 343.587 -5.68699 0.724841 0
M  V30 3793 H 341.984 -5.8088 1.50659 0
M  V30 3794 H 343.054 -4.45525 1.91404 0
M  V30 3795 N 344.397 -0.483516 -1.5 0
M  V30 3796 C 345.674 0.129337 -1.95172 0
M  V30 3797 C 346.054 1.55802 -1.4244 0
M  V30 3798 O 345.402 2.19625 -0.630649 0
M  V30 3799 C 345.612 0.0599251 -3.48949 0
M  V30 3800 C 346.96 0.242617 -4.23906 0
M  V30 3801 O 347.984 0.135933 -3.55941 0
M  V30 3802 O 346.843 0.459454 -5.44565 0
M  V30 3803 H 343.937 0.104887 -0.820322 0
M  V30 3804 H 346.483 -0.544807 -1.60717 0
M  V30 3805 H 345.255 -0.937079 -3.79914 0
M  V30 3806 H 344.878 0.774984 -3.89974 0
M  V30 3807 N 345.875 1.56104 -0.216619 0
M  V30 3808 C 346.785 2.23694 0.706982 0
M  V30 3809 C 347.801 1.24295 1.21765 0
M  V30 3810 O 348.977 1.57094 1.2603 0
M  V30 3811 C 346.042 2.8998 1.90033 0
M  V30 3812 C 345.103 4.04708 1.43213 0
M  V30 3813 C 344.336 4.67824 2.56859 0
M  V30 3814 O 344.559 4.29913 3.74874 0
M  V30 3815 O 343.493 5.56905 2.28343 0
M  V30 3816 H 347.319 3.03272 0.161235 0
M  V30 3817 H 344.904 1.49394 0.0136177 0
M  V30 3818 H 346.786 3.31837 2.59735 0
M  V30 3819 H 345.461 2.13365 2.43428 0
M  V30 3820 H 344.368 3.6743 0.70327 0
M  V30 3821 H 345.701 4.83051 0.944615 0
M  V30 3822 N 347.353 -0.0568162 1.57498 0
M  V30 3823 C 348.599 -0.75422 1.88253 0
M  V30 3824 C 348.932 -1.76461 0.810865 0
M  V30 3825 O 348.207 -1.93691 -0.177259 0
M  V30 3826 C 348.49 -1.44878 3.2967 0
M  V30 3827 C 348.343 -0.453789 4.47505 0
M  V30 3828 C 349.662 -2.38994 3.69554 0
M  V30 3829 H 346.781 -0.272724 0.684683 0
M  V30 3830 H 349.423 -0.0172113 1.89992 0
M  V30 3831 H 347.573 -2.077 3.28318 0
M  V30 3832 H 349.245 0.170371 4.60985 0
M  V30 3833 H 347.488 0.229552 4.33192 0
M  V30 3834 H 348.159 -0.977699 5.43273 0
M  V30 3835 H 350.635 -1.86239 3.72095 0
M  V30 3836 H 349.511 -2.84587 4.69363 0
M  V30 3837 H 349.772 -3.24461 3.00296 0
M  V30 3838 N 348.832 -1.54138 -0.328536 0
M  V30 3839 C 350.248 -1.44736 -0.672574 0
M  V30 3840 C 350.448 -0.616217 -1.91846 0
M  V30 3841 O 349.504 -0.113067 -2.52247 0
M  V30 3842 C 350.817 -2.884 -0.851217 0
M  V30 3843 C 352.365 -2.98271 -0.948877 0
M  V30 3844 C 352.84 -4.43074 -1.15973 0
M  V30 3845 N 354.331 -4.46665 -1.22658 0
M  V30 3846 C 355.066 -5.55857 -1.40751 0
M  V30 3847 N 354.562 -6.75026 -1.5592 0
M  V30 3848 N 356.355 -5.43495 -1.4342 0
M  V30 3849 H 348.506 -2.06661 0.490421 0
M  V30 3850 H 350.769 -0.934812 0.157579 0
M  V30 3851 H 350.475 -3.51699 -0.00704236 0
M  V30 3852 H 350.349 -3.34225 -1.74853 0
M  V30 3853 H 352.736 -2.35102 -1.78356 0
M  V30 3854 H 352.817 -2.55785 -0.0281435 0
M  V30 3855 H 352.461 -5.06827 -0.329915 0
M  V30 3856 H 352.391 -4.83165 -2.09426 0
M  V30 3857 H 354.882 -3.60797 -1.124 0
M  V30 3858 H 355.195 -7.54004 -1.69404 0
M  V30 3859 H 353.54 -6.77944 -1.53027 0
M  V30 3860 H 356.731 -4.49349 -1.31162 0
M  V30 3861 H 356.904 -6.28649 -1.57178 0
M  V30 3862 N 350.31 0.590341 -1.46126 0
M  V30 3863 C 351.242 1.71427 -1.52136 0
M  V30 3864 C 352.255 1.57542 -0.41042 0
M  V30 3865 O 353.444 1.65106 -0.678389 0
M  V30 3866 C 350.544 3.09605 -1.37834 0
M  V30 3867 C 349.717 3.49566 -2.62912 0
M  V30 3868 C 348.776 4.66773 -2.42918 0
M  V30 3869 O 347.802 4.73019 -3.1661 0
M  V30 3870 N 349.004 5.61161 -1.4859 0
M  V30 3871 H 351.769 1.66728 -2.49042 0
M  V30 3872 H 349.33 0.776113 -1.42085 0
M  V30 3873 H 351.322 3.85796 -1.22243 0
M  V30 3874 H 349.892 3.08714 -0.491393 0
M  V30 3875 H 349.112 2.63158 -2.93499 0
M  V30 3876 H 350.4 3.73028 -3.46017 0
M  V30 3877 H 349.798 5.58844 -0.87808 0
M  V30 3878 H 348.355 6.36814 -1.38965 0
M  V30 3879 N 351.788 1.33704 0.83433 0
M  V30 3880 C 352.751 1.24244 1.92603 0
M  V30 3881 C 353.751 0.160383 1.59998 0
M  V30 3882 O 354.941 0.412228 1.69252 0
M  V30 3883 C 352.073 0.91555 3.28376 0
M  V30 3884 H 353.266 2.21287 2.02416 0
M  V30 3885 H 350.819 1.17827 1.02696 0
M  V30 3886 H 351.554 -0.0521886 3.24258 0
M  V30 3887 H 351.339 1.69811 3.53422 0
M  V30 3888 H 352.829 0.874231 4.08347 0
M  V30 3889 N 353.266 -1.05314 1.17247 0
M  V30 3890 C 354.199 -2.12512 0.831507 0
M  V30 3891 C 355.177 -1.61351 -0.201168 0
M  V30 3892 O 356.361 -1.88317 -0.0829831 0
M  V30 3893 C 353.488 -3.37848 0.24015 0
M  V30 3894 C 352.534 -4.07832 1.24801 0
M  V30 3895 S 353.367 -4.56537 2.79882 0
M  V30 3896 C 354.523 -5.85122 2.22223 0
M  V30 3897 H 354.756 -2.41106 1.7394 0
M  V30 3898 H 352.289 -1.17896 0.996988 0
M  V30 3899 H 354.247 -4.10391 -0.0945588 0
M  V30 3900 H 352.908 -3.07392 -0.645668 0
M  V30 3901 H 352.101 -4.97883 0.78287 0
M  V30 3902 H 351.703 -3.41348 1.52831 0
M  V30 3903 H 353.995 -6.58408 1.59703 0
M  V30 3904 H 354.938 -6.36381 3.10523 0
M  V30 3905 H 355.346 -5.39626 1.65722 0
M  V30 3906 N 354.744 -0.972509 -1.24016 0
M  V30 3907 C 355.992 -0.635776 -1.91839 0
M  V30 3908 C 356.313 0.832312 -1.76345 0
M  V30 3909 O 355.583 1.5946 -1.13795 0
M  V30 3910 H 354.163 -0.232157 -0.710009 0
M  V30 3911 H 356.825 -1.23462 -1.50809 0
M  V30 3912 H 355.921 -0.880545 -2.99421 0
M  V30 3913 N 356.222 1.38976 -0.743202 0
M  V30 3914 C 357.155 2.28128 -0.0572165 0
M  V30 3915 C 358.133 1.44827 0.739182 0
M  V30 3916 O 359.317 1.74207 0.720009 0
M  V30 3917 C 356.444 3.25796 0.926001 0
M  V30 3918 C 355.49 4.25947 0.217099 0
M  V30 3919 S 356.323 5.24604 -1.07477 0
M  V30 3920 C 357.479 6.25829 -0.0943545 0
M  V30 3921 H 357.712 2.85961 -0.813246 0
M  V30 3922 H 355.245 1.44822 -0.535341 0
M  V30 3923 H 357.203 3.82583 1.48797 0
M  V30 3924 H 355.864 2.66966 1.65493 0
M  V30 3925 H 355.057 4.94746 0.961372 0
M  V30 3926 H 354.659 3.73002 -0.273059 0
M  V30 3927 H 356.951 6.73411 0.743239 0
M  V30 3928 H 357.894 7.0412 -0.749713 0
M  V30 3929 H 358.302 5.63797 0.281706 0
M  V30 3930 N 357.7 0.491464 1.49741 0
M  V30 3931 C 358.63 -0.28154 2.31796 0
M  V30 3932 C 359.611 -0.971473 1.3963 0
M  V30 3933 O 360.796 -0.964719 1.68543 0
M  V30 3934 C 357.926 -1.35203 3.19902 0
M  V30 3935 C 356.88 -0.782529 4.20786 0
M  V30 3936 C 356.206 -1.95283 4.97764 0
M  V30 3937 C 357.506 0.21999 5.21837 0
M  V30 3938 H 359.2 0.403355 2.96671 0
M  V30 3939 H 356.746 0.195425 1.42668 0
M  V30 3940 H 358.699 -1.90045 3.76113 0
M  V30 3941 H 357.423 -2.06598 2.52953 0
M  V30 3942 H 356.082 -0.255928 3.65706 0
M  V30 3943 H 355.73 -2.65423 4.2727 0
M  V30 3944 H 355.43 -1.57789 5.66018 0
M  V30 3945 H 356.954 -2.50577 5.56816 0
M  V30 3946 H 358.368 -0.23996 5.72798 0
M  V30 3947 H 356.765 0.51026 5.97927 0
M  V30 3948 H 357.835 1.13911 4.7133 0
M  V30 3949 N 359.178 -1.55987 0.224894 0
M  V30 3950 C 360.141 -2.19178 -0.670348 0
M  V30 3951 C 361.141 -1.15461 -1.11917 0
M  V30 3952 O 362.331 -1.40675 -1.02743 0
M  V30 3953 C 359.463 -2.81777 -1.9187 0
M  V30 3954 H 360.656 -2.99662 -0.119364 0
M  V30 3955 H 358.209 -1.5628 -0.0247128 0
M  V30 3956 H 358.944 -2.05172 -2.51147 0
M  V30 3957 H 358.729 -3.57732 -1.60531 0
M  V30 3958 H 360.219 -3.30205 -2.55645 0
M  V30 3959 N 360.656 0.0484629 -1.57525 0
M  V30 3960 C 361.903 0.743125 -1.88372 0
M  V30 3961 C 362.231 1.76383 -0.819715 0
M  V30 3962 O 361.486 1.94855 0.181659 0
M  V30 3963 C 361.785 1.46632 -3.25935 0
M  V30 3964 C 361.451 0.583427 -4.4711 0
M  V30 3965 C 360.113 0.340191 -4.79996 0
M  V30 3966 C 362.465 -0.0273345 -5.21193 0
M  V30 3967 C 359.793 -0.522903 -5.84365 0
M  V30 3968 C 362.145 -0.878017 -6.26477 0
M  V30 3969 C 360.809 -1.1309 -6.5785 0
M  V30 3970 H 360.079 0.271929 -0.689301 0
M  V30 3971 H 362.726 0.00336166 -1.915 0
M  V30 3972 H 361.031 2.2789 -3.18706 0
M  V30 3973 H 362.728 2.00902 -3.47044 0
M  V30 3974 H 359.318 0.783151 -4.21384 0
M  V30 3975 H 363.502 0.147654 -4.9608 0
M  V30 3976 H 358.758 -0.727335 -6.07058 0
M  V30 3977 H 362.932 -1.35789 -6.83033 0
M  V30 3978 H 360.559 -1.80144 -7.38547 0
M  V30 3979 N 362.134 1.5431 0.320358 0
M  V30 3980 C 363.545 1.63872 0.894594 0
M  V30 3981 C 363.896 0.534847 1.88769 0
M  V30 3982 O 363.021 -0.331732 2.13842 0
M  V30 3983 C 363.616 2.97049 1.62934 0
M  V30 3984 C 362.175 3.08796 2.15226 0
M  V30 3985 C 361.322 2.59456 0.978671 0
M  V30 3986 H 364.273 1.58398 0.0978544 0
M  V30 3987 H 364.294 2.87388 2.49376 0
M  V30 3988 H 363.806 3.7737 0.906302 0
M  V30 3989 H 361.907 2.33156 2.90636 0
M  V30 3990 H 362.02 4.14649 2.40006 0
M  V30 3991 H 360.384 2.1543 1.35875 0
M  V30 3992 H 361.167 3.42237 0.269895 0
M  V30 3993 N 363.613 -0.582584 1.46437 0
M  V30 3994 C 365.024 -1.1647 1.45916 0
M  V30 3995 C 365.375 -1.95177 0.200077 0
M  V30 3996 O 364.5 -2.04874 -0.696819 0
M  V30 3997 C 365.095 -2.11885 2.64367 0
M  V30 3998 C 363.654 -2.65421 2.66887 0
M  V30 3999 C 362.801 -1.41294 2.38603 0
M  V30 4000 H 365.752 -0.370514 1.54314 0
M  V30 4001 H 365.773 -2.9535 2.39892 0
M  V30 4002 H 365.285 -1.54573 3.5599 0
M  V30 4003 H 363.386 -3.26602 1.79338 0
M  V30 4004 H 363.499 -3.08147 3.66854 0
M  V30 4005 H 361.863 -1.71109 1.88663 0
M  V30 4006 H 362.646 -0.858125 3.32402 0
M  V30 4007 N 365.091 -1.34144 -0.827227 0
M  V30 4008 C 366.368 -1.16844 -1.56865 0
M  V30 4009 C 366.748 0.260654 -2.09485 0
M  V30 4010 O 366.096 1.26138 -1.9053 0
M  V30 4011 C 366.306 -2.21939 -2.6934 0
M  V30 4012 C 367.654 -2.56695 -3.3822 0
M  V30 4013 O 368.678 -2.20695 -2.79593 0
M  V30 4014 O 367.537 -3.18518 -4.44082 0
M  V30 4015 H 364.631 -0.452669 -0.692112 0
M  V30 4016 H 367.177 -1.45763 -0.868973 0
M  V30 4017 H 365.949 -3.17882 -2.28182 0
M  V30 4018 H 365.572 -1.94172 -3.46962 0
M  V30 4019 N 366.569 1.04691 -1.17803 0
M  V30 4020 C 367.797 1.81446 -0.99423 0
M  V30 4021 C 368.212 1.83174 0.457459 0
M  V30 4022 O 367.569 1.26265 1.31771 0
M  V30 4023 C 367.62 3.27334 -1.5341 0
M  V30 4024 O 367.341 3.25798 -2.92895 0
M  V30 4025 C 368.842 4.20759 -1.39559 0
M  V30 4026 H 366.062 0.571599 -0.351447 0
M  V30 4027 H 368.606 1.31982 -1.56208 0
M  V30 4028 H 366.761 3.74052 -1.00815 0
M  V30 4029 H 367.175 4.17144 -3.17949 0
M  V30 4030 H 368.649 5.21084 -1.82141 0
M  V30 4031 H 369.126 4.37856 -0.343394 0
M  V30 4032 H 369.732 3.79901 -1.91195 0
M  V30 4033 N 368.047 0.979072 1.23499 0
M  V30 4034 C 368.997 0.489378 2.22686 0
M  V30 4035 C 369.981 -0.434871 1.54912 0
M  V30 4036 O 371.173 -0.263941 1.75021 0
M  V30 4037 C 368.302 -0.208178 3.42668 0
M  V30 4038 C 367.388 0.735563 4.17672 0
M  V30 4039 N 367.779 1.87763 4.69658 0
M  V30 4040 C 366.077 0.548625 4.42613 0
M  V30 4041 C 366.778 2.46886 5.26709 0
M  V30 4042 N 365.754 1.75287 5.14563 0
M  V30 4043 H 369.556 1.36062 2.60508 0
M  V30 4044 H 367.07 0.83958 1.39014 0
M  V30 4045 H 369.067 -0.576295 4.12898 0
M  V30 4046 H 367.727 -1.07572 3.06363 0
M  V30 4047 H 368.738 2.25885 4.66043 0
M  V30 4048 H 365.415 -0.274006 4.166 0
M  V30 4049 H 366.805 3.43326 5.77561 0
M  V30 4050 N 369.525 -1.3858 0.750561 0
M  V30 4051 C 370.774 -1.99424 0.302172 0
M  V30 4052 C 371.087 -1.60254 -1.12152 0
M  V30 4053 O 372.293 -2.14046 -1.67023 0
M  V30 4054 C 370.749 -3.56558 0.489307 0
M  V30 4055 C 370.357 -4.04682 1.92189 0
M  V30 4056 C 372.101 -4.24374 0.103478 0
M  V30 4057 C 370.008 -5.54446 2.05775 0
M  V30 4058 H 368.938 -0.746046 0.10923 0
M  V30 4059 H 371.589 -1.58383 0.92667 0
M  V30 4060 H 369.971 -3.95472 -0.204329 0
M  V30 4061 H 371.145 -3.77065 2.64875 0
M  V30 4062 H 369.46 -3.4958 2.26236 0
M  V30 4063 H 372.057 -5.34384 0.183787 0
M  V30 4064 H 372.4 -4.05468 -0.943481 0
M  V30 4065 H 372.933 -3.90688 0.748854 0
M  V30 4066 H 369.672 -5.78252 3.08714 0
M  V30 4067 H 369.192 -5.83816 1.37546 0
M  V30 4068 H 370.871 -6.20099 1.84626 0
M  V30 4069 N 371.003 -0.499398 -1.49478 0
M  V30 4070 C 372.228 0.044722 -2.07352 0
M  V30 4071 C 372.653 1.30207 -1.35749 0
M  V30 4072 O 372.011 1.76516 -0.413732 0
M  V30 4073 C 372.059 0.283013 -3.59488 0
M  V30 4074 O 371.163 1.35804 -3.89398 0
M  V30 4075 H 370.504 -0.0255147 -0.66351 0
M  V30 4076 H 373.034 -0.698561 -1.92305 0
M  V30 4077 H 373.044 0.515007 -4.04737 0
M  V30 4078 H 371.719 -0.635636 -4.11014 0
M  V30 4079 H 370.296 1.11113 -3.55961 0
M  V30 4080 N 372.481 1.55866 -0.233164 0
M  V30 4081 C 373.892 1.847 0.272554 0
M  V30 4082 C 374.243 1.15477 1.58617 0
M  V30 4083 O 373.368 0.42841 2.12117 0
M  V30 4084 C 373.963 3.35071 0.501299 0
M  V30 4085 C 372.522 3.6418 0.951304 0
M  V30 4086 C 371.669 2.77292 0.0208209 0
M  V30 4087 H 374.62 1.52005 -0.456074 0
M  V30 4088 H 374.641 3.55906 1.34577 0
M  V30 4089 H 374.153 3.85424 -0.454936 0
M  V30 4090 H 372.254 3.19293 1.92049 0
M  V30 4091 H 372.367 4.72071 0.817675 0
M  V30 4092 H 370.731 2.49131 0.529723 0
M  V30 4093 H 371.514 3.30448 -0.93054 0
M  V30 4094 N 373.959 -0.0401083 1.57549 0
M  V30 4095 C 375.189 -0.744115 1.92734 0
M  V30 4096 C 375.597 -1.70005 0.830348 0
M  V30 4097 O 374.94 -1.82576 -0.20286 0
M  V30 4098 C 375.002 -1.56516 3.2364 0
M  V30 4099 C 374.666 -0.7752 4.50377 0
M  V30 4100 C 375.663 -0.0803326 5.19838 0
M  V30 4101 C 373.348 -0.733002 4.96923 0
M  V30 4102 C 375.342 0.646154 6.34116 0
M  V30 4103 C 373.029 -0.00276321 6.111 0
M  V30 4104 C 374.027 0.685585 6.7955 0
M  V30 4105 O 373.715 1.40399 7.91545 0
M  V30 4106 H 373.447 -0.214861 0.640945 0
M  V30 4107 H 376.001 -0.00503675 2.05399 0
M  V30 4108 H 374.231 -2.3478 3.07271 0
M  V30 4109 H 375.92 -2.15076 3.44234 0
M  V30 4110 H 376.686 -0.104035 4.84888 0
M  V30 4111 H 372.565 -1.25827 4.43496 0
M  V30 4112 H 376.109 1.18398 6.87479 0
M  V30 4113 H 372.006 0.0229012 6.45496 0
M  V30 4114 H 372.774 1.31653 8.07843 0
M  V30 4115 N 375.437 -1.54477 -0.31217 0
M  V30 4116 C 376.384 -1.84655 -1.38461 0
M  V30 4117 C 377.354 -0.694536 -1.50882 0
M  V30 4118 O 378.539 -0.942081 -1.6592 0
M  V30 4119 C 375.679 -2.0896 -2.74645 0
M  V30 4120 C 374.792 -3.36618 -2.70763 0
M  V30 4121 C 373.927 -3.50824 -3.98868 0
M  V30 4122 C 372.966 -4.72315 -3.89339 0
M  V30 4123 N 372.103 -4.83387 -5.09197 0
M  V30 4124 H 376.943 -2.76142 -1.12026 0
M  V30 4125 H 374.48 -1.36748 -0.542065 0
M  V30 4126 H 376.438 -2.21045 -3.53829 0
M  V30 4127 H 375.068 -1.20752 -2.99364 0
M  V30 4128 H 374.12 -3.33211 -1.83506 0
M  V30 4129 H 375.432 -4.25917 -2.59608 0
M  V30 4130 H 374.586 -3.62513 -4.86486 0
M  V30 4131 H 373.325 -2.59638 -4.12843 0
M  V30 4132 H 372.33 -4.6067 -3.00105 0
M  V30 4133 H 373.555 -5.64897 -3.76919 0
M  V30 4134 H 371.501 -3.9512 -5.23657 0
M  V30 4135 H 371.418 -5.66669 -5.00422 0
M  V30 4136 H 372.686 -4.9942 -5.98498 0
M  V30 4137 N 376.915 0.57481 -1.46744 0
M  V30 4138 C 378.192 1.3352 -1.4294 0
M  V30 4139 C 378.572 2.10775 -0.117009 0
M  V30 4140 O 377.92 2.09966 0.901474 0
M  V30 4141 C 378.13 2.25456 -2.66403 0
M  V30 4142 C 379.478 2.87035 -3.12883 0
M  V30 4143 O 380.502 2.35766 -2.67007 0
M  V30 4144 O 379.361 3.80179 -3.92589 0
M  V30 4145 H 376.455 0.600318 -0.568812 0
M  V30 4146 H 379.001 0.595171 -1.58921 0
M  V30 4147 H 377.773 1.67851 -3.53471 0
M  V30 4148 H 377.396 3.06785 -2.52921 0
M  V30 4149 N 378.394 1.34581 0.820102 0
M  V30 4150 C 379.324 1.29038 1.94606 0
M  V30 4151 C 380.305 0.1673 1.69275 0
M  V30 4152 O 381.49 0.360112 1.90832 0
M  V30 4153 C 378.62 1.04793 3.31113 0
M  V30 4154 C 377.574 2.13597 3.70891 0
M  V30 4155 C 376.9 1.74537 5.05412 0
M  V30 4156 C 378.2 3.55451 3.8269 0
M  V30 4157 H 379.894 2.23248 1.99501 0
M  V30 4158 H 377.44 1.0747 0.958449 0
M  V30 4159 H 379.393 0.995592 4.0947 0
M  V30 4160 H 378.117 0.0702565 3.26524 0
M  V30 4161 H 376.776 2.17905 2.9481 0
M  V30 4162 H 376.424 0.754226 4.97313 0
M  V30 4163 H 376.124 2.47361 5.32997 0
M  V30 4164 H 377.648 1.70803 5.86224 0
M  V30 4165 H 379.062 3.5354 4.51312 0
M  V30 4166 H 377.459 4.26922 4.21732 0
M  V30 4167 H 378.529 3.92587 2.84611 0
M  V30 4168 N 379.872 -1.04064 1.18357 0
M  V30 4169 C 380.802 -2.14001 0.934113 0
M  V30 4170 C 381.783 -1.69616 -0.128186 0
M  V30 4171 O 382.968 -1.94185 0.0244093 0
M  V30 4172 C 380.098 -3.44253 0.459066 0
M  V30 4173 C 379.052 -4.02261 1.46185 0
M  V30 4174 C 378.378 -5.27992 0.844322 0
M  V30 4175 C 379.678 -4.38432 2.83856 0
M  V30 4176 H 381.372 -2.35127 1.85352 0
M  V30 4177 H 378.918 -1.12998 0.892604 0
M  V30 4178 H 380.871 -4.20522 0.271907 0
M  V30 4179 H 379.595 -3.22813 -0.495912 0
M  V30 4180 H 378.254 -3.28074 1.63595 0
M  V30 4181 H 377.902 -5.02862 -0.117845 0
M  V30 4182 H 377.602 -5.67765 1.51384 0
M  V30 4183 H 379.126 -6.06938 0.667693 0
M  V30 4184 H 380.54 -5.05688 2.70098 0
M  V30 4185 H 378.937 -4.89254 3.47491 0
M  V30 4186 H 380.007 -3.4826 3.37406 0
M  V30 4187 N 381.35 -0.985608 -1.22978 0
M  V30 4188 C 382.627 -0.573599 -1.87001 0
M  V30 4189 C 383.007 0.949213 -1.88555 0
M  V30 4190 O 382.355 1.82811 -1.37086 0
M  V30 4191 C 382.565 -1.18564 -3.28243 0
M  V30 4192 C 383.913 -1.28163 -4.04796 0
M  V30 4193 O 384.937 -1.13949 -3.37482 0
M  V30 4194 O 383.796 -1.50832 -5.25273 0
M  V30 4195 H 380.89 -0.193868 -0.803955 0
M  V30 4196 H 383.436 -1.08102 -1.30813 0
M  V30 4197 H 382.208 -2.22758 -3.21706 0
M  V30 4198 H 381.831 -0.663363 -3.92027 0
M  V30 4199 N 382.828 1.3818 -0.7579 0
M  V30 4200 C 384.239 1.82726 -0.383134 0
M  V30 4201 C 384.59 1.63214 1.08884 0
M  V30 4202 O 383.715 1.13566 1.84205 0
M  V30 4203 C 384.31 3.31728 -0.688631 0
M  V30 4204 C 382.869 3.74606 -0.367091 0
M  V30 4205 C 382.016 2.60896 -0.939599 0
M  V30 4206 H 384.967 1.26847 -0.953699 0
M  V30 4207 H 384.988 3.80487 0.0316492 0
M  V30 4208 H 384.5 3.45898 -1.76001 0
M  V30 4209 H 382.601 3.66013 0.697532 0
M  V30 4210 H 382.714 4.71215 -0.865658 0
M  V30 4211 H 381.078 2.52075 -0.3647 0
M  V30 4212 H 381.861 2.77864 -2.0161 0
M  V30 4213 N 384.306 0.507319 1.49211 0
M  V30 4214 C 385.269 -0.256763 2.27757 0
M  V30 4215 C 386.269 -0.888287 1.34038 0
M  V30 4216 O 387.459 -0.751841 1.5714 0
M  V30 4217 C 384.591 -1.36905 3.12202 0
M  V30 4218 H 385.784 0.432557 2.96764 0
M  V30 4219 H 383.337 0.262488 1.5408 0
M  V30 4220 H 384.072 -2.09233 2.47775 0
M  V30 4221 H 383.857 -0.921599 3.81115 0
M  V30 4222 H 385.347 -1.9071 3.7151 0
M  V30 4223 N 385.784 -1.5574 0.241426 0
M  V30 4224 C 387.2 -1.59196 -0.113548 0
M  V30 4225 C 387.4 -1.25852 -1.57364 0
M  V30 4226 O 386.456 -1.00322 -2.31715 0
M  V30 4227 C 387.769 -2.99814 0.230695 0
M  V30 4228 C 389.317 -3.12513 0.174547 0
M  V30 4229 C 389.792 -4.55342 0.492744 0
M  V30 4230 N 391.283 -4.61076 0.443043 0
M  V30 4231 C 392.018 -5.6956 0.662484 0
M  V30 4232 N 391.514 -6.86328 0.944761 0
M  V30 4233 N 393.307 -5.58957 0.593564 0
M  V30 4234 H 385.458 -1.75685 1.19368 0
M  V30 4235 H 387.721 -0.81756 0.479896 0
M  V30 4236 H 387.427 -3.28932 1.24485 0
M  V30 4237 H 387.301 -3.74568 -0.444833 0
M  V30 4238 H 389.688 -2.83179 -0.830277 0
M  V30 4239 H 389.769 -2.40045 0.883845 0
M  V30 4240 H 389.413 -4.85396 1.4951 0
M  V30 4241 H 389.343 -5.26062 -0.23797 0
M  V30 4242 H 391.834 -3.77179 0.233374 0
M  V30 4243 H 392.147 -7.64935 1.09977 0
M  V30 4244 H 390.492 -6.88025 0.982175 0
M  V30 4245 H 393.683 -4.66611 0.373123 0
M  V30 4246 H 393.856 -6.43433 0.767981 0
M  V30 4247 N 387.262 0.0317525 -1.57568 0
M  V30 4248 C 388.508 0.718712 -1.90279 0
M  V30 4249 C 388.863 1.73108 -0.839727 0
M  V30 4250 O 388.156 1.90997 0.15188 0
M  V30 4251 C 388.35 1.43167 -3.27472 0
M  V30 4252 C 388.179 0.489869 -4.47024 0
M  V30 4253 C 386.949 0.111909 -5.05176 0
M  V30 4254 C 389.147 -0.230592 -5.13783 0
M  V30 4255 N 387.129 -0.831427 -6.08244 0
M  V30 4256 C 388.5 -1.02968 -6.1139 0
M  V30 4257 C 390.555 -0.297821 -4.97008 0
M  V30 4258 C 389.258 -1.88982 -6.9403 0
M  V30 4259 C 391.284 -1.14507 -5.80209 0
M  V30 4260 C 390.646 -1.9321 -6.77384 0
M  V30 4261 H 386.745 0.237177 -0.745165 0
M  V30 4262 H 389.329 -0.0211267 -1.94689 0
M  V30 4263 H 387.5 2.14199 -3.23996 0
M  V30 4264 H 389.232 2.0708 -3.47707 0
M  V30 4265 H 385.987 0.473513 -4.71227 0
M  V30 4266 H 386.411 -1.29752 -6.6445 0
M  V30 4267 H 391.053 0.296346 -4.2176 0
M  V30 4268 H 388.771 -2.4948 -7.68626 0
M  V30 4269 H 392.357 -1.20059 -5.69278 0
M  V30 4270 H 391.237 -2.57711 -7.40645 0
M  V30 4271 N 388.74 1.54641 0.303973 0
M  V30 4272 C 390.156 1.45788 0.649463 0
M  V30 4273 C 390.356 0.64666 1.90842 0
M  V30 4274 O 389.412 0.153183 2.52035 0
M  V30 4275 C 390.725 2.89718 0.805227 0
M  V30 4276 C 392.273 2.99742 0.901305 0
M  V30 4277 C 392.748 4.44863 1.08909 0
M  V30 4278 N 394.239 4.48559 1.15536 0
M  V30 4279 C 394.974 5.58026 1.3189 0
M  V30 4280 N 394.47 6.77422 1.45161 0
M  V30 4281 N 396.263 5.45708 1.34755 0
M  V30 4282 H 388.414 2.05854 -0.523237 0
M  V30 4283 H 390.677 0.932186 -0.172431 0
M  V30 4284 H 390.383 3.51666 -0.0489108 0
M  V30 4285 H 390.257 3.36964 1.69513 0
M  V30 4286 H 392.644 2.3791 1.74593 0
M  V30 4287 H 392.725 2.55797 -0.0125531 0
M  V30 4288 H 392.369 5.07288 0.249241 0
M  V30 4289 H 392.299 4.86436 2.01713 0
M  V30 4290 H 394.79 3.6254 1.06646 0
M  V30 4291 H 395.103 7.56604 1.57387 0
M  V30 4292 H 393.448 6.80292 1.42223 0
M  V30 4293 H 396.639 4.51378 1.23996 0
M  V30 4294 H 396.812 6.3107 1.47157 0
M  V30 4295 N 390.218 -0.567019 1.47046 0
M  V30 4296 C 391.151 -1.69016 1.53326 0
M  V30 4297 C 392.129 -1.57949 0.386126 0
M  V30 4298 O 393.313 -1.78945 0.592529 0
M  V30 4299 C 390.44 -3.07191 1.42658 0
M  V30 4300 C 389.486 -3.36733 2.6175 0
M  V30 4301 S 390.319 -3.27069 4.24012 0
M  V30 4302 C 391.475 -4.67755 4.1588 0
M  V30 4303 H 391.708 -1.63434 2.48348 0
M  V30 4304 H 389.241 -0.747048 1.35124 0
M  V30 4305 H 391.199 -3.86897 1.37191 0
M  V30 4306 H 389.86 -3.10249 0.490369 0
M  V30 4307 H 389.053 -4.37441 2.50323 0
M  V30 4308 H 388.655 -2.64627 2.64289 0
M  V30 4309 H 390.947 -5.58491 3.83529 0
M  V30 4310 H 391.89 -4.84239 5.16641 0
M  V30 4311 H 392.298 -4.45341 3.46889 0
M  V30 4312 N 391.696 -1.35014 -0.812953 0
M  V30 4313 C 392.626 -1.30069 -1.93919 0
M  V30 4314 C 393.607 -0.176275 -1.69184 0
M  V30 4315 O 394.792 -0.370227 -1.90638 0
M  V30 4316 C 391.922 -1.06547 -3.30552 0
M  V30 4317 C 390.876 -2.15561 -3.69753 0
M  V30 4318 C 390.202 -1.77214 -5.04479 0
M  V30 4319 C 391.502 -3.57476 -3.808 0
M  V30 4320 H 393.196 -2.24303 -1.98314 0
M  V30 4321 H 390.742 -1.07977 -0.952736 0
M  V30 4322 H 392.695 -1.01729 -4.08937 0
M  V30 4323 H 391.419 -0.0875719 -3.26483 0
M  V30 4324 H 390.078 -2.19466 -2.9365 0
M  V30 4325 H 389.726 -0.780589 -4.96906 0
M  V30 4326 H 389.426 -2.50184 -5.31678 0
M  V30 4327 H 390.95 -1.7391 -5.8531 0
M  V30 4328 H 392.364 -3.55929 -4.4943 0
M  V30 4329 H 390.761 -4.29152 -4.19462 0
M  V30 4330 H 391.831 -3.94091 -2.82525 0
M  V30 4331 N 393.175 1.03435 -1.18907 0
M  V30 4332 C 394.424 1.76143 -0.982669 0
M  V30 4333 C 394.737 1.89416 0.487953 0
M  V30 4334 O 395.943 2.59041 0.813036 0
M  V30 4335 C 394.399 3.16722 -1.70924 0
M  V30 4336 C 394.007 3.11522 -3.21959 0
M  V30 4337 C 395.751 3.93764 -1.58588 0
M  V30 4338 C 393.658 4.46999 -3.87228 0
M  V30 4339 H 392.588 0.660292 -0.364047 0
M  V30 4340 H 395.239 1.158 -1.42347 0
M  V30 4341 H 393.621 3.775 -1.19623 0
M  V30 4342 H 394.795 2.60158 -3.80335 0
M  V30 4343 H 393.11 2.47978 -3.34508 0
M  V30 4344 H 395.707 4.93963 -2.04707 0
M  V30 4345 H 396.05 4.12794 -0.539142 0
M  V30 4346 H 396.583 3.39576 -2.07203 0
M  V30 4347 H 393.322 4.33174 -4.91976 0
M  V30 4348 H 392.842 4.98441 -3.33642 0
M  V30 4349 H 394.521 5.15898 -3.90459 0
M  V30 4350 N 394.653 0.992116 1.22453 0
M  V30 4351 C 395.585 0.500024 2.23679 0
M  V30 4352 C 396.598 -0.404463 1.57696 0
M  V30 4353 O 397.787 -0.206722 1.77299 0
M  V30 4354 C 394.887 -0.294711 3.37616 0
M  V30 4355 C 394.06 0.605723 4.33186 0
M  V30 4356 C 393.119 -0.13717 5.26021 0
M  V30 4357 O 392.145 0.477164 5.67196 0
M  V30 4358 N 393.347 -1.4197 5.62872 0
M  V30 4359 H 396.112 1.37045 2.66531 0
M  V30 4360 H 393.673 0.866741 1.36745 0
M  V30 4361 H 395.665 -0.800329 3.96707 0
M  V30 4362 H 394.235 -1.06623 2.93854 0
M  V30 4363 H 393.455 1.29202 3.72425 0
M  V30 4364 H 394.743 1.21896 4.93983 0
M  V30 4365 H 394.141 -1.94015 5.31389 0
M  V30 4366 H 392.698 -1.87052 6.24383 0
M  V30 4367 N 396.131 -1.37776 0.765217 0
M  V30 4368 C 397.063 -2.28958 0.105361 0
M  V30 4369 C 398.076 -1.48316 -0.67128 0
M  V30 4370 O 399.265 -1.71046 -0.51045 0
M  V30 4371 C 396.365 -3.27421 -0.874569 0
M  V30 4372 C 395.538 -4.37132 -0.153123 0
M  V30 4373 C 394.597 -5.1571 -1.04547 0
M  V30 4374 O 393.623 -5.66896 -0.511672 0
M  V30 4375 N 394.825 -5.29808 -2.37243 0
M  V30 4376 H 397.59 -2.86227 0.888495 0
M  V30 4377 H 395.151 -1.49682 0.617 0
M  V30 4378 H 397.143 -3.7687 -1.47483 0
M  V30 4379 H 395.713 -2.70967 -1.55871 0
M  V30 4380 H 394.933 -3.89166 0.627975 0
M  V30 4381 H 396.221 -5.07625 0.345643 0
M  V30 4382 H 395.619 -4.89793 -2.83054 0
M  V30 4383 H 394.176 -5.82589 -2.9229 0
M  V30 4384 N 397.609 -0.515225 -1.4894 0
M  V30 4385 C 398.856 0.024215 -2.02486 0
M  V30 4386 C 399.184 1.35671 -1.39368 0
M  V30 4387 O 398.439 1.88566 -0.523574 0
M  V30 4388 C 398.738 0.210595 -3.56779 0
M  V30 4389 C 398.404 -1.04569 -4.38607 0
M  V30 4390 C 397.066 -1.39002 -4.60686 0
M  V30 4391 C 399.418 -1.88008 -4.86109 0
M  V30 4392 C 396.746 -2.568 -5.27514 0
M  V30 4393 C 399.098 -3.04972 -5.54234 0
M  V30 4394 C 397.762 -3.39768 -5.74555 0
M  V30 4395 H 397.032 0.00886088 -0.740947 0
M  V30 4396 H 399.679 -0.678263 -1.79086 0
M  V30 4397 H 397.984 0.99572 -3.78936 0
M  V30 4398 H 399.681 0.642659 -3.95817 0
M  V30 4399 H 396.271 -0.767497 -4.21672 0
M  V30 4400 H 400.455 -1.62719 -4.68867 0
M  V30 4401 H 395.711 -2.8398 -5.41447 0
M  V30 4402 H 399.885 -3.69943 -5.90013 0
M  V30 4403 H 397.512 -4.31148 -6.26112 0
M  V30 4404 N 399.087 1.5561 -0.249682 0
M  V30 4405 C 400.503 1.59254 0.105103 0
M  V30 4406 C 400.703 1.26685 1.56694 0
M  V30 4407 O 399.759 1.0155 2.31179 0
M  V30 4408 C 401.072 2.99687 -0.246592 0
M  V30 4409 C 402.62 3.12416 -0.191118 0
M  V30 4410 C 403.095 4.55074 -0.516885 0
M  V30 4411 N 404.586 4.60835 -0.467489 0
M  V30 4412 C 405.321 5.69201 -0.69268 0
M  V30 4413 N 404.817 6.85817 -0.981146 0
M  V30 4414 N 406.61 5.58635 -0.623198 0
M  V30 4415 H 398.761 1.75049 -1.20298 0
M  V30 4416 H 401.024 0.815003 -0.484225 0
M  V30 4417 H 400.73 3.28267 -1.26228 0
M  V30 4418 H 400.604 3.74798 0.424962 0
M  V30 4419 H 402.991 2.83615 0.815247 0
M  V30 4420 H 403.072 2.39573 -0.896563 0
M  V30 4421 H 402.716 4.84596 -1.52082 0
M  V30 4422 H 402.646 5.26181 0.210068 0
M  V30 4423 H 405.137 3.7705 -0.253373 0
M  V30 4424 H 405.45 7.64341 -1.14032 0
M  V30 4425 H 403.795 6.87494 -1.01865 0
M  V30 4426 H 406.986 4.66406 -0.397863 0
M  V30 4427 H 407.159 6.43017 -0.802093 0
M  V30 4428 N 400.565 -0.0233959 1.57583 0
M  V30 4429 C 401.795 -0.723631 1.93513 0
M  V30 4430 C 402.203 -1.69115 0.848333 0
M  V30 4431 O 401.546 -1.82781 -0.183484 0
M  V30 4432 C 401.608 -1.53075 3.25282 0
M  V30 4433 C 401.272 -0.727388 4.51174 0
M  V30 4434 C 402.269 -0.0251924 5.19894 0
M  V30 4435 C 399.954 -0.680256 4.97672 0
M  V30 4436 C 401.948 0.713374 6.33395 0
M  V30 4437 C 399.635 0.0620523 6.11068 0
M  V30 4438 C 400.633 0.757622 6.78785 0
M  V30 4439 O 400.321 1.48787 7.90011 0
M  V30 4440 H 400.053 -0.208051 0.643188 0
M  V30 4441 H 402.607 0.0167489 2.05393 0
M  V30 4442 H 400.837 -2.31508 3.09744 0
M  V30 4443 H 402.526 -2.11413 3.46496 0
M  V30 4444 H 403.292 -0.0526003 4.84971 0
M  V30 4445 H 399.171 -1.21116 4.44805 0
M  V30 4446 H 402.715 1.25683 6.86185 0
M  V30 4447 H 398.612 0.0913634 6.45435 0
M  V30 4448 H 399.38 1.40213 8.06401 0
M  V30 4449 N 402.043 -1.548 -0.295768 0
M  V30 4450 C 403.32 -1.65014 -1.05023 0
M  V30 4451 C 403.7 -0.501805 -2.05049 0
M  V30 4452 O 403.048 0.500869 -2.22943 0
M  V30 4453 C 403.258 -3.03252 -1.72741 0
M  V30 4454 C 404.606 -3.60242 -2.24746 0
M  V30 4455 O 405.63 -3.05737 -1.82765 0
M  V30 4456 O 404.489 -4.55687 -3.01681 0
M  V30 4457 H 401.583 -0.669314 -0.485744 0
M  V30 4458 H 404.129 -1.67144 -0.293438 0
M  V30 4459 H 402.901 -3.7827 -1.00138 0
M  V30 4460 H 402.524 -3.04922 -2.55163 0
M  V30 4461 N 403.521 0.559213 -1.47345 0
M  V30 4462 C 404.469 1.68747 -1.60085 0
M  V30 4463 C 405.463 1.628 -0.46825 0
M  V30 4464 O 406.669 1.68009 -0.645977 0
M  V30 4465 H 403.044 0.558329 -0.503759 0
M  V30 4466 H 405.015 1.55138 -2.54902 0
M  V30 4467 C 403.764 3.07103 -1.63042 0
M  V30 4468 H 403.087 3.12361 -2.49541 0
M  V30 4469 H 404.527 3.85743 -1.76006 0
M  V30 4470 C 402.986 3.34935 -0.363357 0
M  V30 4471 O 403.516 3.98102 0.536416 0
M  V30 4472 N 401.722 2.89574 -0.244 0
M  V30 4473 H 401.269 2.38348 -0.977133 0
M  V30 4474 H 401.227 3.08566 0.602836 0
M  V30 4475 N 404.999 1.35443 0.805782 0
M  V30 4476 C 406.229 1.31687 1.59192 0
M  V30 4477 C 406.637 -0.10756 1.88894 0
M  V30 4478 O 405.98 -1.07017 1.49309 0
M  V30 4479 C 406.042 2.05686 2.94845 0
M  V30 4480 C 405.706 3.54868 2.87954 0
M  V30 4481 C 406.703 4.49444 2.61335 0
M  V30 4482 C 404.388 3.97528 3.07046 0
M  V30 4483 C 406.382 5.84655 2.53885 0
M  V30 4484 C 404.069 5.32833 2.99219 0
M  V30 4485 C 405.067 6.26209 2.72674 0
M  V30 4486 O 404.755 7.59032 2.64811 0
M  V30 4487 H 404.487 0.453878 0.50097 0
M  V30 4488 H 407.041 1.78892 1.0093 0
M  V30 4489 H 405.271 1.5312 3.55093 0
M  V30 4490 H 406.96 1.94998 3.55993 0
M  V30 4491 H 407.726 4.17804 2.46303 0
M  V30 4492 H 403.605 3.25233 3.26718 0
M  V30 4493 H 407.149 6.57508 2.33086 0
M  V30 4494 H 403.046 5.64087 3.13809 0
M  V30 4495 H 403.814 7.68967 2.80413 0
M  V30 4496 N 406.477 -1.02803 1.19454 0
M  V30 4497 C 407.893 -1.28473 0.946937 0
M  V30 4498 C 408.093 -1.97881 -0.380202 0
M  V30 4499 O 407.149 -2.26719 -1.11151 0
M  V30 4500 C 408.462 -2.13099 2.12154 0
M  V30 4501 C 410.01 -2.26404 2.16126 0
M  V30 4502 C 410.485 -3.14402 3.33039 0
M  V30 4503 N 411.976 -3.21991 3.32981 0
M  V30 4504 C 412.711 -3.90272 4.20089 0
M  V30 4505 N 412.207 -4.60777 5.17355 0
M  V30 4506 N 414 -3.8668 4.07964 0
M  V30 4507 H 406.151 -0.561665 2.04839 0
M  V30 4508 H 408.414 -0.310438 0.89573 0
M  V30 4509 H 408.12 -1.69422 3.08203 0
M  V30 4510 H 407.994 -3.13813 2.09287 0
M  V30 4511 H 410.381 -2.69311 1.20647 0
M  V30 4512 H 410.462 -1.25237 2.23045 0
M  V30 4513 H 410.106 -2.72204 4.28798 0
M  V30 4514 H 410.036 -4.1563 3.23356 0
M  V30 4515 H 412.527 -2.71778 2.62574 0
M  V30 4516 H 412.84 -5.10513 5.80169 0
M  V30 4517 H 411.185 -4.5964 5.21302 0
M  V30 4518 H 414.376 -3.30739 3.31254 0
M  V30 4519 H 414.549 -4.39621 4.76064 0
M  V30 4520 N 407.956 -0.998596 -1.21925 0
M  V30 4521 C 408.886 -0.573688 -2.26343 0
M  V30 4522 C 409.867 0.402296 -1.65274 0
M  V30 4523 O 411.052 0.291683 -1.91997 0
M  V30 4524 C 408.182 0.106839 -3.47136 0
M  V30 4525 C 407.136 -0.788269 -4.20678 0
M  V30 4526 C 406.462 0.0254927 -5.34694 0
M  V30 4527 C 407.762 -2.08784 -4.78755 0
M  V30 4528 H 409.456 -1.44651 -2.62138 0
M  V30 4529 H 407.002 -0.696975 -1.26009 0
M  V30 4530 H 408.955 0.415531 -4.19346 0
M  V30 4531 H 407.679 1.01424 -3.10452 0
M  V30 4532 H 406.338 -1.08069 -3.50309 0
M  V30 4533 H 405.986 0.933989 -4.94253 0
M  V30 4534 H 405.686 -0.570437 -5.84825 0
M  V30 4535 H 407.21 0.328147 -6.09718 0
M  V30 4536 H 408.624 -1.84272 -5.42878 0
M  V30 4537 H 407.021 -2.63307 -5.39249 0
M  V30 4538 H 408.091 -2.76284 -3.98491 0
M  V30 4539 N 409.434 1.37368 -0.772513 0
M  V30 4540 C 410.384 2.27613 -0.132823 0
M  V30 4541 C 411.368 1.46138 0.673247 0
M  V30 4542 O 412.56 1.68686 0.536095 0
M  V30 4543 C 409.689 3.35122 0.744864 0
M  V30 4544 C 408.775 4.24044 -0.0690771 0
M  V30 4545 N 409.166 4.93355 -1.1151 0
M  V30 4546 C 407.464 4.45731 0.154782 0
M  V30 4547 C 408.165 5.59 -1.60917 0
M  V30 4548 N 407.141 5.35737 -0.921222 0
M  V30 4549 H 410.943 2.78675 -0.933681 0
M  V30 4550 H 408.457 1.50494 -0.610342 0
M  V30 4551 H 410.454 3.98683 1.21892 0
M  V30 4552 H 409.114 2.85616 1.54446 0
M  V30 4553 H 410.125 4.95785 -1.49726 0
M  V30 4554 H 406.802 4.07096 0.926224 0
M  V30 4555 H 408.192 6.24395 -2.48153 0
M  V30 4556 N 410.912 0.523116 1.48665 0
M  V30 4557 C 411.844 -0.280421 2.27478 0
M  V30 4558 C 412.857 -0.910694 1.34945 0
M  V30 4559 O 414.046 -0.790295 1.60052 0
M  V30 4560 C 411.146 -1.41171 3.08097 0
M  V30 4561 C 410.319 -0.884642 4.28361 0
M  V30 4562 C 409.378 -1.89622 4.90846 0
M  V30 4563 O 408.404 -1.4559 5.50265 0
M  V30 4564 N 409.606 -3.22801 4.82472 0
M  V30 4565 H 412.371 0.395481 2.97079 0
M  V30 4566 H 409.932 0.357018 1.57915 0
M  V30 4567 H 411.924 -2.08645 3.4677 0
M  V30 4568 H 410.494 -1.99139 2.40961 0
M  V30 4569 H 409.714 -0.0341177 3.94185 0
M  V30 4570 H 411.002 -0.511268 5.06225 0
M  V30 4571 H 410.4 -3.61246 4.35336 0
M  V30 4572 H 408.957 -3.85927 5.25265 0
M  V30 4573 N 412.39 -1.55475 0.257931 0
M  V30 4574 C 413.32 -2.24815 -0.630912 0
M  V30 4575 C 414.301 -1.23224 -1.17259 0
M  V30 4576 O 415.486 -1.51904 -1.20991 0
M  V30 4577 C 412.616 -2.95609 -1.82298 0
M  V30 4578 C 411.57 -4.03982 -1.41359 0
M  V30 4579 C 410.896 -4.6226 -2.68738 0
M  V30 4580 C 412.196 -5.19109 -0.57648 0
M  V30 4581 H 413.89 -2.99354 -0.0526878 0
M  V30 4582 H 411.436 -1.4398 -0.023901 0
M  V30 4583 H 413.389 -3.42822 -2.45054 0
M  V30 4584 H 412.113 -2.18577 -2.42676 0
M  V30 4585 H 410.772 -3.57555 -0.809324 0
M  V30 4586 H 410.42 -3.81915 -3.27338 0
M  V30 4587 H 410.12 -5.35424 -2.42065 0
M  V30 4588 H 411.644 -5.12212 -3.32372 0
M  V30 4589 H 413.058 -5.62479 -1.10861 0
M  V30 4590 H 411.455 -5.98729 -0.405351 0
M  V30 4591 H 412.525 -4.83174 0.408776 0
M  V30 4592 N 413.868 0.0150385 -1.57593 0
M  V30 4593 C 415.116 0.701613 -1.8953 0
M  V30 4594 C 415.437 1.75139 -0.857396 0
M  V30 4595 O 414.707 1.95607 0.107194 0
M  V30 4596 H 413.287 0.26213 -0.699498 0
M  V30 4597 H 415.949 -0.0223304 -1.94887 0
M  V30 4598 H 415.045 1.18236 -2.88837 0
M  V30 4599 N 415.346 1.54954 0.287554 0
M  V30 4600 C 416.294 1.87606 1.37502 0
M  V30 4601 C 417.288 0.751001 1.51843 0
M  V30 4602 O 418.494 0.935169 1.53801 0
M  V30 4603 H 414.869 0.595231 0.459569 0
M  V30 4604 H 416.84 2.78477 1.07206 0
M  V30 4605 C 415.589 2.15183 2.73115 0
M  V30 4606 H 414.912 3.01234 2.62866 0
M  V30 4607 H 416.352 2.4196 3.48183 0
M  V30 4608 C 414.811 0.954686 3.2309 0
M  V30 4609 O 415.341 0.181949 4.01288 0
M  V30 4610 N 413.547 0.756368 2.80584 0
M  V30 4611 H 413.094 1.38643 2.17108 0
M  V30 4612 H 413.052 -0.0430391 3.14371 0
M  V30 4613 N 416.824 -0.551391 1.4764 0
M  V30 4614 C 417.772 -1.67896 1.60978 0
M  V30 4615 C 418.766 -1.62549 0.476877 0
M  V30 4616 O 419.972 -1.67664 0.654878 0
M  V30 4617 H 416.347 -0.555649 0.506713 0
M  V30 4618 H 418.318 -1.53784 2.55721 0
M  V30 4619 C 417.067 -3.06234 1.64669 0
M  V30 4620 H 416.39 -3.11033 2.51194 0
M  V30 4621 H 417.83 -3.84804 1.7805 0
M  V30 4622 C 416.289 -3.34737 0.381115 0
M  V30 4623 O 416.819 -3.98381 -0.515297 0
M  V30 4624 N 415.025 -2.8944 0.259354 0
M  V30 4625 H 414.572 -2.37827 0.98976 0
M  V30 4626 H 414.53 -3.08882 -0.586464 0
M  V30 4627 N 418.302 -1.35869 -0.798587 0
M  V30 4628 C 419.527 -1.32883 -1.59238 0
M  V30 4629 C 419.952 0.0894587 -1.87887 0
M  V30 4630 O 419.31 1.05869 -1.47178 0
M  V30 4631 C 419.358 -2.14892 -2.89575 0
M  V30 4632 O 418.462 -1.53512 -3.82763 0
M  V30 4633 H 417.803 -0.455236 -0.48338 0
M  V30 4634 H 420.333 -1.79024 -0.990539 0
M  V30 4635 H 420.343 -2.27139 -3.38928 0
M  V30 4636 H 419.018 -3.17998 -2.68049 0
M  V30 4637 H 417.595 -1.50153 -3.41334 0
M  V30 4638 N 419.78 1.02168 -1.19998 0
M  V30 4639 C 421.026 1.75945 -1.00852 0
M  V30 4640 C 421.359 1.88702 0.458828 0
M  V30 4641 O 420.634 1.40911 1.34069 0
M  V30 4642 C 420.917 3.18154 -1.68671 0
M  V30 4643 C 420.77 3.13224 -3.22817 0
M  V30 4644 C 422.089 4.16711 -1.41561 0
M  V30 4645 H 419.208 0.638673 -0.367785 0
M  V30 4646 H 421.85 1.19222 -1.4794 0
M  V30 4647 H 420 3.66586 -1.28636 0
M  V30 4648 H 421.672 2.72635 -3.72112 0
M  V30 4649 H 419.915 2.50751 -3.53986 0
M  V30 4650 H 420.586 4.13728 -3.65422 0
M  V30 4651 H 423.062 3.76913 -1.76284 0
M  V30 4652 H 421.938 5.14391 -1.91553 0
M  V30 4653 H 422.199 4.40774 -0.342193 0
M  V30 4654 N 421.258 1.00505 1.21394 0
M  V30 4655 C 422.505 0.687774 1.90462 0
M  V30 4656 C 422.833 -0.78147 1.7811 0
M  V30 4657 O 422.088 -1.58208 1.1519 0
M  V30 4658 C 422.387 1.0546 3.41486 0
M  V30 4659 C 422.053 2.51812 3.74034 0
M  V30 4660 C 420.715 2.91804 3.82628 0
M  V30 4661 C 423.067 3.46614 3.8924 0
M  V30 4662 C 420.395 4.2556 4.03876 0
M  V30 4663 C 422.747 4.80044 4.11995 0
M  V30 4664 C 421.411 5.19759 4.18816 0
M  V30 4665 H 420.681 0.251674 0.696951 0
M  V30 4666 H 423.328 1.26349 1.43903 0
M  V30 4667 H 421.633 0.397133 3.89782 0
M  V30 4668 H 423.33 0.786976 3.93202 0
M  V30 4669 H 419.92 2.1982 3.67936 0
M  V30 4670 H 424.104 3.16883 3.81967 0
M  V30 4671 H 419.36 4.55901 4.07387 0
M  V30 4672 H 423.534 5.53439 4.22704 0
M  V30 4673 H 421.161 6.23418 4.35033 0
M  V30 4674 N 422.737 -1.36956 0.779787 0
M  V30 4675 C 423.965 -2.03755 0.359398 0
M  V30 4676 C 424.38 -1.58807 -1.02106 0
M  V30 4677 O 423.737 -0.773024 -1.6532 0
M  V30 4678 C 423.788 -3.59251 0.402568 0
M  V30 4679 O 423.509 -4.02557 1.72858 0
M  V30 4680 C 425.01 -4.43291 -0.0284068 0
M  V30 4681 H 422.23 -0.654148 0.149437 0
M  V30 4682 H 424.774 -1.75128 1.05595 0
M  V30 4683 H 422.929 -3.86621 -0.245478 0
M  V30 4684 H 423.343 -4.97111 1.67275 0
M  V30 4685 H 424.817 -5.51975 0.0529466 0
M  V30 4686 H 425.294 -4.25719 -1.07982 0
M  V30 4687 H 425.9 -4.21163 0.591758 0
M  V30 4688 N 424.215 -0.530993 -1.48385 0
M  V30 4689 C 425.145 0.219985 -2.32461 0
M  V30 4690 C 426.126 0.934111 -1.42156 0
M  V30 4691 O 427.311 0.919694 -1.71042 0
M  V30 4692 C 424.441 1.26674 -3.23375 0
M  V30 4693 C 423.395 0.67069 -4.22712 0
M  V30 4694 C 422.721 1.82017 -5.02766 0
M  V30 4695 C 424.021 -0.358268 -5.2107 0
M  V30 4696 H 425.715 -0.48187 -2.95497 0
M  V30 4697 H 423.261 -0.233182 -1.42099 0
M  V30 4698 H 425.214 1.80006 -3.81019 0
M  V30 4699 H 423.938 1.99818 -2.58341 0
M  V30 4700 H 422.597 0.158878 -3.66256 0
M  V30 4701 H 422.245 2.54002 -4.34157 0
M  V30 4702 H 421.945 1.42727 -5.70003 0
M  V30 4703 H 423.469 2.35725 -5.63264 0
M  V30 4704 H 424.883 0.0880081 -5.73232 0
M  V30 4705 H 423.28 -0.66861 -5.96364 0
M  V30 4706 H 424.35 -1.26367 -4.68145 0
M  V30 4707 N 425.693 1.55336 -0.266172 0
M  V30 4708 C 426.921 2.03801 0.356756 0
M  V30 4709 C 427.336 1.14485 1.50129 0
M  V30 4710 O 426.693 0.163121 1.8177 0
M  V30 4711 C 426.744 3.51455 0.846281 0
M  V30 4712 O 426.465 4.37371 -0.252663 0
M  V30 4713 C 427.966 4.15767 1.53794 0
M  V30 4714 H 425.186 0.665906 0.0825218 0
M  V30 4715 H 427.73 2.00636 -0.39566 0
M  V30 4716 H 425.885 3.55092 1.54881 0
M  V30 4717 H 426.299 5.24358 0.122173 0
M  V30 4718 H 427.773 5.20714 1.83198 0
M  V30 4719 H 428.25 3.63404 2.46646 0
M  V30 4720 H 428.856 4.16107 0.879488 0
M  V30 4721 N 427.171 -0.0066808 1.57599 0
M  V30 4722 C 428.101 -0.999296 2.11036 0
M  V30 4723 C 429.082 -1.36278 1.01795 0
M  V30 4724 O 430.267 -1.4477 1.29442 0
M  V30 4725 C 427.397 -2.29328 2.60818 0
M  V30 4726 C 426.351 -2.07159 3.74525 0
M  V30 4727 C 425.677 -3.42512 4.10596 0
M  V30 4728 C 426.977 -1.43959 5.02069 0
M  V30 4729 H 428.671 -0.554382 2.94223 0
M  V30 4730 H 426.217 -0.265221 1.41536 0
M  V30 4731 H 428.17 -2.99117 2.96828 0
M  V30 4732 H 426.894 -2.7592 1.74745 0
M  V30 4733 H 425.553 -1.39797 3.38899 0
M  V30 4734 H 425.201 -3.86795 3.21556 0
M  V30 4735 H 424.901 -3.28498 4.87199 0
M  V30 4736 H 426.425 -4.13628 4.4916 0
M  V30 4737 H 427.839 -2.03696 5.35893 0
M  V30 4738 H 426.236 -1.40452 5.83432 0
M  V30 4739 H 427.306 -0.407992 4.83181 0
M  V30 4740 N 428.649 -1.55105 -0.279332 0
M  V30 4741 C 429.581 -1.83952 -1.36727 0
M  V30 4742 C 430.594 -0.723642 -1.45833 0
M  V30 4743 O 431.783 -1.00141 -1.47763 0
M  V30 4744 C 428.883 -1.98183 -2.74912 0
M  V30 4745 C 428.056 -3.28787 -2.88475 0
M  V30 4746 C 427.115 -3.33162 -4.07295 0
M  V30 4747 O 426.141 -4.06576 -3.98353 0
M  V30 4748 N 427.343 -2.60109 -5.18964 0
M  V30 4749 H 430.108 -2.77853 -1.12328 0
M  V30 4750 H 427.669 -1.54945 -0.469442 0
M  V30 4751 H 429.661 -1.98488 -3.52682 0
M  V30 4752 H 428.231 -1.11177 -2.92162 0
M  V30 4753 H 427.451 -3.41075 -1.97641 0
M  V30 4754 H 428.739 -4.14933 -2.94463 0
M  V30 4755 H 428.137 -2.00136 -5.29115 0
M  V30 4756 H 426.694 -2.66143 -5.94988 0
M  V30 4757 N 430.127 0.543554 -1.4793 0
M  V30 4758 C 431.09 1.63156 -1.60975 0
M  V30 4759 C 432.09 1.53346 -0.483899 0
M  V30 4760 O 433.28 1.5726 -0.749339 0
M  V30 4761 C 430.412 3.02743 -1.56716 0
M  V30 4762 H 431.605 1.52934 -2.57975 0
M  V30 4763 H 429.158 0.764557 -1.36324 0
M  V30 4764 H 429.893 3.18484 -0.611418 0
M  V30 4765 H 429.678 3.11272 -2.38438 0
M  V30 4766 H 431.168 3.81871 -1.6901 0
M  V30 4767 N 431.605 1.3629 0.791371 0
M  V30 4768 C 432.853 1.30154 1.5461 0
M  V30 4769 C 433.174 -0.119409 1.94634 0
M  V30 4770 O 432.444 -1.05924 1.64794 0
M  V30 4771 H 431.024 0.478784 0.573389 0
M  V30 4772 H 433.686 1.70565 0.94306 0
M  V30 4773 H 432.782 1.92762 2.45457 0
M  V30 4774 N 433.083 -1.0153 1.20538 0
M  V30 4775 C 434.013 -2.11972 0.979295 0
M  V30 4776 C 434.994 -1.6985 -0.0921787 0
M  V30 4777 O 436.179 -1.94089 0.0655932 0
M  V30 4778 C 433.309 -3.43201 0.531984 0
M  V30 4779 C 432.263 -3.9907 1.54685 0
M  V30 4780 C 431.589 -5.26082 0.956127 0
M  V30 4781 C 432.889 -4.32313 2.93092 0
M  V30 4782 H 434.583 -2.31143 1.90298 0
M  V30 4783 H 432.129 -1.11079 0.916372 0
M  V30 4784 H 434.082 -4.1985 0.361044 0
M  V30 4785 H 432.806 -3.23792 -0.427327 0
M  V30 4786 H 431.465 -3.2453 1.70517 0
M  V30 4787 H 431.113 -5.02999 -0.0111538 0
M  V30 4788 H 430.813 -5.64426 1.63393 0
M  V30 4789 H 432.337 -6.05386 0.796284 0
M  V30 4790 H 433.751 -4.99845 2.80763 0
M  V30 4791 H 432.148 -4.81774 3.57791 0
M  V30 4792 H 433.218 -3.41025 3.44717 0
M  V30 4793 N 434.561 -1.01147 -1.20859 0
M  V30 4794 C 435.786 -0.716698 -1.94623 0
M  V30 4795 C 436.211 0.715415 -1.73964 0
M  V30 4796 O 435.569 1.49157 -1.03062 0
M  V30 4797 C 435.617 -1.0513 -3.44935 0
M  V30 4798 O 434.721 -0.160131 -4.12089 0
M  V30 4799 H 434.062 -0.266404 -0.608214 0
M  V30 4800 H 436.592 -1.35346 -1.53436 0
M  V30 4801 H 436.602 -1.00086 -3.95533 0
M  V30 4802 H 435.277 -2.09475 -3.59295 0
M  V30 4803 H 433.854 -0.267657 -3.71938 0
M  V30 4804 N 436.039 1.36541 -0.78704 0
M  V30 4805 C 437.002 2.28413 -0.189778 0
M  V30 4806 C 438.002 1.48719 0.611499 0
M  V30 4807 O 439.192 1.68737 0.432842 0
M  V30 4808 C 436.324 3.32824 0.737638 0
M  V30 4809 H 437.517 2.82743 -0.999831 0
M  V30 4810 H 435.07 1.46065 -0.556298 0
M  V30 4811 H 435.805 2.83646 1.57212 0
M  V30 4812 H 435.59 3.91752 0.165044 0
M  V30 4813 H 437.08 4.0144 1.15047 0
M  V30 4814 N 437.518 0.538854 1.48102 0
M  V30 4815 C 438.767 0.0059532 2.01699 0
M  V30 4816 C 439.08 -1.34476 1.42041 0
M  V30 4817 O 440.286 -1.96653 1.87189 0
M  V30 4818 C 438.742 -0.0397627 3.59878 0
M  V30 4819 C 438.35 1.30659 4.28523 0
M  V30 4820 C 440.094 -0.521024 4.2129 0
M  V30 4821 C 438.001 1.22098 5.78659 0
M  V30 4822 H 436.931 -0.00154456 0.753998 0
M  V30 4823 H 439.582 0.683963 1.70277 0
M  V30 4824 H 437.964 -0.783037 3.88181 0
M  V30 4825 H 439.138 2.06613 4.11883 0
M  V30 4826 H 437.453 1.7243 3.79021 0
M  V30 4827 H 440.05 -0.603184 5.31287 0
M  V30 4828 H 440.393 -1.52885 3.8721 0
M  V30 4829 H 440.926 0.166834 3.9745 0
M  V30 4830 H 437.665 2.20424 6.17328 0
M  V30 4831 H 437.185 0.50295 5.97688 0
M  V30 4832 H 438.864 0.915345 6.40492 0
M  V30 4833 N 438.996 -1.55193 0.274407 0
M  V30 4834 C 439.943 -2.225 -0.613374 0
M  V30 4835 C 440.913 -1.19823 -1.15029 0
M  V30 4836 O 442.098 -1.48362 -1.19973 0
M  V30 4837 C 439.238 -2.94927 -1.79199 0
M  V30 4838 C 438.351 -4.12322 -1.28899 0
M  V30 4839 C 437.486 -4.72394 -2.42934 0
M  V30 4840 C 436.525 -5.81984 -1.89634 0
M  V30 4841 N 435.662 -6.36123 -2.9714 0
M  V30 4842 H 440.502 -2.97982 -0.032756 0
M  V30 4843 H 438.039 -1.47099 -0.00440146 0
M  V30 4844 H 439.997 -3.35134 -2.48478 0
M  V30 4845 H 438.627 -2.2187 -2.34465 0
M  V30 4846 H 437.679 -3.7724 -0.489327 0
M  V30 4847 H 438.991 -4.91355 -0.858587 0
M  V30 4848 H 438.145 -5.15317 -3.20208 0
M  V30 4849 H 436.884 -3.92636 -2.8929 0
M  V30 4850 H 435.889 -5.38511 -1.1084 0
M  V30 4851 H 437.114 -6.6361 -1.44215 0
M  V30 4852 H 435.06 -5.59259 -3.42878 0
M  V30 4853 H 434.977 -7.10427 -2.58515 0
M  V30 4854 H 436.245 -6.83704 -3.74391 0
M  V30 4855 N 440.474 -0.00167713 -1.576 0
M  V30 4856 C 441.702 0.693759 -1.94922 0
M  V30 4857 C 442.117 1.67215 -0.876626 0
M  V30 4858 O 441.474 1.81929 0.144279 0
M  V30 4859 C 441.525 1.42416 -3.32265 0
M  V30 4860 O 441.246 0.485014 -4.35407 0
M  V30 4861 C 442.747 2.21395 -3.84056 0
M  V30 4862 H 439.967 0.193118 -0.642609 0
M  V30 4863 H 442.511 -0.0532952 -2.04431 0
M  V30 4864 H 440.666 2.12284 -3.24059 0
M  V30 4865 H 441.08 1.00053 -5.14868 0
M  V30 4866 H 442.554 2.67996 -4.82578 0
M  V30 4867 H 443.031 3.04142 -3.16851 0
M  V30 4868 H 443.637 1.56542 -3.95443 0
M  V30 4869 N 441.952 1.55251 0.271103 0
M  V30 4870 C 443.363 1.66635 0.842007 0
M  V30 4871 C 443.714 0.594631 1.86972 0
M  V30 4872 O 442.839 -0.263532 2.14789 0
M  V30 4873 C 443.434 3.02082 1.53401 0
M  V30 4874 C 441.993 3.15487 2.05293 0
M  V30 4875 C 441.14 2.62438 0.895631 0
M  V30 4876 H 444.091 1.58629 0.0474117 0
M  V30 4877 H 444.112 2.95176 2.40107 0
M  V30 4878 H 443.624 3.80062 0.785786 0
M  V30 4879 H 441.725 2.42284 2.83071 0
M  V30 4880 H 441.838 4.22075 2.26693 0
M  V30 4881 H 440.202 2.19644 1.28953 0
M  V30 4882 H 440.985 3.42923 0.160878 0
M  V30 4883 N 443.43 -0.535701 1.48216 0
M  V30 4884 C 444.362 -1.65662 1.58394 0
M  V30 4885 C 445.375 -1.5591 0.468607 0
M  V30 4886 O 446.564 -1.62475 0.7392 0
M  V30 4887 C 443.664 -3.04276 1.4923 0
M  V30 4888 C 442.837 -3.39567 2.75705 0
M  V30 4889 C 441.896 -4.57436 2.60075 0
M  V30 4890 O 440.922 -4.60942 3.33948 0
M  V30 4891 N 442.124 -5.55259 1.69315 0
M  V30 4892 H 444.889 -1.5737 2.55058 0
M  V30 4893 H 442.45 -0.722845 1.44867 0
M  V30 4894 H 444.442 -3.80994 1.36477 0
M  V30 4895 H 443.012 -3.06677 0.605632 0
M  V30 4896 H 442.232 -2.52083 3.03064 0
M  V30 4897 H 443.52 -3.59929 3.59623 0
M  V30 4898 H 442.918 -5.552 1.08489 0
M  V30 4899 H 441.475 -6.31218 1.62504 0
M  V30 4900 N 444.908 -1.36708 -0.784132 0
M  V30 4901 C 446.148 -1.32618 -1.55537 0
M  V30 4902 C 446.512 0.0920681 -1.91779 0
M  V30 4903 O 447.713 0.257573 -2.67563 0
M  V30 4904 C 445.984 -2.22788 -2.79464 0
M  V30 4905 S 447.543 -2.36432 -3.69656 0
M  V30 4906 H 444.361 -0.470973 -0.53264 0
M  V30 4907 H 446.963 -1.72333 -0.92312 0
M  V30 4908 H 445.667 -3.24774 -2.50899 0
M  V30 4909 H 445.198 -1.84112 -3.47658 0
M  V30 4910 H 447.213 -1.56573 -4.7085 0
M  V30 4911 N 446.386 1.0089 -1.21074 0
M  V30 4912 C 447.616 1.77933 -1.04993 0
M  V30 4913 C 448.024 1.84847 0.403495 0
M  V30 4914 O 447.367 1.30606 1.29181 0
M  V30 4915 C 447.429 3.23541 -1.56722 0
M  V30 4916 C 447.093 3.40214 -3.05129 0
M  V30 4917 C 448.09 3.2881 -4.02716 0
M  V30 4918 C 445.775 3.65781 -3.44252 0
M  V30 4919 C 447.769 3.42732 -5.37414 0
M  V30 4920 C 445.456 3.79346 -4.79103 0
M  V30 4921 C 446.454 3.67827 -5.75493 0
M  V30 4922 O 446.142 3.80965 -7.07899 0
M  V30 4923 H 445.874 0.566157 -0.369381 0
M  V30 4924 H 448.428 1.27826 -1.60779 0
M  V30 4925 H 446.658 3.74766 -0.953285 0
M  V30 4926 H 448.347 3.82245 -1.36543 0
M  V30 4927 H 449.113 3.08986 -3.73835 0
M  V30 4928 H 444.992 3.73831 -2.69762 0
M  V30 4929 H 448.536 3.33658 -6.12632 0
M  V30 4930 H 444.433 3.98672 -5.07672 0
M  V30 4931 H 445.201 3.97937 -7.15254 0
M  V30 4932 N 447.864 1.01787 1.20321 0
M  V30 4933 C 448.811 0.589197 2.23153 0
M  V30 4934 C 449.781 -0.391367 1.61423 0
M  V30 4935 O 450.966 -0.290518 1.88575 0
M  V30 4936 C 448.106 -0.0650747 3.45039 0
M  V30 4937 C 447.219 0.960207 4.21194 0
M  V30 4938 C 446.354 0.276854 5.30478 0
M  V30 4939 C 445.393 1.2888 5.98378 0
M  V30 4940 N 444.53 0.632031 6.99249 0
M  V30 4941 H 449.37 1.47071 2.59179 0
M  V30 4942 H 446.907 0.736192 1.27352 0
M  V30 4943 H 448.865 -0.461552 4.14639 0
M  V30 4944 H 447.495 -0.910233 3.09701 0
M  V30 4945 H 446.547 1.47484 3.50646 0
M  V30 4946 H 447.859 1.72977 4.67847 0
M  V30 4947 H 447.013 -0.175056 6.06447 0
M  V30 4948 H 445.752 -0.525004 4.84866 0
M  V30 4949 H 444.757 1.75109 5.21169 0
M  V30 4950 H 445.982 2.09196 6.46076 0
M  V30 4951 H 443.928 -0.149935 6.55829 0
M  V30 4952 H 443.845 1.33964 7.44036 0
M  V30 4953 H 445.113 0.203755 7.79234 0
M  V30 4954 N 449.342 -1.36122 0.79427 0
M  V30 4955 C 450.252 -2.33769 0.197296 0
M  V30 4956 C 451.268 -1.61276 -0.653153 0
M  V30 4957 O 452.444 -1.9323 -0.5678 0
M  V30 4958 C 449.509 -3.40474 -0.654098 0
M  V30 4959 C 448.57 -4.28759 0.215411 0
M  V30 4960 C 447.803 -5.30368 -0.595443 0
M  V30 4961 O 448.026 -5.40211 -1.83107 0
M  V30 4962 O 446.96 -6.019 0.00721351 0
M  V30 4963 H 450.786 -2.86597 1.00478 0
M  V30 4964 H 448.371 -1.38676 0.555818 0
M  V30 4965 H 450.253 -4.05703 -1.13944 0
M  V30 4966 H 448.928 -2.89937 -1.43938 0
M  V30 4967 H 447.835 -3.66554 0.747615 0
M  V30 4968 H 449.168 -4.82661 0.964332 0
M  V30 4969 N 450.82 -0.546701 -1.47814 0
M  V30 4970 C 452.097 0.0464413 -1.95545 0
M  V30 4971 C 452.477 1.4962 -1.48919 0
M  V30 4972 O 451.825 2.16752 -0.723232 0
M  V30 4973 C 452.035 -0.0881298 -3.48889 0
M  V30 4974 C 453.383 0.0626059 -4.24554 0
M  V30 4975 O 454.407 -0.0151555 -3.56197 0
M  V30 4976 O 453.266 0.228071 -5.46024 0
M  V30 4977 H 450.36 0.0700004 -0.824032 0
M  V30 4978 H 452.906 -0.612482 -1.58262 0
M  V30 4979 H 451.678 -1.09737 -3.75597 0
M  V30 4980 H 451.301 0.608886 -3.9291 0
M  V30 4981 N 452.299 1.55045 -0.282633 0
M  V30 4982 C 453.547 1.99365 0.331334 0
M  V30 4983 C 453.868 1.1725 1.55812 0
M  V30 4984 O 453.138 0.263871 1.94115 0
M  V30 4985 H 451.718 0.736397 0.125414 0
M  V30 4986 H 454.38 1.90964 -0.389711 0
M  V30 4987 H 453.476 3.0596 0.616036 0
M  V30 4988 N 453.777 0.010035 1.57597 0
M  V30 4989 C 455.002 -0.687021 1.95691 0
M  V30 4990 C 455.427 -1.65952 0.885519 0
M  V30 4991 O 454.785 -1.80633 -0.15543 0
M  V30 4992 C 454.833 -1.3864 3.32884 0
M  V30 4993 O 453.937 -2.50115 3.27897 0
M  V30 4994 H 453.278 -0.181989 0.638573 0
M  V30 4995 H 455.808 0.0662122 2.04493 0
M  V30 4996 H 455.818 -1.74754 3.6868 0
M  V30 4997 H 454.493 -0.673411 4.10412 0
M  V30 4998 H 453.07 -2.16253 3.03791 0
M  V30 4999 N 455.255 -1.55392 -0.262866 0
M  V30 5000 C 456.48 -1.80847 -1.01533 0
M  V30 5001 C 456.905 -0.584946 -1.78774 0
M  V30 5002 O 456.263 0.465701 -1.75217 0
M  V30 5003 C 456.311 -3.03866 -1.94159 0
M  V30 5004 O 455.415 -2.79662 -3.03089 0
M  V30 5005 H 454.756 -0.597441 -0.289759 0
M  V30 5006 H 457.286 -2.02553 -0.288698 0
M  V30 5007 H 457.296 -3.32872 -2.35924 0
M  V30 5008 H 455.971 -3.92564 -1.37354 0
M  V30 5009 H 454.548 -2.61781 -2.65566 0
M  V30 5010 N 456.733 0.527833 -1.48498 0
M  V30 5011 C 457.68 1.6322 -1.6318 0
M  V30 5012 C 458.65 1.59199 -0.473815 0
M  V30 5013 O 459.835 1.77591 -0.697563 0
M  V30 5014 C 456.975 3.01474 -1.67951 0
M  V30 5015 C 456.088 3.15713 -2.94871 0
M  V30 5016 C 455.223 4.44539 -2.90789 0
M  V30 5017 C 454.262 4.52315 -4.12404 0
M  V30 5018 N 453.399 5.72533 -4.06387 0
M  V30 5019 H 458.239 1.50011 -2.57489 0
M  V30 5020 H 455.776 0.730298 -1.27691 0
M  V30 5021 H 457.734 3.81572 -1.68698 0
M  V30 5022 H 456.364 3.1345 -0.771306 0
M  V30 5023 H 455.416 2.28854 -3.03859 0
M  V30 5024 H 456.728 3.1732 -3.8485 0
M  V30 5025 H 455.882 5.3293 -2.89949 0
M  V30 5026 H 454.621 4.45457 -1.98542 0
M  V30 5027 H 453.626 3.62331 -4.13517 0
M  V30 5028 H 454.851 4.53134 -5.05812 0
M  V30 5029 H 452.797 5.74344 -3.16962 0
M  V30 5030 H 452.714 5.75643 -4.90073 0
M  V30 5031 H 453.982 6.63204 -4.0961 0
M  V30 5032 N 458.211 1.37122 0.776871 0
M  V30 5033 C 459.436 1.354 1.57104 0
M  V30 5034 C 459.861 -0.0595562 1.88006 0
M  V30 5035 O 459.219 -1.03514 1.48844 0
M  V30 5036 C 459.267 2.19472 2.8612 0
M  V30 5037 O 458.371 1.59582 3.80273 0
M  V30 5038 H 457.712 0.462869 0.476076 0
M  V30 5039 H 460.242 1.80577 0.961932 0
M  V30 5040 H 460.252 2.32502 3.35271 0
M  V30 5041 H 458.927 3.22222 2.62956 0
M  V30 5042 H 457.504 1.55564 3.38902 0
M  V30 5043 N 459.689 -1.00246 1.21608 0
M  V30 5044 C 461.1 -1.55511 1.03312 0
M  V30 5045 C 461.451 -1.91946 -0.406332 0
M  V30 5046 O 460.576 -1.73753 -1.28992 0
M  V30 5047 C 461.171 -2.82576 1.86913 0
M  V30 5048 C 459.73 -3.34318 1.72941 0
M  V30 5049 C 458.877 -2.07487 1.83968 0
M  V30 5050 H 461.828 -0.824638 1.35593 0
M  V30 5051 H 461.849 -3.54559 1.38087 0
M  V30 5052 H 461.361 -2.56026 2.91672 0
M  V30 5053 H 459.462 -3.65797 0.70877 0
M  V30 5054 H 459.575 -4.05566 2.55055 0
M  V30 5055 H 457.939 -2.20603 1.27304 0
M  V30 5056 H 458.722 -1.83346 2.9024 0
M  V30 5057 N 461.167 -1.02423 -1.1978 0
M  V30 5058 C 462.444 -0.632802 -1.85081 0
M  V30 5059 C 462.824 0.888745 -1.9148 0
M  V30 5060 O 462.172 1.78357 -1.42832 0
M  V30 5061 C 462.382 -1.28947 -3.24305 0
M  V30 5062 C 463.73 -1.40976 -4.00513 0
M  V30 5063 O 464.754 -1.24628 -3.33686 0
M  V30 5064 O 463.613 -1.67467 -5.20209 0
M  V30 5065 H 460.707 -0.219348 -0.79738 0
M  V30 5066 H 463.253 -1.12209 -1.27307 0
M  V30 5067 H 462.025 -2.3288 -3.14456 0
M  V30 5068 H 461.648 -0.787748 -3.89718 0
M  V30 5069 N 462.645 1.35699 -0.801477 0
M  V30 5070 C 463.885 2.00741 -0.385027 0
M  V30 5071 C 464.249 1.62213 1.02718 0
M  V30 5072 O 465.45 2.19936 1.54537 0
M  V30 5073 C 463.721 3.53032 -0.557057 0
M  V30 5074 S 465.28 4.38195 -0.230272 0
M  V30 5075 H 462.098 0.695748 -0.146477 0
M  V30 5076 H 464.7 1.65378 -1.04261 0
M  V30 5077 H 463.404 3.7856 -1.58494 0
M  V30 5078 H 462.935 3.93229 0.116029 0
M  V30 5079 H 464.95 4.86748 0.963895 0
M  V30 5080 N 464.123 0.554532 1.47522 0
M  V30 5081 C 465.534 0.120446 1.86311 0
M  V30 5082 C 465.885 -1.30904 1.46145 0
M  V30 5083 O 465.01 -1.98434 0.863294 0
M  V30 5084 C 465.605 0.211808 3.38137 0
M  V30 5085 C 464.164 -0.167224 3.76028 0
M  V30 5086 C 463.311 0.560576 2.71575 0
M  V30 5087 H 466.262 0.764408 1.39077 0
M  V30 5088 H 466.283 -0.570275 3.76202 0
M  V30 5089 H 465.795 1.25232 3.6734 0
M  V30 5090 H 463.896 -1.20894 3.52442 0
M  V30 5091 H 464.009 0.189473 4.78725 0
M  V30 5092 H 462.373 0.00396836 2.547 0
M  V30 5093 H 463.156 1.60219 3.0362 0
M  V30 5094 N 465.601 -1.54893 0.290851 0
M  V30 5095 C 466.847 -2.0023 -0.321867 0
M  V30 5096 C 467.18 -1.179 -1.54316 0
M  V30 5097 O 466.455 -0.25293 -1.92848 0
M  V30 5098 C 466.738 -3.53456 -0.688515 0
M  V30 5099 C 466.591 -4.46532 0.541209 0
M  V30 5100 C 467.91 -4.13057 -1.51895 0
M  V30 5101 H 465.029 -0.727891 -0.115515 0
M  V30 5102 H 467.671 -1.85722 0.400931 0
M  V30 5103 H 465.821 -3.6595 -1.30433 0
M  V30 5104 H 467.493 -4.4596 1.17973 0
M  V30 5105 H 465.736 -4.17545 1.17636 0
M  V30 5106 H 466.407 -5.51475 0.240675 0
M  V30 5107 H 468.883 -4.03937 -0.99872 0
M  V30 5108 H 467.759 -5.20448 -1.74429 0
M  V30 5109 H 468.02 -3.64284 -2.50498 0
M  V30 5110 N 467.08 -0.0183926 -1.57589 0
M  V30 5111 C 468.32 0.666846 -1.93216 0
M  V30 5112 C 468.684 1.69905 -0.894215 0
M  V30 5113 O 469.885 2.436 -1.13633 0
M  V30 5114 C 468.156 1.27684 -3.33814 0
M  V30 5115 S 469.715 1.98464 -3.91353 0
M  V30 5116 H 466.533 0.219826 -0.676164 0
M  V30 5117 H 469.135 -0.0794893 -1.95338 0
M  V30 5118 H 467.839 0.513006 -4.07181 0
M  V30 5119 H 467.37 2.06071 -3.3511 0
M  V30 5120 H 469.385 3.26189 -3.73918 0
M  V30 5121 N 468.558 1.5553 0.254621 0
M  V30 5122 C 469.783 1.81383 1.00573 0
M  V30 5123 C 470.208 0.594419 1.78461 0
M  V30 5124 O 469.566 -0.456403 1.75461 0
M  V30 5125 C 469.614 3.04892 1.92545 0
M  V30 5126 O 468.718 2.81266 3.01601 0
M  V30 5127 H 468.059 0.598969 0.286587 0
M  V30 5128 H 470.589 2.02703 0.277952 0
M  V30 5129 H 470.599 3.34119 2.34155 0
M  V30 5130 H 469.274 3.93287 1.3527 0
M  V30 5131 H 467.851 2.63185 2.64174 0
M  V30 5132 N 470.036 -0.519951 1.48776 0
M  V30 5133 C 471.452 -0.849418 1.35119 0
M  V30 5134 C 471.652 -1.98077 0.36982 0
M  V30 5135 O 470.708 -2.51664 -0.205359 0
M  V30 5136 C 472.021 -1.20748 2.75391 0
M  V30 5137 C 473.569 -1.31679 2.83954 0
M  V30 5138 C 474.044 -1.70824 4.24951 0
M  V30 5139 N 475.535 -1.77908 4.27672 0
M  V30 5140 C 476.27 -2.09603 5.33717 0
M  V30 5141 N 475.766 -2.39652 6.5003 0
M  V30 5142 N 477.559 -2.10694 5.21119 0
M  V30 5143 H 469.71 0.226377 2.1119 0
M  V30 5144 H 471.973 0.0386519 0.947212 0
M  V30 5145 H 471.679 -0.449703 3.48813 0
M  V30 5146 H 471.553 -2.15534 3.09556 0
M  V30 5147 H 473.94 -2.06532 2.10781 0
M  V30 5148 H 474.021 -0.3499 2.53396 0
M  V30 5149 H 473.665 -0.965282 4.98643 0
M  V30 5150 H 473.595 -2.6858 4.52959 0
M  V30 5151 H 476.086 -1.56923 3.43779 0
M  V30 5152 H 476.399 -2.6297 7.26682 0
M  V30 5153 H 474.744 -2.37149 6.53288 0
M  V30 5154 H 477.935 -1.86682 4.29264 0
M  V30 5155 H 478.108 -2.35062 6.03863 0
M  V30 5156 N 471.514 -1.37532 -0.769588 0
M  V30 5157 C 472.739 -1.36231 -1.56384 0
M  V30 5158 C 473.164 0.0495849 -1.88035 0
M  V30 5159 O 472.522 1.02723 -1.49391 0
M  V30 5160 C 472.57 -2.20986 -2.84952 0
M  V30 5161 O 471.674 -1.61597 -3.79421 0
M  V30 5162 H 471.015 -0.465387 -0.473615 0
M  V30 5163 H 473.545 -1.81085 -0.952342 0
M  V30 5164 H 473.555 -2.34277 -3.34034 0
M  V30 5165 H 472.23 -3.23612 -2.61243 0
M  V30 5166 H 470.807 -1.57359 -3.38072 0
M  V30 5167 N 472.992 0.995999 -1.22138 0
M  V30 5168 C 473.922 2.10387 -1.01289 0
M  V30 5169 C 474.903 1.69975 0.0651454 0
M  V30 5170 O 476.088 1.9396 -0.0964628 0
M  V30 5171 C 473.218 3.42312 -0.586517 0
M  V30 5172 C 472.172 3.96558 -1.61014 0
M  V30 5173 C 471.498 5.24494 -1.0397 0
M  V30 5174 C 472.798 4.27595 -2.99933 0
M  V30 5175 H 474.492 2.28086 -1.93951 0
M  V30 5176 H 472.038 1.09607 -0.933928 0
M  V30 5177 H 473.991 4.19223 -0.427793 0
M  V30 5178 H 472.715 3.24431 0.375761 0
M  V30 5179 H 471.374 3.21776 -1.75658 0
M  V30 5180 H 471.022 5.02953 -0.0688703 0
M  V30 5181 H 470.722 5.61755 -1.72352 0
M  V30 5182 H 472.246 6.04042 -0.892494 0
M  V30 5183 H 473.66 4.95315 -2.8868 0
M  V30 5184 H 472.057 4.76021 -3.6541 0
M  V30 5185 H 473.127 3.35498 -3.50099 0
M  V30 5186 N 474.47 1.03057 1.19235 0
M  V30 5187 C 475.418 0.606391 2.24557 0
M  V30 5188 C 476.412 -0.361826 1.65491 0
M  V30 5189 O 477.618 -0.23022 1.78522 0
M  V30 5190 H 473.993 0.177838 0.730669 0
M  V30 5191 H 475.964 1.50529 2.5765 0
M  V30 5192 C 474.713 -0.0252127 3.47691 0
M  V30 5193 H 474.036 0.710838 3.9343 0
M  V30 5194 H 475.476 -0.284931 4.23042 0
M  V30 5195 C 473.935 -1.27229 3.11953 0
M  V30 5196 O 474.465 -2.36416 3.24762 0
M  V30 5197 N 472.671 -1.16169 2.6637 0
M  V30 5198 H 472.218 -0.273189 2.56147 0
M  V30 5199 H 472.176 -1.99703 2.42829 0
M  V30 5200 N 475.948 -1.35272 0.808662 0
M  V30 5201 C 476.895 -2.29764 0.218482 0
M  V30 5202 C 477.865 -1.52911 -0.648652 0
M  V30 5203 O 479.05 -1.81341 -0.593297 0
M  V30 5204 C 476.19 -3.39388 -0.625282 0
M  V30 5205 C 475.303 -4.31202 0.262516 0
M  V30 5206 C 474.438 -5.27919 -0.589451 0
M  V30 5207 C 473.477 -6.11371 0.298617 0
M  V30 5208 N 472.614 -7.0022 -0.513443 0
M  V30 5209 H 477.454 -2.79645 1.02968 0
M  V30 5210 H 474.991 -1.37629 0.519303 0
M  V30 5211 H 476.949 -4.01615 -1.12966 0
M  V30 5212 H 475.579 -2.90777 -1.40173 0
M  V30 5213 H 474.631 -3.69962 0.885013 0
M  V30 5214 H 475.943 -4.89748 0.945971 0
M  V30 5215 H 475.097 -5.95529 -1.15888 0
M  V30 5216 H 473.836 -4.69875 -1.30647 0
M  V30 5217 H 472.841 -5.42707 0.880301 0
M  V30 5218 H 474.066 -6.71494 1.01352 0
M  V30 5219 H 472.012 -6.44662 -1.21439 0
M  V30 5220 H 471.929 -7.55917 0.111922 0
M  V30 5221 H 473.197 -7.72175 -1.06608 0
M  V30 5222 N 477.426 -0.562348 -1.47226 0
M  V30 5223 C 478.356 0.170627 -2.32876 0
M  V30 5224 C 479.337 0.903748 -1.44106 0
M  V30 5225 O 480.522 0.883206 -1.72954 0
M  V30 5226 C 477.652 1.19786 -3.25989 0
M  V30 5227 C 476.606 0.580875 -4.2404 0
M  V30 5228 C 475.932 1.71311 -5.06514 0
M  V30 5229 C 477.232 -0.468714 -5.20193 0
M  V30 5230 H 478.926 -0.544441 -2.94408 0
M  V30 5231 H 476.472 -0.263271 -1.41573 0
M  V30 5232 H 478.425 1.71884 -3.84752 0
M  V30 5233 H 477.149 1.94294 -2.62521 0
M  V30 5234 H 475.808 0.0811538 -3.6651 0
M  V30 5235 H 475.456 2.44736 -4.39447 0
M  V30 5236 H 475.156 1.30604 -5.72902 0
M  V30 5237 H 476.68 2.23725 -5.68137 0
M  V30 5238 H 478.094 -0.0336028 -5.7329 0
M  V30 5239 H 476.491 -0.794957 -5.94811 0
M  V30 5240 H 477.561 -1.36269 -4.65359 0
M  V30 5241 N 478.904 1.54736 -0.299062 0
M  V30 5242 C 479.867 2.22127 0.565012 0
M  V30 5243 C 480.867 1.20669 1.06281 0
M  V30 5244 O 482.057 1.45417 0.959145 0
M  V30 5245 C 479.189 2.90611 1.78208 0
M  V30 5246 H 480.382 2.99891 -0.0237448 0
M  V30 5247 H 477.935 1.5622 -0.0498788 0
M  V30 5248 H 478.67 2.16921 2.41072 0
M  V30 5249 H 478.455 3.64984 1.43281 0
M  V30 5250 H 479.945 3.42026 2.396 0
M  V30 5251 N 480.382 0.0267497 1.57577 0
M  V30 5252 C 481.314 -0.984594 2.06974 0
M  V30 5253 C 482.327 -1.29032 0.992705 0
M  V30 5254 O 483.516 -1.25539 1.26895 0
M  V30 5255 C 480.616 -2.31262 2.47732 0
M  V30 5256 C 479.789 -2.1924 3.78487 0
M  V30 5257 C 478.848 -3.34956 4.05821 0
M  V30 5258 O 477.874 -3.11948 4.76106 0
M  V30 5259 N 479.076 -4.58672 3.55809 0
M  V30 5260 H 481.841 -0.563143 2.94362 0
M  V30 5261 H 479.402 -0.160061 1.61107 0
M  V30 5262 H 481.394 -3.07496 2.63112 0
M  V30 5263 H 479.964 -2.65056 1.65723 0
M  V30 5264 H 479.184 -1.27747 3.72927 0
M  V30 5265 H 480.472 -2.08409 4.64158 0
M  V30 5266 H 479.87 -4.8026 2.98942 0
M  V30 5267 H 478.427 -5.32083 3.76472 0
M  V30 5268 N 481.861 -1.55662 -0.24637 0
M  V30 5269 C 483.272 -1.67953 -0.81539 0
M  V30 5270 C 483.623 -0.624302 -1.86002 0
M  V30 5271 O 482.748 0.229328 -2.15181 0
M  V30 5272 C 483.343 -3.04484 -1.48576 0
M  V30 5273 C 481.902 -3.18713 -2.00248 0
M  V30 5274 C 481.049 -2.6383 -0.853766 0
M  V30 5275 H 484 -1.58685 -0.0221692 0
M  V30 5276 H 484.021 -2.98959 -2.3538 0
M  V30 5277 H 483.533 -3.81264 -0.725222 0
M  V30 5278 H 481.634 -2.46757 -2.79181 0
M  V30 5279 H 481.747 -4.25628 -2.1995 0
M  V30 5280 H 480.111 -2.21667 -1.25442 0
M  V30 5281 H 480.894 -3.43135 -0.106302 0
M  V30 5282 N 483.339 0.512053 -1.4905 0
M  V30 5283 C 484.269 1.62365 -1.67809 0
M  V30 5284 C 485.25 1.61737 -0.526809 0
M  V30 5285 O 486.435 1.78651 -0.761404 0
M  V30 5286 C 483.565 3.00895 -1.73435 0
M  V30 5287 C 482.519 3.16387 -2.88242 0
M  V30 5288 C 481.845 4.56157 -2.78971 0
M  V30 5289 C 483.145 2.97457 -4.29321 0
M  V30 5290 H 484.839 1.46921 -2.60873 0
M  V30 5291 H 482.385 0.705379 -1.2554 0
M  V30 5292 H 484.338 3.78549 -1.85145 0
M  V30 5293 H 483.062 3.17403 -0.769619 0
M  V30 5294 H 481.721 2.41155 -2.76116 0
M  V30 5295 H 481.369 4.69525 -1.8043 0
M  V30 5296 H 481.069 4.67465 -3.5602 0
M  V30 5297 H 482.593 5.35886 -2.92675 0
M  V30 5298 H 484.007 3.64888 -4.42187 0
M  V30 5299 H 482.404 3.20245 -5.07507 0
M  V30 5300 H 483.474 1.93692 -4.44535 0
M  V30 5301 N 484.817 1.37938 0.762283 0
M  V30 5302 C 486.228 1.30094 1.33912 0
M  V30 5303 C 486.579 -0.0472026 1.96143 0
M  V30 5304 O 485.704 -0.94917 1.94473 0
M  V30 5305 C 486.299 2.35592 2.43478 0
M  V30 5306 C 484.858 2.31353 2.96905 0
M  V30 5307 C 484.005 2.18919 1.70205 0
M  V30 5308 H 486.956 1.48423 0.561816 0
M  V30 5309 H 486.977 2.00806 3.23199 0
M  V30 5310 H 486.489 3.33701 1.98155 0
M  V30 5311 H 484.59 1.36799 3.46579 0
M  V30 5312 H 484.703 3.25147 3.51875 0
M  V30 5313 H 483.067 1.65624 1.93496 0
M  V30 5314 H 483.85 3.18956 1.26973 0
M  V30 5315 N 486.295 -0.989507 1.22664 0
M  V30 5316 C 487.228 -2.07805 0.942985 0
M  V30 5317 C 488.206 -1.6219 -0.115356 0
M  V30 5318 O 489.39 -1.88492 0.0169565 0
M  V30 5319 C 486.517 -3.361 0.418898 0
M  V30 5320 C 485.563 -4.00643 1.46244 0
M  V30 5321 S 486.396 -4.41059 3.03689 0
M  V30 5322 C 487.552 -5.7252 2.52927 0
M  V30 5323 H 487.785 -2.31547 1.86476 0
M  V30 5324 H 485.318 -1.12446 1.05808 0
M  V30 5325 H 487.276 -4.10315 0.123114 0
M  V30 5326 H 485.937 -3.10383 -0.481818 0
M  V30 5327 H 485.13 -4.93033 1.04569 0
M  V30 5328 H 484.732 -3.32767 1.7071 0
M  V30 5329 H 487.024 -6.49017 1.94379 0
M  V30 5330 H 487.967 -6.19026 3.4382 0
M  V30 5331 H 488.375 -5.30083 1.94094 0
M  V30 5332 N 487.773 -1.03688 -1.18687 0
M  V30 5333 C 488.736 -0.629115 -2.20397 0
M  V30 5334 C 489.736 0.311495 -1.57754 0
M  V30 5335 O 490.926 0.0974107 -1.73927 0
M  V30 5336 C 488.058 0.0782231 -3.4081 0
M  V30 5337 H 489.251 -1.52915 -2.57987 0
M  V30 5338 H 486.804 -0.828988 -1.32505 0
M  V30 5339 H 487.539 0.992233 -3.08748 0
M  V30 5340 H 487.324 -0.597776 -3.87517 0
M  V30 5341 H 488.814 0.350156 -4.16129 0
M  V30 5342 N 489.251 1.34841 -0.815825 0
M  V30 5343 C 490.201 2.27075 -0.205169 0
M  V30 5344 C 491.185 1.48205 0.626414 0
M  V30 5345 O 492.377 1.70306 0.482157 0
M  V30 5346 C 489.506 3.37322 0.637871 0
M  V30 5347 C 488.592 4.23609 -0.203948 0
M  V30 5348 N 488.983 4.89558 -1.27149 0
M  V30 5349 C 487.281 4.45998 0.0128971 0
M  V30 5350 C 487.982 5.53597 -1.7862 0
M  V30 5351 N 486.958 5.32535 -1.0912 0
M  V30 5352 H 490.76 2.75563 -1.02187 0
M  V30 5353 H 488.274 1.48477 -0.657912 0
M  V30 5354 H 490.271 4.02359 1.09146 0
M  V30 5355 H 488.931 2.90385 1.45281 0
M  V30 5356 H 489.942 4.9077 -1.65423 0
M  V30 5357 H 486.619 4.09837 0.79624 0
M  V30 5358 H 488.009 6.16184 -2.67892 0
M  V30 5359 N 490.729 0.570148 1.46925 0
M  V30 5360 C 491.969 0.0534743 2.0433 0
M  V30 5361 C 492.333 -1.27729 1.4335 0
M  V30 5362 O 493.534 -1.88244 1.91879 0
M  V30 5363 C 491.805 -0.0244296 3.57392 0
M  V30 5364 S 493.364 -0.485351 4.36108 0
M  V30 5365 H 490.182 0.0313908 0.710307 0
M  V30 5366 H 492.784 0.759808 1.80131 0
M  V30 5367 H 491.488 0.948261 3.99295 0
M  V30 5368 H 491.019 -0.753922 3.86108 0
M  V30 5369 H 493.034 -1.74258 4.64595 0
M  V30 5370 N 492.207 -1.54576 0.307264 0
M  V30 5371 C 493.17 -2.22423 -0.553224 0
M  V30 5372 C 494.17 -1.21231 -1.05639 0
M  V30 5373 O 495.36 -1.45923 -0.951419 0
M  V30 5374 C 492.492 -2.91552 -1.76664 0
M  V30 5375 H 493.685 -2.99874 0.0396484 0
M  V30 5376 H 491.238 -1.56192 0.0581629 0
M  V30 5377 H 491.973 -2.18196 -2.39918 0
M  V30 5378 H 491.758 -3.65738 -1.41343 0
M  V30 5379 H 493.248 -3.43292 -2.37783 0
M  V30 5380 N 493.685 -0.035106 -1.57561 0
M  V30 5381 C 494.633 0.962707 -2.11742 0
M  V30 5382 C 495.627 1.33296 -1.0454 0
M  V30 5383 O 496.833 1.31449 -1.22968 0
M  V30 5384 H 493.208 0.32826 -0.676572 0
M  V30 5385 H 495.179 0.48048 -2.94506 0
M  V30 5386 C 493.928 2.23388 -2.66445 0
M  V30 5387 H 493.251 1.95774 -3.48587 0
M  V30 5388 H 494.691 2.91402 -3.07995 0
M  V30 5389 C 493.15 2.96769 -1.59467 0
M  V30 5390 O 493.68 3.89105 -0.998 0
M  V30 5391 N 491.886 2.59212 -1.31369 0
M  V30 5392 H 491.433 1.84202 -1.80076 0
M  V30 5393 H 491.391 3.08618 -0.600173 0
M  V30 5394 N 495.163 1.55791 0.238111 0
M  V30 5395 C 496.388 1.8244 0.986432 0
M  V30 5396 C 496.813 0.613314 1.7782 0
M  V30 5397 O 496.171 -0.437767 1.75935 0
M  V30 5398 C 496.219 3.06917 1.893 0
M  V30 5399 O 495.323 2.84449 2.98601 0
M  V30 5400 H 494.664 0.601975 0.280218 0
M  V30 5401 H 497.194 2.02987 0.256437 0
M  V30 5402 H 497.204 3.36583 2.30598 0
M  V30 5403 H 495.879 3.947 1.31091 0
M  V30 5404 H 494.456 2.65972 2.61368 0
M  V30 5405 N 496.642 -0.504142 1.49319 0
M  V30 5406 C 498.058 -0.835039 1.36012 0
M  V30 5407 C 498.258 -1.97674 0.390808 0
M  V30 5408 O 497.314 -2.51867 -0.178655 0
M  V30 5409 C 498.627 -1.17821 2.76656 0
M  V30 5410 C 500.175 -1.2866 2.85334 0
M  V30 5411 C 500.65 -1.66307 4.26739 0
M  V30 5412 N 502.141 -1.73362 4.29534 0
M  V30 5413 C 502.876 -2.0393 5.35911 0
M  V30 5414 N 502.372 -2.32744 6.52535 0
M  V30 5415 N 504.165 -2.05155 5.23324 0
M  V30 5416 H 496.316 0.248764 2.10938 0
M  V30 5417 H 498.579 0.0486962 0.946748 0
M  V30 5418 H 498.285 -0.412682 3.4927 0
M  V30 5419 H 498.159 -2.12239 3.11825 0
M  V30 5420 H 500.546 -2.04285 2.1296 0
M  V30 5421 H 500.627 -0.323004 2.53752 0
M  V30 5422 H 500.271 -0.91234 4.99639 0
M  V30 5423 H 500.201 -2.63761 4.55782 0
M  V30 5424 H 502.692 -1.53268 3.45424 0
M  V30 5425 H 503.005 -2.55248 7.2943 0
M  V30 5426 H 501.35 -2.30207 6.55767 0
M  V30 5427 H 504.541 -1.82119 4.3122 0
M  V30 5428 H 504.714 -2.28644 6.06322 0
M  V30 5429 N 498.12 -1.38341 -0.754957 0
M  V30 5430 C 499.05 -1.38176 -1.88227 0
M  V30 5431 C 500.031 -0.247873 -1.68284 0
M  V30 5432 O 501.216 -0.45075 -1.88896 0
M  V30 5433 C 498.346 -1.20471 -3.25736 0
M  V30 5434 C 497.3 -2.3105 -3.60278 0
M  V30 5435 C 496.626 -1.98452 -4.96509 0
M  V30 5436 C 497.926 -3.73305 -3.65295 0
M  V30 5437 H 499.62 -2.32512 -1.88622 0
M  V30 5438 H 497.166 -1.1192 -0.906082 0
M  V30 5439 H 499.119 -1.18982 -4.04254 0
M  V30 5440 H 497.843 -0.225965 -3.25817 0
M  V30 5441 H 496.502 -2.31723 -2.84078 0
M  V30 5442 H 496.15 -0.990641 -4.93148 0
M  V30 5443 H 495.85 -2.7251 -5.20588 0
M  V30 5444 H 497.374 -1.98578 -5.77407 0
M  V30 5445 H 498.788 -3.7467 -4.3393 0
M  V30 5446 H 497.185 -4.46557 -4.00883 0
M  V30 5447 H 498.255 -4.05719 -2.65556 0
M  V30 5448 N 499.598 0.982988 -1.23187 0
M  V30 5449 C 500.844 1.72648 -1.06398 0
M  V30 5450 C 501.177 1.90066 0.398561 0
M  V30 5451 O 500.452 1.45105 1.29518 0
M  V30 5452 C 500.735 3.12627 -1.78707 0
M  V30 5453 C 500.588 3.02795 -3.32618 0
M  V30 5454 C 501.907 4.11997 -1.54747 0
M  V30 5455 H 499.026 0.626649 -0.387918 0
M  V30 5456 H 501.668 1.14455 -1.51658 0
M  V30 5457 H 499.818 3.62308 -1.40234 0
M  V30 5458 H 501.49 2.60659 -3.80598 0
M  V30 5459 H 499.733 2.39362 -3.61785 0
M  V30 5460 H 500.404 4.01893 -3.78399 0
M  V30 5461 H 502.88 3.71114 -1.88186 0
M  V30 5462 H 501.756 5.08037 -2.07821 0
M  V30 5463 H 502.017 4.39462 -0.482249 0
M  V30 5464 N 501.076 1.04316 1.18135 0
M  V30 5465 C 502.316 0.756937 1.89868 0
M  V30 5466 C 502.68 -0.702609 1.78682 0
M  V30 5467 O 503.881 -1.10255 2.45148 0
M  V30 5468 C 502.152 1.21327 3.36176 0
M  V30 5469 S 503.711 1.05307 4.25976 0
M  V30 5470 H 500.529 0.275143 0.655604 0
M  V30 5471 H 503.131 1.33597 1.42731 0
M  V30 5472 H 501.835 2.27086 3.41848 0
M  V30 5473 H 501.366 0.628137 3.88353 0
M  V30 5474 H 503.381 -0.0280093 4.96192 0
M  V30 5475 N 502.554 -1.34406 0.822964 0
M  V30 5476 C 503.501 -2.29519 0.24284 0
M  V30 5477 C 504.471 -1.5359 -0.632397 0
M  V30 5478 O 505.656 -1.8196 -0.57403 0
M  V30 5479 C 502.796 -3.40032 -0.58925 0
M  V30 5480 C 501.909 -4.30899 0.308236 0
M  V30 5481 C 501.044 -5.28515 -0.533425 0
M  V30 5482 C 500.083 -6.1102 0.363444 0
M  V30 5483 N 499.22 -7.00725 -0.439147 0
M  V30 5484 H 504.06 -2.78537 1.05929 0
M  V30 5485 H 501.597 -1.3707 0.533872 0
M  V30 5486 H 503.555 -4.0279 -1.087 0
M  V30 5487 H 502.185 -2.92248 -1.37081 0
M  V30 5488 H 501.237 -3.69002 0.924203 0
M  V30 5489 H 502.549 -4.88717 0.997862 0
M  V30 5490 H 501.703 -5.96725 -1.09565 0
M  V30 5491 H 500.442 -4.71235 -1.25656 0
M  V30 5492 H 499.447 -5.41743 0.937812 0
M  V30 5493 H 500.672 -6.70381 1.08469 0
M  V30 5494 H 498.618 -6.45913 -1.14595 0
M  V30 5495 H 498.535 -7.55756 0.19209 0
M  V30 5496 H 499.803 -7.73263 -0.984124 0
M  V30 5497 N 504.032 -0.577932 -1.46621 0
M  V30 5498 C 505.281 -0.0594281 -2.01612 0
M  V30 5499 C 505.594 1.30663 -1.45556 0
M  V30 5500 O 506.8 1.91621 -1.92337 0
M  V30 5501 C 505.256 -0.0556666 -3.59857 0
M  V30 5502 C 504.864 -1.41975 -4.24908 0
M  V30 5503 C 506.608 0.409143 -4.22524 0
M  V30 5504 C 504.515 -1.37397 -5.75218 0
M  V30 5505 H 503.445 -0.0184469 -0.753774 0
M  V30 5506 H 506.096 -0.728869 -1.68404 0
M  V30 5507 H 504.478 0.679843 -3.90121 0
M  V30 5508 H 505.652 -2.17461 -4.0626 0
M  V30 5509 H 503.967 -1.82419 -3.74316 0
M  V30 5510 H 506.564 0.46211 -5.32699 0
M  V30 5511 H 506.907 1.42565 -3.91128 0
M  V30 5512 H 507.44 -0.272152 -3.96868 0
M  V30 5513 H 504.179 -2.36714 -6.11267 0
M  V30 5514 H 503.699 -0.661239 -5.96144 0
M  V30 5515 H 505.378 -1.08484 -6.3784 0
M  V30 5516 N 505.51 1.54411 -0.315457 0
M  V30 5517 C 506.735 2.05299 0.294496 0
M  V30 5518 C 507.16 1.19052 1.4563 0
M  V30 5519 O 506.518 0.197804 1.80218 0
M  V30 5520 C 506.566 3.5345 0.714549 0
M  V30 5521 O 505.67 3.70175 1.81781 0
M  V30 5522 H 505.011 0.661743 0.0547019 0
M  V30 5523 H 507.541 1.99327 -0.461508 0
M  V30 5524 H 507.551 3.9557 0.999426 0
M  V30 5525 H 506.226 4.1568 -0.135244 0
M  V30 5526 H 504.803 3.3996 1.53236 0
M  V30 5527 N 506.988 0.0434614 1.5754 0
M  V30 5528 C 508.236 -0.630786 1.92004 0
M  V30 5529 C 508.557 -1.71836 0.921807 0
M  V30 5530 O 507.827 -1.9587 -0.034522 0
M  V30 5531 H 506.407 -0.235988 0.708745 0
M  V30 5532 H 509.069 0.0946462 1.9467 0
M  V30 5533 H 508.165 -1.07434 2.93026 0
M  V30 5534 N 508.466 -1.55915 -0.229846 0
M  V30 5535 C 509.743 -1.6932 -0.979295 0
M  V30 5536 C 510.123 -0.588321 -2.02736 0
M  V30 5537 O 509.471 0.40586 -2.24867 0
M  V30 5538 C 509.681 -3.10305 -1.59724 0
M  V30 5539 C 511.029 -3.6945 -2.09264 0
M  V30 5540 O 512.053 -3.13214 -1.69633 0
M  V30 5541 O 510.912 -4.68072 -2.82082 0
M  V30 5542 H 508.006 -0.689314 -0.456919 0
M  V30 5543 H 510.552 -1.68238 -0.222283 0
M  V30 5544 H 509.324 -3.82177 -0.840039 0
M  V30 5545 H 508.947 -3.1547 -2.42001 0
M  V30 5546 N 509.944 0.496216 -1.49584 0
M  V30 5547 C 511.19 1.25189 -1.59548 0
M  V30 5548 C 511.523 1.9212 -0.283466 0
M  V30 5549 O 510.798 1.80947 0.713324 0
M  V30 5550 C 511.081 2.31516 -2.75812 0
M  V30 5551 C 510.934 1.69054 -4.16822 0
M  V30 5552 C 512.253 3.3304 -2.87702 0
M  V30 5553 H 509.372 0.45379 -0.580727 0
M  V30 5554 H 512.014 0.549327 -1.81886 0
M  V30 5555 H 510.164 2.91438 -2.56897 0
M  V30 5556 H 511.836 1.12923 -4.47265 0
M  V30 5557 H 510.079 0.994485 -4.22247 0
M  V30 5558 H 510.75 2.462 -4.94054 0
M  V30 5559 H 513.226 2.83114 -3.04936 0
M  V30 5560 H 512.102 4.04794 -3.7072 0
M  V30 5561 H 512.363 3.95655 -1.97255 0
M  V30 5562 N 511.423 1.38739 0.74761 0
M  V30 5563 C 512.356 1.3083 1.86972 0
M  V30 5564 C 513.334 0.184229 1.61553 0
M  V30 5565 O 514.518 0.36256 1.8498 0
M  V30 5566 C 511.645 1.02854 3.22705 0
M  V30 5567 C 510.691 2.17281 3.67003 0
M  V30 5568 S 511.524 3.79468 3.77842 0
M  V30 5569 C 512.68 3.53692 5.16385 0
M  V30 5570 H 512.913 2.258 1.93395 0
M  V30 5571 H 510.446 1.24646 0.911199 0
M  V30 5572 H 512.404 0.87397 4.01089 0
M  V30 5573 H 511.065 0.0959295 3.13953 0
M  V30 5574 H 510.258 1.93267 4.65472 0
M  V30 5575 H 509.86 2.28876 2.9579 0
M  V30 5576 H 512.152 3.10176 6.02327 0
M  V30 5577 H 513.095 4.51576 5.45422 0
M  V30 5578 H 513.503 2.8807 4.85464 0
M  V30 5579 N 512.901 -0.976442 1.23707 0
M  V30 5580 C 513.849 -2.09078 1.01927 0
M  V30 5581 C 514.843 -1.69345 -0.0430193 0
M  V30 5582 O 516.049 -1.79659 0.110814 0
M  V30 5583 H 512.424 -0.68398 0.312531 0
M  V30 5584 H 514.395 -2.24614 1.96447 0
M  V30 5585 C 513.144 -3.41919 0.631385 0
M  V30 5586 H 512.467 -3.72946 1.44053 0
M  V30 5587 H 513.907 -4.20817 0.518532 0
M  V30 5588 C 512.366 -3.30357 -0.660723 0
M  V30 5589 O 512.896 -3.63542 -1.70881 0
M  V30 5590 N 511.102 -2.83507 -0.638139 0
M  V30 5591 H 510.649 -2.567 0.215108 0
M  V30 5592 H 510.607 -2.76153 -1.50289 0
M  V30 5593 N 514.379 -1.04941 -1.1758 0
M  V30 5594 C 515.289 -0.658826 -2.25159 0
M  V30 5595 C 516.305 0.318941 -1.71052 0
M  V30 5596 O 517.481 0.171669 -2.00667 0
M  V30 5597 C 514.546 -0.0369522 -3.4668 0
M  V30 5598 C 513.607 -1.06484 -4.15884 0
M  V30 5599 C 512.84 -0.472551 -5.31604 0
M  V30 5600 O 513.063 0.718736 -5.65854 0
M  V30 5601 O 511.997 -1.20557 -5.89703 0
M  V30 5602 H 515.823 -1.55533 -2.60851 0
M  V30 5603 H 513.408 -0.820819 -1.24832 0
M  V30 5604 H 515.29 0.308784 -4.20267 0
M  V30 5605 H 513.965 0.833238 -3.12792 0
M  V30 5606 H 512.872 -1.46253 -3.44327 0
M  V30 5607 H 514.205 -1.9061 -4.53794 0
M  V30 5608 N 515.857 1.33968 -0.830081 0
M  V30 5609 C 516.805 2.31301 -0.245435 0
M  V30 5610 C 517.799 1.57734 0.617762 0
M  V30 5611 O 519.005 1.72674 0.508303 0
M  V30 5612 H 515.38 0.749552 -0.0606316 0
M  V30 5613 H 517.351 2.78129 -1.08105 0
M  V30 5614 C 516.1 3.42961 0.572084 0
M  V30 5615 H 515.423 3.99714 -0.0828118 0
M  V30 5616 H 516.863 4.13286 0.94715 0
M  V30 5617 C 515.322 2.88043 1.74737 0
M  V30 5618 O 515.852 2.83508 2.8458 0
M  V30 5619 N 514.058 2.44768 1.56642 0
M  V30 5620 H 513.605 2.48656 0.672901 0
M  V30 5621 H 513.563 2.08375 2.3543 0
M  V30 5622 N 517.335 0.585699 1.46312 0
M  V30 5623 C 518.283 -0.158577 2.32059 0
M  V30 5624 C 519.277 -0.881427 1.44662 0
M  V30 5625 O 520.483 -0.799476 1.61271 0
M  V30 5626 H 516.858 -0.0700066 0.748734 0
M  V30 5627 H 518.829 0.583383 2.92642 0
M  V30 5628 C 517.578 -1.15701 3.27885 0
M  V30 5629 H 516.901 -0.610215 3.95116 0
M  V30 5630 H 518.341 -1.64812 3.90657 0
M  V30 5631 C 516.8 -2.21951 2.53455 0
M  V30 5632 O 517.33 -3.29352 2.29978 0
M  V30 5633 N 515.536 -1.9664 2.13965 0
M  V30 5634 H 515.083 -1.09309 2.33258 0
M  V30 5635 H 515.041 -2.6794 1.64485 0
M  V30 5636 N 518.813 -1.54241 0.323641 0
M  V30 5637 C 520.224 -1.85975 -0.164405 0
M  V30 5638 C 520.575 -1.24529 -1.51615 0
M  V30 5639 O 519.7 -0.551351 -2.09258 0
M  V30 5640 C 520.295 -3.37424 -0.305091 0
M  V30 5641 C 518.854 -3.69107 -0.737358 0
M  V30 5642 C 518.001 -2.76942 0.140884 0
M  V30 5643 H 520.952 -1.49088 0.543922 0
M  V30 5644 H 520.973 -3.63147 -1.13598 0
M  V30 5645 H 520.485 -3.82116 0.678876 0
M  V30 5646 H 518.586 -3.29947 -1.73107 0
M  V30 5647 H 518.699 -4.76035 -0.541053 0
M  V30 5648 H 517.063 -2.51795 -0.383572 0
M  V30 5649 H 517.846 -3.24461 1.12162 0
M  V30 5650 N 520.291 -0.0518155 -1.57515 0
M  V30 5651 C 521.702 0.483787 -1.80323 0
M  V30 5652 C 522.053 1.70879 -0.964099 0
M  V30 5653 O 521.178 2.15643 -0.180872 0
M  V30 5654 C 521.773 0.884459 -3.27052 0
M  V30 5655 C 520.332 1.36504 -3.50776 0
M  V30 5656 C 519.479 0.340539 -2.75201 0
M  V30 5657 H 522.43 -0.277691 -1.56252 0
M  V30 5658 H 522.451 1.74733 -3.38007 0
M  V30 5659 H 521.963 -0.00731093 -3.88099 0
M  V30 5660 H 520.064 2.27598 -2.95009 0
M  V30 5661 H 520.177 1.35675 -4.59488 0
M  V30 5662 H 518.541 0.81356 -2.41357 0
M  V30 5663 H 519.324 -0.543156 -3.38976 0
M  V30 5664 N 521.769 1.56035 0.221574 0
M  V30 5665 C 522.702 1.87427 1.30178 0
M  V30 5666 C 523.68 0.731658 1.45209 0
M  V30 5667 O 524.864 0.980016 1.61022 0
M  V30 5668 C 521.991 2.08127 2.67209 0
M  V30 5669 C 521.037 3.30813 2.69194 0
M  V30 5670 S 521.87 4.86738 2.23263 0
M  V30 5671 C 523.026 5.10474 3.62171 0
M  V30 5672 H 523.259 2.78756 1.03355 0
M  V30 5673 H 520.792 1.48469 0.423813 0
M  V30 5674 H 522.75 2.20736 3.46101 0
M  V30 5675 H 521.411 1.17595 2.91256 0
M  V30 5676 H 520.604 3.42341 3.6989 0
M  V30 5677 H 520.206 3.1706 1.98366 0
M  V30 5678 H 522.498 4.9937 4.5786 0
M  V30 5679 H 523.441 6.12359 3.55558 0
M  V30 5680 H 523.849 4.38208 3.55857 0
M  V30 5681 N 523.247 -0.488276 1.49845 0
M  V30 5682 C 524.18 -1.60651 1.62069 0
M  V30 5683 C 525.158 -1.5568 0.469308 0
M  V30 5684 O 526.342 -1.75553 0.686551 0
M  V30 5685 C 523.469 -2.99197 1.58741 0
M  V30 5686 C 522.515 -3.22385 2.79232 0
M  V30 5687 S 523.348 -3.04133 4.40753 0
M  V30 5688 C 524.504 -4.45052 4.4009 0
M  V30 5689 H 524.737 -1.50039 2.56662 0
M  V30 5690 H 522.27 -0.674371 1.38894 0
M  V30 5691 H 524.228 -3.79081 1.57506 0
M  V30 5692 H 522.889 -3.07213 0.654136 0
M  V30 5693 H 522.082 -4.23557 2.73159 0
M  V30 5694 H 521.684 -2.50245 2.77945 0
M  V30 5695 H 523.976 -5.37375 4.12594 0
M  V30 5696 H 524.919 -4.56172 5.41583 0
M  V30 5697 H 525.327 -4.26327 3.70008 0
M  V30 5698 N 524.725 -1.39134 -0.740242 0
M  V30 5699 C 525.655 -1.40165 -1.86751 0
M  V30 5700 C 526.636 -0.265708 -1.68012 0
M  V30 5701 O 527.821 -0.47076 -1.88408 0
M  V30 5702 C 524.951 -1.2392 -3.2444 0
M  V30 5703 C 523.905 -2.34858 -3.57807 0
M  V30 5704 C 523.231 -2.03707 -4.94376 0
M  V30 5705 C 524.531 -3.77159 -3.61315 0
M  V30 5706 H 526.225 -2.345 -1.86145 0
M  V30 5707 H 523.771 -1.12875 -0.89416 0
M  V30 5708 H 525.724 -1.23263 -4.02969 0
M  V30 5709 H 524.448 -0.26051 -3.25559 0
M  V30 5710 H 523.107 -2.34723 -2.81604 0
M  V30 5711 H 522.755 -1.04289 -4.9207 0
M  V30 5712 H 522.455 -2.78016 -5.17669 0
M  V30 5713 H 523.979 -2.04691 -5.75268 0
M  V30 5714 H 525.393 -3.79252 -4.29931 0
M  V30 5715 H 523.79 -4.50784 -3.96124 0
M  V30 5716 H 524.86 -4.08513 -2.61238 0
M  V30 5717 N 526.204 0.969867 -1.24223 0
M  V30 5718 C 527.615 1.52717 -1.07399 0
M  V30 5719 C 527.966 1.92956 0.355298 0
M  V30 5720 O 527.091 1.77112 1.2434 0
M  V30 5721 C 527.686 2.77521 -1.94339 0
M  V30 5722 C 526.245 3.29615 -1.81744 0
M  V30 5723 C 525.392 2.02537 -1.89405 0
M  V30 5724 H 528.343 0.788399 -1.37732 0
M  V30 5725 H 528.364 3.50773 -1.47439 0
M  V30 5726 H 527.876 2.48203 -2.98357 0
M  V30 5727 H 525.977 3.63789 -0.805505 0
M  V30 5728 H 526.09 3.98661 -2.65718 0
M  V30 5729 H 524.454 2.17151 -1.33108 0
M  V30 5730 H 525.237 1.75587 -2.94999 0
M  V30 5731 N 527.682 1.05563 1.17022 0
M  V30 5732 C 528.63 0.653887 2.2322 0
M  V30 5733 C 529.624 -0.326642 1.66221 0
M  V30 5734 O 530.83 -0.192301 1.7897 0
M  V30 5735 H 527.205 0.193297 0.726733 0
M  V30 5736 H 529.176 1.5596 2.54399 0
M  V30 5737 C 527.925 0.0485434 3.47666 0
M  V30 5738 H 527.248 0.79413 3.91834 0
M  V30 5739 H 528.688 -0.195133 4.23551 0
M  V30 5740 C 527.147 -1.20583 3.14581 0
M  V30 5741 O 527.677 -2.29475 3.29703 0
M  V30 5742 N 525.883 -1.10493 2.68774 0
M  V30 5743 H 525.43 -0.218795 2.56669 0
M  V30 5744 H 525.388 -1.94507 2.47011 0
M  V30 5745 N 529.16 -1.33526 0.837174 0
M  V30 5746 C 530.408 -1.97446 0.431211 0
M  V30 5747 C 530.729 -1.6665 -1.01255 0
M  V30 5748 O 529.999 -0.964559 -1.70508 0
M  V30 5749 H 528.579 -0.73043 0.156463 0
M  V30 5750 H 531.241 -1.62918 1.06976 0
M  V30 5751 H 530.337 -3.07001 0.561877 0
M  V30 5752 N 530.638 -0.59345 -1.46 0
M  V30 5753 C 531.868 -0.0889642 -2.06408 0
M  V30 5754 C 532.276 1.22597 -1.44106 0
M  V30 5755 O 531.619 1.75448 -0.544398 0
M  V30 5756 C 531.681 0.139902 -3.59228 0
M  V30 5757 C 531.345 -1.09107 -4.43784 0
M  V30 5758 C 532.342 -2.00577 -4.79651 0
M  V30 5759 C 530.027 -1.31593 -4.84756 0
M  V30 5760 C 532.021 -3.12873 -5.55328 0
M  V30 5761 C 529.708 -2.44192 -5.60191 0
M  V30 5762 C 530.706 -3.34661 -5.95392 0
M  V30 5763 O 530.394 -4.45302 -6.69299 0
M  V30 5764 H 530.126 -0.0594613 -0.67338 0
M  V30 5765 H 532.68 -0.817 -1.88452 0
M  V30 5766 H 530.91 0.922672 -3.75531 0
M  V30 5767 H 532.599 0.594228 -4.01527 0
M  V30 5768 H 533.365 -1.84425 -4.48567 0
M  V30 5769 H 529.244 -0.620801 -4.56801 0
M  V30 5770 H 532.788 -3.83511 -5.82722 0
M  V30 5771 H 528.685 -2.60303 -5.90688 0
M  V30 5772 H 529.453 -4.43805 -6.87735 0
M  V30 5773 N 532.116 1.54067 -0.331816 0
M  V30 5774 C 533.362 2.01012 0.268667 0
M  V30 5775 C 533.695 1.2195 1.51136 0
M  V30 5776 O 532.97 0.303972 1.9211 0
M  V30 5777 C 533.253 3.55158 0.59456 0
M  V30 5778 C 533.106 4.4494 -0.659409 0
M  V30 5779 C 534.425 4.16939 1.4089 0
M  V30 5780 H 531.544 0.730698 0.0961756 0
M  V30 5781 H 534.186 1.84593 -0.450031 0
M  V30 5782 H 532.336 3.6928 1.20685 0
M  V30 5783 H 534.008 4.42675 -1.29756 0
M  V30 5784 H 532.251 4.1428 -1.28665 0
M  V30 5785 H 532.922 5.50643 -0.386804 0
M  V30 5786 H 535.398 4.06443 0.891272 0
M  V30 5787 H 534.274 5.24889 1.60569 0
M  V30 5788 H 534.535 3.70798 2.40752 0
M  V30 5789 N 533.594 0.0601682 1.57485 0
M  V30 5790 C 534.824 -0.620037 1.97076 0
M  V30 5791 C 535.232 -1.64381 0.936784 0
M  V30 5792 O 534.575 -1.83497 -0.0863377 0
M  V30 5793 C 534.637 -1.35617 3.32939 0
M  V30 5794 C 534.301 -0.487208 4.54396 0
M  V30 5795 C 535.298 0.250428 5.19297 0
M  V30 5796 C 532.983 -0.415494 5.00579 0
M  V30 5797 C 534.977 1.04812 6.28723 0
M  V30 5798 C 532.664 0.385879 6.0988 0
M  V30 5799 C 533.662 1.11637 6.73815 0
M  V30 5800 O 533.35 1.90454 7.81014 0
M  V30 5801 H 533.082 -0.173664 0.653312 0
M  V30 5802 H 535.636 0.1256 2.05016 0
M  V30 5803 H 533.866 -2.14763 3.2158 0
M  V30 5804 H 535.555 -1.92749 3.57215 0
M  V30 5805 H 536.321 0.204546 4.84568 0
M  V30 5806 H 532.2 -0.973679 4.506 0
M  V30 5807 H 535.744 1.6188 6.78558 0
M  V30 5808 H 531.641 0.433366 6.44044 0
M  V30 5809 H 532.409 1.82762 7.97835 0
M  V30 5810 N 535.072 -1.5615 -0.213296 0
M  V30 5811 C 536.32 -1.79191 -0.934612 0
M  V30 5812 C 536.641 -0.630112 -1.84539 0
M  V30 5813 O 535.911 0.35257 -1.92701 0
M  V30 5814 H 534.491 -0.660937 -0.348097 0
M  V30 5815 H 537.153 -1.93618 -0.22317 0
M  V30 5816 H 536.249 -2.71656 -1.53654 0
M  V30 5817 N 536.55 0.480323 -1.50102 0
M  V30 5818 C 537.78 1.25475 -1.64133 0
M  V30 5819 C 538.188 1.8647 -0.320272 0
M  V30 5820 O 537.531 1.69561 0.70673 0
M  V30 5821 C 537.593 2.40996 -2.6676 0
M  V30 5822 C 537.257 2.00711 -4.10565 0
M  V30 5823 C 538.254 1.53492 -4.96725 0
M  V30 5824 C 535.939 2.09714 -4.56427 0
M  V30 5825 C 537.933 1.15806 -6.26792 0
M  V30 5826 C 535.62 1.7164 -5.86501 0
M  V30 5827 C 536.618 1.24763 -6.71508 0
M  V30 5828 O 536.306 0.872122 -7.99155 0
M  V30 5829 H 536.038 0.385983 -0.554971 0
M  V30 5830 H 538.592 0.580848 -1.97016 0
M  V30 5831 H 536.822 3.11528 -2.291 0
M  V30 5832 H 538.511 3.02981 -2.70106 0
M  V30 5833 H 539.277 1.45966 -4.62514 0
M  V30 5834 H 535.156 2.4515 -3.90413 0
M  V30 5835 H 538.7 0.791465 -6.93096 0
M  V30 5836 H 534.597 1.78822 -6.20236 0
M  V30 5837 H 535.365 1.00178 -8.12346 0
M  V30 5838 N 538.028 1.39524 0.732853 0
M  V30 5839 C 538.976 1.38563 1.86824 0
M  V30 5840 C 539.97 0.268467 1.67259 0
M  V30 5841 O 541.176 0.438613 1.74574 0
M  V30 5842 H 537.551 0.432737 0.615014 0
M  V30 5843 H 539.522 2.34328 1.84751 0
M  V30 5844 C 538.271 1.2481 3.24527 0
M  V30 5845 H 537.594 2.10044 3.40179 0
M  V30 5846 H 539.034 1.28194 4.04156 0
M  V30 5847 C 537.493 -0.0432825 3.36872 0
M  V30 5848 O 538.023 -1.01268 3.88726 0
M  V30 5849 N 536.229 -0.107055 2.90403 0
M  V30 5850 H 535.776 0.682512 2.48394 0
M  V30 5851 H 535.734 -0.970618 2.99042 0
M  V30 5852 N 539.506 -0.963266 1.24736 0
M  V30 5853 C 540.731 -1.74699 1.11781 0
M  V30 5854 C 541.156 -1.85267 -0.325258 0
M  V30 5855 O 540.514 -1.32681 -1.23553 0
M  V30 5856 C 540.562 -3.14322 1.76731 0
M  V30 5857 O 539.666 -3.99043 1.04109 0
M  V30 5858 H 539.007 -0.53684 0.390767 0
M  V30 5859 H 541.537 -1.20801 1.65131 0
M  V30 5860 H 541.547 -3.64824 1.82668 0
M  V30 5861 H 540.222 -3.05946 2.81726 0
M  V30 5862 H 538.799 -3.5752 1.05991 0
M  V30 5863 N 540.985 -1.06182 -1.16461 0
M  V30 5864 C 541.915 -0.692861 -2.22984 0
M  V30 5865 C 542.896 0.314122 -1.67174 0
M  V30 5866 O 544.081 0.189499 -1.93273 0
M  V30 5867 C 541.211 -0.07732 -3.47214 0
M  V30 5868 C 540.165 -1.01015 -4.15909 0
M  V30 5869 C 539.491 -0.257973 -5.34077 0
M  V30 5870 C 540.791 -2.33868 -4.67015 0
M  V30 5871 H 542.485 -1.58343 -2.54102 0
M  V30 5872 H 540.031 -0.76279 -1.22137 0
M  V30 5873 H 541.984 0.19266 -4.20959 0
M  V30 5874 H 540.708 0.848254 -3.15392 0
M  V30 5875 H 539.367 -1.26486 -3.44088 0
M  V30 5876 H 539.015 0.670684 -4.98509 0
M  V30 5877 H 538.715 -0.879638 -5.80979 0
M  V30 5878 H 540.239 0.00448788 -6.106 0
M  V30 5879 H 541.653 -2.1279 -5.32347 0
M  V30 5880 H 540.05 -2.91522 -5.24533 0
M  V30 5881 H 541.12 -2.97019 -3.83286 0
M  V30 5882 N 542.463 1.3308 -0.844243 0
M  V30 5883 C 543.393 2.3161 -0.296493 0
M  V30 5884 C 544.374 1.59215 0.598707 0
M  V30 5885 O 545.559 1.87077 0.521134 0
M  V30 5886 C 542.689 3.43313 0.524762 0
M  V30 5887 C 541.643 4.27115 -0.275106 0
M  V30 5888 C 540.969 5.30483 0.670236 0
M  V30 5889 C 542.269 5.00443 -1.49514 0
M  V30 5890 H 543.963 2.77672 -1.11976 0
M  V30 5891 H 541.509 1.33496 -0.539899 0
M  V30 5892 H 543.462 4.11273 0.918298 0
M  V30 5893 H 542.186 2.95952 1.3813 0
M  V30 5894 H 540.845 3.60787 -0.650267 0
M  V30 5895 H 540.493 4.79379 1.52332 0
M  V30 5896 H 540.193 5.87435 0.139123 0
M  V30 5897 H 541.717 6.01308 1.06117 0
M  V30 5898 H 543.131 5.61141 -1.17447 0
M  V30 5899 H 541.528 5.67071 -1.96343 0
M  V30 5900 H 542.598 4.28906 -2.26202 0
M  V30 5901 N 543.941 0.601185 1.45683 0
M  V30 5902 C 545.166 0.0982245 2.07167 0
M  V30 5903 C 545.591 -1.20546 1.44396 0
M  V30 5904 O 544.949 -1.73247 0.534347 0
M  V30 5905 C 544.997 -0.0346976 3.60583 0
M  V30 5906 O 544.101 -1.08657 3.97828 0
M  V30 5907 H 543.442 0.0711618 0.660176 0
M  V30 5908 H 545.972 0.829376 1.87036 0
M  V30 5909 H 545.982 -0.234969 4.07323 0
M  V30 5910 H 544.657 0.917265 4.05659 0
M  V30 5911 H 543.234 -0.863275 3.6277 0
M  V30 5912 N 545.419 -1.53889 0.339982 0
M  V30 5913 C 546.668 -2.00035 -0.258604 0
M  V30 5914 C 546.981 -1.23179 -1.51942 0
M  V30 5915 O 548.187 -1.59784 -2.19503 0
M  V30 5916 C 546.643 -3.56249 -0.511359 0
M  V30 5917 C 546.251 -4.41957 0.733349 0
M  V30 5918 C 547.995 -4.1082 -1.069 0
M  V30 5919 C 545.902 -5.89673 0.451591 0
M  V30 5920 H 544.832 -0.747284 -0.10041 0
M  V30 5921 H 547.483 -1.77776 0.454758 0
M  V30 5922 H 545.865 -3.7456 -1.28533 0
M  V30 5923 H 547.039 -4.35421 1.50815 0
M  V30 5924 H 545.354 -3.9836 1.21237 0
M  V30 5925 H 547.951 -5.18789 -1.2947 0
M  V30 5926 H 548.294 -3.63817 -2.02343 0
M  V30 5927 H 548.827 -3.96205 -0.355817 0
M  V30 5928 H 545.566 -6.40903 1.37565 0
M  V30 5929 H 545.086 -5.99122 -0.285193 0
M  V30 5930 H 546.765 -6.46965 0.0675067 0
M  V30 5931 N 546.897 -0.0685191 -1.57451 0
M  V30 5932 C 548.313 0.288101 -1.56978 0
M  V30 5933 C 548.513 1.70262 -1.07765 0
M  V30 5934 O 547.569 2.4135 -0.742054 0
M  V30 5935 C 548.882 0.100745 -3.00531 0
M  V30 5936 C 550.43 0.170531 -3.12535 0
M  V30 5937 C 550.905 0.0114944 -4.57999 0
M  V30 5938 N 552.396 0.0672065 -4.63151 0
M  V30 5939 C 553.131 -0.0314813 -5.73391 0
M  V30 5940 N 552.627 -0.183503 -6.92557 0
M  V30 5941 N 554.42 0.0253489 -5.62094 0
M  V30 5942 H 546.571 -0.993026 -1.87757 0
M  V30 5943 H 548.834 -0.386981 -0.865419 0
M  V30 5944 H 548.54 -0.875197 -3.40636 0
M  V30 5945 H 548.414 0.854457 -3.67395 0
M  V30 5946 H 550.801 1.13696 -2.72318 0
M  V30 5947 H 550.882 -0.614229 -2.48316 0
M  V30 5948 H 550.526 -0.951684 -4.98904 0
M  V30 5949 H 550.456 0.815617 -5.20245 0
M  V30 5950 H 552.947 0.183246 -3.77455 0
M  V30 5951 H 553.26 -0.251041 -7.72392 0
M  V30 5952 H 551.605 -0.218822 -6.94655 0
M  V30 5953 H 554.796 0.142794 -4.67882 0
M  V30 5954 H 554.969 -0.0550166 -6.47977 0
M  V30 5955 N 548.375 1.56261 0.205012 0
M  V30 5956 C 549.307 1.90266 1.27795 0
M  V30 5957 C 550.32 0.792397 1.42214 0
M  V30 5958 O 551.509 1.07077 1.42817 0
M  V30 5959 C 548.609 2.11074 2.65143 0
M  V30 5960 C 547.782 3.42176 2.7246 0
M  V30 5961 C 546.841 3.52216 3.90936 0
M  V30 5962 O 545.867 4.25119 3.78501 0
M  V30 5963 N 547.069 2.84573 5.05963 0
M  V30 5964 H 549.834 2.82896 0.989434 0
M  V30 5965 H 547.395 1.57008 0.394981 0
M  V30 5966 H 549.387 2.15089 3.4281 0
M  V30 5967 H 547.957 1.2499 2.86524 0
M  V30 5968 H 547.177 3.50116 1.81142 0
M  V30 5969 H 548.465 4.28509 2.74331 0
M  V30 5970 H 547.863 2.25152 5.18963 0
M  V30 5971 H 546.42 2.94228 5.81613 0
M  V30 5972 N 549.853 -0.472356 1.50355 0
M  V30 5973 C 551.13 -1.23356 1.51798 0
M  V30 5974 C 551.51 -2.09469 0.26193 0
M  V30 5975 O 550.858 -2.15677 -0.754691 0
M  V30 5976 C 551.068 -2.06568 2.81302 0
M  V30 5977 C 552.416 -2.648 3.31913 0
M  V30 5978 O 553.44 -2.16812 2.82614 0
M  V30 5979 O 552.299 -3.52231 4.17846 0
M  V30 5980 H 549.393 -0.559707 0.608816 0
M  V30 5981 H 551.939 -0.48428 1.62643 0
M  V30 5982 H 550.711 -1.43103 3.64194 0
M  V30 5983 H 550.334 -2.88633 2.73454 0
M  V30 5984 N 551.331 -1.39911 -0.725443 0
M  V30 5985 C 552.608 -1.28158 -1.47766 0
M  V30 5986 C 552.988 0.104545 -2.10841 0
M  V30 5987 O 552.336 1.11657 -1.99361 0
M  V30 5988 C 552.546 -2.41306 -2.52135 0
M  V30 5989 C 553.894 -2.81076 -3.18247 0
M  V30 5990 O 554.918 -2.40827 -2.62452 0
M  V30 5991 O 553.777 -3.50581 -4.19231 0
M  V30 5992 H 550.871 -0.502761 -0.656628 0
M  V30 5993 H 553.417 -1.51808 -0.758456 0
M  V30 5994 H 552.189 -3.33932 -2.03974 0
M  V30 5995 H 551.812 -2.19374 -3.31603 0
M  V30 5996 N 552.809 0.956637 -1.25245 0
M  V30 5997 C 553.756 2.053 -1.05454 0
M  V30 5998 C 554.726 1.66062 0.0356889 0
M  V30 5999 O 555.911 1.90415 -0.121099 0
M  V30 6000 C 553.051 3.38391 -0.677191 0
M  V30 6001 C 552.164 3.90758 -1.84206 0
M  V30 6002 C 551.299 5.12165 -1.40926 0
M  V30 6003 C 550.338 5.56757 -2.54338 0
M  V30 6004 N 549.475 6.69376 -2.11848 0
M  V30 6005 H 554.315 2.21562 -1.99284 0
M  V30 6006 H 551.852 1.08578 -0.992434 0
M  V30 6007 H 553.81 4.1488 -0.43938 0
M  V30 6008 H 552.44 3.22021 0.224127 0
M  V30 6009 H 551.492 3.10808 -2.19323 0
M  V30 6010 H 552.804 4.19802 -2.69383 0
M  V30 6011 H 551.958 5.96065 -1.13098 0
M  V30 6012 H 550.697 4.84832 -0.528175 0
M  V30 6013 H 549.702 4.71423 -2.82913 0
M  V30 6014 H 550.927 5.861 -3.43022 0
M  V30 6015 H 548.873 6.43756 -1.26153 0
M  V30 6016 H 548.79 6.97927 -2.90574 0
M  V30 6017 H 550.058 7.5669 -1.87191 0
M  V30 6018 N 554.287 1.06798 1.15896 0
M  V30 6019 C 555.533 0.788934 1.86825 0
M  V30 6020 C 555.866 -0.683084 1.8179 0
M  V30 6021 O 555.141 -1.50086 1.23711 0
M  V30 6022 C 555.424 1.29065 3.36176 0
M  V30 6023 C 555.277 2.8268 3.49874 0
M  V30 6024 C 556.596 0.902655 4.30744 0
M  V30 6025 H 553.715 0.288066 0.678371 0
M  V30 6026 H 556.357 1.32479 1.36195 0
M  V30 6027 H 554.507 0.834806 3.79425 0
M  V30 6028 H 556.179 3.36511 3.15528 0
M  V30 6029 H 554.422 3.21157 2.91617 0
M  V30 6030 H 555.093 3.12852 4.54783 0
M  V30 6031 H 557.569 1.29535 3.95424 0
M  V30 6032 H 556.445 1.28111 5.3374 0
M  V30 6033 H 556.706 -0.191951 4.41683 0
M  V30 6034 N 555.766 -1.3263 0.851289 0
M  V30 6035 C 557.012 -1.9766 0.453694 0
M  V30 6036 C 557.345 -1.67225 -0.987396 0
M  V30 6037 O 556.62 -0.958693 -1.69232 0
M  V30 6038 C 556.903 -3.5344 0.68936 0
M  V30 6039 C 556.756 -3.93517 2.17862 0
M  V30 6040 C 558.075 -4.39866 0.143555 0
M  V30 6041 H 555.194 -0.717989 0.166314 0
M  V30 6042 H 557.836 -1.57068 1.06909 0
M  V30 6043 H 555.986 -3.88147 0.165546 0
M  V30 6044 H 557.658 -3.69006 2.76826 0
M  V30 6045 H 555.901 -3.42798 2.65841 0
M  V30 6046 H 556.572 -5.02065 2.29422 0
M  V30 6047 H 559.048 -4.11875 0.591451 0
M  V30 6048 H 557.924 -5.47858 0.338043 0
M  V30 6049 H 558.185 -4.31696 -0.953466 0
M  V30 6050 N 557.244 -0.608902 -1.45362 0
M  V30 6051 C 558.484 -0.10763 -2.04116 0
M  V30 6052 C 558.848 1.23883 -1.46686 0
M  V30 6053 O 560.049 1.83091 -1.96803 0
M  V30 6054 C 558.32 -0.0703351 -3.57331 0
M  V30 6055 S 559.879 0.369554 -4.37241 0
M  V30 6056 H 556.697 -0.0502123 -0.709225 0
M  V30 6057 H 559.299 -0.8073 -1.78053 0
M  V30 6058 H 558.003 -1.05379 -3.9664 0
M  V30 6059 H 557.534 0.651287 -3.87971 0
M  V30 6060 H 559.549 1.61878 -4.69052 0
M  V30 6061 N 558.722 1.53707 -0.348139 0
M  V30 6062 C 560.133 1.86213 0.134797 0
M  V30 6063 C 560.484 1.26925 1.49614 0
M  V30 6064 O 559.609 0.584573 2.08355 0
M  V30 6065 C 560.204 3.37866 0.251371 0
M  V30 6066 C 558.763 3.70233 0.678543 0
M  V30 6067 C 557.91 2.76683 -0.184925 0
M  V30 6068 H 560.861 1.48204 -0.567571 0
M  V30 6069 H 560.882 3.64908 1.07806 0
M  V30 6070 H 560.394 3.80988 -0.739581 0
M  V30 6071 H 558.495 3.32659 1.67835 0
M  V30 6072 H 558.608 4.76836 0.465251 0
M  V30 6073 H 556.972 2.52374 0.343465 0
M  V30 6074 H 557.755 3.22635 -1.1731 0
M  V30 6075 N 560.2 0.0768682 1.57412 0
M  V30 6076 C 561.616 -0.279772 1.57129 0
M  V30 6077 C 561.816 -1.69688 1.08666 0
M  V30 6078 O 560.872 -2.40953 0.754843 0
M  V30 6079 C 562.185 -0.0848055 3.0058 0
M  V30 6080 C 563.733 -0.153954 3.12621 0
M  V30 6081 C 564.208 0.0127946 4.57998 0
M  V30 6082 N 565.699 -0.0426435 4.6318 0
M  V30 6083 C 566.434 0.0618892 5.73367 0
M  V30 6084 N 565.93 0.220229 6.9245 0
M  V30 6085 N 567.723 0.00446072 5.621 0
M  V30 6086 H 559.874 1.00297 1.87228 0
M  V30 6087 H 562.137 0.391565 0.863354 0
M  V30 6088 H 561.843 0.89325 3.40168 0
M  V30 6089 H 561.717 -0.834961 3.67843 0
M  V30 6090 H 564.104 -1.1225 2.72917 0
M  V30 6091 H 564.185 0.627389 2.47987 0
M  V30 6092 H 563.829 0.978128 4.98392 0
M  V30 6093 H 563.759 -0.788016 5.20671 0
M  V30 6094 H 566.25 -0.163226 3.77547 0
M  V30 6095 H 566.563 0.291999 7.72248 0
M  V30 6096 H 564.908 0.255658 6.9453 0
M  V30 6097 H 568.099 -0.117979 4.67951 0
M  V30 6098 H 568.272 0.0893796 6.47938 0
M  V30 6099 N 561.678 -1.56367 -0.196722 0
M  V30 6100 C 562.906 -1.84639 -0.933608 0
M  V30 6101 C 563.321 -0.659164 -1.76919 0
M  V30 6102 O 562.678 0.372142 -1.78665 0
M  V30 6103 C 562.729 -3.11694 -1.83109 0
M  V30 6104 O 562.45 -4.25838 -1.02924 0
M  V30 6105 C 563.951 -3.53132 -2.67979 0
M  V30 6106 H 561.171 -0.613188 -0.272473 0
M  V30 6107 H 563.715 -2.03475 -0.204465 0
M  V30 6108 H 561.87 -2.94759 -2.51387 0
M  V30 6109 H 562.284 -4.98178 -1.64069 0
M  V30 6110 H 563.758 -4.45005 -3.26611 0
M  V30 6111 H 564.235 -2.76045 -3.41608 0
M  V30 6112 H 564.841 -3.72592 -2.05074 0
M  V30 6113 N 563.156 0.464375 -1.50603 0
M  V30 6114 C 564.103 1.56152 -1.69956 0
M  V30 6115 C 565.073 1.57046 -0.54091 0
M  V30 6116 O 566.258 1.74473 -0.772258 0
M  V30 6117 C 563.398 2.94079 -1.80586 0
M  V30 6118 C 562.511 3.02923 -3.07996 0
M  V30 6119 C 561.646 4.31806 -3.09382 0
M  V30 6120 C 560.685 4.34417 -4.31218 0
M  V30 6121 N 559.822 5.54782 -4.30304 0
M  V30 6122 H 564.662 1.38955 -2.6362 0
M  V30 6123 H 562.199 0.675482 -1.30674 0
M  V30 6124 H 564.157 3.74073 -1.8473 0
M  V30 6125 H 562.787 3.09896 -0.903556 0
M  V30 6126 H 561.839 2.1576 -3.13292 0
M  V30 6127 H 563.151 3.00712 -3.97962 0
M  V30 6128 H 562.305 5.20153 -3.12292 0
M  V30 6129 H 561.044 4.36636 -2.17257 0
M  V30 6130 H 560.049 3.44467 -4.28512 0
M  V30 6131 H 561.274 4.31273 -5.24576 0
M  V30 6132 H 559.22 5.60384 -3.41037 0
M  V30 6133 H 559.137 5.54339 -5.14047 0
M  V30 6134 H 560.405 6.45235 -4.3737 0
M  V30 6135 N 564.634 1.40294 0.718013 0
M  V30 6136 C 565.544 1.42678 1.86226 0
M  V30 6137 C 566.56 0.319655 1.71039 0
M  V30 6138 O 567.736 0.563852 1.93346 0
M  V30 6139 C 564.801 1.2852 3.21999 0
M  V30 6140 C 563.862 2.49354 3.49458 0
M  V30 6141 C 563.095 2.35863 4.78753 0
M  V30 6142 O 563.318 1.37114 5.53675 0
M  V30 6143 O 562.252 3.25189 5.06494 0
M  V30 6144 H 566.078 2.39167 1.87171 0
M  V30 6145 H 563.663 1.2159 0.868112 0
M  V30 6146 H 565.545 1.22824 4.03103 0
M  V30 6147 H 564.22 0.351359 3.21787 0
M  V30 6148 H 563.127 2.60628 2.68373 0
M  V30 6149 H 564.46 3.41491 3.54464 0
M  V30 6150 N 566.112 -0.949982 1.2575 0
M  V30 6151 C 567.358 -1.69766 1.10938 0
M  V30 6152 C 567.691 -1.91056 -0.348028 0
M  V30 6153 O 566.966 -1.48488 -1.25625 0
M  V30 6154 C 567.249 -3.07779 1.86933 0
M  V30 6155 C 567.102 -2.9387 3.4053 0
M  V30 6156 C 568.421 -4.07749 1.65616 0
M  V30 6157 H 565.54 -0.616144 0.404396 0
M  V30 6158 H 568.182 -1.10394 1.54639 0
M  V30 6159 H 566.332 -3.58462 1.4979 0
M  V30 6160 H 568.004 -2.50476 3.87375 0
M  V30 6161 H 566.247 -2.29686 3.68004 0
M  V30 6162 H 566.918 -3.91719 3.88922 0
M  V30 6163 H 569.394 -3.65994 1.97959 0
M  V30 6164 H 568.27 -5.02348 2.21218 0
M  V30 6165 H 568.531 -4.38029 0.598595 0
M  V30 6166 N 567.59 -1.07411 -1.15328 0
M  V30 6167 C 568.837 -0.797649 -1.86128 0
M  V30 6168 C 569.165 0.676298 -1.82364 0
M  V30 6169 O 568.42 1.51223 -1.24218 0
M  V30 6170 C 568.719 -1.25191 -3.34757 0
M  V30 6171 C 568.385 -2.73191 -3.58716 0
M  V30 6172 C 567.047 -3.13616 -3.64964 0
M  V30 6173 C 569.399 -3.68718 -3.6837 0
M  V30 6174 C 566.727 -4.48383 -3.78377 0
M  V30 6175 C 569.079 -5.03248 -3.83306 0
M  V30 6176 C 567.743 -5.43293 -3.878 0
M  V30 6177 H 567.013 -0.29188 -0.681092 0
M  V30 6178 H 569.66 -1.34524 -1.36292 0
M  V30 6179 H 567.965 -0.623712 -3.86804 0
M  V30 6180 H 569.662 -1.01489 -3.87945 0
M  V30 6181 H 566.252 -2.40898 -3.54494 0
M  V30 6182 H 570.436 -3.38614 -3.62842 0
M  V30 6183 H 565.692 -4.78877 -3.80114 0
M  V30 6184 H 569.866 -5.77142 -3.89718 0
M  V30 6185 H 567.493 -6.47721 -3.97946 0
M  V30 6186 N 569.068 1.32177 -0.85831 0
M  V30 6187 C 570.018 2.26307 -0.277307 0
M  V30 6188 C 571.002 1.50123 0.578946 0
M  V30 6189 O 572.194 1.71754 0.427731 0
M  V30 6190 C 569.323 3.39181 0.530232 0
M  V30 6191 C 568.409 4.22746 -0.338613 0
M  V30 6192 N 568.8 4.85265 -1.4266 0
M  V30 6193 C 567.098 4.45813 -0.129 0
M  V30 6194 C 567.799 5.47634 -1.96142 0
M  V30 6195 N 566.775 5.28794 -1.26007 0
M  V30 6196 H 570.577 2.72173 -1.10902 0
M  V30 6197 H 568.091 1.46308 -0.704816 0
M  V30 6198 H 570.088 4.05628 0.962904 0
M  V30 6199 H 568.748 2.9486 1.35969 0
M  V30 6200 H 569.759 4.85259 -1.80953 0
M  V30 6201 H 566.436 4.12163 0.665451 0
M  V30 6202 H 567.826 6.0735 -2.8736 0
M  V30 6203 N 570.547 0.616602 1.45037 0
M  V30 6204 C 571.794 0.115331 2.02171 0
M  V30 6205 C 572.122 -1.25748 1.48383 0
M  V30 6206 O 571.377 -1.84511 0.652229 0
M  V30 6207 C 571.676 0.0356829 3.57382 0
M  V30 6208 C 571.342 1.34535 4.30362 0
M  V30 6209 C 570.004 1.70408 4.50016 0
M  V30 6210 C 572.356 2.21049 4.72003 0
M  V30 6211 C 569.684 2.92529 5.0857 0
M  V30 6212 C 572.036 3.42427 5.31908 0
M  V30 6213 C 570.7 3.78541 5.49784 0
M  V30 6214 H 569.97 0.0422024 0.739797 0
M  V30 6215 H 572.617 0.80002 1.73988 0
M  V30 6216 H 570.922 -0.732314 3.84895 0
M  V30 6217 H 572.619 -0.368463 3.99304 0
M  V30 6218 H 569.209 1.05615 4.15383 0
M  V30 6219 H 573.393 1.94632 4.56544 0
M  V30 6220 H 568.649 3.20605 5.20598 0
M  V30 6221 H 572.823 4.09709 5.63127 0
M  V30 6222 H 570.45 4.73255 5.94923 0
M  V30 6223 N 572.025 -1.5352 0.356285 0
M  V30 6224 C 573.25 -2.06007 -0.239961 0
M  V30 6225 C 573.675 -1.22872 -1.42422 0
M  V30 6226 O 573.033 -0.245516 -1.7963 0
M  V30 6227 C 573.081 -3.5522 -0.620587 0
M  V30 6228 O 572.185 -3.74864 -1.71902 0
M  V30 6229 H 571.526 -0.662961 -0.0371377 0
M  V30 6230 H 574.056 -1.98033 0.514194 0
M  V30 6231 H 574.066 -3.98081 -0.894197 0
M  V30 6232 H 572.741 -4.15175 0.245407 0
M  V30 6233 H 571.318 -3.43904 -1.44169 0
M  V30 6234 N 573.503 -0.0852151 -1.57369 0
M  V30 6235 C 574.435 0.907099 -2.10486 0
M  V30 6236 C 575.448 1.25259 -1.03991 0
M  V30 6237 O 576.637 1.20743 -1.31467 0
M  V30 6238 C 573.737 2.21908 -2.56145 0
M  V30 6239 C 572.91 2.05042 -3.86363 0
M  V30 6240 C 571.969 3.19664 -4.17973 0
M  V30 6241 O 570.995 2.94062 -4.87356 0
M  V30 6242 N 572.197 4.45151 -3.72587 0
M  V30 6243 H 574.962 0.453505 -2.96249 0
M  V30 6244 H 572.523 0.100157 -1.6159 0
M  V30 6245 H 574.515 2.97519 -2.74343 0
M  V30 6246 H 573.085 2.58723 -1.75446 0
M  V30 6247 H 572.305 1.13819 -3.77411 0
M  V30 6248 H 573.593 1.91039 -4.71574 0
M  V30 6249 H 572.991 4.68834 -3.16561 0
M  V30 6250 H 571.548 5.17744 -3.9596 0
M  V30 6251 N 574.981 1.5647 0.188427 0
M  V30 6252 C 575.944 1.9421 1.21718 0
M  V30 6253 C 576.944 0.823901 1.38089 0
M  V30 6254 O 578.134 1.09122 1.35787 0
M  V30 6255 C 575.266 2.22197 2.58537 0
M  V30 6256 H 576.459 2.86252 0.894418 0
M  V30 6257 H 574.012 1.50263 0.430211 0
M  V30 6258 H 574.747 1.32814 2.95856 0
M  V30 6259 H 574.532 3.03688 2.48025 0
M  V30 6260 H 576.022 2.52376 3.3271 0
M  V30 6261 N 576.459 -0.456382 1.50847 0
M  V30 6262 C 577.369 -1.57805 1.73594 0
M  V30 6263 C 578.385 -1.62599 0.619476 0
M  V30 6264 O 579.561 -1.80195 0.899532 0
M  V30 6265 C 576.626 -2.93926 1.8387 0
M  V30 6266 C 575.687 -2.99402 3.07663 0
M  V30 6267 C 574.92 -4.29031 3.1744 0
M  V30 6268 O 575.143 -5.20358 2.33631 0
M  V30 6269 O 574.077 -4.40401 4.10281 0
M  V30 6270 H 577.903 -1.41531 2.68705 0
M  V30 6271 H 575.488 -0.637422 1.3512 0
M  V30 6272 H 577.37 -3.74747 1.92725 0
M  V30 6273 H 576.045 -3.10368 0.91944 0
M  V30 6274 H 574.952 -2.17606 3.043 0
M  V30 6275 H 576.285 -2.87901 3.99216 0
M  V30 6276 N 577.937 -1.40673 -0.710563 0
M  V30 6277 C 578.884 -1.41336 -1.82463 0
M  V30 6278 C 579.854 -0.269648 -1.63897 0
M  V30 6279 O 581.039 -0.468463 -1.8496 0
M  V30 6280 C 578.179 -1.28665 -3.20218 0
M  V30 6281 C 577.292 -2.52784 -3.5032 0
M  V30 6282 C 576.427 -2.32517 -4.77608 0
M  V30 6283 C 575.466 -3.52187 -5.0063 0
M  V30 6284 N 574.603 -3.31084 -6.19135 0
M  V30 6285 H 579.443 -2.36558 -1.8123 0
M  V30 6286 H 576.98 -1.17483 -0.885226 0
M  V30 6287 H 578.938 -1.19324 -3.99772 0
M  V30 6288 H 577.568 -0.370602 -3.20666 0
M  V30 6289 H 576.62 -2.72634 -2.65283 0
M  V30 6290 H 577.932 -3.41845 -3.63241 0
M  V30 6291 H 577.086 -2.20558 -5.65189 0
M  V30 6292 H 575.825 -1.40889 -4.66906 0
M  V30 6293 H 574.83 -3.64617 -4.11502 0
M  V30 6294 H 576.055 -4.44749 -5.13201 0
M  V30 6295 H 574.001 -2.42143 -6.09674 0
M  V30 6296 H 573.918 -4.13713 -6.32754 0
M  V30 6297 H 575.186 -3.22868 -7.0949 0
M  V30 6298 N 579.415 0.9433 -1.26252 0
M  V30 6299 C 580.661 1.69175 -1.11837 0
M  V30 6300 C 580.994 1.91238 0.337891 0
M  V30 6301 O 580.269 1.49152 1.24836 0
M  V30 6302 C 580.552 3.06783 -1.88563 0
M  V30 6303 C 580.405 2.9206 -3.42083 0
M  V30 6304 C 581.724 4.06865 -1.67776 0
M  V30 6305 H 578.843 0.61399 -0.407658 0
M  V30 6306 H 581.485 1.09572 -1.55222 0
M  V30 6307 H 579.635 3.57663 -1.51689 0
M  V30 6308 H 581.307 2.48419 -3.88698 0
M  V30 6309 H 579.55 2.27731 -3.69217 0
M  V30 6310 H 580.221 3.89651 -3.90994 0
M  V30 6311 H 582.697 3.64939 -1.99897 0
M  V30 6312 H 581.573 5.01168 -2.23879 0
M  V30 6313 H 581.834 4.37705 -0.621816 0
M  V30 6314 N 580.893 1.08022 1.14757 0
M  V30 6315 C 582.123 0.827646 1.89298 0
M  V30 6316 C 582.531 -0.623506 1.78631 0
M  V30 6317 O 581.874 -1.43991 1.14071 0
M  V30 6318 C 581.936 1.16553 3.40082 0
M  V30 6319 C 581.6 2.61866 3.74533 0
M  V30 6320 C 582.597 3.60116 3.74984 0
M  V30 6321 C 580.282 2.97619 4.04633 0
M  V30 6322 C 582.276 4.92151 4.05051 0
M  V30 6323 C 579.963 4.2985 4.34364 0
M  V30 6324 C 580.961 5.26926 4.34555 0
M  V30 6325 O 580.649 6.5678 4.63568 0
M  V30 6326 H 580.381 0.298396 0.606577 0
M  V30 6327 H 582.935 1.44187 1.46285 0
M  V30 6328 H 581.165 0.494296 3.83528 0
M  V30 6329 H 582.854 0.894407 3.95923 0
M  V30 6330 H 583.62 3.33837 3.51821 0
M  V30 6331 H 579.499 2.22702 4.03639 0
M  V30 6332 H 583.043 5.67915 4.05115 0
M  V30 6333 H 578.94 4.55879 4.56995 0
M  V30 6334 H 579.708 6.62035 4.81303 0
M  V30 6335 N 582.371 -1.3172 0.865308 0
M  V30 6336 C 583.62 -1.96145 0.470098 0
M  V30 6337 C 583.933 -1.69182 -0.981674 0
M  V30 6338 O 585.139 -2.27431 -1.48281 0
M  V30 6339 C 583.595 -3.51129 0.789732 0
M  V30 6340 C 583.203 -3.86938 2.25795 0
M  V30 6341 C 584.947 -4.2197 0.462765 0
M  V30 6342 C 582.854 -5.35012 2.52024 0
M  V30 6343 H 581.784 -0.734105 0.172065 0
M  V30 6344 H 584.435 -1.49959 1.05757 0
M  V30 6345 H 582.817 -3.95781 0.131571 0
M  V30 6346 H 583.991 -3.5326 2.95879 0
M  V30 6347 H 582.306 -3.29149 2.55049 0
M  V30 6348 H 584.903 -5.30904 0.636019 0
M  V30 6349 H 585.246 -4.12005 -0.59645 0
M  V30 6350 H 585.779 -3.82936 1.07727 0
M  V30 6351 H 582.518 -5.50008 3.56611 0
M  V30 6352 H 582.038 -5.70058 1.8653 0
M  V30 6353 H 583.717 -6.0222 2.36515 0
M  V30 6354 N 583.85 -0.624285 -1.44708 0
M  V30 6355 C 584.783 0.133905 -2.27807 0
M  V30 6356 C 585.76 0.857794 -1.38133 0
M  V30 6357 O 586.945 0.863277 -1.6757 0
M  V30 6358 C 584.072 1.19541 -3.16903 0
M  V30 6359 C 583.118 0.572813 -4.22636 0
M  V30 6360 S 583.951 -0.631953 -5.31758 0
M  V30 6361 C 585.106 0.429733 -6.24423 0
M  V30 6362 H 585.34 -0.571072 -2.91764 0
M  V30 6363 H 582.873 -0.412261 -1.48794 0
M  V30 6364 H 584.831 1.80293 -3.68788 0
M  V30 6365 H 583.492 1.87255 -2.5218 0
M  V30 6366 H 582.685 1.37205 -4.84965 0
M  V30 6367 H 582.287 0.0400641 -3.73979 0
M  V30 6368 H 584.579 1.30421 -6.64828 0
M  V30 6369 H 585.522 -0.157804 -7.07924 0
M  V30 6370 H 585.93 0.75256 -5.59461 0
M  V30 6371 O 585.367 1.53348 -0.50662 0
M  V30 6372 H 586.058 1.93698 0.00952266 0
M  V30 END ATOM
M  V30 BEGIN BOND
M  V30 END BOND
M  V30 END CTAB
M  END
$$$$
