drugbank_target|Q7MUW6 Prolyl tripeptidyl peptidase (DB07813)
 OpenBabel12092120463D

  0  0  0     0  0            999 V3000
M  V30 BEGIN CTAB
M  V30 COUNTS 11435 11597 0 0 0
M  V30 BEGIN ATOM
M  V30 1 H -0.908 1.98254 -0.117106 0
M  V30 2 N 0 1.576 0 0
M  V30 3 C 0.933 2.03868 1.02534 0
M  V30 4 C 1.911 0.928543 1.3348 0
M  V30 5 O 3.095 1.19667 1.45644 0
M  V30 6 C 0.222 2.43627 2.35294 0
M  V30 7 C -0.732 3.65373 2.2001 0
M  V30 8 S 0.101 5.13292 1.52614 0
M  V30 9 C 1.257 5.56322 2.86805 0
M  V30 10 H 1.49 2.90518 0.631377 0
M  V30 11 H -0.977 1.52953 0.210867 0
M  V30 12 H 0.981 2.67203 3.11629 0
M  V30 13 H -0.358 1.57376 2.7183 0
M  V30 14 H -1.165 3.90944 3.18086 0
M  V30 15 H -1.563 3.418 1.51819 0
M  V30 16 H 0.729 5.58782 3.83104 0
M  V30 17 H 1.672 6.56266 2.65933 0
M  V30 18 H 2.08 4.83886 2.90714 0
M  V30 19 N 1.4781 -0.272755 1.55222 0
M  V30 20 C 2.4251 -1.33716 1.88119 0
M  V30 21 C 3.3951 -1.49066 0.73271 0
M  V30 22 O 4.5801 -1.63469 0.984002 0
M  V30 23 C 1.7201 -2.69238 2.15882 0
M  V30 24 C 0.8331 -2.62108 3.43399 0
M  V30 25 C -0.0319 -3.89811 3.60861 0
M  V30 26 C -0.9929 -3.77193 4.8207 0
M  V30 27 N -1.8559 -4.9673 4.96189 0
M  V30 28 H 2.9841 -1.04962 2.78903 0
M  V30 29 H 0.5211 -0.507088 1.38083 0
M  V30 30 H 2.4791 -3.48089 2.29978 0
M  V30 31 H 1.1091 -2.96194 1.28331 0
M  V30 32 H 0.1611 -1.74967 3.37773 0
M  V30 33 H 1.4731 -2.48685 4.32386 0
M  V30 34 H 0.6271 -4.77103 3.74777 0
M  V30 35 H -0.6339 -4.06102 2.7006 0
M  V30 36 H -1.6289 -2.88284 4.68159 0
M  V30 37 H -0.4039 -3.62421 5.74307 0
M  V30 38 H -2.4579 -5.13431 4.08319 0
M  V30 39 H -2.5409 -4.85839 5.79221 0
M  V30 40 H -1.2729 -5.85594 5.1449 0
M  V30 41 N 2.9562 -1.48159 -0.537278 0
M  V30 42 C 3.9032 -1.62138 -1.64256 0
M  V30 43 C 4.8732 -0.463668 -1.59497 0
M  V30 44 O 6.0582 -0.686241 -1.78032 0
M  V30 45 C 3.1982 -1.66028 -3.02537 0
M  V30 46 C 2.3112 -2.92855 -3.17585 0
M  V30 47 C 1.4462 -2.87952 -4.46382 0
M  V30 48 C 0.4852 -4.09516 -4.54932 0
M  V30 49 N -0.3778 -4.02733 -5.75109 0
M  V30 50 H 4.4622 -2.56529 -1.51647 0
M  V30 51 H 1.9992 -1.27224 -0.738414 0
M  V30 52 H 3.9572 -1.66265 -3.82638 0
M  V30 53 H 2.5872 -0.751331 -3.13934 0
M  V30 54 H 1.6392 -3.02395 -2.30784 0
M  V30 55 H 2.9512 -3.82822 -3.19764 0
M  V30 56 H 2.1052 -2.8655 -5.34765 0
M  V30 57 H 0.8442 -1.95702 -4.46712 0
M  V30 58 H -0.1508 -4.11201 -3.64957 0
M  V30 59 H 1.0742 -5.02917 -4.56346 0
M  V30 60 H -0.9798 -3.13299 -5.76351 0
M  V30 61 H -1.0628 -4.86397 -5.78752 0
M  V30 62 H 0.2052 -4.05379 -6.65799 0
M  V30 63 N 4.4343 0.785586 -1.36625 0
M  V30 64 C 5.6623 1.57448 -1.3423 0
M  V30 65 C 6.0773 1.88649 0.0755653 0
M  V30 66 O 5.4343 1.50414 1.03354 0
M  V30 67 C 5.4853 2.89316 -2.16745 0
M  V30 68 O 5.2063 2.59459 -3.53005 0
M  V30 69 C 6.7073 3.83606 -2.22174 0
M  V30 70 H 3.9273 0.488226 -0.4603 0
M  V30 71 H 6.4713 0.974733 -1.79775 0
M  V30 72 H 4.6263 3.4575 -1.74745 0
M  V30 73 H 5.0403 3.43804 -3.96105 0
M  V30 74 H 6.5143 4.73181 -2.8426 0
M  V30 75 H 6.9913 4.21734 -1.22627 0
M  V30 76 H 7.5973 3.33104 -2.64427 0
M  V30 77 N 5.9124 1.20967 1.01018 0
M  V30 78 C 7.1614 1.01796 1.74128 0
M  V30 79 C 7.4744 -0.449691 1.90361 0
M  V30 80 O 8.6804 -0.76068 2.60626 0
M  V30 81 C 7.1364 1.7727 3.13215 0
M  V30 82 C 6.7444 3.28171 3.04972 0
M  V30 83 C 8.4884 1.66489 3.90489 0
M  V30 84 C 6.3954 3.96156 4.39107 0
M  V30 85 H 5.3254 0.377276 0.652824 0
M  V30 86 H 7.9764 1.44651 1.12909 0
M  V30 87 H 6.3584 1.27205 3.75013 0
M  V30 88 H 7.5324 3.85499 2.52443 0
M  V30 89 H 5.8474 3.39437 2.41188 0
M  V30 90 H 8.4444 2.14617 4.89738 0
M  V30 91 H 8.7874 0.6222 4.11624 0
M  V30 92 H 9.3204 2.14003 3.35332 0
M  V30 93 H 6.0594 5.00604 4.23174 0
M  V30 94 H 5.5794 3.43617 4.91617 0
M  V30 95 H 7.2584 4.00774 5.07926 0
M  V30 96 N 7.3905 -1.2043 1.01659 0
M  V30 97 C 8.6375 -1.89797 0.705917 0
M  V30 98 C 8.9655 -1.78848 -0.764439 0
M  V30 99 O 8.2205 -1.16694 -1.57102 0
M  V30 100 C 8.5195 -3.40464 1.08714 0
M  V30 101 C 8.1855 -3.71614 2.5537 0
M  V30 102 C 6.8475 -3.79826 2.95441 0
M  V30 103 C 9.1995 -3.85915 3.50313 0
M  V30 104 C 6.5275 -3.99797 4.29394 0
M  V30 105 C 8.8795 -4.07396 4.83954 0
M  V30 106 C 7.5435 -4.13837 5.23732 0
M  V30 107 H 6.8135 -0.694518 0.258313 0
M  V30 108 H 9.4605 -1.42691 1.27717 0
M  V30 109 H 7.7655 -3.89385 0.434309 0
M  V30 110 H 9.4625 -3.92433 0.824461 0
M  V30 111 H 6.0525 -3.65822 2.23321 0
M  V30 112 H 10.2365 -3.78926 3.20513 0
M  V30 113 H 5.4925 -4.03018 4.59768 0
M  V30 114 H 9.6665 -4.17404 5.57447 0
M  V30 115 H 7.2935 -4.29064 6.27541 0
M  V30 116 N 8.8686 -0.792821 -1.36206 0
M  V30 117 C 9.8006 -0.151469 -2.28699 0
M  V30 118 C 10.8136 0.641262 -1.49638 0
M  V30 119 O 12.0026 0.475885 -1.72039 0
M  V30 120 C 9.1026 0.808424 -3.29117 0
M  V30 121 C 8.2756 0.0650202 -4.37352 0
M  V30 122 C 7.3346 0.941358 -5.17711 0
M  V30 123 O 6.3606 0.397352 -5.67811 0
M  V30 124 N 7.5626 2.2652 -5.3448 0
M  V30 125 H 10.3276 -0.945982 -2.84379 0
M  V30 126 H 7.8886 -0.647032 -1.48409 0
M  V30 127 H 9.8806 1.3986 -3.79765 0
M  V30 128 H 8.4506 1.5038 -2.74052 0
M  V30 129 H 7.6706 -0.706255 -3.87822 0
M  V30 130 H 8.9586 -0.447847 -5.06825 0
M  V30 131 H 8.3566 2.73128 -4.95396 0
M  V30 132 H 6.9136 2.80493 -5.88359 0
M  V30 133 N 10.3467 1.47872 -0.545128 0
M  V30 134 C 11.2787 2.27869 0.246621 0
M  V30 135 C 12.2917 1.36282 0.890561 0
M  V30 136 O 13.4807 1.61207 0.766449 0
M  V30 137 C 10.5807 3.10159 1.36582 0
M  V30 138 C 9.7537 4.29627 0.820954 0
M  V30 139 C 8.8127 4.93607 1.82314 0
M  V30 140 O 7.8387 5.52366 1.37406 0
M  V30 141 N 9.0407 4.87211 3.15603 0
M  V30 142 H 11.8057 2.96459 -0.439539 0
M  V30 143 H 9.3667 1.57367 -0.380421 0
M  V30 144 H 11.3587 3.49829 2.03474 0
M  V30 145 H 9.9287 2.43891 1.9554 0
M  V30 146 H 9.1487 3.94192 -0.0244032 0
M  V30 147 H 10.4367 5.06928 0.436063 0
M  V30 148 H 9.8347 4.40651 3.54744 0
M  V30 149 H 8.3917 5.30937 3.78087 0
M  V30 150 N 11.8248 0.280983 1.55075 0
M  V30 151 C 12.7548 -0.597469 2.25727 0
M  V30 152 C 13.7358 -1.15417 1.24952 0
M  V30 153 O 14.9208 -1.18722 1.53684 0
M  V30 154 C 12.0508 -1.7789 2.98283 0
M  V30 155 C 11.0048 -1.35347 4.06036 0
M  V30 156 C 10.3308 -2.61846 4.66198 0
M  V30 157 C 11.6308 -0.499354 5.19907 0
M  V30 158 H 13.3248 -0.00824265 2.99399 0
M  V30 159 H 10.8708 -0.0025244 1.44 0
M  V30 160 H 12.8238 -2.39937 3.46422 0
M  V30 161 H 11.5478 -2.39405 2.22155 0
M  V30 162 H 10.2068 -0.756156 3.58717 0
M  V30 163 H 9.8548 -3.21632 3.86732 0
M  V30 164 H 9.5548 -2.3409 5.38958 0
M  V30 165 H 11.0788 -3.24732 5.1709 0
M  V30 166 H 12.4928 -1.02498 5.64063 0
M  V30 167 H 10.8898 -0.316424 5.99265 0
M  V30 168 H 11.9598 0.480459 4.82514 0
M  V30 169 N 13.3029 -1.57598 0.00835791 0
M  V30 170 C 14.5499 -1.90928 -0.674732 0
M  V30 171 C 14.8779 -0.88277 -1.73313 0
M  V30 172 O 14.1329 0.111294 -1.95383 0
M  V30 173 C 14.4319 -3.3101 -1.34787 0
M  V30 174 C 14.0979 -4.48922 -0.421861 0
M  V30 175 C 12.7599 -4.8091 -0.166927 0
M  V30 176 C 15.1119 -5.20755 0.215211 0
M  V30 177 C 12.4399 -5.821 0.733232 0
M  V30 178 C 14.7919 -6.22905 1.1033 0
M  V30 179 C 13.4559 -6.53346 1.36733 0
M  V30 180 H 12.7259 -0.698656 -0.246902 0
M  V30 181 H 15.3729 -1.91387 0.0656779 0
M  V30 182 H 13.6779 -3.26714 -2.16253 0
M  V30 183 H 15.3749 -3.54061 -1.8826 0
M  V30 184 H 11.9649 -4.23934 -0.630729 0
M  V30 185 H 16.1489 -4.9629 0.0312829 0
M  V30 186 H 11.4049 -6.04042 0.945712 0
M  V30 187 H 15.5789 -6.77694 1.60325 0
M  V30 188 H 13.2059 -7.31573 2.06652 0
M  V30 189 N 14.781 0.264519 -1.55364 0
M  V30 190 C 15.711 1.33121 -1.91836 0
M  V30 191 C 16.692 1.51101 -0.781192 0
M  V30 192 O 17.877 1.64003 -1.04003 0
M  V30 193 C 15.007 2.68921 -2.19769 0
M  V30 194 C 13.961 2.65661 -3.35571 0
M  V30 195 C 13.287 4.05093 -3.49004 0
M  V30 196 C 14.587 2.24187 -4.71739 0
M  V30 197 H 16.281 1.02844 -2.81182 0
M  V30 198 H 13.827 0.493286 -1.35287 0
M  V30 199 H 15.78 3.43663 -2.43872 0
M  V30 200 H 14.504 3.00799 -1.27231 0
M  V30 201 H 13.163 1.93377 -3.1145 0
M  V30 202 H 12.811 4.34206 -2.53917 0
M  V30 203 H 12.511 4.03804 -4.26868 0
M  V30 204 H 14.035 4.81561 -3.75408 0
M  V30 205 H 15.449 2.88654 -4.9533 0
M  V30 206 H 13.846 2.34044 -5.52579 0
M  V30 207 H 14.916 1.19327 -4.69988 0
M  V30 208 N 16.2591 1.48442 0.529413 0
M  V30 209 C 17.4841 1.60406 1.31471 0
M  V30 210 C 17.9091 0.264738 1.86228 0
M  V30 211 O 17.2671 -0.763668 1.64432 0
M  V30 212 C 17.3151 2.65419 2.44101 0
M  V30 213 O 16.4191 2.22618 3.47153 0
M  V30 214 H 15.7601 0.537863 0.389357 0
M  V30 215 H 18.2901 1.94432 0.636965 0
M  V30 216 H 18.3001 2.86709 2.90279 0
M  V30 217 H 16.9751 3.62652 2.03608 0
M  V30 218 H 15.5521 2.11543 3.0709 0
M  V30 219 N 17.7372 -0.778329 1.37039 0
M  V30 220 C 18.9832 -1.53892 1.32079 0
M  V30 221 C 19.3162 -1.9396 -0.0965386 0
M  V30 222 O 18.5912 -1.63568 -1.05242 0
M  V30 223 C 18.8742 -2.80847 2.25382 0
M  V30 224 C 18.7272 -2.47076 3.75864 0
M  V30 225 C 20.0462 -3.82741 2.1725 0
M  V30 226 H 17.1652 -0.558303 0.48111 0
M  V30 227 H 19.8072 -0.893397 1.67685 0
M  V30 228 H 17.9572 -3.35931 1.95148 0
M  V30 229 H 19.6292 -1.97957 4.16666 0
M  V30 230 H 17.8722 -1.79863 3.94755 0
M  V30 231 H 18.5432 -3.37798 4.36574 0
M  V30 232 H 21.0192 -3.37133 2.43887 0
M  V30 233 H 19.8952 -4.69303 2.84686 0
M  V30 234 H 20.1562 -4.2652 1.16331 0
M  V30 235 N 19.2153 -1.21501 -1.00376 0
M  V30 236 C 20.4553 -1.04444 -1.75701 0
M  V30 237 C 20.8193 0.414644 -1.87469 0
M  V30 238 O 22.0203 0.705763 -2.59369 0
M  V30 239 C 20.2913 -1.72389 -3.13077 0
M  V30 240 S 21.8503 -1.70604 -4.04277 0
M  V30 241 H 18.6683 -0.374249 -0.604532 0
M  V30 242 H 21.2703 -1.54267 -1.20091 0
M  V30 243 H 19.9743 -2.77734 -3.02146 0
M  V30 244 H 19.5053 -1.22751 -3.73759 0
M  V30 245 H 21.5203 -0.748012 -4.9053 0
M  V30 246 N 20.6934 1.19889 -1.02296 0
M  V30 247 C 21.6564 2.21116 -0.603351 0
M  V30 248 C 22.6564 1.5738 0.329884 0
M  V30 249 O 23.8464 1.73802 0.117702 0
M  V30 250 C 20.9784 3.40696 0.117992 0
M  V30 251 H 22.1714 2.59754 -1.49893 0
M  V30 252 H 19.7244 1.33463 -0.813468 0
M  V30 253 H 20.4594 3.07569 1.0282 0
M  V30 254 H 20.2444 3.88188 -0.552511 0
M  V30 255 H 21.7344 4.15692 0.398696 0
M  V30 256 N 22.1715 0.800033 1.35784 0
M  V30 257 C 23.1015 0.220184 2.3246 0
M  V30 258 C 24.0825 -0.65073 1.57161 0
M  V30 259 O 25.2675 -0.582359 1.85263 0
M  V30 260 C 22.3975 -0.637353 3.41402 0
M  V30 261 C 21.3515 0.134531 4.27789 0
M  V30 262 C 20.6775 -0.844285 5.27992 0
M  V30 263 C 21.9775 1.32979 5.05088 0
M  V30 264 H 23.6715 1.02787 2.81203 0
M  V30 265 H 21.2175 0.495717 1.35199 0
M  V30 266 H 23.1705 -1.05302 4.08031 0
M  V30 267 H 21.8945 -1.47785 2.91251 0
M  V30 268 H 20.5535 0.531296 3.6273 0
M  V30 269 H 20.2015 -1.68011 4.74111 0
M  V30 270 H 19.9015 -0.332184 5.8666 0
M  V30 271 H 21.4255 -1.2583 5.97494 0
M  V30 272 H 22.8395 0.98934 5.64699 0
M  V30 273 H 21.2365 1.77593 5.7322 0
M  V30 274 H 22.3065 2.11978 4.36111 0
M  V30 275 N 23.6496 -1.47581 0.552962 0
M  V30 276 C 24.8776 -2.06875 0.0320556 0
M  V30 277 C 25.2926 -1.40625 -1.25976 0
M  V30 278 O 24.6496 -0.501349 -1.75479 0
M  V30 279 C 24.7006 -3.61092 -0.17167 0
M  V30 280 O 24.4216 -4.24858 1.06899 0
M  V30 281 C 25.9226 -4.37242 -0.730344 0
M  V30 282 H 23.1426 -0.669561 0.043915 0
M  V30 283 H 25.6866 -1.89646 0.765163 0
M  V30 284 H 23.8416 -3.7785 -0.854894 0
M  V30 285 H 24.2556 -5.17334 0.864059 0
M  V30 286 H 25.7296 -5.45842 -0.822203 0
M  V30 287 H 26.2066 -4.03235 -1.74064 0
M  V30 288 H 26.8126 -4.25219 -0.0829543 0
M  V30 289 N 25.1277 -0.289203 -1.54924 0
M  V30 290 C 26.3737 0.323998 -2.00195 0
M  V30 291 C 26.7067 1.54441 -1.17735 0
M  V30 292 O 25.9817 1.92875 -0.250878 0
M  V30 293 C 26.2647 0.692276 -3.53383 0
M  V30 294 C 26.1177 -0.536457 -4.46589 0
M  V30 295 C 27.4367 1.52335 -4.12895 0
M  V30 296 H 24.5557 0.116289 -0.727768 0
M  V30 297 H 27.1977 -0.398954 -1.85764 0
M  V30 298 H 25.3477 1.30822 -3.65811 0
M  V30 299 H 27.0197 -1.17499 -4.46085 0
M  V30 300 H 25.2627 -1.17192 -4.1767 0
M  V30 301 H 25.9337 -0.234806 -5.515 0
M  V30 302 H 28.4097 1.00302 -4.0383 0
M  V30 303 H 27.2857 1.74982 -5.20262 0
M  V30 304 H 27.5467 2.50886 -3.64018 0
M  V30 305 N 26.6058 1.57591 -0.0167156 0
M  V30 306 C 27.5688 2.08393 0.954204 0
M  V30 307 C 28.5688 0.996531 1.26198 0
M  V30 308 O 29.7588 1.25858 1.20438 0
M  V30 309 C 26.8908 2.5394 2.27436 0
M  V30 310 H 28.0838 2.95455 0.514451 0
M  V30 311 H 25.6368 1.54582 0.231089 0
M  V30 312 H 26.3718 1.70171 2.76066 0
M  V30 313 H 26.1568 3.33371 2.06412 0
M  V30 314 H 27.6468 2.93512 2.97053 0
M  V30 315 N 28.0839 -0.256276 1.55502 0
M  V30 316 C 29.0139 -1.32102 1.92539 0
M  V30 317 C 29.9949 -1.50684 0.789194 0
M  V30 318 O 31.1799 -1.63449 1.04872 0
M  V30 319 C 28.3099 -2.67752 2.21192 0
M  V30 320 C 27.2639 -2.63878 3.36975 0
M  V30 321 C 26.5899 -4.03236 3.51147 0
M  V30 322 C 27.8899 -2.21682 4.72921 0
M  V30 323 H 29.5839 -1.01351 2.81724 0
M  V30 324 H 27.1299 -0.486105 1.35547 0
M  V30 325 H 29.0829 -3.42365 2.45691 0
M  V30 326 H 27.8069 -3.0012 1.28824 0
M  V30 327 H 26.4659 -1.91722 3.12471 0
M  V30 328 H 26.1139 -4.32854 2.56216 0
M  V30 329 H 25.8139 -4.01535 4.29003 0
M  V30 330 H 27.3379 -4.79563 3.77957 0
M  V30 331 H 28.7519 -2.86023 4.96854 0
M  V30 332 H 27.1489 -2.3111 5.53812 0
M  V30 333 H 28.2189 -1.16833 4.70615 0
M  V30 334 N 29.562 -1.4872 -0.521534 0
M  V30 335 C 30.973 -1.50607 -1.10337 0
M  V30 336 C 31.324 -0.280612 -1.94183 0
M  V30 337 O 30.449 0.611507 -2.0758 0
M  V30 338 C 31.044 -2.72903 -2.00772 0
M  V30 339 C 29.603 -2.77634 -2.54158 0
M  V30 340 C 28.75 -2.44241 -1.31307 0
M  V30 341 H 31.701 -1.55714 -0.306388 0
M  V30 342 H 31.722 -2.519 -2.85178 0
M  V30 343 H 31.234 -3.62077 -1.39721 0
M  V30 344 H 29.335 -1.92689 -3.18907 0
M  V30 345 H 29.448 -3.79283 -2.92714 0
M  V30 346 H 27.812 -1.95577 -1.63161 0
M  V30 347 H 28.595 -3.35666 -0.719943 0
M  V30 348 N 31.0401 0.771051 -1.3745 0
M  V30 349 C 32.2801 1.54264 -1.34096 0
M  V30 350 C 32.6441 1.91858 0.0737639 0
M  V30 351 O 33.8451 2.67797 0.23203 0
M  V30 352 C 32.1161 2.77326 -2.25445 0
M  V30 353 S 33.6751 3.67383 -2.39948 0
M  V30 354 H 30.4931 0.528122 -0.476034 0
M  V30 355 H 33.0951 0.906633 -1.73206 0
M  V30 356 H 31.7991 2.47788 -3.27153 0
M  V30 357 H 31.3301 3.45886 -1.87421 0
M  V30 358 H 33.3451 4.69334 -1.61059 0
M  V30 359 N 32.5182 1.22032 0.997298 0
M  V30 360 C 33.7432 1.06921 1.77715 0
M  V30 361 C 34.1682 -0.376226 1.84299 0
M  V30 362 O 33.5262 -1.27165 1.29223 0
M  V30 363 C 33.5742 1.67996 3.19076 0
M  V30 364 O 32.6782 0.930653 4.01762 0
M  V30 365 H 32.0192 0.375814 0.547412 0
M  V30 366 H 34.5492 1.61737 1.25309 0
M  V30 367 H 34.5592 1.72538 3.69723 0
M  V30 368 H 33.2342 2.73182 3.13599 0
M  V30 369 H 31.8112 0.960917 3.60307 0
M  V30 370 N 33.9963 -1.19345 1.0293 0
M  V30 371 C 34.9593 -2.20793 0.615069 0
M  V30 372 C 35.9593 -1.57553 -0.321533 0
M  V30 373 O 37.1493 -1.73862 -0.108483 0
M  V30 374 C 34.2813 -3.40754 -0.0999222 0
M  V30 375 H 35.4743 -2.58955 1.51269 0
M  V30 376 H 33.0273 -1.3303 0.820534 0
M  V30 377 H 33.7623 -3.0811 -1.01187 0
M  V30 378 H 33.5473 -3.87889 0.57309 0
M  V30 379 H 35.0373 -4.15898 -0.376645 0
M  V30 380 N 35.4744 -0.807222 -1.35358 0
M  V30 381 C 36.4064 -0.175717 -2.28525 0
M  V30 382 C 37.4194 0.625354 -1.5031 0
M  V30 383 O 38.6084 0.457611 -1.72535 0
M  V30 384 C 35.7084 0.773471 -3.29956 0
M  V30 385 C 34.8814 0.0186296 -4.37396 0
M  V30 386 C 33.9404 0.886395 -5.18681 0
M  V30 387 O 32.9664 0.337106 -5.68201 0
M  V30 388 N 34.1684 2.20839 -5.36852 0
M  V30 389 H 36.9334 -0.976091 -2.83359 0
M  V30 390 H 34.4944 -0.662737 -1.47714 0
M  V30 391 H 36.4864 1.35824 -3.81227 0
M  V30 392 H 35.0564 1.47465 -2.75632 0
M  V30 393 H 34.2764 -0.747349 -3.87051 0
M  V30 394 H 35.5644 -0.501577 -5.06322 0
M  V30 395 H 34.9624 2.67858 -4.98265 0
M  V30 396 H 33.5194 2.74237 -5.91301 0
M  V30 397 N 36.9525 1.47285 -0.560781 0
M  V30 398 C 38.1775 2.07359 -0.0410566 0
M  V30 399 C 38.6025 1.41017 1.24483 0
M  V30 400 O 37.9605 0.486368 1.74654 0
M  V30 401 C 38.0085 3.6035 0.134123 0
M  V30 402 O 37.1125 3.94681 1.19587 0
M  V30 403 H 36.4535 0.661887 -0.0529291 0
M  V30 404 H 38.9835 1.89252 -0.777482 0
M  V30 405 H 38.9935 4.0652 0.347207 0
M  V30 406 H 37.6685 4.08034 -0.805047 0
M  V30 407 H 36.2455 3.60251 0.962987 0
M  V30 408 N 38.4306 0.297415 1.54768 0
M  V30 409 C 39.8416 -0.195947 1.85669 0
M  V30 410 C 40.1926 -1.53707 1.21937 0
M  V30 411 O 39.3176 -2.10164 0.515754 0
M  V30 412 C 39.9126 -0.362318 3.36857 0
M  V30 413 C 38.4716 -0.799901 3.67802 0
M  V30 414 C 37.6186 0.0938578 2.77141 0
M  V30 415 H 40.5696 0.518538 1.4999 0
M  V30 416 H 40.5906 -1.19745 3.61167 0
M  V30 417 H 40.1026 0.613921 3.83214 0
M  V30 418 H 38.2036 -1.78682 3.26961 0
M  V30 419 H 38.3166 -0.621773 4.75048 0
M  V30 420 H 36.6806 -0.426254 2.51108 0
M  V30 421 H 37.4636 1.06639 3.26318 0
M  V30 422 N 39.9087 -1.5758 0.0250728 0
M  V30 423 C 40.8187 -2.1343 -0.973905 0
M  V30 424 C 41.8347 -1.08556 -1.35984 0
M  V30 425 O 43.0107 -1.40592 -1.44207 0
M  V30 426 C 40.0757 -2.64703 -2.23904 0
M  V30 427 C 39.1367 -3.84276 -1.91391 0
M  V30 428 C 38.3697 -4.33095 -3.11873 0
M  V30 429 O 38.5927 -3.81107 -4.24398 0
M  V30 430 O 37.5267 -5.24984 -2.94406 0
M  V30 431 H 41.3527 -2.99057 -0.529036 0
M  V30 432 H 38.9377 -1.48118 -0.195288 0
M  V30 433 H 40.8197 -2.97769 -2.98181 0
M  V30 434 H 39.4947 -1.82161 -2.6758 0
M  V30 435 H 38.4017 -3.56143 -1.14511 0
M  V30 436 H 39.7347 -4.67968 -1.52534 0
M  V30 437 N 41.3868 0.248026 -1.55636 0
M  V30 438 C 42.6148 0.993808 -1.81469 0
M  V30 439 C 43.0298 1.78991 -0.60064 0
M  V30 440 O 42.3868 1.77345 0.430682 0
M  V30 441 C 42.4378 1.93258 -3.05506 0
M  V30 442 O 42.1588 1.16869 -4.22224 0
M  V30 443 C 43.6598 2.79444 -3.4413 0
M  V30 444 H 40.8798 0.292486 -0.603898 0
M  V30 445 H 43.4238 0.271253 -2.02693 0
M  V30 446 H 41.5788 2.60943 -2.86335 0
M  V30 447 H 41.9928 1.80359 -4.92515 0
M  V30 448 H 43.4668 3.41066 -4.34026 0
M  V30 449 H 43.9438 3.50499 -2.64665 0
M  V30 450 H 44.5498 2.17214 -3.65648 0
M  V30 451 N 42.8649 1.48995 0.513639 0
M  V30 452 C 44.0899 1.61792 1.29762 0
M  V30 453 C 44.5149 0.284475 1.85936 0
M  V30 454 O 43.8729 -0.746185 1.65232 0
M  V30 455 C 43.9209 2.67993 2.41272 0
M  V30 456 O 43.0249 2.26287 3.44772 0
M  V30 457 H 42.3659 0.541963 0.38363 0
M  V30 458 H 44.8959 1.95097 0.616307 0
M  V30 459 H 44.9059 2.89772 2.87221 0
M  V30 460 H 43.5809 3.64791 1.9975 0
M  V30 461 H 42.1579 2.14788 3.04829 0
M  V30 462 N 44.343 -0.763751 1.37857 0
M  V30 463 C 45.591 -1.51957 1.33243 0
M  V30 464 C 45.912 -1.94835 -0.0801709 0
M  V30 465 O 45.182 -1.66894 -1.02582 0
M  V30 466 H 43.762 -0.563626 0.49024 0
M  V30 467 H 46.424 -0.908504 1.7243 0
M  V30 468 H 45.52 -2.41523 1.97669 0
M  V30 469 N 45.8211 -1.22559 -0.990812 0
M  V30 470 C 46.7681 -0.997519 -2.0813 0
M  V30 471 C 47.7381 0.0814702 -1.659 0
M  V30 472 O 48.9231 -0.0685424 -1.90677 0
M  V30 473 C 46.0631 -0.583615 -3.40129 0
M  V30 474 C 45.1761 -1.7336 -3.9569 0
M  V30 475 C 44.3111 -1.26748 -5.15857 0
M  V30 476 C 43.3501 -2.38888 -5.63559 0
M  V30 477 N 42.4871 -1.93308 -6.74964 0
M  V30 478 H 47.3271 -1.93099 -2.26973 0
M  V30 479 H 44.8641 -0.962114 -1.11273 0
M  V30 480 H 46.8221 -0.324801 -4.15934 0
M  V30 481 H 45.4521 0.312845 -3.2128 0
M  V30 482 H 44.5041 -2.10669 -3.16738 0
M  V30 483 H 45.8161 -2.57704 -4.27071 0
M  V30 484 H 44.9701 -0.966173 -5.98957 0
M  V30 485 H 43.7091 -0.394272 -4.86104 0
M  V30 486 H 42.7141 -2.69805 -4.79046 0
M  V30 487 H 43.9391 -3.26728 -5.95336 0
M  V30 488 H 41.8851 -1.08352 -6.4699 0
M  V30 489 H 41.8021 -2.71217 -7.05675 0
M  V30 490 H 43.0701 -1.66252 -7.61564 0
M  V30 491 N 47.2992 1.18797 -1.03562 0
M  V30 492 C 48.2092 2.25913 -0.632505 0
M  V30 493 C 49.2252 1.70668 0.338882 0
M  V30 494 O 50.4012 2.00453 0.195076 0
M  V30 495 C 47.4662 3.467 0.00350942 0
M  V30 496 C 46.5272 4.17098 -1.01624 0
M  V30 497 C 45.7602 5.32119 -0.410478 0
M  V30 498 O 45.9832 5.64976 0.784725 0
M  V30 499 O 44.9172 5.9107 -1.13667 0
M  V30 500 H 48.7432 2.62648 -1.52478 0
M  V30 501 H 46.3282 1.25781 -0.806195 0
M  V30 502 H 48.2102 4.19878 0.35781 0
M  V30 503 H 46.8852 3.11798 0.869686 0
M  V30 504 H 45.7922 3.4601 -1.42224 0
M  V30 505 H 47.1252 4.55987 -1.85301 0
M  V30 506 N 48.7773 0.814389 1.34928 0
M  V30 507 C 50.0243 0.398423 1.98542 0
M  V30 508 C 50.3523 -1.03638 1.64589 0
M  V30 509 O 49.6073 -1.73509 0.90516 0
M  V30 510 C 49.9063 0.537781 3.53331 0
M  V30 511 C 49.5723 1.93704 4.07172 0
M  V30 512 C 48.2343 2.31984 4.21589 0
M  V30 513 C 50.5863 2.85213 4.36237 0
M  V30 514 C 47.9143 3.61125 4.62391 0
M  V30 515 C 50.2663 4.13809 4.78482 0
M  V30 516 C 48.9303 4.52077 4.91104 0
M  V30 517 H 48.2003 0.145793 0.726516 0
M  V30 518 H 50.8473 1.03669 1.61012 0
M  V30 519 H 49.1523 -0.183906 3.91368 0
M  V30 520 H 50.8493 0.196588 4.00518 0
M  V30 521 H 47.4393 1.62966 3.96409 0
M  V30 522 H 51.6233 2.56885 4.24645 0
M  V30 523 H 46.8793 3.90612 4.70353 0
M  V30 524 H 51.0533 4.84811 4.99932 0
M  V30 525 H 48.6803 5.52196 5.22478 0
M  V30 526 N 50.2554 -1.46986 0.568584 0
M  V30 527 C 51.4834 -2.0683 0.0539956 0
M  V30 528 C 51.8984 -1.41953 -1.24478 0
M  V30 529 O 51.2554 -0.519933 -1.74937 0
M  V30 530 C 51.3064 -3.61254 -0.133362 0
M  V30 531 O 51.0274 -4.237 1.11399 0
M  V30 532 C 52.5284 -4.37992 -0.683927 0
M  V30 533 H 49.7484 -0.669058 0.0510141 0
M  V30 534 H 52.2924 -1.88824 0.785234 0
M  V30 535 H 50.4474 -3.78735 -0.81477 0
M  V30 536 H 50.8614 -5.16388 0.91888 0
M  V30 537 H 52.3354 -5.46684 -0.764263 0
M  V30 538 H 52.8124 -4.05058 -1.69778 0
M  V30 539 H 53.4184 -4.25283 -0.0378494 0
M  V30 540 N 51.7335 -0.305618 -1.54608 0
M  V30 541 C 52.6635 0.561482 -2.26649 0
M  V30 542 C 53.6445 1.13415 -1.26772 0
M  V30 543 O 54.8295 1.16262 -1.55553 0
M  V30 544 C 51.9595 1.73122 -3.01075 0
M  V30 545 C 50.9135 1.2887 -4.08138 0
M  V30 546 C 50.2395 2.54396 -4.70305 0
M  V30 547 C 51.5395 0.416578 -5.20636 0
M  V30 548 H 53.2335 -0.0393902 -2.99374 0
M  V30 549 H 50.7795 -0.020385 -1.43986 0
M  V30 550 H 52.7325 2.34396 -3.50195 0
M  V30 551 H 51.4565 2.3584 -2.25936 0
M  V30 552 H 50.1155 0.698991 -3.59875 0
M  V30 553 H 49.7635 3.15439 -3.918 0
M  V30 554 H 49.4635 2.25486 -5.42614 0
M  V30 555 H 50.9875 3.16464 -5.2219 0
M  V30 556 H 52.4015 0.935116 -5.65622 0
M  V30 557 H 50.7985 0.221046 -5.99693 0
M  V30 558 H 51.8685 -0.557162 -4.81688 0
M  V30 559 N 53.2116 1.57565 -0.0334293 0
M  V30 560 C 54.1216 2.13943 0.962572 0
M  V30 561 C 55.1376 1.09276 1.35406 0
M  V30 562 O 56.3136 1.41355 1.4346 0
M  V30 563 C 53.3786 2.65887 2.22497 0
M  V30 564 C 52.4396 3.85286 1.8935 0
M  V30 565 C 51.6726 4.34743 3.09571 0
M  V30 566 O 51.8956 3.83352 4.22371 0
M  V30 567 O 50.8296 5.26538 2.91618 0
M  V30 568 H 54.6556 2.99333 0.513169 0
M  V30 569 H 52.2406 1.4822 0.18743 0
M  V30 570 H 54.1226 2.99346 2.96598 0
M  V30 571 H 52.7976 1.83578 2.6661 0
M  V30 572 H 51.7046 3.56746 1.1262 0
M  V30 573 H 53.0376 4.68771 1.5005 0
M  V30 574 N 54.6897 -0.239769 1.55765 0
M  V30 575 C 55.6217 -1.32001 1.87372 0
M  V30 576 C 56.6347 -1.43944 0.760522 0
M  V30 577 O 57.8237 -1.45167 1.0387 0
M  V30 578 C 54.9237 -2.69779 2.05115 0
M  V30 579 C 54.0967 -2.80014 3.36022 0
M  V30 580 C 53.1557 -3.98684 3.4342 0
M  V30 581 O 52.1817 -3.87877 4.16582 0
M  V30 582 N 53.3837 -5.12176 2.73232 0
M  V30 583 H 56.1487 -1.0522 2.80622 0
M  V30 584 H 53.7097 -0.429857 1.56089 0
M  V30 585 H 55.7017 -3.47517 2.07399 0
M  V30 586 H 54.2717 -2.89237 1.18577 0
M  V30 587 H 53.4917 -1.88896 3.45994 0
M  V30 588 H 54.7797 -2.83808 4.22292 0
M  V30 589 H 54.1777 -5.2385 2.13536 0
M  V30 590 H 52.7347 -5.88022 2.81199 0
M  V30 591 N 56.1678 -1.49265 -0.50573 0
M  V30 592 C 57.0978 -1.68495 -1.61653 0
M  V30 593 C 58.0788 -0.53366 -1.61512 0
M  V30 594 O 59.2638 -0.76897 -1.78327 0
M  V30 595 C 56.3938 -1.74709 -3.00157 0
M  V30 596 C 55.3478 -2.89581 -3.15162 0
M  V30 597 C 54.6738 -2.80903 -4.5497 0
M  V30 598 C 55.9738 -4.30578 -2.95634 0
M  V30 599 H 57.6678 -2.61493 -1.45814 0
M  V30 600 H 55.2138 -1.25838 -0.70005 0
M  V30 601 H 57.1668 -1.86748 -3.77761 0
M  V30 602 H 55.8908 -0.783067 -3.17074 0
M  V30 603 H 54.5498 -2.77136 -2.39982 0
M  V30 604 H 54.1978 -1.82419 -4.68756 0
M  V30 605 H 53.8978 -3.57999 -4.65951 0
M  V30 606 H 55.4218 -2.94944 -5.34641 0
M  V30 607 H 56.8358 -4.4373 -3.63011 0
M  V30 608 H 55.2328 -5.0886 -3.18091 0
M  V30 609 H 56.3028 -4.45352 -1.91806 0
M  V30 610 N 57.6459 0.756429 -1.3826 0
M  V30 611 C 58.5789 1.87802 -1.29637 0
M  V30 612 C 59.5569 1.61667 -0.173939 0
M  V30 613 O 60.7409 1.85208 -0.350775 0
M  V30 614 C 57.8679 3.23354 -1.00797 0
M  V30 615 C 56.9139 3.68379 -2.14939 0
M  V30 616 S 57.7469 3.8025 -3.77054 0
M  V30 617 C 58.9029 5.18626 -3.50396 0
M  V30 618 H 59.1359 1.94829 -2.24564 0
M  V30 619 H 56.6689 0.919117 -1.24063 0
M  V30 620 H 58.6269 4.01637 -0.848413 0
M  V30 621 H 57.2879 3.14008 -0.0759369 0
M  V30 622 H 56.4809 4.66693 -1.90299 0
M  V30 623 H 56.0829 2.97242 -2.26988 0
M  V30 624 H 58.3749 6.04289 -3.06334 0
M  V30 625 H 59.3179 5.48286 -4.48094 0
M  V30 626 H 59.7259 4.87289 -2.84973 0
M  V30 627 N 59.124 1.23083 0.984299 0
M  V30 628 C 60.535 1.05609 1.5396 0
M  V30 629 C 60.886 -0.377793 1.92528 0
M  V30 630 O 60.011 -1.26398 1.75649 0
M  V30 631 C 60.606 1.91087 2.7977 0
M  V30 632 C 59.165 1.77885 3.31713 0
M  V30 633 C 58.312 1.87028 2.04733 0
M  V30 634 H 61.263 1.36802 0.804419 0
M  V30 635 H 61.284 1.43336 3.5247 0
M  V30 636 H 60.796 2.9544 2.51668 0
M  V30 637 H 58.897 0.762995 3.64704 0
M  V30 638 H 59.01 2.61047 4.01735 0
M  V30 639 H 57.374 1.30565 2.18689 0
M  V30 640 H 58.157 2.92929 1.79017 0
M  V30 641 N 60.6021 -1.18246 1.0419 0
M  V30 642 C 61.8501 -1.87886 0.744543 0
M  V30 643 C 62.1711 -1.8082 -0.730006 0
M  V30 644 O 61.4411 -1.22736 -1.52685 0
M  V30 645 H 60.0211 -0.695556 0.272417 0
M  V30 646 H 62.6831 -1.43494 1.31892 0
M  V30 647 H 61.7791 -2.9389 1.05049 0
M  V30 648 N 62.0802 -0.821533 -1.34494 0
M  V30 649 C 63.3282 -0.408139 -1.97936 0
M  V30 650 C 63.6492 1.03193 -1.65457 0
M  V30 651 O 62.9192 1.71622 -0.944595 0
M  V30 652 H 61.4992 -0.147928 -0.732206 0
M  V30 653 H 64.1612 -1.05067 -1.64155 0
M  V30 654 H 63.2572 -0.52601 -3.07635 0
M  V30 655 N 63.5583 1.46682 -0.576371 0
M  V30 656 C 64.5053 2.30241 0.160499 0
M  V30 657 C 65.4753 1.40233 0.890162 0
M  V30 658 O 66.6603 1.69186 0.882084 0
M  V30 659 C 63.8003 3.24578 1.1723 0
M  V30 660 C 62.9133 4.29684 0.446736 0
M  V30 661 C 62.0483 5.11154 1.44551 0
M  V30 662 C 61.0873 6.08015 0.70599 0
M  V30 663 N 60.2243 6.82376 1.65251 0
M  V30 664 H 65.0643 2.92727 -0.558127 0
M  V30 665 H 62.6013 1.44272 -0.287056 0
M  V30 666 H 64.5593 3.77711 1.77172 0
M  V30 667 H 63.1893 2.63916 1.85872 0
M  V30 668 H 62.2413 3.79458 -0.267594 0
M  V30 669 H 63.5533 4.98626 -0.131686 0
M  V30 670 H 62.7073 5.68533 2.11791 0
M  V30 671 H 61.4463 4.42158 2.05786 0
M  V30 672 H 60.4513 5.49796 0.0197725 0
M  V30 673 H 61.6763 6.79028 0.09912 0
M  V30 674 H 59.6223 6.16094 2.25308 0
M  V30 675 H 59.5393 7.47556 1.12673 0
M  V30 676 H 60.8073 7.44316 2.31546 0
M  V30 677 N 65.0364 0.313813 1.54444 0
M  V30 678 C 65.9464 -0.565714 2.27677 0
M  V30 679 C 66.9624 -1.13754 1.31666 0
M  V30 680 O 68.1384 -1.15959 1.64668 0
M  V30 681 C 65.2034 -1.71528 3.01296 0
M  V30 682 C 64.2644 -1.17624 4.12872 0
M  V30 683 C 63.4974 -2.27102 4.8297 0
M  V30 684 O 63.7204 -3.47256 4.52514 0
M  V30 685 O 62.6544 -1.9307 5.70094 0
M  V30 686 H 66.4804 0.0287296 3.03686 0
M  V30 687 H 64.0654 0.0798312 1.49187 0
M  V30 688 H 65.9474 -2.38476 3.4743 0
M  V30 689 H 64.6224 -2.29608 2.2817 0
M  V30 690 H 63.5294 -0.472124 3.71109 0
M  V30 691 H 64.8624 -0.640695 4.88012 0
M  V30 692 N 66.5145 -1.57545 0.0417849 0
M  V30 693 C 67.7615 -1.92317 -0.634082 0
M  V30 694 C 68.0895 -0.919334 -1.71402 0
M  V30 695 O 67.3445 0.0698253 -1.95575 0
M  V30 696 C 67.6435 -3.33794 -1.27735 0
M  V30 697 C 67.3095 -4.49716 -0.326543 0
M  V30 698 C 65.9715 -4.81156 -0.0648814 0
M  V30 699 C 68.3235 -5.20182 0.325623 0
M  V30 700 C 65.6515 -5.80414 0.856539 0
M  V30 701 C 68.0035 -6.20424 1.23518 0
M  V30 702 C 66.6675 -6.50298 1.5056 0
M  V30 703 H 65.9375 -0.703736 -0.232027 0
M  V30 704 H 68.5845 -1.91205 0.106259 0
M  V30 705 H 66.8895 -3.31228 -2.09274 0
M  V30 706 H 68.5865 -3.57975 -1.80707 0
M  V30 707 H 65.1765 -4.25176 -0.540665 0
M  V30 708 H 69.3605 -4.96112 0.136546 0
M  V30 709 H 64.6165 -6.019 1.07363 0
M  V30 710 H 68.7905 -6.74141 1.74664 0
M  V30 711 H 66.4175 -7.27025 2.22123 0
M  V30 712 N 67.9926 0.231505 -1.5589 0
M  V30 713 C 69.2226 0.973092 -1.82248 0
M  V30 714 C 69.6306 1.78845 -0.617328 0
M  V30 715 O 68.9736 1.78752 0.423499 0
M  V30 716 C 69.0356 1.94732 -3.02192 0
M  V30 717 C 68.6996 1.31743 -4.37599 0
M  V30 718 C 69.6966 0.712238 -5.14998 0
M  V30 719 C 67.3816 1.33218 -4.84312 0
M  V30 720 C 69.3756 0.130195 -6.37267 0
M  V30 721 C 67.0626 0.746286 -6.06526 0
M  V30 722 C 68.0606 0.146337 -6.82843 0
M  V30 723 O 67.7486 -0.430465 -8.02747 0
M  V30 724 H 67.4806 0.29125 -0.61004 0
M  V30 725 H 70.0346 0.254915 -2.03812 0
M  V30 726 H 68.2646 2.70422 -2.76422 0
M  V30 727 H 69.9536 2.55362 -3.15508 0
M  V30 728 H 70.7196 0.69324 -4.8002 0
M  V30 729 H 66.5986 1.78854 -4.24891 0
M  V30 730 H 70.1426 -0.33871 -6.96777 0
M  V30 731 H 66.0396 0.762663 -6.40979 0
M  V30 732 H 66.8076 -0.323818 -8.17859 0
M  V30 733 N 69.4707 1.49531 0.497807 0
M  V30 734 C 70.4187 1.66926 1.61983 0
M  V30 735 C 71.4127 0.535167 1.60724 0
M  V30 736 O 72.6187 0.714896 1.65195 0
M  V30 737 H 68.9937 0.526415 0.537021 0
M  V30 738 H 70.9647 2.61098 1.44465 0
M  V30 739 C 69.7137 1.75602 3.00099 0
M  V30 740 H 69.0367 2.62244 3.01775 0
M  V30 741 H 70.4767 1.91807 3.78135 0
M  V30 742 C 68.9357 0.501543 3.33146 0
M  V30 743 O 69.4657 -0.371342 3.9998 0
M  V30 744 N 67.6717 0.363531 2.88317 0
M  V30 745 H 67.2187 1.07485 2.34104 0
M  V30 746 H 67.1767 -0.474728 3.10795 0
M  V30 747 N 70.9488 -0.749086 1.3866 0
M  V30 748 C 72.1958 -1.50833 1.35114 0
M  V30 749 C 72.5238 -1.94415 -0.0574049 0
M  V30 750 O 71.7788 -1.66065 -1.03541 0
M  V30 751 C 72.0778 -2.7712 2.25697 0
M  V30 752 C 71.7438 -2.52477 3.73585 0
M  V30 753 C 70.4058 -2.45466 4.13884 0
M  V30 754 C 72.7578 -2.31066 4.67181 0
M  V30 755 C 70.0858 -2.15064 5.45861 0
M  V30 756 C 72.4378 -2.02183 5.9942 0
M  V30 757 C 71.1018 -1.93631 6.38798 0
M  V30 758 H 70.3718 -0.551936 0.494416 0
M  V30 759 H 73.0188 -0.860979 1.71054 0
M  V30 760 H 71.3238 -3.46528 1.82827 0
M  V30 761 H 73.0208 -3.35096 2.20254 0
M  V30 762 H 69.6108 -2.58807 3.41638 0
M  V30 763 H 73.7948 -2.35459 4.3689 0
M  V30 764 H 69.0508 -2.06954 5.75308 0
M  V30 765 H 73.2248 -1.8462 6.71482 0
M  V30 766 H 70.8518 -1.69839 7.40985 0
M  V30 767 N 72.4269 -1.23603 -0.977757 0
M  V30 768 C 73.6569 -1.09487 -1.75203 0
M  V30 769 C 74.0649 0.356321 -1.85814 0
M  V30 770 O 73.4079 1.25816 -1.33851 0
M  V30 771 C 73.4699 -1.64905 -3.19447 0
M  V30 772 C 73.1339 -3.13688 -3.32338 0
M  V30 773 C 74.1309 -4.10953 -3.18455 0
M  V30 774 C 71.8159 -3.53449 -3.56902 0
M  V30 775 C 73.8099 -5.45962 -3.28944 0
M  V30 776 C 71.4969 -4.88602 -3.6703 0
M  V30 777 C 72.4949 -5.84668 -3.53062 0
M  V30 778 O 72.1829 -7.17365 -3.62826 0
M  V30 779 H 71.9149 -0.38367 -0.556573 0
M  V30 780 H 74.4689 -1.6398 -1.23693 0
M  V30 781 H 72.6989 -1.04835 -3.72218 0
M  V30 782 H 74.3879 -1.46226 -3.78646 0
M  V30 783 H 75.1539 -3.81577 -2.99372 0
M  V30 784 H 71.0329 -2.79188 -3.66844 0
M  V30 785 H 74.5769 -6.20925 -3.17958 0
M  V30 786 H 70.4739 -5.17653 -3.85623 0
M  V30 787 H 71.2419 -7.2515 -3.79605 0
M  V30 788 N 73.905 1.17692 -1.04816 0
M  V30 789 C 75.316 1.69501 -0.782698 0
M  V30 790 C 75.667 1.83456 0.695577 0
M  V30 791 O 74.792 1.51942 1.54086 0
M  V30 792 C 75.387 3.07874 -1.41419 0
M  V30 793 C 73.946 3.56864 -1.19686 0
M  V30 794 C 73.093 2.3322 -1.50012 0
M  V30 795 H 76.044 1.02262 -1.2136 0
M  V30 796 H 76.065 3.71528 -0.821428 0
M  V30 797 H 75.577 2.97685 -2.49009 0
M  V30 798 H 73.678 3.72337 -0.140043 0
M  V30 799 H 73.791 4.39851 -1.89916 0
M  V30 800 H 72.155 2.37501 -0.920071 0
M  V30 801 H 72.938 2.25644 -2.58727 0
M  V30 802 N 75.3831 0.828654 1.34056 0
M  V30 803 C 76.2931 0.256725 2.33191 0
M  V30 804 C 77.3091 -0.611898 1.62886 0
M  V30 805 O 78.4851 -0.51844 1.94613 0
M  V30 806 C 75.5501 -0.567238 3.42028 0
M  V30 807 C 74.6111 0.324458 4.28072 0
M  V30 808 C 73.8441 -0.460274 5.31712 0
M  V30 809 O 74.0671 -1.693 5.44696 0
M  V30 810 O 73.0011 0.160391 6.01686 0
M  V30 811 H 76.8271 1.07739 2.83947 0
M  V30 812 H 74.4121 0.59093 1.37217 0
M  V30 813 H 76.2941 -1.03582 4.08471 0
M  V30 814 H 74.9691 -1.36513 2.93506 0
M  V30 815 H 73.8761 0.840659 3.64532 0
M  V30 816 H 75.2091 1.08685 4.8005 0
M  V30 817 N 76.8612 -1.46375 0.584142 0
M  V30 818 C 78.0912 -2.06461 0.0758195 0
M  V30 819 C 78.4992 -1.43322 -1.23512 0
M  V30 820 O 77.8422 -0.533216 -1.75791 0
M  V30 821 C 77.9042 -3.59131 -0.162773 0
M  V30 822 C 77.5682 -4.4447 1.06279 0
M  V30 823 C 78.5652 -4.80918 1.97519 0
M  V30 824 C 76.2502 -4.85584 1.28504 0
M  V30 825 C 78.2442 -5.57309 3.09331 0
M  V30 826 C 75.9312 -5.61734 2.4062 0
M  V30 827 C 76.9292 -5.9751 3.30863 0
M  V30 828 O 76.6172 -6.72121 4.41032 0
M  V30 829 H 76.3492 -0.673745 0.0551725 0
M  V30 830 H 78.9032 -1.88969 0.804984 0
M  V30 831 H 77.1332 -3.74936 -0.946565 0
M  V30 832 H 78.8222 -4.0114 -0.619782 0
M  V30 833 H 79.5882 -4.49732 1.81565 0
M  V30 834 H 75.4672 -4.57187 0.591702 0
M  V30 835 H 79.0112 -5.85152 3.79793 0
M  V30 836 H 74.9082 -5.92334 2.56537 0
M  V30 837 H 75.6762 -6.90547 4.39417 0
M  V30 838 N 78.3393 -0.321999 -1.54275 0
M  V30 839 C 79.5853 0.281461 -2.00837 0
M  V30 840 C 79.9183 1.51909 -1.20985 0
M  V30 841 O 79.1933 1.923 -0.291733 0
M  V30 842 C 79.4763 0.617162 -3.54772 0
M  V30 843 C 79.3293 -0.631064 -4.45351 0
M  V30 844 C 80.6483 1.43542 -4.16033 0
M  V30 845 H 77.7673 0.100826 -0.730071 0
M  V30 846 H 80.4093 -0.438268 -1.84876 0
M  V30 847 H 78.5593 1.23034 -3.68504 0
M  V30 848 H 80.2313 -1.26934 -4.43492 0
M  V30 849 H 78.4743 -1.26025 -4.15091 0
M  V30 850 H 79.1453 -0.351735 -5.50878 0
M  V30 851 H 81.6213 0.917134 -4.05867 0
M  V30 852 H 80.4973 1.63907 -5.23856 0
M  V30 853 H 80.7583 2.43108 -3.69257 0
M  V30 854 N 79.8174 1.5752 -0.0501392 0
M  V30 855 C 81.0634 1.92936 0.624798 0
M  V30 856 C 81.3964 0.928685 1.70555 0
M  V30 857 O 80.6714 -0.0454779 1.94447 0
M  V30 858 C 80.9544 3.38737 1.22185 0
M  V30 859 C 80.8074 4.49552 0.149218 0
M  V30 860 C 82.1264 3.84913 2.13378 0
M  V30 861 H 79.2454 0.701604 0.225657 0
M  V30 862 H 81.8874 1.89671 -0.111693 0
M  V30 863 H 80.0374 3.4165 1.84953 0
M  V30 864 H 81.7094 4.58768 -0.482648 0
M  V30 865 H 79.9524 4.30638 -0.522841 0
M  V30 866 H 80.6234 5.48653 0.606966 0
M  V30 867 H 83.0994 3.8387 1.60572 0
M  V30 868 H 81.9754 4.87584 2.52097 0
M  V30 869 H 82.2364 3.21611 3.03346 0
M  V30 870 N 81.2955 -0.223234 1.56011 0
M  V30 871 C 82.5435 -0.946003 1.78592 0
M  V30 872 C 82.8645 -1.84936 0.618349 0
M  V30 873 O 82.1345 -1.92473 -0.364833 0
M  V30 874 H 80.7145 -0.352298 0.658707 0
M  V30 875 H 83.3765 -0.235494 1.93472 0
M  V30 876 H 82.4725 -1.55381 2.70672 0
M  V30 877 N 82.7736 -1.49793 -0.48987 0
M  V30 878 C 83.7036 -1.70201 -1.59856 0
M  V30 879 C 84.6846 -0.55076 -1.60937 0
M  V30 880 O 85.8696 -0.787841 -1.77501 0
M  V30 881 C 82.9996 -1.77882 -2.98287 0
M  V30 882 C 81.9536 -2.92907 -3.12073 0
M  V30 883 C 81.2796 -2.85712 -4.51965 0
M  V30 884 C 82.5796 -4.3369 -2.91051 0
M  V30 885 H 84.2736 -2.63025 -1.43032 0
M  V30 886 H 81.8196 -1.26574 -0.686664 0
M  V30 887 H 83.7726 -1.90744 -3.75759 0
M  V30 888 H 82.4966 -0.816653 -3.16225 0
M  V30 889 H 81.1556 -2.79665 -2.37029 0
M  V30 890 H 80.8036 -1.8738 -4.66795 0
M  V30 891 H 80.5036 -3.62921 -4.62128 0
M  V30 892 H 82.0276 -3.00598 -5.31482 0
M  V30 893 H 83.4416 -4.47555 -3.58284 0
M  V30 894 H 81.8386 -5.12205 -3.12675 0
M  V30 895 H 82.9086 -4.47362 -1.87071 0
M  V30 896 N 84.2517 0.741722 -1.39055 0
M  V30 897 C 85.1837 1.8657 -1.33133 0
M  V30 898 C 86.1967 1.61001 -0.241329 0
M  V30 899 O 87.3857 1.7136 -0.499784 0
M  V30 900 C 84.4857 3.22457 -1.04283 0
M  V30 901 C 83.6587 3.75435 -2.24427 0
M  V30 902 C 82.7177 4.89867 -1.92138 0
M  V30 903 O 81.7437 5.03879 -2.64754 0
M  V30 904 N 82.9457 5.73738 -0.88347 0
M  V30 905 H 85.7107 1.92156 -2.29991 0
M  V30 906 H 83.2717 0.922172 -1.3307 0
M  V30 907 H 85.2637 3.9657 -0.807128 0
M  V30 908 H 83.8337 3.12181 -0.161807 0
M  V30 909 H 83.0537 2.92751 -2.6399 0
M  V30 910 H 84.3417 4.07563 -3.04581 0
M  V30 911 H 83.7397 5.64999 -0.281517 0
M  V30 912 H 82.2967 6.47947 -0.707662 0
M  V30 913 N 85.7298 1.2412 0.971189 0
M  V30 914 C 86.9758 1.09048 1.71698 0
M  V30 915 C 87.3308 -0.367442 1.88859 0
M  V30 916 O 86.6238 -1.26792 1.43646 0
M  V30 917 C 86.8178 1.75983 3.11071 0
M  V30 918 C 86.6468 3.28133 3.07504 0
M  V30 919 C 85.4168 3.97331 3.1218 0
M  V30 920 C 87.6148 4.24773 2.89952 0
M  V30 921 N 85.5968 5.3639 2.98596 0
M  V30 922 C 86.9678 5.50806 2.84627 0
M  V30 923 C 89.0228 4.15392 2.74506 0
M  V30 924 C 87.7258 6.68533 2.65437 0
M  V30 925 C 89.7518 5.32793 2.56682 0
M  V30 926 C 89.1138 6.57756 2.52063 0
M  V30 927 H 85.2128 0.453632 0.636979 0
M  V30 928 H 87.7968 1.56983 1.15171 0
M  V30 929 H 85.9678 1.30566 3.65796 0
M  V30 930 H 87.6998 1.53803 3.74335 0
M  V30 931 H 84.4548 3.48473 3.20724 0
M  V30 932 H 84.8788 6.09321 2.95054 0
M  V30 933 H 89.5208 3.19543 2.76861 0
M  V30 934 H 87.2388 7.64509 2.61825 0
M  V30 935 H 90.8248 5.27383 2.4568 0
M  V30 936 H 89.7048 7.4707 2.38446 0
M  V30 937 N 87.2079 -1.17134 1.05439 0
M  V30 938 C 88.1409 -2.2012 0.601855 0
M  V30 939 C 89.1189 -1.58314 -0.370854 0
M  V30 940 O 90.3029 -1.8638 -0.281882 0
M  V30 941 C 87.4299 -3.38491 -0.118868 0
M  V30 942 C 86.4759 -4.18752 0.809242 0
M  V30 943 S 87.3089 -4.83602 2.29977 0
M  V30 944 C 88.4649 -6.0536 1.59029 0
M  V30 945 H 88.6979 -2.58165 1.47438 0
M  V30 946 H 86.2309 -1.27788 0.866573 0
M  V30 947 H 88.1889 -4.07084 -0.528495 0
M  V30 948 H 86.8499 -2.98829 -0.967465 0
M  V30 949 H 86.0429 -5.03373 0.251379 0
M  V30 950 H 85.6449 -3.5561 1.15835 0
M  V30 951 H 87.9369 -6.71615 0.891017 0
M  V30 952 H 88.8799 -6.65679 2.41407 0
M  V30 953 H 89.2879 -5.54138 1.07663 0
M  V30 954 N 88.686 -0.835752 -1.33615 0
M  V30 955 C 89.934 -0.429109 -1.97492 0
M  V30 956 C 90.255 1.01433 -1.66543 0
M  V30 957 O 89.525 1.70611 -0.962744 0
M  V30 958 H 88.105 -0.155686 -0.730596 0
M  V30 959 H 90.767 -1.06802 -1.63031 0
M  V30 960 H 89.863 -0.55861 -3.0706 0
M  V30 961 N 90.1641 1.46063 -0.591896 0
M  V30 962 C 91.4411 1.95595 -0.0137119 0
M  V30 963 C 91.8211 1.5345 1.4497 0
M  V30 964 O 91.1691 0.789543 2.14426 0
M  V30 965 C 91.3791 3.48453 -0.195373 0
M  V30 966 C 92.7271 4.24546 -0.0679765 0
M  V30 967 O 93.7511 3.55982 -0.124681 0
M  V30 968 O 92.6101 5.46467 0.0600579 0
M  V30 969 H 89.7041 0.825795 0.0446279 0
M  V30 970 H 92.2501 1.56303 -0.660859 0
M  V30 971 H 91.0221 3.72045 -1.21235 0
M  V30 972 H 90.6451 3.94597 0.487775 0
M  V30 973 N 91.6422 0.330177 1.54103 0
M  V30 974 C 92.5902 -0.548226 2.26047 0
M  V30 975 C 93.5842 -1.11309 1.27698 0
M  V30 976 O 94.7902 -1.06036 1.45452 0
M  V30 977 H 91.1652 -0.195456 0.726155 0
M  V30 978 H 93.1362 0.0807567 2.98291 0
M  V30 979 C 91.8852 -1.69415 3.03634 0
M  V30 980 H 91.2082 -1.26876 3.79134 0
M  V30 981 H 92.6482 -2.28423 3.5721 0
M  V30 982 C 91.1072 -2.61569 2.12328 0
M  V30 983 O 91.6372 -3.63462 1.7105 0
M  V30 984 N 89.8432 -2.29952 1.77681 0
M  V30 985 H 89.3902 -1.47134 2.11446 0
M  V30 986 H 89.3482 -2.91871 1.16869 0
M  V30 987 N 93.1203 -1.57491 0.0584922 0
M  V30 988 C 94.3503 -1.9701 -0.622134 0
M  V30 989 C 94.7583 -0.935034 -1.6448 0
M  V30 990 O 94.1013 0.0882904 -1.83488 0
M  V30 991 C 94.1633 -3.32794 -1.35972 0
M  V30 992 C 93.8273 -4.54343 -0.492043 0
M  V30 993 C 94.8243 -5.19323 0.244901 0
M  V30 994 C 92.5093 -5.00534 -0.420821 0
M  V30 995 C 94.5033 -6.28835 1.04143 0
M  V30 996 C 92.1903 -6.09921 0.379389 0
M  V30 997 C 93.1883 -6.73933 1.10919 0
M  V30 998 O 92.8763 -7.81216 1.89623 0
M  V30 999 H 92.6083 -0.653127 -0.174359 0
M  V30 1000 H 95.1623 -2.05029 0.123418 0
M  V30 1001 H 93.3923 -3.21351 -2.15105 0
M  V30 1002 H 95.0813 -3.5701 -1.93129 0
M  V30 1003 H 95.8473 -4.8459 0.19939 0
M  V30 1004 H 91.7263 -4.50496 -0.978474 0
M  V30 1005 H 95.2703 -6.7873 1.61157 0
M  V30 1006 H 91.1673 -6.44089 0.426512 0
M  V30 1007 H 91.9353 -7.98029 1.81913 0
M  V30 1008 N 94.5984 0.214957 -1.56127 0
M  V30 1009 C 95.8444 0.939762 -1.79712 0
M  V30 1010 C 96.1774 1.83723 -0.629247 0
M  V30 1011 O 95.4524 1.90925 0.371197 0
M  V30 1012 C 95.7354 1.77306 -3.13424 0
M  V30 1013 C 95.5884 0.90164 -4.40671 0
M  V30 1014 C 96.9074 2.74956 -3.43638 0
M  V30 1015 H 94.0264 0.340214 -0.653776 0
M  V30 1016 H 96.6684 0.20824 -1.88855 0
M  V30 1017 H 94.8184 2.39673 -3.0576 0
M  V30 1018 H 96.4904 0.294206 -4.60361 0
M  V30 1019 H 94.7334 0.207368 -4.33304 0
M  V30 1020 H 95.4044 1.51923 -5.30682 0
M  V30 1021 H 97.8804 2.22724 -3.51473 0
M  V30 1022 H 96.7564 3.30358 -4.38355 0
M  V30 1023 H 97.0174 3.53023 -2.66134 0
M  V30 1024 N 96.0765 1.50051 0.48192 0
M  V30 1025 C 97.3235 1.60498 1.23477 0
M  V30 1026 C 97.6515 0.300331 1.92167 0
M  V30 1027 O 96.9065 -0.713094 1.82246 0
M  V30 1028 C 97.2055 2.72717 2.30998 0
M  V30 1029 C 96.8715 4.13572 1.79636 0
M  V30 1030 C 95.5335 4.519 1.65348 0
M  V30 1031 C 97.8855 5.01649 1.41412 0
M  V30 1032 C 95.2135 5.76057 1.11244 0
M  V30 1033 C 97.5655 6.26343 0.887538 0
M  V30 1034 C 96.2295 6.63483 0.731207 0
M  V30 1035 H 95.4995 0.587303 0.451836 0
M  V30 1036 H 98.1465 1.83948 0.532468 0
M  V30 1037 H 96.4515 2.43312 3.07094 0
M  V30 1038 H 98.1485 2.78006 2.88988 0
M  V30 1039 H 94.7385 3.83329 1.91721 0
M  V30 1040 H 98.9225 4.72679 1.51289 0
M  V30 1041 H 94.1785 6.03516 0.978686 0
M  V30 1042 H 98.3525 6.93958 0.582654 0
M  V30 1043 H 95.9795 7.59568 0.309806 0
M  V30 1044 N 97.5546 -0.734337 1.39446 0
M  V30 1045 C 98.8036 -1.48937 1.36017 0
M  V30 1046 C 99.1166 -1.95557 -0.0409005 0
M  V30 1047 O 100.323 -2.70779 -0.19778 0
M  V30 1048 C 98.7786 -2.69125 2.38955 0
M  V30 1049 C 98.3866 -2.29452 3.8478 0
M  V30 1050 C 100.131 -3.46944 2.44603 0
M  V30 1051 C 98.0376 -3.46366 4.79358 0
M  V30 1052 H 96.9676 -0.559296 0.505672 0
M  V30 1053 H 99.6186 -0.800983 1.65095 0
M  V30 1054 H 98.0006 -3.40041 2.02948 0
M  V30 1055 H 99.1746 -1.66077 4.29831 0
M  V30 1056 H 97.4896 -1.64723 3.82433 0
M  V30 1057 H 100.087 -4.33907 3.12456 0
M  V30 1058 H 100.43 -3.89454 1.47076 0
M  V30 1059 H 100.963 -2.83056 2.79507 0
M  V30 1060 H 97.7016 -3.08905 5.78151 0
M  V30 1061 H 97.2216 -4.08719 4.38986 0
M  V30 1062 H 98.9006 -4.12691 4.98292 0
M  V30 1063 N 99.0327 -1.24633 -0.964593 0
M  V30 1064 C 99.9427 -1.05859 -2.09359 0
M  V30 1065 C 100.959 0.00148855 -1.74 0
M  V30 1066 O 102.135 -0.197346 -2.00431 0
M  V30 1067 C 99.1997 -0.668879 -3.40187 0
M  V30 1068 C 98.2607 -1.80578 -3.89474 0
M  V30 1069 C 97.4937 -1.43457 -5.14058 0
M  V30 1070 O 97.7167 -0.325775 -5.69469 0
M  V30 1071 O 96.6507 -2.2613 -5.57807 0
M  V30 1072 H 100.477 -2.00516 -2.28094 0
M  V30 1073 H 98.0617 -1.03481 -1.0776 0
M  V30 1074 H 99.9437 -0.463211 -4.18846 0
M  V30 1075 H 98.6187 0.248536 -3.22744 0
M  V30 1076 H 97.5257 -2.06623 -3.11862 0
M  V30 1077 H 98.8587 -2.70208 -4.11398 0
M  V30 1078 N 100.511 1.16574 -1.06058 0
M  V30 1079 C 101.759 1.86677 -0.77434 0
M  V30 1080 C 102.08 1.81959 0.701147 0
M  V30 1081 O 101.35 1.2515 1.50713 0
M  V30 1082 H 99.9298 0.691134 -0.283449 0
M  V30 1083 H 102.592 1.41378 -1.34158 0
M  V30 1084 H 101.688 2.92181 -1.09711 0
M  V30 1085 N 101.989 0.842826 1.3317 0
M  V30 1086 C 103.266 0.362216 1.92217 0
M  V30 1087 C 103.646 -1.15289 1.76838 0
M  V30 1088 O 102.994 -1.96914 1.15919 0
M  V30 1089 C 103.204 0.813495 3.39387 0
M  V30 1090 C 104.552 0.823804 4.16532 0
M  V30 1091 O 105.576 0.757358 3.48055 0
M  V30 1092 O 104.435 0.915193 5.38782 0
M  V30 1093 H 101.529 0.103317 0.820521 0
M  V30 1094 H 104.075 0.928942 1.42017 0
M  V30 1095 H 102.847 1.85624 3.4447 0
M  V30 1096 H 102.47 0.223561 3.96971 0
M  V30 1097 N 103.467 -1.45747 0.599634 0
M  V30 1098 C 104.744 -1.95585 0.0240846 0
M  V30 1099 C 105.124 -1.54217 -1.44154 0
M  V30 1100 O 104.472 -0.800903 -2.14004 0
M  V30 1101 C 104.682 -3.48344 0.21385 0
M  V30 1102 C 106.03 -4.24504 0.0904902 0
M  V30 1103 O 107.054 -3.55911 0.143558 0
M  V30 1104 O 105.913 -5.46491 -0.0310766 0
M  V30 1105 H 103.007 -0.82602 -0.0402478 0
M  V30 1106 H 105.553 -1.55951 0.669139 0
M  V30 1107 H 104.325 -3.71397 1.23206 0
M  V30 1108 H 103.948 -3.9485 -0.466842 0
M  V30 1109 N 104.945 -0.338344 -1.53925 0
M  V30 1110 C 105.875 0.51328 -2.27789 0
M  V30 1111 C 106.856 1.107 -1.29149 0
M  V30 1112 O 108.041 1.12937 -1.57984 0
M  V30 1113 C 105.171 1.66697 -3.04679 0
M  V30 1114 C 104.125 1.20183 -4.1078 0
M  V30 1115 C 103.451 2.44363 -4.75595 0
M  V30 1116 C 104.751 0.30605 -5.21403 0
M  V30 1117 H 106.445 -0.102883 -2.99223 0
M  V30 1118 H 103.991 -0.0509219 -1.4391 0
M  V30 1119 H 105.944 2.26915 -3.55088 0
M  V30 1120 H 104.668 2.30995 -2.30887 0
M  V30 1121 H 103.327 0.622499 -3.61276 0
M  V30 1122 H 102.975 3.07057 -3.98403 0
M  V30 1123 H 102.675 2.13925 -5.47275 0
M  V30 1124 H 104.199 3.05317 -5.28786 0
M  V30 1125 H 105.613 0.814929 -5.67478 0
M  V30 1126 H 104.01 0.0937929 -6.00027 0
M  V30 1127 H 105.08 -0.65921 -4.80398 0
M  V30 1128 N 106.423 1.57458 -0.0668435 0
M  V30 1129 C 107.669 1.93587 0.6043 0
M  V30 1130 C 108.002 0.946722 1.69561 0
M  V30 1131 O 107.277 -0.0248516 1.94484 0
M  V30 1132 C 107.56 3.40014 1.18585 0
M  V30 1133 C 107.413 4.49685 0.101529 0
M  V30 1134 C 108.732 3.87154 2.09284 0
M  V30 1135 H 105.851 0.703958 0.218202 0
M  V30 1136 H 108.493 1.89542 -0.131804 0
M  V30 1137 H 106.643 3.43592 1.81319 0
M  V30 1138 H 108.315 4.5823 -0.531279 0
M  V30 1139 H 106.558 4.30059 -0.568487 0
M  V30 1140 H 107.229 5.49266 0.54874 0
M  V30 1141 H 109.705 3.85551 1.56491 0
M  V30 1142 H 108.581 4.90231 2.46911 0
M  V30 1143 H 108.842 3.2481 2.99918 0
M  V30 1144 N 107.901 -0.206675 1.56239 0
M  V30 1145 C 109.148 -0.928842 1.79941 0
M  V30 1146 C 109.476 -1.83734 0.638131 0
M  V30 1147 O 108.731 -1.92039 -0.376746 0
M  V30 1148 C 109.03 -1.78675 3.09532 0
M  V30 1149 C 108.696 -1.03022 4.38973 0
M  V30 1150 C 107.358 -0.821302 4.74139 0
M  V30 1151 C 109.71 -0.497081 5.18824 0
M  V30 1152 C 107.038 -0.0675719 5.86661 0
M  V30 1153 C 109.39 0.24338 6.32132 0
M  V30 1154 C 108.054 0.463422 6.65889 0
M  V30 1155 H 107.324 -0.339887 0.658451 0
M  V30 1156 H 109.971 -0.195977 1.90495 0
M  V30 1157 H 108.276 -2.58794 2.94165 0
M  V30 1158 H 109.973 -2.34792 3.25075 0
M  V30 1159 H 106.563 -1.20306 4.11369 0
M  V30 1160 H 110.747 -0.645921 4.92079 0
M  V30 1161 H 106.003 0.112995 6.11296 0
M  V30 1162 H 110.177 0.66393 6.93228 0
M  V30 1163 H 107.804 1.04938 7.52922 0
M  V30 1164 N 109.379 -1.50304 -0.473955 0
M  V30 1165 C 110.327 -1.69482 -1.59307 0
M  V30 1166 C 111.321 -0.560669 -1.59853 0
M  V30 1167 O 112.527 -0.741087 -1.64036 0
M  V30 1168 H 108.902 -0.534892 -0.528578 0
M  V30 1169 H 110.873 -2.63364 -1.40293 0
M  V30 1170 C 109.622 -1.80354 -2.97267 0
M  V30 1171 H 108.945 -2.67012 -2.97564 0
M  V30 1172 H 110.385 -1.97798 -3.75036 0
M  V30 1173 C 108.844 -0.55448 -3.32306 0
M  V30 1174 O 109.374 0.307661 -4.0052 0
M  V30 1175 N 107.58 -0.409354 -2.87702 0
M  V30 1176 H 107.127 -1.11196 -2.32364 0
M  V30 1177 H 107.085 0.425223 -3.11511 0
M  V30 1178 N 110.857 0.726932 -1.39834 0
M  V30 1179 C 111.804 1.841 -1.39197 0
M  V30 1180 C 112.774 1.642 -0.250502 0
M  V30 1181 O 113.959 1.85494 -0.446846 0
M  V30 1182 C 111.099 3.21697 -1.24919 0
M  V30 1183 C 110.212 3.53247 -2.48678 0
M  V30 1184 C 109.347 4.80289 -2.26928 0
M  V30 1185 C 108.386 5.04707 -3.4632 0
M  V30 1186 N 107.523 6.22956 -3.23836 0
M  V30 1187 H 112.363 1.83979 -2.34427 0
M  V30 1188 H 109.9 0.898876 -1.16442 0
M  V30 1189 H 111.858 4.01137 -1.1465 0
M  V30 1190 H 110.488 3.21076 -0.333153 0
M  V30 1191 H 109.54 2.68447 -2.69519 0
M  V30 1192 H 110.852 3.67205 -3.37582 0
M  V30 1193 H 110.006 5.67725 -2.13947 0
M  V30 1194 H 108.745 4.68519 -1.35431 0
M  V30 1195 H 107.75 4.1573 -3.5979 0
M  V30 1196 H 108.975 5.18357 -4.38729 0
M  V30 1197 H 106.921 6.12459 -2.35011 0
M  V30 1198 H 106.838 6.37539 -4.063 0
M  V30 1199 H 108.106 7.1321 -3.14566 0
M  V30 1200 N 112.336 1.25143 0.95797 0
M  V30 1201 C 113.299 1.05321 2.03569 0
M  V30 1202 C 114.299 0.007152 1.60798 0
M  V30 1203 O 115.489 0.24903 1.72411 0
M  V30 1204 C 112.621 0.598394 3.35607 0
M  V30 1205 H 113.814 2.00986 2.22586 0
M  V30 1206 H 111.367 1.07502 1.13459 0
M  V30 1207 H 112.102 -0.361014 3.22284 0
M  V30 1208 H 111.887 1.35351 3.67998 0
M  V30 1209 H 113.377 0.48104 4.1482 0
M  V30 1210 N 113.814 -1.1601 1.06675 0
M  V30 1211 C 114.762 -2.22586 0.675157 0
M  V30 1212 C 115.756 -1.66525 -0.310766 0
M  V30 1213 O 116.962 -1.79145 -0.175215 0
M  V30 1214 H 113.337 -0.724855 0.200223 0
M  V30 1215 H 115.308 -2.52899 1.58381 0
M  V30 1216 C 114.057 -3.47604 0.0817162 0
M  V30 1217 H 113.38 -3.91058 0.831484 0
M  V30 1218 H 114.82 -4.23718 -0.154708 0
M  V30 1219 C 113.279 -3.15718 -1.17576 0
M  V30 1220 O 113.809 -3.31878 -2.26318 0
M  V30 1221 N 112.015 -2.69816 -1.07923 0
M  V30 1222 H 111.562 -2.56866 -0.194293 0
M  V30 1223 H 111.52 -2.48855 -1.92141 0
M  V30 1224 N 115.292 -0.849877 -1.32721 0
M  V30 1225 C 116.54 -0.450032 -1.97026 0
M  V30 1226 C 116.861 0.996604 -1.67609 0
M  V30 1227 O 116.131 1.6958 -0.980786 0
M  V30 1228 H 114.711 -0.163426 -0.728904 0
M  V30 1229 H 117.373 -1.08526 -1.6189 0
M  V30 1230 H 116.469 -0.591146 -3.0645 0
M  V30 1231 N 116.77 1.45427 -0.607355 0
M  V30 1232 C 117.717 2.3053 0.111625 0
M  V30 1233 C 118.687 1.4209 0.860216 0
M  V30 1234 O 119.872 1.71019 0.845998 0
M  V30 1235 C 117.012 3.26992 1.10319 0
M  V30 1236 C 116.125 4.30535 0.355493 0
M  V30 1237 C 115.26 5.14105 1.33676 0
M  V30 1238 C 114.299 6.09376 0.576862 0
M  V30 1239 N 113.436 6.85727 1.5074 0
M  V30 1240 H 118.276 2.91477 -0.620093 0
M  V30 1241 H 115.813 1.43631 -0.317594 0
M  V30 1242 H 117.771 3.81385 1.6912 0
M  V30 1243 H 116.401 2.67799 1.80232 0
M  V30 1244 H 115.453 3.78805 -0.348023 0
M  V30 1245 H 116.765 4.98235 -0.237423 0
M  V30 1246 H 115.919 5.72897 1.99684 0
M  V30 1247 H 114.658 4.46423 1.9636 0
M  V30 1248 H 113.663 5.49715 -0.0968519 0
M  V30 1249 H 114.888 6.79085 -0.0449341 0
M  V30 1250 H 112.834 6.20735 2.12189 0
M  V30 1251 H 112.751 7.49778 0.967913 0
M  V30 1252 H 114.019 7.4906 2.15706 0
M  V30 1253 N 118.248 0.346503 1.53744 0
M  V30 1254 C 119.473 -0.253074 2.0585 0
M  V30 1255 C 119.898 -1.43202 1.21962 0
M  V30 1256 O 119.256 -1.79783 0.234073 0
M  V30 1257 C 119.304 -0.643193 3.54817 0
M  V30 1258 O 118.408 -1.74286 3.73762 0
M  V30 1259 H 117.749 -0.0413583 0.662711 0
M  V30 1260 H 120.279 0.501574 1.98357 0
M  V30 1261 H 120.289 -0.919526 3.97503 0
M  V30 1262 H 118.964 0.218966 4.15323 0
M  V30 1263 H 117.541 -1.46356 3.42979 0
M  V30 1264 N 119.726 -1.57421 0.075193 0
M  V30 1265 C 120.689 -2.11791 -0.876203 0
M  V30 1266 C 121.689 -1.04268 -1.22412 0
M  V30 1267 O 122.879 -1.30242 -1.15684 0
M  V30 1268 C 120.011 -2.62207 -2.17854 0
M  V30 1269 H 121.204 -2.9716 -0.40444 0
M  V30 1270 H 118.757 -1.55333 -0.173557 0
M  V30 1271 H 119.492 -1.803 -2.6956 0
M  V30 1272 H 119.277 -3.40802 -1.93897 0
M  V30 1273 H 120.767 -3.04335 -2.85955 0
M  V30 1274 N 121.204 0.198386 -1.56346 0
M  V30 1275 C 122.136 1.26987 -1.90806 0
M  V30 1276 C 123.149 1.41877 -0.798419 0
M  V30 1277 O 124.338 1.42362 -1.07682 0
M  V30 1278 C 121.438 2.64246 -2.12196 0
M  V30 1279 C 120.611 2.71007 -3.43328 0
M  V30 1280 C 119.67 3.89439 -3.5387 0
M  V30 1281 O 118.696 3.76695 -4.26719 0
M  V30 1282 N 119.898 5.04752 -2.86715 0
M  V30 1283 H 122.663 0.977433 -2.83313 0
M  V30 1284 H 120.224 0.388322 -1.57174 0
M  V30 1285 H 122.216 3.41896 -2.1654 0
M  V30 1286 H 120.786 2.85992 -1.26204 0
M  V30 1287 H 120.006 1.79657 -3.50881 0
M  V30 1288 H 121.294 2.72512 -4.29668 0
M  V30 1289 H 120.692 5.18004 -2.2735 0
M  V30 1290 H 119.249 5.8036 -2.96691 0
M  V30 1291 N 122.682 1.50554 0.465978 0
M  V30 1292 C 123.91 1.65563 1.24083 0
M  V30 1293 C 124.325 0.341051 1.85694 0
M  V30 1294 O 123.682 -0.677543 1.69457 0
M  V30 1295 C 123.733 2.75051 2.34583 0
M  V30 1296 O 123.454 4.01413 1.75497 0
M  V30 1297 C 124.955 3.01078 3.25372 0
M  V30 1298 H 122.175 0.55638 0.375077 0
M  V30 1299 H 124.719 1.96807 0.555624 0
M  V30 1300 H 122.874 2.46486 2.9887 0
M  V30 1301 H 123.288 4.62002 2.48303 0
M  V30 1302 H 124.762 3.81339 3.99105 0
M  V30 1303 H 125.239 2.12349 3.84453 0
M  V30 1304 H 125.845 3.31194 2.66816 0
M  V30 1305 N 124.16 -0.719506 1.40217 0
M  V30 1306 C 125.388 -1.50864 1.41589 0
M  V30 1307 C 125.803 -1.88794 0.0145275 0
M  V30 1308 O 125.16 -1.55174 -0.960594 0
M  V30 1309 C 125.211 -2.78646 2.30302 0
M  V30 1310 O 124.932 -2.42321 3.64983 0
M  V30 1311 C 126.433 -3.72569 2.40224 0
M  V30 1312 H 123.653 -0.465709 0.48307 0
M  V30 1313 H 126.197 -0.88785 1.84221 0
M  V30 1314 H 124.352 -3.37019 1.91042 0
M  V30 1315 H 124.766 -3.24514 4.12057 0
M  V30 1316 H 126.24 -4.5908 3.06512 0
M  V30 1317 H 126.717 -4.15403 1.42608 0
M  V30 1318 H 127.323 -3.20109 2.80019 0
M  V30 1319 N 125.638 -1.25649 -0.95132 0
M  V30 1320 C 127.054 -1.02542 -1.223 0
M  V30 1321 C 127.254 0.255715 -1.99871 0
M  V30 1322 O 126.31 0.967558 -2.33226 0
M  V30 1323 C 127.623 -2.25065 -1.99415 0
M  V30 1324 C 129.171 -2.29861 -2.12446 0
M  V30 1325 C 129.646 -3.52048 -2.92961 0
M  V30 1326 N 131.137 -3.52465 -3.00538 0
M  V30 1327 C 131.872 -4.43672 -3.63239 0
M  V30 1328 N 131.368 -5.45157 -4.27523 0
M  V30 1329 N 133.161 -4.31346 -3.60412 0
M  V30 1330 H 125.312 -2.07951 -0.432471 0
M  V30 1331 H 127.575 -0.91339 -0.253816 0
M  V30 1332 H 127.281 -3.18194 -1.49817 0
M  V30 1333 H 127.155 -2.28502 -3.00111 0
M  V30 1334 H 129.542 -1.37252 -2.61239 0
M  V30 1335 H 129.623 -2.3044 -1.11044 0
M  V30 1336 H 129.267 -4.44981 -2.44856 0
M  V30 1337 H 129.197 -3.48715 -3.94596 0
M  V30 1338 H 131.688 -2.79056 -2.54826 0
M  V30 1339 H 132.001 -6.10958 -4.73234 0
M  V30 1340 H 130.346 -5.49025 -4.26141 0
M  V30 1341 H 133.537 -3.51288 -3.09377 0
M  V30 1342 H 133.71 -5.02624 -4.0899 0
M  V30 1343 N 127.117 1.15442 -1.07289 0
M  V30 1344 C 128.364 1.86213 -0.795668 0
M  V30 1345 C 128.692 1.82291 0.678238 0
M  V30 1346 O 127.947 1.24057 1.51355 0
M  V30 1347 C 128.246 3.3489 -1.24834 0
M  V30 1348 C 127.912 3.59007 -2.72809 0
M  V30 1349 C 126.574 3.65298 -3.13227 0
M  V30 1350 C 128.926 3.68762 -3.68326 0
M  V30 1351 C 126.254 3.78854 -4.4798 0
M  V30 1352 C 128.606 3.83842 -5.0284 0
M  V30 1353 C 127.27 3.88378 -5.4288 0
M  V30 1354 H 126.54 0.681403 -0.291155 0
M  V30 1355 H 129.187 1.36435 -1.34379 0
M  V30 1356 H 127.492 3.8687 -0.619595 0
M  V30 1357 H 129.189 3.88052 -1.01076 0
M  V30 1358 H 125.779 3.5475 -2.40521 0
M  V30 1359 H 129.963 3.63202 -3.38227 0
M  V30 1360 H 125.219 3.80623 -4.78472 0
M  V30 1361 H 129.393 3.90332 -5.76727 0
M  V30 1362 H 127.02 3.98635 -6.47298 0
M  V30 1363 N 128.595 0.856903 1.32268 0
M  V30 1364 C 129.82 0.474569 2.01897 0
M  V30 1365 C 130.245 -0.921766 1.63967 0
M  V30 1366 O 129.603 -1.60589 0.84148 0
M  V30 1367 C 129.651 0.623799 3.55164 0
M  V30 1368 O 128.755 -0.342459 4.10976 0
M  V30 1369 H 128.096 0.190422 0.63611 0
M  V30 1370 H 130.626 1.15672 1.68764 0
M  V30 1371 H 130.636 0.512169 4.04773 0
M  V30 1372 H 129.311 1.64202 3.82113 0
M  V30 1373 H 127.888 -0.18688 3.72431 0
M  V30 1374 N 130.073 -1.45103 0.615059 0
M  V30 1375 C 131.036 -2.29025 -0.0895485 0
M  V30 1376 C 132.036 -1.40174 -0.787906 0
M  V30 1377 O 133.226 -1.62217 -0.634933 0
M  V30 1378 C 130.358 -3.21376 -1.13711 0
M  V30 1379 H 131.551 -2.92807 0.648382 0
M  V30 1380 H 129.104 -1.51749 0.374444 0
M  V30 1381 H 129.839 -2.6241 -1.90556 0
M  V30 1382 H 129.624 -3.86834 -0.640475 0
M  V30 1383 H 131.114 -3.84459 -1.63036 0
M  V30 1384 N 131.551 -0.354651 -1.53558 0
M  V30 1385 C 132.514 0.484566 -2.24019 0
M  V30 1386 C 133.514 1.01861 -1.24422 0
M  V30 1387 O 134.704 0.906097 -1.4878 0
M  V30 1388 C 131.836 1.67615 -2.96847 0
M  V30 1389 H 133.029 -0.131843 -2.9961 0
M  V30 1390 H 130.582 -0.106165 -1.55939 0
M  V30 1391 H 131.317 2.33095 -2.25471 0
M  V30 1392 H 131.102 1.30029 -3.69912 0
M  V30 1393 H 132.592 2.27114 -3.50441 0
M  V30 1394 N 133.029 1.57378 -0.0835403 0
M  V30 1395 C 134.306 1.85363 0.624507 0
M  V30 1396 C 134.686 0.978239 1.87066 0
M  V30 1397 O 134.034 0.0475908 2.2845 0
M  V30 1398 C 134.244 3.35795 0.950947 0
M  V30 1399 C 135.592 4.03581 1.31939 0
M  V30 1400 O 136.616 3.40609 1.04232 0
M  V30 1401 O 135.475 5.14672 1.83779 0
M  V30 1402 H 132.569 0.766162 0.311329 0
M  V30 1403 H 135.115 1.69307 -0.115362 0
M  V30 1404 H 133.887 3.91244 0.0663899 0
M  V30 1405 H 133.51 3.57154 1.74719 0
M  V30 1406 N 134.507 -0.190092 1.56449 0
M  V30 1407 C 135.437 -1.23816 1.97969 0
M  V30 1408 C 136.418 -1.47201 0.852395 0
M  V30 1409 O 137.603 -1.58854 1.1171 0
M  V30 1410 C 134.733 -2.5813 2.3235 0
M  V30 1411 C 133.687 -2.49348 3.47864 0
M  V30 1412 C 133.013 -3.8798 3.67934 0
M  V30 1413 C 134.313 -2.01424 4.81898 0
M  V30 1414 H 136.007 -0.89311 2.85769 0
M  V30 1415 H 133.553 -0.428177 1.37487 0
M  V30 1416 H 135.506 -3.31637 2.59991 0
M  V30 1417 H 134.23 -2.94386 1.41438 0
M  V30 1418 H 132.889 -1.78297 3.20321 0
M  V30 1419 H 132.537 -4.21597 2.74344 0
M  V30 1420 H 132.237 -3.82978 4.45648 0
M  V30 1421 H 133.761 -4.63101 3.97957 0
M  V30 1422 H 135.175 -2.64693 5.08538 0
M  V30 1423 H 133.572 -2.07413 5.63116 0
M  V30 1424 H 134.642 -0.967677 4.75146 0
M  V30 1425 N 135.985 -1.50799 -0.457987 0
M  V30 1426 C 136.933 -1.71162 -1.575 0
M  V30 1427 C 137.927 -0.577592 -1.59249 0
M  V30 1428 O 139.133 -0.758443 -1.63241 0
M  V30 1429 H 135.508 -0.540468 -0.522875 0
M  V30 1430 H 137.479 -2.64837 -1.37492 0
M  V30 1431 C 136.228 -1.83496 -2.95338 0
M  V30 1432 H 135.551 -2.70153 -2.94716 0
M  V30 1433 H 136.991 -2.01765 -3.72917 0
M  V30 1434 C 135.45 -0.589694 -3.31699 0
M  V30 1435 O 135.98 0.265163 -4.00824 0
M  V30 1436 N 134.186 -0.439845 -2.87252 0
M  V30 1437 H 133.733 -1.13655 -2.31172 0
M  V30 1438 H 133.691 0.392159 -3.11945 0
M  V30 1439 N 137.463 0.71206 -1.40597 0
M  V30 1440 C 138.426 1.80785 -1.40888 0
M  V30 1441 C 139.426 1.57937 -0.302103 0
M  V30 1442 O 140.616 1.64913 -0.561182 0
M  V30 1443 C 137.748 3.18927 -1.20409 0
M  V30 1444 H 138.941 1.81924 -2.38419 0
M  V30 1445 H 136.494 0.91805 -1.26497 0
M  V30 1446 H 137.229 3.23436 -0.236522 0
M  V30 1447 H 137.014 3.36911 -2.00582 0
M  V30 1448 H 138.504 3.98949 -1.23408 0
M  V30 1449 N 138.941 1.26152 0.944643 0
M  V30 1450 C 139.871 1.09902 2.06019 0
M  V30 1451 C 140.852 0.00519538 1.70099 0
M  V30 1452 O 142.037 0.176583 1.93396 0
M  V30 1453 C 139.167 0.727562 3.39594 0
M  V30 1454 C 138.121 1.77274 3.89561 0
M  V30 1455 C 137.447 1.25569 5.19747 0
M  V30 1456 C 138.747 3.17357 4.14827 0
M  V30 1457 H 140.441 2.03217 2.19871 0
M  V30 1458 H 137.987 0.978452 1.05652 0
M  V30 1459 H 139.94 0.600777 4.17095 0
M  V30 1460 H 138.664 -0.241287 3.25707 0
M  V30 1461 H 137.323 1.88814 3.14237 0
M  V30 1462 H 136.971 0.276783 5.02238 0
M  V30 1463 H 136.671 1.95433 5.54148 0
M  V30 1464 H 138.195 1.1415 5.99835 0
M  V30 1465 H 139.609 3.08914 4.82954 0
M  V30 1466 H 138.006 3.84781 4.60504 0
M  V30 1467 H 139.076 3.63673 3.20734 0
M  V30 1468 N 140.419 -1.14872 1.07899 0
M  V30 1469 C 141.352 -2.18794 0.64841 0
M  V30 1470 C 142.33 -1.59065 -0.337189 0
M  V30 1471 O 143.514 -1.86936 -0.242284 0
M  V30 1472 C 140.641 -3.38667 -0.0470417 0
M  V30 1473 C 139.687 -4.16942 0.897884 0
M  V30 1474 S 140.52 -4.78615 2.40183 0
M  V30 1475 C 141.676 -6.0185 1.71834 0
M  V30 1476 H 141.909 -2.5498 1.52881 0
M  V30 1477 H 139.442 -1.25922 0.893484 0
M  V30 1478 H 141.4 -4.08113 -0.442027 0
M  V30 1479 H 140.061 -3.00814 -0.903861 0
M  V30 1480 H 139.254 -5.02726 0.358096 0
M  V30 1481 H 138.856 -3.53073 1.23352 0
M  V30 1482 H 141.148 -6.69574 1.03328 0
M  V30 1483 H 142.091 -6.60408 2.55473 0
M  V30 1484 H 142.499 -5.5173 1.19392 0
M  V30 1485 N 141.898 -0.863906 -1.31812 0
M  V30 1486 C 143.309 -0.52522 -1.7916 0
M  V30 1487 C 143.66 0.957518 -1.71248 0
M  V30 1488 O 142.785 1.74734 -1.27659 0
M  V30 1489 C 143.38 -0.9466 -3.25307 0
M  V30 1490 C 141.939 -0.659668 -3.70574 0
M  V30 1491 C 141.086 -1.14126 -2.52726 0
M  V30 1492 H 144.037 -1.05022 -1.1898 0
M  V30 1493 H 144.058 -0.266766 -3.79564 0
M  V30 1494 H 143.57 -2.02579 -3.31034 0
M  V30 1495 H 141.671 0.408416 -3.70355 0
M  V30 1496 H 141.784 -1.23245 -4.62977 0
M  V30 1497 H 140.148 -0.561216 -2.4844 0
M  V30 1498 H 140.931 -2.22775 -2.61201 0
M  V30 1499 N 143.376 1.44774 -0.622745 0
M  V30 1500 C 144.286 2.34433 0.0886031 0
M  V30 1501 C 145.302 1.52131 0.844529 0
M  V30 1502 O 146.478 1.84886 0.798691 0
M  V30 1503 C 143.543 3.29986 1.0635 0
M  V30 1504 C 142.604 4.28195 0.307873 0
M  V30 1505 C 141.837 5.19183 1.23633 0
M  V30 1506 O 142.06 5.13918 2.47476 0
M  V30 1507 O 140.994 5.97515 0.725189 0
M  V30 1508 H 144.82 2.96693 -0.648599 0
M  V30 1509 H 142.405 1.44408 -0.382957 0
M  V30 1510 H 144.287 3.88825 1.6246 0
M  V30 1511 H 142.962 2.70269 1.78146 0
M  V30 1512 H 141.869 3.72927 -0.296064 0
M  V30 1513 H 143.202 4.90808 -0.3699 0
M  V30 1514 N 144.854 0.36279 1.53368 0
M  V30 1515 C 146.102 -0.227326 2.00817 0
M  V30 1516 C 146.423 -1.49511 1.25186 0
M  V30 1517 O 145.693 -1.92482 0.364348 0
M  V30 1518 H 144.273 -0.0869923 0.741917 0
M  V30 1519 H 146.935 0.488381 1.88682 0
M  V30 1520 H 146.031 -0.456273 3.08747 0
M  V30 1521 N 146.332 -1.57332 0.0918853 0
M  V30 1522 C 147.572 -1.96117 -0.575988 0
M  V30 1523 C 147.936 -0.972499 -1.65549 0
M  V30 1524 O 149.137 -1.24872 -2.38034 0
M  V30 1525 C 147.408 -3.39407 -1.11973 0
M  V30 1526 S 148.967 -4.00185 -1.79992 0
M  V30 1527 H 145.785 -0.685682 -0.188045 0
M  V30 1528 H 148.387 -1.94755 0.170525 0
M  V30 1529 H 147.091 -4.09131 -0.322504 0
M  V30 1530 H 146.622 -3.44358 -1.90214 0
M  V30 1531 H 148.637 -3.88728 -3.08391 0
M  V30 1532 N 147.81 0.181792 -1.56548 0
M  V30 1533 C 148.757 1.22521 -1.95595 0
M  V30 1534 C 149.727 1.4454 -0.818373 0
M  V30 1535 O 150.912 1.57454 -1.07763 0
M  V30 1536 C 148.052 2.56193 -2.31212 0
M  V30 1537 C 147.165 2.41641 -3.58097 0
M  V30 1538 C 146.3 3.68108 -3.82975 0
M  V30 1539 C 145.339 3.48445 -5.03242 0
M  V30 1540 N 144.476 4.66956 -5.24306 0
M  V30 1541 H 149.316 0.885226 -2.84548 0
M  V30 1542 H 146.853 0.425718 -1.40805 0
M  V30 1543 H 148.811 3.34088 -2.49882 0
M  V30 1544 H 147.441 2.88208 -1.45382 0
M  V30 1545 H 146.493 1.54976 -3.474 0
M  V30 1546 H 147.805 2.23052 -4.46149 0
M  V30 1547 H 146.959 4.54441 -4.01956 0
M  V30 1548 H 145.698 3.89666 -2.93278 0
M  V30 1549 H 144.703 2.60499 -4.8417 0
M  V30 1550 H 145.928 3.2832 -5.9446 0
M  V30 1551 H 143.874 4.88752 -4.37559 0
M  V30 1552 H 143.791 4.51242 -6.06561 0
M  V30 1553 H 145.059 5.54602 -5.47756 0
M  V30 1554 N 149.288 1.51039 0.449983 0
M  V30 1555 C 150.535 1.63081 1.20045 0
M  V30 1556 C 150.863 0.341024 1.91487 0
M  V30 1557 O 150.118 -0.674276 1.83717 0
M  V30 1558 C 150.417 2.77556 2.25161 0
M  V30 1559 C 150.083 4.17289 1.70823 0
M  V30 1560 C 148.745 4.55305 1.55725 0
M  V30 1561 C 151.097 5.04536 1.3074 0
M  V30 1562 C 148.425 5.78287 0.989999 0
M  V30 1563 C 150.777 6.28085 0.754482 0
M  V30 1564 C 149.441 6.64885 0.590308 0
M  V30 1565 H 148.711 0.596755 0.439277 0
M  V30 1566 H 151.358 1.85037 0.49333 0
M  V30 1567 H 149.663 2.49771 3.01863 0
M  V30 1568 H 151.36 2.84073 2.83026 0
M  V30 1569 H 147.95 3.8731 1.83546 0
M  V30 1570 H 152.134 4.75782 1.41229 0
M  V30 1571 H 147.39 6.05456 0.850451 0
M  V30 1572 H 151.564 6.95038 0.435324 0
M  V30 1573 H 149.191 7.60055 0.14862 0
M  V30 1574 N 150.766 -0.704594 1.40972 0
M  V30 1575 C 151.698 -1.82974 1.38033 0
M  V30 1576 C 152.711 -1.60305 0.283931 0
M  V30 1577 O 153.9 -1.69975 0.545042 0
M  V30 1578 C 151 -3.19578 1.12795 0
M  V30 1579 C 150.173 -3.69352 2.34302 0
M  V30 1580 C 149.232 -4.84601 2.05058 0
M  V30 1581 O 148.258 -4.96682 2.7802 0
M  V30 1582 N 149.46 -5.71194 1.03528 0
M  V30 1583 H 152.225 -1.85991 2.35005 0
M  V30 1584 H 149.786 -0.886567 1.35468 0
M  V30 1585 H 151.778 -3.9429 0.911987 0
M  V30 1586 H 150.348 -3.11642 0.24452 0
M  V30 1587 H 149.568 -2.85649 2.71659 0
M  V30 1588 H 150.856 -3.99345 3.1528 0
M  V30 1589 H 150.254 -5.64054 0.431217 0
M  V30 1590 H 148.811 -6.45843 0.879205 0
M  V30 1591 N 152.244 -1.26651 -0.937939 0
M  V30 1592 C 153.472 -1.15173 -1.7188 0
M  V30 1593 C 153.887 0.292668 -1.86518 0
M  V30 1594 O 153.244 1.20014 -1.37488 0
M  V30 1595 C 153.295 -1.81925 -3.12387 0
M  V30 1596 O 153.016 -3.2072 -2.98446 0
M  V30 1597 C 154.517 -1.76442 -4.06673 0
M  V30 1598 H 151.737 -0.400911 -0.538063 0
M  V30 1599 H 154.281 -1.67332 -1.1756 0
M  V30 1600 H 152.436 -1.33696 -3.63599 0
M  V30 1601 H 152.85 -3.53802 -3.872 0
M  V30 1602 H 154.324 -2.27781 -5.02812 0
M  V30 1603 H 154.801 -0.731608 -4.33064 0
M  V30 1604 H 155.407 -2.24238 -3.61382 0
M  V30 1605 N 153.722 1.14298 -1.08507 0
M  V30 1606 C 154.95 1.89219 -0.836876 0
M  V30 1607 C 155.365 1.78638 0.611054 0
M  V30 1608 O 154.722 1.14643 1.41998 0
M  V30 1609 C 154.773 3.39158 -1.25116 0
M  V30 1610 O 154.494 3.49449 -2.64229 0
M  V30 1611 C 155.995 4.31073 -1.03398 0
M  V30 1612 H 153.215 0.599328 -0.301739 0
M  V30 1613 H 155.759 1.44746 -1.44461 0
M  V30 1614 H 153.914 3.81251 -0.687514 0
M  V30 1615 H 154.328 4.42589 -2.81452 0
M  V30 1616 H 155.802 5.34646 -1.37323 0
M  V30 1617 H 156.279 4.3919 0.0289259 0
M  V30 1618 H 156.885 3.94738 -1.58311 0
M  V30 1619 N 155.201 0.870884 1.31352 0
M  V30 1620 C 156.478 0.402907 1.91405 0
M  V30 1621 C 156.858 -1.11512 1.79244 0
M  V30 1622 O 156.206 -1.94411 1.2007 0
M  V30 1623 C 156.416 0.885301 3.37585 0
M  V30 1624 C 157.764 0.911971 4.14691 0
M  V30 1625 O 158.788 0.831016 3.46371 0
M  V30 1626 O 157.647 1.02927 5.3672 0
M  V30 1627 H 154.741 0.120698 0.818145 0
M  V30 1628 H 157.287 0.958857 1.40014 0
M  V30 1629 H 156.059 1.92889 3.40455 0
M  V30 1630 H 155.682 0.307714 3.96407 0
M  V30 1631 N 156.679 -1.44442 0.630414 0
M  V30 1632 C 157.642 -2.29107 -0.0652523 0
M  V30 1633 C 158.642 -1.41002 -0.772995 0
M  V30 1634 O 159.832 -1.62881 -0.617692 0
M  V30 1635 C 156.964 -3.22564 -1.10296 0
M  V30 1636 H 158.157 -2.92103 0.679401 0
M  V30 1637 H 155.71 -1.51343 0.390517 0
M  V30 1638 H 156.445 -2.64416 -1.87762 0
M  V30 1639 H 156.23 -3.87491 -0.59941 0
M  V30 1640 H 157.72 -3.86167 -1.5895 0
M  V30 1641 N 158.157 -0.370918 -1.53173 0
M  V30 1642 C 159.404 0.217102 -2.01333 0
M  V30 1643 C 159.732 1.48338 -1.25802 0
M  V30 1644 O 158.987 1.92698 -0.34146 0
M  V30 1645 C 159.286 0.549696 -3.53147 0
M  V30 1646 C 158.952 -0.622872 -4.46577 0
M  V30 1647 C 157.614 -0.944595 -4.71838 0
M  V30 1648 C 159.966 -1.40819 -5.01816 0
M  V30 1649 C 157.294 -2.05351 -5.49589 0
M  V30 1650 C 159.646 -2.50757 -5.80778 0
M  V30 1651 C 158.31 -2.83458 -6.04324 0
M  V30 1652 H 157.58 0.0794431 -0.736729 0
M  V30 1653 H 160.227 -0.504481 -1.84736 0
M  V30 1654 H 158.532 1.35237 -3.6772 0
M  V30 1655 H 160.229 1.017 -3.87889 0
M  V30 1656 H 156.819 -0.36209 -4.27068 0
M  V30 1657 H 161.003 -1.17289 -4.82242 0
M  V30 1658 H 156.259 -2.3108 -5.6605 0
M  V30 1659 H 160.433 -3.12022 -6.22588 0
M  V30 1660 H 158.06 -3.69508 -6.64355 0
M  V30 1661 N 159.635 1.57281 -0.100228 0
M  V30 1662 C 161.046 1.81725 0.428107 0
M  V30 1663 C 161.397 1.01619 1.67833 0
M  V30 1664 O 160.522 0.247098 2.14985 0
M  V30 1665 C 161.117 3.29617 0.78347 0
M  V30 1666 C 159.676 3.54808 1.25653 0
M  V30 1667 C 158.823 2.76118 0.255752 0
M  V30 1668 H 161.774 1.55324 -0.325608 0
M  V30 1669 H 161.795 3.4322 1.64256 0
M  V30 1670 H 161.307 3.87893 -0.12665 0
M  V30 1671 H 159.408 3.01868 2.18418 0
M  V30 1672 H 159.521 4.63443 1.21482 0
M  V30 1673 H 157.885 2.43745 0.738956 0
M  V30 1674 H 158.668 3.37145 -0.647136 0
M  V30 1675 N 161.113 -0.173488 1.56642 0
M  V30 1676 C 162.338 -0.910149 1.86363 0
M  V30 1677 C 162.763 -1.75132 0.686318 0
M  V30 1678 O 162.121 -1.77595 -0.364643 0
M  V30 1679 C 162.169 -1.76447 3.14482 0
M  V30 1680 O 161.273 -2.86584 2.96553 0
M  V30 1681 H 160.614 -0.255086 0.613047 0
M  V30 1682 H 163.144 -0.172283 2.03873 0
M  V30 1683 H 163.154 -2.16483 3.45831 0
M  V30 1684 H 161.829 -1.14658 3.99783 0
M  V30 1685 H 160.406 -2.50146 2.76553 0
M  V30 1686 N 162.591 -1.51276 -0.441967 0
M  V30 1687 C 163.838 -1.63715 -1.19179 0
M  V30 1688 C 164.166 -0.351175 -1.91303 0
M  V30 1689 O 163.421 0.664524 -1.84072 0
M  V30 1690 C 163.72 -2.78746 -2.23686 0
M  V30 1691 C 163.386 -4.18189 -1.68607 0
M  V30 1692 C 162.048 -4.56125 -1.53308 0
M  V30 1693 C 164.4 -5.05222 -1.28062 0
M  V30 1694 C 161.728 -5.78804 -0.959317 0
M  V30 1695 C 164.08 -6.28476 -0.721162 0
M  V30 1696 C 162.744 -6.65188 -0.55504 0
M  V30 1697 H 162.014 -0.599076 -0.436106 0
M  V30 1698 H 164.661 -1.85296 -0.48351 0
M  V30 1699 H 162.966 -2.51369 -3.00535 0
M  V30 1700 H 164.663 -2.8557 -2.81515 0
M  V30 1701 H 161.253 -3.88277 -1.8149 0
M  V30 1702 H 165.437 -4.76524 -1.38704 0
M  V30 1703 H 160.693 -6.05899 -0.81833 0
M  V30 1704 H 164.867 -6.95259 -0.398458 0
M  V30 1705 H 162.494 -7.60123 -0.108311 0
M  V30 1706 N 164.069 0.697108 -1.41344 0
M  V30 1707 C 165.485 1.00751 -1.2378 0
M  V30 1708 C 165.685 2.01105 -0.126066 0
M  V30 1709 O 164.741 2.47295 0.51004 0
M  V30 1710 C 166.054 1.53359 -2.58653 0
M  V30 1711 C 167.602 1.6525 -2.65822 0
M  V30 1712 C 168.077 2.2126 -4.01009 0
M  V30 1713 N 169.568 2.28622 -4.02847 0
M  V30 1714 C 170.303 2.72984 -5.04249 0
M  V30 1715 N 169.799 3.16962 -6.16041 0
M  V30 1716 N 171.592 2.72534 -4.91611 0
M  V30 1717 H 163.743 0.0322662 -2.12375 0
M  V30 1718 H 166.006 0.0768853 -0.944877 0
M  V30 1719 H 165.712 0.870773 -3.4075 0
M  V30 1720 H 165.586 2.51597 -2.81032 0
M  V30 1721 H 167.973 2.30644 -1.84086 0
M  V30 1722 H 168.054 0.655614 -2.47256 0
M  V30 1723 H 167.698 1.56482 -4.83193 0
M  V30 1724 H 167.628 3.21698 -4.16915 0
M  V30 1725 H 170.119 1.97585 -3.22131 0
M  V30 1726 H 170.432 3.49434 -6.89287 0
M  V30 1727 H 168.777 3.14875 -6.1958 0
M  V30 1728 H 171.968 2.37525 -4.0336 0
M  V30 1729 H 172.141 3.06789 -5.70775 0
M  V30 1730 N 165.547 1.27147 0.931209 0
M  V30 1731 C 166.775 1.16082 1.71267 0
M  V30 1732 C 167.19 -0.282772 1.8667 0
M  V30 1733 O 166.547 -1.19283 1.38122 0
M  V30 1734 C 166.598 1.8358 3.11417 0
M  V30 1735 O 166.319 3.22299 2.96741 0
M  V30 1736 C 167.82 1.78597 4.05732 0
M  V30 1737 H 165.04 0.403758 0.535929 0
M  V30 1738 H 167.584 1.67953 1.16671 0
M  V30 1739 H 165.739 1.35623 3.62885 0
M  V30 1740 H 166.153 3.55851 3.85319 0
M  V30 1741 H 167.627 2.30444 5.01597 0
M  V30 1742 H 168.104 0.754564 4.3267 0
M  V30 1743 H 168.71 2.26152 3.60188 0
M  V30 1744 N 167.025 -1.13721 1.09112 0
M  V30 1745 C 167.955 -2.21148 0.749385 0
M  V30 1746 C 168.936 -1.6792 -0.271475 0
M  V30 1747 O 170.121 -1.93693 -0.140251 0
M  V30 1748 C 167.251 -3.46905 0.165659 0
M  V30 1749 C 166.205 -4.13203 1.11567 0
M  V30 1750 C 165.531 -5.33248 0.393809 0
M  V30 1751 C 166.831 -4.60912 2.45678 0
M  V30 1752 H 168.525 -2.4999 1.64758 0
M  V30 1753 H 166.071 -1.20156 0.793626 0
M  V30 1754 H 168.024 -4.21313 -0.085466 0
M  V30 1755 H 166.748 -3.17449 -0.767714 0
M  V30 1756 H 165.407 -3.40758 1.35202 0
M  V30 1757 H 165.055 -5.00054 -0.543599 0
M  V30 1758 H 164.755 -5.78552 1.02721 0
M  V30 1759 H 166.279 -6.10413 0.150908 0
M  V30 1760 H 167.693 -5.26759 2.26269 0
M  V30 1761 H 166.09 -5.16944 3.04776 0
M  V30 1762 H 167.16 -3.75603 3.06677 0
M  V30 1763 N 168.503 -0.877838 -1.30888 0
M  V30 1764 C 169.78 -0.413052 -1.91189 0
M  V30 1765 C 170.16 1.1056 -1.79832 0
M  V30 1766 O 169.508 1.93771 -1.21099 0
M  V30 1767 C 169.718 -0.903191 -3.3711 0
M  V30 1768 C 171.066 -0.93395 -4.14201 0
M  V30 1769 O 172.09 -0.849373 -3.45925 0
M  V30 1770 O 170.949 -1.05772 -5.36167 0
M  V30 1771 H 168.043 -0.125035 -0.817493 0
M  V30 1772 H 170.589 -0.966269 -1.39504 0
M  V30 1773 H 169.361 -1.94692 -3.39427 0
M  V30 1774 H 168.984 -0.328732 -3.96239 0
M  V30 1775 N 169.982 1.44106 -0.638065 0
M  V30 1776 C 170.945 2.29138 0.0531013 0
M  V30 1777 C 171.945 1.41409 0.765506 0
M  V30 1778 O 173.135 1.63206 0.609046 0
M  V30 1779 C 170.267 3.23144 1.08584 0
M  V30 1780 H 171.46 2.91739 -0.694883 0
M  V30 1781 H 169.013 1.51134 -0.398538 0
M  V30 1782 H 169.748 2.65408 1.86357 0
M  V30 1783 H 169.533 3.87804 0.578852 0
M  V30 1784 H 171.023 3.87004 1.56899 0
M  V30 1785 N 171.46 0.379036 1.52974 0
M  V30 1786 C 172.708 -0.206014 2.01047 0
M  V30 1787 C 173.029 -1.48175 1.26765 0
M  V30 1788 O 172.299 -1.92085 0.384743 0
M  V30 1789 H 170.879 -0.0791184 0.742798 0
M  V30 1790 H 173.541 0.508366 1.88153 0
M  V30 1791 H 172.637 -0.423501 3.09213 0
M  V30 1792 N 172.938 -1.57226 0.108567 0
M  V30 1793 C 174.354 -1.5766 -0.248058 0
M  V30 1794 C 174.554 -1.12063 -1.67464 0
M  V30 1795 O 173.61 -0.803236 -2.39383 0
M  V30 1796 C 174.923 -3.0069 -0.0242287 0
M  V30 1797 C 176.471 -3.12868 -0.0909372 0
M  V30 1798 C 176.946 -4.57879 0.105067 0
M  V30 1799 N 178.437 -4.63172 0.0506846 0
M  V30 1800 C 179.172 -5.73126 0.177396 0
M  V30 1801 N 178.668 -6.91866 0.359696 0
M  V30 1802 N 180.461 -5.61977 0.117709 0
M  V30 1803 H 172.612 -1.85169 1.04049 0
M  V30 1804 H 174.875 -0.85529 0.40888 0
M  V30 1805 H 174.581 -3.38299 0.961604 0
M  V30 1806 H 174.455 -3.6945 -0.76068 0
M  V30 1807 H 176.842 -2.75124 -1.06729 0
M  V30 1808 H 176.923 -2.46672 0.677225 0
M  V30 1809 H 176.567 -4.96321 1.07834 0
M  V30 1810 H 176.497 -5.22153 -0.682954 0
M  V30 1811 H 178.988 -3.778 -0.0871266 0
M  V30 1812 H 179.301 -7.71503 0.447529 0
M  V30 1813 H 177.646 -6.93874 0.395536 0
M  V30 1814 H 180.837 -4.68094 -0.0236741 0
M  V30 1815 H 181.01 -6.47627 0.219905 0
M  V30 1816 N 174.416 0.165178 -1.56732 0
M  V30 1817 C 175.664 0.879068 -1.8198 0
M  V30 1818 C 175.985 1.82514 -0.686561 0
M  V30 1819 O 175.255 1.93694 0.293146 0
M  V30 1820 H 173.835 0.327608 -0.671329 0
M  V30 1821 H 176.497 0.163526 -1.94213 0
M  V30 1822 H 175.593 1.45228 -2.76252 0
M  V30 1823 N 175.894 1.51508 0.433938 0
M  V30 1824 C 176.824 1.76016 1.53429 0
M  V30 1825 C 177.805 0.610112 1.58782 0
M  V30 1826 O 178.99 0.853177 1.74455 0
M  V30 1827 C 176.12 1.88831 2.9148 0
M  V30 1828 C 175.074 3.04288 3.00987 0
M  V30 1829 C 174.4 3.0229 4.4105 0
M  V30 1830 C 175.7 4.44193 2.74754 0
M  V30 1831 H 177.394 2.68152 1.33171 0
M  V30 1832 H 174.94 1.29035 0.639214 0
M  V30 1833 H 176.893 2.04559 3.6842 0
M  V30 1834 H 175.617 0.933455 3.12976 0
M  V30 1835 H 174.276 2.8827 2.26486 0
M  V30 1836 H 173.924 2.04576 4.59519 0
M  V30 1837 H 173.624 3.79822 4.4834 0
M  V30 1838 H 175.148 3.20116 5.1996 0
M  V30 1839 H 176.562 4.60544 3.41426 0
M  V30 1840 H 174.959 5.23457 2.9345 0
M  V30 1841 H 176.029 4.53996 1.70339 0
M  V30 1842 N 177.372 -0.689602 1.41712 0
M  V30 1843 C 178.618 -1.45181 1.41599 0
M  V30 1844 C 178.951 -1.94181 0.0270081 0
M  V30 1845 O 178.226 -1.6993 -0.946265 0
M  V30 1846 C 178.509 -2.65945 2.42787 0
M  V30 1847 C 178.362 -2.22672 3.90816 0
M  V30 1848 C 179.681 -3.68149 2.41151 0
M  V30 1849 H 176.8 -0.526576 0.515642 0
M  V30 1850 H 179.442 -0.784947 1.73028 0
M  V30 1851 H 177.592 -3.2284 2.16116 0
M  V30 1852 H 179.264 -1.71058 4.28412 0
M  V30 1853 H 177.507 -1.54394 4.05395 0
M  V30 1854 H 178.178 -3.0935 4.57172 0
M  V30 1855 H 180.654 -3.2094 2.64834 0
M  V30 1856 H 179.53 -4.50248 3.13955 0
M  V30 1857 H 179.791 -4.18259 1.43221 0
M  V30 1858 N 178.85 -1.27639 -0.924453 0
M  V30 1859 C 180.096 -1.14336 -1.67497 0
M  V30 1860 C 180.429 0.309465 -1.91718 0
M  V30 1861 O 179.704 1.22608 -1.50989 0
M  V30 1862 C 179.987 -1.93096 -3.0395 0
M  V30 1863 C 179.84 -3.46381 -2.8695 0
M  V30 1864 C 181.159 -1.73798 -4.0433 0
M  V30 1865 H 178.278 -0.416728 -0.607871 0
M  V30 1866 H 180.92 -1.56832 -1.07256 0
M  V30 1867 H 179.07 -1.56982 -3.55372 0
M  V30 1868 H 180.742 -3.92343 -2.42621 0
M  V30 1869 H 178.985 -3.72557 -2.22225 0
M  V30 1870 H 179.656 -3.96735 -3.83804 0
M  V30 1871 H 182.132 -2.05293 -3.61931 0
M  V30 1872 H 181.008 -2.31294 -4.97789 0
M  V30 1873 H 181.269 -0.686725 -4.36734 0
M  V30 1874 N 180.328 1.1314 -1.09713 0
M  V30 1875 C 181.258 2.20748 -0.761102 0
M  V30 1876 C 182.239 1.68061 0.262566 0
M  V30 1877 O 183.424 1.93765 0.129977 0
M  V30 1878 C 180.554 3.46812 -0.184054 0
M  V30 1879 C 179.508 4.12606 -1.13757 0
M  V30 1880 C 178.834 5.33031 -0.422083 0
M  V30 1881 C 180.134 4.59603 -2.48118 0
M  V30 1882 H 181.828 2.49113 -1.66082 0
M  V30 1883 H 179.374 1.19734 -0.799987 0
M  V30 1884 H 181.327 4.21353 0.0631215 0
M  V30 1885 H 180.051 3.17851 0.750868 0
M  V30 1886 H 178.71 3.40036 -1.37007 0
M  V30 1887 H 178.358 5.00335 0.517072 0
M  V30 1888 H 178.058 5.77999 -1.05788 0
M  V30 1889 H 179.582 6.10325 -0.183277 0
M  V30 1890 H 180.996 5.25552 -2.29059 0
M  V30 1891 H 179.393 5.15321 -3.07514 0
M  V30 1892 H 180.463 3.73971 -3.08665 0
M  V30 1893 N 181.806 0.884767 1.30421 0
M  V30 1894 C 183.053 0.503105 1.96151 0
M  V30 1895 C 183.381 -0.947676 1.69851 0
M  V30 1896 O 182.636 -1.68467 0.995861 0
M  V30 1897 C 182.935 0.724318 3.49983 0
M  V30 1898 C 182.601 2.15015 3.96332 0
M  V30 1899 C 181.263 2.54005 4.08699 0
M  V30 1900 C 183.615 3.07936 4.20505 0
M  V30 1901 C 180.943 3.85128 4.42599 0
M  V30 1902 C 183.295 4.3859 4.55874 0
M  V30 1903 C 181.959 4.77474 4.66449 0
M  V30 1904 H 181.229 0.184099 0.717766 0
M  V30 1905 H 183.876 1.12058 1.55291 0
M  V30 1906 H 182.181 0.0238086 3.91793 0
M  V30 1907 H 183.878 0.408617 3.98913 0
M  V30 1908 H 180.468 1.8375 3.87213 0
M  V30 1909 H 184.652 2.79033 4.10431 0
M  V30 1910 H 179.908 4.14996 4.48986 0
M  V30 1911 H 184.082 5.10629 4.7353 0
M  V30 1912 H 181.709 5.79115 4.92473 0
M  V30 1913 N 183.284 -1.43765 0.645699 0
M  V30 1914 C 184.512 -2.06253 0.163556 0
M  V30 1915 C 184.927 -1.48352 -1.16778 0
M  V30 1916 O 184.284 -0.611932 -1.71935 0
M  V30 1917 C 184.335 -3.61453 0.0583186 0
M  V30 1918 O 184.056 -4.172 1.33702 0
M  V30 1919 C 185.557 -4.41002 -0.450795 0
M  V30 1920 H 182.777 -0.665413 0.0864077 0
M  V30 1921 H 185.321 -1.84396 0.884222 0
M  V30 1922 H 183.476 -3.82522 -0.612865 0
M  V30 1923 H 183.89 -5.10791 1.19131 0
M  V30 1924 H 185.364 -5.49966 -0.473403 0
M  V30 1925 H 185.841 -4.13488 -1.48068 0
M  V30 1926 H 186.447 -4.24886 0.187637 0
M  V30 1927 N 184.763 -0.387143 -1.52771 0
M  V30 1928 C 185.695 0.484089 -2.2403 0
M  V30 1929 C 186.708 1.02849 -1.26198 0
M  V30 1930 O 187.897 0.931186 -1.52286 0
M  V30 1931 C 184.997 1.68337 -2.94136 0
M  V30 1932 C 184.17 1.26672 -4.18656 0
M  V30 1933 C 183.229 2.33045 -4.7178 0
M  V30 1934 O 182.255 1.94541 -5.34923 0
M  V30 1935 N 183.457 3.64929 -4.5145 0
M  V30 1936 H 186.222 -0.126404 -2.99433 0
M  V30 1937 H 183.783 -0.213392 -1.60488 0
M  V30 1938 H 185.775 2.39019 -3.26577 0
M  V30 1939 H 184.345 2.20025 -2.22053 0
M  V30 1940 H 183.565 0.388878 -3.92277 0
M  V30 1941 H 184.853 0.964964 -4.99566 0
M  V30 1942 H 184.251 3.98974 -4.01044 0
M  V30 1943 H 182.808 4.31651 -4.88386 0
M  V30 1944 N 186.241 1.57166 -0.116904 0
M  V30 1945 C 187.489 1.94737 0.540533 0
M  V30 1946 C 187.81 1.00096 1.67349 0
M  V30 1947 O 187.08 0.0568854 1.95817 0
M  V30 1948 H 185.66 0.718981 0.202669 0
M  V30 1949 H 188.322 1.94017 -0.185353 0
M  V30 1950 H 187.418 2.97719 0.936483 0
M  V30 1951 N 187.719 -0.156864 1.56817 0
M  V30 1952 C 188.967 -0.869404 1.82444 0
M  V30 1953 C 189.288 -1.82147 0.69623 0
M  V30 1954 O 188.558 -1.93847 -0.28287 0
M  V30 1955 H 187.138 -0.324043 0.673056 0
M  V30 1956 H 189.8 -0.153224 1.94297 0
M  V30 1957 H 188.896 -1.43761 2.77019 0
M  V30 1958 N 189.197 -1.51736 -0.425897 0
M  V30 1959 C 190.127 -1.76827 -1.52494 0
M  V30 1960 C 191.108 -0.618524 -1.58456 0
M  V30 1961 O 192.293 -0.862416 -1.74 0
M  V30 1962 C 189.423 -1.90374 -2.90474 0
M  V30 1963 C 188.377 -3.0588 -2.99369 0
M  V30 1964 C 187.703 -3.04625 -4.3944 0
M  V30 1965 C 189.003 -4.45644 -2.72394 0
M  V30 1966 H 190.697 -2.68855 -1.31748 0
M  V30 1967 H 188.243 -1.29372 -0.632362 0
M  V30 1968 H 190.196 -2.0651 -3.6733 0
M  V30 1969 H 188.92 -0.95004 -3.12477 0
M  V30 1970 H 187.579 -2.89467 -2.24954 0
M  V30 1971 H 187.227 -2.0701 -4.58428 0
M  V30 1972 H 186.927 -3.82195 -4.46319 0
M  V30 1973 H 188.451 -3.22869 -5.18255 0
M  V30 1974 H 189.865 -4.62348 -3.38979 0
M  V30 1975 H 188.262 -5.25006 -2.9067 0
M  V30 1976 H 189.332 -4.54893 -1.67929 0
M  V30 1977 N 190.675 0.682077 -1.42076 0
M  V30 1978 C 191.921 1.44428 -1.42367 0
M  V30 1979 C 192.254 1.94164 -0.0373056 0
M  V30 1980 O 191.529 1.70429 0.937239 0
M  V30 1981 C 191.812 2.64654 -2.44194 0
M  V30 1982 C 191.665 2.20596 -3.91991 0
M  V30 1983 C 192.984 3.66865 -2.431 0
M  V30 1984 H 190.103 0.523834 -0.518428 0
M  V30 1985 H 192.745 0.77576 -1.73442 0
M  V30 1986 H 190.895 3.2169 -2.17826 0
M  V30 1987 H 192.567 1.68783 -4.29313 0
M  V30 1988 H 190.81 1.52242 -4.06208 0
M  V30 1989 H 191.481 3.06921 -4.58807 0
M  V30 1990 H 193.957 3.19531 -2.66532 0
M  V30 1991 H 192.833 4.48577 -3.16339 0
M  V30 1992 H 193.094 4.17493 -1.45437 0
M  V30 1993 N 192.153 1.28127 0.917671 0
M  V30 1994 C 193.401 1.14825 1.66312 0
M  V30 1995 C 193.722 -0.304379 1.9261 0
M  V30 1996 O 192.992 -1.21149 1.53947 0
M  V30 1997 H 191.572 0.421953 0.616413 0
M  V30 1998 H 194.234 1.608 1.10134 0
M  V30 1999 H 193.33 1.68489 2.62712 0
M  V30 2000 N 193.631 -1.12557 1.10312 0
M  V30 2001 C 194.878 -1.84038 0.844759 0
M  V30 2002 C 195.206 -1.84026 -0.629668 0
M  V30 2003 O 194.461 -1.28026 -1.48013 0
M  V30 2004 C 194.76 -3.31462 1.33669 0
M  V30 2005 C 194.426 -3.51647 2.82232 0
M  V30 2006 C 193.088 -3.56864 3.22802 0
M  V30 2007 C 195.44 -3.58867 3.77974 0
M  V30 2008 C 192.768 -3.66844 4.57867 0
M  V30 2009 C 195.12 -3.70375 5.1284 0
M  V30 2010 C 193.784 -3.73848 5.52986 0
M  V30 2011 H 193.054 -0.673444 0.309119 0
M  V30 2012 H 195.701 -1.32824 1.37949 0
M  V30 2013 H 194.006 -3.85091 0.721949 0
M  V30 2014 H 195.703 -3.85236 1.11329 0
M  V30 2015 H 192.293 -3.48249 2.49842 0
M  V30 2016 H 196.477 -3.54107 3.47738 0
M  V30 2017 H 191.733 -3.67804 4.88396 0
M  V30 2018 H 195.907 -3.74904 5.86873 0
M  V30 2019 H 193.534 -3.81333 6.57639 0
M  V30 2020 N 195.109 -0.891671 -1.2995 0
M  V30 2021 C 196.386 -0.433307 -1.9074 0
M  V30 2022 C 196.766 1.08646 -1.80995 0
M  V30 2023 O 196.114 1.92476 -1.23147 0
M  V30 2024 C 196.324 -0.938895 -3.36134 0
M  V30 2025 C 197.672 -0.977829 -4.13187 0
M  V30 2026 O 198.696 -0.886015 -3.45005 0
M  V30 2027 O 197.555 -1.11453 -5.35015 0
M  V30 2028 H 194.649 -0.133699 -0.816121 0
M  V30 2029 H 197.195 -0.981011 -1.38471 0
M  V30 2030 H 195.967 -1.98281 -3.37343 0
M  V30 2031 H 195.59 -0.37074 -3.95868 0
M  V30 2032 N 196.587 1.43421 -0.653314 0
M  V30 2033 C 197.52 2.2803 0.0879804 0
M  V30 2034 C 198.498 1.39833 0.82979 0
M  V30 2035 O 199.682 1.69275 0.829341 0
M  V30 2036 C 196.809 3.19247 1.13132 0
M  V30 2037 C 195.855 4.23704 0.487546 0
M  V30 2038 S 196.688 5.30377 -0.738961 0
M  V30 2039 C 197.844 6.25162 0.30384 0
M  V30 2040 H 198.077 2.90554 -0.629739 0
M  V30 2041 H 195.61 1.47934 -0.442156 0
M  V30 2042 H 197.568 3.72346 1.72827 0
M  V30 2043 H 196.229 2.55901 1.82136 0
M  V30 2044 H 195.422 4.87631 1.27407 0
M  V30 2045 H 195.024 3.73983 -0.0352915 0
M  V30 2046 H 197.316 6.67321 1.17 0
M  V30 2047 H 198.259 7.07463 -0.300402 0
M  V30 2048 H 198.667 5.60864 0.63969 0
M  V30 2049 N 198.065 0.39524 1.52563 0
M  V30 2050 C 198.995 -0.428384 2.29537 0
M  V30 2051 C 199.976 -1.05831 1.33169 0
M  V30 2052 O 201.161 -1.06995 1.62067 0
M  V30 2053 C 198.291 -1.55274 3.10656 0
M  V30 2054 C 197.245 -1.04855 4.14957 0
M  V30 2055 C 196.571 -2.26543 4.84337 0
M  V30 2056 C 197.871 -0.112324 5.22179 0
M  V30 2057 H 199.565 0.213867 2.98635 0
M  V30 2058 H 197.111 0.104298 1.43622 0
M  V30 2059 H 199.064 -2.1358 3.63265 0
M  V30 2060 H 197.788 -2.22266 2.39302 0
M  V30 2061 H 196.447 -0.487985 3.63338 0
M  V30 2062 H 196.095 -2.92059 4.09525 0
M  V30 2063 H 195.795 -1.93466 5.54837 0
M  V30 2064 H 197.319 -2.85481 5.39753 0
M  V30 2065 H 198.733 -0.603752 5.70112 0
M  V30 2066 H 197.13 0.128968 5.99961 0
M  V30 2067 H 198.2 0.837052 4.77621 0
M  V30 2068 N 199.544 -1.57102 0.125237 0
M  V30 2069 C 200.507 -2.14471 -0.80838 0
M  V30 2070 C 201.507 -1.0811 -1.19033 0
M  V30 2071 O 202.697 -1.33856 -1.11482 0
M  V30 2072 C 199.829 -2.69005 -2.09402 0
M  V30 2073 H 201.022 -2.98297 -0.309696 0
M  V30 2074 H 198.575 -1.55807 -0.124051 0
M  V30 2075 H 199.31 -1.88785 -2.63687 0
M  V30 2076 H 199.095 -3.46799 -1.82957 0
M  V30 2077 H 200.585 -3.13278 -2.76128 0
M  V30 2078 N 201.022 0.148545 -1.56898 0
M  V30 2079 C 202.438 0.501131 -1.51528 0
M  V30 2080 C 202.638 1.83458 -0.833399 0
M  V30 2081 O 201.694 2.49259 -0.40328 0
M  V30 2082 C 203.007 0.512864 -2.96294 0
M  V30 2083 C 204.555 0.598487 -3.07225 0
M  V30 2084 C 205.03 0.640897 -4.53494 0
M  V30 2085 N 206.521 0.703163 -4.57832 0
M  V30 2086 C 207.256 0.756935 -5.68382 0
M  V30 2087 N 206.752 0.770147 -6.88506 0
M  V30 2088 N 208.545 0.797698 -5.56411 0
M  V30 2089 H 200.696 -0.725532 -1.99624 0
M  V30 2090 H 202.959 -0.264358 -0.910395 0
M  V30 2091 H 202.665 -0.398691 -3.49433 0
M  V30 2092 H 202.539 1.35133 -3.52163 0
M  V30 2093 H 204.926 1.50046 -2.54106 0
M  V30 2094 H 205.007 -0.267093 -2.54402 0
M  V30 2095 H 204.651 -0.256915 -5.0725 0
M  V30 2096 H 204.581 1.52295 -5.04097 0
M  V30 2097 H 207.072 0.700314 -3.71354 0
M  V30 2098 H 207.385 0.812983 -7.68512 0
M  V30 2099 H 205.73 0.738049 -6.9107 0
M  V30 2100 H 208.921 0.784535 -4.61479 0
M  V30 2101 H 209.094 0.83614 -6.42583 0
M  V30 2102 N 202.5 1.5196 0.417844 0
M  V30 2103 C 203.447 1.74678 1.50852 0
M  V30 2104 C 204.417 0.588947 1.55308 0
M  V30 2105 O 205.602 0.825544 1.72016 0
M  V30 2106 C 202.742 1.89544 2.88387 0
M  V30 2107 C 201.855 3.17166 2.93309 0
M  V30 2108 C 200.99 3.22513 4.22088 0
M  V30 2109 C 200.029 4.44372 4.20951 0
M  V30 2110 N 199.166 4.47161 5.41287 0
M  V30 2111 H 204.006 2.67768 1.30783 0
M  V30 2112 H 201.543 1.32689 0.63498 0
M  V30 2113 H 203.501 1.96146 3.68216 0
M  V30 2114 H 202.131 0.998424 3.06971 0
M  V30 2115 H 201.183 3.19778 2.06024 0
M  V30 2116 H 202.495 4.07021 2.88332 0
M  V30 2117 H 201.649 3.28139 5.10303 0
M  V30 2118 H 200.388 2.30581 4.29748 0
M  V30 2119 H 199.393 4.38902 3.31127 0
M  V30 2120 H 200.618 5.3759 4.14938 0
M  V30 2121 H 198.564 3.58108 5.49632 0
M  V30 2122 H 198.481 5.3085 5.3827 0
M  V30 2123 H 199.749 4.57005 6.3148 0
M  V30 2124 N 203.978 -0.674533 1.42435 0
M  V30 2125 C 205.224 -1.43671 1.43131 0
M  V30 2126 C 205.557 -1.94142 0.0476021 0
M  V30 2127 O 204.832 -1.70924 -0.928188 0
M  V30 2128 C 205.115 -2.63355 2.45594 0
M  V30 2129 C 204.968 -2.18514 3.93156 0
M  V30 2130 C 206.287 -3.65571 2.45043 0
M  V30 2131 H 203.406 -0.521077 0.521198 0
M  V30 2132 H 206.048 -0.766551 1.7385 0
M  V30 2133 H 204.198 -3.2053 2.19528 0
M  V30 2134 H 205.87 -1.66504 4.30202 0
M  V30 2135 H 204.113 -1.50086 4.07009 0
M  V30 2136 H 204.784 -3.04484 4.60428 0
M  V30 2137 H 207.26 -3.18113 2.68223 0
M  V30 2138 H 206.136 -4.46893 3.18713 0
M  V30 2139 H 206.397 -4.16716 1.47649 0
M  V30 2140 N 205.456 -1.28612 -0.910864 0
M  V30 2141 C 206.684 -1.18792 -1.69399 0
M  V30 2142 C 207.099 0.253039 -1.87097 0
M  V30 2143 O 206.456 1.17071 -1.40003 0
M  V30 2144 C 206.507 -1.88511 -3.08457 0
M  V30 2145 O 206.228 -3.26979 -2.91576 0
M  V30 2146 C 207.729 -1.85029 -4.02839 0
M  V30 2147 H 204.949 -0.412233 -0.529438 0
M  V30 2148 H 207.493 -1.69788 -1.13984 0
M  V30 2149 H 205.648 -1.41379 -3.60681 0
M  V30 2150 H 206.062 -3.61936 -3.79608 0
M  V30 2151 H 207.536 -2.38395 -4.97867 0
M  V30 2152 H 208.013 -0.823303 -4.31414 0
M  V30 2153 H 208.619 -2.31853 -3.56545 0
M  V30 2154 N 206.934 1.1197 -1.10907 0
M  V30 2155 C 208.164 1.8713 -0.875553 0
M  V30 2156 C 208.572 1.8016 0.577843 0
M  V30 2157 O 207.915 1.17699 1.41042 0
M  V30 2158 C 207.977 3.37005 -1.2517 0
M  V30 2159 C 207.641 3.67748 -2.71313 0
M  V30 2160 C 208.638 3.65698 -3.69542 0
M  V30 2161 C 206.323 3.96928 -3.07821 0
M  V30 2162 C 208.317 3.92395 -5.023 0
M  V30 2163 C 206.004 4.23284 -4.40765 0
M  V30 2164 C 207.002 4.21005 -5.37814 0
M  V30 2165 O 206.69 4.46704 -6.68364 0
M  V30 2166 H 206.422 0.598786 -0.313737 0
M  V30 2167 H 208.976 1.42568 -1.47863 0
M  V30 2168 H 207.206 3.82146 -0.591741 0
M  V30 2169 H 208.895 3.93519 -0.994877 0
M  V30 2170 H 209.661 3.43211 -3.42682 0
M  V30 2171 H 205.54 3.97841 -2.32902 0
M  V30 2172 H 209.084 3.90531 -5.78041 0
M  V30 2173 H 204.981 4.45246 -4.67361 0
M  V30 2174 H 205.749 4.64299 -6.74069 0
M  V30 2175 N 208.412 0.89855 1.29475 0
M  V30 2176 C 209.342 0.39201 2.30186 0
M  V30 2177 C 210.323 -0.532359 1.61555 0
M  V30 2178 O 211.508 -0.443331 1.89072 0
M  V30 2179 C 208.638 -0.382353 3.45189 0
M  V30 2180 C 207.592 0.451483 4.25612 0
M  V30 2181 C 206.918 -0.450307 5.328 0
M  V30 2182 C 208.218 1.70079 4.93832 0
M  V30 2183 H 209.912 1.23362 2.72804 0
M  V30 2184 H 207.458 0.594638 1.31149 0
M  V30 2185 H 209.411 -0.747451 4.14718 0
M  V30 2186 H 208.135 -1.25774 3.01411 0
M  V30 2187 H 206.794 0.798897 3.57789 0
M  V30 2188 H 206.442 -1.32379 4.85268 0
M  V30 2189 H 206.142 0.103902 5.87508 0
M  V30 2190 H 207.666 -0.811623 6.05182 0
M  V30 2191 H 209.08 1.40549 5.55805 0
M  V30 2192 H 207.477 2.19623 5.58467 0
M  V30 2193 H 208.547 2.43744 4.19186 0
M  V30 2194 N 209.89 -1.43072 0.660911 0
M  V30 2195 C 211.137 -2.01721 0.177445 0
M  V30 2196 C 211.465 -1.5218 -1.21126 0
M  V30 2197 O 210.72 -0.708659 -1.82419 0
M  V30 2198 C 211.019 -3.57103 0.145563 0
M  V30 2199 C 210.685 -4.26021 1.47705 0
M  V30 2200 C 209.347 -4.44563 1.84165 0
M  V30 2201 C 211.699 -4.64983 2.35458 0
M  V30 2202 C 209.027 -4.99334 3.0803 0
M  V30 2203 C 211.379 -5.21127 3.58622 0
M  V30 2204 C 210.043 -5.37884 3.95268 0
M  V30 2205 H 209.313 -0.73815 0.0649317 0
M  V30 2206 H 211.96 -1.71446 0.853144 0
M  V30 2207 H 210.265 -3.86965 -0.61361 0
M  V30 2208 H 211.962 -4.00248 -0.2455 0
M  V30 2209 H 208.552 -4.11939 1.18339 0
M  V30 2210 H 212.736 -4.50343 2.08579 0
M  V30 2211 H 207.992 -5.10493 3.36462 0
M  V30 2212 H 212.166 -5.50262 4.26831 0
M  V30 2213 H 209.793 -5.80089 4.91325 0
M  V30 2214 N 211.368 -0.403325 -1.52352 0
M  V30 2215 C 212.645 0.232611 -1.94212 0
M  V30 2216 C 213.025 1.63133 -1.33981 0
M  V30 2217 O 212.373 2.22659 -0.513344 0
M  V30 2218 C 212.583 0.244811 -3.4814 0
M  V30 2219 C 213.931 0.46698 -4.22024 0
M  V30 2220 O 214.955 0.324419 -3.5472 0
M  V30 2221 O 213.814 0.74747 -5.41364 0
M  V30 2222 H 210.908 0.148223 -0.813609 0
M  V30 2223 H 213.454 -0.458848 -1.63379 0
M  V30 2224 H 212.226 -0.734378 -3.84347 0
M  V30 2225 H 211.849 0.980611 -3.85318 0
M  V30 2226 N 212.846 1.57033 -0.133567 0
M  V30 2227 C 214.074 2.00044 0.528195 0
M  V30 2228 C 214.489 1.01349 1.59291 0
M  V30 2229 O 213.846 0.00848369 1.82498 0
M  V30 2230 C 213.897 3.43018 1.1411 0
M  V30 2231 O 213.618 4.37939 0.11892 0
M  V30 2232 C 215.119 4.01237 1.88477 0
M  V30 2233 H 212.339 0.656517 0.138661 0
M  V30 2234 H 214.883 2.03267 -0.224196 0
M  V30 2235 H 213.038 3.40688 1.84418 0
M  V30 2236 H 213.452 5.21436 0.56613 0
M  V30 2237 H 214.926 5.03314 2.26669 0
M  V30 2238 H 215.403 3.41193 2.76558 0
M  V30 2239 H 216.009 4.07156 1.22898 0
M  V30 2240 N 214.325 -0.140222 1.56975 0
M  V30 2241 C 215.273 -1.19207 1.99731 0
M  V30 2242 C 216.267 -1.44089 0.890777 0
M  V30 2243 O 217.473 -1.44301 1.07597 0
M  V30 2244 H 213.848 -0.40142 0.635898 0
M  V30 2245 H 215.819 -0.804813 2.87342 0
M  V30 2246 C 214.568 -2.51617 2.39967 0
M  V30 2247 H 213.891 -2.33303 3.24669 0
M  V30 2248 H 215.331 -3.23827 2.73701 0
M  V30 2249 C 213.79 -3.12654 1.25496 0
M  V30 2250 O 214.32 -3.97786 0.559371 0
M  V30 2251 N 212.526 -2.72206 1.01746 0
M  V30 2252 H 212.073 -2.03074 1.58489 0
M  V30 2253 H 212.031 -3.13377 0.253461 0
M  V30 2254 N 215.803 -1.52179 -0.40978 0
M  V30 2255 C 216.713 -1.78364 -1.52392 0
M  V30 2256 C 217.729 -0.669183 -1.60617 0
M  V30 2257 O 218.905 -0.954518 -1.77344 0
M  V30 2258 C 215.97 -1.92822 -2.88133 0
M  V30 2259 C 215.031 -3.16725 -2.898 0
M  V30 2260 C 214.264 -3.30483 -4.19067 0
M  V30 2261 O 214.487 -2.49522 -5.12928 0
M  V30 2262 O 213.421 -4.2363 -4.27576 0
M  V30 2263 H 217.247 -2.72931 -1.33201 0
M  V30 2264 H 214.832 -1.37016 -0.59557 0
M  V30 2265 H 216.714 -2.04157 -3.68643 0
M  V30 2266 H 215.389 -1.01444 -3.07393 0
M  V30 2267 H 214.296 -3.10848 -2.08146 0
M  V30 2268 H 215.629 -4.07881 -2.75489 0
M  V30 2269 N 217.281 0.66697 -1.42791 0
M  V30 2270 C 218.191 1.80962 -1.49299 0
M  V30 2271 C 219.207 1.69775 -0.381108 0
M  V30 2272 O 220.383 1.91188 -0.633188 0
M  V30 2273 C 217.448 3.17156 -1.40045 0
M  V30 2274 C 216.509 3.40242 -2.6179 0
M  V30 2275 C 215.742 4.69939 -2.52969 0
M  V30 2276 O 215.965 5.48372 -1.56985 0
M  V30 2277 O 214.899 4.94441 -3.43237 0
M  V30 2278 H 218.725 1.78427 -2.45759 0
M  V30 2279 H 216.31 0.823713 -1.24641 0
M  V30 2280 H 218.192 3.98413 -1.37276 0
M  V30 2281 H 216.867 3.20312 -0.467138 0
M  V30 2282 H 215.774 2.58802 -2.70134 0
M  V30 2283 H 217.107 3.41923 -3.54047 0
M  V30 2284 N 218.759 1.29093 0.90403 0
M  V30 2285 C 219.987 1.19689 1.68766 0
M  V30 2286 C 220.402 -0.243113 1.87228 0
M  V30 2287 O 219.759 -1.16326 1.40621 0
M  V30 2288 C 219.81 1.90144 3.07453 0
M  V30 2289 O 219.531 3.2852 2.89838 0
M  V30 2290 C 221.032 1.87162 4.01852 0
M  V30 2291 H 218.252 0.415035 0.527244 0
M  V30 2292 H 220.796 1.7039 1.13082 0
M  V30 2293 H 218.951 1.43289 3.59926 0
M  V30 2294 H 219.365 3.63944 3.77684 0
M  V30 2295 H 220.839 2.41032 4.96596 0
M  V30 2296 H 221.316 0.84617 4.30972 0
M  V30 2297 H 221.922 2.33741 3.5531 0
M  V30 2298 N 220.237 -1.11381 1.11499 0
M  V30 2299 C 221.2 -2.15622 0.777153 0
M  V30 2300 C 222.2 -1.59504 -0.203779 0
M  V30 2301 O 223.39 -1.74188 0.020782 0
M  V30 2302 C 220.522 -3.40556 0.153116 0
M  V30 2303 H 221.715 -2.47021 1.70061 0
M  V30 2304 H 219.268 -1.26577 0.916952 0
M  V30 2305 H 220.003 -3.14767 -0.780536 0
M  V30 2306 H 219.788 -3.8257 0.859238 0
M  V30 2307 H 221.278 -4.17546 -0.0671044 0
M  V30 2308 N 221.715 -0.905404 -1.28997 0
M  V30 2309 C 222.94 -0.549175 -1.99997 0
M  V30 2310 C 223.365 0.860276 -1.67275 0
M  V30 2311 O 222.723 1.57355 -0.900502 0
M  V30 2312 C 222.771 -0.755185 -3.52604 0
M  V30 2313 O 221.875 0.189692 -4.11964 0
M  V30 2314 H 221.216 -0.213899 -0.628604 0
M  V30 2315 H 223.746 -1.21856 -1.64354 0
M  V30 2316 H 223.756 -0.662045 -4.02593 0
M  V30 2317 H 222.431 -1.78271 -3.75755 0
M  V30 2318 H 221.008 0.0485257 -3.72868 0
M  V30 2319 N 223.193 1.4272 -0.668489 0
M  V30 2320 C 224.123 2.335 -0.000100175 0
M  V30 2321 C 225.104 1.50328 0.795964 0
M  V30 2322 O 226.289 1.78949 0.754385 0
M  V30 2323 C 223.419 3.33874 0.956302 0
M  V30 2324 C 222.373 4.27152 0.269278 0
M  V30 2325 C 221.699 5.17684 1.33818 0
M  V30 2326 C 222.999 5.15373 -0.847805 0
M  V30 2327 H 224.693 2.89639 -0.758244 0
M  V30 2328 H 222.239 1.39269 -0.366079 0
M  V30 2329 H 224.192 3.9629 1.43292 0
M  V30 2330 H 222.916 2.76025 1.74579 0
M  V30 2331 H 221.575 3.66123 -0.187042 0
M  V30 2332 H 221.223 4.56165 2.1195 0
M  V30 2333 H 220.923 5.80918 0.883659 0
M  V30 2334 H 222.447 5.82974 1.81586 0
M  V30 2335 H 223.861 5.7151 -0.452681 0
M  V30 2336 H 222.258 5.87407 -1.22773 0
M  V30 2337 H 223.328 4.5415 -1.69929 0
M  V30 2338 N 224.671 0.411399 1.52136 0
M  V30 2339 C 225.948 -0.222308 1.94333 0
M  V30 2340 C 226.328 -1.6242 1.34844 0
M  V30 2341 O 225.676 -2.22384 0.525145 0
M  V30 2342 C 225.886 -0.226345 3.48265 0
M  V30 2343 C 227.234 -0.444592 4.22266 0
M  V30 2344 O 228.258 -0.305602 3.54887 0
M  V30 2345 O 227.117 -0.718749 5.41753 0
M  V30 2346 H 224.211 -0.143907 0.814383 0
M  V30 2347 H 226.757 0.467506 1.63133 0
M  V30 2348 H 225.529 0.75475 3.83952 0
M  V30 2349 H 225.152 -0.960163 3.85832 0
M  V30 2350 N 226.149 -1.5696 0.141893 0
M  V30 2351 C 227.396 -1.9596 -0.510492 0
M  V30 2352 C 227.724 -1.02648 -1.65208 0
M  V30 2353 O 226.979 -0.0546947 -1.95624 0
M  V30 2354 C 227.278 -3.41242 -1.06249 0
M  V30 2355 C 226.944 -4.50882 -0.0398791 0
M  V30 2356 C 225.606 -4.80595 0.241247 0
M  V30 2357 C 227.958 -5.17058 0.65578 0
M  V30 2358 C 225.286 -5.73792 1.22393 0
M  V30 2359 C 227.638 -6.11313 1.62724 0
M  V30 2360 C 226.302 -6.39407 1.91612 0
M  V30 2361 H 225.572 -0.717068 -0.186802 0
M  V30 2362 H 228.219 -1.90142 0.227643 0
M  V30 2363 H 226.524 -3.43866 -1.87785 0
M  V30 2364 H 228.221 -3.68742 -1.57576 0
M  V30 2365 H 224.811 -4.27754 -0.269174 0
M  V30 2366 H 228.995 -4.94239 0.451779 0
M  V30 2367 H 224.251 -5.93853 1.45424 0
M  V30 2368 H 228.425 -6.61668 2.17183 0
M  V30 2369 H 226.052 -7.11427 2.6791 0
M  V30 2370 N 227.627 0.131896 -1.57047 0
M  V30 2371 C 228.852 0.860418 -1.8871 0
M  V30 2372 C 229.277 1.73251 -0.73251 0
M  V30 2373 O 228.635 1.785 0.317429 0
M  V30 2374 C 228.683 1.68047 -3.19049 0
M  V30 2375 O 227.787 2.7862 -3.04047 0
M  V30 2376 H 227.128 0.238743 -0.619595 0
M  V30 2377 H 229.658 0.118169 -2.04258 0
M  V30 2378 H 229.668 2.07238 -3.51449 0
M  V30 2379 H 228.343 1.04018 -4.02682 0
M  V30 2380 H 226.92 2.42726 -2.83088 0
M  V30 2381 N 229.106 1.52395 0.401703 0
M  V30 2382 C 230.517 1.58899 0.980202 0
M  V30 2383 C 230.868 0.434032 1.91339 0
M  V30 2384 O 229.993 -0.444619 2.11783 0
M  V30 2385 C 230.588 2.87994 1.78451 0
M  V30 2386 C 229.147 2.96953 2.31292 0
M  V30 2387 C 228.294 2.53903 1.11483 0
M  V30 2388 H 231.245 1.57657 0.18168 0
M  V30 2389 H 231.266 2.73765 2.64259 0
M  V30 2390 H 230.778 3.72035 1.10506 0
M  V30 2391 H 228.879 2.17422 3.02586 0
M  V30 2392 H 228.992 4.01344 2.61649 0
M  V30 2393 H 227.356 2.07925 1.47104 0
M  V30 2394 H 228.139 3.40326 0.450928 0
M  V30 2395 N 230.584 -0.659388 1.43143 0
M  V30 2396 C 231.83 -1.42145 1.44647 0
M  V30 2397 C 232.163 -1.9408 0.0681907 0
M  V30 2398 O 231.438 -1.71899 -0.910007 0
M  V30 2399 C 231.721 -2.60735 2.48373 0
M  V30 2400 C 231.574 -2.14332 3.95451 0
M  V30 2401 C 232.893 -3.62951 2.48906 0
M  V30 2402 H 230.012 -0.51552 0.526696 0
M  V30 2403 H 232.654 -0.748069 1.74654 0
M  V30 2404 H 230.804 -3.18184 2.22916 0
M  V30 2405 H 232.476 -1.61932 4.31944 0
M  V30 2406 H 230.719 -1.4576 4.08578 0
M  V30 2407 H 231.39 -2.99583 4.63631 0
M  V30 2408 H 233.866 -3.1525 2.71582 0
M  V30 2409 H 232.742 -4.43487 3.23435 0
M  V30 2410 H 233.003 -4.15126 1.52061 0
M  V30 2411 N 232.062 -1.29571 -0.897171 0
M  V30 2412 C 233.31 -1.17456 -1.64464 0
M  V30 2413 C 233.631 0.273698 -1.9307 0
M  V30 2414 O 232.901 1.18684 -1.55855 0
M  V30 2415 H 231.481 -0.431706 -0.609622 0
M  V30 2416 H 234.143 -1.62531 -1.07562 0
M  V30 2417 H 233.239 -1.72648 -2.59998 0
M  V30 2418 N 233.54 1.10788 -1.12088 0
M  V30 2419 C 234.817 1.79136 -0.785476 0
M  V30 2420 C 235.197 1.98246 0.725377 0
M  V30 2421 O 234.545 1.57258 1.65778 0
M  V30 2422 C 234.755 3.12375 -1.55636 0
M  V30 2423 C 236.103 3.8731 -1.74001 0
M  V30 2424 O 237.127 3.22085 -1.52117 0
M  V30 2425 O 235.986 5.04369 -2.10415 0
M  V30 2426 H 233.08 0.776226 -0.285311 0
M  V30 2427 H 235.626 1.1747 -1.2247 0
M  V30 2428 H 234.398 2.93863 -2.5838 0
M  V30 2429 H 234.021 3.81758 -1.11114 0
M  V30 2430 N 235.018 0.912232 1.28515 0
M  V30 2431 C 236.434 0.610159 1.47476 0
M  V30 2432 C 236.634 -0.844955 1.82928 0
M  V30 2433 O 235.69 -1.62416 1.93332 0
M  V30 2434 C 237.003 1.54675 2.57868 0
M  V30 2435 C 238.551 1.55331 2.71738 0
M  V30 2436 C 239.026 2.47649 3.85272 0
M  V30 2437 N 240.517 2.45767 3.92623 0
M  V30 2438 C 241.252 3.13896 4.79851 0
M  V30 2439 N 240.748 3.9135 5.71679 0
M  V30 2440 N 242.541 3.02991 4.73448 0
M  V30 2441 H 234.692 1.85318 1.03783 0
M  V30 2442 H 236.955 0.794777 0.516753 0
M  V30 2443 H 236.661 2.5841 2.38574 0
M  V30 2444 H 236.535 1.27671 3.54937 0
M  V30 2445 H 238.922 0.52335 2.90422 0
M  V30 2446 H 239.003 1.86378 1.75205 0
M  V30 2447 H 238.647 3.50745 3.67342 0
M  V30 2448 H 238.577 2.13904 4.81199 0
M  V30 2449 H 241.068 1.89503 3.26951 0
M  V30 2450 H 241.381 4.40359 6.35062 0
M  V30 2451 H 239.726 3.95455 5.71524 0
M  V30 2452 H 242.917 2.41987 4.007 0
M  V30 2453 H 243.09 3.5636 5.41213 0
M  V30 2454 N 236.496 -1.42363 0.676048 0
M  V30 2455 C 237.742 -2.0182 0.199125 0
M  V30 2456 C 238.075 -1.53339 -1.19168 0
M  V30 2457 O 237.35 -0.736124 -1.80032 0
M  V30 2458 C 237.633 -3.59331 0.235144 0
M  V30 2459 C 237.486 -4.17989 1.66149 0
M  V30 2460 C 238.805 -4.3813 -0.41595 0
M  V30 2461 H 235.924 -0.733293 0.0738311 0
M  V30 2462 H 238.566 -1.69368 0.86107 0
M  V30 2463 H 236.716 -3.87109 -0.328487 0
M  V30 2464 H 238.388 -4.0116 2.27747 0
M  V30 2465 H 236.631 -3.7377 2.20178 0
M  V30 2466 H 237.302 -5.27126 1.63837 0
M  V30 2467 H 239.778 -4.16051 0.0638529 0
M  V30 2468 H 238.654 -5.47717 -0.360115 0
M  V30 2469 H 238.915 -4.16101 -1.49373 0
M  V30 2470 N 237.974 -0.419461 -1.51915 0
M  V30 2471 C 238.937 0.389116 -2.25873 0
M  V30 2472 C 239.937 0.964924 -1.28631 0
M  V30 2473 O 241.127 0.842179 -1.52489 0
M  V30 2474 C 238.259 1.54874 -3.03689 0
M  V30 2475 H 239.452 -0.258799 -2.98781 0
M  V30 2476 H 237.005 -0.172209 -1.55348 0
M  V30 2477 H 237.74 2.23323 -2.35154 0
M  V30 2478 H 237.525 1.14223 -3.75094 0
M  V30 2479 H 239.015 2.12046 -3.59759 0
M  V30 2480 N 239.452 1.56882 -0.150215 0
M  V30 2481 C 240.682 2.00302 0.506213 0
M  V30 2482 C 241.09 1.02934 1.58749 0
M  V30 2483 O 240.433 0.0188384 1.8369 0
M  V30 2484 C 240.495 3.40156 1.16337 0
M  V30 2485 C 240.159 4.56439 0.226311 0
M  V30 2486 C 241.156 5.17012 -0.547265 0
M  V30 2487 C 238.841 5.02136 0.128279 0
M  V30 2488 C 240.835 6.21693 -1.40629 0
M  V30 2489 C 238.522 6.06672 -0.734345 0
M  V30 2490 C 239.52 6.6632 -1.50023 0
M  V30 2491 O 239.208 7.68831 -2.34848 0
M  V30 2492 H 238.94 0.662182 0.135984 0
M  V30 2493 H 241.494 2.03961 -0.242746 0
M  V30 2494 H 239.724 3.33346 1.96004 0
M  V30 2495 H 241.413 3.67663 1.71985 0
M  V30 2496 H 242.179 4.82603 -0.48158 0
M  V30 2497 H 238.058 4.55435 0.714157 0
M  V30 2498 H 241.602 6.68179 -2.00455 0
M  V30 2499 H 237.499 6.40507 -0.801309 0
M  V30 2500 H 238.267 7.86065 -2.28131 0
M  V30 2501 N 240.93 -0.123565 1.57115 0
M  V30 2502 C 242.176 -0.833386 1.84885 0
M  V30 2503 C 242.509 -1.79742 0.735292 0
M  V30 2504 O 241.784 -1.92764 -0.25925 0
M  V30 2505 C 242.067 -1.5873 3.23228 0
M  V30 2506 C 241.92 -0.643183 4.45178 0
M  V30 2507 C 243.239 -2.54453 3.59085 0
M  V30 2508 H 240.358 -0.301518 0.6725 0
M  V30 2509 H 243 -0.097778 1.89748 0
M  V30 2510 H 241.15 -2.21438 3.19214 0
M  V30 2511 H 242.822 -0.0253015 4.61293 0
M  V30 2512 H 241.065 0.0456139 4.33776 0
M  V30 2513 H 241.736 -1.20724 5.38637 0
M  V30 2514 H 244.212 -2.01853 3.63861 0
M  V30 2515 H 243.088 -3.04238 4.5687 0
M  V30 2516 H 243.349 -3.36906 2.86264 0
M  V30 2517 N 242.408 -1.52605 -0.393616 0
M  V30 2518 C 243.824 -1.41753 -0.733357 0
M  V30 2519 C 244.024 -0.534293 -1.94287 0
M  V30 2520 O 243.08 -0.0059787 -2.52499 0
M  V30 2521 C 244.393 -2.84531 -0.972772 0
M  V30 2522 C 245.941 -2.93978 -1.07453 0
M  V30 2523 C 246.416 -4.37756 -1.3466 0
M  V30 2524 N 247.907 -4.4106 -1.41492 0
M  V30 2525 C 248.642 -5.49387 -1.642 0
M  V30 2526 N 248.138 -6.67806 -1.8441 0
M  V30 2527 N 249.931 -5.36923 -1.66342 0
M  V30 2528 H 242.082 -2.08555 0.402328 0
M  V30 2529 H 244.345 -0.940654 0.117789 0
M  V30 2530 H 244.051 -3.51353 -0.156204 0
M  V30 2531 H 243.925 -3.26508 -1.88871 0
M  V30 2532 H 246.312 -2.27326 -1.88167 0
M  V30 2533 H 246.393 -2.55435 -0.136605 0
M  V30 2534 H 246.037 -5.04972 -0.544581 0
M  V30 2535 H 245.967 -4.73848 -2.2973 0
M  V30 2536 H 248.458 -3.55705 -1.27601 0
M  V30 2537 H 248.771 -7.46141 -2.01231 0
M  V30 2538 H 247.116 -6.70843 -1.81644 0
M  V30 2539 H 250.307 -4.43381 -1.50102 0
M  V30 2540 H 250.48 -6.21416 -1.837 0
M  V30 2541 N 243.887 0.651787 -1.4349 0
M  V30 2542 C 244.835 1.78586 -1.49029 0
M  V30 2543 C 245.829 1.65448 -0.363767 0
M  V30 2544 O 247.035 1.71777 -0.537821 0
M  V30 2545 H 243.41 0.589236 -0.467231 0
M  V30 2546 H 245.381 1.71035 -2.44519 0
M  V30 2547 C 244.13 3.16851 -1.43181 0
M  V30 2548 H 243.453 3.27598 -2.29171 0
M  V30 2549 H 244.893 3.96156 -1.51118 0
M  V30 2550 C 243.352 3.36568 -0.149616 0
M  V30 2551 O 243.882 3.93885 0.788509 0
M  V30 2552 N 242.088 2.90539 -0.0593484 0
M  V30 2553 H 241.635 2.4408 -0.823575 0
M  V30 2554 H 241.593 3.04108 0.797853 0
M  V30 2555 N 245.365 1.30045 0.890287 0
M  V30 2556 C 246.315 1.12592 1.9826 0
M  V30 2557 C 247.299 0.0426021 1.60844 0
M  V30 2558 O 248.491 0.265346 1.75 0
M  V30 2559 C 245.62 0.814301 3.33503 0
M  V30 2560 C 244.706 1.93761 3.7725 0
M  V30 2561 N 245.097 3.18232 3.93143 0
M  V30 2562 C 243.395 1.83277 4.06602 0
M  V30 2563 C 244.096 3.9158 4.30163 0
M  V30 2564 N 243.072 3.19591 4.3973 0
M  V30 2565 H 246.874 2.07003 2.08631 0
M  V30 2566 H 244.388 1.21307 1.07974 0
M  V30 2567 H 246.385 0.67029 4.11476 0
M  V30 2568 H 245.045 -0.121797 3.24471 0
M  V30 2569 H 246.056 3.53581 3.78419 0
M  V30 2570 H 242.733 0.97001 4.06075 0
M  V30 2571 H 244.123 4.98744 4.50226 0
M  V30 2572 N 246.843 -1.10192 1.12674 0
M  V30 2573 C 247.791 -2.18694 0.792196 0
M  V30 2574 C 248.785 -1.67938 -0.222058 0
M  V30 2575 O 249.991 -1.79822 -0.0800074 0
M  V30 2576 H 246.366 -0.713223 0.238364 0
M  V30 2577 H 248.337 -2.44149 1.71564 0
M  V30 2578 C 247.086 -3.46682 0.265859 0
M  V30 2579 H 246.409 -3.86101 1.03761 0
M  V30 2580 H 247.849 -4.23942 0.0701128 0
M  V30 2581 C 246.308 -3.21506 -1.00675 0
M  V30 2582 O 246.838 -3.43408 -2.08408 0
M  V30 2583 N 245.044 -2.75158 -0.934692 0
M  V30 2584 H 244.591 -2.57535 -0.0578604 0
M  V30 2585 H 244.549 -2.58691 -1.7868 0
M  V30 2586 N 248.321 -0.919034 -1.28029 0
M  V30 2587 C 249.251 -0.428581 -2.29533 0
M  V30 2588 C 250.232 0.50659 -1.62381 0
M  V30 2589 O 251.417 0.413195 -1.89753 0
M  V30 2590 C 248.547 0.327388 -3.45753 0
M  V30 2591 C 247.501 -0.519137 -4.2484 0
M  V30 2592 C 246.827 0.365486 -5.33449 0
M  V30 2593 C 248.127 -1.77914 -4.91064 0
M  V30 2594 H 249.821 -1.27687 -2.70807 0
M  V30 2595 H 247.367 -0.615428 -1.30186 0
M  V30 2596 H 249.32 0.681378 -4.15855 0
M  V30 2597 H 248.044 1.20963 -3.03374 0
M  V30 2598 H 246.703 -0.855717 -3.56473 0
M  V30 2599 H 246.351 1.24642 -4.87312 0
M  V30 2600 H 246.051 -0.197356 -5.87268 0
M  V30 2601 H 247.575 0.715241 -6.06396 0
M  V30 2602 H 248.989 -1.49374 -5.53498 0
M  V30 2603 H 247.386 -2.2848 -5.54903 0
M  V30 2604 H 248.456 -2.50382 -4.15255 0
M  V30 2605 N 249.799 1.42003 -0.683588 0
M  V30 2606 C 251.029 2.05448 -0.217866 0
M  V30 2607 C 251.437 1.51491 1.13346 0
M  V30 2608 O 250.78 0.653048 1.717 0
M  V30 2609 C 250.842 3.59399 -0.0850118 0
M  V30 2610 C 250.506 4.36093 -1.36645 0
M  V30 2611 C 251.503 4.66169 -2.30179 0
M  V30 2612 C 249.188 4.75578 -1.61649 0
M  V30 2613 C 251.182 5.34676 -3.46988 0
M  V30 2614 C 248.869 5.43824 -2.78745 0
M  V30 2615 C 249.867 5.73299 -3.71238 0
M  V30 2616 O 249.555 6.40142 -4.86285 0
M  V30 2617 H 249.287 0.668344 -0.101454 0
M  V30 2618 H 251.841 1.82974 -0.933248 0
M  V30 2619 H 250.071 3.80566 0.686031 0
M  V30 2620 H 251.76 4.04457 0.341973 0
M  V30 2621 H 252.526 4.36156 -2.12115 0
M  V30 2622 H 248.405 4.52025 -0.905243 0
M  V30 2623 H 251.949 5.57599 -4.19201 0
M  V30 2624 H 247.846 5.73254 -2.96732 0
M  V30 2625 H 248.614 6.58636 -4.85944 0
M  V30 2626 N 251.277 0.427512 1.51691 0
M  V30 2627 C 252.526 -0.143679 2.01188 0
M  V30 2628 C 252.839 -1.44642 1.31674 0
M  V30 2629 O 254.045 -2.09997 1.72086 0
M  V30 2630 C 252.501 -0.306602 3.58592 0
M  V30 2631 C 252.109 0.985125 4.37035 0
M  V30 2632 C 253.853 -0.832091 4.16265 0
M  V30 2633 C 251.76 0.788382 5.86122 0
M  V30 2634 H 250.69 -0.0574701 0.751807 0
M  V30 2635 H 253.341 0.555772 1.74881 0
M  V30 2636 H 251.723 -1.06882 3.81303 0
M  V30 2637 H 252.897 1.75492 4.26074 0
M  V30 2638 H 251.212 1.4384 3.90767 0
M  V30 2639 H 253.809 -0.995617 5.25349 0
M  V30 2640 H 254.152 -1.81186 3.74803 0
M  V30 2641 H 254.685 -0.128444 3.97593 0
M  V30 2642 H 251.424 1.74025 6.31978 0
M  V30 2643 H 250.944 0.0582143 5.99772 0
M  V30 2644 H 252.623 0.437722 6.45518 0
M  V30 2645 N 252.755 -1.56801 0.158532 0
M  V30 2646 C 253.718 -2.16138 -0.762705 0
M  V30 2647 C 254.718 -1.1061 -1.16713 0
M  V30 2648 O 255.908 -1.36191 -1.08617 0
M  V30 2649 C 253.04 -2.73386 -2.03649 0
M  V30 2650 H 254.233 -2.98886 -0.246354 0
M  V30 2651 H 251.786 -1.56035 -0.0909744 0
M  V30 2652 H 252.521 -1.94335 -2.59623 0
M  V30 2653 H 252.306 -3.50601 -1.75559 0
M  V30 2654 H 253.796 -3.19065 -2.6942 0
M  V30 2655 N 254.233 0.115231 -1.57178 0
M  V30 2656 C 255.649 0.468877 -1.52557 0
M  V30 2657 C 255.849 1.81649 -0.872125 0
M  V30 2658 O 254.905 2.48347 -0.45606 0
M  V30 2659 C 256.218 0.4499 -2.97315 0
M  V30 2660 C 257.766 0.533185 -3.08425 0
M  V30 2661 C 258.241 0.54456 -4.54751 0
M  V30 2662 N 259.732 0.605892 -4.5922 0
M  V30 2663 C 260.467 0.636203 -5.6986 0
M  V30 2664 N 259.963 0.623931 -6.89985 0
M  V30 2665 N 261.756 0.679496 -5.57978 0
M  V30 2666 H 253.907 -0.767712 -1.9804 0
M  V30 2667 H 256.17 -0.283609 -0.904583 0
M  V30 2668 H 255.876 -0.472721 -3.48509 0
M  V30 2669 H 255.75 1.27632 -3.5495 0
M  V30 2670 H 258.137 1.44623 -2.57232 0
M  V30 2671 H 258.218 -0.320995 -2.53778 0
M  V30 2672 H 257.862 -0.364452 -5.06591 0
M  V30 2673 H 257.792 1.41568 -5.07214 0
M  V30 2674 H 260.283 0.621386 -3.72756 0
M  V30 2675 H 260.596 0.649787 -7.70063 0
M  V30 2676 H 258.941 0.591296 -6.9248 0
M  V30 2677 H 262.132 0.686472 -4.63039 0
M  V30 2678 H 262.305 0.69965 -6.44212 0
M  V30 2679 N 255.711 1.52812 0.385517 0
M  V30 2680 C 256.959 1.67694 1.12797 0
M  V30 2681 C 257.28 0.421115 1.90399 0
M  V30 2682 O 256.55 -0.564551 1.87589 0
M  V30 2683 H 255.13 0.618155 0.419396 0
M  V30 2684 H 257.792 1.89938 0.436972 0
M  V30 2685 H 256.888 2.52896 1.82894 0
M  V30 2686 N 257.189 -0.644168 1.43834 0
M  V30 2687 C 258.437 -1.40117 1.45642 0
M  V30 2688 C 258.758 -1.94814 0.0852413 0
M  V30 2689 O 258.028 -1.74988 -0.880688 0
M  V30 2690 H 256.608 -0.52005 0.536243 0
M  V30 2691 H 259.27 -0.7591 1.7951 0
M  V30 2692 H 258.366 -2.23902 2.17427 0
M  V30 2693 N 258.668 -1.30515 -0.883378 0
M  V30 2694 C 259.615 -1.17032 -1.98927 0
M  V30 2695 C 260.585 -0.0594241 -1.65994 0
M  V30 2696 O 261.77 -0.229895 -1.8941 0
M  V30 2697 C 258.91 -0.869777 -3.33959 0
M  V30 2698 C 258.023 -2.06271 -3.79574 0
M  V30 2699 C 257.158 -1.70011 -5.03259 0
M  V30 2700 C 256.197 -2.8579 -5.41286 0
M  V30 2701 N 255.334 -2.49816 -6.56153 0
M  V30 2702 H 260.174 -2.1164 -2.09792 0
M  V30 2703 H 257.711 -1.05296 -1.02719 0
M  V30 2704 H 259.669 -0.676138 -4.11685 0
M  V30 2705 H 258.299 0.0394332 -3.22776 0
M  V30 2706 H 257.351 -2.36755 -2.97744 0
M  V30 2707 H 258.663 -2.92971 -4.03694 0
M  V30 2708 H 257.817 -1.47032 -5.88614 0
M  V30 2709 H 256.556 -0.804829 -4.81013 0
M  V30 2710 H 255.561 -3.09434 -4.54456 0
M  V30 2711 H 256.786 -3.76008 -5.65504 0
M  V30 2712 H 254.732 -1.62795 -6.35479 0
M  V30 2713 H 254.649 -3.30048 -6.8015 0
M  V30 2714 H 255.917 -2.30197 -7.44735 0
M  V30 2715 N 260.146 1.09593 -1.13257 0
M  V30 2716 C 261.076 2.18214 -0.830946 0
M  V30 2717 C 262.057 1.68812 0.208966 0
M  V30 2718 O 263.242 1.9408 0.0682666 0
M  V30 2719 C 260.372 3.46051 -0.294296 0
M  V30 2720 C 259.326 4.08778 -1.26826 0
M  V30 2721 C 258.652 5.31419 -0.591449 0
M  V30 2722 C 259.952 4.51476 -2.62615 0
M  V30 2723 H 261.646 2.43703 -1.73923 0
M  V30 2724 H 259.192 1.17128 -0.837675 0
M  V30 2725 H 261.145 4.2134 -0.0709606 0
M  V30 2726 H 259.869 3.20079 0.649366 0
M  V30 2727 H 258.528 3.35505 -1.47756 0
M  V30 2728 H 258.176 5.01727 0.357633 0
M  V30 2729 H 257.876 5.74341 -1.24123 0
M  V30 2730 H 259.4 6.09433 -0.377355 0
M  V30 2731 H 260.814 5.17999 -2.45663 0
M  V30 2732 H 259.211 5.05277 -3.23752 0
M  V30 2733 H 260.281 3.63962 -3.20406 0
M  V30 2734 N 261.624 0.925811 1.2754 0
M  V30 2735 C 262.872 0.564138 1.94067 0
M  V30 2736 C 263.193 -0.897188 1.73134 0
M  V30 2737 O 262.463 -1.63573 1.07799 0
M  V30 2738 H 261.043 0.205645 0.718136 0
M  V30 2739 H 263.705 1.1778 1.55287 0
M  V30 2740 H 262.801 0.76881 3.02483 0
M  V30 2741 N 263.102 -1.41638 0.69111 0
M  V30 2742 C 264.012 -2.34588 0.0233487 0
M  V30 2743 C 265.028 -1.55987 -0.770984 0
M  V30 2744 O 266.204 -1.88486 -0.709569 0
M  V30 2745 C 263.269 -3.34684 -0.904851 0
M  V30 2746 C 262.33 -4.29176 -0.103225 0
M  V30 2747 C 261.563 -5.2449 -0.987216 0
M  V30 2748 O 261.786 -5.2514 -2.22674 0
M  V30 2749 O 260.72 -6.00295 -0.439281 0
M  V30 2750 H 264.546 -2.93261 0.789416 0
M  V30 2751 H 262.131 -1.42417 0.45142 0
M  V30 2752 H 264.013 -3.96133 -1.43724 0
M  V30 2753 H 262.688 -2.78461 -1.65049 0
M  V30 2754 H 261.595 -3.71089 0.473655 0
M  V30 2755 H 262.928 -4.88484 0.60365 0
M  V30 2756 N 264.58 -0.43555 -1.51462 0
M  V30 2757 C 265.828 0.131254 -2.01673 0
M  V30 2758 C 266.149 1.43368 -1.32177 0
M  V30 2759 O 265.419 1.90524 -0.455769 0
M  V30 2760 H 263.999 0.0514954 -0.745223 0
M  V30 2761 H 266.661 -0.577847 -1.86137 0
M  V30 2762 H 265.757 0.308446 -3.10572 0
M  V30 2763 N 266.058 1.56714 -0.166846 0
M  V30 2764 C 266.991 2.13577 0.80375 0
M  V30 2765 C 267.969 1.06464 1.22899 0
M  V30 2766 O 269.153 1.34413 1.32157 0
M  V30 2767 C 266.28 2.67168 2.0818 0
M  V30 2768 C 265.326 3.86612 1.80093 0
M  V30 2769 S 266.159 5.26565 0.97416 0
M  V30 2770 C 267.315 5.83558 2.26297 0
M  V30 2771 H 267.548 2.9557 0.320267 0
M  V30 2772 H 265.081 1.54326 0.0477555 0
M  V30 2773 H 267.039 2.98692 2.8159 0
M  V30 2774 H 265.7 1.85269 2.53642 0
M  V30 2775 H 264.893 4.22422 2.7491 0
M  V30 2776 H 264.495 3.55951 1.14781 0
M  V30 2777 H 266.787 5.962 3.21795 0
M  V30 2778 H 267.73 6.80731 1.94962 0
M  V30 2779 H 268.138 5.11944 2.37853 0
M  V30 2780 N 267.536 -0.106894 1.57237 0
M  V30 2781 C 268.761 -0.830287 1.90055 0
M  V30 2782 C 269.186 -1.72064 0.75998 0
M  V30 2783 O 268.544 -1.78982 -0.288991 0
M  V30 2784 C 268.592 -1.6295 3.21683 0
M  V30 2785 O 267.696 -2.73748 3.08441 0
M  V30 2786 H 267.037 -0.228855 0.623315 0
M  V30 2787 H 269.567 -0.085658 2.04421 0
M  V30 2788 H 269.577 -2.01621 3.54701 0
M  V30 2789 H 268.252 -0.975989 4.04286 0
M  V30 2790 H 266.829 -2.38192 2.86913 0
M  V30 2791 N 269.014 -1.53014 -0.377408 0
M  V30 2792 C 270.43 -1.42523 -0.718281 0
M  V30 2793 C 270.63 -0.55487 -1.9371 0
M  V30 2794 O 269.686 -0.0327593 -2.52479 0
M  V30 2795 C 270.999 -2.85546 -0.942539 0
M  V30 2796 C 272.547 -2.95101 -1.04329 0
M  V30 2797 C 273.022 -4.3916 -1.3001 0
M  V30 2798 N 274.513 -4.42536 -1.36806 0
M  V30 2799 C 275.248 -5.51097 -1.58364 0
M  V30 2800 N 274.744 -6.69724 -1.77317 0
M  V30 2801 N 276.537 -5.38657 -1.60638 0
M  V30 2802 H 268.688 -2.08116 0.424426 0
M  V30 2803 H 270.951 -0.939352 0.127759 0
M  V30 2804 H 270.657 -3.51499 -0.118929 0
M  V30 2805 H 270.531 -3.28493 -1.85397 0
M  V30 2806 H 272.918 -2.29309 -1.85745 0
M  V30 2807 H 272.999 -2.55566 -0.109505 0
M  V30 2808 H 272.643 -5.05521 -0.490991 0
M  V30 2809 H 272.573 -4.76258 -2.24691 0
M  V30 2810 H 275.064 -3.57039 -1.23821 0
M  V30 2811 H 275.377 -7.48233 -1.93306 0
M  V30 2812 H 273.722 -6.72732 -1.74518 0
M  V30 2813 H 276.913 -4.44948 -1.45391 0
M  V30 2814 H 277.086 -6.2333 -1.77098 0
M  V30 2815 N 270.492 0.636531 -1.44174 0
M  V30 2816 C 271.455 1.73063 -1.50273 0
M  V30 2817 C 272.455 1.56113 -0.385397 0
M  V30 2818 O 273.645 1.61707 -0.64781 0
M  V30 2819 C 270.777 3.12096 -1.37145 0
M  V30 2820 H 271.97 1.69031 -2.47727 0
M  V30 2821 H 269.523 0.849706 -1.31186 0
M  V30 2822 H 270.258 3.21728 -0.407636 0
M  V30 2823 H 270.043 3.25805 -2.18159 0
M  V30 2824 H 271.533 3.91846 -1.44382 0
M  V30 2825 N 271.97 1.30982 0.876444 0
M  V30 2826 C 273.219 1.19658 1.62373 0
M  V30 2827 C 273.532 -0.245636 1.94052 0
M  V30 2828 O 274.738 -0.48049 2.67214 0
M  V30 2829 C 273.194 2.09433 2.92687 0
M  V30 2830 C 272.802 3.58613 2.68516 0
M  V30 2831 C 274.546 2.06893 3.70669 0
M  V30 2832 C 272.453 4.40416 3.94699 0
M  V30 2833 H 271.383 0.444268 0.609214 0
M  V30 2834 H 274.034 1.55791 0.969605 0
M  V30 2835 H 272.416 1.66191 3.59439 0
M  V30 2836 H 273.59 4.10058 2.10212 0
M  V30 2837 H 271.905 3.63063 2.03898 0
M  V30 2838 H 274.502 2.65258 4.64265 0
M  V30 2839 H 274.845 1.05448 4.02724 0
M  V30 2840 H 275.378 2.48301 3.10792 0
M  V30 2841 H 272.117 5.42591 3.67798 0
M  V30 2842 H 271.637 3.93731 4.52477 0
M  V30 2843 H 273.316 4.52294 4.62644 0
M  V30 2844 N 273.449 -1.08991 1.13837 0
M  V30 2845 C 274.412 -2.13925 0.822715 0
M  V30 2846 C 275.412 -1.599 -0.1699 0
M  V30 2847 O 276.602 -1.74104 0.0577251 0
M  V30 2848 C 273.734 -3.40155 0.225318 0
M  V30 2849 H 274.927 -2.43358 1.75262 0
M  V30 2850 H 272.48 -1.24603 0.943594 0
M  V30 2851 H 273.215 -3.16352 -0.713594 0
M  V30 2852 H 273 -3.80661 0.940193 0
M  V30 2853 H 274.49 -4.17594 0.0214784 0
M  V30 2854 N 274.927 -0.932562 -1.27047 0
M  V30 2855 C 276.173 -0.576412 -1.94436 0
M  V30 2856 C 276.506 0.880891 -1.73072 0
M  V30 2857 O 275.781 1.62905 -1.06264 0
M  V30 2858 C 276.064 -0.909031 -3.48437 0
M  V30 2859 C 275.917 -2.42044 -3.79123 0
M  V30 2860 C 277.236 -0.418341 -4.38107 0
M  V30 2861 H 274.355 -0.210888 -0.706184 0
M  V30 2862 H 276.997 -1.16522 -1.50075 0
M  V30 2863 H 275.147 -0.407947 -3.86352 0
M  V30 2864 H 276.819 -2.99359 -3.50973 0
M  V30 2865 H 275.062 -2.86758 -3.25503 0
M  V30 2866 H 275.733 -2.6037 -4.86736 0
M  V30 2867 H 278.209 -0.847856 -4.0737 0
M  V30 2868 H 277.085 -0.679981 -5.44672 0
M  V30 2869 H 277.346 0.681642 -4.36814 0
M  V30 2870 N 276.405 1.4127 -0.698611 0
M  V30 2871 C 277.633 2.05503 -0.239992 0
M  V30 2872 C 278.048 1.52584 1.11191 0
M  V30 2873 O 277.405 0.675323 1.69545 0
M  V30 2874 C 277.456 3.60987 -0.192429 0
M  V30 2875 O 277.177 4.1195 -1.49094 0
M  V30 2876 C 278.678 4.42371 0.28681 0
M  V30 2877 H 275.898 0.661748 -0.111045 0
M  V30 2878 H 278.442 1.80987 -0.95205 0
M  V30 2879 H 276.597 3.84533 0.470472 0
M  V30 2880 H 277.011 5.06018 -1.38007 0
M  V30 2881 H 278.485 5.51344 0.26896 0
M  V30 2882 H 278.962 4.18699 1.32619 0
M  V30 2883 H 279.568 4.23897 -0.345201 0
M  V30 2884 N 277.883 0.443576 1.51229 0
M  V30 2885 C 279.132 -0.122332 2.01329 0
M  V30 2886 C 279.445 -1.43237 1.33201 0
M  V30 2887 O 280.651 -2.0816 1.74304 0
M  V30 2888 C 279.107 -0.268551 3.58897 0
M  V30 2889 C 278.715 1.03142 4.35965 0
M  V30 2890 C 280.459 -0.787894 4.17124 0
M  V30 2891 C 278.366 0.850504 5.85252 0
M  V30 2892 H 277.296 -0.0494929 0.752374 0
M  V30 2893 H 279.947 0.574289 1.74282 0
M  V30 2894 H 278.329 -1.02832 3.82415 0
M  V30 2895 H 279.503 1.80001 4.24189 0
M  V30 2896 H 277.818 1.47977 3.89219 0
M  V30 2897 H 280.415 -0.939841 5.26375 0
M  V30 2898 H 280.758 -1.77201 3.76703 0
M  V30 2899 H 281.291 -0.0862669 3.97706 0
M  V30 2900 H 278.03 1.80718 6.30096 0
M  V30 2901 H 277.55 0.121825 5.99676 0
M  V30 2902 H 279.229 0.506163 6.45017 0
M  V30 2903 N 279.361 -1.56624 0.175154 0
M  V30 2904 C 280.638 -1.88688 -0.515373 0
M  V30 2905 C 281.018 -1.08564 -1.81044 0
M  V30 2906 O 280.366 -0.180703 -2.27784 0
M  V30 2907 C 280.576 -3.40768 -0.753552 0
M  V30 2908 C 281.924 -4.10587 -1.08184 0
M  V30 2909 O 282.948 -3.46106 -0.841961 0
M  V30 2910 O 281.807 -5.24512 -1.53459 0
M  V30 2911 H 278.901 -0.78301 -0.26613 0
M  V30 2912 H 281.447 -1.68347 0.213877 0
M  V30 2913 H 280.219 -3.90965 0.161829 0
M  V30 2914 H 279.842 -3.66733 -1.53598 0
M  V30 2915 N 280.839 0.0985539 -1.57292 0
M  V30 2916 C 282.087 0.801092 -1.85545 0
M  V30 2917 C 282.408 1.79438 -0.763353 0
M  V30 2918 O 281.678 1.94763 0.21073 0
M  V30 2919 H 280.258 0.29884 -0.684619 0
M  V30 2920 H 282.92 0.0810064 -1.94732 0
M  V30 2921 H 282.016 1.3338 -2.82163 0
M  V30 2922 N 282.317 1.53212 0.369288 0
M  V30 2923 C 283.545 1.73119 1.13303 0
M  V30 2924 C 283.96 0.458455 1.83149 0
M  V30 2925 O 283.317 -0.568403 1.73423 0
M  V30 2926 C 283.368 2.89413 2.16616 0
M  V30 2927 O 283.089 4.11761 1.49614 0
M  V30 2928 C 284.59 3.21161 3.05566 0
M  V30 2929 H 281.81 0.579107 0.338934 0
M  V30 2930 H 284.354 1.99942 0.429338 0
M  V30 2931 H 282.509 2.64994 2.82589 0
M  V30 2932 H 282.923 4.76858 2.18419 0
M  V30 2933 H 284.397 4.05949 3.74045 0
M  V30 2934 H 284.874 2.36369 3.70171 0
M  V30 2935 H 285.48 3.47492 2.45213 0
M  V30 2936 N 283.795 -0.628877 1.44509 0
M  V30 2937 C 284.705 -1.7694 1.54044 0
M  V30 2938 C 285.721 -1.68705 0.425987 0
M  V30 2939 O 286.897 -1.89442 0.683656 0
M  V30 2940 C 283.962 -3.13332 1.48405 0
M  V30 2941 C 283.023 -3.33181 2.70719 0
M  V30 2942 C 282.256 -4.63067 2.6534 0
M  V30 2943 O 282.479 -5.44017 1.71469 0
M  V30 2944 O 281.413 -4.85167 3.56226 0
M  V30 2945 H 285.239 -1.71848 2.50403 0
M  V30 2946 H 282.824 -0.790378 1.26781 0
M  V30 2947 H 284.706 -3.94634 1.47791 0
M  V30 2948 H 283.381 -3.1896 0.551898 0
M  V30 2949 H 282.288 -2.51549 2.769 0
M  V30 2950 H 283.621 -3.32416 3.62988 0
M  V30 2951 N 285.273 -1.31445 -0.869486 0
M  V30 2952 C 286.501 -1.24122 -1.65534 0
M  V30 2953 C 286.916 0.193387 -1.87807 0
M  V30 2954 O 286.273 1.12557 -1.43656 0
M  V30 2955 C 286.324 -1.98229 -3.02304 0
M  V30 2956 O 286.045 -3.3609 -2.81026 0
M  V30 2957 C 287.546 -1.97751 -3.96749 0
M  V30 2958 H 284.766 -0.428868 -0.516055 0
M  V30 2959 H 287.31 -1.73328 -1.08525 0
M  V30 2960 H 285.465 -1.52782 -3.56001 0
M  V30 2961 H 285.879 -3.7383 -3.67902 0
M  V30 2962 H 287.353 -2.54114 -4.90031 0
M  V30 2963 H 287.83 -0.960137 -4.28577 0
M  V30 2964 H 288.436 -2.43079 -3.48988 0
M  V30 2965 N 286.751 1.08385 -1.14413 0
M  V30 2966 C 287.681 2.17321 -0.854044 0
M  V30 2967 C 288.662 1.69024 0.191049 0
M  V30 2968 O 289.847 1.94141 0.0476779 0
M  V30 2969 C 286.977 3.45719 -0.330983 0
M  V30 2970 C 285.931 4.07409 -1.31155 0
M  V30 2971 C 285.257 5.30762 -0.64778 0
M  V30 2972 C 286.557 4.48665 -2.67388 0
M  V30 2973 H 288.251 2.41845 -1.76498 0
M  V30 2974 H 285.797 1.16233 -0.850051 0
M  V30 2975 H 287.75 4.21241 -0.115645 0
M  V30 2976 H 286.474 3.2075 0.615381 0
M  V30 2977 H 285.133 3.33919 -1.51306 0
M  V30 2978 H 284.781 5.02078 0.304398 0
M  V30 2979 H 284.481 5.72992 -1.30207 0
M  V30 2980 H 286.005 6.08998 -0.441972 0
M  V30 2981 H 287.419 5.15364 -2.51143 0
M  V30 2982 H 285.816 5.01814 -3.29093 0
M  V30 2983 H 286.886 3.60543 -3.24248 0
M  V30 2984 N 288.23 0.939286 1.26551 0
M  V30 2985 C 289.476 0.586715 1.94128 0
M  V30 2986 C 289.809 -0.8717 1.73537 0
M  V30 2987 O 289.084 -1.62339 1.07127 0
M  V30 2988 C 289.367 0.927497 3.4795 0
M  V30 2989 C 289.22 2.44052 3.77834 0
M  V30 2990 C 290.539 0.441569 4.37879 0
M  V30 2991 H 287.658 0.21463 0.705055 0
M  V30 2992 H 290.3 1.17316 1.49455 0
M  V30 2993 H 288.45 0.428431 3.8613 0
M  V30 2994 H 290.122 3.01216 3.4938 0
M  V30 2995 H 288.365 2.8848 3.23978 0
M  V30 2996 H 289.036 2.62947 4.85348 0
M  V30 2997 H 291.512 0.869448 4.06915 0
M  V30 2998 H 290.388 0.708856 5.44304 0
M  V30 2999 H 290.649 -0.658467 4.37169 0
M  V30 3000 N 289.708 -1.40897 0.706093 0
M  V30 3001 C 290.938 -2.05075 0.250523 0
M  V30 3002 C 291.346 -1.53275 -1.10921 0
M  V30 3003 O 290.689 -0.680281 -1.7064 0
M  V30 3004 C 290.751 -3.59219 0.142178 0
M  V30 3005 C 290.415 -4.33864 1.43566 0
M  V30 3006 C 291.412 -4.62448 2.37566 0
M  V30 3007 C 289.097 -4.72946 1.69195 0
M  V30 3008 C 291.091 -5.29088 3.5545 0
M  V30 3009 C 288.778 -5.3932 2.87362 0
M  V30 3010 C 289.776 -5.6732 3.80312 0
M  V30 3011 O 289.464 -6.32325 4.96408 0
M  V30 3012 H 289.196 -0.666645 0.112074 0
M  V30 3013 H 291.75 -1.81467 0.962239 0
M  V30 3014 H 289.98 -3.81609 -0.6254 0
M  V30 3015 H 291.669 -4.0495 -0.277584 0
M  V30 3016 H 292.435 -4.32727 2.19027 0
M  V30 3017 H 288.314 -4.50527 0.977042 0
M  V30 3018 H 291.858 -5.50859 4.28018 0
M  V30 3019 H 287.755 -5.68461 3.05814 0
M  V30 3020 H 288.523 -6.50821 4.9636 0
M  V30 3021 N 291.186 -0.45159 -1.50991 0
M  V30 3022 C 292.434 0.109857 -2.01801 0
M  V30 3023 C 292.755 1.41958 -1.3369 0
M  V30 3024 O 292.025 1.9003 -0.475951 0
M  V30 3025 H 290.605 0.0435884 -0.745727 0
M  V30 3026 H 293.267 -0.597557 -1.85514 0
M  V30 3027 H 292.363 0.275489 -3.10882 0
M  V30 3028 N 292.664 1.56529 -0.183458 0
M  V30 3029 C 293.596 2.15747 0.773697 0
M  V30 3030 C 294.609 1.1162 1.1851 0
M  V30 3031 O 295.798 1.3876 1.12285 0
M  V30 3032 C 292.898 2.6952 2.05456 0
M  V30 3033 C 292.071 3.98429 1.8048 0
M  V30 3034 C 291.13 4.37145 2.92901 0
M  V30 3035 O 290.156 5.04791 2.6301 0
M  V30 3036 N 291.358 3.99695 4.2098 0
M  V30 3037 H 294.123 2.98505 0.26736 0
M  V30 3038 H 291.684 1.619 -0.0010878 0
M  V30 3039 H 293.676 2.92412 2.79781 0
M  V30 3040 H 292.246 1.91282 2.47245 0
M  V30 3041 H 291.466 3.8379 0.899947 0
M  V30 3042 H 292.754 4.82597 1.61175 0
M  V30 3043 H 292.152 3.4526 4.48121 0
M  V30 3044 H 290.709 4.27562 4.9197 0
M  V30 3045 N 294.142 -0.090211 1.57342 0
M  V30 3046 C 295.105 -1.09335 2.01441 0
M  V30 3047 C 296.105 -1.32666 0.908641 0
M  V30 3048 O 297.295 -1.28697 1.174 0
M  V30 3049 C 294.427 -2.44136 2.3793 0
M  V30 3050 H 295.62 -0.713662 2.91285 0
M  V30 3051 H 293.173 -0.335404 1.52659 0
M  V30 3052 H 293.908 -2.86972 1.51055 0
M  V30 3053 H 293.693 -2.28548 3.18603 0
M  V30 3054 H 295.183 -3.16277 2.72688 0
M  V30 3055 N 295.62 -1.53406 -0.361157 0
M  V30 3056 C 296.866 -1.70054 -1.10496 0
M  V30 3057 C 297.199 -0.453278 -1.88836 0
M  V30 3058 O 296.474 0.5495 -1.86576 0
M  V30 3059 C 296.757 -2.95317 -2.06058 0
M  V30 3060 C 296.61 -4.3021 -1.31298 0
M  V30 3061 C 297.929 -3.16193 -3.06121 0
M  V30 3062 H 295.048 -0.618799 -0.400321 0
M  V30 3063 H 297.69 -1.86052 -0.385318 0
M  V30 3064 H 295.84 -2.81809 -2.67425 0
M  V30 3065 H 297.512 -4.55538 -0.726807 0
M  V30 3066 H 295.755 -4.29421 -0.614853 0
M  V30 3067 H 296.426 -5.14 -2.01265 0
M  V30 3068 H 298.902 -3.28916 -2.5486 0
M  V30 3069 H 297.778 -4.05266 -3.70204 0
M  V30 3070 H 298.039 -2.31676 -3.76535 0
M  V30 3071 N 297.098 0.621204 -1.44841 0
M  V30 3072 C 298.048 1.72663 -1.48901 0
M  V30 3073 C 299.032 1.56964 -0.353702 0
M  V30 3074 O 300.224 1.66532 -0.599669 0
M  V30 3075 C 297.353 3.11381 -1.44557 0
M  V30 3076 C 296.439 3.32514 -2.6324 0
M  V30 3077 N 296.83 3.23969 -3.8843 0
M  V30 3078 C 295.128 3.63343 -2.58647 0
M  V30 3079 C 295.829 3.46062 -4.67564 0
M  V30 3080 N 294.805 3.69407 -3.98797 0
M  V30 3081 H 298.607 1.64529 -2.43531 0
M  V30 3082 H 296.121 0.82401 -1.39942 0
M  V30 3083 H 298.118 3.90667 -1.4555 0
M  V30 3084 H 296.778 3.20674 -0.509731 0
M  V30 3085 H 297.789 3.02669 -4.20252 0
M  V30 3086 H 294.466 3.79556 -1.73906 0
M  V30 3087 H 295.856 3.44963 -5.76585 0
M  V30 3088 N 298.576 1.31904 0.862503 0
M  V30 3089 C 299.508 1.16005 1.97675 0
M  V30 3090 C 300.521 0.0971234 1.6251 0
M  V30 3091 O 301.71 0.345337 1.75128 0
M  V30 3092 C 298.81 0.751791 3.30456 0
M  V30 3093 C 297.983 1.90133 3.93914 0
M  V30 3094 C 297.042 1.4779 5.05019 0
M  V30 3095 O 296.068 2.18872 5.25437 0
M  V30 3096 N 297.27 0.369491 5.79323 0
M  V30 3097 H 300.035 2.11982 2.11857 0
M  V30 3098 H 297.596 1.24337 1.03691 0
M  V30 3099 H 299.588 0.451084 4.02178 0
M  V30 3100 H 298.158 -0.116593 3.12382 0
M  V30 3101 H 297.378 2.36896 3.15078 0
M  V30 3102 H 298.666 2.67111 4.33047 0
M  V30 3103 H 298.064 -0.222299 5.65263 0
M  V30 3104 H 296.621 0.128354 6.51674 0
M  V30 3105 N 300.054 -1.07777 1.14986 0
M  V30 3106 C 301.47 -1.32373 0.891596 0
M  V30 3107 C 301.67 -1.9609 -0.463788 0
M  V30 3108 O 300.726 -2.21801 -1.20667 0
M  V30 3109 C 302.039 -2.21905 2.02925 0
M  V30 3110 C 303.587 -2.35367 2.06329 0
M  V30 3111 C 304.062 -3.28245 3.19405 0
M  V30 3112 N 305.553 -3.35824 3.19024 0
M  V30 3113 C 306.288 -4.07739 4.03158 0
M  V30 3114 N 305.784 -4.82306 4.97346 0
M  V30 3115 N 307.577 -4.03635 3.91197 0
M  V30 3116 H 299.728 -0.648039 2.02273 0
M  V30 3117 H 301.991 -0.348149 0.881757 0
M  V30 3118 H 301.697 -1.82342 3.0074 0
M  V30 3119 H 301.571 -3.22407 1.95789 0
M  V30 3120 H 303.958 -2.74186 1.09116 0
M  V30 3121 H 304.039 -1.34585 2.17533 0
M  V30 3122 H 303.683 -2.90146 4.16867 0
M  V30 3123 H 303.613 -4.28971 3.05437 0
M  V30 3124 H 306.104 -2.8267 2.50811 0
M  V30 3125 H 306.417 -5.34661 5.57994 0
M  V30 3126 H 304.762 -4.81337 5.01338 0
M  V30 3127 H 307.953 -3.44491 3.16928 0
M  V30 3128 H 308.126 -4.59417 4.5699 0
M  V30 3129 N 301.532 -0.945985 -1.26051 0
M  V30 3130 C 302.442 -0.465633 -2.29933 0
M  V30 3131 C 303.458 0.462761 -1.67733 0
M  V30 3132 O 304.634 0.341118 -1.9849 0
M  V30 3133 C 301.699 0.256994 -3.45746 0
M  V30 3134 C 300.76 -0.708549 -4.23412 0
M  V30 3135 C 299.993 -0.0203135 -5.33696 0
M  V30 3136 O 300.216 1.19571 -5.57726 0
M  V30 3137 O 299.15 -0.701459 -5.97799 0
M  V30 3138 H 302.976 -1.32866 -2.73094 0
M  V30 3139 H 300.561 -0.712071 -1.31339 0
M  V30 3140 H 302.443 0.663852 -4.16138 0
M  V30 3141 H 301.118 1.09533 -3.04605 0
M  V30 3142 H 300.025 -1.16545 -3.55483 0
M  V30 3143 H 301.358 -1.51465 -4.68315 0
M  V30 3144 N 303.011 1.40521 -0.713556 0
M  V30 3145 C 304.258 2.00923 -0.25219 0
M  V30 3146 C 304.586 1.56571 1.15395 0
M  V30 3147 O 303.841 0.775874 1.79663 0
M  V30 3148 C 304.14 3.56317 -0.278 0
M  V30 3149 C 303.806 4.20246 -1.63415 0
M  V30 3150 C 302.468 4.37422 -2.00538 0
M  V30 3151 C 304.82 4.55923 -2.52554 0
M  V30 3152 C 302.148 4.87558 -3.2635 0
M  V30 3153 C 304.5 5.07458 -3.77716 0
M  V30 3154 C 303.164 5.22843 -4.14959 0
M  V30 3155 H 302.434 0.735231 -0.0922829 0
M  V30 3156 H 305.081 1.68161 -0.916188 0
M  V30 3157 H 303.386 3.88976 0.469567 0
M  V30 3158 H 305.083 4.00883 0.0967819 0
M  V30 3159 H 301.673 4.07263 -1.33546 0
M  V30 3160 H 305.857 4.42291 -2.25149 0
M  V30 3161 H 301.113 4.97654 -3.55176 0
M  V30 3162 H 305.287 5.34041 -4.4696 0
M  V30 3163 H 302.914 5.61454 -5.12516 0
M  V30 3164 N 304.489 0.459591 1.5075 0
M  V30 3165 C 305.737 -0.0991532 2.01857 0
M  V30 3166 C 306.058 -1.41247 1.34441 0
M  V30 3167 O 305.328 -1.89775 0.486022 0
M  V30 3168 H 303.908 -0.039633 0.745948 0
M  V30 3169 H 306.57 0.607387 1.85194 0
M  V30 3170 H 305.666 -0.258998 3.11023 0
M  V30 3171 N 305.967 -1.56429 0.191757 0
M  V30 3172 C 307.216 -1.9666 -0.448088 0
M  V30 3173 C 307.529 -1.08136 -1.62991 0
M  V30 3174 O 308.735 -1.38135 -2.33733 0
M  V30 3175 C 307.191 -3.49753 -0.848585 0
M  V30 3176 C 306.799 -4.46935 0.308764 0
M  V30 3177 C 308.543 -3.9876 -1.4557 0
M  V30 3178 C 306.45 -5.91293 -0.112506 0
M  V30 3179 H 305.38 -0.734312 -0.171179 0
M  V30 3180 H 308.031 -1.81301 0.283242 0
M  V30 3181 H 306.413 -3.60604 -1.63649 0
M  V30 3182 H 307.587 -4.47813 1.08627 0
M  V30 3183 H 305.902 -4.08102 0.827158 0
M  V30 3184 H 308.499 -5.04086 -1.78328 0
M  V30 3185 H 308.842 -3.42875 -2.36099 0
M  V30 3186 H 309.375 -3.9101 -0.731836 0
M  V30 3187 H 306.114 -6.51097 0.758514 0
M  V30 3188 H 305.634 -5.93676 -0.854941 0
M  V30 3189 H 307.313 -6.44663 -0.549448 0
M  V30 3190 N 307.445 0.0818655 -1.57387 0
M  V30 3191 C 308.355 1.11642 -2.06333 0
M  V30 3192 C 309.371 1.43033 -0.99083 0
M  V30 3193 O 310.547 1.53411 -1.30488 0
M  V30 3194 C 307.612 2.41342 -2.48907 0
M  V30 3195 C 306.673 2.17014 -3.7041 0
M  V30 3196 C 305.906 3.4053 -4.10944 0
M  V30 3197 O 306.129 4.4927 -3.51444 0
M  V30 3198 O 305.063 3.29336 -5.03807 0
M  V30 3199 H 308.889 0.730657 -2.9478 0
M  V30 3200 H 306.474 0.295301 -1.46452 0
M  V30 3201 H 308.356 3.17691 -2.76858 0
M  V30 3202 H 307.031 2.79319 -1.63593 0
M  V30 3203 H 305.938 1.38403 -3.47556 0
M  V30 3204 H 307.271 1.83923 -4.56545 0
M  V30 3205 N 308.923 1.53595 0.353017 0
M  V30 3206 C 309.87 1.80919 1.43308 0
M  V30 3207 C 310.84 0.654288 1.5267 0
M  V30 3208 O 312.025 0.897759 1.6836 0
M  V30 3209 C 309.165 2.01605 2.80089 0
M  V30 3210 C 308.278 3.29321 2.79593 0
M  V30 3211 C 307.413 3.40125 4.0803 0
M  V30 3212 C 306.452 4.61826 4.01725 0
M  V30 3213 N 305.589 4.69716 5.21834 0
M  V30 3214 H 310.429 2.73074 1.19308 0
M  V30 3215 H 307.966 1.35263 0.578131 0
M  V30 3216 H 309.924 2.11586 3.59565 0
M  V30 3217 H 308.554 1.12772 3.0246 0
M  V30 3218 H 307.606 3.28229 1.92276 0
M  V30 3219 H 308.918 4.18884 2.70809 0
M  V30 3220 H 308.072 3.49488 4.95927 0
M  V30 3221 H 306.811 2.48601 4.19582 0
M  V30 3222 H 305.816 4.52552 3.12213 0
M  V30 3223 H 307.041 5.54705 3.91764 0
M  V30 3224 H 304.987 3.81097 5.33948 0
M  V30 3225 H 304.904 5.53202 5.1527 0
M  V30 3226 H 306.172 4.83376 6.11529 0
M  V30 3227 N 310.401 -0.613514 1.45168 0
M  V30 3228 C 311.649 -1.36997 1.48581 0
M  V30 3229 C 311.97 -1.94589 0.126545 0
M  V30 3230 O 311.24 -1.76816 -0.843372 0
M  V30 3231 H 309.82 -0.508558 0.547154 0
M  V30 3232 H 312.482 -0.720853 1.81079 0
M  V30 3233 H 311.578 -2.1924 2.22127 0
M  V30 3234 N 311.879 -1.3236 -0.855495 0
M  V30 3235 C 313.107 -1.2587 -1.64208 0
M  V30 3236 C 313.522 0.173457 -1.88002 0
M  V30 3237 O 312.879 1.11027 -1.44842 0
M  V30 3238 C 312.93 -2.01424 -3.00184 0
M  V30 3239 O 312.651 -3.39051 -2.77445 0
M  V30 3240 C 314.152 -2.01948 -3.94629 0
M  V30 3241 H 311.372 -0.434318 -0.511477 0
M  V30 3242 H 313.916 -1.74469 -1.0668 0
M  V30 3243 H 312.071 -1.56549 -3.5436 0
M  V30 3244 H 312.485 -3.77711 -3.63916 0
M  V30 3245 H 313.959 -2.59297 -4.87308 0
M  V30 3246 H 314.436 -1.00554 -4.27534 0
M  V30 3247 H 315.042 -2.46767 -3.4639 0
M  V30 3248 N 313.357 1.07166 -1.15556 0
M  V30 3249 C 314.604 1.79798 -0.931604 0
M  V30 3250 C 314.932 1.8682 0.54115 0
M  V30 3251 O 314.187 1.34942 1.41736 0
M  V30 3252 C 314.486 3.24707 -1.49332 0
M  V30 3253 C 314.152 3.37781 -2.98688 0
M  V30 3254 C 312.814 3.41057 -3.39461 0
M  V30 3255 C 315.166 3.40424 -3.94665 0
M  V30 3256 C 312.494 3.4458 -4.74849 0
M  V30 3257 C 314.846 3.45485 -5.29927 0
M  V30 3258 C 313.51 3.47039 -5.70193 0
M  V30 3259 H 312.78 0.657928 -0.340898 0
M  V30 3260 H 315.427 1.26091 -1.44129 0
M  V30 3261 H 313.732 3.81208 -0.904859 0
M  V30 3262 H 315.429 3.79486 -1.29582 0
M  V30 3263 H 312.019 3.35932 -2.66172 0
M  V30 3264 H 316.203 3.37113 -3.64237 0
M  V30 3265 H 311.459 3.44083 -5.05388 0
M  V30 3266 H 315.633 3.46476 -6.04092 0
M  V30 3267 H 313.26 3.49522 -6.75084 0
M  V30 3268 N 314.835 0.952656 1.25548 0
M  V30 3269 C 316.081 0.616826 1.93822 0
M  V30 3270 C 316.436 -0.836684 1.73255 0
M  V30 3271 O 315.729 -1.59218 1.06584 0
M  V30 3272 C 315.923 0.908818 3.45652 0
M  V30 3273 C 315.752 2.38916 3.80984 0
M  V30 3274 C 314.522 3.04637 4.03143 0
M  V30 3275 C 316.72 3.36838 3.88645 0
M  V30 3276 N 314.702 4.42565 4.25453 0
M  V30 3277 C 316.073 4.60065 4.1562 0
M  V30 3278 C 318.128 3.31704 3.71318 0
M  V30 3279 C 316.831 5.78795 4.2707 0
M  V30 3280 C 318.857 4.4977 3.84006 0
M  V30 3281 C 318.219 5.71783 4.11392 0
M  V30 3282 H 314.318 0.27629 0.731565 0
M  V30 3283 H 316.902 1.22443 1.5138 0
M  V30 3284 H 315.073 0.330166 3.86994 0
M  V30 3285 H 316.805 0.533093 4.01174 0
M  V30 3286 H 313.56 2.55215 3.98952 0
M  V30 3287 H 313.984 5.1399 4.40617 0
M  V30 3288 H 318.626 2.3842 3.49164 0
M  V30 3289 H 316.344 6.72521 4.48041 0
M  V30 3290 H 319.93 4.47342 3.71989 0
M  V30 3291 H 318.81 6.61617 4.2099 0
M  V30 3292 N 316.313 -1.40141 0.720998 0
M  V30 3293 C 317.538 -2.05618 0.271258 0
M  V30 3294 C 317.963 -1.53978 -1.08039 0
M  V30 3295 O 317.321 -0.677463 -1.68167 0
M  V30 3296 C 317.369 -3.59609 0.267197 0
M  V30 3297 O 316.473 -4.05526 -0.749814 0
M  V30 3298 H 315.814 -0.651904 0.126162 0
M  V30 3299 H 318.344 -1.79439 0.982997 0
M  V30 3300 H 318.354 -4.0786 0.106744 0
M  V30 3301 H 317.029 -3.96559 1.25354 0
M  V30 3302 H 315.606 -3.68722 -0.556644 0
M  V30 3303 N 317.792 -0.46758 -1.50504 0
M  V30 3304 C 319.203 -0.0116166 -1.86696 0
M  V30 3305 C 319.554 1.39202 -1.38265 0
M  V30 3306 O 318.679 2.0313 -0.746132 0
M  V30 3307 C 319.274 -0.0143044 -3.38797 0
M  V30 3308 C 317.833 0.386175 -3.74414 0
M  V30 3309 C 316.98 -0.401287 -2.74381 0
M  V30 3310 H 319.931 -0.682022 -1.43297 0
M  V30 3311 H 319.952 0.788641 -3.72237 0
M  V30 3312 H 319.464 -1.03602 -3.74016 0
M  V30 3313 H 317.565 1.41237 -3.44794 0
M  V30 3314 H 317.678 0.0899596 -4.79016 0
M  V30 3315 H 316.042 0.144536 -2.5429 0
M  V30 3316 H 316.825 -1.42244 -3.12444 0
M  V30 3317 N 319.27 1.56325 -0.20005 0
M  V30 3318 C 320.217 2.1932 0.718833 0
M  V30 3319 C 321.187 1.14198 1.20615 0
M  V30 3320 O 322.372 1.42469 1.26914 0
M  V30 3321 C 319.512 2.86041 1.93066 0
M  V30 3322 C 318.625 4.05702 1.48425 0
M  V30 3323 C 317.76 4.60266 2.65196 0
M  V30 3324 C 316.799 5.72273 2.17185 0
M  V30 3325 N 315.936 6.21221 3.27152 0
M  V30 3326 H 320.776 2.97486 0.17489 0
M  V30 3327 H 318.313 1.46911 0.0745794 0
M  V30 3328 H 320.271 3.22897 2.64184 0
M  V30 3329 H 318.901 2.1043 2.44783 0
M  V30 3330 H 317.953 3.74475 0.668755 0
M  V30 3331 H 319.265 4.86699 1.09204 0
M  V30 3332 H 318.419 4.99453 3.4443 0
M  V30 3333 H 317.158 3.78386 3.07693 0
M  V30 3334 H 316.163 5.3261 1.36407 0
M  V30 3335 H 317.388 6.55974 1.75713 0
M  V30 3336 H 315.334 5.42263 3.69171 0
M  V30 3337 H 315.251 6.97284 2.92116 0
M  V30 3338 H 316.519 6.65063 4.06585 0
M  V30 3339 N 320.748 -0.0735177 1.57428 0
M  V30 3340 C 321.996 -0.771472 1.86796 0
M  V30 3341 C 322.317 -1.78201 0.791804 0
M  V30 3342 O 321.587 -1.95074 -0.179718 0
M  V30 3343 H 320.167 -0.28791 0.689287 0
M  V30 3344 H 322.829 -0.0500161 1.94836 0
M  V30 3345 H 321.925 -1.28874 2.8425 0
M  V30 3346 N 322.226 -1.5378 -0.344866 0
M  V30 3347 C 323.451 -1.75211 -1.10977 0
M  V30 3348 C 323.876 -0.48936 -1.81623 0
M  V30 3349 O 323.234 0.557925 -1.72502 0
M  V30 3350 C 323.282 -2.93147 -2.09993 0
M  V30 3351 O 322.386 -2.63203 -3.17487 0
M  V30 3352 H 321.727 -0.581241 -0.321021 0
M  V30 3353 H 324.257 -2.00738 -0.395661 0
M  V30 3354 H 324.267 -3.19898 -2.53237 0
M  V30 3355 H 322.942 -3.84731 -1.5797 0
M  V30 3356 H 321.519 -2.47336 -2.79069 0
M  V30 3357 N 323.704 0.605807 -1.45491 0
M  V30 3358 C 324.944 1.37606 -1.51142 0
M  V30 3359 C 325.308 1.91413 -0.150075 0
M  V30 3360 O 326.509 2.68677 -0.0812828 0
M  V30 3361 C 324.78 2.49197 -2.56195 0
M  V30 3362 S 326.339 3.36953 -2.81083 0
M  V30 3363 H 323.157 0.469118 -0.534275 0
M  V30 3364 H 325.759 0.698845 -1.82583 0
M  V30 3365 H 324.463 2.0802 -3.53773 0
M  V30 3366 H 323.994 3.21717 -2.26411 0
M  V30 3367 H 326.009 4.47395 -2.14598 0
M  V30 3368 N 325.182 1.32811 0.848464 0
M  V30 3369 C 326.112 1.24882 1.97299 0
M  V30 3370 C 327.093 0.131357 1.69592 0
M  V30 3371 O 328.278 0.319553 1.91553 0
M  V30 3372 C 325.408 0.97746 3.33261 0
M  V30 3373 C 324.362 2.05682 3.75338 0
M  V30 3374 C 323.688 1.63777 5.09 0
M  V30 3375 C 324.988 3.47254 3.90144 0
M  V30 3376 H 326.682 2.18966 2.04191 0
M  V30 3377 H 324.228 1.05413 0.981029 0
M  V30 3378 H 326.181 0.908513 4.1149 0
M  V30 3379 H 324.905 0.000980011 3.266 0
M  V30 3380 H 323.564 2.11603 2.99366 0
M  V30 3381 H 323.212 0.648569 4.98801 0
M  V30 3382 H 322.912 2.36 5.38124 0
M  V30 3383 H 324.436 1.5833 5.89715 0
M  V30 3384 H 325.85 3.43888 4.58709 0
M  V30 3385 H 324.247 4.1788 4.30693 0
M  V30 3386 H 325.317 3.86462 2.92874 0
M  V30 3387 N 326.66 -1.06551 1.16123 0
M  V30 3388 C 327.623 -2.12132 0.867906 0
M  V30 3389 C 328.623 -1.60224 -0.135944 0
M  V30 3390 O 329.813 -1.73943 0.0946422 0
M  V30 3391 C 326.945 -3.396 0.297419 0
M  V30 3392 H 328.138 -2.39586 1.80385 0
M  V30 3393 H 325.691 -1.22574 0.969812 0
M  V30 3394 H 326.426 -3.17794 -0.64633 0
M  V30 3395 H 326.211 -3.78581 1.02073 0
M  V30 3396 H 327.701 -4.17455 0.110052 0
M  V30 3397 N 328.138 -0.959301 -1.25041 0
M  V30 3398 C 329.385 -0.616611 -1.92884 0
M  V30 3399 C 329.713 0.847036 -1.75087 0
M  V30 3400 O 328.968 1.62374 -1.09239 0
M  V30 3401 C 329.267 -0.927136 -3.45165 0
M  V30 3402 C 328.933 -2.37757 -3.83122 0
M  V30 3403 C 327.595 -2.77402 -3.93194 0
M  V30 3404 C 329.947 -3.31929 -4.01836 0
M  V30 3405 C 327.275 -4.10277 -4.19392 0
M  V30 3406 C 329.627 -4.64423 -4.29528 0
M  V30 3407 C 328.291 -5.03857 -4.37818 0
M  V30 3408 H 327.561 -0.225634 -0.705812 0
M  V30 3409 H 330.208 -1.20921 -1.48493 0
M  V30 3410 H 328.513 -0.252195 -3.90987 0
M  V30 3411 H 330.21 -0.6405 -3.95852 0
M  V30 3412 H 326.8 -2.06013 -3.75841 0
M  V30 3413 H 330.984 -3.02488 -3.93465 0
M  V30 3414 H 326.24 -4.40467 -4.24027 0
M  V30 3415 H 330.414 -5.37369 -4.42953 0
M  V30 3416 H 328.041 -6.06843 -4.57871 0
M  V30 3417 N 329.616 1.39756 -0.72842 0
M  V30 3418 C 330.846 2.04651 -0.283117 0
M  V30 3419 C 331.254 1.5502 1.08469 0
M  V30 3420 O 330.597 0.707343 1.69536 0
M  V30 3421 C 330.659 3.58947 -0.199309 0
M  V30 3422 C 330.323 4.31525 -1.5045 0
M  V30 3423 C 331.32 4.5861 -2.44894 0
M  V30 3424 C 329.005 4.70195 -1.76698 0
M  V30 3425 C 330.999 5.23366 -3.63822 0
M  V30 3426 C 328.686 5.3468 -2.95906 0
M  V30 3427 C 329.684 5.61198 -3.89289 0
M  V30 3428 O 329.372 6.24347 -5.06404 0
M  V30 3429 H 329.104 0.664777 -0.122666 0
M  V30 3430 H 331.658 1.79913 -0.990987 0
M  V30 3431 H 329.888 3.82556 0.56461 0
M  V30 3432 H 331.577 4.0534 0.213125 0
M  V30 3433 H 332.343 4.29187 -2.25883 0
M  V30 3434 H 328.222 4.48916 -1.04859 0
M  V30 3435 H 331.766 5.4398 -4.36728 0
M  V30 3436 H 327.663 5.63524 -3.14819 0
M  V30 3437 H 328.431 6.42842 -5.06652 0
M  V30 3438 N 331.094 0.475555 1.50254 0
M  V30 3439 C 332.51 0.12997 1.5907 0
M  V30 3440 C 332.71 -1.36385 1.48328 0
M  V30 3441 O 331.766 -2.13754 1.34407 0
M  V30 3442 C 333.079 0.684139 2.92814 0
M  V30 3443 C 334.627 0.647965 3.0622 0
M  V30 3444 C 335.102 1.17975 4.42545 0
M  V30 3445 N 336.593 1.13936 4.48969 0
M  V30 3446 C 337.328 1.52129 5.52851 0
M  V30 3447 N 336.824 1.97793 6.63965 0
M  V30 3448 N 338.617 1.43704 5.4342 0
M  V30 3449 H 330.768 1.44706 1.55479 0
M  V30 3450 H 333.031 0.598691 0.735033 0
M  V30 3451 H 332.737 1.73079 3.06164 0
M  V30 3452 H 332.611 0.130204 3.76975 0
M  V30 3453 H 334.998 -0.38979 2.92514 0
M  V30 3454 H 335.079 1.23876 2.23805 0
M  V30 3455 H 334.723 2.21616 4.57 0
M  V30 3456 H 334.653 0.565138 5.23559 0
M  V30 3457 H 337.144 0.804488 3.69238 0
M  V30 3458 H 337.457 2.25072 7.39299 0
M  V30 3459 H 335.802 2.01749 6.65073 0
M  V30 3460 H 338.993 1.07867 4.55502 0
M  V30 3461 H 339.166 1.73794 6.24259 0
M  V30 3462 N 332.573 -1.56217 0.208337 0
M  V30 3463 C 333.506 -2.15633 -0.746842 0
M  V30 3464 C 334.484 -1.09685 -1.20034 0
M  V30 3465 O 335.668 -1.3787 -1.28547 0
M  V30 3466 C 332.795 -2.72594 -2.01023 0
M  V30 3467 C 331.841 -3.91251 -1.69779 0
M  V30 3468 S 332.674 -5.28962 -0.834209 0
M  V30 3469 C 333.83 -5.89353 -2.10745 0
M  V30 3470 H 334.063 -2.96315 -0.241789 0
M  V30 3471 H 331.596 -1.54398 -0.00682183 0
M  V30 3472 H 333.554 -3.06053 -2.73572 0
M  V30 3473 H 332.215 -1.91929 -2.48641 0
M  V30 3474 H 331.408 -4.29562 -2.63614 0
M  V30 3475 H 331.01 -3.58869 -1.05303 0
M  V30 3476 H 333.302 -6.04522 -3.05875 0
M  V30 3477 H 334.245 -6.85661 -1.76845 0
M  V30 3478 H 334.653 -5.1807 -2.24196 0
M  V30 3479 N 334.051 0.0651679 -1.57465 0
M  V30 3480 C 335.328 0.79644 -1.78651 0
M  V30 3481 C 335.708 1.95454 -0.797566 0
M  V30 3482 O 335.056 2.27882 0.167946 0
M  V30 3483 C 335.266 1.26322 -3.25337 0
M  V30 3484 C 336.614 1.6939 -3.89348 0
M  V30 3485 O 337.638 1.35872 -3.29268 0
M  V30 3486 O 336.497 2.31471 -4.95059 0
M  V30 3487 H 333.591 0.382157 -0.733407 0
M  V30 3488 H 336.137 0.0447311 -1.69641 0
M  V30 3489 H 334.909 0.434859 -3.88876 0
M  V30 3490 H 334.532 2.07604 -3.39096 0
M  V30 3491 N 335.529 1.53961 0.336706 0
M  V30 3492 C 336.461 1.78751 1.4346 0
M  V30 3493 C 337.474 0.669019 1.48418 0
M  V30 3494 O 338.663 0.945884 1.51378 0
M  V30 3495 C 335.763 1.87844 2.82078 0
M  V30 3496 C 334.936 3.17854 3.00479 0
M  V30 3497 C 333.995 3.17816 4.19379 0
M  V30 3498 O 333.021 3.91511 4.13168 0
M  V30 3499 N 334.223 2.40669 5.2826 0
M  V30 3500 H 336.988 2.73493 1.22563 0
M  V30 3501 H 334.549 1.53096 0.526625 0
M  V30 3502 H 336.541 1.85261 3.59806 0
M  V30 3503 H 335.111 1.00257 2.96086 0
M  V30 3504 H 334.331 3.33504 2.10163 0
M  V30 3505 H 335.619 4.03718 3.0966 0
M  V30 3506 H 335.017 1.8036 5.36178 0
M  V30 3507 H 333.574 2.43877 6.04456 0
M  V30 3508 N 337.007 -0.598083 1.45811 0
M  V30 3509 C 338.232 -1.3881 1.54099 0
M  V30 3510 C 338.657 -1.8726 0.177578 0
M  V30 3511 O 338.015 -1.6069 -0.839541 0
M  V30 3512 C 338.063 -2.56217 2.53743 0
M  V30 3513 O 337.167 -3.5716 2.06182 0
M  V30 3514 H 336.508 -0.414024 0.519115 0
M  V30 3515 H 339.038 -0.726971 1.91249 0
M  V30 3516 H 339.048 -3.03337 2.72856 0
M  V30 3517 H 337.723 -2.20303 3.5276 0
M  V30 3518 H 336.3 -3.16624 1.96987 0
M  V30 3519 N 338.485 -1.33259 -0.841409 0
M  V30 3520 C 339.418 -1.1764 -1.95541 0
M  V30 3521 C 340.396 -0.072501 -1.62438 0
M  V30 3522 O 341.58 -0.23427 -1.87039 0
M  V30 3523 C 338.707 -0.803794 -3.29024 0
M  V30 3524 C 337.753 -1.91482 -3.81099 0
M  V30 3525 S 338.586 -3.52538 -4.03085 0
M  V30 3526 C 339.742 -3.17279 -5.39523 0
M  V30 3527 H 339.975 -2.11941 -2.08491 0
M  V30 3528 H 337.508 -1.18072 -0.9949 0
M  V30 3529 H 339.466 -0.595592 -4.06156 0
M  V30 3530 H 338.127 0.120574 -3.13868 0
M  V30 3531 H 337.32 -1.60742 -4.7768 0
M  V30 3532 H 336.922 -2.07956 -3.10854 0
M  V30 3533 H 339.214 -2.67946 -6.22263 0
M  V30 3534 H 340.157 -4.1293 -5.75234 0
M  V30 3535 H 340.565 -2.53943 -5.04156 0
M  V30 3536 N 339.963 1.05934 -1.16686 0
M  V30 3537 C 341.209 1.79065 -0.95203 0
M  V30 3538 C 341.542 1.87147 0.518629 0
M  V30 3539 O 340.817 1.36574 1.38484 0
M  V30 3540 C 341.1 3.23359 -1.58464 0
M  V30 3541 C 340.953 3.23336 -3.12689 0
M  V30 3542 C 342.272 4.21004 -1.28232 0
M  V30 3543 H 339.391 0.65005 -0.34728 0
M  V30 3544 H 342.033 1.23868 -1.44072 0
M  V30 3545 H 340.183 3.70493 -1.16908 0
M  V30 3546 H 341.855 2.84336 -3.6325 0
M  V30 3547 H 340.098 2.61886 -3.4583 0
M  V30 3548 H 340.769 4.25144 -3.52075 0
M  V30 3549 H 343.245 3.8233 -1.64203 0
M  V30 3550 H 342.121 5.20225 -1.75092 0
M  V30 3551 H 342.382 4.41639 -0.201791 0
M  V30 3552 N 341.441 0.965919 1.2453 0
M  V30 3553 C 342.388 0.49402 2.25451 0
M  V30 3554 C 343.358 -0.45948 1.59618 0
M  V30 3555 O 344.543 -0.370238 1.87173 0
M  V30 3556 C 341.683 -0.211359 3.44452 0
M  V30 3557 C 340.796 0.7807 4.24887 0
M  V30 3558 C 339.931 0.0516105 5.31175 0
M  V30 3559 C 338.97 1.03385 6.03306 0
M  V30 3560 N 338.107 0.334887 7.01301 0
M  V30 3561 H 342.947 1.35946 2.65184 0
M  V30 3562 H 340.484 0.681515 1.3036 0
M  V30 3563 H 342.442 -0.637 4.12308 0
M  V30 3564 H 341.072 -1.04077 3.05562 0
M  V30 3565 H 340.124 1.32479 3.56586 0
M  V30 3566 H 341.436 1.52978 4.74762 0
M  V30 3567 H 340.59 -0.432114 6.05159 0
M  V30 3568 H 339.329 -0.730179 4.82203 0
M  V30 3569 H 338.334 1.52847 5.28127 0
M  V30 3570 H 339.559 1.81606 6.54367 0
M  V30 3571 H 337.505 -0.427959 6.54603 0
M  V30 3572 H 337.422 1.02287 7.49048 0
M  V30 3573 H 338.69 -0.126928 7.79397 0
M  V30 3574 N 342.919 -1.39368 0.735821 0
M  V30 3575 C 344.33 -1.83313 0.354015 0
M  V30 3576 C 344.681 -1.61461 -1.11466 0
M  V30 3577 O 343.806 -1.10621 -1.85989 0
M  V30 3578 C 344.401 -3.32781 0.635769 0
M  V30 3579 C 342.96 -3.75142 0.307448 0
M  V30 3580 C 342.107 -2.62358 0.897974 0
M  V30 3581 H 345.058 -1.28349 0.933398 0
M  V30 3582 H 345.079 -3.80388 -0.0921773 0
M  V30 3583 H 344.591 -3.48654 1.70476 0
M  V30 3584 H 342.692 -3.64857 -0.755674 0
M  V30 3585 H 342.805 -4.72532 0.790583 0
M  V30 3586 H 341.169 -2.52624 0.324551 0
M  V30 3587 H 341.952 -2.81036 1.97164 0
M  V30 3588 N 344.397 -0.483516 -1.5 0
M  V30 3589 C 345.625 0.0644831 -2.06799 0
M  V30 3590 C 346.04 1.32399 -1.34596 0
M  V30 3591 O 345.397 1.77626 -0.418946 0
M  V30 3592 C 345.448 0.339927 -3.59898 0
M  V30 3593 O 345.169 -0.869635 -4.29382 0
M  V30 3594 C 346.67 0.933515 -4.33359 0
M  V30 3595 H 343.89 -0.0126333 -0.670881 0
M  V30 3596 H 346.434 -0.675864 -1.93009 0
M  V30 3597 H 344.589 1.03022 -3.7345 0
M  V30 3598 H 345.003 -0.62179 -5.20801 0
M  V30 3599 H 346.477 1.07593 -5.41413 0
M  V30 3600 H 346.954 1.92685 -3.94676 0
M  V30 3601 H 347.56 0.281221 -4.24369 0
M  V30 3602 N 345.875 1.56104 -0.216619 0
M  V30 3603 C 347.286 1.844 0.292128 0
M  V30 3604 C 347.637 1.13788 1.59833 0
M  V30 3605 O 346.762 0.405888 2.12559 0
M  V30 3606 C 347.357 3.3452 0.53681 0
M  V30 3607 C 345.916 3.63151 0.989876 0
M  V30 3608 C 345.063 2.77255 0.0502302 0
M  V30 3609 H 348.014 1.52481 -0.439926 0
M  V30 3610 H 348.035 3.54459 1.38345 0
M  V30 3611 H 347.547 3.85885 -0.414031 0
M  V30 3612 H 345.648 3.17238 1.95425 0
M  V30 3613 H 345.761 4.71177 0.867698 0
M  V30 3614 H 344.125 2.48555 0.556117 0
M  V30 3615 H 344.908 3.31416 -0.89544 0
M  V30 3616 N 347.353 -0.0568162 1.57498 0
M  V30 3617 C 348.602 -0.752001 1.87157 0
M  V30 3618 C 348.915 -1.77978 0.811375 0
M  V30 3619 O 350.121 -2.52559 0.996293 0
M  V30 3620 C 348.577 -1.38844 3.3204 0
M  V30 3621 C 348.185 -0.398456 4.46225 0
M  V30 3622 C 349.929 -2.06512 3.70882 0
M  V30 3623 C 347.836 -1.04166 5.82154 0
M  V30 3624 H 346.766 -0.28461 0.698222 0
M  V30 3625 H 349.417 -0.00561272 1.83499 0
M  V30 3626 H 347.799 -2.1836 3.30356 0
M  V30 3627 H 348.973 0.367977 4.59328 0
M  V30 3628 H 347.288 0.174592 4.16034 0
M  V30 3629 H 349.885 -2.55437 4.6974 0
M  V30 3630 H 350.228 -2.87117 3.01445 0
M  V30 3631 H 350.761 -1.33808 3.7462 0
M  V30 3632 H 347.5 -0.275614 6.5492 0
M  V30 3633 H 347.02 -1.7786 5.72823 0
M  V30 3634 H 348.699 -1.55715 6.27982 0
M  V30 3635 N 348.832 -1.54138 -0.328536 0
M  V30 3636 C 350.078 -1.7236 -1.06865 0
M  V30 3637 C 350.411 -0.493231 -1.87832 0
M  V30 3638 O 349.686 0.5098 -1.877 0
M  V30 3639 C 349.969 -2.99621 -1.99747 0
M  V30 3640 C 349.822 -4.32899 -1.22143 0
M  V30 3641 C 351.141 -3.22615 -2.99345 0
M  V30 3642 H 348.26 -0.627151 -0.387105 0
M  V30 3643 H 350.902 -1.86827 -0.345767 0
M  V30 3644 H 349.052 -2.87418 -2.61387 0
M  V30 3645 H 350.724 -4.56978 -0.630017 0
M  V30 3646 H 348.967 -4.30628 -0.523628 0
M  V30 3647 H 349.638 -5.18154 -1.90318 0
M  V30 3648 H 352.114 -3.34248 -2.47826 0
M  V30 3649 H 350.99 -4.13027 -3.61524 0
M  V30 3650 H 351.251 -2.3961 -3.71536 0
M  V30 3651 N 350.31 0.590341 -1.46126 0
M  V30 3652 C 351.587 1.35029 -1.41515 0
M  V30 3653 C 351.967 2.10888 -0.0946472 0
M  V30 3654 O 351.315 2.08998 0.923693 0
M  V30 3655 C 351.525 2.28269 -2.63997 0
M  V30 3656 C 352.873 2.90338 -3.09821 0
M  V30 3657 O 353.897 2.38585 -2.64492 0
M  V30 3658 O 352.756 3.84321 -3.88535 0
M  V30 3659 H 349.85 0.606317 -0.562413 0
M  V30 3660 H 352.396 0.611994 -1.58281 0
M  V30 3661 H 351.168 1.71591 -3.51671 0
M  V30 3662 H 350.791 3.0945 -2.49652 0
M  V30 3663 N 351.788 1.33704 0.83433 0
M  V30 3664 C 353.018 1.28281 1.6195 0
M  V30 3665 C 353.426 -0.147603 1.88623 0
M  V30 3666 O 352.769 -1.1016 1.47005 0
M  V30 3667 C 352.831 1.99386 2.99141 0
M  V30 3668 C 352.495 3.48681 2.95416 0
M  V30 3669 C 353.492 4.438 2.70809 0
M  V30 3670 C 351.177 3.90925 3.15409 0
M  V30 3671 C 353.171 5.79138 2.66229 0
M  V30 3672 C 350.858 5.26366 3.10454 0
M  V30 3673 C 351.856 6.20284 2.85895 0
M  V30 3674 O 351.544 7.53245 2.80852 0
M  V30 3675 H 351.276 0.44315 0.510484 0
M  V30 3676 H 353.83 1.76711 1.04702 0
M  V30 3677 H 352.06 1.45554 3.58261 0
M  V30 3678 H 353.749 1.87403 3.60049 0
M  V30 3679 H 354.515 4.12485 2.5511 0
M  V30 3680 H 350.394 3.18229 3.33543 0
M  V30 3681 H 353.938 6.52416 2.4698 0
M  V30 3682 H 349.835 5.57304 3.25703 0
M  V30 3683 H 350.603 7.62846 2.96661 0
M  V30 3684 N 353.266 -1.05314 1.17247 0
M  V30 3685 C 354.216 -2.11313 0.856196 0
M  V30 3686 C 355.2 -1.60013 -0.168694 0
M  V30 3687 O 356.392 -1.76968 0.0335624 0
M  V30 3688 C 353.521 -3.41301 0.369917 0
M  V30 3689 C 352.607 -3.99401 1.42616 0
M  V30 3690 N 352.998 -4.31481 2.63928 0
M  V30 3691 C 351.296 -4.27126 1.28373 0
M  V30 3692 C 351.997 -4.77799 3.31787 0
M  V30 3693 N 350.973 -4.77843 2.59166 0
M  V30 3694 H 354.775 -2.33976 1.77856 0
M  V30 3695 H 352.289 -1.2295 1.06099 0
M  V30 3696 H 354.286 -4.16713 0.124897 0
M  V30 3697 H 352.946 -3.20072 -0.546253 0
M  V30 3698 H 353.957 -4.21519 3.00902 0
M  V30 3699 H 350.634 -4.15289 0.429111 0
M  V30 3700 H 352.024 -5.11743 4.35395 0
M  V30 3701 N 354.744 -0.972509 -1.24016 0
M  V30 3702 C 356.155 -0.67517 -1.74064 0
M  V30 3703 C 356.506 0.808939 -1.78747 0
M  V30 3704 O 355.631 1.63286 -1.42009 0
M  V30 3705 C 356.226 -1.21889 -3.16115 0
M  V30 3706 C 354.785 -0.971358 -3.6365 0
M  V30 3707 C 353.932 -1.35134 -2.42145 0
M  V30 3708 H 356.883 -1.14727 -1.09651 0
M  V30 3709 H 356.904 -0.587489 -3.75937 0
M  V30 3710 H 356.416 -2.29906 -3.12674 0
M  V30 3711 H 354.517 0.0930686 -3.72484 0
M  V30 3712 H 354.63 -1.62039 -4.50866 0
M  V30 3713 H 352.994 -0.769751 -2.4279 0
M  V30 3714 H 353.777 -2.4411 -2.41381 0
M  V30 3715 N 356.222 1.38976 -0.743202 0
M  V30 3716 C 357.152 2.33171 -0.123873 0
M  V30 3717 C 358.133 1.54336 0.71516 0
M  V30 3718 O 359.318 1.82696 0.658467 0
M  V30 3719 C 356.448 3.38474 0.777978 0
M  V30 3720 C 355.402 4.27979 0.0424758 0
M  V30 3721 C 354.728 5.2405 1.06189 0
M  V30 3722 C 356.028 5.10155 -1.1198 0
M  V30 3723 H 357.722 2.85213 -0.910709 0
M  V30 3724 H 355.268 1.37133 -0.439388 0
M  V30 3725 H 357.221 4.03328 1.22084 0
M  V30 3726 H 355.945 2.84891 1.59702 0
M  V30 3727 H 354.604 3.64616 -0.380853 0
M  V30 3728 H 354.252 4.66758 1.87472 0
M  V30 3729 H 353.952 5.84785 0.574485 0
M  V30 3730 H 355.476 5.9178 1.50428 0
M  V30 3731 H 356.89 5.68307 -0.75499 0
M  V30 3732 H 355.287 5.80073 -1.53738 0
M  V30 3733 H 356.357 4.44504 -1.93764 0
M  V30 3734 N 357.7 0.491464 1.49741 0
M  V30 3735 C 358.61 -0.296835 2.32715 0
M  V30 3736 C 359.626 -0.976536 1.44013 0
M  V30 3737 O 360.802 -0.960023 1.77047 0
M  V30 3738 C 357.867 -1.35288 3.19215 0
M  V30 3739 C 356.928 -0.687632 4.23757 0
M  V30 3740 C 356.161 -1.69336 5.06123 0
M  V30 3741 O 356.384 -2.92219 4.89861 0
M  V30 3742 O 355.318 -1.25394 5.88693 0
M  V30 3743 H 359.144 0.382048 3.01287 0
M  V30 3744 H 356.729 0.252953 1.47243 0
M  V30 3745 H 358.611 -1.96411 3.72828 0
M  V30 3746 H 357.286 -2.01487 2.53347 0
M  V30 3747 H 356.193 -0.0369159 3.74082 0
M  V30 3748 H 357.526 -0.0682566 4.92153 0
M  V30 3749 N 359.178 -1.55987 0.224894 0
M  V30 3750 C 360.141 -2.19178 -0.670348 0
M  V30 3751 C 361.141 -1.15461 -1.11917 0
M  V30 3752 O 362.331 -1.40675 -1.02743 0
M  V30 3753 C 359.463 -2.81777 -1.9187 0
M  V30 3754 H 360.656 -2.99662 -0.119364 0
M  V30 3755 H 358.209 -1.5628 -0.0247128 0
M  V30 3756 H 358.944 -2.05172 -2.51147 0
M  V30 3757 H 358.729 -3.57732 -1.60531 0
M  V30 3758 H 360.219 -3.30205 -2.55645 0
M  V30 3759 N 360.656 0.0484629 -1.57525 0
M  V30 3760 C 361.566 1.07241 -2.08654 0
M  V30 3761 C 362.582 1.409 -1.02095 0
M  V30 3762 O 363.758 1.50609 -1.33712 0
M  V30 3763 C 360.823 2.36008 -2.5397 0
M  V30 3764 C 359.884 2.09108 -3.7493 0
M  V30 3765 C 359.117 3.31736 -4.18075 0
M  V30 3766 O 359.34 4.41714 -3.60895 0
M  V30 3767 O 358.274 3.18576 -5.10679 0
M  V30 3768 H 362.1 0.667965 -2.96263 0
M  V30 3769 H 359.685 0.26417 -1.47046 0
M  V30 3770 H 361.567 3.11747 -2.83535 0
M  V30 3771 H 360.242 2.75786 -1.69481 0
M  V30 3772 H 359.149 1.31 -3.50414 0
M  V30 3773 H 360.482 1.74198 -4.60343 0
M  V30 3774 N 362.134 1.5431 0.320358 0
M  V30 3775 C 363.359 1.76954 1.08175 0
M  V30 3776 C 363.784 0.518193 1.80821 0
M  V30 3777 O 363.142 -0.530411 1.73368 0
M  V30 3778 C 363.19 2.96451 2.05303 0
M  V30 3779 O 362.294 2.68221 3.13259 0
M  V30 3780 H 361.635 0.586275 0.311733 0
M  V30 3781 H 364.165 2.01342 0.363676 0
M  V30 3782 H 364.175 3.23887 2.48116 0
M  V30 3783 H 362.85 3.87196 1.51829 0
M  V30 3784 H 361.427 2.51744 2.75099 0
M  V30 3785 N 363.613 -0.582584 1.46437 0
M  V30 3786 C 364.56 -1.69164 1.5701 0
M  V30 3787 C 365.53 -1.60847 0.414403 0
M  V30 3788 O 366.715 -1.80058 0.631171 0
M  V30 3789 C 363.855 -3.075 1.56646 0
M  V30 3790 C 362.968 -3.2644 2.82951 0
M  V30 3791 C 362.103 -4.55026 2.7409 0
M  V30 3792 C 361.142 -4.6731 3.95333 0
M  V30 3793 N 360.279 -5.87221 3.84858 0
M  V30 3794 H 365.119 -1.59464 2.51744 0
M  V30 3795 H 362.656 -0.777186 1.24893 0
M  V30 3796 H 364.614 -3.8757 1.5442 0
M  V30 3797 H 363.244 -3.16096 0.654439 0
M  V30 3798 H 362.296 -2.39974 2.95155 0
M  V30 3799 H 363.608 -3.31385 3.72808 0
M  V30 3800 H 362.762 -5.43324 2.6997 0
M  V30 3801 H 361.501 -4.52519 1.81873 0
M  V30 3802 H 360.506 -3.77429 3.99784 0
M  V30 3803 H 361.731 -4.71595 4.88646 0
M  V30 3804 H 359.677 -5.85712 2.95427 0
M  V30 3805 H 359.594 -5.93435 4.6837 0
M  V30 3806 H 360.862 -6.7795 3.84713 0
M  V30 3807 N 365.091 -1.34144 -0.827227 0
M  V30 3808 C 366.502 -1.23557 -1.39966 0
M  V30 3809 C 366.853 0.140731 -1.95695 0
M  V30 3810 O 365.978 1.04087 -1.89723 0
M  V30 3811 C 366.573 -2.23708 -2.54441 0
M  V30 3812 C 365.132 -2.16924 -3.07605 0
M  V30 3813 C 364.279 -2.10549 -1.80456 0
M  V30 3814 H 367.23 -1.45573 -0.631991 0
M  V30 3815 H 367.251 -1.85157 -3.32411 0
M  V30 3816 H 366.763 -3.23866 -2.13851 0
M  V30 3817 H 364.864 -1.20107 -3.52711 0
M  V30 3818 H 364.977 -3.07988 -3.66988 0
M  V30 3819 H 363.341 -1.56203 -2.01178 0
M  V30 3820 H 364.124 -3.12535 -1.42046 0
M  V30 3821 N 366.569 1.04691 -1.17803 0
M  V30 3822 C 367.499 2.14494 -0.92275 0
M  V30 3823 C 368.48 1.69546 0.137179 0
M  V30 3824 O 369.665 1.94195 -0.0141108 0
M  V30 3825 C 366.795 3.44491 -0.440803 0
M  V30 3826 C 365.749 4.03031 -1.4405 0
M  V30 3827 C 365.075 5.28432 -0.81631 0
M  V30 3828 C 366.375 4.39932 -2.81527 0
M  V30 3829 H 368.069 2.36107 -1.84103 0
M  V30 3830 H 365.615 1.1347 -0.886599 0
M  V30 3831 H 367.568 4.2066 -0.249602 0
M  V30 3832 H 366.292 3.22546 0.513025 0
M  V30 3833 H 364.951 3.28937 -1.61853 0
M  V30 3834 H 364.599 5.02792 0.144511 0
M  V30 3835 H 364.299 5.68559 -1.48371 0
M  V30 3836 H 365.823 6.07284 -0.635496 0
M  V30 3837 H 367.237 5.07113 -2.67412 0
M  V30 3838 H 365.634 4.9109 -3.44892 0
M  V30 3839 H 366.704 3.50045 -3.35554 0
M  V30 3840 N 368.047 0.979072 1.23499 0
M  V30 3841 C 369.277 0.664237 1.95631 0
M  V30 3842 C 369.685 -0.772653 1.72704 0
M  V30 3843 O 369.028 -1.53141 1.01457 0
M  V30 3844 C 369.09 0.873115 3.48736 0
M  V30 3845 C 368.754 2.29182 3.95379 0
M  V30 3846 C 369.751 3.2704 4.04155 0
M  V30 3847 C 367.436 2.62256 4.28401 0
M  V30 3848 C 369.43 4.56052 4.45304 0
M  V30 3849 C 367.117 3.91491 4.69231 0
M  V30 3850 C 368.115 4.88201 4.77649 0
M  V30 3851 O 367.803 6.15129 5.17563 0
M  V30 3852 H 367.535 0.245915 0.629684 0
M  V30 3853 H 370.089 1.3127 1.57979 0
M  V30 3854 H 368.319 0.167476 3.86337 0
M  V30 3855 H 370.008 0.555642 4.02079 0
M  V30 3856 H 370.774 3.02819 3.78848 0
M  V30 3857 H 366.653 1.87692 4.21061 0
M  V30 3858 H 370.197 5.31538 4.51789 0
M  V30 3859 H 366.094 4.15508 4.93987 0
M  V30 3860 H 366.862 6.18862 5.35679 0
M  V30 3861 N 369.525 -1.3858 0.750561 0
M  V30 3862 C 370.755 -2.04175 0.31564 0
M  V30 3863 C 371.163 -1.56726 -1.05989 0
M  V30 3864 O 370.506 -0.734225 -1.68389 0
M  V30 3865 C 370.568 -3.58585 0.256389 0
M  V30 3866 C 370.232 -4.29077 1.57296 0
M  V30 3867 C 371.229 -4.54656 2.52159 0
M  V30 3868 C 368.914 -4.67324 1.84156 0
M  V30 3869 C 370.908 -5.17512 3.72103 0
M  V30 3870 C 368.595 -5.29905 3.04374 0
M  V30 3871 C 369.593 -5.54933 3.98168 0
M  V30 3872 O 369.281 -6.16212 5.16273 0
M  V30 3873 H 369.013 -0.662742 0.133226 0
M  V30 3874 H 371.567 -1.78313 1.01948 0
M  V30 3875 H 369.797 -3.83406 -0.503677 0
M  V30 3876 H 371.486 -4.05628 -0.148612 0
M  V30 3877 H 372.252 -4.25539 2.32683 0
M  V30 3878 H 368.131 -4.47191 1.11988 0
M  V30 3879 H 371.675 -5.36963 4.45327 0
M  V30 3880 H 367.572 -5.58444 3.23745 0
M  V30 3881 H 368.34 -6.34701 5.16815 0
M  V30 3882 N 371.003 -0.499398 -1.49478 0
M  V30 3883 C 372.414 -0.051215 -1.8663 0
M  V30 3884 C 372.765 1.36238 -1.41186 0
M  V30 3885 O 371.89 2.01502 -0.789051 0
M  V30 3886 C 372.485 -0.0861651 -3.3869 0
M  V30 3887 C 371.044 0.30667 -3.75149 0
M  V30 3888 C 370.191 -0.459397 -2.73468 0
M  V30 3889 H 373.142 -0.712264 -1.41818 0
M  V30 3890 H 373.163 0.709507 -3.73826 0
M  V30 3891 H 372.675 -1.11512 -3.71735 0
M  V30 3892 H 370.776 1.33892 -3.47712 0
M  V30 3893 H 370.889 -0.0116669 -4.79099 0
M  V30 3894 H 369.253 0.0905645 -2.54539 0
M  V30 3895 H 370.036 -1.4884 -3.09357 0
M  V30 3896 N 372.481 1.55866 -0.233164 0
M  V30 3897 C 373.414 2.16794 0.712442 0
M  V30 3898 C 374.392 1.1158 1.18273 0
M  V30 3899 O 375.576 1.39897 1.26337 0
M  V30 3900 C 372.703 2.75757 1.96661 0
M  V30 3901 C 371.749 3.93902 1.63533 0
M  V30 3902 S 372.582 5.30223 0.74995 0
M  V30 3903 C 373.738 5.92631 2.01343 0
M  V30 3904 H 373.971 2.96662 0.194617 0
M  V30 3905 H 371.504 1.5439 -0.0177425 0
M  V30 3906 H 373.462 3.10367 2.68668 0
M  V30 3907 H 372.123 1.9586 2.45556 0
M  V30 3908 H 371.316 4.33702 2.56747 0
M  V30 3909 H 370.918 3.60499 0.995804 0
M  V30 3910 H 373.21 6.09312 2.96219 0
M  V30 3911 H 374.153 6.88388 1.65915 0
M  V30 3912 H 374.561 5.21571 2.15925 0
M  V30 3913 N 373.959 -0.0401083 1.57549 0
M  V30 3914 C 374.922 -1.02871 2.04817 0
M  V30 3915 C 375.922 -1.29708 0.950388 0
M  V30 3916 O 377.112 -1.24897 1.21435 0
M  V30 3917 C 374.244 -2.36443 2.45576 0
M  V30 3918 H 375.437 -0.620631 2.93408 0
M  V30 3919 H 372.99 -0.286667 1.53649 0
M  V30 3920 H 373.725 -2.82021 1.60108 0
M  V30 3921 H 373.51 -2.18296 3.25713 0
M  V30 3922 H 375 -3.07441 2.82612 0
M  V30 3923 N 375.437 -1.54477 -0.31217 0
M  V30 3924 C 376.685 -1.72884 -1.04668 0
M  V30 3925 C 377.006 -0.511477 -1.88173 0
M  V30 3926 O 376.276 0.474407 -1.90069 0
M  V30 3927 H 374.856 -0.637461 -0.389425 0
M  V30 3928 H 377.518 -1.91807 -0.345852 0
M  V30 3929 H 376.614 -2.61334 -1.70619 0
M  V30 3930 N 376.915 0.57481 -1.46744 0
M  V30 3931 C 378.143 1.35856 -1.56047 0
M  V30 3932 C 378.558 1.87691 -0.204365 0
M  V30 3933 O 377.915 1.64049 0.79963 0
M  V30 3934 C 377.966 2.54066 -2.57163 0
M  V30 3935 O 377.687 2.04377 -3.87507 0
M  V30 3936 C 379.188 3.46514 -2.76483 0
M  V30 3937 H 376.408 0.414754 -0.527466 0
M  V30 3938 H 378.952 0.698035 -1.92218 0
M  V30 3939 H 377.107 3.16092 -2.23974 0
M  V30 3940 H 377.521 2.81419 -4.4261 0
M  V30 3941 H 378.995 4.25919 -3.51137 0
M  V30 3942 H 379.472 3.98951 -1.83671 0
M  V30 3943 H 380.078 2.90318 -3.10799 0
M  V30 3944 N 378.394 1.34581 0.820102 0
M  V30 3945 C 379.805 1.24298 1.39309 0
M  V30 3946 C 380.156 -0.130351 1.95767 0
M  V30 3947 O 379.281 -1.0308 1.90272 0
M  V30 3948 C 379.876 2.25054 2.53251 0
M  V30 3949 C 378.435 2.18552 3.0645 0
M  V30 3950 C 377.582 2.11503 1.79337 0
M  V30 3951 H 380.533 1.45906 0.624262 0
M  V30 3952 H 380.554 1.86917 3.31425 0
M  V30 3953 H 380.066 3.24996 2.1213 0
M  V30 3954 H 378.167 1.21976 3.52069 0
M  V30 3955 H 378.28 3.0993 3.65349 0
M  V30 3956 H 376.644 1.57268 2.00347 0
M  V30 3957 H 377.427 3.13284 1.40386 0
M  V30 3958 N 379.872 -1.04064 1.18357 0
M  V30 3959 C 381.097 -1.81454 1.00445 0
M  V30 3960 C 381.522 -1.82823 -0.442423 0
M  V30 3961 O 380.88 -1.24555 -1.31741 0
M  V30 3962 C 380.928 -3.24925 1.56384 0
M  V30 3963 O 380.032 -4.04856 0.785209 0
M  V30 3964 H 379.373 -0.560604 0.355835 0
M  V30 3965 H 381.903 -1.31059 1.57114 0
M  V30 3966 H 381.913 -3.75702 1.59097 0
M  V30 3967 H 380.588 -3.23244 2.61699 0
M  V30 3968 H 379.165 -3.63537 0.830399 0
M  V30 3969 N 381.35 -0.985608 -1.22978 0
M  V30 3970 C 382.3 -0.50118 -2.22423 0
M  V30 3971 C 383.284 0.426649 -1.5514 0
M  V30 3972 O 384.476 0.254656 -1.75159 0
M  V30 3973 C 381.605 0.190003 -3.42774 0
M  V30 3974 C 380.691 -0.757703 -4.17276 0
M  V30 3975 N 381.082 -1.90251 -4.68656 0
M  V30 3976 C 379.38 -0.57209 -4.42316 0
M  V30 3977 C 380.081 -2.49676 -5.25392 0
M  V30 3978 N 379.057 -1.78013 -5.13627 0
M  V30 3979 H 382.859 -1.37441 -2.59783 0
M  V30 3980 H 380.373 -0.846941 -1.38567 0
M  V30 3981 H 382.37 0.55439 -4.13197 0
M  V30 3982 H 381.03 1.05946 -3.06929 0
M  V30 3983 H 382.041 -2.28354 -4.64839 0
M  V30 3984 H 378.718 0.251909 -4.16739 0
M  V30 3985 H 380.108 -3.46384 -5.75732 0
M  V30 3986 N 382.828 1.3818 -0.7579 0
M  V30 3987 C 383.778 2.27741 -0.108674 0
M  V30 3988 C 384.762 1.45415 0.688709 0
M  V30 3989 O 385.954 1.68108 0.553956 0
M  V30 3990 C 383.083 3.34313 0.780367 0
M  V30 3991 C 382.169 4.24093 -0.0240977 0
M  V30 3992 N 382.56 4.9451 -1.06271 0
M  V30 3993 C 380.858 4.45542 0.202049 0
M  V30 3994 C 381.559 5.60675 -1.54979 0
M  V30 3995 N 380.535 5.36684 -0.864348 0
M  V30 3996 H 384.337 2.79649 -0.904071 0
M  V30 3997 H 381.851 1.51133 -0.594346 0
M  V30 3998 H 383.848 3.97368 1.26114 0
M  V30 3999 H 382.508 2.83962 1.57467 0
M  V30 4000 H 383.519 4.97345 -1.44459 0
M  V30 4001 H 380.196 4.06091 0.96935 0
M  V30 4002 H 381.586 6.26992 -2.41517 0
M  V30 4003 N 384.306 0.507319 1.49211 0
M  V30 4004 C 385.552 -0.0350047 2.0277 0
M  V30 4005 C 385.885 -1.3606 1.38569 0
M  V30 4006 O 385.16 -1.87321 0.523542 0
M  V30 4007 C 385.443 -0.180916 3.59645 0
M  V30 4008 C 385.296 1.16825 4.34364 0
M  V30 4009 C 386.615 -0.918558 4.30407 0
M  V30 4010 H 383.734 -0.0112473 0.736914 0
M  V30 4011 H 386.376 0.659956 1.7817 0
M  V30 4012 H 384.526 -0.772826 3.80736 0
M  V30 4013 H 386.198 1.79952 4.24753 0
M  V30 4014 H 384.441 1.75594 3.96673 0
M  V30 4015 H 385.112 1.01939 5.42506 0
M  V30 4016 H 387.588 -0.41649 4.1401 0
M  V30 4017 H 386.464 -0.989505 5.39907 0
M  V30 4018 H 386.725 -1.96373 3.96093 0
M  V30 4019 N 385.784 -1.5574 0.241426 0
M  V30 4020 C 387.012 -2.03208 -0.389134 0
M  V30 4021 C 387.427 -1.12082 -1.51931 0
M  V30 4022 O 386.784 -0.134183 -1.82006 0
M  V30 4023 C 386.835 -3.50064 -0.902087 0
M  V30 4024 O 386.556 -4.37717 0.18305 0
M  V30 4025 C 388.057 -4.13268 -1.60389 0
M  V30 4026 H 385.277 -0.664509 -0.0931053 0
M  V30 4027 H 387.821 -2.0124 0.36369 0
M  V30 4028 H 385.976 -3.52583 -1.60511 0
M  V30 4029 H 386.39 -5.24097 -0.205579 0
M  V30 4030 H 387.864 -5.17733 -1.91458 0
M  V30 4031 H 388.341 -3.59434 -2.52397 0
M  V30 4032 H 388.947 -4.14655 -0.945576 0
M  V30 4033 N 387.262 0.0317525 -1.57568 0
M  V30 4034 C 388.508 0.724175 -1.8943 0
M  V30 4035 C 388.841 1.75149 -0.838836 0
M  V30 4036 O 388.116 1.93948 0.146422 0
M  V30 4037 C 388.399 1.39615 -3.31933 0
M  V30 4038 C 388.252 0.382537 -4.4817 0
M  V30 4039 C 389.571 2.33084 -3.73309 0
M  V30 4040 H 386.69 0.261797 -0.688935 0
M  V30 4041 H 389.332 -0.013017 -1.89996 0
M  V30 4042 H 387.482 2.02451 -3.31581 0
M  V30 4043 H 389.154 -0.243689 -4.60656 0
M  V30 4044 H 387.397 -0.29844 -4.32772 0
M  V30 4045 H 388.068 0.891145 -5.44759 0
M  V30 4046 H 390.544 1.80295 -3.7501 0
M  V30 4047 H 389.42 2.77084 -4.73831 0
M  V30 4048 H 389.681 3.19643 -3.05419 0
M  V30 4049 N 388.74 1.54641 0.303973 0
M  V30 4050 C 389.988 1.73437 1.0375 0
M  V30 4051 C 390.309 0.521449 1.87899 0
M  V30 4052 O 389.579 -0.46432 1.90318 0
M  V30 4053 H 388.159 0.639518 0.386039 0
M  V30 4054 H 390.821 1.91988 0.335675 0
M  V30 4055 H 389.917 2.62235 1.69231 0
M  V30 4056 N 390.218 -0.567019 1.47046 0
M  V30 4057 C 391.467 -1.32091 1.5243 0
M  V30 4058 C 391.78 -1.94704 0.187021 0
M  V30 4059 O 392.986 -2.7124 0.118771 0
M  V30 4060 C 391.442 -2.39479 2.68659 0
M  V30 4061 C 391.05 -1.831 4.08874 0
M  V30 4062 C 392.794 -3.16111 2.83327 0
M  V30 4063 C 390.701 -2.8821 5.16419 0
M  V30 4064 H 389.631 -0.496629 0.56734 0
M  V30 4065 H 392.282 -0.603354 1.73297 0
M  V30 4066 H 390.664 -3.14105 2.41152 0
M  V30 4067 H 391.838 -1.14913 4.46242 0
M  V30 4068 H 390.153 -1.19085 3.99008 0
M  V30 4069 H 392.75 -3.94585 3.60842 0
M  V30 4070 H 393.093 -3.69686 1.91411 0
M  V30 4071 H 393.626 -2.48595 3.10556 0
M  V30 4072 H 390.365 -2.39504 6.10179 0
M  V30 4073 H 389.885 -3.54839 4.8358 0
M  V30 4074 H 391.564 -3.51881 5.42945 0
M  V30 4075 N 391.696 -1.35014 -0.812953 0
M  V30 4076 C 392.926 -1.30841 -1.59888 0
M  V30 4077 C 393.334 0.117576 -1.88834 0
M  V30 4078 O 392.677 1.07807 -1.48739 0
M  V30 4079 C 392.739 -2.0412 -2.95931 0
M  V30 4080 C 392.403 -3.53336 -2.89832 0
M  V30 4081 C 393.4 -4.48052 -2.63714 0
M  V30 4082 C 391.085 -3.95894 -3.0915 0
M  V30 4083 C 393.079 -5.833 -2.56982 0
M  V30 4084 C 390.766 -5.31239 -3.0204 0
M  V30 4085 C 391.764 -6.24754 -2.75991 0
M  V30 4086 O 391.452 -7.57617 -2.68833 0
M  V30 4087 H 391.184 -0.451215 -0.50337 0
M  V30 4088 H 393.738 -1.78354 -1.01877 0
M  V30 4089 H 391.968 -1.51235 -3.559 0
M  V30 4090 H 393.657 -1.93107 -3.57022 0
M  V30 4091 H 394.423 -4.16492 -2.48515 0
M  V30 4092 H 390.302 -3.23495 -3.28438 0
M  V30 4093 H 393.846 -6.56263 -2.36569 0
M  V30 4094 H 389.743 -5.62415 -3.16796 0
M  V30 4095 H 390.511 -7.67469 -2.84487 0
M  V30 4096 N 393.175 1.03435 -1.18907 0
M  V30 4097 C 394.125 2.09924 -0.889706 0
M  V30 4098 C 395.109 1.60261 0.143216 0
M  V30 4099 O 396.301 1.76892 -0.0617122 0
M  V30 4100 C 393.43 3.40669 -0.424168 0
M  V30 4101 C 392.516 3.97082 -1.48952 0
M  V30 4102 N 392.907 4.27227 -2.70759 0
M  V30 4103 C 391.205 4.25029 -1.35152 0
M  V30 4104 C 391.906 4.7246 -3.39347 0
M  V30 4105 N 390.882 4.7366 -2.66735 0
M  V30 4106 H 394.684 2.31116 -1.81555 0
M  V30 4107 H 392.198 1.21246 -1.08042 0
M  V30 4108 H 394.195 4.16461 -0.191176 0
M  V30 4109 H 392.855 3.20901 0.495263 0
M  V30 4110 H 393.866 4.16678 -3.0757 0
M  V30 4111 H 390.543 4.14554 -0.495126 0
M  V30 4112 H 391.933 5.04751 -4.43481 0
M  V30 4113 N 394.653 0.992116 1.22453 0
M  V30 4114 C 395.583 0.561677 2.26644 0
M  V30 4115 C 396.564 -0.411055 1.65059 0
M  V30 4116 O 397.749 -0.301861 1.9184 0
M  V30 4117 C 394.879 -0.125247 3.47074 0
M  V30 4118 C 393.833 0.765948 4.21091 0
M  V30 4119 C 393.159 -0.0538484 5.34673 0
M  V30 4120 C 394.459 2.06242 4.79856 0
M  V30 4121 H 396.153 1.43259 2.62902 0
M  V30 4122 H 393.699 0.690283 1.26377 0
M  V30 4123 H 395.652 -0.437764 4.1912 0
M  V30 4124 H 394.376 -1.03069 3.0991 0
M  V30 4125 H 393.035 1.0621 3.50878 0
M  V30 4126 H 392.683 -0.960188 4.9375 0
M  V30 4127 H 392.383 0.539415 5.85119 0
M  V30 4128 H 393.907 -0.360477 6.09535 0
M  V30 4129 H 395.321 1.8139 5.43848 0
M  V30 4130 H 393.718 2.60444 5.40638 0
M  V30 4131 H 394.788 2.74167 3.99951 0
M  V30 4132 N 396.131 -1.37776 0.765217 0
M  V30 4133 C 397.094 -2.28686 0.153416 0
M  V30 4134 C 398.094 -1.47727 -0.635081 0
M  V30 4135 O 399.284 -1.68027 -0.459632 0
M  V30 4136 C 396.416 -3.31608 -0.790495 0
M  V30 4137 H 397.609 -2.84297 0.954723 0
M  V30 4138 H 395.162 -1.46932 0.53299 0
M  V30 4139 H 395.897 -2.81109 -1.61705 0
M  V30 4140 H 395.682 -3.9144 -0.227348 0
M  V30 4141 H 397.172 -3.99559 -1.21419 0
M  V30 4142 N 397.609 -0.515225 -1.4894 0
M  V30 4143 C 398.837 0.0206034 -2.0689 0
M  V30 4144 C 399.252 1.29514 -1.37374 0
M  V30 4145 O 398.609 1.76698 -0.456529 0
M  V30 4146 C 398.66 0.26351 -3.60538 0
M  V30 4147 O 398.381 -0.960517 -4.27441 0
M  V30 4148 C 399.882 0.841383 -4.35242 0
M  V30 4149 H 397.102 -0.0268608 -0.670462 0
M  V30 4150 H 399.646 -0.716651 -1.91532 0
M  V30 4151 H 397.801 0.950777 -3.75552 0
M  V30 4152 H 398.215 -0.73212 -5.19365 0
M  V30 4153 H 399.689 0.96085 -5.43573 0
M  V30 4154 H 400.166 1.8427 -3.98674 0
M  V30 4155 H 400.772 0.191143 -4.2487 0
M  V30 4156 N 399.087 1.5561 -0.249682 0
M  V30 4157 C 400.335 1.98618 0.373548 0
M  V30 4158 C 400.656 1.13919 1.58264 0
M  V30 4159 O 399.926 0.222637 1.94631 0
M  V30 4160 H 398.506 0.733571 0.141006 0
M  V30 4161 H 401.168 1.91748 -0.349117 0
M  V30 4162 H 400.264 3.04584 0.680796 0
M  V30 4163 N 400.565 -0.0233959 1.57583 0
M  V30 4164 C 401.512 -1.02224 2.06927 0
M  V30 4165 C 402.482 -1.35575 0.959617 0
M  V30 4166 O 403.667 -1.45815 1.23055 0
M  V30 4167 C 400.807 -2.31636 2.5581 0
M  V30 4168 C 399.92 -2.04394 3.80588 0
M  V30 4169 C 399.055 -3.27717 4.18061 0
M  V30 4170 C 398.094 -2.96056 5.3574 0
M  V30 4171 N 397.231 -4.11847 5.68618 0
M  V30 4172 H 402.071 -0.594504 2.9201 0
M  V30 4173 H 399.608 -0.281921 1.44373 0
M  V30 4174 H 401.566 -3.07258 2.82221 0
M  V30 4175 H 400.196 -2.72122 1.73636 0
M  V30 4176 H 399.248 -1.19244 3.61227 0
M  V30 4177 H 400.56 -1.77042 4.66323 0
M  V30 4178 H 399.714 -4.11702 4.4563 0
M  V30 4179 H 398.453 -3.58188 3.30988 0
M  V30 4180 H 397.458 -2.10474 5.07918 0
M  V30 4181 H 398.683 -2.66857 6.24471 0
M  V30 4182 H 396.629 -4.42258 4.84504 0
M  V30 4183 H 396.546 -3.87938 6.48876 0
M  V30 4184 H 397.814 -4.96689 6.00766 0
M  V30 4185 N 402.043 -1.548 -0.295768 0
M  V30 4186 C 403.271 -1.78327 -1.04914 0
M  V30 4187 C 403.686 -0.545316 -1.80753 0
M  V30 4188 O 403.043 0.485013 -1.75937 0
M  V30 4189 C 403.094 -2.99418 -2.02561 0
M  V30 4190 O 402.815 -4.18431 -1.29798 0
M  V30 4191 C 404.316 -3.35375 -2.89895 0
M  V30 4192 H 401.536 -0.594618 -0.310918 0
M  V30 4193 H 404.08 -2.01763 -0.333454 0
M  V30 4194 H 402.235 -2.78175 -2.69624 0
M  V30 4195 H 402.649 -4.86736 -1.95419 0
M  V30 4196 H 404.123 -4.23332 -3.54251 0
M  V30 4197 H 404.6 -2.53761 -3.58472 0
M  V30 4198 H 405.206 -3.58796 -2.28355 0
M  V30 4199 N 403.521 0.559213 -1.47345 0
M  V30 4200 C 404.767 1.31843 -1.54095 0
M  V30 4201 C 405.1 1.93149 -0.201726 0
M  V30 4202 O 404.375 1.77759 0.789428 0
M  V30 4203 C 404.658 2.43006 -2.65744 0
M  V30 4204 C 404.511 1.86581 -4.09277 0
M  V30 4205 C 405.83 3.44943 -2.73318 0
M  V30 4206 H 402.949 0.478012 -0.560957 0
M  V30 4207 H 405.591 0.625977 -1.79392 0
M  V30 4208 H 403.741 3.02072 -2.44305 0
M  V30 4209 H 405.413 1.31792 -4.42073 0
M  V30 4210 H 403.656 1.17268 -4.17649 0
M  V30 4211 H 404.327 2.66933 -4.83168 0
M  V30 4212 H 406.803 2.95793 -2.92653 0
M  V30 4213 H 405.679 4.20153 -3.53218 0
M  V30 4214 H 405.94 4.03665 -1.80296 0
M  V30 4215 N 404.999 1.35443 0.805782 0
M  V30 4216 C 406.229 1.31687 1.59192 0
M  V30 4217 C 406.637 -0.10756 1.88894 0
M  V30 4218 O 405.98 -1.07017 1.49309 0
M  V30 4219 C 406.042 2.05686 2.94845 0
M  V30 4220 C 405.706 3.54868 2.87954 0
M  V30 4221 C 406.703 4.49444 2.61335 0
M  V30 4222 C 404.388 3.97528 3.07046 0
M  V30 4223 C 406.382 5.84655 2.53885 0
M  V30 4224 C 404.069 5.32833 2.99219 0
M  V30 4225 C 405.067 6.26209 2.72674 0
M  V30 4226 O 404.755 7.59032 2.64811 0
M  V30 4227 H 404.487 0.453878 0.50097 0
M  V30 4228 H 407.041 1.78892 1.0093 0
M  V30 4229 H 405.271 1.5312 3.55093 0
M  V30 4230 H 406.96 1.94998 3.55993 0
M  V30 4231 H 407.726 4.17804 2.46303 0
M  V30 4232 H 403.605 3.25233 3.26718 0
M  V30 4233 H 407.149 6.57508 2.33086 0
M  V30 4234 H 403.046 5.64087 3.13809 0
M  V30 4235 H 403.814 7.68967 2.80413 0
M  V30 4236 N 406.477 -1.02803 1.19454 0
M  V30 4237 C 407.407 -2.12999 0.956758 0
M  V30 4238 C 408.388 -1.69743 -0.110188 0
M  V30 4239 O 409.573 -1.94148 0.0450038 0
M  V30 4240 C 406.703 -3.43746 0.495553 0
M  V30 4241 C 405.657 -4.00688 1.50443 0
M  V30 4242 C 404.983 -5.27067 0.900275 0
M  V30 4243 C 406.283 -4.35397 2.8849 0
M  V30 4244 H 407.977 -2.33148 1.87836 0
M  V30 4245 H 405.523 -1.12045 0.904539 0
M  V30 4246 H 407.476 -4.2021 0.316493 0
M  V30 4247 H 406.2 -3.23321 -0.461646 0
M  V30 4248 H 404.859 -3.2632 1.67065 0
M  V30 4249 H 404.507 -5.02959 -0.064503 0
M  V30 4250 H 404.207 -5.66127 1.57397 0
M  V30 4251 H 405.731 -6.06196 0.73203 0
M  V30 4252 H 407.145 -5.02795 2.75446 0
M  V30 4253 H 405.542 -4.85541 3.52661 0
M  V30 4254 H 406.612 -3.44662 3.41081 0
M  V30 4255 N 407.956 -0.998596 -1.21925 0
M  V30 4256 C 408.888 -0.511879 -2.23411 0
M  V30 4257 C 409.901 0.396094 -1.57908 0
M  V30 4258 O 411.09 0.197316 -1.77406 0
M  V30 4259 C 408.19 0.276802 -3.37768 0
M  V30 4260 C 407.363 -0.628687 -4.32858 0
M  V30 4261 C 406.422 0.109272 -5.26087 0
M  V30 4262 O 405.448 -0.507237 -5.66935 0
M  V30 4263 N 406.65 1.38983 -5.63617 0
M  V30 4264 H 409.415 -1.38457 -2.658 0
M  V30 4265 H 406.976 -0.873981 -1.36283 0
M  V30 4266 H 408.968 0.77928 -3.97126 0
M  V30 4267 H 407.538 1.05063 -2.94415 0
M  V30 4268 H 406.758 -1.31175 -3.71735 0
M  V30 4269 H 408.046 -1.24514 -4.93329 0
M  V30 4270 H 407.444 1.91194 -5.32411 0
M  V30 4271 H 406.001 1.83739 -6.25367 0
M  V30 4272 N 409.434 1.37368 -0.772513 0
M  V30 4273 C 410.662 2.03942 -0.348588 0
M  V30 4274 C 411.077 1.58264 1.02947 0
M  V30 4275 O 410.434 0.764246 1.65727 0
M  V30 4276 C 410.485 3.5946 -0.38351 0
M  V30 4277 O 410.206 4.03468 -1.70721 0
M  V30 4278 C 411.707 4.4327 0.0519152 0
M  V30 4279 H 408.927 0.654931 -0.145966 0
M  V30 4280 H 411.471 1.75686 -1.04665 0
M  V30 4281 H 409.626 3.86486 0.265978 0
M  V30 4282 H 410.04 4.97991 -1.64636 0
M  V30 4283 H 411.514 5.51995 -0.0236733 0
M  V30 4284 H 411.991 4.2514 1.10238 0
M  V30 4285 H 412.597 4.21471 -0.569415 0
M  V30 4286 N 410.912 0.523116 1.48665 0
M  V30 4287 C 412.16 -0.0134497 2.02096 0
M  V30 4288 C 412.481 -1.35418 1.40311 0
M  V30 4289 O 411.751 -1.87543 0.566074 0
M  V30 4290 H 410.331 -0.00795915 0.746958 0
M  V30 4291 H 412.993 0.685388 1.82451 0
M  V30 4292 H 412.089 -0.126849 3.11842 0
M  V30 4293 N 412.39 -1.55475 0.257931 0
M  V30 4294 C 413.3 -2.2549 -0.647425 0
M  V30 4295 C 414.316 -1.2748 -1.18427 0
M  V30 4296 O 415.492 -1.6038 -1.2182 0
M  V30 4297 C 412.557 -2.94916 -1.82278 0
M  V30 4298 C 411.618 -4.08363 -1.32432 0
M  V30 4299 C 410.851 -4.74469 -2.44366 0
M  V30 4300 O 411.074 -4.39701 -3.63344 0
M  V30 4301 O 410.008 -5.62763 -2.13497 0
M  V30 4302 H 413.834 -3.03593 -0.0807707 0
M  V30 4303 H 411.419 -1.49377 0.0259962 0
M  V30 4304 H 413.301 -3.38606 -2.50846 0
M  V30 4305 H 411.976 -2.19744 -2.37685 0
M  V30 4306 H 410.883 -3.69166 -0.605605 0
M  V30 4307 H 412.216 -4.85385 -0.816211 0
M  V30 4308 N 413.868 0.0150385 -1.57593 0
M  V30 4309 C 415.279 0.559832 -1.78109 0
M  V30 4310 C 415.63 1.74814 -0.890756 0
M  V30 4311 O 414.755 2.16216 -0.0892482 0
M  V30 4312 C 415.35 1.02238 -3.23006 0
M  V30 4313 C 413.909 1.51258 -3.44671 0
M  V30 4314 C 413.056 0.456955 -2.73509 0
M  V30 4315 H 416.007 -0.211169 -1.57289 0
M  V30 4316 H 416.028 1.88912 -3.30292 0
M  V30 4317 H 415.54 0.157302 -3.87781 0
M  V30 4318 H 413.641 2.39905 -2.8509 0
M  V30 4319 H 413.754 1.55042 -4.5332 0
M  V30 4320 H 412.118 0.915196 -2.37689 0
M  V30 4321 H 412.901 -0.398896 -3.40975 0
M  V30 4322 N 415.346 1.54954 0.287554 0
M  V30 4323 C 416.293 1.86834 1.35505 0
M  V30 4324 C 417.263 0.718452 1.49758 0
M  V30 4325 O 418.448 0.968358 1.644 0
M  V30 4326 C 415.588 2.13303 2.71286 0
M  V30 4327 C 414.701 3.40883 2.65373 0
M  V30 4328 C 413.836 3.57125 3.93236 0
M  V30 4329 C 412.875 4.78449 3.81776 0
M  V30 4330 N 412.012 4.91426 5.01443 0
M  V30 4331 H 416.852 2.77889 1.07619 0
M  V30 4332 H 414.389 1.37593 0.520241 0
M  V30 4333 H 416.347 2.26646 3.50267 0
M  V30 4334 H 414.977 1.25499 2.97405 0
M  V30 4335 H 414.029 3.36088 1.78182 0
M  V30 4336 H 415.341 4.29993 2.52799 0
M  V30 4337 H 414.495 3.70207 4.80658 0
M  V30 4338 H 413.234 2.66173 4.0866 0
M  V30 4339 H 412.239 4.65386 2.92738 0
M  V30 4340 H 413.464 5.70822 3.67884 0
M  V30 4341 H 411.41 4.03401 5.17304 0
M  V30 4342 H 411.327 5.74559 4.91343 0
M  V30 4343 H 412.595 5.08879 5.90477 0
M  V30 4344 N 416.824 -0.551391 1.4764 0
M  V30 4345 C 417.734 -1.68525 1.63207 0
M  V30 4346 C 418.75 -1.6621 0.514815 0
M  V30 4347 O 419.926 -1.85551 0.783113 0
M  V30 4348 C 416.991 -3.05025 1.64805 0
M  V30 4349 C 416.052 -3.18362 2.88 0
M  V30 4350 C 415.285 -4.4835 2.89513 0
M  V30 4351 O 415.508 -5.34163 2.00065 0
M  V30 4352 O 414.442 -4.65602 3.81443 0
M  V30 4353 H 418.268 -1.58333 2.59161 0
M  V30 4354 H 415.853 -0.722063 1.30792 0
M  V30 4355 H 417.735 -3.86245 1.68502 0
M  V30 4356 H 416.41 -3.15587 0.720197 0
M  V30 4357 H 415.317 -2.36518 2.89845 0
M  V30 4358 H 416.65 -3.12707 3.80099 0
M  V30 4359 N 418.302 -1.35869 -0.798587 0
M  V30 4360 C 419.249 -1.29446 -1.91082 0
M  V30 4361 C 420.219 -0.16487 -1.6528 0
M  V30 4362 O 421.404 -0.349888 -1.87564 0
M  V30 4363 C 418.544 -1.0804 -3.27752 0
M  V30 4364 C 417.657 -2.29993 -3.65687 0
M  V30 4365 C 416.792 -2.01673 -4.91428 0
M  V30 4366 C 415.831 -3.19636 -5.22015 0
M  V30 4367 N 414.968 -2.91039 -6.38937 0
M  V30 4368 H 419.808 -2.24553 -1.95907 0
M  V30 4369 H 417.345 -1.11615 -0.958148 0
M  V30 4370 H 419.303 -0.936586 -4.06551 0
M  V30 4371 H 417.933 -0.16592 -3.22373 0
M  V30 4372 H 416.985 -2.55211 -2.82085 0
M  V30 4373 H 418.297 -3.18052 -3.84245 0
M  V30 4374 H 417.451 -1.84168 -5.78072 0
M  V30 4375 H 416.19 -1.10911 -4.74921 0
M  V30 4376 H 415.195 -3.37709 -4.33858 0
M  V30 4377 H 416.42 -4.11211 -5.40447 0
M  V30 4378 H 414.366 -2.0288 -6.2384 0
M  V30 4379 H 414.283 -3.72635 -6.57784 0
M  V30 4380 H 415.551 -2.77093 -7.28587 0
M  V30 4381 N 419.78 1.02168 -1.19998 0
M  V30 4382 C 421.027 1.75685 -1.00702 0
M  V30 4383 C 421.355 1.88947 0.461426 0
M  V30 4384 O 420.61 1.40832 1.35885 0
M  V30 4385 C 420.909 3.18081 -1.62969 0
M  V30 4386 C 420.575 3.24809 -3.12746 0
M  V30 4387 C 419.237 3.26352 -3.53621 0
M  V30 4388 C 421.589 3.23379 -4.08749 0
M  V30 4389 C 418.917 3.2413 -4.89036 0
M  V30 4390 C 421.269 3.22698 -5.44104 0
M  V30 4391 C 419.933 3.22542 -5.84399 0
M  V30 4392 H 419.203 0.642877 -0.368496 0
M  V30 4393 H 421.85 1.19865 -1.49348 0
M  V30 4394 H 420.155 3.77027 -1.06573 0
M  V30 4395 H 421.852 3.73648 -1.45561 0
M  V30 4396 H 418.442 3.2434 -2.80181 0
M  V30 4397 H 422.626 3.21361 -3.78207 0
M  V30 4398 H 417.882 3.22338 -5.19527 0
M  V30 4399 H 422.056 3.20543 -6.18244 0
M  V30 4400 H 419.683 3.20575 -6.89301 0
M  V30 4401 N 421.258 1.00505 1.21394 0
M  V30 4402 C 422.188 0.585684 2.26035 0
M  V30 4403 C 423.169 -0.393525 1.65485 0
M  V30 4404 O 424.354 -0.281497 1.92149 0
M  V30 4405 C 421.484 -0.0884283 3.47187 0
M  V30 4406 C 420.438 0.810567 4.20254 0
M  V30 4407 C 419.764 0.00286382 5.347 0
M  V30 4408 C 421.064 2.1132 4.77641 0
M  V30 4409 H 422.758 1.46039 2.61368 0
M  V30 4410 H 420.304 0.703648 1.25638 0
M  V30 4411 H 422.257 -0.393286 4.19561 0
M  V30 4412 H 420.981 -0.997766 3.10986 0
M  V30 4413 H 419.64 1.09925 3.49731 0
M  V30 4414 H 419.288 -0.907765 4.94741 0
M  V30 4415 H 418.988 0.601444 5.84514 0
M  V30 4416 H 420.512 -0.295808 6.09883 0
M  V30 4417 H 421.926 1.87148 5.41893 0
M  V30 4418 H 420.323 2.66164 5.37845 0
M  V30 4419 H 421.393 2.78393 3.9702 0
M  V30 4420 N 422.737 -1.36956 0.779787 0
M  V30 4421 C 423.965 -2.03755 0.359398 0
M  V30 4422 C 424.38 -1.58807 -1.02106 0
M  V30 4423 O 423.737 -0.773024 -1.6532 0
M  V30 4424 C 423.788 -3.59251 0.402568 0
M  V30 4425 O 423.509 -4.02557 1.72858 0
M  V30 4426 C 425.01 -4.43291 -0.0284068 0
M  V30 4427 H 422.23 -0.654148 0.149437 0
M  V30 4428 H 424.774 -1.75128 1.05595 0
M  V30 4429 H 422.929 -3.86621 -0.245478 0
M  V30 4430 H 423.343 -4.97111 1.67275 0
M  V30 4431 H 424.817 -5.51975 0.0529466 0
M  V30 4432 H 425.294 -4.25719 -1.07982 0
M  V30 4433 H 425.9 -4.21163 0.591758 0
M  V30 4434 N 424.215 -0.530993 -1.48385 0
M  V30 4435 C 425.163 0.244595 -2.3131 0
M  V30 4436 C 426.157 0.93451 -1.41291 0
M  V30 4437 O 427.363 0.85878 -1.58193 0
M  V30 4438 H 423.738 0.0977472 -0.74562 0
M  V30 4439 H 425.709 -0.474369 -2.94605 0
M  V30 4440 C 424.458 1.2779 -3.23365 0
M  V30 4441 H 423.781 0.756439 -3.92579 0
M  V30 4442 H 425.221 1.79198 -3.84271 0
M  V30 4443 C 423.68 2.31205 -2.45042 0
M  V30 4444 O 424.21 3.37661 -2.17596 0
M  V30 4445 N 422.416 2.04446 -2.0652 0
M  V30 4446 H 421.963 1.17891 -2.2904 0
M  V30 4447 H 421.921 2.73861 -1.54427 0
M  V30 4448 N 425.693 1.55336 -0.266172 0
M  V30 4449 C 426.623 2.25146 0.618981 0
M  V30 4450 C 427.604 1.23845 1.16604 0
M  V30 4451 O 428.789 1.52544 1.20183 0
M  V30 4452 C 425.919 2.96572 1.80728 0
M  V30 4453 C 424.873 4.04726 1.39215 0
M  V30 4454 C 424.199 4.63678 2.66283 0
M  V30 4455 C 425.499 5.19407 0.548942 0
M  V30 4456 H 427.193 2.99377 0.0368116 0
M  V30 4457 H 424.739 1.43991 0.0162651 0
M  V30 4458 H 426.692 3.44116 2.43232 0
M  V30 4459 H 425.416 2.19861 2.41514 0
M  V30 4460 H 424.075 3.57979 0.790351 0
M  V30 4461 H 423.723 3.83646 3.25308 0
M  V30 4462 H 423.423 5.367 2.39222 0
M  V30 4463 H 424.947 5.13967 3.29651 0
M  V30 4464 H 426.361 5.63059 1.07876 0
M  V30 4465 H 424.758 5.98936 0.373593 0
M  V30 4466 H 425.828 4.8295 -0.434394 0
M  V30 4467 N 427.171 -0.0066808 1.57599 0
M  V30 4468 C 428.396 -0.707738 1.94951 0
M  V30 4469 C 428.821 -1.66882 0.867868 0
M  V30 4470 O 428.179 -1.80457 -0.17458 0
M  V30 4471 C 428.227 -1.42162 3.31394 0
M  V30 4472 O 427.331 -2.53578 3.25226 0
M  V30 4473 H 426.672 -0.188752 0.636607 0
M  V30 4474 H 429.202 0.0445193 2.04552 0
M  V30 4475 H 429.212 -1.78655 3.66806 0
M  V30 4476 H 427.887 -0.716903 4.09675 0
M  V30 4477 H 426.464 -2.19463 3.01481 0
M  V30 4478 N 428.649 -1.55105 -0.279332 0
M  V30 4479 C 429.895 -1.76597 -1.00921 0
M  V30 4480 C 430.25 -0.556831 -1.84166 0
M  V30 4481 O 429.543 0.450573 -1.86227 0
M  V30 4482 C 429.737 -3.0086 -1.92919 0
M  V30 4483 C 429.566 -4.33744 -1.18728 0
M  V30 4484 C 428.336 -4.9712 -0.905545 0
M  V30 4485 C 430.534 -5.11009 -0.580857 0
M  V30 4486 N 428.516 -6.13749 -0.136169 0
M  V30 4487 C 429.887 -6.19976 0.0546661 0
M  V30 4488 C 431.942 -4.95502 -0.488067 0
M  V30 4489 C 430.645 -7.15123 0.774028 0
M  V30 4490 C 432.671 -5.90999 0.217688 0
M  V30 4491 C 432.033 -6.9935 0.841975 0
M  V30 4492 H 428.132 -0.698553 -0.351493 0
M  V30 4493 H 430.716 -1.92595 -0.285531 0
M  V30 4494 H 428.887 -2.86249 -2.62519 0
M  V30 4495 H 430.619 -3.10784 -2.59221 0
M  V30 4496 H 427.374 -4.57903 -1.20921 0
M  V30 4497 H 427.798 -6.7659 0.235665 0
M  V30 4498 H 432.44 -4.11841 -0.956406 0
M  V30 4499 H 430.158 -7.9831 1.25407 0
M  V30 4500 H 433.744 -5.81078 0.289717 0
M  V30 4501 H 432.624 -7.71973 1.37939 0
M  V30 4502 N 430.127 0.543554 -1.4793 0
M  V30 4503 C 431.352 1.32995 -1.59145 0
M  V30 4504 C 431.777 1.86472 -0.246956 0
M  V30 4505 O 431.135 1.63696 0.779324 0
M  V30 4506 C 431.183 2.46623 -2.63077 0
M  V30 4507 O 430.287 3.49261 -2.19295 0
M  V30 4508 H 429.628 0.394472 -0.534124 0
M  V30 4509 H 432.158 0.655489 -1.93816 0
M  V30 4510 H 432.168 2.93001 -2.83926 0
M  V30 4511 H 430.843 2.07059 -3.60693 0
M  V30 4512 H 429.42 3.09094 -2.08603 0
M  V30 4513 N 431.605 1.3629 0.791371 0
M  V30 4514 C 433.016 1.27225 1.36641 0
M  V30 4515 C 433.367 -0.0887968 1.95999 0
M  V30 4516 O 432.492 -0.990207 1.92416 0
M  V30 4517 C 433.087 2.30375 2.48421 0
M  V30 4518 C 431.646 2.25004 3.01746 0
M  V30 4519 C 430.793 2.15259 1.7481 0
M  V30 4520 H 433.744 1.47198 0.593173 0
M  V30 4521 H 433.765 1.93905 3.27385 0
M  V30 4522 H 433.277 3.29422 2.05189 0
M  V30 4523 H 431.378 1.29417 3.49403 0
M  V30 4524 H 431.491 3.1761 3.58693 0
M  V30 4525 H 429.855 1.61482 1.96966 0
M  V30 4526 H 430.638 3.16191 1.33709 0
M  V30 4527 N 433.083 -1.0153 1.20538 0
M  V30 4528 C 434.36 -1.72327 0.925343 0
M  V30 4529 C 434.74 -2.03383 -0.565547 0
M  V30 4530 O 434.088 -1.69934 -1.52757 0
M  V30 4531 C 434.298 -2.9902 1.79967 0
M  V30 4532 C 435.646 -3.72258 2.04228 0
M  V30 4533 O 436.67 -3.08979 1.77231 0
M  V30 4534 O 435.529 -4.86053 2.4983 0
M  V30 4535 H 432.623 -0.751099 0.346092 0
M  V30 4536 H 435.169 -1.07366 1.31417 0
M  V30 4537 H 433.941 -2.72402 2.80915 0
M  V30 4538 H 433.564 -3.71721 1.41099 0
M  V30 4539 N 434.561 -1.01147 -1.20859 0
M  V30 4540 C 435.471 -0.58686 -2.27141 0
M  V30 4541 C 436.487 0.373198 -1.69951 0
M  V30 4542 O 437.663 0.235423 -2.00019 0
M  V30 4543 C 434.728 0.0733602 -3.46622 0
M  V30 4544 C 433.789 -0.931995 -4.19061 0
M  V30 4545 C 433.022 -0.303186 -5.32838 0
M  V30 4546 O 433.245 0.898395 -5.63281 0
M  V30 4547 O 432.179 -1.01735 -5.9324 0
M  V30 4548 H 436.005 -1.47155 -2.65667 0
M  V30 4549 H 433.59 -0.780689 -1.2738 0
M  V30 4550 H 435.472 0.442333 -4.19072 0
M  V30 4551 H 434.147 0.932329 -3.09983 0
M  V30 4552 H 433.054 -1.35224 -3.48805 0
M  V30 4553 H 434.387 -1.76076 -4.59628 0
M  V30 4554 N 436.039 1.36541 -0.78704 0
M  V30 4555 C 436.987 2.31965 -0.171724 0
M  V30 4556 C 437.981 1.55689 0.667631 0
M  V30 4557 O 439.187 1.70969 0.562981 0
M  V30 4558 H 435.562 0.751101 -0.0367545 0
M  V30 4559 H 437.533 2.81428 -0.992017 0
M  V30 4560 C 436.282 3.40968 0.680904 0
M  V30 4561 H 435.605 3.99775 0.0443961 0
M  V30 4562 H 437.045 4.10063 1.07815 0
M  V30 4563 C 435.504 2.82338 1.83813 0
M  V30 4564 O 436.034 2.74311 2.93456 0
M  V30 4565 N 434.24 2.39661 1.6435 0
M  V30 4566 H 433.787 2.46389 0.751668 0
M  V30 4567 H 433.745 2.00779 2.4194 0
M  V30 4568 N 437.518 0.538854 1.48102 0
M  V30 4569 C 438.767 0.0059532 2.01699 0
M  V30 4570 C 439.08 -1.34476 1.42041 0
M  V30 4571 O 440.286 -1.96653 1.87189 0
M  V30 4572 C 438.742 -0.0397627 3.59878 0
M  V30 4573 C 438.35 1.30659 4.28523 0
M  V30 4574 C 440.094 -0.521024 4.2129 0
M  V30 4575 C 438.001 1.22098 5.78659 0
M  V30 4576 H 436.931 -0.00154456 0.753998 0
M  V30 4577 H 439.582 0.683963 1.70277 0
M  V30 4578 H 437.964 -0.783037 3.88181 0
M  V30 4579 H 439.138 2.06613 4.11883 0
M  V30 4580 H 437.453 1.7243 3.79021 0
M  V30 4581 H 440.05 -0.603184 5.31287 0
M  V30 4582 H 440.393 -1.52885 3.8721 0
M  V30 4583 H 440.926 0.166834 3.9745 0
M  V30 4584 H 437.665 2.20424 6.17328 0
M  V30 4585 H 437.185 0.50295 5.97688 0
M  V30 4586 H 438.864 0.915345 6.40492 0
M  V30 4587 N 438.996 -1.55193 0.274407 0
M  V30 4588 C 439.926 -2.25471 -0.607032 0
M  V30 4589 C 440.907 -1.24461 -1.15946 0
M  V30 4590 O 442.092 -1.53179 -1.19373 0
M  V30 4591 C 439.222 -2.97526 -1.79153 0
M  V30 4592 C 438.176 -4.05459 -1.37067 0
M  V30 4593 C 437.502 -4.65084 -2.6382 0
M  V30 4594 C 438.802 -5.19691 -0.521389 0
M  V30 4595 H 440.496 -2.99393 -0.0209343 0
M  V30 4596 H 438.042 -1.43997 -0.00862866 0
M  V30 4597 H 439.995 -3.45402 -2.41404 0
M  V30 4598 H 438.719 -2.21138 -2.40344 0
M  V30 4599 H 437.378 -3.58393 -0.771355 0
M  V30 4600 H 437.026 -3.85365 -3.23268 0
M  V30 4601 H 436.726 -5.37961 -2.36372 0
M  V30 4602 H 438.25 -5.15708 -3.26921 0
M  V30 4603 H 439.664 -5.63623 -1.04889 0
M  V30 4604 H 438.061 -5.99126 -0.341825 0
M  V30 4605 H 439.131 -4.82713 0.46 0
M  V30 4606 N 440.474 -0.00167713 -1.576 0
M  V30 4607 C 441.704 0.692754 -1.94639 0
M  V30 4608 C 442.112 1.67744 -0.87513 0
M  V30 4609 O 441.455 1.8305 0.154382 0
M  V30 4610 C 441.517 1.47881 -3.27676 0
M  V30 4611 C 441.181 0.655518 -4.52274 0
M  V30 4612 C 442.178 -0.0575214 -5.19868 0
M  V30 4613 C 439.863 0.600994 -4.98692 0
M  V30 4614 C 441.857 -0.814052 -6.3218 0
M  V30 4615 C 439.544 -0.15926 -6.10892 0
M  V30 4616 C 440.542 -0.865515 -6.77494 0
M  V30 4617 O 440.23 -1.61336 -7.87544 0
M  V30 4618 H 439.962 0.197792 -0.646417 0
M  V30 4619 H 442.516 -0.049423 -2.05341 0
M  V30 4620 H 440.746 2.2655 -3.13388 0
M  V30 4621 H 442.435 2.05874 -3.49816 0
M  V30 4622 H 443.201 -0.0245611 -4.84994 0
M  V30 4623 H 439.08 1.14025 -4.46676 0
M  V30 4624 H 442.624 -1.36584 -6.84098 0
M  V30 4625 H 438.521 -0.194035 -6.45208 0
M  V30 4626 H 439.289 -1.53025 -8.04068 0
M  V30 4627 N 441.952 1.55251 0.271103 0
M  V30 4628 C 443.198 1.76207 1.00394 0
M  V30 4629 C 443.531 0.562604 1.85872 0
M  V30 4630 O 442.806 -0.439785 1.89463 0
M  V30 4631 C 443.089 3.06828 1.8849 0
M  V30 4632 C 442.942 4.37134 1.05992 0
M  V30 4633 C 444.261 3.33503 2.87165 0
M  V30 4634 H 441.38 0.641086 0.363562 0
M  V30 4635 H 444.022 1.87982 0.276189 0
M  V30 4636 H 442.172 2.96921 2.5054 0
M  V30 4637 H 443.844 4.59001 0.459978 0
M  V30 4638 H 442.087 4.32275 0.363443 0
M  V30 4639 H 442.758 5.2486 1.70955 0
M  V30 4640 H 445.234 3.43215 2.3525 0
M  V30 4641 H 444.11 4.2616 3.45946 0
M  V30 4642 H 444.371 2.53235 3.62387 0
M  V30 4643 N 443.43 -0.535701 1.48216 0
M  V30 4644 C 444.393 -1.623 1.61838 0
M  V30 4645 C 445.393 -1.53087 0.492024 0
M  V30 4646 O 446.583 -1.5686 0.757668 0
M  V30 4647 C 443.715 -3.01907 1.58319 0
M  V30 4648 H 444.908 -1.51564 2.58783 0
M  V30 4649 H 442.461 -0.757317 1.36727 0
M  V30 4650 H 443.196 -3.18155 0.628299 0
M  V30 4651 H 442.981 -3.10003 2.40085 0
M  V30 4652 H 444.471 -3.80969 1.71033 0
M  V30 4653 N 444.908 -1.36708 -0.784132 0
M  V30 4654 C 445.818 -1.3363 -1.92822 0
M  V30 4655 C 446.834 -0.237686 -1.72369 0
M  V30 4656 O 448.01 -0.470962 -1.95816 0
M  V30 4657 C 445.075 -1.13011 -3.27764 0
M  V30 4658 C 444.136 -2.32397 -3.60957 0
M  V30 4659 C 443.369 -2.12752 -4.89461 0
M  V30 4660 O 443.592 -1.10541 -5.59586 0
M  V30 4661 O 442.526 -3.00653 -5.21432 0
M  V30 4662 H 446.352 -2.29964 -1.98369 0
M  V30 4663 H 443.937 -1.1731 -0.925136 0
M  V30 4664 H 445.819 -1.03451 -4.08504 0
M  V30 4665 H 444.494 -0.19743 -3.23097 0
M  V30 4666 H 443.401 -2.47527 -2.80502 0
M  V30 4667 H 444.734 -3.2419 -3.70354 0
M  V30 4668 N 446.386 1.0089 -1.21074 0
M  V30 4669 C 447.632 1.74866 -1.02712 0
M  V30 4670 C 447.965 1.89178 0.438787 0
M  V30 4671 O 447.24 1.42325 1.32567 0
M  V30 4672 C 447.523 3.16347 -1.72036 0
M  V30 4673 C 447.376 3.09782 -3.26121 0
M  V30 4674 C 448.695 4.15187 -1.45973 0
M  V30 4675 H 445.814 0.634736 -0.374539 0
M  V30 4676 H 448.456 1.17646 -1.49196 0
M  V30 4677 H 446.606 3.65201 -1.32517 0
M  V30 4678 H 448.278 2.68673 -3.74983 0
M  V30 4679 H 446.521 2.46982 -3.56626 0
M  V30 4680 H 447.192 4.09829 -3.6979 0
M  V30 4681 H 449.668 3.75022 -1.80272 0
M  V30 4682 H 448.544 5.12331 -1.96999 0
M  V30 4683 H 448.805 4.40386 -0.388924 0
M  V30 4684 N 447.864 1.01787 1.20321 0
M  V30 4685 C 448.812 0.58254 2.25187 0
M  V30 4686 C 449.806 -0.379359 1.65098 0
M  V30 4687 O 451.012 -0.249142 1.78267 0
M  V30 4688 H 447.387 0.170078 0.732514 0
M  V30 4689 H 449.358 1.47788 2.59232 0
M  V30 4690 C 448.107 -0.0620885 3.47645 0
M  V30 4691 H 447.43 0.669069 3.94162 0
M  V30 4692 H 448.87 -0.329784 4.22716 0
M  V30 4693 C 447.329 -1.3053 3.10586 0
M  V30 4694 O 447.859 -2.39848 3.22236 0
M  V30 4695 N 446.065 -1.18988 2.65123 0
M  V30 4696 H 445.612 -0.300341 2.55843 0
M  V30 4697 H 445.57 -2.02267 2.40698 0
M  V30 4698 N 449.342 -1.36122 0.79427 0
M  V30 4699 C 450.758 -1.5232 0.476525 0
M  V30 4700 C 450.958 -1.74685 -1.00436 0
M  V30 4701 O 450.014 -1.78115 -1.78973 0
M  V30 4702 C 451.327 -2.70607 1.31119 0
M  V30 4703 C 452.875 -2.8448 1.30537 0
M  V30 4704 C 453.35 -4.05778 2.12387 0
M  V30 4705 N 454.841 -4.12933 2.09859 0
M  V30 4706 C 455.576 -5.05876 2.69957 0
M  V30 4707 N 455.072 -6.04232 3.38934 0
M  V30 4708 N 456.865 -4.98528 2.59665 0
M  V30 4709 H 449.016 -1.1986 1.75349 0
M  V30 4710 H 451.279 -0.585418 0.745647 0
M  V30 4711 H 450.985 -2.60619 2.36158 0
M  V30 4712 H 450.859 -3.64888 0.955843 0
M  V30 4713 H 453.246 -2.93927 0.262876 0
M  V30 4714 H 453.327 -1.91093 1.70051 0
M  V30 4715 H 452.971 -3.97092 3.1667 0
M  V30 4716 H 452.901 -4.98323 1.70242 0
M  V30 4717 H 455.392 -3.42515 1.59662 0
M  V30 4718 H 455.705 -6.71724 3.82109 0
M  V30 4719 H 454.05 -6.04443 3.43036 0
M  V30 4720 H 457.241 -4.20641 2.05375 0
M  V30 4721 H 457.414 -5.70773 3.06793 0
M  V30 4722 N 450.82 -0.546701 -1.47814 0
M  V30 4723 C 451.783 0.196287 -2.28358 0
M  V30 4724 C 452.783 0.852437 -1.36346 0
M  V30 4725 O 453.973 0.709913 -1.59078 0
M  V30 4726 C 451.105 1.28579 -3.15722 0
M  V30 4727 H 452.298 -0.511086 -2.95513 0
M  V30 4728 H 449.851 -0.303248 -1.5333 0
M  V30 4729 H 450.586 2.0259 -2.53235 0
M  V30 4730 H 450.371 0.820229 -3.83425 0
M  V30 4731 H 451.861 1.80793 -3.76435 0
M  V30 4732 N 452.299 1.55045 -0.282633 0
M  V30 4733 C 453.231 2.2023 0.634924 0
M  V30 4734 C 454.244 1.18931 1.11172 0
M  V30 4735 O 455.433 1.4562 1.03233 0
M  V30 4736 C 452.533 2.82041 1.87899 0
M  V30 4737 C 451.706 4.091 1.54776 0
M  V30 4738 C 450.765 4.54887 2.64507 0
M  V30 4739 O 449.791 5.20496 2.30375 0
M  V30 4740 N 450.993 4.25659 3.94709 0
M  V30 4741 H 453.758 2.99601 0.0769811 0
M  V30 4742 H 451.319 1.61565 -0.104048 0
M  V30 4743 H 453.311 3.09613 2.60619 0
M  V30 4744 H 451.881 2.06618 2.3458 0
M  V30 4745 H 451.101 3.88736 0.654049 0
M  V30 4746 H 452.389 4.9187 1.30158 0
M  V30 4747 H 451.787 3.7306 4.25256 0
M  V30 4748 H 450.344 4.57984 4.63782 0
M  V30 4749 N 453.777 0.010035 1.57597 0
M  V30 4750 C 454.725 -0.996272 2.10184 0
M  V30 4751 C 455.719 -1.34942 1.02406 0
M  V30 4752 O 456.925 -1.33389 1.20861 0
M  V30 4753 H 453.3 -0.338982 0.671264 0
M  V30 4754 H 455.271 -0.527272 2.93705 0
M  V30 4755 C 454.02 -2.27599 2.62857 0
M  V30 4756 H 453.343 -2.01295 3.45428 0
M  V30 4757 H 454.783 -2.96265 3.0332 0
M  V30 4758 C 453.242 -2.99269 1.54725 0
M  V30 4759 O 453.772 -3.90644 0.93597 0
M  V30 4760 N 451.978 -2.61269 1.27228 0
M  V30 4761 H 451.525 -1.87043 1.77123 0
M  V30 4762 H 451.483 -3.09534 0.550999 0
M  V30 4763 N 455.255 -1.55392 -0.262866 0
M  V30 4764 C 456.165 -1.92077 -1.34698 0
M  V30 4765 C 457.181 -0.819227 -1.53508 0
M  V30 4766 O 458.357 -1.11921 -1.67439 0
M  V30 4767 C 455.422 -2.19407 -2.68443 0
M  V30 4768 C 454.483 -3.42905 -2.58292 0
M  V30 4769 C 453.716 -3.68921 -3.85659 0
M  V30 4770 O 453.939 -2.97275 -4.8681 0
M  V30 4771 O 452.873 -4.62455 -3.85252 0
M  V30 4772 H 456.699 -2.84384 -1.06581 0
M  V30 4773 H 454.284 -1.42069 -0.462264 0
M  V30 4774 H 456.166 -2.38365 -3.47506 0
M  V30 4775 H 454.841 -1.30282 -2.96325 0
M  V30 4776 H 453.748 -3.29272 -1.7757 0
M  V30 4777 H 455.081 -4.32282 -2.35358 0
M  V30 4778 N 456.733 0.527833 -1.48498 0
M  V30 4779 C 457.973 1.29401 -1.58224 0
M  V30 4780 C 458.337 1.90348 -0.251327 0
M  V30 4781 O 459.538 2.67868 -0.223588 0
M  V30 4782 C 457.809 2.35266 -2.69044 0
M  V30 4783 S 459.368 3.2158 -2.98549 0
M  V30 4784 H 456.186 0.440138 -0.558391 0
M  V30 4785 H 458.788 0.601079 -1.8603 0
M  V30 4786 H 457.492 1.88975 -3.64303 0
M  V30 4787 H 457.023 3.09263 -2.43146 0
M  V30 4788 H 459.038 4.35391 -2.38011 0
M  V30 4789 N 458.211 1.37122 0.776871 0
M  V30 4790 C 459.158 1.3247 1.88998 0
M  V30 4791 C 460.128 0.191143 1.64997 0
M  V30 4792 O 461.313 0.379683 1.86984 0
M  V30 4793 C 458.453 1.13241 3.25992 0
M  V30 4794 C 457.566 2.35782 3.61982 0
M  V30 4795 C 456.701 2.09465 4.88158 0
M  V30 4796 C 455.74 3.279 5.16864 0
M  V30 4797 N 454.877 3.01167 6.34226 0
M  V30 4798 H 459.717 2.27642 1.9231 0
M  V30 4799 H 457.254 1.13125 0.94027 0
M  V30 4800 H 459.212 1.00115 4.0501 0
M  V30 4801 H 457.842 0.217186 3.22069 0
M  V30 4802 H 456.894 2.59666 2.77989 0
M  V30 4803 H 458.206 3.24125 3.79137 0
M  V30 4804 H 457.36 1.93341 5.75069 0
M  V30 4805 H 456.099 1.18452 4.73097 0
M  V30 4806 H 455.104 3.44569 4.2843 0
M  V30 4807 H 456.329 4.19757 5.33836 0
M  V30 4808 H 454.275 2.12779 6.20533 0
M  V30 4809 H 454.192 3.83052 6.51772 0
M  V30 4810 H 455.46 2.88649 7.24087 0
M  V30 4811 N 459.689 -1.00246 1.21608 0
M  V30 4812 C 460.935 -1.74319 1.03638 0
M  V30 4813 C 461.268 -1.89408 -0.428749 0
M  V30 4814 O 460.543 -1.43026 -1.3181 0
M  V30 4815 C 460.826 -3.15431 1.73711 0
M  V30 4816 C 460.679 -3.08049 3.27759 0
M  V30 4817 C 461.998 -4.14407 1.48173 0
M  V30 4818 H 459.117 -0.632741 0.377899 0
M  V30 4819 H 461.759 -1.16853 1.49818 0
M  V30 4820 H 459.909 -3.64493 1.34452 0
M  V30 4821 H 461.581 -2.66681 3.76403 0
M  V30 4822 H 459.824 -2.45088 3.57931 0
M  V30 4823 H 460.495 -4.07862 3.71958 0
M  V30 4824 H 462.971 -3.74061 1.82258 0
M  V30 4825 H 461.847 -5.11279 1.99713 0
M  V30 4826 H 462.108 -4.40174 0.412273 0
M  V30 4827 N 461.167 -1.02423 -1.1978 0
M  V30 4828 C 462.115 -0.594474 -2.24875 0
M  V30 4829 C 463.109 0.370598 -1.65296 0
M  V30 4830 O 464.315 0.239684 -1.78397 0
M  V30 4831 H 460.69 -0.173961 -0.731602 0
M  V30 4832 H 462.661 -1.4916 -2.58445 0
M  V30 4833 C 461.41 0.0436512 -3.47673 0
M  V30 4834 H 460.733 -0.689963 -3.93801 0
M  V30 4835 H 462.173 0.307362 -4.22884 0
M  V30 4836 C 460.632 1.28881 -3.11274 0
M  V30 4837 O 461.162 2.38135 -3.23503 0
M  V30 4838 N 459.368 1.1758 -2.6575 0
M  V30 4839 H 458.915 0.286769 -2.55999 0
M  V30 4840 H 458.873 2.00988 -2.41767 0
M  V30 4841 N 462.645 1.35699 -0.801477 0
M  V30 4842 C 463.608 2.28199 -0.213994 0
M  V30 4843 C 464.608 1.49359 0.595691 0
M  V30 4844 O 465.798 1.69186 0.414921 0
M  V30 4845 C 462.93 3.33587 0.702297 0
M  V30 4846 H 464.123 2.81666 -1.02976 0
M  V30 4847 H 461.676 1.45467 -0.571759 0
M  V30 4848 H 462.411 2.85297 1.54195 0
M  V30 4849 H 462.196 3.91906 0.123484 0
M  V30 4850 H 463.686 4.02638 1.10783 0
M  V30 4851 N 464.123 0.554532 1.47522 0
M  V30 4852 C 465.353 0.0342074 2.06572 0
M  V30 4853 C 465.761 -1.26375 1.40805 0
M  V30 4854 O 465.104 -1.7683 0.49769 0
M  V30 4855 C 465.166 -0.235096 3.5873 0
M  V30 4856 C 464.83 0.973024 4.46521 0
M  V30 4857 C 465.827 1.8779 4.848 0
M  V30 4858 C 463.512 1.18694 4.88075 0
M  V30 4859 C 465.506 2.98039 5.63428 0
M  V30 4860 C 463.193 2.29254 5.66468 0
M  V30 4861 C 464.191 3.18757 6.04055 0
M  V30 4862 O 463.879 4.27401 6.8087 0
M  V30 4863 H 463.611 0.041587 0.67472 0
M  V30 4864 H 466.165 0.766748 1.90552 0
M  V30 4865 H 464.395 -1.02191 3.72953 0
M  V30 4866 H 466.084 -0.700477 3.9981 0
M  V30 4867 H 466.85 1.72467 4.53299 0
M  V30 4868 H 462.729 0.49947 4.58286 0
M  V30 4869 H 466.273 3.67926 5.92685 0
M  V30 4870 H 462.17 2.4455 5.97382 0
M  V30 4871 H 462.938 4.25415 6.9926 0
M  V30 4872 N 465.601 -1.54893 0.290851 0
M  V30 4873 C 466.878 -1.91991 -0.373989 0
M  V30 4874 C 467.258 -1.21694 -1.72493 0
M  V30 4875 O 466.606 -0.34917 -2.25816 0
M  V30 4876 C 466.816 -3.45419 -0.498703 0
M  V30 4877 C 468.164 -4.1748 -0.774298 0
M  V30 4878 O 469.188 -3.51398 -0.582908 0
M  V30 4879 O 468.047 -5.3445 -1.14129 0
M  V30 4880 H 465.141 -0.800593 -0.207315 0
M  V30 4881 H 467.687 -1.66297 0.338164 0
M  V30 4882 H 466.459 -3.88688 0.451392 0
M  V30 4883 H 466.082 -3.77117 -1.25972 0
M  V30 4884 N 467.08 -0.0183926 -1.57589 0
M  V30 4885 C 468.043 0.951986 -2.08494 0
M  V30 4886 C 469.043 1.26092 -0.997874 0
M  V30 4887 O 470.233 1.20304 -1.25987 0
M  V30 4888 C 467.365 2.27165 -2.54182 0
M  V30 4889 H 468.558 0.511307 -2.95509 0
M  V30 4890 H 466.111 0.229444 -1.54607 0
M  V30 4891 H 466.846 2.75884 -1.70465 0
M  V30 4892 H 466.631 2.06057 -3.33591 0
M  V30 4893 H 468.121 2.9674 -2.93828 0
M  V30 4894 N 468.558 1.5553 0.254621 0
M  V30 4895 C 469.468 1.92789 1.33677 0
M  V30 4896 C 470.484 0.827356 1.53071 0
M  V30 4897 O 471.66 1.12807 1.66843 0
M  V30 4898 C 468.725 2.20827 2.67275 0
M  V30 4899 C 467.786 3.4427 2.5647 0
M  V30 4900 C 467.019 3.70961 3.83697 0
M  V30 4901 O 467.242 2.99852 4.85227 0
M  V30 4902 O 466.176 4.64491 3.82794 0
M  V30 4903 H 470.002 2.84945 1.05071 0
M  V30 4904 H 467.587 1.42312 0.454723 0
M  V30 4905 H 469.469 2.40204 3.46237 0
M  V30 4906 H 468.144 1.31851 2.9563 0
M  V30 4907 H 467.051 3.30209 1.75821 0
M  V30 4908 H 468.384 4.33524 2.33062 0
M  V30 4909 N 470.036 -0.519951 1.48776 0
M  V30 4910 C 471.264 -1.29971 1.60982 0
M  V30 4911 C 471.679 -1.86803 0.273885 0
M  V30 4912 O 471.036 -1.66904 -0.738193 0
M  V30 4913 C 471.087 -2.44346 2.66415 0
M  V30 4914 O 470.808 -1.89855 3.94825 0
M  V30 4915 C 472.309 -3.36014 2.89153 0
M  V30 4916 H 469.529 -0.394891 0.542496 0
M  V30 4917 H 472.073 -0.626214 1.94676 0
M  V30 4918 H 470.228 -3.07562 2.35552 0
M  V30 4919 H 470.642 -2.64798 4.5275 0
M  V30 4920 H 472.116 -4.12593 3.66703 0
M  V30 4921 H 472.593 -3.91859 1.98351 0
M  V30 4922 H 473.199 -2.78582 3.21359 0
M  V30 4923 N 471.514 -1.37532 -0.769588 0
M  V30 4924 C 472.762 -1.32597 -1.5252 0
M  V30 4925 C 473.083 0.0884294 -1.94799 0
M  V30 4926 O 472.353 1.03289 -1.66458 0
M  V30 4927 H 470.933 -0.487846 -0.565699 0
M  V30 4928 H 473.595 -1.72044 -0.915806 0
M  V30 4929 H 472.691 -1.96643 -2.42359 0
M  V30 4930 N 472.992 0.995999 -1.22138 0
M  V30 4931 C 474.408 1.25917 -0.980667 0
M  V30 4932 C 474.608 1.98819 0.327604 0
M  V30 4933 O 473.664 2.29587 1.05101 0
M  V30 4934 C 474.977 2.07399 -2.17729 0
M  V30 4935 C 476.525 2.20594 -2.22052 0
M  V30 4936 C 477 3.05462 -3.41258 0
M  V30 4937 N 478.491 3.13049 -3.41401 0
M  V30 4938 C 479.226 3.78997 -4.30289 0
M  V30 4939 N 478.722 4.46899 -5.2939 0
M  V30 4940 N 480.515 3.75728 -4.18073 0
M  V30 4941 H 472.666 0.507158 -2.06256 0
M  V30 4942 H 474.929 0.28658 -0.903646 0
M  V30 4943 H 474.635 1.61191 -3.12586 0
M  V30 4944 H 474.509 3.08154 -2.17534 0
M  V30 4945 H 476.896 2.66017 -1.27745 0
M  V30 4946 H 476.977 1.1928 -2.26287 0
M  V30 4947 H 476.621 2.60739 -4.35864 0
M  V30 4948 H 476.551 4.06911 -3.34262 0
M  V30 4949 H 479.042 2.64721 -2.69688 0
M  V30 4950 H 479.355 4.94952 -5.935 0
M  V30 4951 H 477.7 4.45657 -5.33306 0
M  V30 4952 H 480.891 3.2184 -3.39907 0
M  V30 4953 H 481.064 4.26845 -4.87553 0
M  V30 4954 N 474.47 1.03057 1.19235 0
M  V30 4955 C 475.717 0.728019 1.88961 0
M  V30 4956 C 476.045 -0.743515 1.79728 0
M  V30 4957 O 475.3 -1.55729 1.1852 0
M  V30 4958 C 475.599 1.1268 3.39172 0
M  V30 4959 C 475.265 2.5969 3.68608 0
M  V30 4960 C 473.927 2.99854 3.76352 0
M  V30 4961 C 476.279 3.54793 3.81801 0
M  V30 4962 C 473.607 4.34031 3.94758 0
M  V30 4963 C 475.959 4.88675 4.0172 0
M  V30 4964 C 474.623 5.28526 4.07697 0
M  V30 4965 H 473.893 0.266401 0.691456 0
M  V30 4966 H 476.54 1.29373 1.41191 0
M  V30 4967 H 474.845 0.479722 3.88852 0
M  V30 4968 H 476.542 0.870203 3.91444 0
M  V30 4969 H 473.132 2.27575 3.63191 0
M  V30 4970 H 477.316 3.24914 3.7516 0
M  V30 4971 H 472.572 4.6444 3.97625 0
M  V30 4972 H 476.746 5.6228 4.1087 0
M  V30 4973 H 474.373 6.32506 4.21712 0
M  V30 4974 N 475.948 -1.35272 0.808662 0
M  V30 4975 C 477.194 -1.99003 0.390581 0
M  V30 4976 C 477.527 -1.63999 -1.0401 0
M  V30 4977 O 476.802 -0.904368 -1.72196 0
M  V30 4978 C 477.085 -3.55454 0.576566 0
M  V30 4979 C 476.938 -4.00249 2.05233 0
M  V30 4980 C 478.257 -4.401 0.00354277 0
M  V30 4981 H 475.376 -0.722917 0.143388 0
M  V30 4982 H 478.018 -1.6039 1.01858 0
M  V30 4983 H 476.168 -3.88477 0.0419766 0
M  V30 4984 H 477.84 -3.77626 2.64946 0
M  V30 4985 H 476.083 -3.51082 2.54801 0
M  V30 4986 H 476.754 -5.0911 2.13333 0
M  V30 4987 H 479.23 -4.13548 0.460117 0
M  V30 4988 H 478.106 -5.48656 0.163575 0
M  V30 4989 H 478.367 -4.28444 -1.09032 0
M  V30 4990 N 477.426 -0.562348 -1.47226 0
M  V30 4991 C 478.842 -0.222492 -1.58042 0
M  V30 4992 C 479.042 1.27505 -1.56028 0
M  V30 4993 O 478.098 2.05555 -1.46641 0
M  V30 4994 C 479.411 -0.853694 -2.88327 0
M  V30 4995 C 480.959 -0.825397 -3.01921 0
M  V30 4996 C 481.434 -1.43576 -4.34914 0
M  V30 4997 N 482.925 -1.39918 -4.41562 0
M  V30 4998 C 483.66 -1.84103 -5.43041 0
M  V30 4999 N 483.156 -2.36167 -6.51304 0
M  V30 5000 N 484.949 -1.75142 -5.34118 0
M  V30 5001 H 477.1 -1.53525 -1.46778 0
M  V30 5002 H 479.363 -0.640527 -0.698877 0
M  V30 5003 H 479.069 -1.90635 -2.95552 0
M  V30 5004 H 478.943 -0.34977 -3.75575 0
M  V30 5005 H 481.33 0.218583 -2.94289 0
M  V30 5006 H 481.411 -1.36713 -2.16202 0
M  V30 5007 H 481.055 -2.47884 -4.43301 0
M  V30 5008 H 480.985 -0.869427 -5.19373 0
M  V30 5009 H 483.476 -1.0184 -3.63919 0
M  V30 5010 H 483.789 -2.67793 -7.24919 0
M  V30 5011 H 482.134 -2.40181 -6.52179 0
M  V30 5012 H 485.325 -1.34241 -4.48439 0
M  V30 5013 H 485.498 -2.09895 -6.13065 0
M  V30 5014 N 478.904 1.54736 -0.299062 0
M  V30 5015 C 480.132 2.04512 0.313447 0
M  V30 5016 C 480.547 1.17643 1.47667 0
M  V30 5017 O 479.904 0.20164 1.81383 0
M  V30 5018 C 479.955 3.53171 0.771542 0
M  V30 5019 O 479.676 4.36736 -0.345379 0
M  V30 5020 C 481.177 4.18936 1.4494 0
M  V30 5021 H 478.397 0.667507 0.0683784 0
M  V30 5022 H 480.941 1.99752 -0.438129 0
M  V30 5023 H 479.096 3.58298 1.47314 0
M  V30 5024 H 479.51 5.24499 0.0109219 0
M  V30 5025 H 480.984 5.24482 1.72111 0
M  V30 5026 H 481.461 3.68554 2.38883 0
M  V30 5027 H 482.067 4.17879 0.791028 0
M  V30 5028 N 480.382 0.0267497 1.57577 0
M  V30 5029 C 481.312 -0.954308 2.13108 0
M  V30 5030 C 482.293 -1.34088 1.04663 0
M  V30 5031 O 483.478 -1.41992 1.32484 0
M  V30 5032 C 480.608 -2.23744 2.65624 0
M  V30 5033 C 479.562 -1.99168 3.78835 0
M  V30 5034 C 478.888 -3.33726 4.17769 0
M  V30 5035 C 480.188 -1.33277 5.0501 0
M  V30 5036 H 481.882 -0.491848 2.95332 0
M  V30 5037 H 479.428 -0.23514 1.42067 0
M  V30 5038 H 481.381 -2.92754 3.03106 0
M  V30 5039 H 480.105 -2.72151 1.80558 0
M  V30 5040 H 478.764 -1.32577 3.41788 0
M  V30 5041 H 478.412 -3.79888 3.29688 0
M  V30 5042 H 478.112 -3.18089 4.94058 0
M  V30 5043 H 479.636 -4.04008 4.57832 0
M  V30 5044 H 481.05 -1.92283 5.40093 0
M  V30 5045 H 479.447 -1.28045 5.8628 0
M  V30 5046 H 480.517 -0.305411 4.83937 0
M  V30 5047 N 481.861 -1.55662 -0.24637 0
M  V30 5048 C 483.108 -1.77519 -0.974335 0
M  V30 5049 C 483.436 -0.591165 -1.85298 0
M  V30 5050 O 482.691 0.425497 -1.91018 0
M  V30 5051 C 482.99 -3.04885 -1.86494 0
M  V30 5052 C 482.656 -4.36209 -1.14161 0
M  V30 5053 C 481.318 -4.71896 -0.941701 0
M  V30 5054 C 483.67 -5.17391 -0.628957 0
M  V30 5055 C 480.998 -5.86299 -0.216852 0
M  V30 5056 C 483.35 -6.32546 0.0824273 0
M  V30 5057 C 482.014 -6.66853 0.293807 0
M  V30 5058 H 481.284 -0.649588 -0.356535 0
M  V30 5059 H 483.931 -1.89934 -0.244394 0
M  V30 5060 H 482.236 -2.87484 -2.66196 0
M  V30 5061 H 483.933 -3.18994 -2.42989 0
M  V30 5062 H 480.523 -4.08174 -1.30736 0
M  V30 5063 H 484.707 -4.90276 -0.770943 0
M  V30 5064 H 479.963 -6.11385 -0.0426124 0
M  V30 5065 H 484.137 -6.94693 0.487292 0
M  V30 5066 H 481.764 -7.55349 0.857428 0
M  V30 5067 N 483.339 0.512053 -1.4905 0
M  V30 5068 C 484.585 1.26874 -1.58212 0
M  V30 5069 C 484.918 1.9241 -0.263073 0
M  V30 5070 O 484.193 1.80181 0.732476 0
M  V30 5071 C 484.476 2.34428 -2.73341 0
M  V30 5072 C 484.329 1.73466 -4.15006 0
M  V30 5073 C 485.648 3.36073 -2.84154 0
M  V30 5074 H 482.767 0.459924 -0.575881 0
M  V30 5075 H 485.409 0.568587 -1.81293 0
M  V30 5076 H 483.559 2.94146 -2.53792 0
M  V30 5077 H 485.231 1.17661 -4.46042 0
M  V30 5078 H 483.474 1.03921 -4.21168 0
M  V30 5079 H 484.145 2.51426 -4.91415 0
M  V30 5080 H 486.621 2.86332 -3.01916 0
M  V30 5081 H 485.497 4.08703 -3.66406 0
M  V30 5082 H 485.758 3.97725 -1.93048 0
M  V30 5083 N 484.817 1.37938 0.762283 0
M  V30 5084 C 485.727 1.36681 1.90671 0
M  V30 5085 C 486.743 0.265078 1.71969 0
M  V30 5086 O 487.919 0.502055 1.95042 0
M  V30 5087 C 484.984 1.18211 3.25925 0
M  V30 5088 C 484.045 2.3811 3.57214 0
M  V30 5089 C 483.278 2.20512 4.86014 0
M  V30 5090 O 483.501 1.19429 5.57757 0
M  V30 5091 O 482.435 3.08911 5.16583 0
M  V30 5092 H 486.261 2.33091 1.94685 0
M  V30 5093 H 483.846 1.18767 0.906356 0
M  V30 5094 H 485.728 1.09937 4.06807 0
M  V30 5095 H 484.403 0.248807 3.22742 0
M  V30 5096 H 483.31 2.51958 2.76529 0
M  V30 5097 H 484.643 3.30041 3.65149 0
M  V30 5098 N 486.295 -0.989507 1.22664 0
M  V30 5099 C 487.523 -1.76496 1.07967 0
M  V30 5100 C 487.938 -1.85148 -0.369543 0
M  V30 5101 O 487.295 -1.32408 -1.25596 0
M  V30 5102 C 487.346 -3.19642 1.68853 0
M  V30 5103 O 487.067 -3.11453 3.08105 0
M  V30 5104 C 488.568 -4.13621 1.59475 0
M  V30 5105 H 485.788 -0.55418 0.378319 0
M  V30 5106 H 488.332 -1.24378 1.62328 0
M  V30 5107 H 486.487 -3.68816 1.18547 0
M  V30 5108 H 486.901 -4.01499 3.37489 0
M  V30 5109 H 488.375 -5.11801 2.06795 0
M  V30 5110 H 488.852 -4.35718 0.55191 0
M  V30 5111 H 489.458 -3.70346 2.09103 0
M  V30 5112 N 487.773 -1.03688 -1.18687 0
M  V30 5113 C 489.05 -0.652397 -1.84399 0
M  V30 5114 C 489.43 0.868386 -1.92412 0
M  V30 5115 O 488.778 1.76832 -1.44716 0
M  V30 5116 C 488.988 -1.3238 -3.22919 0
M  V30 5117 C 490.336 -1.45216 -3.98996 0
M  V30 5118 O 491.36 -1.2816 -3.32345 0
M  V30 5119 O 490.219 -1.72975 -5.18403 0
M  V30 5120 H 487.313 -0.227793 -0.795009 0
M  V30 5121 H 489.859 -1.13553 -1.2611 0
M  V30 5122 H 488.631 -2.36202 -3.11968 0
M  V30 5123 H 488.254 -0.829039 -3.88861 0
M  V30 5124 N 489.251 1.34841 -0.815825 0
M  V30 5125 C 490.198 2.29644 -0.230664 0
M  V30 5126 C 491.168 1.53253 0.640533 0
M  V30 5127 O 492.353 1.81653 0.583672 0
M  V30 5128 C 489.493 3.39715 0.607275 0
M  V30 5129 C 488.606 4.31056 -0.28538 0
M  V30 5130 C 487.741 5.28225 0.561446 0
M  V30 5131 C 486.78 6.11204 -0.331035 0
M  V30 5132 N 485.917 7.00483 0.476302 0
M  V30 5133 H 490.757 2.79095 -1.0445 0
M  V30 5134 H 488.294 1.37351 -0.526595 0
M  V30 5135 H 490.252 4.02208 1.10835 0
M  V30 5136 H 488.882 2.91517 1.38629 0
M  V30 5137 H 487.934 3.69487 -0.904621 0
M  V30 5138 H 489.246 4.89239 -0.97193 0
M  V30 5139 H 488.4 5.96135 1.12728 0
M  V30 5140 H 487.139 4.70562 1.28153 0
M  V30 5141 H 486.144 5.42232 -0.909069 0
M  V30 5142 H 487.369 6.70947 -1.04912 0
M  V30 5143 H 485.315 6.45296 1.18019 0
M  V30 5144 H 485.232 7.55847 -0.152008 0
M  V30 5145 H 486.5 7.7273 1.02512 0
M  V30 5146 N 490.729 0.570148 1.46925 0
M  V30 5147 C 491.679 -0.190921 2.27199 0
M  V30 5148 C 492.663 -0.873457 1.35128 0
M  V30 5149 O 493.855 -0.769627 1.59392 0
M  V30 5150 C 490.984 -1.21204 3.21192 0
M  V30 5151 C 490.07 -0.532261 4.20747 0
M  V30 5152 N 490.461 0.405038 5.04176 0
M  V30 5153 C 488.759 -0.784582 4.39045 0
M  V30 5154 C 489.46 0.801149 5.76157 0
M  V30 5155 N 488.436 0.153082 5.43384 0
M  V30 5156 H 492.238 0.529535 2.8909 0
M  V30 5157 H 489.752 0.391019 1.57622 0
M  V30 5158 H 491.749 -1.77135 3.77398 0
M  V30 5159 H 490.409 -1.93345 2.6086 0
M  V30 5160 H 491.42 0.779903 5.11994 0
M  V30 5161 H 488.097 -1.49352 3.89872 0
M  V30 5162 H 489.487 1.57208 6.5325 0
M  V30 5163 N 492.207 -1.54576 0.307264 0
M  V30 5164 C 493.437 -2.04378 -0.302158 0
M  V30 5165 C 493.845 -1.18381 -1.47589 0
M  V30 5166 O 493.188 -0.20352 -1.82569 0
M  V30 5167 C 493.25 -3.50133 -0.815305 0
M  V30 5168 C 492.914 -4.56401 0.233977 0
M  V30 5169 C 493.911 -5.08884 1.06456 0
M  V30 5170 C 491.596 -5.0088 0.377478 0
M  V30 5171 C 493.59 -6.04394 2.02452 0
M  V30 5172 C 491.277 -5.96208 1.34088 0
M  V30 5173 C 492.275 -6.47849 2.16288 0
M  V30 5174 O 491.963 -7.41308 3.10994 0
M  V30 5175 H 491.695 -0.672502 -0.0686839 0
M  V30 5176 H 494.249 -2.00484 0.446682 0
M  V30 5177 H 492.479 -3.51371 -1.61478 0
M  V30 5178 H 494.168 -3.83098 -1.34129 0
M  V30 5179 H 494.934 -4.75311 0.964596 0
M  V30 5180 H 490.813 -4.60309 -0.252405 0
M  V30 5181 H 494.357 -6.44626 2.66652 0
M  V30 5182 H 490.254 -6.29198 1.44154 0
M  V30 5183 H 491.022 -7.5913 3.06045 0
M  V30 5184 N 493.685 -0.035106 -1.57561 0
M  V30 5185 C 494.931 0.64318 -1.92331 0
M  V30 5186 C 495.264 1.71434 -0.912368 0
M  V30 5187 O 494.539 1.94395 0.0640303 0
M  V30 5188 C 494.822 1.25411 -3.37556 0
M  V30 5189 C 494.675 0.192109 -4.4939 0
M  V30 5190 C 495.994 2.17041 -3.82859 0
M  V30 5191 H 493.113 0.232341 -0.699419 0
M  V30 5192 H 495.755 -0.0935889 -1.89769 0
M  V30 5193 H 493.905 1.88205 -3.39869 0
M  V30 5194 H 495.577 -0.438849 -4.59208 0
M  V30 5195 H 493.82 -0.481725 -4.31117 0
M  V30 5196 H 494.491 0.659292 -5.48049 0
M  V30 5197 H 496.967 1.64228 -3.8232 0
M  V30 5198 H 495.843 2.56738 -4.85157 0
M  V30 5199 H 496.104 3.06401 -3.18702 0
M  V30 5200 N 495.163 1.55791 0.238111 0
M  V30 5201 C 496.073 1.94196 1.31625 0
M  V30 5202 C 497.089 0.843545 1.52185 0
M  V30 5203 O 498.265 1.1457 1.65637 0
M  V30 5204 C 495.33 2.2365 2.64918 0
M  V30 5205 C 494.391 3.46971 2.52804 0
M  V30 5206 C 493.624 3.7501 3.79741 0
M  V30 5207 O 493.847 3.04982 4.82019 0
M  V30 5208 O 492.781 4.68525 3.77846 0
M  V30 5209 H 496.607 2.86044 1.02043 0
M  V30 5210 H 494.192 1.42786 0.439603 0
M  V30 5211 H 496.074 2.43863 3.4367 0
M  V30 5212 H 494.749 1.34979 2.94215 0
M  V30 5213 H 493.656 3.32055 1.72309 0
M  V30 5214 H 494.989 4.35971 2.28451 0
M  V30 5215 N 496.642 -0.504142 1.49319 0
M  V30 5216 C 498.053 -1.08572 1.51885 0
M  V30 5217 C 498.404 -1.93842 0.303255 0
M  V30 5218 O 497.529 -2.0828 -0.58724 0
M  V30 5219 C 498.124 -1.97574 2.75227 0
M  V30 5220 C 496.683 -2.509 2.80581 0
M  V30 5221 C 495.83 -1.28447 2.45757 0
M  V30 5222 H 498.781 -0.288194 1.56061 0
M  V30 5223 H 498.802 -2.82219 2.55211 0
M  V30 5224 H 498.314 -1.35486 3.63683 0
M  V30 5225 H 496.415 -3.16636 1.96398 0
M  V30 5226 H 496.528 -2.88268 3.82673 0
M  V30 5227 H 494.892 -1.60868 1.97468 0
M  V30 5228 H 495.675 -0.68072 3.36483 0
M  V30 5229 N 498.12 -1.38341 -0.754957 0
M  V30 5230 C 499.05 -1.38176 -1.88227 0
M  V30 5231 C 500.031 -0.247873 -1.68284 0
M  V30 5232 O 501.216 -0.45075 -1.88896 0
M  V30 5233 C 498.346 -1.20471 -3.25736 0
M  V30 5234 C 497.3 -2.3105 -3.60278 0
M  V30 5235 C 496.626 -1.98452 -4.96509 0
M  V30 5236 C 497.926 -3.73305 -3.65295 0
M  V30 5237 H 499.62 -2.32512 -1.88622 0
M  V30 5238 H 497.166 -1.1192 -0.906082 0
M  V30 5239 H 499.119 -1.18982 -4.04254 0
M  V30 5240 H 497.843 -0.225965 -3.25817 0
M  V30 5241 H 496.502 -2.31723 -2.84078 0
M  V30 5242 H 496.15 -0.990641 -4.93148 0
M  V30 5243 H 495.85 -2.7251 -5.20588 0
M  V30 5244 H 497.374 -1.98578 -5.77407 0
M  V30 5245 H 498.788 -3.7467 -4.3393 0
M  V30 5246 H 497.185 -4.46557 -4.00883 0
M  V30 5247 H 498.255 -4.05719 -2.65556 0
M  V30 5248 N 499.598 0.982988 -1.23187 0
M  V30 5249 C 500.548 2.05962 -0.977942 0
M  V30 5250 C 501.532 1.60725 0.0751148 0
M  V30 5251 O 502.724 1.76471 -0.136683 0
M  V30 5252 C 499.853 3.38564 -0.568276 0
M  V30 5253 C 498.939 3.90407 -1.6566 0
M  V30 5254 N 499.33 4.15359 -2.88635 0
M  V30 5255 C 497.628 4.18915 -1.53058 0
M  V30 5256 C 498.329 4.57642 -3.5908 0
M  V30 5257 N 497.305 4.6192 -2.86584 0
M  V30 5258 H 501.107 2.23208 -1.91195 0
M  V30 5259 H 498.621 1.16555 -1.13087 0
M  V30 5260 H 500.618 4.15276 -0.36764 0
M  V30 5261 H 499.278 3.22712 0.358713 0
M  V30 5262 H 500.289 4.03258 -3.24966 0
M  V30 5263 H 496.966 4.12081 -0.670506 0
M  V30 5264 H 498.356 4.85488 -4.6449 0
M  V30 5265 N 501.076 1.04316 1.18135 0
M  V30 5266 C 502.487 0.775505 1.69832 0
M  V30 5267 C 502.838 -0.703348 1.8316 0
M  V30 5268 O 501.963 -1.54729 1.51287 0
M  V30 5269 C 502.558 1.40112 3.0847 0
M  V30 5270 C 501.117 1.18172 3.57368 0
M  V30 5271 C 500.264 1.49022 2.33854 0
M  V30 5272 H 503.215 1.20925 1.02775 0
M  V30 5273 H 503.236 0.805672 3.71873 0
M  V30 5274 H 502.748 2.47744 2.98738 0
M  V30 5275 H 500.849 0.124258 3.72393 0
M  V30 5276 H 500.962 1.8805 4.40652 0
M  V30 5277 H 499.326 0.909995 2.37889 0
M  V30 5278 H 500.109 2.57768 2.26738 0
M  V30 5279 N 502.554 -1.34406 0.822964 0
M  V30 5280 C 503.484 -2.32052 0.259608 0
M  V30 5281 C 504.465 -1.58243 -0.623961 0
M  V30 5282 O 505.65 -1.86224 -0.55083 0
M  V30 5283 C 502.78 -3.42434 -0.579314 0
M  V30 5284 C 501.734 -4.27499 0.20712 0
M  V30 5285 C 501.06 -5.29349 -0.754547 0
M  V30 5286 C 502.36 -5.02758 1.41533 0
M  V30 5287 H 504.054 -2.79418 1.07545 0
M  V30 5288 H 501.6 -1.34338 0.518593 0
M  V30 5289 H 503.553 -4.0976 -0.983612 0
M  V30 5290 H 502.277 -2.93717 -1.4282 0
M  V30 5291 H 500.936 -3.61776 0.592787 0
M  V30 5292 H 500.584 -4.76895 -1.59939 0
M  V30 5293 H 500.284 -5.8714 -0.232561 0
M  V30 5294 H 501.808 -5.99544 -1.1567 0
M  V30 5295 H 503.222 -5.62938 1.08504 0
M  V30 5296 H 501.619 -5.70123 1.87296 0
M  V30 5297 H 502.689 -4.32451 2.1935 0
M  V30 5298 N 504.032 -0.577932 -1.46621 0
M  V30 5299 C 505.26 -0.0671642 -2.06791 0
M  V30 5300 C 505.675 1.23571 -1.42743 0
M  V30 5301 O 505.032 1.74602 -0.531062 0
M  V30 5302 C 505.083 0.110357 -3.61332 0
M  V30 5303 O 504.804 -1.14095 -4.22982 0
M  V30 5304 C 506.305 0.656025 -4.38419 0
M  V30 5305 H 503.525 -0.0552732 -0.66872 0
M  V30 5306 H 506.069 -0.797242 -1.8832 0
M  V30 5307 H 504.224 0.790637 -3.79246 0
M  V30 5308 H 504.638 -0.951742 -5.15793 0
M  V30 5309 H 506.112 0.729438 -5.47159 0
M  V30 5310 H 506.589 1.67195 -4.06131 0
M  V30 5311 H 507.195 0.0107692 -4.25299 0
M  V30 5312 N 505.51 1.54411 -0.315457 0
M  V30 5313 C 506.757 2.00419 0.289543 0
M  V30 5314 C 507.085 1.20373 1.52776 0
M  V30 5315 O 506.34 0.271769 1.93804 0
M  V30 5316 C 506.639 3.50936 0.676652 0
M  V30 5317 C 506.305 4.48532 -0.461472 0
M  V30 5318 C 504.967 4.74936 -0.773879 0
M  V30 5319 C 507.319 5.06567 -1.22637 0
M  V30 5320 C 504.647 5.56634 -1.85405 0
M  V30 5321 C 506.999 5.89441 -2.29657 0
M  V30 5322 C 505.663 6.1415 -2.61488 0
M  V30 5323 H 504.933 0.733386 0.105951 0
M  V30 5324 H 507.58 1.86434 -0.437554 0
M  V30 5325 H 505.885 3.62606 1.48405 0
M  V30 5326 H 507.582 3.83971 1.15618 0
M  V30 5327 H 504.172 4.28096 -0.207893 0
M  V30 5328 H 508.356 4.86157 -0.998271 0
M  V30 5329 H 503.612 5.74012 -2.10523 0
M  V30 5330 H 507.786 6.33432 -2.89374 0
M  V30 5331 H 505.413 6.77245 -3.45317 0
M  V30 5332 N 506.988 0.0434614 1.5754 0
M  V30 5333 C 507.918 -0.931651 2.14109 0
M  V30 5334 C 508.899 -1.32971 1.06079 0
M  V30 5335 O 510.084 -1.40579 1.33982 0
M  V30 5336 C 507.214 -2.20914 2.67982 0
M  V30 5337 C 506.168 -1.95139 3.80926 0
M  V30 5338 C 505.494 -3.29276 4.21285 0
M  V30 5339 C 506.794 -1.27913 5.06395 0
M  V30 5340 H 508.488 -0.460497 2.95837 0
M  V30 5341 H 506.034 -0.220058 1.42309 0
M  V30 5342 H 507.987 -2.89522 3.06194 0
M  V30 5343 H 506.711 -2.70221 1.83434 0
M  V30 5344 H 505.37 -1.28945 3.43175 0
M  V30 5345 H 505.018 -3.76369 3.33699 0
M  V30 5346 H 504.718 -3.12831 4.97404 0
M  V30 5347 H 506.242 -3.99129 4.62091 0
M  V30 5348 H 507.656 -1.86544 5.42102 0
M  V30 5349 H 506.053 -1.2182 5.87605 0
M  V30 5350 H 507.123 -0.254066 4.84234 0
M  V30 5351 N 508.466 -1.55915 -0.229846 0
M  V30 5352 C 509.877 -1.68809 -0.797531 0
M  V30 5353 C 510.228 -0.643995 -1.8533 0
M  V30 5354 O 509.353 0.206492 -2.15413 0
M  V30 5355 C 509.948 -3.06043 -1.45338 0
M  V30 5356 C 508.507 -3.20819 -1.96856 0
M  V30 5357 C 507.654 -2.6472 -0.825736 0
M  V30 5358 H 510.605 -1.58699 -0.00533733 0
M  V30 5359 H 510.626 -3.01438 -2.32196 0
M  V30 5360 H 510.138 -3.82012 -0.684743 0
M  V30 5361 H 508.239 -2.49704 -2.76548 0
M  V30 5362 H 508.352 -4.27937 -2.15423 0
M  V30 5363 H 506.716 -2.22985 -1.23084 0
M  V30 5364 H 507.499 -3.43229 -0.0699019 0
M  V30 5365 N 509.944 0.496216 -1.49584 0
M  V30 5366 C 511.192 1.24756 -1.58998 0
M  V30 5367 C 511.513 1.92968 -0.280775 0
M  V30 5368 O 510.783 1.82959 0.700198 0
M  V30 5369 H 509.363 0.463471 -0.585836 0
M  V30 5370 H 512.025 0.574678 -1.86235 0
M  V30 5371 H 511.121 2.00895 -2.38847 0
M  V30 5372 N 511.423 1.38739 0.74761 0
M  V30 5373 C 512.648 1.38702 1.54197 0
M  V30 5374 C 513.073 -0.019664 1.8809 0
M  V30 5375 O 512.431 -1.00333 1.51006 0
M  V30 5376 C 512.479 2.25492 2.814 0
M  V30 5377 O 511.583 1.67613 3.76802 0
M  V30 5378 H 510.924 0.472863 0.466151 0
M  V30 5379 H 513.454 1.82577 0.923413 0
M  V30 5380 H 513.464 2.39561 3.30264 0
M  V30 5381 H 512.139 3.27727 2.56062 0
M  V30 5382 H 510.716 1.62718 3.35526 0
M  V30 5383 N 512.901 -0.976442 1.23707 0
M  V30 5384 C 513.849 -2.09078 1.01927 0
M  V30 5385 C 514.843 -1.69345 -0.0430193 0
M  V30 5386 O 516.049 -1.79659 0.110814 0
M  V30 5387 H 512.424 -0.68398 0.312531 0
M  V30 5388 H 514.395 -2.24614 1.96447 0
M  V30 5389 C 513.144 -3.41919 0.631385 0
M  V30 5390 H 512.467 -3.72946 1.44053 0
M  V30 5391 H 513.907 -4.20817 0.518532 0
M  V30 5392 C 512.366 -3.30357 -0.660723 0
M  V30 5393 O 512.896 -3.63542 -1.70881 0
M  V30 5394 N 511.102 -2.83507 -0.638139 0
M  V30 5395 H 510.649 -2.567 0.215108 0
M  V30 5396 H 510.607 -2.76153 -1.50289 0
M  V30 5397 N 514.379 -1.04941 -1.1758 0
M  V30 5398 C 515.327 -0.64204 -2.23563 0
M  V30 5399 C 516.321 0.335453 -1.66045 0
M  V30 5400 O 517.527 0.20179 -1.78865 0
M  V30 5401 H 513.902 -0.18944 -0.727748 0
M  V30 5402 H 515.873 -1.54609 -2.55223 0
M  V30 5403 C 514.622 -0.0301051 -3.47687 0
M  V30 5404 H 513.945 -0.773339 -3.92249 0
M  V30 5405 H 515.385 0.217592 -4.23441 0
M  V30 5406 C 513.844 1.2225 -3.13937 0
M  V30 5407 O 514.374 2.3122 -3.28482 0
M  V30 5408 N 512.58 1.11917 -2.68185 0
M  V30 5409 H 512.127 0.232403 -2.5655 0
M  V30 5410 H 512.085 1.95814 -2.45976 0
M  V30 5411 N 515.857 1.33968 -0.830081 0
M  V30 5412 C 516.789 2.28194 -0.21448 0
M  V30 5413 C 517.802 1.5135 0.599752 0
M  V30 5414 O 518.991 1.73286 0.42826 0
M  V30 5415 C 516.091 3.31221 0.717356 0
M  V30 5416 C 515.264 4.37365 -0.055613 0
M  V30 5417 C 514.323 5.2011 0.798231 0
M  V30 5418 O 513.349 5.68691 0.240616 0
M  V30 5419 N 514.551 5.40523 2.11695 0
M  V30 5420 H 517.316 2.81662 -1.02405 0
M  V30 5421 H 514.877 1.46568 -0.687713 0
M  V30 5422 H 516.869 3.83477 1.29334 0
M  V30 5423 H 515.439 2.78095 1.42765 0
M  V30 5424 H 514.659 3.85727 -0.812936 0
M  V30 5425 H 515.947 5.05397 -0.587444 0
M  V30 5426 H 515.345 5.0274 2.59363 0
M  V30 5427 H 513.902 5.95871 2.64162 0
M  V30 5428 N 517.335 0.585699 1.46312 0
M  V30 5429 C 518.582 0.0724211 2.0237 0
M  V30 5430 C 518.91 -1.28868 1.45683 0
M  V30 5431 O 518.165 -1.85853 0.612945 0
M  V30 5432 C 518.464 -0.0401312 3.57377 0
M  V30 5433 C 518.13 1.25376 4.33119 0
M  V30 5434 C 516.792 1.60824 4.5353 0
M  V30 5435 C 519.144 2.10987 4.76586 0
M  V30 5436 C 516.472 2.81676 5.14661 0
M  V30 5437 C 518.824 3.31068 5.39052 0
M  V30 5438 C 517.488 3.66794 5.5769 0
M  V30 5439 H 516.758 0.0265007 0.740526 0
M  V30 5440 H 519.405 0.762935 1.75646 0
M  V30 5441 H 517.71 -0.813791 3.83255 0
M  V30 5442 H 519.407 -0.453078 3.98432 0
M  V30 5443 H 515.997 0.967808 4.1753 0
M  V30 5444 H 520.181 1.84904 4.60569 0
M  V30 5445 H 515.437 3.0949 5.27282 0
M  V30 5446 H 519.611 3.97672 5.71691 0
M  V30 5447 H 517.238 4.60529 6.04828 0
M  V30 5448 N 518.813 -1.54241 0.323641 0
M  V30 5449 C 520.062 -1.9975 -0.279806 0
M  V30 5450 C 520.375 -1.2156 -1.5324 0
M  V30 5451 O 521.581 -1.57447 -2.21185 0
M  V30 5452 C 520.037 -3.55686 -0.549115 0
M  V30 5453 C 519.645 -4.4271 0.686432 0
M  V30 5454 C 521.389 -4.09663 -1.11251 0
M  V30 5455 C 519.296 -5.90119 0.389022 0
M  V30 5456 H 518.226 -0.746177 -0.10833 0
M  V30 5457 H 520.877 -1.78248 0.435877 0
M  V30 5458 H 519.259 -3.73176 -1.32499 0
M  V30 5459 H 520.433 -4.36996 1.46188 0
M  V30 5460 H 518.748 -3.99623 1.17005 0
M  V30 5461 H 521.345 -5.17386 -1.34965 0
M  V30 5462 H 521.688 -3.61651 -2.06191 0
M  V30 5463 H 522.221 -3.95806 -0.39782 0
M  V30 5464 H 518.96 -6.42326 1.30759 0
M  V30 5465 H 518.48 -5.98785 -0.348722 0
M  V30 5466 H 520.159 -6.47 -0.0011164 0
M  V30 5467 N 520.291 -0.0518155 -1.57515 0
M  V30 5468 C 521.537 0.616839 -1.93821 0
M  V30 5469 C 521.892 1.68413 -0.930307 0
M  V30 5470 O 521.185 1.91534 0.0504231 0
M  V30 5471 C 521.379 1.25607 -3.34601 0
M  V30 5472 C 521.208 0.252222 -4.48992 0
M  V30 5473 C 519.978 -0.156031 -5.05059 0
M  V30 5474 C 522.176 -0.502613 -5.11838 0
M  V30 5475 N 520.158 -1.15267 -6.02981 0
M  V30 5476 C 521.529 -1.35232 -6.05072 0
M  V30 5477 C 523.584 -0.560855 -4.94731 0
M  V30 5478 C 522.287 -2.25505 -6.83037 0
M  V30 5479 C 524.313 -1.45102 -5.73323 0
M  V30 5480 C 523.675 -2.28845 -6.6619 0
M  V30 5481 H 519.774 0.197344 -0.75669 0
M  V30 5482 H 522.358 -0.124297 -1.94303 0
M  V30 5483 H 520.529 1.96723 -3.34895 0
M  V30 5484 H 522.261 1.88358 -3.58195 0
M  V30 5485 H 519.016 0.22306 -4.73074 0
M  V30 5486 H 519.44 -1.64791 -6.56638 0
M  V30 5487 H 524.082 0.0723639 -4.22738 0
M  V30 5488 H 521.8 -2.89872 -7.54321 0
M  V30 5489 H 525.386 -1.50066 -5.62113 0
M  V30 5490 H 524.266 -2.96608 -7.25943 0
M  V30 5491 N 521.769 1.56035 0.221574 0
M  V30 5492 C 522.701 1.889 1.29805 0
M  V30 5493 C 523.714 0.777269 1.43047 0
M  V30 5494 O 524.903 1.05557 1.43945 0
M  V30 5495 C 522.003 2.0825 2.67367 0
M  V30 5496 C 521.176 3.39267 2.76073 0
M  V30 5497 C 520.235 3.48049 3.94649 0
M  V30 5498 O 519.261 4.2108 3.82988 0
M  V30 5499 N 520.463 2.79191 5.08953 0
M  V30 5500 H 523.228 2.81831 1.01938 0
M  V30 5501 H 520.789 1.5658 0.411612 0
M  V30 5502 H 522.781 2.11441 3.45072 0
M  V30 5503 H 521.351 1.21944 2.87834 0
M  V30 5504 H 520.571 3.48175 1.84846 0
M  V30 5505 H 521.859 4.25575 2.7886 0
M  V30 5506 H 521.257 2.19635 5.21322 0
M  V30 5507 H 519.814 2.88043 5.84701 0
M  V30 5508 N 523.247 -0.488276 1.49845 0
M  V30 5509 C 524.472 -1.26997 1.63971 0
M  V30 5510 C 524.897 -1.85427 0.315994 0
M  V30 5511 O 524.255 -1.66475 -0.718032 0
M  V30 5512 C 524.303 -2.36689 2.72049 0
M  V30 5513 O 523.407 -3.40882 2.32107 0
M  V30 5514 H 522.748 -0.374376 0.548396 0
M  V30 5515 H 525.278 -0.583104 1.96115 0
M  V30 5516 H 525.288 -2.82262 2.94605 0
M  V30 5517 H 523.963 -1.93529 3.68129 0
M  V30 5518 H 522.54 -3.01139 2.19931 0
M  V30 5519 N 524.725 -1.39134 -0.740242 0
M  V30 5520 C 526.141 -1.20623 -1.0451 0
M  V30 5521 C 526.341 -0.0641651 -2.01398 0
M  V30 5522 O 525.397 0.585843 -2.4561 0
M  V30 5523 C 526.71 -2.53815 -1.6124 0
M  V30 5524 C 528.258 -2.60615 -1.73346 0
M  V30 5525 C 528.733 -3.94015 -2.33486 0
M  V30 5526 N 530.224 -3.95627 -2.40902 0
M  V30 5527 C 530.959 -4.95616 -2.88361 0
M  V30 5528 N 530.455 -6.06003 -3.35756 0
M  V30 5529 N 532.248 -4.82998 -2.87523 0
M  V30 5530 H 524.399 -2.12176 -0.0975576 0
M  V30 5531 H 526.662 -0.942066 -0.105904 0
M  V30 5532 H 526.368 -3.37911 -0.975144 0
M  V30 5533 H 526.242 -2.73162 -2.6012 0
M  V30 5534 H 528.629 -1.76906 -2.36195 0
M  V30 5535 H 528.71 -2.45123 -0.731336 0
M  V30 5536 H 528.354 -4.78153 -1.71267 0
M  V30 5537 H 528.284 -4.06825 -3.34366 0
M  V30 5538 H 530.775 -3.15903 -2.07398 0
M  V30 5539 H 531.088 -6.78215 -3.70464 0
M  V30 5540 H 529.433 -6.09604 -3.33778 0
M  V30 5541 H 532.624 -3.95866 -2.49816 0
M  V30 5542 H 532.797 -5.61072 -3.24196 0
M  V30 5543 N 526.204 0.969867 -1.24223 0
M  V30 5544 C 527.62 1.23809 -1.00716 0
M  V30 5545 C 527.82 1.99469 0.285358 0
M  V30 5546 O 526.876 2.31764 1.00207 0
M  V30 5547 C 528.189 2.02734 -2.2208 0
M  V30 5548 C 529.737 2.15834 -2.26681 0
M  V30 5549 C 530.212 2.98154 -3.47661 0
M  V30 5550 N 531.703 3.05737 -3.47964 0
M  V30 5551 C 532.438 3.69785 -4.38231 0
M  V30 5552 N 531.934 4.35569 -5.3875 0
M  V30 5553 N 533.727 3.66775 -4.25949 0
M  V30 5554 H 525.878 0.463294 -2.07286 0
M  V30 5555 H 528.141 0.267348 -0.909521 0
M  V30 5556 H 527.847 1.54524 -3.15935 0
M  V30 5557 H 527.721 3.0347 -2.24021 0
M  V30 5558 H 530.108 2.63248 -1.33359 0
M  V30 5559 H 530.189 1.14453 -2.28767 0
M  V30 5560 H 529.833 2.51435 -4.41297 0
M  V30 5561 H 529.763 3.99729 -3.42818 0
M  V30 5562 H 532.254 2.58941 -2.75242 0
M  V30 5563 H 532.567 4.82251 -6.03866 0
M  V30 5564 H 530.912 4.34244 -5.42639 0
M  V30 5565 H 534.103 3.14558 -3.46657 0
M  V30 5566 H 534.276 4.16407 -4.96497 0
M  V30 5567 N 527.682 1.05563 1.17022 0
M  V30 5568 C 528.959 0.68165 1.83338 0
M  V30 5569 C 529.339 -0.837665 1.93769 0
M  V30 5570 O 528.687 -1.74507 1.47511 0
M  V30 5571 C 528.897 1.375 3.20772 0
M  V30 5572 C 530.245 1.51545 3.96635 0
M  V30 5573 O 531.269 1.33431 3.30264 0
M  V30 5574 O 530.128 1.812 5.15586 0
M  V30 5575 H 527.222 0.240412 0.791285 0
M  V30 5576 H 529.768 1.15545 1.24288 0
M  V30 5577 H 528.54 2.41135 3.08171 0
M  V30 5578 H 528.163 0.890798 3.87493 0
M  V30 5579 N 529.16 -1.33526 0.837174 0
M  V30 5580 C 530.408 -1.97446 0.431211 0
M  V30 5581 C 530.729 -1.6665 -1.01255 0
M  V30 5582 O 529.999 -0.964559 -1.70508 0
M  V30 5583 H 528.579 -0.73043 0.156463 0
M  V30 5584 H 531.241 -1.62918 1.06976 0
M  V30 5585 H 530.337 -3.07001 0.561877 0
M  V30 5586 N 530.638 -0.59345 -1.46 0
M  V30 5587 C 531.884 -0.0916503 -2.03193 0
M  V30 5588 C 532.239 1.25839 -1.45541 0
M  V30 5589 O 531.532 1.81455 -0.615191 0
M  V30 5590 C 531.726 0.021178 -3.57394 0
M  V30 5591 C 531.555 -1.31638 -4.30002 0
M  V30 5592 C 530.325 -1.89336 -4.68487 0
M  V30 5593 C 532.523 -2.242 -4.62859 0
M  V30 5594 N 530.505 -3.1672 -5.25891 0
M  V30 5595 C 531.876 -3.36175 -5.20948 0
M  V30 5596 C 533.931 -2.23748 -4.44794 0
M  V30 5597 C 532.634 -4.47844 -5.62875 0
M  V30 5598 C 534.66 -3.34454 -4.87744 0
M  V30 5599 C 534.022 -4.4515 -5.45913 0
M  V30 5600 H 530.121 -0.0765713 -0.778242 0
M  V30 5601 H 532.705 -0.788705 -1.7801 0
M  V30 5602 H 530.876 0.687423 -3.82268 0
M  V30 5603 H 532.608 0.528343 -4.01236 0
M  V30 5604 H 529.363 -1.42704 -4.51589 0
M  V30 5605 H 529.787 -3.81746 -5.59106 0
M  V30 5606 H 534.429 -1.39433 -3.99147 0
M  V30 5607 H 532.147 -5.32894 -6.07495 0
M  V30 5608 H 535.733 -3.35234 -4.75509 0
M  V30 5609 H 534.613 -5.29398 -5.78539 0
M  V30 5610 N 532.116 1.54067 -0.331816 0
M  V30 5611 C 533.064 2.26105 0.54582 0
M  V30 5612 C 534.058 1.27816 1.11173 0
M  V30 5613 O 535.264 1.45565 1.05882 0
M  V30 5614 H 531.639 0.726363 0.194683 0
M  V30 5615 H 533.61 2.98282 -0.083931 0
M  V30 5616 C 532.359 3.03814 1.69092 0
M  V30 5617 H 531.682 3.79269 1.26473 0
M  V30 5618 H 533.122 3.57453 2.28043 0
M  V30 5619 C 531.581 2.12606 2.61343 0
M  V30 5620 O 532.111 1.71437 3.6328 0
M  V30 5621 N 530.317 1.77925 2.29763 0
M  V30 5622 H 529.864 2.11602 1.46909 0
M  V30 5623 H 529.822 1.1718 2.91747 0
M  V30 5624 N 533.594 0.0601682 1.57485 0
M  V30 5625 C 534.544 -0.920969 2.08572 0
M  V30 5626 C 535.528 -1.26617 0.992827 0
M  V30 5627 O 536.72 -1.24708 1.25606 0
M  V30 5628 C 533.849 -2.19267 2.64153 0
M  V30 5629 C 532.935 -1.87447 3.80427 0
M  V30 5630 N 533.326 -1.26025 4.89848 0
M  V30 5631 C 531.624 -2.17265 3.89502 0
M  V30 5632 C 532.325 -1.12036 5.70809 0
M  V30 5633 N 531.301 -1.62624 5.18705 0
M  V30 5634 H 535.103 -0.441561 2.90564 0
M  V30 5635 H 532.617 -0.144043 1.6176 0
M  V30 5636 H 534.614 -2.90462 2.99061 0
M  V30 5637 H 533.274 -2.67806 1.83603 0
M  V30 5638 H 534.285 -0.931336 5.09457 0
M  V30 5639 H 530.962 -2.68262 3.19909 0
M  V30 5640 H 532.352 -0.642783 6.68818 0
M  V30 5641 N 535.072 -1.5615 -0.213296 0
M  V30 5642 C 536.002 -1.96109 -1.26742 0
M  V30 5643 C 536.983 -0.830448 -1.48451 0
M  V30 5644 O 538.168 -1.09339 -1.60495 0
M  V30 5645 C 535.298 -2.28492 -2.61551 0
M  V30 5646 C 534.252 -3.44124 -2.54485 0
M  V30 5647 C 533.578 -3.62134 -3.93399 0
M  V30 5648 C 534.878 -4.78855 -2.08556 0
M  V30 5649 H 536.572 -2.84412 -0.935434 0
M  V30 5650 H 534.118 -1.36836 -0.44854 0
M  V30 5651 H 536.071 -2.55039 -3.3546 0
M  V30 5652 H 534.795 -1.37052 -2.96453 0
M  V30 5653 H 533.454 -3.17639 -1.83033 0
M  V30 5654 H 533.102 -2.68055 -4.25623 0
M  V30 5655 H 532.802 -4.39913 -3.89551 0
M  V30 5656 H 534.326 -3.91038 -4.68958 0
M  V30 5657 H 535.74 -5.04552 -2.72213 0
M  V30 5658 H 534.137 -5.59975 -2.1575 0
M  V30 5659 H 535.207 -4.73657 -1.03811 0
M  V30 5660 N 536.55 0.480323 -1.50102 0
M  V30 5661 C 537.78 1.25475 -1.64133 0
M  V30 5662 C 538.188 1.8647 -0.320272 0
M  V30 5663 O 537.531 1.69561 0.70673 0
M  V30 5664 C 537.593 2.40996 -2.6676 0
M  V30 5665 C 537.257 2.00711 -4.10565 0
M  V30 5666 C 538.254 1.53492 -4.96725 0
M  V30 5667 C 535.939 2.09714 -4.56427 0
M  V30 5668 C 537.933 1.15806 -6.26792 0
M  V30 5669 C 535.62 1.7164 -5.86501 0
M  V30 5670 C 536.618 1.24763 -6.71508 0
M  V30 5671 O 536.306 0.872122 -7.99155 0
M  V30 5672 H 536.038 0.385983 -0.554971 0
M  V30 5673 H 538.592 0.580848 -1.97016 0
M  V30 5674 H 536.822 3.11528 -2.291 0
M  V30 5675 H 538.511 3.02981 -2.70106 0
M  V30 5676 H 539.277 1.45966 -4.62514 0
M  V30 5677 H 535.156 2.4515 -3.90413 0
M  V30 5678 H 538.7 0.791465 -6.93096 0
M  V30 5679 H 534.597 1.78822 -6.20236 0
M  V30 5680 H 535.365 1.00178 -8.12346 0
M  V30 5681 N 538.028 1.39524 0.732853 0
M  V30 5682 C 538.958 1.41153 1.86005 0
M  V30 5683 C 539.939 0.274614 1.67869 0
M  V30 5684 O 541.124 0.480745 1.88155 0
M  V30 5685 C 538.254 1.25638 3.23778 0
M  V30 5686 C 537.208 2.36752 3.56556 0
M  V30 5687 C 536.534 2.06326 4.93289 0
M  V30 5688 C 537.834 3.79069 3.5931 0
M  V30 5689 H 539.528 2.35484 1.84899 0
M  V30 5690 H 537.074 1.13348 0.888162 0
M  V30 5691 H 539.027 1.25398 4.0231 0
M  V30 5692 H 537.751 0.277772 3.25417 0
M  V30 5693 H 536.41 2.36213 2.80355 0
M  V30 5694 H 536.058 1.06897 4.9151 0
M  V30 5695 H 535.758 2.80757 5.16187 0
M  V30 5696 H 537.282 2.07739 5.74175 0
M  V30 5697 H 538.696 3.81526 4.27914 0
M  V30 5698 H 537.093 4.52878 3.93728 0
M  V30 5699 H 538.163 4.09893 2.59068 0
M  V30 5700 N 539.506 -0.963266 1.24736 0
M  V30 5701 C 540.736 -1.73913 1.11524 0
M  V30 5702 C 541.144 -1.86218 -0.334612 0
M  V30 5703 O 540.487 -1.3531 -1.24245 0
M  V30 5704 C 540.549 -3.17501 1.68622 0
M  V30 5705 C 540.213 -3.28655 3.17546 0
M  V30 5706 C 541.21 -3.13637 4.14642 0
M  V30 5707 C 538.895 -3.52753 3.5759 0
M  V30 5708 C 540.889 -3.2255 5.49764 0
M  V30 5709 C 538.576 -3.61303 4.92852 0
M  V30 5710 C 539.574 -3.46214 5.88748 0
M  V30 5711 O 539.262 -3.5443 7.2155 0
M  V30 5712 H 538.994 -0.552057 0.390139 0
M  V30 5713 H 541.548 -1.2177 1.65412 0
M  V30 5714 H 539.778 -3.70969 1.09172 0
M  V30 5715 H 541.467 -3.76914 1.50635 0
M  V30 5716 H 542.233 -2.94899 3.85045 0
M  V30 5717 H 538.112 -3.63561 2.83451 0
M  V30 5718 H 541.656 -3.1069 6.24594 0
M  V30 5719 H 537.553 -3.79556 5.22118 0
M  V30 5720 H 538.321 -3.71116 7.29531 0
M  V30 5721 N 540.985 -1.06182 -1.16461 0
M  V30 5722 C 542.262 -0.691364 -1.82974 0
M  V30 5723 C 542.642 0.827377 -1.9421 0
M  V30 5724 O 541.99 1.73723 -1.48434 0
M  V30 5725 C 542.2 -1.39199 -3.20038 0
M  V30 5726 C 543.548 -1.53647 -3.95825 0
M  V30 5727 O 544.572 -1.35181 -3.29552 0
M  V30 5728 O 543.431 -1.83932 -5.14618 0
M  V30 5729 H 540.525 -0.244605 -0.789998 0
M  V30 5730 H 543.071 -1.16203 -1.23673 0
M  V30 5731 H 541.843 -2.42766 -3.06888 0
M  V30 5732 H 541.466 -0.911335 -3.87015 0
M  V30 5733 N 542.463 1.3308 -0.844243 0
M  V30 5734 C 543.691 2.01808 -0.456203 0
M  V30 5735 C 544.106 1.63498 0.944131 0
M  V30 5736 O 543.463 0.85102 1.61443 0
M  V30 5737 C 543.514 3.56922 -0.573513 0
M  V30 5738 O 543.235 3.93851 -1.91868 0
M  V30 5739 C 544.736 4.42922 -0.183125 0
M  V30 5740 H 541.956 0.646273 -0.180477 0
M  V30 5741 H 544.5 1.69891 -1.1383 0
M  V30 5742 H 542.655 3.87352 0.0607367 0
M  V30 5743 H 543.069 4.88564 -1.90802 0
M  V30 5744 H 544.543 5.51093 -0.316241 0
M  V30 5745 H 545.02 4.30386 0.875477 0
M  V30 5746 H 545.626 4.1786 -0.792027 0
M  V30 5747 N 543.941 0.601185 1.45683 0
M  V30 5748 C 545.169 0.100054 2.06658 0
M  V30 5749 C 545.584 -1.21285 1.44691 0
M  V30 5750 O 544.941 -1.73735 0.558772 0
M  V30 5751 C 544.992 -0.0528579 3.61461 0
M  V30 5752 O 544.713 1.20809 4.21114 0
M  V30 5753 C 546.214 -0.586193 4.39407 0
M  V30 5754 H 543.434 0.065905 0.667756 0
M  V30 5755 H 545.978 0.827101 1.87028 0
M  V30 5756 H 544.133 -0.730203 3.80456 0
M  V30 5757 H 544.547 1.03368 5.14213 0
M  V30 5758 H 546.021 -0.642297 5.4825 0
M  V30 5759 H 546.498 -1.60713 4.0874 0
M  V30 5760 H 547.104 0.0568935 4.25262 0
M  V30 5761 N 545.419 -1.53889 0.339982 0
M  V30 5762 C 546.667 -2.00458 -0.257112 0
M  V30 5763 C 546.988 -1.22953 -1.51353 0
M  V30 5764 O 546.258 -0.335734 -1.93002 0
M  V30 5765 H 544.838 -0.740544 -0.0979965 0
M  V30 5766 H 547.5 -1.89386 0.460317 0
M  V30 5767 H 546.596 -3.08035 -0.502057 0
M  V30 5768 N 546.897 -0.0685191 -1.57451 0
M  V30 5769 C 548.313 0.288101 -1.56978 0
M  V30 5770 C 548.513 1.70262 -1.07765 0
M  V30 5771 O 547.569 2.4135 -0.742054 0
M  V30 5772 C 548.882 0.100745 -3.00531 0
M  V30 5773 C 550.43 0.170531 -3.12535 0
M  V30 5774 C 550.905 0.0114944 -4.57999 0
M  V30 5775 N 552.396 0.0672065 -4.63151 0
M  V30 5776 C 553.131 -0.0314813 -5.73391 0
M  V30 5777 N 552.627 -0.183503 -6.92557 0
M  V30 5778 N 554.42 0.0253489 -5.62094 0
M  V30 5779 H 546.571 -0.993026 -1.87757 0
M  V30 5780 H 548.834 -0.386981 -0.865419 0
M  V30 5781 H 548.54 -0.875197 -3.40636 0
M  V30 5782 H 548.414 0.854457 -3.67395 0
M  V30 5783 H 550.801 1.13696 -2.72318 0
M  V30 5784 H 550.882 -0.614229 -2.48316 0
M  V30 5785 H 550.526 -0.951684 -4.98904 0
M  V30 5786 H 550.456 0.815617 -5.20245 0
M  V30 5787 H 552.947 0.183246 -3.77455 0
M  V30 5788 H 553.26 -0.251041 -7.72392 0
M  V30 5789 H 551.605 -0.218822 -6.94655 0
M  V30 5790 H 554.796 0.142794 -4.67882 0
M  V30 5791 H 554.969 -0.0550166 -6.47977 0
M  V30 5792 N 548.375 1.56261 0.205012 0
M  V30 5793 C 549.305 1.96779 1.257 0
M  V30 5794 C 550.286 0.838309 1.48008 0
M  V30 5795 O 551.471 1.10189 1.59913 0
M  V30 5796 C 548.601 2.29876 2.60335 0
M  V30 5797 C 547.555 3.45469 2.52656 0
M  V30 5798 C 546.881 3.64215 3.91473 0
M  V30 5799 C 548.181 4.79954 2.06014 0
M  V30 5800 H 549.875 2.84904 0.920338 0
M  V30 5801 H 547.421 1.37072 0.441277 0
M  V30 5802 H 549.374 2.56814 3.34102 0
M  V30 5803 H 548.098 1.38622 2.95722 0
M  V30 5804 H 546.757 3.18605 1.81345 0
M  V30 5805 H 546.405 2.70309 4.24196 0
M  V30 5806 H 546.105 4.41973 3.87213 0
M  V30 5807 H 547.629 3.93519 4.66878 0
M  V30 5808 H 549.043 5.05989 2.69533 0
M  V30 5809 H 547.44 5.61111 2.12777 0
M  V30 5810 H 548.51 4.74201 1.01297 0
M  V30 5811 N 549.853 -0.472356 1.50355 0
M  V30 5812 C 551.102 -1.2213 1.60522 0
M  V30 5813 C 551.415 -1.9312 0.310466 0
M  V30 5814 O 552.621 -2.69936 0.291029 0
M  V30 5815 C 551.077 -2.21909 2.83345 0
M  V30 5816 C 550.685 -1.56727 4.19691 0
M  V30 5817 C 552.429 -2.97453 3.02856 0
M  V30 5818 C 550.336 -2.54785 5.33703 0
M  V30 5819 H 549.266 -0.459543 0.597776 0
M  V30 5820 H 551.917 -0.491922 1.76783 0
M  V30 5821 H 550.299 -2.98133 2.60639 0
M  V30 5822 H 551.473 -0.863007 4.52646 0
M  V30 5823 H 549.788 -0.934685 4.05774 0
M  V30 5824 H 552.385 -3.70838 3.85205 0
M  V30 5825 H 552.728 -3.56764 2.14534 0
M  V30 5826 H 553.261 -2.28342 3.25737 0
M  V30 5827 H 550 -2.00214 6.24175 0
M  V30 5828 H 549.52 -3.23367 5.05167 0
M  V30 5829 H 551.199 -3.16639 5.64224 0
M  V30 5830 N 551.331 -1.39911 -0.725443 0
M  V30 5831 C 552.747 -1.21725 -1.03224 0
M  V30 5832 C 552.947 -0.0855224 -2.01318 0
M  V30 5833 O 552.003 0.55976 -2.46217 0
M  V30 5834 C 553.316 -2.55511 -1.58539 0
M  V30 5835 C 554.864 -2.62439 -1.70572 0
M  V30 5836 C 555.339 -3.9647 -2.29294 0
M  V30 5837 N 556.83 -3.98159 -2.36692 0
M  V30 5838 C 557.565 -4.98647 -2.83088 0
M  V30 5839 N 557.061 -6.0953 -3.2931 0
M  V30 5840 N 558.854 -4.8602 -2.82384 0
M  V30 5841 H 551.005 -2.12267 -0.075048 0
M  V30 5842 H 553.268 -0.943136 -0.0959066 0
M  V30 5843 H 552.974 -3.38926 -0.939249 0
M  V30 5844 H 552.848 -2.75905 -2.57208 0
M  V30 5845 H 555.235 -1.79401 -2.34306 0
M  V30 5846 H 555.316 -2.45885 -0.705297 0
M  V30 5847 H 554.96 -4.79942 -1.66186 0
M  V30 5848 H 554.89 -4.10349 -3.30032 0
M  V30 5849 H 557.381 -3.18085 -2.04035 0
M  V30 5850 H 557.694 -6.82106 -3.6325 0
M  V30 5851 H 556.039 -6.1311 -3.27294 0
M  V30 5852 H 559.23 -3.98493 -2.45603 0
M  V30 5853 H 559.403 -5.64478 -3.18226 0
M  V30 5854 N 552.809 0.956637 -1.25245 0
M  V30 5855 C 553.741 2.05628 -1.01242 0
M  V30 5856 C 554.754 1.62785 0.0219579 0
M  V30 5857 O 555.943 1.77184 -0.216365 0
M  V30 5858 C 553.043 3.35069 -0.508161 0
M  V30 5859 C 552.216 4.06761 -1.60823 0
M  V30 5860 C 551.275 5.14473 -1.1047 0
M  V30 5861 O 550.301 5.40033 -1.79868 0
M  V30 5862 N 551.503 5.80474 0.0550773 0
M  V30 5863 H 554.268 2.2679 -1.95925 0
M  V30 5864 H 551.829 1.12505 -1.16423 0
M  V30 5865 H 553.821 4.044 -0.155819 0
M  V30 5866 H 552.391 3.10694 0.344683 0
M  V30 5867 H 551.611 3.31555 -2.13224 0
M  V30 5868 H 552.899 4.51418 -2.34733 0
M  V30 5869 H 552.297 5.62125 0.635004 0
M  V30 5870 H 550.854 6.50868 0.348469 0
M  V30 5871 N 554.287 1.06798 1.15896 0
M  V30 5872 C 555.533 0.788934 1.86825 0
M  V30 5873 C 555.866 -0.683084 1.8179 0
M  V30 5874 O 555.141 -1.50086 1.23711 0
M  V30 5875 C 555.424 1.29065 3.36176 0
M  V30 5876 C 555.277 2.8268 3.49874 0
M  V30 5877 C 556.596 0.902655 4.30744 0
M  V30 5878 H 553.715 0.288066 0.678371 0
M  V30 5879 H 556.357 1.32479 1.36195 0
M  V30 5880 H 554.507 0.834806 3.79425 0
M  V30 5881 H 556.179 3.36511 3.15528 0
M  V30 5882 H 554.422 3.21157 2.91617 0
M  V30 5883 H 555.093 3.12852 4.54783 0
M  V30 5884 H 557.569 1.29535 3.95424 0
M  V30 5885 H 556.445 1.28111 5.3374 0
M  V30 5886 H 556.706 -0.191951 4.41683 0
M  V30 5887 N 555.766 -1.3263 0.851289 0
M  V30 5888 C 556.994 -2.01563 0.466899 0
M  V30 5889 C 557.409 -1.63996 -0.935447 0
M  V30 5890 O 556.766 -0.85957 -1.6099 0
M  V30 5891 C 556.817 -3.56613 0.592433 0
M  V30 5892 O 556.538 -3.92828 1.93954 0
M  V30 5893 C 558.039 -4.42818 0.206612 0
M  V30 5894 H 555.259 -0.645307 0.183902 0
M  V30 5895 H 557.803 -1.69285 1.1473 0
M  V30 5896 H 555.958 -3.87379 -0.0401936 0
M  V30 5897 H 556.372 -4.87545 1.9339 0
M  V30 5898 H 557.846 -5.50918 0.345462 0
M  V30 5899 H 558.323 -4.30844 -0.85264 0
M  V30 5900 H 558.929 -4.17434 0.814176 0
M  V30 5901 N 557.244 -0.608902 -1.45362 0
M  V30 5902 C 558.191 0.109172 -2.30542 0
M  V30 5903 C 559.161 0.858704 -1.42181 0
M  V30 5904 O 560.346 0.844178 -1.71109 0
M  V30 5905 C 557.486 1.09971 -3.27109 0
M  V30 5906 C 556.599 0.350911 -4.30572 0
M  V30 5907 C 555.734 1.33129 -5.14247 0
M  V30 5908 C 554.773 0.570377 -6.09437 0
M  V30 5909 N 553.91 1.5001 -6.85887 0
M  V30 5910 H 558.75 -0.623195 -2.91411 0
M  V30 5911 H 556.287 -0.319122 -1.43597 0
M  V30 5912 H 558.245 1.68714 -3.81564 0
M  V30 5913 H 556.875 1.79947 -2.67991 0
M  V30 5914 H 555.927 -0.352054 -3.78767 0
M  V30 5915 H 557.239 -0.242725 -4.98209 0
M  V30 5916 H 556.393 1.99074 -5.73109 0
M  V30 5917 H 555.132 1.95885 -4.46632 0
M  V30 5918 H 554.137 -0.102702 -5.49704 0
M  V30 5919 H 555.362 -0.0521607 -6.7908 0
M  V30 5920 H 553.308 2.11529 -6.2096 0
M  V30 5921 H 553.225 0.959934 -7.49881 0
M  V30 5922 H 554.493 2.14909 -7.49289 0
M  V30 5923 N 558.722 1.53707 -0.348139 0
M  V30 5924 C 559.97 2.00591 0.246478 0
M  V30 5925 C 560.291 1.23753 1.50699 0
M  V30 5926 O 559.561 0.345964 1.92821 0
M  V30 5927 H 558.141 0.741053 0.0940679 0
M  V30 5928 H 560.803 1.89139 -0.470354 0
M  V30 5929 H 559.899 3.08297 0.485714 0
M  V30 5930 N 560.2 0.0768682 1.57412 0
M  V30 5931 C 561.11 -0.903207 2.16516 0
M  V30 5932 C 562.126 -1.32341 1.12968 0
M  V30 5933 O 563.302 -1.39507 1.45258 0
M  V30 5934 C 560.367 -2.1508 2.71922 0
M  V30 5935 C 559.428 -1.78653 3.90361 0
M  V30 5936 C 558.661 -2.97465 4.43114 0
M  V30 5937 O 558.884 -4.11638 3.94854 0
M  V30 5938 O 557.818 -2.76987 5.3438 0
M  V30 5939 H 561.644 -0.430427 3.00634 0
M  V30 5940 H 559.229 -0.146485 1.4868 0
M  V30 5941 H 561.111 -2.8823 3.07411 0
M  V30 5942 H 559.786 -2.61446 1.9086 0
M  V30 5943 H 558.693 -1.0274 3.59716 0
M  V30 5944 H 560.026 -1.37066 4.7273 0
M  V30 5945 N 561.678 -1.56367 -0.196722 0
M  V30 5946 C 562.924 -1.81698 -0.914182 0
M  V30 5947 C 563.279 -0.65367 -1.80956 0
M  V30 5948 O 562.572 0.351224 -1.88353 0
M  V30 5949 C 562.766 -3.10663 -1.767 0
M  V30 5950 C 562.595 -4.39428 -0.955689 0
M  V30 5951 C 561.365 -5.01221 -0.64076 0
M  V30 5952 C 563.563 -5.1337 -0.309165 0
M  V30 5953 N 561.545 -6.13608 0.189358 0
M  V30 5954 C 562.916 -6.18815 0.383225 0
M  V30 5955 C 564.971 -4.97393 -0.224726 0
M  V30 5956 C 563.674 -7.10015 1.15201 0
M  V30 5957 C 565.7 -5.89014 0.530658 0
M  V30 5958 C 565.062 -6.93903 1.2115 0
M  V30 5959 H 561.161 -0.716203 -0.31397 0
M  V30 5960 H 563.745 -1.93838 -0.18304 0
M  V30 5961 H 561.916 -2.99762 -2.46976 0
M  V30 5962 H 563.648 -3.24088 -2.42382 0
M  V30 5963 H 560.403 -4.63669 -0.96479 0
M  V30 5964 H 560.827 -6.74389 0.593979 0
M  V30 5965 H 565.469 -4.16331 -0.736754 0
M  V30 5966 H 563.187 -7.9054 1.67547 0
M  V30 5967 H 566.773 -5.78726 0.597326 0
M  V30 5968 H 565.653 -7.63576 1.78665 0
M  V30 5969 N 563.156 0.464375 -1.50603 0
M  V30 5970 C 564.066 1.58723 -1.72754 0
M  V30 5971 C 565.082 1.62925 -0.610844 0
M  V30 5972 O 566.258 1.8067 -0.889963 0
M  V30 5973 C 563.323 2.94897 -1.82309 0
M  V30 5974 C 562.384 3.0103 -3.06071 0
M  V30 5975 C 561.617 4.30708 -3.1516 0
M  V30 5976 O 561.84 5.2159 -2.30868 0
M  V30 5977 O 560.774 4.42571 -4.0794 0
M  V30 5978 H 564.6 1.42954 -2.67951 0
M  V30 5979 H 562.185 0.644579 -1.3478 0
M  V30 5980 H 564.067 3.75764 -1.90735 0
M  V30 5981 H 562.742 3.10851 -0.902967 0
M  V30 5982 H 561.649 2.19217 -3.03142 0
M  V30 5983 H 562.982 2.90014 -3.97684 0
M  V30 5984 N 564.634 1.40294 0.718013 0
M  V30 5985 C 565.88 1.38645 1.48005 0
M  V30 5986 C 566.213 -0.0121202 1.94196 0
M  V30 5987 O 565.488 -0.980309 1.67989 0
M  V30 5988 C 565.771 2.37379 2.70782 0
M  V30 5989 C 565.624 3.8625 2.30501 0
M  V30 5990 C 566.943 2.33685 3.72933 0
M  V30 5991 H 564.062 0.504928 0.536858 0
M  V30 5992 H 566.704 1.71411 0.819649 0
M  V30 5993 H 564.854 2.09568 3.27129 0
M  V30 5994 H 566.526 4.24879 1.79655 0
M  V30 5995 H 564.769 4.02202 1.6253 0
M  V30 5996 H 565.44 4.50847 3.18498 0
M  V30 5997 H 567.916 2.58314 3.2621 0
M  V30 5998 H 566.792 3.0482 4.56482 0
M  V30 5999 H 567.053 1.34765 4.21059 0
M  V30 6000 N 566.112 -0.949982 1.2575 0
M  V30 6001 C 567.34 -1.72972 1.13527 0
M  V30 6002 C 567.755 -1.8623 -0.310453 0
M  V30 6003 O 567.112 -1.36336 -1.2132 0
M  V30 6004 C 567.163 -3.14108 1.78936 0
M  V30 6005 O 566.884 -3.01493 3.17858 0
M  V30 6006 C 568.385 -4.08338 1.72554 0
M  V30 6007 H 565.605 -0.541864 0.395758 0
M  V30 6008 H 568.149 -1.19151 1.66202 0
M  V30 6009 H 566.304 -3.64858 1.30221 0
M  V30 6010 H 566.718 -3.90559 3.50092 0
M  V30 6011 H 568.192 -5.04963 2.22973 0
M  V30 6012 H 568.669 -4.33742 0.690251 0
M  V30 6013 H 569.275 -3.63506 2.2078 0
M  V30 6014 N 567.59 -1.07411 -1.15328 0
M  V30 6015 C 568.538 -0.689316 -2.22151 0
M  V30 6016 C 569.532 0.300156 -1.6672 0
M  V30 6017 O 570.738 0.163804 -1.79253 0
M  V30 6018 H 567.113 -0.204834 -0.723566 0
M  V30 6019 H 569.084 -1.59988 -2.51886 0
M  V30 6020 C 567.833 -0.103848 -3.47545 0
M  V30 6021 H 567.156 -0.856367 -3.90521 0
M  V30 6022 H 568.596 0.127725 -4.23808 0
M  V30 6023 C 567.055 1.15563 -3.1646 0
M  V30 6024 O 567.585 2.242 -3.33312 0
M  V30 6025 N 565.791 1.06203 -2.70498 0
M  V30 6026 H 565.338 0.177933 -2.56985 0
M  V30 6027 H 565.296 1.90553 -2.50074 0
M  V30 6028 N 569.068 1.32177 -0.85831 0
M  V30 6029 C 570.315 1.97125 -0.463484 0
M  V30 6030 C 570.643 1.67907 0.981705 0
M  V30 6031 O 569.898 0.961717 1.70439 0
M  V30 6032 C 570.197 3.51372 -0.653658 0
M  V30 6033 C 569.863 4.00584 -2.06987 0
M  V30 6034 C 568.525 4.13733 -2.4572 0
M  V30 6035 C 570.877 4.26624 -2.99402 0
M  V30 6036 C 568.205 4.50268 -3.76132 0
M  V30 6037 C 570.557 4.64618 -4.29316 0
M  V30 6038 C 569.221 4.75975 -4.67979 0
M  V30 6039 H 568.491 0.72133 -0.169601 0
M  V30 6040 H 571.138 1.57517 -1.08907 0
M  V30 6041 H 569.443 3.91761 0.0551328 0
M  V30 6042 H 571.14 3.99655 -0.328163 0
M  V30 6043 H 567.73 3.90837 -1.75911 0
M  V30 6044 H 571.914 4.1597 -2.70708 0
M  V30 6045 H 567.17 4.57256 -4.05865 0
M  V30 6046 H 571.344 4.83722 -5.00985 0
M  V30 6047 H 568.971 5.04041 -5.69076 0
M  V30 6048 N 570.547 0.616602 1.45037 0
M  V30 6049 C 571.51 -0.0871112 2.29034 0
M  V30 6050 C 572.51 -0.786414 1.40258 0
M  V30 6051 O 573.7 -0.633207 1.62284 0
M  V30 6052 C 570.832 -1.13369 3.21497 0
M  V30 6053 H 572.025 0.651497 2.92738 0
M  V30 6054 H 569.578 0.376058 1.51709 0
M  V30 6055 H 570.313 -1.90277 2.62612 0
M  V30 6056 H 570.098 -0.636358 3.86902 0
M  V30 6057 H 571.588 -1.62627 3.84633 0
M  V30 6058 N 572.025 -1.5352 0.356285 0
M  V30 6059 C 573.273 -2.00719 -0.235837 0
M  V30 6060 C 573.594 -1.24551 -1.5004 0
M  V30 6061 O 572.864 -0.356185 -1.92635 0
M  V30 6062 H 571.444 -0.741542 -0.0901366 0
M  V30 6063 H 574.106 -1.88887 0.480378 0
M  V30 6064 H 573.202 -3.08551 -0.469357 0
M  V30 6065 N 573.503 -0.0852151 -1.57369 0
M  V30 6066 C 574.75 0.580806 -1.93992 0
M  V30 6067 C 575.078 1.68801 -0.966252 0
M  V30 6068 O 574.333 1.95694 0.0158649 0
M  V30 6069 C 574.632 1.18482 -3.3719 0
M  V30 6070 C 574.298 0.2024 -4.50446 0
M  V30 6071 C 572.96 -0.0678318 -4.81152 0
M  V30 6072 C 575.312 -0.46895 -5.19086 0
M  V30 6073 C 572.64 -1.01627 -5.77831 0
M  V30 6074 C 574.992 -1.4058 -6.16782 0
M  V30 6075 C 573.656 -1.68436 -6.45899 0
M  V30 6076 H 572.926 0.212532 -0.709867 0
M  V30 6077 H 575.573 -0.158947 -1.90839 0
M  V30 6078 H 573.878 2.0006 -3.36873 0
M  V30 6079 H 575.575 1.70767 -3.62822 0
M  V30 6080 H 572.165 0.423208 -4.26505 0
M  V30 6081 H 576.349 -0.273307 -4.95547 0
M  V30 6082 H 571.605 -1.2392 -5.9871 0
M  V30 6083 H 575.779 -1.93188 -6.69068 0
M  V30 6084 H 573.406 -2.42088 -7.20623 0
M  V30 6085 N 574.981 1.5647 0.188427 0
M  V30 6086 C 576.258 1.71857 0.934058 0
M  V30 6087 C 576.638 0.641867 2.01105 0
M  V30 6088 O 575.986 -0.346098 2.25864 0
M  V30 6089 C 576.196 3.14431 1.5144 0
M  V30 6090 C 577.544 3.74869 1.99396 0
M  V30 6091 O 578.568 3.17601 1.61269 0
M  V30 6092 O 577.427 4.75387 2.69573 0
M  V30 6093 H 574.521 0.701186 0.438483 0
M  V30 6094 H 577.067 1.68768 0.177599 0
M  V30 6095 H 575.839 3.8427 0.738416 0
M  V30 6096 H 575.462 3.21775 2.33552 0
M  V30 6097 N 576.459 -0.456382 1.50847 0
M  V30 6098 C 577.87 -1.03685 1.55262 0
M  V30 6099 C 578.221 -1.92779 0.364771 0
M  V30 6100 O 577.346 -2.10043 -0.52068 0
M  V30 6101 C 577.941 -1.88718 2.81374 0
M  V30 6102 C 576.5 -2.41847 2.88422 0
M  V30 6103 C 575.647 -1.20564 2.49719 0
M  V30 6104 H 578.598 -0.238399 1.56899 0
M  V30 6105 H 578.619 -2.73957 2.6406 0
M  V30 6106 H 578.131 -1.23847 3.67809 0
M  V30 6107 H 576.232 -3.10228 2.06372 0
M  V30 6108 H 576.345 -2.75947 3.9165 0
M  V30 6109 H 574.709 -1.54504 2.02486 0
M  V30 6110 H 575.492 -0.573326 3.38479 0
M  V30 6111 N 577.937 -1.40673 -0.710563 0
M  V30 6112 C 578.884 -1.41336 -1.82463 0
M  V30 6113 C 579.854 -0.269648 -1.63897 0
M  V30 6114 O 581.039 -0.468463 -1.8496 0
M  V30 6115 C 578.179 -1.28665 -3.20218 0
M  V30 6116 C 577.292 -2.52784 -3.5032 0
M  V30 6117 C 576.427 -2.32517 -4.77608 0
M  V30 6118 C 575.466 -3.52187 -5.0063 0
M  V30 6119 N 574.603 -3.31084 -6.19135 0
M  V30 6120 H 579.443 -2.36558 -1.8123 0
M  V30 6121 H 576.98 -1.17483 -0.885226 0
M  V30 6122 H 578.938 -1.19324 -3.99772 0
M  V30 6123 H 577.568 -0.370602 -3.20666 0
M  V30 6124 H 576.62 -2.72634 -2.65283 0
M  V30 6125 H 577.932 -3.41845 -3.63241 0
M  V30 6126 H 577.086 -2.20558 -5.65189 0
M  V30 6127 H 575.825 -1.40889 -4.66906 0
M  V30 6128 H 574.83 -3.64617 -4.11502 0
M  V30 6129 H 576.055 -4.44749 -5.13201 0
M  V30 6130 H 574.001 -2.42143 -6.09674 0
M  V30 6131 H 573.918 -4.13713 -6.32754 0
M  V30 6132 H 575.186 -3.22868 -7.0949 0
M  V30 6133 N 579.415 0.9433 -1.26252 0
M  V30 6134 C 580.663 1.68592 -1.11451 0
M  V30 6135 C 580.984 1.91957 0.343123 0
M  V30 6136 O 580.254 1.51475 1.24226 0
M  V30 6137 H 578.834 0.624789 -0.409448 0
M  V30 6138 H 581.496 1.13351 -1.58548 0
M  V30 6139 H 580.592 2.66054 -1.63162 0
M  V30 6140 N 580.893 1.08022 1.14757 0
M  V30 6141 C 582.121 0.828847 1.89572 0
M  V30 6142 C 582.536 -0.618621 1.78377 0
M  V30 6143 O 581.893 -1.42482 1.1404 0
M  V30 6144 C 581.944 1.23677 3.39685 0
M  V30 6145 O 581.665 2.62746 3.50566 0
M  V30 6146 C 583.166 1.01569 4.31507 0
M  V30 6147 H 580.386 0.299196 0.600602 0
M  V30 6148 H 582.93 1.43846 1.45357 0
M  V30 6149 H 581.085 0.671347 3.81539 0
M  V30 6150 H 581.499 2.79573 4.43778 0
M  V30 6151 H 582.973 1.35055 5.35223 0
M  V30 6152 H 583.45 -0.0475433 4.39174 0
M  V30 6153 H 584.056 1.56636 3.95405 0
M  V30 6154 N 582.371 -1.3172 0.865308 0
M  V30 6155 C 583.787 -1.4958 0.556596 0
M  V30 6156 C 583.987 -1.79763 -0.910353 0
M  V30 6157 O 583.043 -1.87351 -1.6928 0
M  V30 6158 C 584.356 -2.63277 1.45279 0
M  V30 6159 C 585.904 -2.77161 1.45433 0
M  V30 6160 C 586.379 -3.93949 2.33598 0
M  V30 6161 N 587.87 -4.01228 2.31453 0
M  V30 6162 C 588.605 -4.90855 2.96393 0
M  V30 6163 N 588.101 -5.85416 3.70486 0
M  V30 6164 N 589.894 -4.84063 2.85726 0
M  V30 6165 H 582.045 -1.10396 1.81456 0
M  V30 6166 H 584.308 -0.54507 0.775631 0
M  V30 6167 H 584.014 -2.47734 2.49641 0
M  V30 6168 H 583.888 -3.59309 1.14792 0
M  V30 6169 H 586.275 -2.9212 0.41831 0
M  V30 6170 H 586.356 -1.8181 1.79941 0
M  V30 6171 H 586 -3.79748 3.37274 0
M  V30 6172 H 585.93 -4.88598 1.96417 0
M  V30 6173 H 588.421 -3.3357 1.77593 0
M  V30 6174 H 588.734 -6.50525 4.17178 0
M  V30 6175 H 587.079 -5.85409 3.74594 0
M  V30 6176 H 590.27 -4.09163 2.27384 0
M  V30 6177 H 590.443 -5.53708 3.36617 0
M  V30 6178 N 583.85 -0.624285 -1.44708 0
M  V30 6179 C 584.779 0.0717025 -2.3339 0
M  V30 6180 C 585.76 0.841814 -1.47809 0
M  V30 6181 O 586.946 0.809056 -1.76544 0
M  V30 6182 C 584.076 1.05852 -3.30776 0
M  V30 6183 C 583.029 0.400503 -4.26122 0
M  V30 6184 C 582.356 1.49674 -5.13324 0
M  V30 6185 C 583.656 -0.688924 -5.17737 0
M  V30 6186 H 585.35 -0.668819 -2.91834 0
M  V30 6187 H 582.896 -0.32308 -1.40329 0
M  V30 6188 H 584.849 1.5541 -3.91696 0
M  V30 6189 H 583.572 1.82984 -2.70526 0
M  V30 6190 H 582.231 -0.0743687 -3.66525 0
M  V30 6191 H 581.88 2.25877 -4.49431 0
M  V30 6192 H 581.58 1.06188 -5.77926 0
M  V30 6193 H 583.104 1.99427 -5.77115 0
M  V30 6194 H 584.518 -0.276724 -5.72632 0
M  V30 6195 H 582.915 -1.04652 -5.90904 0
M  V30 6196 H 583.985 -1.55884 -4.5916 0
M  V30 6197 N 585.328 1.53329 -0.364422 0
M  V30 6198 C 586.558 2.05359 0.226096 0
M  V30 6199 C 586.966 1.23777 1.43094 0
M  V30 6200 O 586.309 0.271139 1.81688 0
M  V30 6201 C 586.371 3.52918 0.684794 0
M  V30 6202 C 586.035 4.55218 -0.403206 0
M  V30 6203 C 587.032 5.04583 -1.2527 0
M  V30 6204 C 584.717 4.99134 -0.563117 0
M  V30 6205 C 586.711 5.96463 -2.24745 0
M  V30 6206 C 584.398 5.9082 -1.56124 0
M  V30 6207 C 585.396 6.39375 -2.40184 0
M  V30 6208 O 585.084 7.29255 -3.38293 0
M  V30 6209 H 584.816 0.674588 0.0436772 0
M  V30 6210 H 587.37 1.98688 -0.520782 0
M  V30 6211 H 585.6 3.57122 1.48326 0
M  V30 6212 H 587.289 3.87812 1.19818 0
M  V30 6213 H 588.055 4.71403 -1.14034 0
M  V30 6214 H 583.934 4.60928 0.0813909 0
M  V30 6215 H 587.478 6.34285 -2.90393 0
M  V30 6216 H 583.375 6.23414 -1.67407 0
M  V30 6217 H 584.143 7.47249 -3.34009 0
M  V30 6218 N 586.806 0.0935595 1.57322 0
M  V30 6219 C 588.053 -0.570509 1.94297 0
M  V30 6220 C 588.381 -1.68286 0.97519 0
M  V30 6221 O 587.636 -1.95699 -0.00548655 0
M  V30 6222 C 587.935 -1.16692 3.37813 0
M  V30 6223 C 587.601 -0.178509 4.50547 0
M  V30 6224 C 586.263 0.0933475 4.81109 0
M  V30 6225 C 588.615 0.496472 5.1883 0
M  V30 6226 C 585.943 1.0469 5.77284 0
M  V30 6227 C 588.295 1.43849 6.16028 0
M  V30 6228 C 586.959 1.71859 6.44997 0
M  V30 6229 H 586.229 -0.208764 0.710984 0
M  V30 6230 H 588.876 0.169066 1.90752 0
M  V30 6231 H 587.181 -1.98271 3.37929 0
M  V30 6232 H 588.878 -1.6884 3.63722 0
M  V30 6233 H 585.468 -0.400584 4.26724 0
M  V30 6234 H 589.652 0.299584 4.95395 0
M  V30 6235 H 584.908 1.27094 5.98044 0
M  V30 6236 H 589.082 1.96734 6.68034 0
M  V30 6237 H 586.709 2.45906 7.19329 0
M  V30 6238 N 588.284 -1.56567 -0.180126 0
M  V30 6239 C 589.194 -1.98947 -1.24327 0
M  V30 6240 C 590.21 -0.899446 -1.4895 0
M  V30 6241 O 591.386 -1.20639 -1.61271 0
M  V30 6242 C 588.451 -2.33328 -2.56435 0
M  V30 6243 C 587.512 -3.56114 -2.39752 0
M  V30 6244 C 586.745 -3.88845 -3.65561 0
M  V30 6245 O 586.968 -3.22662 -4.70368 0
M  V30 6246 O 585.902 -4.82226 -3.60197 0
M  V30 6247 H 589.728 -2.89634 -0.913565 0
M  V30 6248 H 587.313 -1.44319 -0.386306 0
M  V30 6249 H 589.195 -2.5645 -3.34382 0
M  V30 6250 H 587.87 -1.45806 -2.89002 0
M  V30 6251 H 586.777 -3.38221 -1.59866 0
M  V30 6252 H 588.11 -4.4415 -2.12113 0
M  V30 6253 N 589.762 0.448376 -1.51087 0
M  V30 6254 C 590.987 1.22605 -1.6728 0
M  V30 6255 C 591.412 1.84524 -0.365045 0
M  V30 6256 O 590.77 1.6832 0.673642 0
M  V30 6257 C 590.818 2.29393 -2.78229 0
M  V30 6258 O 589.922 3.34608 -2.41063 0
M  V30 6259 H 589.263 0.359705 -0.558129 0
M  V30 6260 H 591.793 0.530903 -1.97592 0
M  V30 6261 H 591.803 2.74352 -3.01986 0
M  V30 6262 H 590.478 1.83701 -3.73131 0
M  V30 6263 H 589.055 2.95202 -2.27838 0
M  V30 6264 N 591.24 1.41047 0.703093 0
M  V30 6265 C 592.468 1.4334 1.49202 0
M  V30 6266 C 592.883 0.0365596 1.88765 0
M  V30 6267 O 592.24 -0.942419 1.56284 0
M  V30 6268 C 592.291 2.33538 2.75939 0
M  V30 6269 O 592.012 3.67786 2.38045 0
M  V30 6270 C 593.513 2.44555 3.6974 0
M  V30 6271 H 590.733 0.488472 0.460039 0
M  V30 6272 H 593.277 1.85245 0.86629 0
M  V30 6273 H 591.432 1.94962 3.34766 0
M  V30 6274 H 591.846 4.15816 3.19683 0
M  V30 6275 H 593.32 3.11849 4.55471 0
M  V30 6276 H 593.797 1.47447 4.1371 0
M  V30 6277 H 594.403 2.83735 3.16819 0
M  V30 6278 N 592.718 -0.936591 1.26751 0
M  V30 6279 C 593.628 -2.06949 1.10496 0
M  V30 6280 C 594.644 -1.7396 0.037271 0
M  V30 6281 O 595.82 -1.99941 0.241944 0
M  V30 6282 C 592.885 -3.38612 0.744491 0
M  V30 6283 C 591.946 -3.85355 1.89209 0
M  V30 6284 C 591.179 -5.10735 1.54873 0
M  V30 6285 O 591.402 -5.68602 0.452546 0
M  V30 6286 O 590.336 -5.52632 2.38499 0
M  V30 6287 H 594.162 -2.23571 2.05547 0
M  V30 6288 H 591.747 -1.05428 1.05855 0
M  V30 6289 H 593.629 -4.17711 0.556396 0
M  V30 6290 H 592.304 -3.23218 -0.176582 0
M  V30 6291 H 591.211 -3.07182 2.13518 0
M  V30 6292 H 592.544 -4.05277 2.79305 0
M  V30 6293 N 594.196 -1.08629 -1.14182 0
M  V30 6294 C 595.159 -0.722027 -2.1753 0
M  V30 6295 C 596.159 0.244305 -1.58933 0
M  V30 6296 O 597.349 0.0235545 -1.74184 0
M  V30 6297 C 594.481 -0.0663966 -3.40835 0
M  V30 6298 H 595.674 -1.63719 -2.51269 0
M  V30 6299 H 593.227 -0.884442 -1.28869 0
M  V30 6300 H 593.962 0.860389 -3.12678 0
M  V30 6301 H 593.747 -0.761598 -3.84632 0
M  V30 6302 H 595.237 0.173346 -4.1724 0
M  V30 6303 N 595.674 1.31259 -0.872281 0
M  V30 6304 C 596.899 2.0133 -0.498099 0
M  V30 6305 C 597.324 1.65031 0.902568 0
M  V30 6306 O 596.682 0.860164 1.59596 0
M  V30 6307 C 596.73 3.54411 -0.665205 0
M  V30 6308 O 595.834 4.11347 0.294473 0
M  V30 6309 H 595.175 0.633844 -0.197832 0
M  V30 6310 H 597.705 1.67402 -1.17633 0
M  V30 6311 H 597.715 4.04147 -0.559373 0
M  V30 6312 H 596.39 3.80171 -1.68651 0
M  V30 6313 H 594.967 3.72624 0.143403 0
M  V30 6314 N 597.152 0.631951 1.44375 0
M  V30 6315 C 598.563 0.219036 1.85411 0
M  V30 6316 C 598.914 -1.22974 1.52879 0
M  V30 6317 O 598.039 -1.93579 0.967266 0
M  V30 6318 C 598.634 0.39075 3.36539 0
M  V30 6319 C 597.193 0.0323351 3.76386 0
M  V30 6320 C 596.34 0.703744 2.68221 0
M  V30 6321 H 599.291 0.837056 1.3483 0
M  V30 6322 H 599.312 -0.370056 3.78696 0
M  V30 6323 H 598.824 1.44527 3.60185 0
M  V30 6324 H 596.925 -1.02042 3.58355 0
M  V30 6325 H 597.038 0.442969 4.77048 0
M  V30 6326 H 595.402 0.138974 2.54321 0
M  V30 6327 H 596.185 1.76088 2.947 0
M  V30 6328 N 598.631 -1.53133 0.372548 0
M  V30 6329 C 599.561 -2.28876 -0.462412 0
M  V30 6330 C 600.542 -1.31583 -1.07796 0
M  V30 6331 O 601.727 -1.60461 -1.09389 0
M  V30 6332 C 598.857 -3.08317 -1.59868 0
M  V30 6333 C 597.811 -4.13355 -1.11003 0
M  V30 6334 C 597.137 -4.8092 -2.33708 0
M  V30 6335 C 598.437 -5.21955 -0.18983 0
M  V30 6336 H 600.131 -2.9892 0.169511 0
M  V30 6337 H 597.677 -1.43761 0.0829658 0
M  V30 6338 H 599.63 -3.60055 -2.18949 0
M  V30 6339 H 598.354 -2.35976 -2.25794 0
M  V30 6340 H 597.013 -3.62573 -0.541869 0
M  V30 6341 H 596.661 -4.05144 -2.98106 0
M  V30 6342 H 596.361 -5.51904 -2.01682 0
M  V30 6343 H 597.885 -5.35455 -2.93462 0
M  V30 6344 H 599.299 -5.69153 -0.688319 0
M  V30 6345 H 597.696 -6.00087 0.0398887 0
M  V30 6346 H 598.766 -4.78811 0.766057 0
M  V30 6347 N 600.109 -0.101901 -1.5727 0
M  V30 6348 C 601.019 0.868647 -2.17926 0
M  V30 6349 C 602.035 1.30527 -1.1506 0
M  V30 6350 O 603.211 1.37178 -1.47459 0
M  V30 6351 C 600.276 2.10727 -2.75309 0
M  V30 6352 C 599.337 1.7242 -3.93154 0
M  V30 6353 C 598.57 2.90377 -4.47791 0
M  V30 6354 O 598.793 4.05305 -4.01353 0
M  V30 6355 O 597.727 2.6845 -5.38719 0
M  V30 6356 H 601.553 0.382544 -3.01281 0
M  V30 6357 H 599.138 0.122812 -1.48894 0
M  V30 6358 H 601.02 2.83303 -3.11958 0
M  V30 6359 H 599.695 2.58376 -1.94996 0
M  V30 6360 H 598.602 0.970039 -3.61305 0
M  V30 6361 H 599.935 1.29528 -4.74851 0
M  V30 6362 N 601.587 1.56661 0.17182 0
M  V30 6363 C 603.003 1.50768 0.52357 0
M  V30 6364 C 603.203 0.806072 1.84675 0
M  V30 6365 O 602.259 0.366233 2.4983 0
M  V30 6366 C 603.572 2.955 0.556793 0
M  V30 6367 C 605.12 3.06303 0.644029 0
M  V30 6368 C 605.595 4.52492 0.708148 0
M  V30 6369 N 607.086 4.56737 0.771051 0
M  V30 6370 C 607.821 5.67196 0.841229 0
M  V30 6371 N 607.317 6.87287 0.872272 0
M  V30 6372 N 609.11 5.55165 0.88021 0
M  V30 6373 H 601.261 2.00679 -0.695817 0
M  V30 6374 H 603.524 0.914219 -0.250814 0
M  V30 6375 H 603.23 3.49986 -0.346774 0
M  V30 6376 H 603.104 3.50119 1.40346 0
M  V30 6377 H 605.491 2.51851 1.53802 0
M  V30 6378 H 605.572 2.5477 -0.229297 0
M  V30 6379 H 605.216 5.07575 -0.181585 0
M  V30 6380 H 605.146 5.01781 1.59761 0
M  V30 6381 H 607.637 3.70274 0.755364 0
M  V30 6382 H 607.95 7.6722 0.92698 0
M  V30 6383 H 606.295 6.89898 0.840557 0
M  V30 6384 H 609.486 4.60263 0.852956 0
M  V30 6385 H 609.659 6.41271 0.931439 0
M  V30 6386 N 603.065 -0.440357 1.51323 0
M  V30 6387 C 604.015 -1.53263 1.68803 0
M  V30 6388 C 604.999 -1.51494 0.542057 0
M  V30 6389 O 606.191 -1.57999 0.797839 0
M  V30 6390 C 603.32 -2.91479 1.8137 0
M  V30 6391 C 602.406 -2.98015 3.01742 0
M  V30 6392 N 602.797 -2.743 4.24962 0
M  V30 6393 C 601.095 -3.29173 3.00934 0
M  V30 6394 C 601.796 -2.86601 5.06197 0
M  V30 6395 N 600.772 -3.1814 4.40781 0
M  V30 6396 H 604.574 -1.33675 2.61741 0
M  V30 6397 H 602.088 -0.647616 1.48929 0
M  V30 6398 H 604.085 -3.70055 1.92002 0
M  V30 6399 H 602.745 -3.12089 0.896117 0
M  V30 6400 H 603.756 -2.49287 4.53957 0
M  V30 6401 H 600.433 -3.55577 2.18796 0
M  V30 6402 H 601.823 -2.72246 6.14274 0
M  V30 6403 N 604.543 -1.41418 -0.695603 0
M  V30 6404 C 605.79 -1.40774 -1.45564 0
M  V30 6405 C 606.118 -0.0168604 -1.94493 0
M  V30 6406 O 605.373 0.971259 -1.69897 0
M  V30 6407 C 605.672 -2.36112 -2.68302 0
M  V30 6408 C 605.338 -3.82952 -2.38031 0
M  V30 6409 C 604 -4.22954 -2.29486 0
M  V30 6410 C 606.352 -4.75662 -2.13061 0
M  V30 6411 C 603.68 -5.53674 -1.94067 0
M  V30 6412 C 606.032 -6.06702 -1.79151 0
M  V30 6413 C 604.696 -6.45725 -1.69102 0
M  V30 6414 H 603.966 -0.515128 -0.532658 0
M  V30 6415 H 606.613 -1.74216 -0.795047 0
M  V30 6416 H 604.918 -1.95924 -3.39295 0
M  V30 6417 H 606.615 -2.32887 -3.26442 0
M  V30 6418 H 603.205 -3.5127 -2.45576 0
M  V30 6419 H 607.389 -4.45561 -2.18608 0
M  V30 6420 H 602.645 -5.8279 -1.8484 0
M  V30 6421 H 606.819 -6.78041 -1.5885 0
M  V30 6422 H 604.446 -7.46929 -1.41426 0
M  V30 6423 N 606.021 0.929856 -1.27246 0
M  V30 6424 C 607.251 1.70895 -1.16096 0
M  V30 6425 C 607.659 1.87039 0.285122 0
M  V30 6426 O 607.002 1.38557 1.20614 0
M  V30 6427 C 607.064 3.12919 -1.7698 0
M  V30 6428 C 606.728 3.2012 -3.26148 0
M  V30 6429 C 607.725 3.02533 -4.22812 0
M  V30 6430 C 605.41 3.43148 -3.66817 0
M  V30 6431 C 607.404 3.07861 -5.58122 0
M  V30 6432 C 605.091 3.48109 -5.02258 0
M  V30 6433 C 606.089 3.30483 -5.97721 0
M  V30 6434 O 605.777 3.35175 -7.30694 0
M  V30 6435 H 605.509 0.54152 -0.404639 0
M  V30 6436 H 608.063 1.17342 -1.68582 0
M  V30 6437 H 606.293 3.67945 -1.18969 0
M  V30 6438 H 607.982 3.72787 -1.60576 0
M  V30 6439 H 608.748 2.84586 -3.92728 0
M  V30 6440 H 604.627 3.55918 -2.9299 0
M  V30 6441 H 608.171 2.94021 -6.32612 0
M  V30 6442 H 604.068 3.65579 -5.31998 0
M  V30 6443 H 604.836 3.51644 -7.39114 0
M  V30 6444 N 607.499 1.09233 1.13605 0
M  V30 6445 C 608.739 0.836786 1.86487 0
M  V30 6446 C 609.103 -0.626191 1.81502 0
M  V30 6447 O 610.304 -0.99758 2.49603 0
M  V30 6448 C 608.575 1.35476 3.30728 0
M  V30 6449 S 610.134 1.2328 4.21126 0
M  V30 6450 H 606.952 0.302702 0.643345 0
M  V30 6451 H 609.554 1.3953 1.36936 0
M  V30 6452 H 608.258 2.41381 3.31909 0
M  V30 6453 H 607.789 0.792286 3.85339 0
M  V30 6454 H 609.804 0.182468 4.95864 0
M  V30 6455 N 608.977 -1.30795 0.87923 0
M  V30 6456 C 610.226 -1.95636 0.490875 0
M  V30 6457 C 610.539 -1.70214 -0.963674 0
M  V30 6458 O 611.745 -2.28991 -1.45861 0
M  V30 6459 C 610.201 -3.50271 0.826929 0
M  V30 6460 C 609.809 -3.84521 2.29886 0
M  V30 6461 C 611.553 -4.21456 0.507494 0
M  V30 6462 C 609.46 -5.32309 2.57685 0
M  V30 6463 H 608.39 -0.732238 0.179841 0
M  V30 6464 H 611.041 -1.48829 1.07341 0
M  V30 6465 H 609.423 -3.9562 0.173542 0
M  V30 6466 H 610.597 -3.50102 2.99609 0
M  V30 6467 H 608.912 -3.26425 2.58526 0
M  V30 6468 H 611.509 -5.30199 0.692293 0
M  V30 6469 H 611.852 -4.12614 -0.552718 0
M  V30 6470 H 612.385 -3.81772 1.11782 0
M  V30 6471 H 609.124 -5.46195 3.62424 0
M  V30 6472 H 608.644 -5.68048 1.92566 0
M  V30 6473 H 610.323 -5.99678 2.42889 0
M  V30 6474 N 610.455 -0.639598 -1.44038 0
M  V30 6475 C 611.732 -0.078012 -1.95444 0
M  V30 6476 C 612.112 1.39847 -1.58133 0
M  V30 6477 O 611.46 2.11714 -0.859614 0
M  V30 6478 C 611.67 -0.309832 -3.47622 0
M  V30 6479 C 613.018 -0.207521 -4.24093 0
M  V30 6480 O 614.042 -0.241653 -3.55379 0
M  V30 6481 O 612.901 -0.119641 -5.46369 0
M  V30 6482 H 609.995 0.0174534 -0.826816 0
M  V30 6483 H 612.541 -0.711891 -1.54046 0
M  V30 6484 H 611.313 -1.33401 -3.67858 0
M  V30 6485 H 610.936 0.357777 -3.95987 0
M  V30 6486 N 611.933 1.52934 -0.380664 0
M  V30 6487 C 613.182 2.00651 0.205477 0
M  V30 6488 C 613.495 1.27164 1.48623 0
M  V30 6489 O 614.701 1.65547 2.15189 0
M  V30 6490 C 613.157 3.57479 0.416726 0
M  V30 6491 C 612.765 4.39857 -0.850268 0
M  V30 6492 C 614.509 4.13509 0.959702 0
M  V30 6493 C 612.416 5.88269 -0.607773 0
M  V30 6494 H 611.346 0.749684 0.0805614 0
M  V30 6495 H 613.997 1.76508 -0.501732 0
M  V30 6496 H 612.379 3.77836 1.18557 0
M  V30 6497 H 613.553 4.31269 -1.62307 0
M  V30 6498 H 611.868 3.95005 -1.31756 0
M  V30 6499 H 614.465 5.22039 1.15669 0
M  V30 6500 H 614.808 3.69054 1.92626 0
M  V30 6501 H 615.341 3.9701 0.250645 0
M  V30 6502 H 612.08 6.3703 -1.54509 0
M  V30 6503 H 611.6 5.99667 0.126247 0
M  V30 6504 H 613.279 6.46558 -0.239014 0
M  V30 6505 N 613.412 0.11024 1.57214 0
M  V30 6506 C 614.359 -0.843195 2.14846 0
M  V30 6507 C 615.329 -1.26954 1.07107 0
M  V30 6508 O 616.514 -1.34861 1.34971 0
M  V30 6509 C 613.654 -2.09123 2.74521 0
M  V30 6510 C 612.767 -1.71404 3.96541 0
M  V30 6511 C 611.902 -2.91107 4.44331 0
M  V30 6512 C 610.941 -2.49586 5.58903 0
M  V30 6513 N 610.078 -3.62175 6.01477 0
M  V30 6514 H 614.918 -0.344886 2.95998 0
M  V30 6515 H 612.455 -0.15855 1.46243 0
M  V30 6516 H 614.413 -2.82234 3.07246 0
M  V30 6517 H 613.043 -2.56427 1.96074 0
M  V30 6518 H 612.095 -0.88201 3.70033 0
M  V30 6519 H 613.407 -1.36884 4.7965 0
M  V30 6520 H 612.561 -3.72454 4.78919 0
M  V30 6521 H 611.3 -3.28848 3.60153 0
M  V30 6522 H 610.305 -1.6667 5.23929 0
M  V30 6523 H 611.53 -2.12973 6.4484 0
M  V30 6524 H 609.476 -3.99605 5.20242 0
M  V30 6525 H 609.393 -3.3155 6.79419 0
M  V30 6526 H 610.661 -4.43987 6.407 0
M  V30 6527 N 614.89 -1.56749 -0.16351 0
M  V30 6528 C 616.138 -1.82074 -0.87713 0
M  V30 6529 C 616.459 -0.688503 -1.82441 0
M  V30 6530 O 615.729 0.291085 -1.93725 0
M  V30 6531 H 614.309 -0.671677 -0.326893 0
M  V30 6532 H 616.971 -1.9423 -0.161459 0
M  V30 6533 H 616.067 -2.76407 -1.44934 0
M  V30 6534 N 616.368 0.432326 -1.51554 0
M  V30 6535 C 617.616 1.17901 -1.64146 0
M  V30 6536 C 617.937 1.91604 -0.362367 0
M  V30 6537 O 617.207 1.85764 0.621968 0
M  V30 6538 H 615.787 0.438206 -0.604966 0
M  V30 6539 H 618.449 0.495172 -1.88505 0
M  V30 6540 H 617.545 1.90584 -2.47152 0
M  V30 6541 N 617.846 1.41785 0.688094 0
M  V30 6542 C 618.793 1.44221 1.80191 0
M  V30 6543 C 619.763 0.295688 1.63447 0
M  V30 6544 O 620.948 0.49783 1.84191 0
M  V30 6545 C 618.088 1.33743 3.1813 0
M  V30 6546 C 617.201 2.58325 3.46254 0
M  V30 6547 C 616.336 2.40086 4.73848 0
M  V30 6548 C 615.375 3.60107 4.94964 0
M  V30 6549 N 614.512 3.40892 6.13789 0
M  V30 6550 H 619.352 2.39411 1.77444 0
M  V30 6551 H 616.889 1.18876 0.866423 0
M  V30 6552 H 618.847 1.25669 3.97823 0
M  V30 6553 H 617.477 0.42157 3.20035 0
M  V30 6554 H 616.529 2.7682 2.60912 0
M  V30 6555 H 617.841 3.4758 3.57756 0
M  V30 6556 H 616.995 2.29522 5.61609 0
M  V30 6557 H 615.734 1.483 4.64606 0
M  V30 6558 H 614.739 3.71118 4.05649 0
M  V30 6559 H 615.964 4.52857 5.06061 0
M  V30 6560 H 613.91 2.51812 6.05745 0
M  V30 6561 H 613.827 4.23727 6.26092 0
M  V30 6562 H 615.095 3.34114 7.04264 0
M  V30 6563 N 619.324 -0.923095 1.27737 0
M  V30 6564 C 620.552 -1.70525 1.17171 0
M  V30 6565 C 620.967 -1.86847 -0.270881 0
M  V30 6566 O 620.324 -1.38879 -1.18401 0
M  V30 6567 C 620.375 -3.10242 1.85559 0
M  V30 6568 O 620.096 -2.94683 3.24182 0
M  V30 6569 C 621.597 -4.04586 1.81176 0
M  V30 6570 H 618.817 -0.533347 0.407163 0
M  V30 6571 H 621.361 -1.15599 1.68692 0
M  V30 6572 H 619.516 -3.62014 1.3793 0
M  V30 6573 H 619.93 -3.83045 3.58297 0
M  V30 6574 H 621.404 -5.00119 2.33633 0
M  V30 6575 H 621.881 -4.3218 0.782099 0
M  V30 6576 H 622.487 -3.58741 2.2844 0
M  V30 6577 N 620.802 -1.09834 -1.13024 0
M  V30 6578 C 621.749 -0.741522 -2.18564 0
M  V30 6579 C 622.719 0.279236 -1.63736 0
M  V30 6580 O 623.904 0.159923 -1.90129 0
M  V30 6581 C 621.044 -0.17277 -3.44667 0
M  V30 6582 C 620.157 -1.24808 -4.13578 0
M  V30 6583 C 619.292 -0.641631 -5.27311 0
M  V30 6584 C 618.331 -1.69795 -5.88078 0
M  V30 6585 N 617.468 -1.11223 -6.93234 0
M  V30 6586 H 622.308 -1.64576 -2.48432 0
M  V30 6587 H 619.845 -0.822174 -1.21978 0
M  V30 6588 H 621.803 0.17482 -4.16834 0
M  V30 6589 H 620.433 0.694725 -3.15235 0
M  V30 6590 H 619.485 -1.71288 -3.39653 0
M  V30 6591 H 620.797 -2.04795 -4.54819 0
M  V30 6592 H 619.951 -0.243128 -6.06213 0
M  V30 6593 H 618.69 0.189742 -4.87331 0
M  V30 6594 H 617.695 -2.10595 -5.07868 0
M  V30 6595 H 618.92 -2.53206 -6.3013 0
M  V30 6596 H 616.866 -0.302208 -6.55304 0
M  V30 6597 H 616.783 -1.84901 -7.3304 0
M  V30 6598 H 618.051 -0.740068 -7.75979 0
M  V30 6599 N 622.28 1.30327 -0.886154 0
M  V30 6600 C 623.557 1.90922 -0.425217 0
M  V30 6601 C 623.937 1.80533 1.09413 0
M  V30 6602 O 623.285 1.2233 1.92996 0
M  V30 6603 C 623.495 3.36529 -0.924638 0
M  V30 6604 C 624.843 4.13598 -0.960305 0
M  V30 6605 O 625.867 3.45377 -0.871382 0
M  V30 6606 O 624.726 5.35482 -1.09184 0
M  V30 6607 H 621.82 0.81668 -0.130238 0
M  V30 6608 H 624.366 1.38886 -0.975132 0
M  V30 6609 H 623.138 3.38181 -1.96849 0
M  V30 6610 H 622.761 3.96021 -0.353955 0
M  V30 6611 N 623.758 0.647228 1.43697 0
M  V30 6612 C 624.688 -0.0345631 2.33474 0
M  V30 6613 C 625.669 -0.818193 1.4913 0
M  V30 6614 O 626.854 -0.780867 1.77809 0
M  V30 6615 C 623.984 -1.00576 3.32418 0
M  V30 6616 C 622.938 -0.33266 4.26705 0
M  V30 6617 C 622.264 -1.41489 5.1564 0
M  V30 6618 C 623.564 0.771204 5.16575 0
M  V30 6619 H 625.258 0.715163 2.90733 0
M  V30 6620 H 622.804 0.345364 1.39797 0
M  V30 6621 H 624.757 -1.49159 3.94119 0
M  V30 6622 H 623.481 -1.78657 2.73403 0
M  V30 6623 H 622.14 0.13267 3.6636 0
M  V30 6624 H 621.788 -2.18698 4.52968 0
M  V30 6625 H 621.488 -0.969799 5.79542 0
M  V30 6626 H 623.012 -1.9022 5.80214 0
M  V30 6627 H 624.426 0.36779 5.72119 0
M  V30 6628 H 622.823 1.1404 5.89165 0
M  V30 6629 H 623.893 1.63169 4.56622 0
M  V30 6630 N 625.236 -1.5273 0.388769 0
M  V30 6631 C 626.464 -2.05992 -0.193677 0
M  V30 6632 C 626.879 -1.26053 -1.40557 0
M  V30 6633 O 626.236 -0.307049 -1.79898 0
M  V30 6634 C 626.287 -3.57068 -0.564321 0
M  V30 6635 O 626.008 -4.3398 0.599422 0
M  V30 6636 C 627.509 -4.26674 -1.20269 0
M  V30 6637 H 624.729 -0.670358 -0.0293445 0
M  V30 6638 H 627.273 -1.96857 0.553844 0
M  V30 6639 H 625.428 -3.66277 -1.26174 0
M  V30 6640 H 625.842 -5.2367 0.294895 0
M  V30 6641 H 627.316 -5.33625 -1.4124 0
M  V30 6642 H 627.793 -3.81854 -2.16989 0
M  V30 6643 H 628.399 -4.2178 -0.546047 0
M  V30 6644 N 626.714 -0.118576 -1.57153 0
M  V30 6645 C 628.125 0.40687 -1.82213 0
M  V30 6646 C 628.476 1.66636 -1.03571 0
M  V30 6647 O 627.601 2.14682 -0.272171 0
M  V30 6648 C 628.196 0.744949 -3.30509 0
M  V30 6649 C 626.755 1.21503 -3.5625 0
M  V30 6650 C 625.902 0.223511 -2.76398 0
M  V30 6651 H 628.853 -0.343712 -1.54933 0
M  V30 6652 H 628.874 1.6024 -3.45114 0
M  V30 6653 H 628.386 -0.171911 -3.87719 0
M  V30 6654 H 626.487 2.1488 -3.04396 0
M  V30 6655 H 626.6 1.16065 -4.64829 0
M  V30 6656 H 624.964 0.71046 -2.44591 0
M  V30 6657 H 625.747 -0.686439 -3.36367 0
M  V30 6658 N 628.193 1.56834 0.155195 0
M  V30 6659 C 629.103 2.009 1.21146 0
M  V30 6660 C 630.119 0.923029 1.475 0
M  V30 6661 O 631.295 1.23189 1.59331 0
M  V30 6662 C 628.36 2.37378 2.52691 0
M  V30 6663 C 627.421 3.59883 2.34057 0
M  V30 6664 C 626.654 3.94612 3.59329 0
M  V30 6665 O 626.877 3.30104 4.65175 0
M  V30 6666 O 625.811 4.87895 3.52479 0
M  V30 6667 H 629.637 2.9105 0.867371 0
M  V30 6668 H 627.222 1.44916 0.363298 0
M  V30 6669 H 629.104 2.61737 3.3026 0
M  V30 6670 H 627.779 1.50385 2.86646 0
M  V30 6671 H 626.686 3.40722 1.54465 0
M  V30 6672 H 628.019 4.47468 2.0502 0
M  V30 6673 N 629.671 -0.424282 1.51781 0
M  V30 6674 C 630.896 -1.19928 1.6921 0
M  V30 6675 C 631.321 -1.8392 0.394355 0
M  V30 6676 O 630.679 -1.69371 -0.646778 0
M  V30 6677 C 630.727 -2.24937 2.81843 0
M  V30 6678 O 629.831 -3.3073 2.46356 0
M  V30 6679 H 629.172 -0.35078 0.563781 0
M  V30 6680 H 631.702 -0.499401 1.98412 0
M  V30 6681 H 631.712 -2.69512 3.06312 0
M  V30 6682 H 630.387 -1.77742 3.76006 0
M  V30 6683 H 628.964 -2.9154 2.32505 0
M  V30 6684 N 631.149 -1.42148 -0.680565 0
M  V30 6685 C 632.397 -1.42029 -1.43779 0
M  V30 6686 C 632.718 -0.0356347 -1.94967 0
M  V30 6687 O 631.988 0.924936 -1.7269 0
M  V30 6688 H 630.568 -0.522835 -0.533529 0
M  V30 6689 H 633.23 -1.7752 -0.804538 0
M  V30 6690 H 632.326 -2.11658 -2.29363 0
M  V30 6691 N 632.627 0.916307 -1.28225 0
M  V30 6692 C 633.56 2.01954 -1.06254 0
M  V30 6693 C 634.538 1.62587 0.0205983 0
M  V30 6694 O 635.722 1.88073 -0.126824 0
M  V30 6695 C 632.849 3.33086 -0.614141 0
M  V30 6696 C 631.895 3.91435 -1.69354 0
M  V30 6697 S 632.728 4.22603 -3.28887 0
M  V30 6698 C 633.884 5.568 -2.85876 0
M  V30 6699 H 634.117 2.20281 -1.99659 0
M  V30 6700 H 631.65 1.06085 -1.12184 0
M  V30 6701 H 633.608 4.089 -0.36213 0
M  V30 6702 H 632.269 3.12664 0.300036 0
M  V30 6703 H 631.462 4.86098 -1.33136 0
M  V30 6704 H 631.064 3.22248 -1.89821 0
M  V30 6705 H 633.356 6.3658 -2.31888 0
M  V30 6706 H 634.299 5.97927 -3.79326 0
M  V30 6707 H 634.707 5.17865 -2.24669 0
M  V30 6708 N 634.105 1.10431 1.1244 0
M  V30 6709 C 635.055 0.722378 2.16254 0
M  V30 6710 C 636.039 -0.268427 1.58645 0
M  V30 6711 O 637.231 -0.077169 1.76832 0
M  V30 6712 C 634.36 0.155763 3.42946 0
M  V30 6713 C 633.446 1.17361 4.07538 0
M  V30 6714 N 633.837 2.36429 4.47141 0
M  V30 6715 C 632.135 1.01412 4.34317 0
M  V30 6716 C 632.836 3.01259 4.97612 0
M  V30 6717 N 631.812 2.28777 4.93115 0
M  V30 6718 H 635.614 1.62876 2.4464 0
M  V30 6719 H 633.128 0.982031 1.29344 0
M  V30 6720 H 635.125 -0.135936 4.16678 0
M  V30 6721 H 633.785 -0.745339 3.1603 0
M  V30 6722 H 634.796 2.73954 4.39511 0
M  V30 6723 H 631.473 0.168574 4.1716 0
M  V30 6724 H 632.863 4.02541 5.37968 0
M  V30 6725 N 635.583 -1.29855 0.893053 0
M  V30 6726 C 636.999 -1.48366 0.588199 0
M  V30 6727 C 637.199 -1.81654 -0.872018 0
M  V30 6728 O 636.255 -1.909 -1.65268 0
M  V30 6729 C 637.568 -2.60136 1.5083 0
M  V30 6730 C 639.116 -2.74014 1.51279 0
M  V30 6731 C 639.591 -3.88905 2.41902 0
M  V30 6732 N 641.082 -3.96228 2.39911 0
M  V30 6733 C 641.817 -4.84458 3.06738 0
M  V30 6734 N 641.313 -5.77426 3.8282 0
M  V30 6735 N 643.106 -4.77894 2.95929 0
M  V30 6736 H 635.257 -1.06522 1.83757 0
M  V30 6737 H 637.52 -0.528495 0.787018 0
M  V30 6738 H 637.226 -2.42383 2.54839 0
M  V30 6739 H 637.1 -3.56793 1.22388 0
M  V30 6740 H 639.487 -2.91167 0.480179 0
M  V30 6741 H 639.568 -1.77952 1.83757 0
M  V30 6742 H 639.212 -3.72508 3.45253 0
M  V30 6743 H 639.142 -4.84322 2.06737 0
M  V30 6744 H 641.633 -3.29728 1.84629 0
M  V30 6745 H 641.946 -6.41529 4.30883 0
M  V30 6746 H 640.291 -5.77332 3.86927 0
M  V30 6747 H 643.482 -4.04248 2.36012 0
M  V30 6748 H 643.655 -5.46444 3.48286 0
M  V30 6749 N 637.061 -0.65484 -1.43351 0
M  V30 6750 C 638.289 -0.176685 -2.06144 0
M  V30 6751 C 638.704 1.15831 -1.49093 0
M  V30 6752 O 638.061 1.71542 -0.622868 0
M  V30 6753 C 638.112 -0.0813326 -3.61408 0
M  V30 6754 O 637.833 -1.36355 -4.1634 0
M  V30 6755 C 639.334 0.422706 -4.4128 0
M  V30 6756 H 636.554 -0.0906429 -0.66485 0
M  V30 6757 H 639.098 -0.895945 -1.83829 0
M  V30 6758 H 637.253 0.588496 -3.82904 0
M  V30 6759 H 637.667 -1.22381 -5.10023 0
M  V30 6760 H 639.141 0.438375 -5.50257 0
M  V30 6761 H 639.618 1.45432 -4.14423 0
M  V30 6762 H 640.224 -0.214687 -4.24758 0
M  V30 6763 N 638.539 1.52521 -0.396863 0
M  V30 6764 C 639.471 2.24333 0.469814 0
M  V30 6765 C 640.484 1.2685 1.02043 0
M  V30 6766 O 641.673 1.52876 0.92147 0
M  V30 6767 C 638.773 2.95202 1.66461 0
M  V30 6768 C 637.946 4.19454 1.24003 0
M  V30 6769 C 637.005 4.73255 2.30036 0
M  V30 6770 O 636.031 5.36151 1.91131 0
M  V30 6771 N 637.233 4.53765 3.62047 0
M  V30 6772 H 639.998 2.99347 -0.145468 0
M  V30 6773 H 637.559 1.60348 -0.223606 0
M  V30 6774 H 639.551 3.28092 2.36934 0
M  V30 6775 H 638.121 2.2345 2.18607 0
M  V30 6776 H 637.341 3.92517 0.363892 0
M  V30 6777 H 638.629 5.0017 0.933135 0
M  V30 6778 H 638.027 4.03576 3.96412 0
M  V30 6779 H 636.584 4.91124 4.28533 0
M  V30 6780 N 640.017 0.126909 1.57088 0
M  V30 6781 C 640.947 -0.816847 2.18746 0
M  V30 6782 C 641.928 -1.27161 1.12979 0
M  V30 6783 O 643.113 -1.33279 1.41246 0
M  V30 6784 C 640.243 -2.06398 2.79315 0
M  V30 6785 C 639.197 -1.74673 3.90735 0
M  V30 6786 C 638.523 -3.06482 4.38147 0
M  V30 6787 C 639.823 -1.0089 5.12463 0
M  V30 6788 H 641.517 -0.303032 2.97863 0
M  V30 6789 H 639.063 -0.144314 1.43275 0
M  V30 6790 H 641.016 -2.72885 3.2111 0
M  V30 6791 H 639.74 -2.60118 1.975 0
M  V30 6792 H 638.399 -1.10572 3.49527 0
M  V30 6793 H 638.047 -3.58152 3.5318 0
M  V30 6794 H 637.747 -2.86025 5.13287 0
M  V30 6795 H 639.271 -3.74073 4.82599 0
M  V30 6796 H 640.685 -1.57546 5.51228 0
M  V30 6797 H 639.082 -0.905006 5.93237 0
M  V30 6798 H 640.152 0.00297335 4.849 0
M  V30 6799 N 641.495 -1.56914 -0.146875 0
M  V30 6800 C 642.72 -1.87881 -0.878386 0
M  V30 6801 C 643.145 -0.715945 -1.73942 0
M  V30 6802 O 642.503 0.334447 -1.78189 0
M  V30 6803 C 642.551 -3.17431 -1.71084 0
M  V30 6804 O 641.655 -3.01374 -2.81509 0
M  V30 6805 H 640.996 -0.617289 -0.244644 0
M  V30 6806 H 643.526 -2.04136 -0.137654 0
M  V30 6807 H 643.536 -3.49455 -2.10582 0
M  V30 6808 H 642.211 -4.01671 -1.07856 0
M  V30 6809 H 640.788 -2.80758 -2.45416 0
M  V30 6810 N 642.974 0.416227 -1.52004 0
M  V30 6811 C 644.385 0.995319 -1.57957 0
M  V30 6812 C 644.736 1.91744 -0.415754 0
M  V30 6813 O 643.861 2.11349 0.464808 0
M  V30 6814 C 644.456 1.81191 -2.86278 0
M  V30 6815 C 643.015 2.34115 -2.94732 0
M  V30 6816 C 642.162 1.139 -2.52828 0
M  V30 6817 H 645.113 0.196716 -1.57476 0
M  V30 6818 H 645.134 2.66859 -2.71231 0
M  V30 6819 H 644.646 1.14051 -3.70963 0
M  V30 6820 H 642.747 3.04647 -2.14525 0
M  V30 6821 H 642.86 2.65466 -3.98829 0
M  V30 6822 H 641.224 1.49081 -2.06511 0
M  V30 6823 H 642.007 0.483383 -3.3988 0
M  V30 6824 N 644.452 1.42507 0.673017 0
M  V30 6825 C 645.729 1.33554 1.42908 0
M  V30 6826 C 646.109 -0.0262211 2.11084 0
M  V30 6827 O 645.457 -1.04181 2.03368 0
M  V30 6828 C 645.667 2.50498 2.43006 0
M  V30 6829 C 647.015 2.92694 3.07596 0
M  V30 6830 O 648.039 2.50401 2.53333 0
M  V30 6831 O 646.898 3.65899 4.05931 0
M  V30 6832 H 643.992 0.526785 0.637516 0
M  V30 6833 H 646.538 1.54518 0.701591 0
M  V30 6834 H 645.31 3.41272 1.9144 0
M  V30 6835 H 644.933 2.3153 3.23233 0
M  V30 6836 N 645.93 -0.909495 1.28709 0
M  V30 6837 C 647.178 -1.65577 1.15882 0
M  V30 6838 C 647.499 -1.928 -0.292108 0
M  V30 6839 O 646.769 -1.54716 -1.20166 0
M  V30 6840 H 645.349 -0.613714 0.425869 0
M  V30 6841 H 648.011 -1.09108 1.61498 0
M  V30 6842 H 647.107 -2.61634 1.70159 0
M  V30 6843 N 647.408 -1.11026 -1.11852 0
M  V30 6844 C 648.633 -0.879064 -1.87849 0
M  V30 6845 C 649.058 0.565406 -1.79401 0
M  V30 6846 O 648.416 1.39886 -1.15333 0
M  V30 6847 C 648.464 -1.33985 -3.34784 0
M  V30 6848 O 647.568 -0.508803 -4.09249 0
M  V30 6849 H 646.909 -0.316992 -0.583448 0
M  V30 6850 H 649.439 -1.47863 -1.41413 0
M  V30 6851 H 649.449 -1.33248 -3.85628 0
M  V30 6852 H 648.124 -2.39172 -3.40249 0
M  V30 6853 H 646.701 -0.581913 -3.68332 0
M  V30 6854 N 648.886 1.2938 -0.899927 0
M  V30 6855 C 649.849 2.25983 -0.382677 0
M  V30 6856 C 650.849 1.53366 0.483259 0
M  V30 6857 O 652.039 1.71798 0.28828 0
M  V30 6858 C 649.171 3.37878 0.452915 0
M  V30 6859 H 650.364 2.73252 -1.23586 0
M  V30 6860 H 647.917 1.40825 -0.678088 0
M  V30 6861 H 648.652 2.95949 1.32608 0
M  V30 6862 H 648.437 3.91742 -0.167562 0
M  V30 6863 H 649.927 4.09746 0.806107 0
M  V30 6864 N 650.364 0.662433 1.43002 0
M  V30 6865 C 651.613 0.176873 2.00923 0
M  V30 6866 C 651.926 -1.21954 1.52927 0
M  V30 6867 O 653.132 -1.80081 2.03182 0
M  V30 6868 C 651.588 0.265379 3.5892 0
M  V30 6869 C 651.196 1.66507 4.15908 0
M  V30 6870 C 652.94 -0.162103 4.2419 0
M  V30 6871 C 650.847 1.707 5.66229 0
M  V30 6872 H 649.777 0.0623627 0.751417 0
M  V30 6873 H 652.428 0.825813 1.63868 0
M  V30 6874 H 650.81 -0.451235 3.93421 0
M  V30 6875 H 651.984 2.40777 3.92891 0
M  V30 6876 H 650.299 2.03932 3.63044 0
M  V30 6877 H 652.896 -0.150745 5.34487 0
M  V30 6878 H 653.239 -1.19519 3.98774 0
M  V30 6879 H 653.772 0.503075 3.94606 0
M  V30 6880 H 650.511 2.7195 5.96426 0
M  V30 6881 H 650.031 1.00768 5.91275 0
M  V30 6882 H 651.71 1.45487 6.3043 0
M  V30 6883 N 651.842 -1.52309 0.404946 0
M  V30 6884 C 653.091 -2.00952 -0.173529 0
M  V30 6885 C 653.404 -1.29512 -1.46581 0
M  V30 6886 O 654.61 -1.6895 -2.12528 0
M  V30 6887 C 653.066 -3.58097 -0.359801 0
M  V30 6888 C 652.674 -4.38449 0.920138 0
M  V30 6889 C 654.418 -4.14984 -0.893794 0
M  V30 6890 C 652.325 -5.87227 0.701285 0
M  V30 6891 H 651.255 -0.750871 -0.0686244 0
M  V30 6892 H 653.906 -1.75687 0.529749 0
M  V30 6893 H 652.288 -3.79675 -1.12531 0
M  V30 6894 H 653.462 -4.28633 1.69147 0
M  V30 6895 H 651.777 -3.92859 1.38024 0
M  V30 6896 H 654.374 -5.23813 -1.0735 0
M  V30 6897 H 654.717 -3.72072 -1.8673 0
M  V30 6898 H 655.25 -3.97358 -0.187453 0
M  V30 6899 H 651.989 -6.34491 1.64624 0
M  V30 6900 H 651.509 -5.99792 -0.0308288 0
M  V30 6901 H 653.188 -6.46096 0.341846 0
M  V30 6902 N 653.32 -0.135238 -1.57019 0
M  V30 6903 C 654.597 0.563227 -1.87316 0
M  V30 6904 C 654.977 1.83749 -1.03921 0
M  V30 6905 O 654.325 2.2817 -0.122675 0
M  V30 6906 C 654.535 0.840031 -3.3874 0
M  V30 6907 C 655.883 1.18598 -4.077 0
M  V30 6908 O 656.907 0.92977 -3.43851 0
M  V30 6909 O 655.766 1.66758 -5.20436 0
M  V30 6910 H 652.86 0.285971 -0.775983 0
M  V30 6911 H 655.406 -0.170965 -1.68837 0
M  V30 6912 H 654.178 -0.0622785 -3.9125 0
M  V30 6913 H 653.801 1.62882 -3.62706 0
M  V30 6914 N 654.798 1.5699 0.138552 0
M  V30 6915 C 656.047 1.82998 0.848205 0
M  V30 6916 C 656.36 0.717829 1.81952 0
M  V30 6917 O 657.566 0.863756 2.57394 0
M  V30 6918 C 656.022 3.24379 1.55904 0
M  V30 6919 C 655.63 4.43552 0.62971 0
M  V30 6920 C 657.374 3.59654 2.25498 0
M  V30 6921 C 655.281 5.75957 1.34266 0
M  V30 6922 H 654.211 0.682495 0.320495 0
M  V30 6923 H 656.862 1.83222 0.100924 0
M  V30 6924 H 655.244 3.18567 2.35226 0
M  V30 6925 H 656.418 4.6062 -0.128882 0
M  V30 6926 H 654.733 4.16379 0.0417526 0
M  V30 6927 H 657.33 4.55837 2.79493 0
M  V30 6928 H 657.673 2.86124 3.02388 0
M  V30 6929 H 658.206 3.67164 1.53087 0
M  V30 6930 H 654.945 6.52604 0.615441 0
M  V30 6931 H 654.465 5.62811 2.07375 0
M  V30 6932 H 656.144 6.19046 1.88126 0
M  V30 6933 N 656.276 -0.40816 1.52223 0
M  V30 6934 C 657.523 -1.15502 1.66329 0
M  V30 6935 C 657.851 -1.90474 0.393701 0
M  V30 6936 O 657.106 -1.85507 -0.623356 0
M  V30 6937 C 657.405 -2.17422 2.83659 0
M  V30 6938 C 657.071 -1.5925 4.21841 0
M  V30 6939 C 655.733 -1.4311 4.59427 0
M  V30 6940 C 658.085 -1.16776 5.0795 0
M  V30 6941 C 655.413 -0.830148 5.80797 0
M  V30 6942 C 657.765 -0.580988 6.29926 0
M  V30 6943 C 656.429 -0.406729 6.6626 0
M  V30 6944 H 655.699 -0.422653 0.608642 0
M  V30 6945 H 658.346 -0.442114 1.86327 0
M  V30 6946 H 656.651 -2.94861 2.58001 0
M  V30 6947 H 658.348 -2.75084 2.9177 0
M  V30 6948 H 654.938 -1.72796 3.92224 0
M  V30 6949 H 659.122 -1.28055 4.79495 0
M  V30 6950 H 654.378 -0.68316 6.07571 0
M  V30 6951 H 658.552 -0.243488 6.95974 0
M  V30 6952 H 656.179 0.0610366 7.60175 0
M  V30 6953 N 657.755 -1.42862 -0.66545 0
M  V30 6954 C 658.687 -1.43026 -1.79098 0
M  V30 6955 C 659.7 -0.32803 -1.59461 0
M  V30 6956 O 660.889 -0.591709 -1.68407 0
M  V30 6957 C 657.989 -1.21566 -3.16346 0
M  V30 6958 C 657.162 -2.44399 -3.62751 0
M  V30 6959 C 656.221 -2.18344 -4.78761 0
M  V30 6960 O 655.247 -2.91611 -4.88827 0
M  V30 6961 N 656.449 -1.1924 -5.68122 0
M  V30 6962 H 659.214 -2.40045 -1.79439 0
M  V30 6963 H 656.775 -1.37861 -0.848872 0
M  V30 6964 H 658.767 -1.02037 -3.91625 0
M  V30 6965 H 657.337 -0.330368 -3.10849 0
M  V30 6966 H 656.557 -2.79433 -2.78048 0
M  V30 6967 H 657.845 -3.26173 -3.90498 0
M  V30 6968 H 657.243 -0.586603 -5.6265 0
M  V30 6969 H 655.8 -1.05698 -6.43173 0
M  V30 6970 N 659.233 0.902656 -1.29189 0
M  V30 6971 C 660.458 1.69167 -1.19989 0
M  V30 6972 C 660.883 1.86607 0.236495 0
M  V30 6973 O 660.241 1.38425 1.17082 0
M  V30 6974 C 660.289 3.05532 -1.91527 0
M  V30 6975 O 659.393 3.93621 -1.2303 0
M  V30 6976 H 658.734 0.517584 -0.415936 0
M  V30 6977 H 661.264 1.12785 -1.70706 0
M  V30 6978 H 661.274 3.55693 -1.99866 0
M  V30 6979 H 659.949 2.92156 -2.96003 0
M  V30 6980 H 658.526 3.52055 -1.22928 0
M  V30 6981 N 660.711 1.11618 1.11262 0
M  V30 6982 C 662.122 0.881942 1.64556 0
M  V30 6983 C 662.473 -0.585442 1.87262 0
M  V30 6984 O 661.598 -1.44795 1.60821 0
M  V30 6985 C 662.193 1.59446 2.98935 0
M  V30 6986 C 660.752 1.40661 3.4913 0
M  V30 6987 C 659.899 1.63593 2.23903 0
M  V30 6988 H 662.85 1.27217 0.94877 0
M  V30 6989 H 662.871 1.04054 3.65996 0
M  V30 6990 H 662.383 2.66241 2.82378 0
M  V30 6991 H 660.484 0.360835 3.70849 0
M  V30 6992 H 660.597 2.15693 4.27801 0
M  V30 6993 H 658.961 1.05944 2.3162 0
M  V30 6994 H 659.744 2.71666 2.09886 0
M  V30 6995 N 662.189 -1.289 0.906776 0
M  V30 6996 C 663.417 -1.99401 0.551969 0
M  V30 6997 C 663.832 -1.67816 -0.865048 0
M  V30 6998 O 663.189 -0.927078 -1.57199 0
M  V30 6999 C 663.24 -3.53779 0.743152 0
M  V30 7000 O 662.961 -3.84248 2.1044 0
M  V30 7001 C 664.462 -4.41543 0.39424 0
M  V30 7002 H 661.682 -0.636926 0.211106 0
M  V30 7003 H 664.226 -1.64266 1.21807 0
M  V30 7004 H 662.381 -3.87201 0.124143 0
M  V30 7005 H 662.795 -4.78904 2.13895 0
M  V30 7006 H 664.269 -5.48957 0.578814 0
M  V30 7007 H 664.746 -4.34073 -0.669137 0
M  V30 7008 H 665.352 -4.13605 0.990491 0
M  V30 7009 N 663.667 -0.670007 -1.42649 0
M  V30 7010 C 664.913 -0.190568 -2.01903 0
M  V30 7011 C 665.246 1.19817 -1.52832 0
M  V30 7012 O 664.521 1.80342 -0.728485 0
M  V30 7013 C 664.804 -0.21991 -3.59428 0
M  V30 7014 C 664.657 -1.64376 -4.18689 0
M  V30 7015 C 665.976 0.434519 -4.3795 0
M  V30 7016 H 663.095 -0.0707219 -0.733599 0
M  V30 7017 H 665.737 -0.853883 -1.69732 0
M  V30 7018 H 663.887 0.344894 -3.86966 0
M  V30 7019 H 665.559 -2.26044 -4.02122 0
M  V30 7020 H 663.802 -2.18591 -3.747 0
M  V30 7021 H 664.473 -1.61601 -5.27815 0
M  V30 7022 H 666.949 -0.0462156 -4.16074 0
M  V30 7023 H 665.825 0.38333 -5.4756 0
M  V30 7024 H 666.086 1.51135 -4.15464 0
M  V30 7025 N 665.145 1.52092 -0.413018 0
M  V30 7026 C 666.556 1.86617 0.0556967 0
M  V30 7027 C 666.907 1.33156 1.44097 0
M  V30 7028 O 666.032 0.672417 2.05688 0
M  V30 7029 C 666.627 3.38628 0.107844 0
M  V30 7030 C 665.186 3.72778 0.520904 0
M  V30 7031 C 664.333 2.75649 -0.302109 0
M  V30 7032 H 667.284 1.45663 -0.629919 0
M  V30 7033 H 667.305 3.69152 0.922324 0
M  V30 7034 H 666.817 3.77508 -0.900506 0
M  V30 7035 H 664.918 3.39478 1.53575 0
M  V30 7036 H 665.031 4.7838 0.262591 0
M  V30 7037 H 663.395 2.53603 0.236115 0
M  V30 7038 H 664.178 3.17369 -1.30888 0
M  V30 7039 N 666.623 0.143563 1.56945 0
M  V30 7040 C 668.039 -0.212877 1.58174 0
M  V30 7041 C 668.239 -1.64926 1.15766 0
M  V30 7042 O 667.295 -2.37535 0.856361 0
M  V30 7043 C 668.608 0.0427573 3.0067 0
M  V30 7044 C 670.156 -0.0212221 3.12993 0
M  V30 7045 C 670.631 0.207036 4.57532 0
M  V30 7046 N 672.122 0.153845 4.62944 0
M  V30 7047 C 672.857 0.305018 5.72588 0
M  V30 7048 N 672.353 0.513722 6.90893 0
M  V30 7049 N 674.146 0.242862 5.61575 0
M  V30 7050 H 666.297 1.08148 1.82805 0
M  V30 7051 H 668.56 0.427831 0.84597 0
M  V30 7052 H 668.266 1.03672 3.36073 0
M  V30 7053 H 668.14 -0.678195 3.71053 0
M  V30 7054 H 670.527 -1.00574 2.77433 0
M  V30 7055 H 670.608 0.732004 2.45103 0
M  V30 7056 H 670.252 1.18863 4.93795 0
M  V30 7057 H 670.182 -0.566473 5.23544 0
M  V30 7058 H 672.673 -0.00294866 3.779 0
M  V30 7059 H 672.986 0.619273 7.70315 0
M  V30 7060 H 671.331 0.550001 6.9282 0
M  V30 7061 H 674.522 0.0806015 4.68031 0
M  V30 7062 H 674.695 0.364112 6.46976 0
M  V30 7063 N 668.101 -1.57061 -0.130224 0
M  V30 7064 C 669.048 -1.99517 -1.16024 0
M  V30 7065 C 670.018 -0.865452 -1.41771 0
M  V30 7066 O 671.203 -1.12882 -1.53826 0
M  V30 7067 C 668.343 -2.3951 -2.48453 0
M  V30 7068 C 667.456 -3.65848 -2.29737 0
M  V30 7069 C 666.591 -3.9487 -3.55318 0
M  V30 7070 C 665.63 -5.14426 -3.31711 0
M  V30 7071 N 664.767 -5.39375 -4.49466 0
M  V30 7072 H 669.607 -2.87305 -0.791194 0
M  V30 7073 H 667.144 -1.42129 -0.379195 0
M  V30 7074 H 669.102 -2.60731 -3.25692 0
M  V30 7075 H 667.732 -1.54779 -2.83272 0
M  V30 7076 H 666.784 -3.52307 -1.4347 0
M  V30 7077 H 668.096 -4.53241 -2.08263 0
M  V30 7078 H 667.25 -4.16679 -4.4098 0
M  V30 7079 H 665.989 -3.05931 -3.79813 0
M  V30 7080 H 664.994 -4.92473 -2.44439 0
M  V30 7081 H 666.219 -6.04933 -3.08598 0
M  V30 7082 H 664.165 -4.53391 -4.74102 0
M  V30 7083 H 664.082 -6.21069 -4.31055 0
M  V30 7084 H 665.35 -5.65694 -5.36293 0
M  V30 7085 N 669.579 0.400081 -1.52437 0
M  V30 7086 C 670.825 1.14788 -1.67187 0
M  V30 7087 C 671.158 1.89928 -0.405074 0
M  V30 7088 O 670.433 1.85118 0.596804 0
M  V30 7089 C 670.716 2.13507 -2.89977 0
M  V30 7090 C 670.569 1.42204 -4.2673 0
M  V30 7091 C 671.888 3.14069 -3.083 0
M  V30 7092 H 669.007 0.415939 -0.608411 0
M  V30 7093 H 671.649 0.432542 -1.85011 0
M  V30 7094 H 669.799 2.7451 -2.74912 0
M  V30 7095 H 671.471 0.842503 -4.53541 0
M  V30 7096 H 669.714 0.723939 -4.27717 0
M  V30 7097 H 670.385 2.14281 -5.08712 0
M  V30 7098 H 672.861 2.63148 -3.22323 0
M  V30 7099 H 671.737 3.80398 -3.95713 0
M  V30 7100 H 671.998 3.82309 -2.22018 0
M  V30 7101 N 671.057 1.43213 0.657864 0
M  V30 7102 C 672.285 1.48015 1.44566 0
M  V30 7103 C 672.7 0.0965951 1.88553 0
M  V30 7104 O 672.057 -0.892221 1.59203 0
M  V30 7105 C 672.108 2.42199 2.68369 0
M  V30 7106 O 671.829 3.75173 2.26223 0
M  V30 7107 C 673.33 2.56195 3.61772 0
M  V30 7108 H 670.55 0.502861 0.444266 0
M  V30 7109 H 673.094 1.87907 0.806917 0
M  V30 7110 H 671.249 2.05514 3.28394 0
M  V30 7111 H 671.663 4.25776 3.06293 0
M  V30 7112 H 673.137 3.26182 4.4532 0
M  V30 7113 H 673.614 1.60534 4.0881 0
M  V30 7114 H 674.22 2.93671 3.07632 0
M  V30 7115 N 672.536 -0.895792 1.29666 0
M  V30 7116 C 673.782 -1.64908 1.18039 0
M  V30 7117 C 674.115 -1.9236 -0.266682 0
M  V30 7118 O 673.39 -1.53682 -1.19214 0
M  V30 7119 C 673.673 -2.99574 1.99819 0
M  V30 7120 C 673.526 -2.79163 3.52687 0
M  V30 7121 C 674.845 -4.00358 1.82761 0
M  V30 7122 H 671.964 -0.598437 0.430165 0
M  V30 7123 H 674.606 -1.03736 1.59182 0
M  V30 7124 H 672.756 -3.51786 1.64859 0
M  V30 7125 H 674.428 -2.33821 3.9765 0
M  V30 7126 H 672.671 -2.13871 3.77414 0
M  V30 7127 H 673.342 -3.74871 4.05186 0
M  V30 7128 H 675.818 -3.57268 2.13304 0
M  V30 7129 H 674.694 -4.92514 2.42325 0
M  V30 7130 H 674.955 -4.35096 0.783839 0
M  V30 7131 N 674.014 -1.12206 -1.10668 0
M  V30 7132 C 675.242 -0.898635 -1.86366 0
M  V30 7133 C 675.657 0.551991 -1.80551 0
M  V30 7134 O 675.014 1.38152 -1.19249 0
M  V30 7135 C 675.065 -1.36199 -3.34861 0
M  V30 7136 O 674.786 -2.75576 -3.40573 0
M  V30 7137 C 676.287 -1.17515 -4.2744 0
M  V30 7138 H 673.507 -0.321281 -0.589084 0
M  V30 7139 H 676.051 -1.49142 -1.39918 0
M  V30 7140 H 674.206 -0.81249 -3.78784 0
M  V30 7141 H 674.62 -2.95851 -4.33096 0
M  V30 7142 H 676.094 -1.54827 -5.29842 0
M  V30 7143 H 676.571 -0.115486 -4.39048 0
M  V30 7144 H 677.177 -1.71203 -3.89319 0
M  V30 7145 N 675.492 1.28418 -0.913599 0
M  V30 7146 C 676.44 2.29272 -0.392037 0
M  V30 7147 C 677.434 1.61344 0.516198 0
M  V30 7148 O 678.64 1.75557 0.39746 0
M  V30 7149 H 675.015 0.744178 -0.108178 0
M  V30 7150 H 676.986 2.70691 -1.25574 0
M  V30 7151 C 675.735 3.45905 0.352815 0
M  V30 7152 H 675.058 3.98378 -0.336848 0
M  V30 7153 H 676.498 4.18473 0.682398 0
M  V30 7154 C 674.957 2.98572 1.56065 0
M  V30 7155 O 675.487 3.01033 2.65974 0
M  V30 7156 N 673.693 2.54235 1.40759 0
M  V30 7157 H 673.24 2.52432 0.513403 0
M  V30 7158 H 673.198 2.22925 2.21702 0
M  V30 7159 N 676.97 0.677563 1.42291 0
M  V30 7160 C 678.219 0.198173 2.00724 0
M  V30 7161 C 678.532 -1.20325 1.54211 0
M  V30 7162 O 679.738 -1.77916 2.05081 0
M  V30 7163 C 678.194 0.303432 3.58619 0
M  V30 7164 C 677.802 1.70909 4.14119 0
M  V30 7165 C 679.546 -0.117103 4.24338 0
M  V30 7166 C 677.453 1.76696 5.64387 0
M  V30 7167 H 676.383 0.070329 0.750713 0
M  V30 7168 H 679.034 0.843147 1.62982 0
M  V30 7169 H 677.416 -0.409482 3.93877 0
M  V30 7170 H 678.59 2.44931 3.90315 0
M  V30 7171 H 676.905 2.07771 3.6086 0
M  V30 7172 H 679.502 -0.0940471 5.34617 0
M  V30 7173 H 679.845 -1.15283 4.00019 0
M  V30 7174 H 680.378 0.5449 3.9405 0
M  V30 7175 H 677.117 2.7826 5.93508 0
M  V30 7176 H 676.637 1.07034 5.90173 0
M  V30 7177 H 678.316 1.52166 6.28852 0
M  V30 7178 N 678.448 -1.51871 0.421078 0
M  V30 7179 C 679.696 -2.01539 -0.150492 0
M  V30 7180 C 680.017 -1.30803 -1.44623 0
M  V30 7181 O 679.287 -0.437568 -1.90951 0
M  V30 7182 H 677.867 -0.744698 -0.0586041 0
M  V30 7183 H 680.529 -1.8668 0.560059 0
M  V30 7184 H 679.625 -3.10264 -0.338068 0
M  V30 7185 N 679.926 -0.151884 -1.56866 0
M  V30 7186 C 680.873 0.785936 -2.17006 0
M  V30 7187 C 681.843 1.2407 -1.10435 0
M  V30 7188 O 683.028 1.31235 -1.38499 0
M  V30 7189 C 680.168 2.01771 -2.79969 0
M  V30 7190 C 679.281 1.6083 -4.00946 0
M  V30 7191 C 678.416 2.79224 -4.51893 0
M  V30 7192 C 677.455 2.3468 -5.65324 0
M  V30 7193 N 676.592 3.461 -6.10867 0
M  V30 7194 H 681.432 0.266286 -2.96808 0
M  V30 7195 H 678.969 0.11972 -1.46612 0
M  V30 7196 H 680.927 2.73989 -3.14621 0
M  V30 7197 H 679.557 2.51139 -2.02803 0
M  V30 7198 H 678.609 0.783592 -3.72242 0
M  V30 7199 H 679.921 1.24119 -4.83111 0
M  V30 7200 H 679.075 3.59625 -4.88625 0
M  V30 7201 H 677.814 3.19183 -3.68746 0
M  V30 7202 H 676.819 1.52721 -5.28163 0
M  V30 7203 H 678.044 1.95801 -6.5026 0
M  V30 7204 H 675.99 3.85671 -5.30654 0
M  V30 7205 H 675.907 3.1342 -6.87971 0
M  V30 7206 H 677.175 4.26844 -6.52246 0
M  V30 7207 N 681.404 1.57128 0.121893 0
M  V30 7208 C 682.652 1.84335 0.828548 0
M  V30 7209 C 682.973 0.736632 1.80551 0
M  V30 7210 O 682.243 -0.23962 1.94429 0
M  V30 7211 H 680.823 0.680108 0.30897 0
M  V30 7212 H 683.485 1.9459 0.109906 0
M  V30 7213 H 682.581 2.80152 1.37554 0
M  V30 7214 N 682.882 -0.391992 1.52647 0
M  V30 7215 C 684.107 -1.16312 1.71716 0
M  V30 7216 C 684.532 -1.83042 0.433279 0
M  V30 7217 O 683.89 -1.70705 -0.610707 0
M  V30 7218 C 683.938 -2.18908 2.86551 0
M  V30 7219 O 683.042 -3.2543 2.53316 0
M  V30 7220 H 682.383 -0.338743 0.571095 0
M  V30 7221 H 684.913 -0.457202 1.99426 0
M  V30 7222 H 684.923 -2.62954 3.1196 0
M  V30 7223 H 683.598 -1.69726 3.79692 0
M  V30 7224 H 682.175 -2.86543 2.38637 0
M  V30 7225 N 684.36 -1.4356 -0.65026 0
M  V30 7226 C 685.31 -1.45392 -1.75628 0
M  V30 7227 C 686.294 -0.322006 -1.57645 0
M  V30 7228 O 687.486 -0.565996 -1.67707 0
M  V30 7229 C 684.615 -1.38254 -3.1423 0
M  V30 7230 C 683.701 -2.56487 -3.3775 0
M  V30 7231 N 684.092 -3.81824 -3.31729 0
M  V30 7232 C 682.39 -2.51274 -3.6848 0
M  V30 7233 C 683.091 -4.60497 -3.55412 0
M  V30 7234 N 682.067 -3.91274 -3.77367 0
M  V30 7235 H 685.869 -2.40167 -1.69402 0
M  V30 7236 H 683.383 -1.38254 -0.852037 0
M  V30 7237 H 685.38 -1.3765 -3.9352 0
M  V30 7238 H 684.04 -0.445019 -3.21636 0
M  V30 7239 H 685.051 -4.14069 -3.11074 0
M  V30 7240 H 681.728 -1.66223 -3.82983 0
M  V30 7241 H 683.118 -5.69518 -3.5651 0
M  V30 7242 N 685.838 0.888903 -1.30139 0
M  V30 7243 C 687.066 1.67358 -1.21651 0
M  V30 7244 C 687.481 1.87499 0.221246 0
M  V30 7245 O 686.838 1.41969 1.14677 0
M  V30 7246 C 686.889 3.05213 -1.93719 0
M  V30 7247 O 686.61 2.85984 -3.31881 0
M  V30 7248 C 688.111 3.9964 -1.9184 0
M  V30 7249 H 685.331 0.522365 -0.42116 0
M  V30 7250 H 687.875 1.11086 -1.71698 0
M  V30 7251 H 686.03 3.5823 -1.4748 0
M  V30 7252 H 686.444 3.73411 -3.68327 0
M  V30 7253 H 687.918 4.93749 -2.46811 0
M  V30 7254 H 688.395 4.29955 -0.896409 0
M  V30 7255 H 689.001 3.52558 -2.37872 0
M  V30 7256 N 687.317 1.12792 1.10072 0
M  V30 7257 C 688.247 0.821688 2.18565 0
M  V30 7258 C 689.228 -0.21612 1.68721 0
M  V30 7259 O 690.413 -0.0764932 1.94049 0
M  V30 7260 C 687.543 0.279624 3.46172 0
M  V30 7261 C 686.497 1.25092 4.09312 0
M  V30 7262 C 685.823 0.568916 5.31665 0
M  V30 7263 C 687.123 2.60699 4.52585 0
M  V30 7264 H 688.817 1.72888 2.44438 0
M  V30 7265 H 686.363 0.832702 1.17482 0
M  V30 7266 H 688.316 0.053099 4.21367 0
M  V30 7267 H 687.04 -0.662929 3.19801 0
M  V30 7268 H 685.699 1.46332 3.36129 0
M  V30 7269 H 685.347 -0.378898 5.01571 0
M  V30 7270 H 685.047 1.21687 5.74862 0
M  V30 7271 H 686.571 0.351517 6.09587 0
M  V30 7272 H 687.985 2.43465 5.19035 0
M  V30 7273 H 686.382 3.21608 5.06644 0
M  V30 7274 H 687.452 3.1886 3.65317 0
M  V30 7275 N 688.795 -1.27931 0.920396 0
M  V30 7276 C 689.725 -2.29487 0.431024 0
M  V30 7277 C 690.706 -1.62435 -0.504861 0
M  V30 7278 O 691.891 -1.89797 -0.411176 0
M  V30 7279 C 689.021 -3.45788 -0.323709 0
M  V30 7280 C 687.975 -4.24784 0.523658 0
M  V30 7281 C 687.301 -5.33488 -0.359809 0
M  V30 7282 C 688.601 -4.90874 1.78437 0
M  V30 7283 H 690.295 -2.70671 1.27975 0
M  V30 7284 H 687.841 -1.30121 0.616813 0
M  V30 7285 H 689.794 -4.15927 -0.676952 0
M  V30 7286 H 688.518 -3.03502 -1.2064 0
M  V30 7287 H 687.177 -3.56382 0.85951 0
M  V30 7288 H 686.825 -4.87445 -1.24124 0
M  V30 7289 H 686.525 -5.87247 0.203605 0
M  V30 7290 H 688.049 -6.06472 -0.708787 0
M  V30 7291 H 689.463 -5.53339 1.49963 0
M  V30 7292 H 687.86 -5.54659 2.29071 0
M  V30 7293 H 688.93 -4.14988 2.50824 0
M  V30 7294 N 690.273 -0.685099 -1.4193 0
M  V30 7295 C 691.183 -0.013404 -2.34596 0
M  V30 7296 C 692.199 0.777589 -1.55658 0
M  V30 7297 O 693.375 0.717553 -1.88184 0
M  V30 7298 C 690.44 0.919031 -3.34297 0
M  V30 7299 C 689.501 0.121417 -4.29128 0
M  V30 7300 C 688.734 1.00944 -5.24067 0
M  V30 7301 O 688.957 2.24898 -5.24192 0
M  V30 7302 O 687.891 0.464724 -6.00103 0
M  V30 7303 H 691.717 -0.776978 -2.93593 0
M  V30 7304 H 689.302 -0.445379 -1.42607 0
M  V30 7305 H 691.184 1.45402 -3.9552 0
M  V30 7306 H 689.859 1.66228 -2.77759 0
M  V30 7307 H 688.766 -0.45792 -3.71287 0
M  V30 7308 H 690.099 -0.582937 -4.88736 0
M  V30 7309 N 691.751 1.51645 -0.429126 0
M  V30 7310 C 692.714 2.26116 0.374726 0
M  V30 7311 C 693.714 1.29242 0.956714 0
M  V30 7312 O 694.904 1.53022 0.832452 0
M  V30 7313 C 692.036 3.04669 1.52937 0
M  V30 7314 H 693.229 2.9861 -0.277818 0
M  V30 7315 H 690.782 1.55236 -0.182097 0
M  V30 7316 H 691.517 2.36571 2.21821 0
M  V30 7317 H 691.302 3.75814 1.11833 0
M  V30 7318 H 692.792 3.61102 2.09751 0
M  V30 7319 N 693.229 0.160201 1.56784 0
M  V30 7320 C 694.176 -0.774416 2.1742 0
M  V30 7321 C 695.146 -1.23483 1.11091 0
M  V30 7322 O 696.331 -1.30499 1.39193 0
M  V30 7323 C 693.471 -2.00283 2.81035 0
M  V30 7324 C 692.584 -1.58701 4.01793 0
M  V30 7325 C 691.719 -2.76824 4.53367 0
M  V30 7326 C 690.758 -2.31679 5.66561 0
M  V30 7327 N 689.895 -3.42856 6.12694 0
M  V30 7328 H 694.735 -0.250542 2.96945 0
M  V30 7329 H 692.272 -0.111943 1.46673 0
M  V30 7330 H 694.23 -2.72316 3.16069 0
M  V30 7331 H 692.86 -2.5006 2.04132 0
M  V30 7332 H 691.912 -0.76384 3.72652 0
M  V30 7333 H 693.224 -1.21555 4.83762 0
M  V30 7334 H 692.378 -3.57029 4.90525 0
M  V30 7335 H 691.117 -3.17223 3.70433 0
M  V30 7336 H 690.122 -1.49917 5.28966 0
M  V30 7337 H 691.347 -1.9235 6.5129 0
M  V30 7338 H 689.293 -3.82852 5.32692 0
M  V30 7339 H 689.21 -3.09767 6.89624 0
M  V30 7340 H 690.478 -4.23379 6.545 0
M  V30 7341 N 694.707 -1.5719 -0.113559 0
M  V30 7342 C 695.655 -2.01725 -1.158 0
M  V30 7343 C 696.649 -0.915105 -1.42556 0
M  V30 7344 O 697.855 -1.10031 -1.42454 0
M  V30 7345 H 694.23 -0.64262 -0.390569 0
M  V30 7346 H 696.201 -2.88666 -0.755926 0
M  V30 7347 C 694.95 -2.44203 -2.47507 0
M  V30 7348 H 694.273 -3.28582 -2.27758 0
M  V30 7349 H 695.713 -2.79158 -3.19135 0
M  V30 7350 C 694.172 -1.30785 -3.10478 0
M  V30 7351 O 694.702 -0.626807 -3.9678 0
M  V30 7352 N 692.908 -1.06352 -2.7044 0
M  V30 7353 H 692.455 -1.61913 -2.00355 0
M  V30 7354 H 692.413 -0.306614 -3.12901 0
M  V30 7355 N 696.185 0.383891 -1.52853 0
M  V30 7356 C 697.596 0.961591 -1.60032 0
M  V30 7357 C 697.947 1.90819 -0.456333 0
M  V30 7358 O 697.072 2.12288 0.419873 0
M  V30 7359 C 697.667 1.75078 -2.90057 0
M  V30 7360 C 696.226 2.2781 -2.99632 0
M  V30 7361 C 695.373 1.08512 -2.55187 0
M  V30 7362 H 698.324 0.163269 -1.57858 0
M  V30 7363 H 698.345 2.61046 -2.7683 0
M  V30 7364 H 697.857 1.06157 -3.73299 0
M  V30 7365 H 695.958 3.00028 -2.20939 0
M  V30 7366 H 696.071 2.56947 -4.0437 0
M  V30 7367 H 694.435 1.44667 -2.09627 0
M  V30 7368 H 695.218 0.41118 -3.40829 0
M  V30 7369 N 697.663 1.43903 0.642637 0
M  V30 7370 C 698.94 1.36556 1.40043 0
M  V30 7371 C 699.32 0.0185588 2.11092 0
M  V30 7372 O 698.668 -0.998438 2.05532 0
M  V30 7373 C 698.878 2.55596 2.37638 0
M  V30 7374 C 700.226 2.99153 3.01318 0
M  V30 7375 O 701.25 2.55719 2.47965 0
M  V30 7376 O 700.109 3.74427 3.98078 0
M  V30 7377 H 697.203 0.540189 0.626198 0
M  V30 7378 H 699.749 1.55971 0.668657 0
M  V30 7379 H 698.521 3.45256 1.84158 0
M  V30 7380 H 698.144 2.38334 3.18249 0
M  V30 7381 N 699.141 -0.881989 1.30609 0
M  V30 7382 C 700.369 -1.66711 1.22536 0
M  V30 7383 C 700.784 -1.87614 -0.2113 0
M  V30 7384 O 700.141 -1.42576 -1.13923 0
M  V30 7385 C 700.192 -3.04182 1.95335 0
M  V30 7386 O 699.913 -2.8422 3.33393 0
M  V30 7387 C 701.414 -3.98617 1.93956 0
M  V30 7388 H 698.634 -0.520124 0.423925 0
M  V30 7389 H 701.178 -1.10174 1.72285 0
M  V30 7390 H 699.333 -3.57442 1.49378 0
M  V30 7391 H 699.747 -3.71452 3.70302 0
M  V30 7392 H 701.221 -4.92433 2.49426 0
M  V30 7393 H 701.698 -4.29473 0.919198 0
M  V30 7394 H 702.304 -3.51292 2.39738 0
M  V30 7395 N 700.619 -1.13374 -1.09472 0
M  V30 7396 C 701.867 -0.893422 -1.8128 0
M  V30 7397 C 702.188 0.582029 -1.86111 0
M  V30 7398 O 701.458 1.42305 -1.34633 0
M  V30 7399 H 700.038 -0.327543 -0.67136 0
M  V30 7400 H 702.7 -1.43018 -1.32408 0
M  V30 7401 H 701.796 -1.28374 -2.84476 0
M  V30 7402 N 702.098 1.27442 -0.927168 0
M  V30 7403 C 703.328 1.9821 -0.582775 0
M  V30 7404 C 703.736 1.69361 0.843406 0
M  V30 7405 O 703.079 0.950381 1.57205 0
M  V30 7406 C 703.141 3.52048 -0.728165 0
M  V30 7407 C 702.805 4.04518 -2.12637 0
M  V30 7408 C 703.802 4.17332 -3.10048 0
M  V30 7409 C 701.487 4.38879 -2.44317 0
M  V30 7410 C 703.481 4.6378 -4.37249 0
M  V30 7411 C 701.168 4.85018 -3.71753 0
M  V30 7412 C 702.166 4.97428 -4.68033 0
M  V30 7413 O 701.854 5.42556 -5.93202 0
M  V30 7414 H 701.586 0.639314 -0.219667 0
M  V30 7415 H 704.14 1.63272 -1.24626 0
M  V30 7416 H 702.37 3.86699 -0.00758143 0
M  V30 7417 H 704.059 4.04033 -0.388906 0
M  V30 7418 H 704.825 3.91046 -2.86894 0
M  V30 7419 H 700.704 4.28462 -1.70121 0
M  V30 7420 H 704.248 4.73382 -5.12402 0
M  V30 7421 H 700.145 5.10746 -3.94726 0
M  V30 7422 H 700.913 5.60811 -5.96182 0
M  V30 7423 N 703.576 0.692616 1.41565 0
M  V30 7424 C 704.539 0.0344174 2.29174 0
M  V30 7425 C 705.539 -0.710961 1.44229 0
M  V30 7426 O 706.729 -0.546293 1.65412 0
M  V30 7427 C 703.861 -0.961682 3.27054 0
M  V30 7428 H 705.054 0.805755 2.88873 0
M  V30 7429 H 702.607 0.455947 1.49502 0
M  V30 7430 H 703.342 -1.76089 2.72329 0
M  V30 7431 H 703.127 -0.430375 3.89731 0
M  V30 7432 H 704.617 -1.4201 3.92712 0
M  V30 7433 N 705.054 -1.51416 0.437162 0
M  V30 7434 C 705.987 -2.24309 -0.419602 0
M  V30 7435 C 706.965 -1.26236 -1.02485 0
M  V30 7436 O 708.149 -1.5537 -1.06735 0
M  V30 7437 C 705.276 -2.99335 -1.58482 0
M  V30 7438 C 704.322 -4.12064 -1.10027 0
M  V30 7439 S 705.155 -5.35483 -0.0424476 0
M  V30 7440 C 706.311 -6.14047 -1.21234 0
M  V30 7441 H 706.544 -2.96632 0.199259 0
M  V30 7442 H 704.077 -1.528 0.22168 0
M  V30 7443 H 706.035 -3.43159 -2.25282 0
M  V30 7444 H 704.696 -2.26602 -2.17509 0
M  V30 7445 H 703.889 -4.63836 -1.97161 0
M  V30 7446 H 703.491 -3.70499 -0.510507 0
M  V30 7447 H 705.783 -6.43123 -2.13072 0
M  V30 7448 H 706.726 -7.04279 -0.734582 0
M  V30 7449 H 707.134 -5.45538 -1.45082 0
M  V30 7450 N 706.532 -0.168513 -1.56696 0
M  V30 7451 C 707.943 0.348694 -1.83415 0
M  V30 7452 C 708.294 1.63257 -1.0882 0
M  V30 7453 O 707.419 2.13707 -0.340333 0
M  V30 7454 C 708.014 0.639423 -3.32711 0
M  V30 7455 C 706.573 1.10108 -3.59935 0
M  V30 7456 C 705.72 0.135464 -2.76969 0
M  V30 7457 H 708.671 -0.392829 -1.53761 0
M  V30 7458 H 708.692 1.49179 -3.50037 0
M  V30 7459 H 708.204 -0.295173 -3.86976 0
M  V30 7460 H 706.305 2.05088 -3.11079 0
M  V30 7461 H 706.418 1.01218 -4.68286 0
M  V30 7462 H 704.782 0.632286 -2.46727 0
M  V30 7463 H 705.565 -0.793104 -3.34013 0
M  V30 7464 N 708.01 1.57248 0.105221 0
M  V30 7465 C 708.92 2.04653 1.14693 0
M  V30 7466 C 709.936 0.969488 1.44489 0
M  V30 7467 O 711.112 1.28196 1.55331 0
M  V30 7468 C 708.177 2.45297 2.45011 0
M  V30 7469 C 707.238 3.67148 2.22489 0
M  V30 7470 C 706.471 4.05844 3.46592 0
M  V30 7471 O 706.694 3.44736 4.54437 0
M  V30 7472 O 705.628 4.98862 3.36779 0
M  V30 7473 H 709.454 2.93663 0.774336 0
M  V30 7474 H 707.039 1.45998 0.31701 0
M  V30 7475 H 708.921 2.72112 3.21766 0
M  V30 7476 H 707.596 1.59429 2.81717 0
M  V30 7477 H 706.503 3.45463 1.43547 0
M  V30 7478 H 707.836 4.53764 1.9068 0
M  V30 7479 N 709.488 -0.375779 1.53054 0
M  V30 7480 C 710.737 -1.11674 1.67964 0
M  V30 7481 C 711.05 -1.90755 0.432655 0
M  V30 7482 O 712.256 -2.67538 0.462109 0
M  V30 7483 C 710.712 -2.0344 2.96884 0
M  V30 7484 C 710.32 -1.29719 4.28809 0
M  V30 7485 C 712.064 -2.7759 3.2116 0
M  V30 7486 C 709.971 -2.20327 5.48826 0
M  V30 7487 H 708.901 -0.420597 0.625791 0
M  V30 7488 H 711.552 -0.378499 1.79554 0
M  V30 7489 H 709.934 -2.80953 2.79072 0
M  V30 7490 H 711.108 -0.573394 4.57219 0
M  V30 7491 H 709.423 -0.674735 4.10897 0
M  V30 7492 H 712.02 -3.4559 4.0801 0
M  V30 7493 H 712.363 -3.42399 2.36789 0
M  V30 7494 H 712.896 -2.07164 3.396 0
M  V30 7495 H 709.635 -1.60113 6.35645 0
M  V30 7496 H 709.155 -2.90585 5.2471 0
M  V30 7497 H 710.834 -2.80116 5.83219 0
M  V30 7498 N 710.966 -1.44241 -0.634997 0
M  V30 7499 C 712.382 -1.28043 -0.952742 0
M  V30 7500 C 712.582 -0.21338 -2.00367 0
M  V30 7501 O 711.638 0.402042 -2.49279 0
M  V30 7502 C 712.951 -2.65076 -1.41968 0
M  V30 7503 C 714.499 -2.72755 -1.53537 0
M  V30 7504 C 714.974 -4.10249 -2.03616 0
M  V30 7505 N 716.465 -4.12406 -2.10892 0
M  V30 7506 C 717.2 -5.15641 -2.50803 0
M  V30 7507 N 716.696 -6.29239 -2.89879 0
M  V30 7508 N 718.489 -5.02995 -2.50903 0
M  V30 7509 H 710.64 -2.12315 0.060098 0
M  V30 7510 H 712.903 -0.947326 -0.0357325 0
M  V30 7511 H 712.609 -3.44213 -0.721804 0
M  V30 7512 H 712.483 -2.91704 -2.39141 0
M  V30 7513 H 714.87 -1.93939 -2.22422 0
M  V30 7514 H 714.951 -2.49872 -0.547496 0
M  V30 7515 H 714.595 -4.8954 -1.35327 0
M  V30 7516 H 714.525 -4.30507 -3.03268 0
M  V30 7517 H 717.016 -3.30417 -1.83393 0
M  V30 7518 H 717.329 -7.03827 -3.19135 0
M  V30 7519 H 715.674 -6.32683 -2.8764 0
M  V30 7520 H 718.865 -4.13306 -2.19763 0
M  V30 7521 H 719.038 -5.83574 -2.81683 0
M  V30 7522 N 712.444 0.87505 -1.31075 0
M  V30 7523 C 713.672 1.66058 -1.23419 0
M  V30 7524 C 714.087 1.87723 0.201347 0
M  V30 7525 O 713.444 1.43178 1.13165 0
M  V30 7526 C 713.495 3.03142 -1.96945 0
M  V30 7527 O 713.216 2.82448 -3.34895 0
M  V30 7528 C 714.717 3.97583 -1.96067 0
M  V30 7529 H 711.937 0.517868 -0.426677 0
M  V30 7530 H 714.481 1.09258 -1.72867 0
M  V30 7531 H 712.636 3.56645 -1.51271 0
M  V30 7532 H 713.05 3.69483 -3.72267 0
M  V30 7533 H 714.524 4.91104 -2.52034 0
M  V30 7534 H 715.001 4.2898 -0.941961 0
M  V30 7535 H 715.607 3.50015 -2.41597 0
M  V30 7536 N 713.922 1.13953 1.08869 0
M  V30 7537 C 715.17 0.903023 1.80803 0
M  V30 7538 C 715.491 -0.572151 1.86417 0
M  V30 7539 O 714.761 -1.41589 1.35386 0
M  V30 7540 H 713.341 0.331099 0.669614 0
M  V30 7541 H 716.003 1.43719 1.31647 0
M  V30 7542 H 715.099 1.29881 2.83791 0
M  V30 7543 N 715.4 -1.26948 0.933913 0
M  V30 7544 C 716.628 -1.98186 0.59414 0
M  V30 7545 C 717.043 -1.69614 -0.829257 0
M  V30 7546 O 716.4 -0.960213 -1.55197 0
M  V30 7547 C 716.451 -3.52123 0.818026 0
M  V30 7548 O 716.172 -3.79698 2.18543 0
M  V30 7549 C 717.673 -4.40608 0.48781 0
M  V30 7550 H 714.893 -0.632305 0.224569 0
M  V30 7551 H 717.437 -1.61646 1.25263 0
M  V30 7552 H 715.592 -3.86851 0.206246 0
M  V30 7553 H 716.006 -4.7426 2.24005 0
M  V30 7554 H 717.48 -5.47606 0.695126 0
M  V30 7555 H 717.957 -4.35394 -0.576913 0
M  V30 7556 H 718.563 -4.11411 1.078 0
M  V30 7557 N 716.879 -0.700114 -1.41195 0
M  V30 7558 C 718.128 -0.230082 -2.00383 0
M  V30 7559 C 718.441 1.17857 -1.56106 0
M  V30 7560 O 719.647 1.74631 -2.07885 0
M  V30 7561 C 718.103 -0.360447 -3.5809 0
M  V30 7562 C 717.711 -1.77475 -4.11347 0
M  V30 7563 C 719.455 0.0495799 -4.24471 0
M  V30 7564 C 717.362 -1.85653 -5.61504 0
M  V30 7565 H 716.292 -0.0822633 -0.749499 0
M  V30 7566 H 718.943 -0.868969 -1.6162 0
M  V30 7567 H 717.325 0.346768 -3.94479 0
M  V30 7568 H 718.499 -2.51109 -3.86369 0
M  V30 7569 H 716.814 -2.13486 -3.57509 0
M  V30 7570 H 719.411 0.00898219 -5.34699 0
M  V30 7571 H 719.754 1.08904 -4.01803 0
M  V30 7572 H 720.287 -0.607521 -3.93134 0
M  V30 7573 H 717.026 -2.87667 -5.89006 0
M  V30 7574 H 716.546 -1.1641 -5.88395 0
M  V30 7575 H 718.225 -1.62151 -6.26351 0
M  V30 7576 N 718.357 1.51182 -0.445186 0
M  V30 7577 C 719.29 2.24528 0.4077 0
M  V30 7578 C 720.268 1.26778 1.01814 0
M  V30 7579 O 721.452 1.55934 1.05909 0
M  V30 7580 C 718.579 3.00171 1.56892 0
M  V30 7581 C 717.625 4.12641 1.0784 0
M  V30 7582 S 718.458 5.35498 0.014049 0
M  V30 7583 C 719.614 6.14681 1.17975 0
M  V30 7584 H 719.847 2.96522 -0.214987 0
M  V30 7585 H 717.38 1.52681 -0.229781 0
M  V30 7586 H 719.338 3.44349 2.23459 0
M  V30 7587 H 717.999 2.27752 2.16304 0
M  V30 7588 H 717.192 4.64875 1.94698 0
M  V30 7589 H 716.794 3.70765 0.490852 0
M  V30 7590 H 719.086 6.44244 2.09658 0
M  V30 7591 H 720.029 7.04659 0.697222 0
M  V30 7592 H 720.437 5.46299 1.42187 0
M  V30 7593 N 719.835 0.176821 1.56605 0
M  V30 7594 C 720.798 -0.737429 2.17013 0
M  V30 7595 C 721.798 -1.15414 1.11965 0
M  V30 7596 O 722.988 -1.0702 1.37449 0
M  V30 7597 C 720.12 -2.00445 2.75744 0
M  V30 7598 H 721.313 -0.211455 2.99154 0
M  V30 7599 H 718.866 -0.0727582 1.56131 0
M  V30 7600 H 719.601 -2.57338 1.97352 0
M  V30 7601 H 719.386 -1.71456 3.52626 0
M  V30 7602 H 720.876 -2.65679 3.22187 0
M  V30 7603 N 721.313 -1.57302 -0.09688 0
M  V30 7604 C 722.276 -2.00976 -1.10188 0
M  V30 7605 C 723.276 -0.903009 -1.3305 0
M  V30 7606 O 724.466 -1.16853 -1.29194 0
M  V30 7607 C 721.598 -2.36893 -2.45142 0
M  V30 7608 H 722.791 -2.9098 -0.726003 0
M  V30 7609 H 720.344 -1.52515 -0.341872 0
M  V30 7610 H 721.079 -1.49837 -2.8761 0
M  V30 7611 H 720.864 -3.17632 -2.29897 0
M  V30 7612 H 722.354 -2.71345 -3.1743 0
M  V30 7613 N 722.791 0.367657 -1.53252 0
M  V30 7614 C 724.068 1.12606 -1.59935 0
M  V30 7615 C 724.448 2.07167 -0.405606 0
M  V30 7616 O 723.796 2.20364 0.604323 0
M  V30 7617 C 724.006 1.86699 -2.94863 0
M  V30 7618 C 725.354 2.41306 -3.49366 0
M  V30 7619 O 726.378 1.96828 -2.96879 0
M  V30 7620 O 725.237 3.2261 -4.41118 0
M  V30 7621 H 722.331 0.516438 -0.645926 0
M  V30 7622 H 724.877 0.371088 -1.65593 0
M  V30 7623 H 723.649 1.17674 -3.73187 0
M  V30 7624 H 723.272 2.6911 -2.92687 0
M  V30 7625 N 724.269 1.44576 0.627338 0
M  V30 7626 C 725.517 1.47267 1.38408 0
M  V30 7627 C 725.838 0.107971 1.94701 0
M  V30 7628 O 725.108 -0.860206 1.76004 0
M  V30 7629 H 723.688 0.542276 0.513756 0
M  V30 7630 H 726.35 1.80383 0.738099 0
M  V30 7631 H 725.446 2.20025 2.21349 0
M  V30 7632 N 725.747 -0.868086 1.31537 0
M  V30 7633 C 726.679 -1.98165 1.15166 0
M  V30 7634 C 727.692 -1.6255 0.0902335 0
M  V30 7635 O 728.881 -1.75272 0.33791 0
M  V30 7636 C 725.981 -3.30772 0.737776 0
M  V30 7637 C 725.154 -3.94716 1.88462 0
M  V30 7638 C 724.213 -5.05641 1.45648 0
M  V30 7639 O 723.239 -5.2636 2.16642 0
M  V30 7640 N 724.441 -5.79474 0.34493 0
M  V30 7641 H 727.206 -2.12754 2.11083 0
M  V30 7642 H 724.767 -1.04217 1.23897 0
M  V30 7643 H 726.759 -4.02366 0.434032 0
M  V30 7644 H 725.329 -3.1233 -0.129834 0
M  V30 7645 H 724.549 -3.16079 2.35558 0
M  V30 7646 H 725.837 -4.34175 2.65273 0
M  V30 7647 H 725.235 -5.65164 -0.246259 0
M  V30 7648 H 723.792 -6.51722 0.100728 0
M  V30 7649 N 727.225 -1.14528 -1.08264 0
M  V30 7650 C 728.453 -0.937964 -1.84418 0
M  V30 7651 C 728.868 0.51357 -1.81681 0
M  V30 7652 O 728.225 1.35591 -1.22153 0
M  V30 7653 C 728.276 -1.43272 -3.31897 0
M  V30 7654 O 727.997 -2.82738 -3.34651 0
M  V30 7655 C 729.498 -1.26555 -4.24851 0
M  V30 7656 H 726.718 -0.333704 -0.582136 0
M  V30 7657 H 729.262 -1.52076 -1.36723 0
M  V30 7658 H 727.417 -0.892653 -3.76975 0
M  V30 7659 H 727.831 -3.04971 -4.26724 0
M  V30 7660 H 729.305 -1.66031 -5.26439 0
M  V30 7661 H 729.782 -0.208589 -4.38704 0
M  V30 7662 H 730.388 -1.79423 -3.856 0
M  V30 7663 N 728.703 1.26451 -0.940633 0
M  V30 7664 C 730.114 1.75726 -0.630653 0
M  V30 7665 C 730.465 1.76631 0.854167 0
M  V30 7666 O 729.59 1.37807 1.66848 0
M  V30 7667 C 730.185 3.19114 -1.13805 0
M  V30 7668 C 728.744 3.66005 -0.878497 0
M  V30 7669 C 727.891 2.45505 -1.28928 0
M  V30 7670 H 730.842 1.12535 -1.119 0
M  V30 7671 H 730.863 3.77311 -0.491625 0
M  V30 7672 H 730.375 3.18424 -2.21874 0
M  V30 7673 H 728.476 3.72126 0.187833 0
M  V30 7674 H 728.589 4.54844 -1.50512 0
M  V30 7675 H 726.953 2.4467 -0.707713 0
M  V30 7676 H 727.736 2.47516 -2.37888 0
M  V30 7677 N 730.181 0.707592 1.40822 0
M  V30 7678 C 731.111 0.0644925 2.33411 0
M  V30 7679 C 732.092 -0.754205 1.52466 0
M  V30 7680 O 733.277 -0.704749 1.80961 0
M  V30 7681 C 730.407 -0.863865 3.36385 0
M  V30 7682 C 729.361 -0.15138 4.27732 0
M  V30 7683 C 728.687 -1.19491 5.21177 0
M  V30 7684 C 729.987 0.989607 5.12839 0
M  V30 7685 H 731.681 0.837829 2.87438 0
M  V30 7686 H 729.227 0.404346 1.38207 0
M  V30 7687 H 731.18 -1.32309 4.0009 0
M  V30 7688 H 729.904 -1.66901 2.80734 0
M  V30 7689 H 728.563 0.287937 3.65467 0
M  V30 7690 H 728.211 -1.9929 4.61836 0
M  V30 7691 H 727.911 -0.723123 5.83134 0
M  V30 7692 H 729.435 -1.6544 5.8776 0
M  V30 7693 H 730.849 0.610114 5.70044 0
M  V30 7694 H 729.246 1.38926 5.83798 0
M  V30 7695 H 730.316 1.82389 4.49291 0
M  V30 7696 N 731.66 -1.50943 0.453197 0
M  V30 7697 C 732.89 -2.06328 -0.105981 0
M  V30 7698 C 733.298 -1.31909 -1.35634 0
M  V30 7699 O 732.641 -0.376607 -1.79798 0
M  V30 7700 C 732.703 -3.5631 -0.477868 0
M  V30 7701 C 732.367 -4.52093 0.667925 0
M  V30 7702 C 733.364 -4.96421 1.54475 0
M  V30 7703 C 731.049 -4.95001 0.853168 0
M  V30 7704 C 733.043 -5.82346 2.59138 0
M  V30 7705 C 730.73 -5.80713 1.90305 0
M  V30 7706 C 731.728 -6.24284 2.77053 0
M  V30 7707 O 731.416 -7.08291 3.80236 0
M  V30 7708 H 731.148 -0.675986 -0.00427247 0
M  V30 7709 H 733.702 -1.95314 0.635738 0
M  V30 7710 H 731.932 -3.65163 -1.27252 0
M  V30 7711 H 733.621 -3.94138 -0.970039 0
M  V30 7712 H 734.387 -4.63953 1.41324 0
M  V30 7713 H 730.266 -4.60619 0.187482 0
M  V30 7714 H 733.81 -6.16276 3.2688 0
M  V30 7715 H 729.707 -6.12593 2.03469 0
M  V30 7716 H 730.475 -7.26504 3.77007 0
M  V30 7717 N 733.138 -0.185124 -1.56509 0
M  V30 7718 C 734.368 0.461469 -2.0138 0
M  V30 7719 C 734.776 1.56417 -1.06445 0
M  V30 7720 O 734.119 1.83603 -0.0597515 0
M  V30 7721 C 734.181 1.08731 -3.42663 0
M  V30 7722 C 733.845 0.124581 -4.5683 0
M  V30 7723 C 734.842 -0.662295 -5.15664 0
M  V30 7724 C 732.527 0.0163947 -5.02297 0
M  V30 7725 C 734.521 -1.54442 -6.18406 0
M  V30 7726 C 732.208 -0.869301 -6.04885 0
M  V30 7727 C 733.206 -1.64828 -6.62813 0
M  V30 7728 O 732.894 -2.51915 -7.63409 0
M  V30 7729 H 732.626 0.1212 -0.665046 0
M  V30 7730 H 735.18 -0.288119 -2.03369 0
M  V30 7731 H 733.41 1.8853 -3.37629 0
M  V30 7732 H 735.099 1.63753 -3.71403 0
M  V30 7733 H 735.865 -0.588963 -4.81411 0
M  V30 7734 H 731.744 0.61253 -4.56913 0
M  V30 7735 H 735.288 -2.15289 -6.63548 0
M  V30 7736 H 731.185 -0.943786 -6.38563 0
M  V30 7737 H 731.953 -2.45584 -7.80789 0
M  V30 7738 N 734.616 1.57351 0.0885366 0
M  V30 7739 C 735.563 2.02523 1.10693 0
M  V30 7740 C 736.533 0.902736 1.39427 0
M  V30 7741 O 737.718 1.16921 1.50779 0
M  V30 7742 C 734.858 2.46013 2.42016 0
M  V30 7743 C 733.971 3.7181 2.19957 0
M  V30 7744 C 733.106 4.04152 3.44724 0
M  V30 7745 C 732.145 5.2304 3.17956 0
M  V30 7746 N 731.282 5.51102 4.35007 0
M  V30 7747 H 736.122 2.89302 0.714742 0
M  V30 7748 H 733.659 1.43084 0.341378 0
M  V30 7749 H 735.617 2.69274 3.18665 0
M  V30 7750 H 734.247 1.62235 2.79069 0
M  V30 7751 H 733.299 3.55987 1.34079 0
M  V30 7752 H 734.611 4.58604 1.96173 0
M  V30 7753 H 733.765 4.28225 4.29777 0
M  V30 7754 H 732.504 3.15893 3.71568 0
M  V30 7755 H 731.509 4.98781 2.31296 0
M  V30 7756 H 732.734 6.12902 2.92451 0
M  V30 7757 H 730.68 4.65802 4.61914 0
M  V30 7758 H 730.597 6.3228 4.14437 0
M  V30 7759 H 731.865 5.79714 5.21106 0
M  V30 7760 N 736.094 -0.359525 1.53444 0
M  V30 7761 C 737.024 -1.44662 1.8329 0
M  V30 7762 C 738.005 -1.55617 0.68683 0
M  V30 7763 O 739.19 -1.70086 0.93725 0
M  V30 7764 C 736.32 -2.81923 2.02822 0
M  V30 7765 C 735.274 -2.85787 3.18606 0
M  V30 7766 C 734.6 -4.25781 3.23442 0
M  V30 7767 C 735.9 -2.52762 4.57065 0
M  V30 7768 H 737.594 -1.19934 2.74329 0
M  V30 7769 H 735.14 -0.575517 1.31999 0
M  V30 7770 H 737.093 -3.58005 2.22285 0
M  V30 7771 H 735.817 -3.08051 1.085 0
M  V30 7772 H 734.476 -2.12157 2.98973 0
M  V30 7773 H 734.124 -4.48994 2.26745 0
M  V30 7774 H 733.824 -4.29281 4.01238 0
M  V30 7775 H 735.348 -5.03727 3.45096 0
M  V30 7776 H 736.762 -3.18557 4.76649 0
M  V30 7777 H 735.159 -2.67569 5.37147 0
M  V30 7778 H 736.229 -1.47993 4.61764 0
M  V30 7779 N 737.572 -1.44907 -0.619662 0
M  V30 7780 C 738.8 -1.51795 -1.40591 0
M  V30 7781 C 739.215 -0.146553 -1.8823 0
M  V30 7782 O 738.572 0.849698 -1.61513 0
M  V30 7783 C 738.623 -2.49229 -2.61853 0
M  V30 7784 O 738.344 -3.81039 -2.16197 0
M  V30 7785 C 739.845 -2.65696 -3.54853 0
M  V30 7786 H 737.065 -0.514463 -0.430777 0
M  V30 7787 H 739.609 -1.8998 -0.756813 0
M  V30 7788 H 737.764 -2.14149 -3.2283 0
M  V30 7789 H 738.178 -4.33747 -2.94896 0
M  V30 7790 H 739.652 -3.37874 -4.36515 0
M  V30 7791 H 740.129 -1.71316 -4.0441 0
M  V30 7792 H 740.735 -3.01724 -2.99737 0
M  V30 7793 N 739.05 0.861098 -1.31996 0
M  V30 7794 C 739.983 1.97266 -1.14724 0
M  V30 7795 C 740.961 1.62528 -0.0483789 0
M  V30 7796 O 742.145 1.87366 -0.206478 0
M  V30 7797 C 739.272 3.30181 -0.754861 0
M  V30 7798 C 738.318 3.839 -1.85804 0
M  V30 7799 S 739.151 4.08274 -3.46515 0
M  V30 7800 C 740.307 5.44174 -3.09235 0
M  V30 7801 H 740.54 2.11614 -2.08822 0
M  V30 7802 H 738.073 1.01232 -1.16582 0
M  V30 7803 H 740.031 4.06996 -0.535232 0
M  V30 7804 H 738.692 3.13655 0.167155 0
M  V30 7805 H 737.885 4.80013 -1.53633 0
M  V30 7806 H 737.487 3.13907 -2.03318 0
M  V30 7807 H 739.779 6.26172 -2.58679 0
M  V30 7808 H 740.722 5.81301 -4.04345 0
M  V30 7809 H 741.13 5.0787 -2.46431 0
M  V30 7810 N 740.528 1.15101 1.07655 0
M  V30 7811 C 741.939 0.933848 1.61667 0
M  V30 7812 C 742.29 -0.525569 1.8903 0
M  V30 7813 O 741.415 -1.39605 1.65346 0
M  V30 7814 C 742.01 1.68876 2.93711 0
M  V30 7815 C 740.569 1.51697 3.44478 0
M  V30 7816 C 739.716 1.70633 2.18586 0
M  V30 7817 H 742.667 1.30171 0.907816 0
M  V30 7818 H 742.688 1.15645 3.625 0
M  V30 7819 H 742.2 2.7509 2.73764 0
M  V30 7820 H 740.301 0.478635 3.69513 0
M  V30 7821 H 740.414 2.29194 4.20722 0
M  V30 7822 H 738.778 1.13259 2.28132 0
M  V30 7823 H 739.561 2.78206 2.01137 0
M  V30 7824 N 742.006 -1.2595 0.947325 0
M  V30 7825 C 742.936 -2.28521 0.479604 0
M  V30 7826 C 743.917 -1.63469 -0.470293 0
M  V30 7827 O 745.102 -1.90627 -0.370824 0
M  V30 7828 C 742.232 -3.46397 -0.250289 0
M  V30 7829 C 741.186 -4.23578 0.613643 0
M  V30 7830 C 740.512 -5.34131 -0.246568 0
M  V30 7831 C 741.812 -4.86979 1.88809 0
M  V30 7832 H 743.506 -2.67895 1.33688 0
M  V30 7833 H 741.052 -1.28783 0.644274 0
M  V30 7834 H 743.005 -4.17269 -0.588576 0
M  V30 7835 H 741.729 -3.05993 -1.14175 0
M  V30 7836 H 740.388 -3.54478 0.93491 0
M  V30 7837 H 740.036 -4.89968 -1.13756 0
M  V30 7838 H 739.736 -5.86683 0.328123 0
M  V30 7839 H 741.26 -6.07839 -0.579986 0
M  V30 7840 H 742.674 -5.50034 1.61666 0
M  V30 7841 H 741.071 -5.49675 2.40784 0
M  V30 7842 H 742.141 -4.09575 2.5957 0
M  V30 7843 N 743.484 -0.715051 -1.40445 0
M  V30 7844 C 744.434 -0.038591 -2.27967 0
M  V30 7845 C 745.418 0.733099 -1.43229 0
M  V30 7846 O 746.61 0.605388 -1.66325 0
M  V30 7847 C 743.739 0.882801 -3.31755 0
M  V30 7848 C 742.825 0.106325 -4.23967 0
M  V30 7849 N 743.216 -0.910143 -4.97544 0
M  V30 7850 C 741.514 0.33896 -4.4471 0
M  V30 7851 C 742.215 -1.37665 -5.65175 0
M  V30 7852 N 741.191 -0.698905 -5.39088 0
M  V30 7853 H 744.993 -0.81765 -2.82297 0
M  V30 7854 H 742.507 -0.547591 -1.5289 0
M  V30 7855 H 744.504 1.38273 -3.93302 0
M  V30 7856 H 743.164 1.66124 -2.78985 0
M  V30 7857 H 744.175 -1.29097 -5.01552 0
M  V30 7858 H 740.852 1.09377 -4.02918 0
M  V30 7859 H 742.242 -2.22122 -6.34123 0
M  V30 7860 N 744.962 1.50701 -0.461195 0
M  V30 7861 C 746.209 2.02267 0.0971971 0
M  V30 7862 C 746.537 1.34387 1.40608 0
M  V30 7863 O 745.792 0.455254 1.90331 0
M  V30 7864 C 746.091 3.55788 0.33908 0
M  V30 7865 C 745.757 4.42092 -0.886885 0
M  V30 7866 C 744.419 4.65398 -1.22304 0
M  V30 7867 C 746.771 4.92571 -1.70361 0
M  V30 7868 C 744.099 5.36429 -2.37616 0
M  V30 7869 C 746.451 5.64868 -2.84793 0
M  V30 7870 C 745.115 5.86431 -3.18834 0
M  V30 7871 H 744.385 0.740146 0.0355669 0
M  V30 7872 H 747.032 1.81415 -0.61326 0
M  V30 7873 H 745.337 3.751 1.13168 0
M  V30 7874 H 747.034 3.93243 0.784937 0
M  V30 7875 H 743.624 4.24165 -0.614981 0
M  V30 7876 H 747.808 4.74428 -1.4571 0
M  V30 7877 H 743.064 5.51333 -2.64276 0
M  V30 7878 H 747.238 6.02966 -3.48432 0
M  V30 7879 H 744.865 6.41248 -4.08296 0
M  V30 7880 N 746.441 0.193421 1.56409 0
M  V30 7881 C 747.718 -0.493318 1.89277 0
M  V30 7882 C 748.098 -1.79765 1.10669 0
M  V30 7883 O 747.446 -2.27558 0.207274 0
M  V30 7884 C 747.656 -0.713732 3.41624 0
M  V30 7885 C 749.004 -1.03385 4.11821 0
M  V30 7886 O 750.028 -0.801511 3.47065 0
M  V30 7887 O 748.887 -1.47327 5.26267 0
M  V30 7888 H 745.981 -0.256973 0.786062 0
M  V30 7889 H 748.527 0.23351 1.68086 0
M  V30 7890 H 747.299 0.207446 3.9075 0
M  V30 7891 H 746.922 -1.49308 3.68501 0
M  V30 7892 N 747.919 -1.57396 -0.0801906 0
M  V30 7893 C 749.33 -1.75642 -0.633002 0
M  V30 7894 C 749.681 -0.817708 -1.78348 0
M  V30 7895 O 748.806 0.000233743 -2.164 0
M  V30 7896 C 749.401 -3.18502 -1.15507 0
M  V30 7897 C 747.96 -3.38121 -1.65381 0
M  V30 7898 C 747.107 -2.71386 -0.569661 0
M  V30 7899 H 750.058 -1.58027 0.145949 0
M  V30 7900 H 750.079 -3.22198 -2.02408 0
M  V30 7901 H 749.591 -3.86799 -0.317515 0
M  V30 7902 H 747.692 -2.74926 -2.51488 0
M  V30 7903 H 747.805 -4.46521 -1.73654 0
M  V30 7904 H 746.169 -2.33702 -1.0127 0
M  V30 7905 H 746.952 -3.42332 0.257561 0
M  V30 7906 N 749.397 0.351382 -1.53633 0
M  V30 7907 C 750.36 1.41403 -1.80383 0
M  V30 7908 C 751.36 1.45963 -0.674635 0
M  V30 7909 O 752.55 1.46476 -0.942895 0
M  V30 7910 C 749.682 2.80401 -1.93876 0
M  V30 7911 H 750.875 1.18951 -2.75301 0
M  V30 7912 H 748.428 0.58533 -1.44926 0
M  V30 7913 H 749.163 3.08147 -1.01074 0
M  V30 7914 H 748.948 2.78488 -2.7602 0
M  V30 7915 H 750.438 3.57329 -2.16116 0
M  V30 7916 N 750.875 1.45233 0.611969 0
M  V30 7917 C 751.822 1.5357 1.72293 0
M  V30 7918 C 752.792 0.381912 1.6165 0
M  V30 7919 O 753.977 0.594765 1.81293 0
M  V30 7920 C 751.117 1.50419 3.10593 0
M  V30 7921 C 750.23 2.76316 3.32074 0
M  V30 7922 C 749.365 2.64866 4.60456 0
M  V30 7923 C 748.404 3.85838 4.7518 0
M  V30 7924 N 747.541 3.72949 5.94856 0
M  V30 7925 H 752.381 2.4848 1.64504 0
M  V30 7926 H 749.918 1.23302 0.802191 0
M  V30 7927 H 751.876 1.4658 3.90602 0
M  V30 7928 H 750.506 0.590621 3.17351 0
M  V30 7929 H 749.558 2.90261 2.45872 0
M  V30 7930 H 750.87 3.66055 3.38829 0
M  V30 7931 H 750.024 2.58969 5.48653 0
M  V30 7932 H 748.763 1.72719 4.56092 0
M  V30 7933 H 747.768 3.92099 3.85407 0
M  V30 7934 H 748.993 4.79045 4.81344 0
M  V30 7935 H 746.939 2.83567 5.91545 0
M  V30 7936 H 746.856 4.56319 6.02751 0
M  V30 7937 H 748.124 3.70976 6.85563 0
M  V30 7938 N 752.353 -0.854086 1.3245 0
M  V30 7939 C 753.3 -1.96271 1.21434 0
M  V30 7940 C 754.27 -1.6582 0.0963851 0
M  V30 7941 O 755.455 -1.88851 0.27203 0
M  V30 7942 C 752.595 -3.31939 0.943952 0
M  V30 7943 C 751.708 -3.74885 2.14675 0
M  V30 7944 C 750.843 -4.99347 1.81179 0
M  V30 7945 C 749.882 -5.34785 2.97777 0
M  V30 7946 N 749.019 -6.50425 2.6437 0
M  V30 7947 H 753.859 -2.05025 2.16261 0
M  V30 7948 H 751.396 -1.00348 1.07558 0
M  V30 7949 H 753.354 -4.10076 0.767675 0
M  V30 7950 H 751.984 -3.22784 0.0324763 0
M  V30 7951 H 751.036 -2.92396 2.43328 0
M  V30 7952 H 752.348 -3.97068 3.01891 0
M  V30 7953 H 751.502 -5.85193 1.60107 0
M  V30 7954 H 750.241 -4.79101 0.911777 0
M  V30 7955 H 749.246 -4.47451 3.1948 0
M  V30 7956 H 750.471 -5.56988 3.88511 0
M  V30 7957 H 748.417 -6.31695 1.7691 0
M  V30 7958 H 748.334 -6.7263 3.45116 0
M  V30 7959 H 749.602 -7.39422 2.46729 0
M  V30 7960 N 753.831 -1.1567 -1.07043 0
M  V30 7961 C 755.061 -0.956083 -1.83146 0
M  V30 7962 C 755.469 0.498969 -1.82502 0
M  V30 7963 O 754.812 1.35791 -1.23719 0
M  V30 7964 C 754.874 -1.39704 -3.31245 0
M  V30 7965 C 754.538 -2.87045 -3.55604 0
M  V30 7966 C 755.535 -3.85092 -3.49285 0
M  V30 7967 C 753.22 -3.24787 -3.8317 0
M  V30 7968 C 755.214 -5.18885 -3.70185 0
M  V30 7969 C 752.901 -4.58751 -4.03721 0
M  V30 7970 C 753.899 -5.55609 -3.97224 0
M  V30 7971 O 753.587 -6.87154 -4.17223 0
M  V30 7972 H 753.319 -0.339473 -0.58458 0
M  V30 7973 H 755.873 -1.53922 -1.36005 0
M  V30 7974 H 754.103 -0.757326 -3.79212 0
M  V30 7975 H 755.792 -1.16503 -3.88821 0
M  V30 7976 H 756.558 -3.5728 -3.27988 0
M  V30 7977 H 752.437 -2.49979 -3.87339 0
M  V30 7978 H 755.981 -5.94473 -3.6503 0
M  V30 7979 H 751.878 -4.86277 -4.24505 0
M  V30 7980 H 752.646 -6.93618 -4.34553 0
M  V30 7981 N 755.309 1.25446 -0.953992 0
M  V30 7982 C 756.72 1.75047 -0.649255 0
M  V30 7983 C 757.071 1.77527 0.835385 0
M  V30 7984 O 756.196 1.39569 1.65377 0
M  V30 7985 C 756.791 3.17889 -1.17183 0
M  V30 7986 C 755.35 3.65052 -0.917267 0
M  V30 7987 C 754.497 2.44124 -1.31525 0
M  V30 7988 H 757.448 1.11342 -1.13087 0
M  V30 7989 H 757.469 3.76768 -0.531616 0
M  V30 7990 H 756.981 3.16052 -2.25239 0
M  V30 7991 H 755.082 3.72305 0.148354 0
M  V30 7992 H 755.195 4.53222 -1.55328 0
M  V30 7993 H 753.559 2.43906 -0.733624 0
M  V30 7994 H 754.342 2.44979 -2.405 0
M  V30 7995 N 756.787 0.722489 1.40064 0
M  V30 7996 C 758.033 0.265371 2.01056 0
M  V30 7997 C 758.366 -1.14062 1.57174 0
M  V30 7998 O 757.641 -1.77514 0.794916 0
M  V30 7999 C 757.924 0.353157 3.58364 0
M  V30 8000 C 757.777 1.79802 4.123 0
M  V30 8001 C 759.096 -0.271677 4.39261 0
M  V30 8002 H 756.215 0.0979002 0.730469 0
M  V30 8003 H 758.857 0.916289 1.66446 0
M  V30 8004 H 757.007 -0.201037 3.87979 0
M  V30 8005 H 758.679 2.40813 3.93455 0
M  V30 8006 H 756.922 2.32348 3.66329 0
M  V30 8007 H 757.593 1.81079 5.21454 0
M  V30 8008 H 760.069 0.200607 4.15616 0
M  V30 8009 H 758.945 -0.179843 5.48605 0
M  V30 8010 H 759.206 -1.35611 4.20787 0
M  V30 8011 N 758.265 -1.50454 0.469181 0
M  V30 8012 C 759.514 -2.01507 -0.0881425 0
M  V30 8013 C 759.827 -1.35613 -1.40956 0
M  V30 8014 O 761.033 -1.77812 -2.05171 0
M  V30 8015 C 759.489 -3.59301 -0.207596 0
M  V30 8016 C 759.097 -4.34152 1.10527 0
M  V30 8017 C 760.841 -4.18401 -0.716981 0
M  V30 8018 C 758.748 -5.83725 0.949717 0
M  V30 8019 H 757.678 -0.753106 -0.0367156 0
M  V30 8020 H 760.329 -1.73282 0.603788 0
M  V30 8021 H 758.711 -3.84106 -0.963265 0
M  V30 8022 H 759.885 -4.21073 1.87175 0
M  V30 8023 H 758.2 -3.86652 1.54562 0
M  V30 8024 H 760.797 -5.27895 -0.850363 0
M  V30 8025 H 761.14 -3.79657 -1.70782 0
M  V30 8026 H 761.673 -3.97796 -0.0187511 0
M  V30 8027 H 758.412 -6.26938 1.91387 0
M  V30 8028 H 757.932 -5.99383 0.223591 0
M  V30 8029 H 759.611 -6.44065 0.61557 0
M  V30 8030 N 759.743 -0.201713 -1.56304 0
M  V30 8031 C 760.989 0.435952 -1.98059 0
M  V30 8032 C 761.322 1.60811 -1.08873 0
M  V30 8033 O 760.597 1.9398 -0.142128 0
M  V30 8034 C 760.88 0.889706 -3.48936 0
M  V30 8035 C 760.733 -0.284725 -4.48898 0
M  V30 8036 C 762.052 1.7529 -4.03685 0
M  V30 8037 H 759.171 0.15699 -0.720085 0
M  V30 8038 H 761.813 -0.293965 -1.87712 0
M  V30 8039 H 759.963 1.51166 -3.57884 0
M  V30 8040 H 761.635 -0.922531 -4.51981 0
M  V30 8041 H 759.878 -0.935427 -4.23594 0
M  V30 8042 H 760.549 0.0753865 -5.51949 0
M  V30 8043 H 763.025 1.2283 -3.97558 0
M  V30 8044 H 761.901 2.03933 -5.0961 0
M  V30 8045 H 762.162 2.70939 -3.49348 0
M  V30 8046 N 761.222 1.57436 0.0718424 0
M  V30 8047 C 762.452 1.91196 0.782795 0
M  V30 8048 C 762.86 0.795927 1.71644 0
M  V30 8049 O 762.203 -0.239604 1.82131 0
M  V30 8050 C 762.265 3.20421 1.63005 0
M  V30 8051 C 761.929 4.48724 0.865782 0
M  V30 8052 C 762.926 5.19571 0.185051 0
M  V30 8053 C 760.611 4.95345 0.832971 0
M  V30 8054 C 762.605 6.3529 -0.518264 0
M  V30 8055 C 760.292 6.1097 0.125884 0
M  V30 8056 C 761.29 6.80794 -0.548533 0
M  V30 8057 O 760.978 7.94213 -1.24423 0
M  V30 8058 H 760.71 0.636486 0.227731 0
M  V30 8059 H 763.264 2.05348 0.0464187 0
M  V30 8060 H 761.494 3.02478 2.40923 0
M  V30 8061 H 763.183 3.39831 2.21968 0
M  V30 8062 H 763.949 4.8458 0.201707 0
M  V30 8063 H 759.828 4.40871 1.34737 0
M  V30 8064 H 763.372 6.89725 -1.04523 0
M  V30 8065 H 759.269 6.45411 0.107155 0
M  V30 8066 H 760.037 8.10331 -1.1535 0
M  V30 8067 N 762.7 -0.34323 1.53817 0
M  V30 8068 C 763.946 -1.08504 1.71332 0
M  V30 8069 C 764.279 -1.88294 0.475285 0
M  V30 8070 O 763.554 -1.87205 -0.527688 0
M  V30 8071 C 763.837 -2.02597 2.97702 0
M  V30 8072 C 763.69 -1.26268 4.31713 0
M  V30 8073 C 765.009 -3.0241 3.19744 0
M  V30 8074 H 762.128 -0.393072 0.623429 0
M  V30 8075 H 764.77 -0.363579 1.86489 0
M  V30 8076 H 762.92 -2.64118 2.8491 0
M  V30 8077 H 764.592 -0.673594 4.56356 0
M  V30 8078 H 762.835 -0.564696 4.30109 0
M  V30 8079 H 763.506 -1.95253 5.16314 0
M  V30 8080 H 765.982 -2.51004 3.31868 0
M  V30 8081 H 764.858 -3.65449 4.09558 0
M  V30 8082 H 765.119 -3.73806 2.36054 0
M  V30 8083 N 764.178 -1.45556 -0.604258 0
M  V30 8084 C 765.408 -1.53056 -1.38771 0
M  V30 8085 C 765.816 -0.163092 -1.88496 0
M  V30 8086 O 765.159 0.846157 -1.63052 0
M  V30 8087 C 765.221 -2.45656 -2.62476 0
M  V30 8088 C 764.885 -3.92328 -2.34367 0
M  V30 8089 C 765.882 -4.82137 -1.94525 0
M  V30 8090 C 763.567 -4.37275 -2.47177 0
M  V30 8091 C 765.561 -6.14901 -1.67856 0
M  V30 8092 C 763.248 -5.70079 -2.20122 0
M  V30 8093 C 764.246 -6.58711 -1.80524 0
M  V30 8094 O 763.934 -7.89053 -1.53788 0
M  V30 8095 H 763.666 -0.520721 -0.431075 0
M  V30 8096 H 766.22 -1.91464 -0.743693 0
M  V30 8097 H 764.45 -2.02225 -3.29609 0
M  V30 8098 H 766.139 -2.43802 -3.24523 0
M  V30 8099 H 766.905 -4.48675 -1.84162 0
M  V30 8100 H 762.784 -3.68527 -2.76964 0
M  V30 8101 H 766.328 -6.8404 -1.36874 0
M  V30 8102 H 762.225 -6.03095 -2.30102 0
M  V30 8103 H 762.993 -8.01113 -1.67812 0
M  V30 8104 N 765.656 0.84705 -1.32902 0
M  V30 8105 C 766.904 1.5986 -1.2365 0
M  V30 8106 C 767.225 1.93974 0.199789 0
M  V30 8107 O 766.495 1.60273 1.12648 0
M  V30 8108 H 765.075 0.592696 -0.454665 0
M  V30 8109 H 767.737 1.01278 -1.66519 0
M  V30 8110 H 766.833 2.53218 -1.82448 0
M  V30 8111 N 767.134 1.16236 1.06428 0
M  V30 8112 C 768.382 0.941171 1.78847 0
M  V30 8113 C 768.703 -0.53248 1.87589 0
M  V30 8114 O 767.973 -1.38686 1.38358 0
M  V30 8115 H 766.553 0.345228 0.66244 0
M  V30 8116 H 769.215 1.46479 1.28569 0
M  V30 8117 H 768.311 1.35871 2.80972 0
M  V30 8118 N 768.612 -1.24939 0.960631 0
M  V30 8119 C 770.023 -1.74701 0.658529 0
M  V30 8120 C 770.374 -1.77967 -0.825959 0
M  V30 8121 O 769.499 -1.40444 -1.64634 0
M  V30 8122 C 770.094 -3.17263 1.18867 0
M  V30 8123 C 768.653 -3.64561 0.936614 0
M  V30 8124 C 767.8 -2.43423 1.32817 0
M  V30 8125 H 770.751 -1.10741 1.13676 0
M  V30 8126 H 770.772 -3.76481 0.551589 0
M  V30 8127 H 770.284 -3.14854 2.26912 0
M  V30 8128 H 768.385 -3.72378 -0.128608 0
M  V30 8129 H 768.498 -4.52392 1.57729 0
M  V30 8130 H 766.862 -2.43513 0.746548 0
M  V30 8131 H 767.645 -2.437 2.41796 0
M  V30 8132 N 770.09 -0.729906 -1.39679 0
M  V30 8133 C 771.04 -0.0627678 -2.27914 0
M  V30 8134 C 772.024 0.717867 -1.43998 0
M  V30 8135 O 773.216 0.587713 -1.66958 0
M  V30 8136 C 770.345 0.847564 -3.32673 0
M  V30 8137 C 769.431 0.0613515 -4.24056 0
M  V30 8138 N 769.822 -0.962863 -4.96551 0
M  V30 8139 C 768.12 0.291773 -4.45045 0
M  V30 8140 C 768.821 -1.43652 -5.63683 0
M  V30 8141 N 767.797 -0.756044 -5.38317 0
M  V30 8142 H 771.599 -0.847545 -2.81414 0
M  V30 8143 H 769.113 -0.563776 -1.523 0
M  V30 8144 H 771.11 1.34094 -3.94746 0
M  V30 8145 H 769.77 1.63156 -2.80732 0
M  V30 8146 H 770.781 -1.34409 -5.00154 0
M  V30 8147 H 767.458 1.05097 -4.04056 0
M  V30 8148 H 768.848 -2.28835 -6.31731 0
M  V30 8149 N 771.568 1.50203 -0.477153 0
M  V30 8150 C 772.531 2.27194 0.302599 0
M  V30 8151 C 773.531 1.32221 0.915112 0
M  V30 8152 O 774.721 1.55593 0.783348 0
M  V30 8153 C 771.853 3.0938 1.43167 0
M  V30 8154 H 773.046 2.97575 -0.372678 0
M  V30 8155 H 770.599 1.54578 -0.231392 0
M  V30 8156 H 771.334 2.43509 2.14182 0
M  V30 8157 H 771.119 3.79181 0.998197 0
M  V30 8158 H 772.609 3.67592 1.98157 0
M  V30 8159 N 773.046 0.209999 1.56195 0
M  V30 8160 C 773.978 -0.736967 2.17029 0
M  V30 8161 C 774.991 -1.16599 1.13616 0
M  V30 8162 O 776.18 -1.09914 1.40646 0
M  V30 8163 C 773.28 -2.00852 2.72969 0
M  V30 8164 C 772.453 -1.73691 4.01435 0
M  V30 8165 C 771.512 -2.85439 4.42053 0
M  V30 8166 O 770.538 -2.54405 5.09183 0
M  V30 8167 N 771.74 -4.14135 4.06783 0
M  V30 8168 H 774.505 -0.216656 2.98916 0
M  V30 8169 H 772.066 0.0285672 1.61875 0
M  V30 8170 H 774.058 -2.74778 2.97118 0
M  V30 8171 H 772.628 -2.43963 1.95451 0
M  V30 8172 H 771.848 -0.834676 3.85262 0
M  V30 8173 H 773.136 -1.52961 4.85263 0
M  V30 8174 H 772.534 -4.42196 3.52816 0
M  V30 8175 H 771.091 -4.84642 4.35851 0
M  V30 8176 N 774.524 -1.57472 -0.0634922 0
M  V30 8177 C 775.454 -2.07297 -1.07473 0
M  V30 8178 C 776.435 -0.968162 -1.39859 0
M  V30 8179 O 777.62 -1.24139 -1.49343 0
M  V30 8180 C 774.75 -2.52381 -2.38581 0
M  V30 8181 C 773.704 -3.66813 -2.20526 0
M  V30 8182 C 773.03 -3.97982 -3.57092 0
M  V30 8183 C 774.33 -4.96553 -1.61965 0
M  V30 8184 H 776.024 -2.92033 -0.660092 0
M  V30 8185 H 773.57 -1.40488 -0.316074 0
M  V30 8186 H 775.523 -2.85852 -3.09624 0
M  V30 8187 H 774.247 -1.64684 -2.8204 0
M  V30 8188 H 772.906 -3.33639 -1.51924 0
M  V30 8189 H 772.554 -3.07403 -3.98136 0
M  V30 8190 H 772.254 -4.7504 -3.45848 0
M  V30 8191 H 773.778 -4.33956 -4.29552 0
M  V30 8192 H 775.192 -5.28201 -2.22883 0
M  V30 8193 H 773.589 -5.7799 -1.61394 0
M  V30 8194 H 774.659 -4.81396 -0.581918 0
M  V30 8195 N 776.003 0.335068 -1.53997 0
M  V30 8196 C 777.249 1.07594 -1.71905 0
M  V30 8197 C 777.582 1.88039 -0.485264 0
M  V30 8198 O 776.857 1.87482 0.517752 0
M  V30 8199 C 777.14 2.01016 -2.98772 0
M  V30 8200 C 776.993 1.23977 -4.32377 0
M  V30 8201 C 778.312 3.0071 -3.21343 0
M  V30 8202 H 775.431 0.38976 -0.625505 0
M  V30 8203 H 778.073 0.353684 -1.86679 0
M  V30 8204 H 776.223 2.62603 -2.86307 0
M  V30 8205 H 777.895 0.649383 -4.56706 0
M  V30 8206 H 776.138 0.541878 -4.30402 0
M  V30 8207 H 776.809 1.92512 -5.17342 0
M  V30 8208 H 779.285 2.4924 -3.33194 0
M  V30 8209 H 778.161 3.63272 -4.11491 0
M  V30 8210 H 778.422 3.72549 -2.38033 0
M  V30 8211 N 777.481 1.45874 0.596531 0
M  V30 8212 C 778.709 1.54013 1.38158 0
M  V30 8213 C 779.124 0.17648 1.87973 0
M  V30 8214 O 778.481 -0.823895 1.62844 0
M  V30 8215 C 778.532 2.53363 2.57855 0
M  V30 8216 O 778.253 3.8443 2.10108 0
M  V30 8217 C 779.754 2.71308 3.50581 0
M  V30 8218 H 776.974 0.521251 0.422538 0
M  V30 8219 H 779.518 1.9116 0.726493 0
M  V30 8220 H 777.673 2.19257 3.19382 0
M  V30 8221 H 778.087 4.38384 2.87958 0
M  V30 8222 H 779.561 3.44776 4.31084 0
M  V30 8223 H 780.038 1.77728 4.01633 0
M  V30 8224 H 780.644 3.06455 2.94899 0
M  V30 8225 N 778.959 -0.83999 1.33349 0
M  V30 8226 C 779.906 -1.94972 1.23509 0
M  V30 8227 C 780.876 -1.65709 0.113967 0
M  V30 8228 O 782.061 -1.88552 0.292045 0
M  V30 8229 C 779.201 -3.30919 0.979105 0
M  V30 8230 C 778.314 -3.72587 2.18639 0
M  V30 8231 C 777.449 -4.97397 1.86465 0
M  V30 8232 C 776.488 -5.31597 3.03432 0
M  V30 8233 N 775.625 -6.47584 2.71254 0
M  V30 8234 H 780.465 -2.0272 2.18423 0
M  V30 8235 H 778.002 -0.992017 1.08616 0
M  V30 8236 H 779.96 -4.09239 0.811126 0
M  V30 8237 H 778.59 -3.22731 0.0667099 0
M  V30 8238 H 777.642 -2.89799 2.46416 0
M  V30 8239 H 778.954 -3.93844 3.06086 0
M  V30 8240 H 778.108 -5.83462 1.66305 0
M  V30 8241 H 776.847 -4.78107 0.96254 0
M  V30 8242 H 775.852 -4.44037 3.24208 0
M  V30 8243 H 777.077 -5.52836 3.94397 0
M  V30 8244 H 775.023 -6.29783 1.836 0
M  V30 8245 H 774.94 -6.68931 3.52231 0
M  V30 8246 H 776.208 -7.36764 2.54558 0
M  V30 8247 N 780.437 -1.16799 -1.0581 0
M  V30 8248 C 781.665 -0.97687 -1.82387 0
M  V30 8249 C 782.08 0.474917 -1.82729 0
M  V30 8250 O 781.437 1.3297 -1.25001 0
M  V30 8251 C 781.488 -1.50279 -3.28783 0
M  V30 8252 O 781.209 -2.89772 -3.28578 0
M  V30 8253 C 782.71 -1.35538 -4.22071 0
M  V30 8254 H 779.93 -0.345977 -0.574927 0
M  V30 8255 H 782.474 -1.54942 -1.33466 0
M  V30 8256 H 780.629 -0.972414 -3.74997 0
M  V30 8257 H 781.043 -3.13954 -4.20159 0
M  V30 8258 H 782.517 -1.7716 -5.22799 0
M  V30 8259 H 782.994 -0.301598 -4.38163 0
M  V30 8260 H 783.6 -1.87562 -3.81708 0
M  V30 8261 N 781.915 1.24427 -0.967243 0
M  V30 8262 C 783.161 1.93089 -0.639404 0
M  V30 8263 C 783.516 1.7422 0.816407 0
M  V30 8264 O 782.809 1.08435 1.57964 0
M  V30 8265 C 783.003 3.44568 -0.949096 0
M  V30 8266 C 782.832 3.7817 -2.43346 0
M  V30 8267 C 781.602 3.99561 -3.09321 0
M  V30 8268 C 783.8 3.84687 -3.41351 0
M  V30 8269 N 781.782 4.20259 -4.475 0
M  V30 8270 C 783.153 4.10223 -4.64884 0
M  V30 8271 C 785.208 3.67421 -3.36015 0
M  V30 8272 C 783.911 4.20286 -5.8374 0
M  V30 8273 C 785.937 3.78731 -4.54221 0
M  V30 8274 C 785.299 4.04691 -5.76545 0
M  V30 8275 H 781.398 0.728291 -0.284809 0
M  V30 8276 H 783.982 1.49941 -1.24201 0
M  V30 8277 H 782.153 3.86582 -0.375308 0
M  V30 8278 H 783.885 4.00524 -0.579876 0
M  V30 8279 H 780.64 3.95946 -2.59853 0
M  V30 8280 H 781.064 4.34588 -5.19097 0
M  V30 8281 H 785.706 3.46358 -2.42479 0
M  V30 8282 H 783.424 4.40162 -6.77704 0
M  V30 8283 H 787.01 3.66743 -4.51653 0
M  V30 8284 H 785.89 4.1324 -6.66485 0
M  V30 8285 N 783.393 0.737304 1.3929 0
M  V30 8286 C 784.809 0.413132 1.5416 0
M  V30 8287 C 785.009 -1.07574 1.70382 0
M  V30 8288 O 784.065 -1.86185 1.70562 0
M  V30 8289 C 785.378 1.19817 2.75798 0
M  V30 8290 C 786.926 1.18662 2.89635 0
M  V30 8291 C 787.401 1.95427 4.14213 0
M  V30 8292 N 788.892 1.92605 4.21257 0
M  V30 8293 C 789.627 2.48808 5.16606 0
M  V30 8294 N 789.123 3.13659 6.1773 0
M  V30 8295 N 790.916 2.38829 5.08839 0
M  V30 8296 H 783.067 1.70243 1.27008 0
M  V30 8297 H 785.33 0.720802 0.61575 0
M  V30 8298 H 785.036 2.25179 2.70161 0
M  V30 8299 H 784.91 0.804144 3.68529 0
M  V30 8300 H 787.297 0.141112 2.94762 0
M  V30 8301 H 787.378 1.62003 1.97961 0
M  V30 8302 H 787.022 2.9998 4.09847 0
M  V30 8303 H 786.952 1.4949 5.04936 0
M  V30 8304 H 789.443 1.45362 3.48824 0
M  V30 8305 H 789.756 3.54006 6.8695 0
M  V30 8306 H 788.101 3.17749 6.1811 0
M  V30 8307 H 791.292 1.87806 4.28773 0
M  V30 8308 H 791.465 2.82929 5.82971 0
M  V30 8309 N 784.871 -1.49948 0.485112 0
M  V30 8310 C 786.096 -2.073 -0.0645059 0
M  V30 8311 C 786.521 -1.345 -1.31497 0
M  V30 8312 O 785.879 -0.39687 -1.76903 0
M  V30 8313 C 785.927 -3.59201 -0.317304 0
M  V30 8314 O 785.031 -3.88085 -1.39514 0
M  V30 8315 H 784.372 -0.663723 0.0191822 0
M  V30 8316 H 786.902 -1.92963 0.680179 0
M  V30 8317 H 786.912 -4.04227 -0.553604 0
M  V30 8318 H 785.587 -4.11602 0.596387 0
M  V30 8319 H 784.164 -3.54885 -1.14504 0
M  V30 8320 N 786.349 -0.21828 -1.56081 0
M  V30 8321 C 787.574 0.422302 -2.03055 0
M  V30 8322 C 787.999 1.5279 -1.09713 0
M  V30 8323 O 787.357 1.81102 -0.0847187 0
M  V30 8324 C 787.405 0.934177 -3.48289 0
M  V30 8325 O 786.509 2.04574 -3.58083 0
M  V30 8326 H 785.85 0.0959764 -0.657027 0
M  V30 8327 H 788.38 -0.335958 -2.01823 0
M  V30 8328 H 788.39 1.24484 -3.88546 0
M  V30 8329 H 787.065 0.124963 -4.15712 0
M  V30 8330 H 785.642 1.74196 -3.29712 0
M  V30 8331 N 787.827 1.57504 0.0551401 0
M  V30 8332 C 789.073 1.88334 0.752216 0
M  V30 8333 C 789.406 0.812742 1.76375 0
M  V30 8334 O 788.681 -0.175198 1.93709 0
M  V30 8335 C 788.964 3.29824 1.44528 0
M  V30 8336 C 788.817 4.47553 0.449026 0
M  V30 8337 C 790.136 3.69808 2.38601 0
M  V30 8338 H 787.255 0.684973 0.271995 0
M  V30 8339 H 789.897 1.89994 0.0151895 0
M  V30 8340 H 788.047 3.28539 2.07351 0
M  V30 8341 H 789.719 4.60967 -0.175277 0
M  V30 8342 H 787.962 4.33168 -0.234162 0
M  V30 8343 H 788.633 5.43376 0.971917 0
M  V30 8344 H 791.109 3.72293 1.85842 0
M  V30 8345 H 789.985 4.69665 2.84088 0
M  V30 8346 H 790.246 3.00641 3.24141 0
M  V30 8347 N 789.305 -0.326896 1.54172 0
M  V30 8348 C 790.553 -1.06313 1.71878 0
M  V30 8349 C 790.874 -1.88652 0.493498 0
M  V30 8350 O 790.144 -1.89608 -0.492522 0
M  V30 8351 H 788.724 -0.39549 0.633716 0
M  V30 8352 H 791.386 -0.364139 1.91468 0
M  V30 8353 H 790.482 -1.73105 2.59694 0
M  V30 8354 N 790.784 -1.46188 -0.588786 0
M  V30 8355 C 792.032 -1.50885 -1.34455 0
M  V30 8356 C 792.353 -0.159555 -1.94346 0
M  V30 8357 O 791.623 0.813239 -1.78222 0
M  V30 8358 H 790.203 -0.555707 -0.499198 0
M  V30 8359 H 792.865 -1.82277 -0.690014 0
M  V30 8360 H 791.961 -2.25816 -2.15438 0
M  V30 8361 N 792.262 0.832906 -1.33792 0
M  V30 8362 C 793.508 1.59053 -1.26782 0
M  V30 8363 C 793.863 1.91705 0.163399 0
M  V30 8364 O 793.156 1.5638 1.10706 0
M  V30 8365 C 793.35 2.9047 -2.08235 0
M  V30 8366 C 793.179 2.70656 -3.59132 0
M  V30 8367 C 791.949 2.67905 -4.28433 0
M  V30 8368 C 794.147 2.42871 -4.53341 0
M  V30 8369 N 792.129 2.39531 -5.65242 0
M  V30 8370 C 793.5 2.24101 -5.78082 0
M  V30 8371 C 795.555 2.28517 -4.42362 0
M  V30 8372 C 794.258 1.92432 -6.93082 0
M  V30 8373 C 796.284 1.98242 -5.57184 0
M  V30 8374 C 795.646 1.80288 -6.80937 0
M  V30 8375 H 791.745 0.584823 -0.51914 0
M  V30 8376 H 794.329 0.977252 -1.68398 0
M  V30 8377 H 792.5 3.49739 -1.6893 0
M  V30 8378 H 794.232 3.55744 -1.92947 0
M  V30 8379 H 790.987 2.81624 -3.80768 0
M  V30 8380 H 791.411 2.28211 -6.37377 0
M  V30 8381 H 796.053 2.41107 -3.47314 0
M  V30 8382 H 793.771 1.78579 -7.88121 0
M  V30 8383 H 797.357 1.87882 -5.50628 0
M  V30 8384 H 796.237 1.57199 -7.68283 0
M  V30 8385 N 793.74 1.17359 1.05189 0
M  V30 8386 C 795.017 0.871914 1.75091 0
M  V30 8387 C 795.397 -0.627821 2.01548 0
M  V30 8388 O 794.745 -1.5791 1.65156 0
M  V30 8389 C 794.955 1.70687 3.04413 0
M  V30 8390 C 796.303 1.92684 3.78362 0
M  V30 8391 O 797.327 1.67645 3.14282 0
M  V30 8392 O 796.186 2.34765 4.93505 0
M  V30 8393 H 793.28 0.322831 0.761386 0
M  V30 8394 H 795.826 1.28054 1.11357 0
M  V30 8395 H 794.598 2.72405 2.80911 0
M  V30 8396 H 794.221 1.29602 3.75884 0
M  V30 8397 N 795.218 -1.23913 0.973828 0
M  V30 8398 C 796.467 -1.91455 0.63464 0
M  V30 8399 C 796.78 -1.76893 -0.834759 0
M  V30 8400 O 797.986 -2.3918 -1.28473 0
M  V30 8401 C 796.442 -3.43172 1.08447 0
M  V30 8402 C 796.05 -3.66409 2.57776 0
M  V30 8403 C 797.794 -4.1653 0.818721 0
M  V30 8404 C 795.701 -5.11728 2.9646 0
M  V30 8405 H 794.631 -0.716881 0.233661 0
M  V30 8406 H 797.282 -1.40457 1.18085 0
M  V30 8407 H 795.664 -3.93242 0.466524 0
M  V30 8408 H 796.838 -3.26913 3.24753 0
M  V30 8409 H 795.153 -3.06349 2.82027 0
M  V30 8410 H 797.75 -5.23603 1.08367 0
M  V30 8411 H 798.093 -4.15578 -0.245128 0
M  V30 8412 H 798.626 -3.72428 1.39793 0
M  V30 8413 H 795.365 -5.17806 4.01941 0
M  V30 8414 H 794.885 -5.52199 2.34172 0
M  V30 8415 H 796.564 -5.80009 2.86703 0
M  V30 8416 N 796.696 -0.74468 -1.38897 0
M  V30 8417 C 797.926 -0.306982 -2.04307 0
M  V30 8418 C 798.334 1.06652 -1.56275 0
M  V30 8419 O 797.677 1.68699 -0.72708 0
M  V30 8420 C 797.739 -0.241186 -3.5869 0
M  V30 8421 C 797.403 -1.55476 -4.2974 0
M  V30 8422 C 798.4 -2.50229 -4.55721 0
M  V30 8423 C 796.085 -1.82173 -4.68101 0
M  V30 8424 C 798.079 -3.69905 -5.19085 0
M  V30 8425 C 795.766 -3.02125 -5.31191 0
M  V30 8426 C 796.764 -3.95812 -5.56616 0
M  V30 8427 O 796.452 -5.13656 -6.18395 0
M  V30 8428 H 796.184 -0.130416 -0.663301 0
M  V30 8429 H 798.738 -1.01192 -1.78744 0
M  V30 8430 H 796.968 0.519925 -3.83189 0
M  V30 8431 H 798.657 0.165806 -4.05561 0
M  V30 8432 H 799.423 -2.30877 -4.26522 0
M  V30 8433 H 795.302 -1.10091 -4.47662 0
M  V30 8434 H 798.846 -4.43047 -5.38846 0
M  V30 8435 H 794.743 -3.21374 -5.59811 0
M  V30 8436 H 795.511 -5.14119 -6.36886 0
M  V30 8437 N 798.174 1.49689 -0.493057 0
M  V30 8438 C 799.107 2.25712 0.336062 0
M  V30 8439 C 800.085 1.29953 0.977294 0
M  V30 8440 O 801.269 1.59225 1.00895 0
M  V30 8441 C 798.396 3.0501 1.47263 0
M  V30 8442 C 797.442 4.15863 0.946575 0
M  V30 8443 S 798.275 5.35272 -0.156323 0
M  V30 8444 C 799.431 6.18123 0.983601 0
M  V30 8445 H 799.664 2.95688 -0.309215 0
M  V30 8446 H 797.197 1.51872 -0.278238 0
M  V30 8447 H 799.155 3.51284 2.12391 0
M  V30 8448 H 797.816 2.34519 2.08949 0
M  V30 8449 H 797.009 4.70834 1.7981 0
M  V30 8450 H 796.611 3.72139 0.372647 0
M  V30 8451 H 798.903 6.50588 1.89056 0
M  V30 8452 H 799.846 7.06521 0.472687 0
M  V30 8453 H 800.254 5.50547 1.24735 0
M  V30 8454 N 799.652 0.226554 1.55963 0
M  V30 8455 C 800.615 -0.668015 2.19249 0
M  V30 8456 C 801.615 -1.11794 1.1558 0
M  V30 8457 O 802.805 -1.02593 1.40784 0
M  V30 8458 C 799.937 -1.91571 2.81981 0
M  V30 8459 H 801.13 -0.116175 2.99675 0
M  V30 8460 H 798.683 -0.0230497 1.56283 0
M  V30 8461 H 799.418 -2.50929 2.05439 0
M  V30 8462 H 799.203 -1.6015 3.57903 0
M  V30 8463 H 800.693 -2.55294 3.30477 0
M  V30 8464 N 801.13 -1.57531 -0.0467866 0
M  V30 8465 C 802.062 -2.02156 -1.08007 0
M  V30 8466 C 803.075 -0.931434 -1.33522 0
M  V30 8467 O 804.264 -1.209 -1.31321 0
M  V30 8468 C 801.364 -2.36675 -2.42566 0
M  V30 8469 C 800.537 -3.67848 -2.36658 0
M  V30 8470 C 799.596 -3.89754 -3.53523 0
M  V30 8471 O 798.622 -4.61036 -3.33818 0
M  V30 8472 N 799.824 -3.34025 -4.74771 0
M  V30 8473 H 802.589 -2.91414 -0.699845 0
M  V30 8474 H 800.15 -1.60185 -0.235041 0
M  V30 8475 H 802.142 -2.48482 -3.19435 0
M  V30 8476 H 800.712 -1.53178 -2.72498 0
M  V30 8477 H 799.932 -3.66561 -1.45005 0
M  V30 8478 H 801.22 -4.53931 -2.29835 0
M  V30 8479 H 800.618 -2.76214 -4.93683 0
M  V30 8480 H 799.175 -3.51241 -5.49066 0
M  V30 8481 N 802.608 0.318715 -1.54344 0
M  V30 8482 C 803.555 1.39242 -1.84066 0
M  V30 8483 C 804.525 1.51175 -0.688134 0
M  V30 8484 O 805.71 1.66318 -0.935039 0
M  V30 8485 C 802.85 2.75528 -2.07794 0
M  V30 8486 C 801.963 2.72187 -3.35467 0
M  V30 8487 C 801.098 4.00352 -3.4913 0
M  V30 8488 C 800.137 3.91338 -4.7066 0
M  V30 8489 N 799.274 5.11242 -4.81224 0
M  V30 8490 H 804.114 1.13196 -2.75664 0
M  V30 8491 H 801.651 0.547857 -1.36517 0
M  V30 8492 H 803.609 3.54763 -2.19543 0
M  V30 8493 H 802.239 2.99873 -1.19482 0
M  V30 8494 H 801.291 1.84917 -3.3243 0
M  V30 8495 H 802.603 2.61411 -4.24812 0
M  V30 8496 H 801.757 4.88019 -3.60448 0
M  V30 8497 H 800.496 4.1394 -2.57886 0
M  V30 8498 H 799.501 3.02055 -4.59394 0
M  V30 8499 H 800.726 3.7931 -5.63294 0
M  V30 8500 H 798.672 5.25327 -3.92897 0
M  V30 8501 H 798.589 5.0282 -5.64543 0
M  V30 8502 H 799.857 6.0061 -4.96879 0
M  V30 8503 N 804.086 1.46499 0.581025 0
M  V30 8504 C 805.334 1.51596 1.33653 0
M  V30 8505 C 805.655 0.169859 1.94259 0
M  V30 8506 O 804.925 -0.803776 1.78651 0
M  V30 8507 H 803.505 0.558346 0.496244 0
M  V30 8508 H 806.167 1.8264 0.680338 0
M  V30 8509 H 805.263 2.26956 2.14237 0
M  V30 8510 N 805.565 -0.825799 1.34232 0
M  V30 8511 C 806.795 -1.61129 1.29309 0
M  V30 8512 C 807.203 -1.88714 -0.135589 0
M  V30 8513 O 806.546 -1.47703 -1.09222 0
M  V30 8514 C 806.608 -2.97866 2.01287 0
M  V30 8515 C 806.272 -2.9319 3.50555 0
M  V30 8516 C 807.269 -2.67978 4.45515 0
M  V30 8517 C 804.954 -3.12913 3.92926 0
M  V30 8518 C 806.948 -2.62536 5.80822 0
M  V30 8519 C 804.635 -3.07096 5.28333 0
M  V30 8520 C 805.633 -2.8194 6.22092 0
M  V30 8521 O 805.321 -2.7605 7.55018 0
M  V30 8522 H 805.053 -0.507652 0.446391 0
M  V30 8523 H 807.607 -1.03575 1.77374 0
M  V30 8524 H 805.837 -3.57327 1.47832 0
M  V30 8525 H 807.526 -3.58848 1.89691 0
M  V30 8526 H 808.292 -2.52478 4.14101 0
M  V30 8527 H 804.171 -3.3151 3.20347 0
M  V30 8528 H 807.715 -2.42821 6.53975 0
M  V30 8529 H 803.612 -3.22148 5.59367 0
M  V30 8530 H 804.38 -2.91798 7.6472 0
M  V30 8531 N 807.043 -1.17915 -1.04565 0
M  V30 8532 C 808.006 -0.903787 -2.10628 0
M  V30 8533 C 809.006 0.10873 -1.60432 0
M  V30 8534 O 810.196 -0.124152 -1.73757 0
M  V30 8535 C 807.328 -0.355017 -3.39046 0
M  V30 8536 H 808.521 -1.84425 -2.3649 0
M  V30 8537 H 806.074 -0.990477 -1.2091 0
M  V30 8538 H 806.809 0.592297 -3.18845 0
M  V30 8539 H 806.594 -1.08484 -3.76794 0
M  V30 8540 H 808.084 -0.180891 -4.17208 0
M  V30 8541 N 808.521 1.23394 -0.980386 0
M  V30 8542 C 809.767 1.92094 -0.650223 0
M  V30 8543 C 810.1 1.76309 0.814173 0
M  V30 8544 O 809.375 1.12406 1.5873 0
M  V30 8545 C 809.658 3.44713 -1.04139 0
M  V30 8546 C 809.511 3.69606 -2.56342 0
M  V30 8547 C 810.83 4.36191 -0.585296 0
M  V30 8548 H 807.949 0.697618 -0.237695 0
M  V30 8549 H 810.591 1.45517 -1.22167 0
M  V30 8550 H 808.741 3.84513 -0.55515 0
M  V30 8551 H 810.413 3.39288 -3.1254 0
M  V30 8552 H 808.656 3.14318 -2.98976 0
M  V30 8553 H 809.327 4.76441 -2.78762 0
M  V30 8554 H 811.803 4.03836 -1.00276 0
M  V30 8555 H 810.679 5.41679 -0.887428 0
M  V30 8556 H 810.94 4.39097 0.51438 0
M  V30 8557 N 809.999 0.752036 1.385 0
M  V30 8558 C 811.246 0.307503 2.00152 0
M  V30 8559 C 811.574 -1.11033 1.59693 0
M  V30 8560 O 810.829 -1.77455 0.825125 0
M  V30 8561 C 811.128 0.376155 3.55415 0
M  V30 8562 C 810.794 1.74942 4.15579 0
M  V30 8563 C 809.456 2.12525 4.31725 0
M  V30 8564 C 811.808 2.65031 4.48785 0
M  V30 8565 C 809.136 3.39671 4.78373 0
M  V30 8566 C 811.488 3.91567 4.96848 0
M  V30 8567 C 810.152 4.2922 5.11201 0
M  V30 8568 H 809.422 0.112523 0.732407 0
M  V30 8569 H 812.069 0.962213 1.65571 0
M  V30 8570 H 810.374 -0.362121 3.90123 0
M  V30 8571 H 812.071 0.0138065 4.00998 0
M  V30 8572 H 808.661 1.44726 4.03426 0
M  V30 8573 H 812.845 2.3726 4.35914 0
M  V30 8574 H 808.101 3.68765 4.8767 0
M  V30 8575 H 812.275 4.61517 5.21512 0
M  V30 8576 H 809.902 5.27805 5.47107 0
M  V30 8577 N 811.477 -1.49425 0.500989 0
M  V30 8578 C 812.705 -2.06861 -0.0403443 0
M  V30 8579 C 813.12 -1.36132 -1.30819 0
M  V30 8580 O 812.477 -0.439647 -1.77125 0
M  V30 8581 C 812.528 -3.6027 -0.297902 0
M  V30 8582 O 812.249 -4.28338 0.919686 0
M  V30 8583 C 813.75 -4.34419 -0.882876 0
M  V30 8584 H 810.97 -0.670688 0.0204619 0
M  V30 8585 H 813.514 -1.92207 0.698342 0
M  V30 8586 H 811.669 -3.74627 -0.98657 0
M  V30 8587 H 812.083 -5.2004 0.682528 0
M  V30 8588 H 813.557 -5.42631 -1.01268 0
M  V30 8589 H 814.034 -3.96898 -1.88066 0
M  V30 8590 H 814.64 -4.24669 -0.231677 0
M  V30 8591 N 812.955 -0.234822 -1.55841 0
M  V30 8592 C 814.201 0.393843 -1.98939 0
M  V30 8593 C 814.534 1.58466 -1.1226 0
M  V30 8594 O 813.809 1.93635 -0.183242 0
M  V30 8595 C 814.092 0.815492 -3.50745 0
M  V30 8596 C 813.945 -0.379878 -4.48193 0
M  V30 8597 C 815.264 1.66687 -4.07312 0
M  V30 8598 H 812.383 0.141681 -0.723253 0
M  V30 8599 H 815.025 -0.333716 -1.87046 0
M  V30 8600 H 813.175 1.43541 -3.6101 0
M  V30 8601 H 814.847 -1.0182 -4.49923 0
M  V30 8602 H 813.09 -1.02507 -4.21515 0
M  V30 8603 H 813.761 -0.0417069 -5.51984 0
M  V30 8604 H 816.237 1.14369 -4.00074 0
M  V30 8605 H 815.113 1.93078 -5.13821 0
M  V30 8606 H 815.374 2.63468 -3.55017 0
M  V30 8607 N 814.433 1.57553 0.0384317 0
M  V30 8608 C 815.71 1.79977 0.766002 0
M  V30 8609 C 816.09 0.830625 1.94072 0
M  V30 8610 O 815.438 -0.129243 2.28134 0
M  V30 8611 C 815.648 3.27434 1.20781 0
M  V30 8612 C 816.996 3.92167 1.62758 0
M  V30 8613 O 818.02 3.31527 1.30263 0
M  V30 8614 O 816.879 4.98917 2.23035 0
M  V30 8615 H 813.973 0.739787 0.369654 0
M  V30 8616 H 816.519 1.69693 0.0159312 0
M  V30 8617 H 815.291 3.89558 0.368792 0
M  V30 8618 H 814.914 3.42571 2.01819 0
M  V30 8619 N 815.911 -0.310526 1.54511 0
M  V30 8620 C 817.136 -1.07046 1.7764 0
M  V30 8621 C 817.561 -1.80488 0.529696 0
M  V30 8622 O 816.919 -1.73702 -0.519361 0
M  V30 8623 C 816.967 -2.03411 2.97752 0
M  V30 8624 O 816.071 -3.11545 2.7021 0
M  V30 8625 H 815.412 -0.307994 0.588248 0
M  V30 8626 H 817.942 -0.350848 2.01569 0
M  V30 8627 H 817.952 -2.46048 3.2546 0
M  V30 8628 H 816.627 -1.49361 3.88155 0
M  V30 8629 H 815.204 -2.7349 2.53491 0
M  V30 8630 N 817.389 -1.46805 -0.573248 0
M  V30 8631 C 818.805 -1.31969 -0.897577 0
M  V30 8632 C 819.005 -0.298171 -1.99282 0
M  V30 8633 O 818.061 0.295953 -2.5076 0
M  V30 8634 C 819.374 -2.70859 -1.30598 0
M  V30 8635 C 820.922 -2.79022 -1.4183 0
M  V30 8636 C 821.397 -4.18516 -1.86033 0
M  V30 8637 N 822.888 -4.2098 -1.9321 0
M  V30 8638 C 823.623 -5.25814 -2.28707 0
M  V30 8639 N 823.119 -6.40968 -2.6293 0
M  V30 8640 N 824.912 -5.13184 -2.29343 0
M  V30 8641 H 817.063 -2.11869 0.150094 0
M  V30 8642 H 819.326 -0.947989 0.00447895 0
M  V30 8643 H 819.032 -3.46965 -0.575161 0
M  V30 8644 H 818.906 -3.01585 -2.26554 0
M  V30 8645 H 821.293 -2.03198 -2.13996 0
M  V30 8646 H 821.374 -2.51969 -0.441024 0
M  V30 8647 H 821.018 -4.94839 -1.14442 0
M  V30 8648 H 820.948 -4.42982 -2.84735 0
M  V30 8649 H 823.439 -3.37898 -1.69214 0
M  V30 8650 H 823.752 -7.16729 -2.88996 0
M  V30 8651 H 822.097 -6.44314 -2.60547 0
M  V30 8652 H 825.288 -4.22255 -2.02036 0
M  V30 8653 H 825.461 -5.94996 -2.56679 0
M  V30 8654 N 818.867 0.818669 -1.34668 0
M  V30 8655 C 820.115 1.57201 -1.27013 0
M  V30 8656 C 820.436 1.94354 0.158599 0
M  V30 8657 O 819.706 1.62626 1.09223 0
M  V30 8658 H 818.286 0.582919 -0.467135 0
M  V30 8659 H 820.948 0.977234 -1.6863 0
M  V30 8660 H 820.044 2.49291 -1.87778 0
M  V30 8661 N 820.346 1.18468 1.03938 0
M  V30 8662 C 821.571 1.00638 1.81347 0
M  V30 8663 C 821.996 -0.440477 1.8287 0
M  V30 8664 O 821.354 -1.31609 1.24695 0
M  V30 8665 C 821.402 1.5673 3.24759 0
M  V30 8666 O 820.506 0.789517 4.04772 0
M  V30 8667 H 819.847 0.356432 0.560225 0
M  V30 8668 H 822.377 1.57253 1.30891 0
M  V30 8669 H 822.387 1.59496 3.75533 0
M  V30 8670 H 821.062 2.62043 3.22965 0
M  V30 8671 H 819.639 0.834267 3.63448 0
M  V30 8672 N 821.824 -1.22873 0.986916 0
M  V30 8673 C 822.787 -2.2281 0.537442 0
M  V30 8674 C 823.787 -1.56331 -0.37646 0
M  V30 8675 O 824.977 -1.73376 -0.169247 0
M  V30 8676 C 822.109 -3.40195 -0.219082 0
M  V30 8677 H 823.302 -2.64089 1.42116 0
M  V30 8678 H 820.855 -1.35819 0.773488 0
M  V30 8679 H 821.59 -3.04381 -1.11905 0
M  V30 8680 H 821.375 -3.89657 0.437026 0
M  V30 8681 H 822.865 -4.14326 -0.521926 0
M  V30 8682 N 823.302 -0.75937 -1.38099 0
M  V30 8683 C 824.25 -0.124954 -2.32264 0
M  V30 8684 C 825.244 0.698863 -1.54312 0
M  V30 8685 O 826.45 0.597312 -1.698 0
M  V30 8686 H 822.825 -0.0216142 -0.751689 0
M  V30 8687 H 824.796 -0.935115 -2.83369 0
M  V30 8688 C 823.545 0.749463 -3.39527 0
M  V30 8689 H 822.868 0.124932 -3.99605 0
M  V30 8690 H 824.308 1.16055 -4.07808 0
M  V30 8691 C 822.767 1.89464 -2.78577 0
M  V30 8692 O 823.297 2.98923 -2.68343 0
M  V30 8693 N 821.503 1.69145 -2.36301 0
M  V30 8694 H 821.05 0.801157 -2.44825 0
M  V30 8695 H 821.008 2.45936 -1.95864 0
M  V30 8696 N 824.78 1.49157 -0.508906 0
M  V30 8697 C 826.196 1.58741 -0.165372 0
M  V30 8698 C 826.396 1.5133 1.33047 0
M  V30 8699 O 825.452 1.39135 2.10707 0
M  V30 8700 C 826.765 2.91217 -0.749194 0
M  V30 8701 C 828.313 3.047 -0.716015 0
M  V30 8702 C 828.788 4.39807 -1.27804 0
M  V30 8703 N 830.279 4.46319 -1.23908 0
M  V30 8704 C 831.014 5.49325 -1.64406 0
M  V30 8705 N 830.51 6.59395 -2.12534 0
M  V30 8706 N 832.303 5.40084 -1.55773 0
M  V30 8707 H 824.454 1.52217 -1.48134 0
M  V30 8708 H 826.717 0.721514 -0.614915 0
M  V30 8709 H 826.423 3.02233 -1.79856 0
M  V30 8710 H 826.297 3.76592 -0.214144 0
M  V30 8711 H 828.684 2.9331 0.324535 0
M  V30 8712 H 828.765 2.2099 -1.2883 0
M  V30 8713 H 828.409 4.5195 -2.31741 0
M  V30 8714 H 828.339 5.2217 -0.681623 0
M  V30 8715 H 830.83 3.67354 -0.886537 0
M  V30 8716 H 831.143 7.34102 -2.41485 0
M  V30 8717 H 829.488 6.60414 -2.16513 0
M  V30 8718 H 832.679 4.52986 -1.17987 0
M  V30 8719 H 832.852 6.20233 -1.87657 0
M  V30 8720 N 826.258 0.243083 1.55714 0
M  V30 8721 C 827.506 -0.381964 1.98458 0
M  V30 8722 C 827.827 -1.58745 1.13247 0
M  V30 8723 O 827.097 -1.94723 0.214384 0
M  V30 8724 H 825.677 -0.144114 0.732967 0
M  V30 8725 H 828.339 0.340985 1.91894 0
M  V30 8726 H 827.435 -0.693702 3.04293 0
M  V30 8727 N 827.736 -1.57571 -0.0300757 0
M  V30 8728 C 828.699 -2.05468 -1.01565 0
M  V30 8729 C 829.699 -0.958628 -1.29101 0
M  V30 8730 O 830.889 -1.22228 -1.24121 0
M  V30 8731 C 828.021 -2.47077 -2.34874 0
M  V30 8732 H 829.214 -2.93797 -0.601936 0
M  V30 8733 H 826.767 -1.53828 -0.276878 0
M  V30 8734 H 827.502 -1.61901 -2.80996 0
M  V30 8735 H 827.287 -3.27097 -2.16218 0
M  V30 8736 H 828.777 -2.84564 -3.05635 0
M  V30 8737 N 829.214 0.302327 -1.54673 0
M  V30 8738 C 830.177 1.35592 -1.8479 0
M  V30 8739 C 831.177 1.43743 -0.72073 0
M  V30 8740 O 832.367 1.43402 -0.989017 0
M  V30 8741 C 829.499 2.74091 -2.02699 0
M  V30 8742 H 830.692 1.10132 -2.78946 0
M  V30 8743 H 828.245 0.538926 -1.46715 0
M  V30 8744 H 828.98 3.04775 -1.10826 0
M  V30 8745 H 828.765 2.69565 -2.8474 0
M  V30 8746 H 830.255 3.50272 -2.27374 0
M  V30 8747 N 830.692 1.47107 0.565454 0
M  V30 8748 C 831.939 1.53308 1.32299 0
M  V30 8749 C 832.267 0.1919 1.93551 0
M  V30 8750 O 831.522 -0.81435 1.77952 0
M  V30 8751 C 831.821 2.59309 2.45954 0
M  V30 8752 C 831.487 4.02827 2.02586 0
M  V30 8753 C 830.149 4.41897 1.90474 0
M  V30 8754 C 832.501 4.92913 1.6937 0
M  V30 8755 C 829.829 5.68898 1.4343 0
M  V30 8756 C 832.181 6.20368 1.238 0
M  V30 8757 C 830.845 6.58327 1.10278 0
M  V30 8758 H 830.115 0.560993 0.484116 0
M  V30 8759 H 832.762 1.80667 0.634965 0
M  V30 8760 H 831.067 2.25676 3.20277 0
M  V30 8761 H 832.764 2.61332 3.04149 0
M  V30 8762 H 829.354 3.71953 2.12952 0
M  V30 8763 H 833.538 4.63433 1.77605 0
M  V30 8764 H 828.794 5.97065 1.31618 0
M  V30 8765 H 832.968 6.89589 0.971586 0
M  V30 8766 H 830.595 7.56628 0.736027 0
M  V30 8767 N 832.17 -0.811516 1.35101 0
M  V30 8768 C 833.08 -1.95475 1.29718 0
M  V30 8769 C 834.096 -1.72813 0.202909 0
M  V30 8770 O 835.272 -1.96725 0.431414 0
M  V30 8771 C 832.337 -3.29975 1.06385 0
M  V30 8772 C 831.398 -3.65566 2.25077 0
M  V30 8773 C 830.631 -4.93648 2.02848 0
M  V30 8774 O 830.854 -5.617 0.992442 0
M  V30 8775 O 829.788 -5.27384 2.90087 0
M  V30 8776 H 833.614 -2.02961 2.25921 0
M  V30 8777 H 831.199 -0.948583 1.15422 0
M  V30 8778 H 833.081 -4.10506 0.951999 0
M  V30 8779 H 831.756 -3.2343 0.132294 0
M  V30 8780 H 830.663 -2.85432 2.41825 0
M  V30 8781 H 831.996 -3.7681 3.16662 0
M  V30 8782 N 833.648 -1.19017 -1.03309 0
M  V30 8783 C 834.58 -0.881847 -2.11556 0
M  V30 8784 C 835.593 0.123711 -1.62329 0
M  V30 8785 O 836.782 -0.105141 -1.7819 0
M  V30 8786 C 833.882 -0.297634 -3.37591 0
M  V30 8787 C 833.055 -1.35072 -4.16022 0
M  V30 8788 C 832.114 -0.780812 -5.20375 0
M  V30 8789 O 831.14 -1.45745 -5.50224 0
M  V30 8790 N 832.342 0.417964 -5.78993 0
M  V30 8791 H 835.107 -1.81359 -2.38598 0
M  V30 8792 H 832.668 -1.0916 -1.19565 0
M  V30 8793 H 834.66 0.097374 -4.04583 0
M  V30 8794 H 833.23 0.538299 -3.0793 0
M  V30 8795 H 832.45 -1.92074 -3.4424 0
M  V30 8796 H 833.738 -2.06044 -4.65213 0
M  V30 8797 H 833.136 0.985281 -5.57054 0
M  V30 8798 H 831.693 0.754802 -6.47415 0
M  V30 8799 N 835.127 1.22348 -0.993418 0
M  V30 8800 C 836.373 1.91393 -0.67056 0
M  V30 8801 C 836.706 1.77163 0.795428 0
M  V30 8802 O 835.981 1.14084 1.57528 0
M  V30 8803 C 836.264 3.43589 -1.0779 0
M  V30 8804 C 836.117 3.66867 -2.60248 0
M  V30 8805 C 837.436 4.35545 -0.631527 0
M  V30 8806 H 834.555 0.695057 -0.24508 0
M  V30 8807 H 837.197 1.44213 -1.23703 0
M  V30 8808 H 835.347 3.83903 -0.595902 0
M  V30 8809 H 837.019 3.35954 -3.16121 0
M  V30 8810 H 835.262 3.1113 -3.02293 0
M  V30 8811 H 835.933 4.73457 -2.838 0
M  V30 8812 H 838.409 4.0275 -1.04554 0
M  V30 8813 H 837.285 5.40707 -0.944831 0
M  V30 8814 H 837.546 4.39618 0.467779 0
M  V30 8815 N 836.605 0.766683 1.37694 0
M  V30 8816 C 837.854 0.325425 1.99057 0
M  V30 8817 C 838.167 -1.10275 1.61551 0
M  V30 8818 O 839.373 -1.64513 2.1598 0
M  V30 8819 C 837.829 0.530886 3.55963 0
M  V30 8820 C 837.437 1.96899 4.02411 0
M  V30 8821 C 839.181 0.152997 4.24224 0
M  V30 8822 C 837.088 2.12232 5.52007 0
M  V30 8823 H 836.018 0.117929 0.744721 0
M  V30 8824 H 838.669 0.945091 1.5729 0
M  V30 8825 H 837.051 -0.158162 3.95684 0
M  V30 8826 H 838.225 2.69258 3.73948 0
M  V30 8827 H 836.54 2.303 3.46916 0
M  V30 8828 H 839.137 0.24614 5.34133 0
M  V30 8829 H 839.48 -0.896096 4.06541 0
M  V30 8830 H 840.013 0.794398 3.89787 0
M  V30 8831 H 836.752 3.15442 5.7461 0
M  V30 8832 H 836.272 1.4435 5.82171 0
M  V30 8833 H 837.951 1.9185 6.17902 0
M  V30 8834 N 838.083 -1.48885 0.516809 0
M  V30 8835 C 839.033 -2.26363 -0.272704 0
M  V30 8836 C 840.017 -1.31891 -0.921604 0
M  V30 8837 O 841.209 -1.56514 -0.826589 0
M  V30 8838 C 838.338 -3.16614 -1.32705 0
M  V30 8839 C 837.424 -4.18554 -0.683598 0
M  V30 8840 N 837.815 -5.05308 0.223015 0
M  V30 8841 C 836.113 -4.35931 -0.942351 0
M  V30 8842 C 836.814 -5.7867 0.592918 0
M  V30 8843 N 835.79 -5.43583 -0.042912 0
M  V30 8844 H 839.592 -2.90811 0.424971 0
M  V30 8845 H 837.106 -1.5893 0.333941 0
M  V30 8846 H 839.103 -3.70766 -1.90625 0
M  V30 8847 H 837.763 -2.5372 -2.02624 0
M  V30 8848 H 838.774 -5.14473 0.594818 0
M  V30 8849 H 835.451 -3.84234 -1.6331 0
M  V30 8850 H 836.841 -6.58493 1.33556 0
M  V30 8851 N 839.561 -0.251338 -1.55583 0
M  V30 8852 C 840.977 0.103409 -1.59265 0
M  V30 8853 C 841.177 1.56559 -1.26852 0
M  V30 8854 O 840.233 2.31071 -1.01796 0
M  V30 8855 C 841.546 -0.249781 -2.99661 0
M  V30 8856 C 843.094 -0.194442 -3.12395 0
M  V30 8857 C 843.569 -0.521728 -4.55019 0
M  V30 8858 N 845.06 -0.472393 -4.60785 0
M  V30 8859 C 845.795 -0.698737 -5.69127 0
M  V30 8860 N 845.291 -0.988443 -6.85713 0
M  V30 8861 N 847.084 -0.629143 -5.58568 0
M  V30 8862 H 839.235 -1.20484 -1.74921 0
M  V30 8863 H 841.498 -0.485092 -0.814488 0
M  V30 8864 H 841.204 -1.26577 -3.28133 0
M  V30 8865 H 841.078 0.420973 -3.74844 0
M  V30 8866 H 843.465 0.812229 -2.83702 0
M  V30 8867 H 843.546 -0.899111 -2.39478 0
M  V30 8868 H 843.19 -1.52597 -4.84434 0
M  V30 8869 H 843.12 0.204468 -5.26203 0
M  V30 8870 H 845.611 -0.257386 -3.77022 0
M  V30 8871 H 845.924 -1.14846 -7.64219 0
M  V30 8872 H 844.269 -1.02596 -6.87386 0
M  V30 8873 H 847.46 -0.402826 -4.66364 0
M  V30 8874 H 847.633 -0.808935 -6.42931 0
M  V30 8875 N 841.039 1.57585 0.0217189 0
M  V30 8876 C 842.455 1.55072 0.377484 0
M  V30 8877 C 842.655 0.978423 1.76151 0
M  V30 8878 O 841.711 0.602688 2.45202 0
M  V30 8879 C 843.024 2.99462 0.272605 0
M  V30 8880 C 844.572 3.11047 0.349148 0
M  V30 8881 C 845.047 4.57182 0.273636 0
M  V30 8882 N 846.538 4.62007 0.332206 0
M  V30 8883 C 847.273 5.72631 0.296782 0
M  V30 8884 N 846.769 6.92472 0.21322 0
M  V30 8885 N 848.562 5.61028 0.347053 0
M  V30 8886 H 840.713 1.93133 -0.883925 0
M  V30 8887 H 842.976 0.886151 -0.33681 0
M  V30 8888 H 842.682 3.45088 -0.67878 0
M  V30 8889 H 842.556 3.61901 1.06335 0
M  V30 8890 H 844.943 2.65364 1.29097 0
M  V30 8891 H 845.024 2.51425 -0.471085 0
M  V30 8892 H 844.668 5.03534 -0.664548 0
M  V30 8893 H 844.598 5.14724 1.11207 0
M  V30 8894 H 847.089 3.75788 0.399003 0
M  V30 8895 H 847.402 7.72563 0.191492 0
M  V30 8896 H 845.747 6.94769 0.179161 0
M  V30 8897 H 848.938 4.66298 0.410378 0
M  V30 8898 H 849.111 6.47229 0.315979 0
M  V30 8899 N 842.517 -0.29412 1.54831 0
M  V30 8900 C 843.447 -1.36757 1.89261 0
M  V30 8901 C 844.428 -1.52564 0.752214 0
M  V30 8902 O 845.613 -1.65958 1.00855 0
M  V30 8903 C 842.743 -2.73066 2.14597 0
M  V30 8904 C 841.697 -2.72017 3.3044 0
M  V30 8905 C 841.023 -4.11679 3.4121 0
M  V30 8906 C 842.323 -2.33149 4.67375 0
M  V30 8907 H 844.017 -1.08191 2.79169 0
M  V30 8908 H 841.563 -0.519014 1.34321 0
M  V30 8909 H 843.516 -3.48255 2.37269 0
M  V30 8910 H 842.24 -3.03172 1.21467 0
M  V30 8911 H 840.899 -1.99285 3.07703 0
M  V30 8912 H 840.547 -4.38973 2.45584 0
M  V30 8913 H 840.247 -4.11877 4.19084 0
M  V30 8914 H 841.771 -4.88637 3.6615 0
M  V30 8915 H 843.185 -2.98054 4.89731 0
M  V30 8916 H 841.582 -2.44546 5.48012 0
M  V30 8917 H 842.652 -1.28275 4.67626 0
M  V30 8918 N 843.995 -1.47404 -0.557645 0
M  V30 8919 C 845.243 -1.53703 -1.31224 0
M  V30 8920 C 845.564 -0.200742 -1.93964 0
M  V30 8921 O 844.834 0.775253 -1.79907 0
M  V30 8922 H 843.414 -0.566171 -0.487299 0
M  V30 8923 H 846.076 -1.83699 -0.651195 0
M  V30 8924 H 845.172 -2.30335 -2.10599 0
M  V30 8925 N 845.473 0.80434 -1.35529 0
M  V30 8926 C 846.405 1.92445 -1.2449 0
M  V30 8927 C 847.418 1.61934 -0.167685 0
M  V30 8928 O 848.607 1.73461 -0.42115 0
M  V30 8929 C 845.707 3.26875 -0.894751 0
M  V30 8930 C 844.88 3.85275 -2.07079 0
M  V30 8931 C 843.939 4.98116 -1.69607 0
M  V30 8932 O 842.965 5.15424 -2.41509 0
M  V30 8933 N 844.167 5.77169 -0.621012 0
M  V30 8934 H 846.932 2.02441 -2.20993 0
M  V30 8935 H 844.493 0.981874 -1.28728 0
M  V30 8936 H 846.485 3.99837 -0.625511 0
M  V30 8937 H 845.055 3.12594 -0.0193306 0
M  V30 8938 H 844.275 3.0448 -2.5037 0
M  V30 8939 H 845.563 4.21024 -2.85685 0
M  V30 8940 H 844.961 5.65695 -0.0236679 0
M  V30 8941 H 843.518 6.50499 -0.411558 0
M  V30 8942 N 846.951 1.19563 1.02676 0
M  V30 8943 C 848.179 1.02488 1.79732 0
M  V30 8944 C 848.594 -0.426302 1.83924 0
M  V30 8945 O 847.951 -1.29609 1.28483 0
M  V30 8946 C 848.002 1.58944 3.24683 0
M  V30 8947 O 847.723 2.98382 3.2078 0
M  V30 8948 C 849.224 1.46681 4.1833 0
M  V30 8949 H 846.444 0.361098 0.565552 0
M  V30 8950 H 848.988 1.58426 1.29311 0
M  V30 8951 H 847.143 1.0715 3.72287 0
M  V30 8952 H 847.557 3.24983 4.11687 0
M  V30 8953 H 849.031 1.90959 5.17918 0
M  V30 8954 H 849.508 0.417663 4.3721 0
M  V30 8955 H 850.114 1.97616 3.76601 0
M  V30 8956 N 848.429 -1.21819 0.999893 0
M  V30 8957 C 849.339 -2.27691 0.565159 0
M  V30 8958 C 850.355 -1.69587 -0.389398 0
M  V30 8959 O 851.531 -1.99786 -0.254499 0
M  V30 8960 C 848.596 -3.46537 -0.106432 0
M  V30 8961 C 847.657 -4.19932 0.891964 0
M  V30 8962 C 846.89 -5.33103 0.252327 0
M  V30 8963 O 847.113 -5.62398 -0.952103 0
M  V30 8964 O 846.047 -5.94184 0.960698 0
M  V30 8965 H 849.873 -2.67059 1.44613 0
M  V30 8966 H 847.458 -1.28119 0.768499 0
M  V30 8967 H 849.34 -4.18631 -0.482301 0
M  V30 8968 H 848.015 -3.09079 -0.961865 0
M  V30 8969 H 846.922 -3.5008 1.3189 0
M  V30 8970 H 848.255 -4.61287 1.71682 0
M  V30 8971 N 849.908 -0.773975 -1.37286 0
M  V30 8972 C 850.841 -0.108019 -2.27944 0
M  V30 8973 C 851.819 0.706737 -1.46438 0
M  V30 8974 O 853.003 0.681025 -1.75768 0
M  V30 8975 C 850.13 0.853199 -3.27778 0
M  V30 8976 C 849.176 0.122164 -4.26325 0
M  V30 8977 S 850.009 -1.19136 -5.22079 0
M  V30 8978 C 851.165 -0.233737 -6.25463 0
M  V30 8979 H 851.398 -0.876743 -2.84078 0
M  V30 8980 H 848.931 -0.567468 -1.43594 0
M  V30 8981 H 850.889 1.40238 -3.85803 0
M  V30 8982 H 849.55 1.59505 -2.70586 0
M  V30 8983 H 848.743 0.850926 -4.96765 0
M  V30 8984 H 848.345 -0.356079 -3.72301 0
M  V30 8985 H 850.637 0.59305 -6.74899 0
M  V30 8986 H 851.58 -0.906373 -7.02275 0
M  V30 8987 H 851.988 0.156048 -5.64284 0
M  V30 8988 N 851.386 1.48609 -0.524698 0
M  V30 8989 C 852.349 2.28041 0.230166 0
M  V30 8990 C 853.349 1.35065 0.872584 0
M  V30 8991 O 854.539 1.58007 0.73345 0
M  V30 8992 C 851.671 3.13778 1.33252 0
M  V30 8993 H 852.864 2.96239 -0.467161 0
M  V30 8994 H 850.417 1.53763 -0.280452 0
M  V30 8995 H 851.152 2.502 2.06327 0
M  V30 8996 H 850.937 3.82165 0.877058 0
M  V30 8997 H 852.427 3.7371 1.86362 0
M  V30 8998 N 852.864 0.259585 1.55447 0
M  V30 8999 C 854.141 -0.412595 1.91199 0
M  V30 9000 C 854.521 -1.74909 1.18194 0
M  V30 9001 O 853.869 -2.26474 0.303603 0
M  V30 9002 C 854.079 -0.568195 3.44344 0
M  V30 9003 C 855.427 -0.858253 4.15836 0
M  V30 9004 O 856.451 -0.653588 3.50152 0
M  V30 9005 O 855.31 -1.24874 5.32042 0
M  V30 9006 H 852.404 -0.223403 0.796254 0
M  V30 9007 H 854.95 0.30459 1.66944 0
M  V30 9008 H 853.722 0.372989 3.89518 0
M  V30 9009 H 853.345 -1.33544 3.74502 0
M  V30 9010 N 854.342 -1.57594 -0.0133615 0
M  V30 9011 C 855.274 -2.04402 -1.03695 0
M  V30 9012 C 856.287 -0.959546 -1.31516 0
M  V30 9013 O 857.476 -1.23659 -1.28727 0
M  V30 9014 C 854.576 -2.41766 -2.37491 0
M  V30 9015 C 853.749 -3.72785 -2.28802 0
M  V30 9016 C 852.808 -3.97165 -3.45176 0
M  V30 9017 O 851.834 -4.68013 -3.23963 0
M  V30 9018 N 853.036 -3.44021 -4.67579 0
M  V30 9019 H 855.801 -2.92833 -0.637874 0
M  V30 9020 H 853.362 -1.60647 -0.20101 0
M  V30 9021 H 855.354 -2.55201 -3.14093 0
M  V30 9022 H 853.924 -1.58924 -2.69188 0
M  V30 9023 H 853.144 -3.69555 -1.37197 0
M  V30 9024 H 854.432 -4.58704 -2.20154 0
M  V30 9025 H 853.83 -2.86623 -4.87713 0
M  V30 9026 H 852.387 -3.62808 -5.41492 0
M  V30 9027 N 855.82 0.285905 -1.54985 0
M  V30 9028 C 856.753 1.37817 -1.81884 0
M  V30 9029 C 857.731 1.4811 -0.670988 0
M  V30 9030 O 858.915 1.64936 -0.912595 0
M  V30 9031 C 856.042 2.75587 -1.969 0
M  V30 9032 C 855.088 2.82643 -3.19398 0
M  V30 9033 S 855.921 2.43199 -4.7709 0
M  V30 9034 C 857.077 3.82969 -4.95061 0
M  V30 9035 H 857.31 1.14794 -2.74244 0
M  V30 9036 H 854.843 0.484843 -1.4659 0
M  V30 9037 H 856.801 3.54932 -2.06236 0
M  V30 9038 H 855.462 2.9587 -1.05451 0
M  V30 9039 H 854.655 3.8373 -3.26753 0
M  V30 9040 H 854.257 2.11306 -3.08586 0
M  V30 9041 H 856.549 4.78117 -4.80011 0
M  V30 9042 H 857.492 3.80575 -5.97133 0
M  V30 9043 H 857.9 3.73673 -4.23118 0
M  V30 9044 N 857.298 1.47698 0.54982 0
M  V30 9045 C 858.538 1.56286 1.31735 0
M  V30 9046 C 858.902 0.223042 1.907 0
M  V30 9047 O 860.103 0.183798 2.68171 0
M  V30 9048 C 858.374 2.65522 2.39234 0
M  V30 9049 S 859.933 2.93742 3.25977 0
M  V30 9050 H 856.751 0.551795 0.448378 0
M  V30 9051 H 859.353 1.85118 0.628629 0
M  V30 9052 H 858.057 3.61457 1.94362 0
M  V30 9053 H 857.588 2.38528 3.12838 0
M  V30 9054 H 859.603 2.31522 4.38876 0
M  V30 9055 N 858.776 -0.797141 1.35954 0
M  V30 9056 C 860.024 -1.55161 1.29497 0
M  V30 9057 C 860.345 -1.94582 -0.127659 0
M  V30 9058 O 859.615 -1.64343 -1.06622 0
M  V30 9059 H 858.195 -0.575413 0.47635 0
M  V30 9060 H 860.857 -0.950282 1.70164 0
M  V30 9061 H 859.953 -2.46272 1.9172 0
M  V30 9062 N 860.254 -1.20106 -1.0204 0
M  V30 9063 C 861.5 -1.01039 -1.75838 0
M  V30 9064 C 861.833 0.456819 -1.88751 0
M  V30 9065 O 861.108 1.33919 -1.41053 0
M  V30 9066 C 861.391 -1.69009 -3.17975 0
M  V30 9067 C 861.244 -3.2315 -3.1288 0
M  V30 9068 C 862.563 -1.42005 -4.16561 0
M  V30 9069 H 859.682 -0.368465 -0.638281 0
M  V30 9070 H 862.324 -1.48066 -1.19064 0
M  V30 9071 H 860.474 -1.29026 -3.66449 0
M  V30 9072 H 862.146 -3.72402 -2.72239 0
M  V30 9073 H 860.389 -3.54253 -2.50374 0
M  V30 9074 H 861.06 -3.65862 -4.13339 0
M  V30 9075 H 863.536 -1.76685 -3.76725 0
M  V30 9076 H 862.412 -1.92101 -5.14187 0
M  V30 9077 H 862.673 -0.346884 -4.40737 0
M  V30 9078 N 861.732 1.21287 -1.00634 0
M  V30 9079 C 863.009 1.86 -0.605257 0
M  V30 9080 C 863.389 1.90139 0.917072 0
M  V30 9081 O 862.737 1.40169 1.80458 0
M  V30 9082 C 862.947 3.26183 -1.24119 0
M  V30 9083 C 864.295 4.02562 -1.35015 0
M  V30 9084 O 865.319 3.35499 -1.19661 0
M  V30 9085 O 864.178 5.22638 -1.59726 0
M  V30 9086 H 861.272 0.800549 -0.207486 0
M  V30 9087 H 863.818 1.28959 -1.10307 0
M  V30 9088 H 862.59 3.17878 -2.28186 0
M  V30 9089 H 862.213 3.90845 -0.729807 0
M  V30 9090 N 863.21 0.781244 1.36873 0
M  V30 9091 C 864.457 0.349889 1.99454 0
M  V30 9092 C 864.785 -1.07621 1.62013 0
M  V30 9093 O 864.04 -1.75665 0.86258 0
M  V30 9094 C 864.339 0.45146 3.54537 0
M  V30 9095 C 864.005 1.83718 4.11775 0
M  V30 9096 C 862.667 2.21634 4.2712 0
M  V30 9097 C 865.019 2.7449 4.43063 0
M  V30 9098 C 862.347 3.49742 4.7106 0
M  V30 9099 C 864.699 4.02017 4.88431 0
M  V30 9100 C 863.363 4.39967 5.01982 0
M  V30 9101 H 862.633 0.128033 0.729855 0
M  V30 9102 H 865.28 0.997117 1.63493 0
M  V30 9103 H 863.585 -0.279288 3.90803 0
M  V30 9104 H 865.282 0.0988609 4.00878 0
M  V30 9105 H 861.872 1.53251 4.00265 0
M  V30 9106 H 866.056 2.46453 4.30783 0
M  V30 9107 H 861.312 3.79026 4.79738 0
M  V30 9108 H 865.486 4.72475 5.11605 0
M  V30 9109 H 863.113 5.39291 5.35788 0
M  V30 9110 N 864.689 -1.48329 0.532571 0
M  V30 9111 C 865.619 -2.32485 -0.217511 0
M  V30 9112 C 866.6 -1.42255 -0.932598 0
M  V30 9113 O 867.785 -1.7114 -0.917873 0
M  V30 9114 C 864.915 -3.23509 -1.26329 0
M  V30 9115 C 863.869 -4.22784 -0.666191 0
M  V30 9116 C 863.195 -5.0296 -1.81482 0
M  V30 9117 C 864.495 -5.21031 0.363813 0
M  V30 9118 H 866.189 -2.95445 0.485014 0
M  V30 9119 H 863.735 -1.42075 0.234694 0
M  V30 9120 H 865.688 -3.81211 -1.79601 0
M  V30 9121 H 864.412 -2.58554 -1.99543 0
M  V30 9122 H 863.071 -3.66272 -0.15498 0
M  V30 9123 H 862.719 -4.34427 -2.5354 0
M  V30 9124 H 862.419 -5.70154 -1.4212 0
M  V30 9125 H 863.943 -5.63514 -2.35126 0
M  V30 9126 H 865.357 -5.73241 -0.0819079 0
M  V30 9127 H 863.754 -5.96292 0.674956 0
M  V30 9128 H 864.824 -4.6801 1.26865 0
M  V30 9129 N 866.167 -0.267825 -1.55308 0
M  V30 9130 C 867.114 0.6228 -2.22238 0
M  V30 9131 C 868.084 1.15536 -1.19334 0
M  V30 9132 O 869.269 1.206 -1.47852 0
M  V30 9133 C 866.409 1.80447 -2.94164 0
M  V30 9134 C 865.522 1.30646 -4.11771 0
M  V30 9135 C 864.657 2.44935 -4.7136 0
M  V30 9136 C 863.696 1.92099 -5.81175 0
M  V30 9137 N 862.833 2.99834 -6.34857 0
M  V30 9138 H 867.673 0.0453874 -2.97965 0
M  V30 9139 H 865.21 0.0106371 -1.47096 0
M  V30 9140 H 867.168 2.49896 -3.34078 0
M  V30 9141 H 865.798 2.35403 -2.20874 0
M  V30 9142 H 864.85 0.505314 -3.77029 0
M  V30 9143 H 866.162 0.879409 -4.90987 0
M  V30 9144 H 865.316 3.2239 -5.13955 0
M  V30 9145 H 864.055 2.90951 -3.91406 0
M  V30 9146 H 863.06 1.13122 -5.38037 0
M  V30 9147 H 864.285 1.47027 -6.62993 0
M  V30 9148 H 862.231 3.45246 -5.578 0
M  V30 9149 H 862.148 2.61524 -7.09324 0
M  V30 9150 H 863.416 3.77286 -6.82111 0
M  V30 9151 N 867.645 1.57599 0.00500368 0
M  V30 9152 C 868.87 1.95026 0.705663 0
M  V30 9153 C 869.295 0.869643 1.6679 0
M  V30 9154 O 868.653 -0.172659 1.80476 0
M  V30 9155 C 868.701 3.31545 1.4181 0
M  V30 9156 O 867.805 3.25495 2.53232 0
M  V30 9157 H 867.146 0.636808 0.188074 0
M  V30 9158 H 869.676 2.04547 -0.046696 0
M  V30 9159 H 869.686 3.66996 1.78265 0
M  V30 9160 H 868.361 4.09751 0.712543 0
M  V30 9161 H 866.938 3.01714 2.19142 0
M  V30 9162 N 869.123 -0.277682 1.55134 0
M  V30 9163 C 870.055 -1.36531 1.84098 0
M  V30 9164 C 871.068 -1.45756 0.725194 0
M  V30 9165 O 872.257 -1.47656 1.00299 0
M  V30 9166 C 869.357 -2.74701 1.98476 0
M  V30 9167 C 868.53 -2.88125 3.29094 0
M  V30 9168 C 867.589 -4.0694 3.33596 0
M  V30 9169 O 866.615 -3.9792 4.06999 0
M  V30 9170 N 867.817 -5.18687 2.60661 0
M  V30 9171 H 870.582 -1.12032 2.77973 0
M  V30 9172 H 868.143 -0.467793 1.54995 0
M  V30 9173 H 870.135 -3.52471 1.98863 0
M  V30 9174 H 868.705 -2.92043 1.11488 0
M  V30 9175 H 867.925 -1.97277 3.41285 0
M  V30 9176 H 869.213 -2.94021 4.15246 0
M  V30 9177 H 868.611 -5.28901 2.00699 0
M  V30 9178 H 867.168 -5.94705 2.66776 0
M  V30 9179 N 870.601 -1.47988 -0.541979 0
M  V30 9180 C 871.826 -1.59286 -1.32826 0
M  V30 9181 C 872.251 -0.24894 -1.86445 0
M  V30 9182 O 871.609 0.777581 -1.63778 0
M  V30 9183 C 871.657 -2.6334 -2.46343 0
M  V30 9184 O 870.761 -2.19667 -3.49028 0
M  V30 9185 H 870.102 -0.534543 -0.393903 0
M  V30 9186 H 872.632 -1.93885 -0.653427 0
M  V30 9187 H 872.642 -2.84238 -2.92699 0
M  V30 9188 H 871.317 -3.60913 -2.06675 0
M  V30 9189 H 869.894 -2.08932 -3.08872 0
M  V30 9190 N 872.079 0.78992 -1.36375 0
M  V30 9191 C 873.325 1.54939 -1.31778 0
M  V30 9192 C 873.68 1.92128 0.102327 0
M  V30 9193 O 872.973 1.59823 1.05675 0
M  V30 9194 C 873.167 2.83698 -2.17371 0
M  V30 9195 C 872.996 2.59093 -3.67561 0
M  V30 9196 C 871.766 2.5414 -4.36739 0
M  V30 9197 C 873.964 2.28325 -4.60838 0
M  V30 9198 N 871.946 2.21427 -5.72576 0
M  V30 9199 C 873.317 2.05596 -5.84919 0
M  V30 9200 C 875.372 2.14328 -4.49409 0
M  V30 9201 C 874.075 1.70285 -6.98853 0
M  V30 9202 C 876.101 1.80415 -5.63209 0
M  V30 9203 C 875.463 1.58533 -6.86328 0
M  V30 9204 H 871.562 0.568011 -0.537483 0
M  V30 9205 H 874.146 0.923183 -1.71422 0
M  V30 9206 H 872.317 3.44187 -1.79972 0
M  V30 9207 H 874.049 3.49425 -2.04167 0
M  V30 9208 H 870.804 2.69368 -3.89535 0
M  V30 9209 H 871.228 2.07818 -6.44314 0
M  V30 9210 H 875.87 2.29935 -3.54809 0
M  V30 9211 H 873.588 1.53415 -7.93404 0
M  V30 9212 H 877.174 1.70269 -5.56327 0
M  V30 9213 H 876.054 1.32677 -7.72895 0
M  V30 9214 N 873.557 1.20646 1.01402 0
M  V30 9215 C 874.803 1.0197 1.753 0
M  V30 9216 C 875.136 -0.446803 1.8899 0
M  V30 9217 O 874.411 -1.33169 1.41762 0
M  V30 9218 C 874.694 1.70693 3.17074 0
M  V30 9219 C 874.547 3.24805 3.11162 0
M  V30 9220 C 875.866 1.44212 4.15802 0
M  V30 9221 H 872.985 0.371844 0.636318 0
M  V30 9222 H 875.627 1.48696 1.18277 0
M  V30 9223 H 873.777 1.30968 3.65759 0
M  V30 9224 H 875.449 3.73841 2.70261 0
M  V30 9225 H 873.692 3.55576 2.48492 0
M  V30 9226 H 874.363 3.68049 4.11393 0
M  V30 9227 H 876.839 1.7868 3.75783 0
M  V30 9228 H 875.715 1.94825 5.13161 0
M  V30 9229 H 875.976 0.370252 4.40547 0
M  V30 9230 N 875.035 -1.20752 1.01276 0
M  V30 9231 C 876.312 -1.85676 0.615112 0
M  V30 9232 C 876.692 -1.90623 -0.906976 0
M  V30 9233 O 876.04 -1.41124 -1.79712 0
M  V30 9234 C 876.25 -3.2552 1.25847 0
M  V30 9235 C 877.598 -4.0184 1.37148 0
M  V30 9236 O 878.622 -3.3486 1.21438 0
M  V30 9237 O 877.481 -5.21783 1.62495 0
M  V30 9238 H 874.575 -0.799437 0.211729 0
M  V30 9239 H 877.121 -1.28372 1.10989 0
M  V30 9240 H 875.893 -3.16664 2.29869 0
M  V30 9241 H 875.516 -3.90452 0.750524 0
M  V30 9242 N 876.513 -0.788492 -1.36457 0
M  V30 9243 C 877.476 -0.192209 -2.28393 0
M  V30 9244 C 878.476 0.609916 -1.48784 0
M  V30 9245 O 879.666 0.431046 -1.68783 0
M  V30 9246 C 876.798 0.734096 -3.32902 0
M  V30 9247 H 877.991 -1.00284 -2.82636 0
M  V30 9248 H 875.544 -0.557852 -1.46006 0
M  V30 9249 H 876.279 1.5691 -2.83813 0
M  V30 9250 H 876.064 0.160875 -3.9177 0
M  V30 9251 H 877.554 1.1462 -4.01562 0
M  V30 9252 N 877.991 1.48044 -0.54043 0
M  V30 9253 C 879.268 1.95523 0.0547302 0
M  V30 9254 C 879.648 1.48284 1.5025 0
M  V30 9255 O 878.996 0.714037 2.17057 0
M  V30 9256 C 879.206 3.48923 -0.0733393 0
M  V30 9257 C 880.554 4.24523 0.0806026 0
M  V30 9258 O 881.578 3.562 -5.58687e-05 0
M  V30 9259 O 880.437 5.45922 0.251216 0
M  V30 9260 H 877.531 0.823728 0.073493 0
M  V30 9261 H 880.077 1.5852 -0.605768 0
M  V30 9262 H 878.849 3.76059 -1.08144 0
M  V30 9263 H 878.472 3.92648 0.625536 0
M  V30 9264 N 879.47 0.276058 1.55163 0
M  V30 9265 C 880.886 -0.0780579 1.59409 0
M  V30 9266 C 881.086 -1.54521 1.29327 0
M  V30 9267 O 880.142 -2.29422 1.05459 0
M  V30 9268 C 881.455 0.297422 2.99225 0
M  V30 9269 C 883.003 0.244117 3.12047 0
M  V30 9270 C 883.478 0.594051 4.54131 0
M  V30 9271 N 884.969 0.54564 4.59975 0
M  V30 9272 C 885.704 0.789192 5.67943 0
M  V30 9273 N 885.2 1.09741 6.84053 0
M  V30 9274 N 886.993 0.717926 5.57496 0
M  V30 9275 H 879.144 1.23251 1.72982 0
M  V30 9276 H 881.407 0.497988 0.806667 0
M  V30 9277 H 881.113 1.31782 3.26077 0
M  V30 9278 H 880.987 -0.361286 3.75466 0
M  V30 9279 H 883.374 -0.766992 2.84958 0
M  V30 9280 H 883.455 0.937097 2.38017 0
M  V30 9281 H 883.099 1.60285 4.81945 0
M  V30 9282 H 883.029 -0.120728 5.26462 0
M  V30 9283 H 885.52 0.317334 3.76565 0
M  V30 9284 H 885.833 1.26989 7.62295 0
M  V30 9285 H 884.178 1.13519 6.85666 0
M  V30 9286 H 887.369 0.47697 4.65664 0
M  V30 9287 H 887.542 0.911118 6.41563 0
M  V30 9288 N 880.948 -1.576 0.00335426 0
M  V30 9289 C 882.197 -1.89892 -0.680001 0
M  V30 9290 C 882.51 -0.878731 -1.7475 0
M  V30 9291 O 883.716 -1.09199 -2.48572 0
M  V30 9292 C 882.172 -3.37098 -1.26066 0
M  V30 9293 C 881.78 -4.4742 -0.227807 0
M  V30 9294 C 883.524 -3.78495 -1.92202 0
M  V30 9295 C 881.431 -5.85706 -0.81865 0
M  V30 9296 H 880.361 -0.708578 -0.257746 0
M  V30 9297 H 883.012 -1.83387 0.0644472 0
M  V30 9298 H 881.394 -3.38451 -2.05589 0
M  V30 9299 H 882.568 -4.57589 0.54307 0
M  V30 9300 H 880.883 -4.15064 0.333297 0
M  V30 9301 H 883.48 -4.7915 -2.37318 0
M  V30 9302 H 883.823 -3.12187 -2.75399 0
M  V30 9303 H 884.356 -3.79456 -1.19408 0
M  V30 9304 H 881.095 -6.55495 -0.0253787 0
M  V30 9305 H 880.615 -5.79196 -1.55861 0
M  V30 9306 H 882.294 -6.33469 -1.31627 0
M  V30 9307 N 882.426 0.269451 -1.5528 0
M  V30 9308 C 883.674 0.998604 -1.75705 0
M  V30 9309 C 883.995 1.86691 -0.563175 0
M  V30 9310 O 883.265 1.91305 0.421811 0
M  V30 9311 H 881.845 0.371698 -0.647958 0
M  V30 9312 H 884.507 0.292826 -1.92688 0
M  V30 9313 H 883.603 1.63348 -2.6594 0
M  V30 9314 N 883.904 1.48273 0.534124 0
M  V30 9315 C 885.15 1.56311 1.29208 0
M  V30 9316 C 885.483 0.234481 1.92779 0
M  V30 9317 O 884.758 -0.759143 1.79073 0
M  V30 9318 C 885.041 2.69831 2.3846 0
M  V30 9319 C 884.894 4.12385 1.79608 0
M  V30 9320 C 886.213 2.79133 3.40254 0
M  V30 9321 H 883.332 0.56899 0.468422 0
M  V30 9322 H 885.974 1.80429 0.595438 0
M  V30 9323 H 884.124 2.49397 2.97881 0
M  V30 9324 H 885.796 4.44246 1.24269 0
M  V30 9325 H 884.039 4.19579 1.10162 0
M  V30 9326 H 884.71 4.87629 2.58693 0
M  V30 9327 H 887.186 2.97632 2.90783 0
M  V30 9328 H 886.062 3.60298 4.14097 0
M  V30 9329 H 886.323 1.87122 4.00547 0
M  V30 9330 N 885.382 -0.782676 1.36792 0
M  V30 9331 C 886.332 -1.8855 1.28191 0
M  V30 9332 C 887.316 -1.59978 0.171984 0
M  V30 9333 O 888.508 -1.72295 0.405405 0
M  V30 9334 C 885.637 -3.25862 1.08021 0
M  V30 9335 C 884.723 -3.60422 2.2351 0
M  V30 9336 N 885.114 -3.66241 3.48857 0
M  V30 9337 C 883.412 -3.90523 2.15424 0
M  V30 9338 C 884.113 -3.97233 4.24948 0
M  V30 9339 N 883.089 -4.12567 3.53963 0
M  V30 9340 H 886.891 -1.91285 2.23131 0
M  V30 9341 H 884.405 -0.978554 1.29607 0
M  V30 9342 H 886.402 -4.04742 0.999458 0
M  V30 9343 H 885.062 -3.24399 0.139882 0
M  V30 9344 H 886.073 -3.48717 3.82906 0
M  V30 9345 H 882.75 -3.96945 1.29386 0
M  V30 9346 H 884.14 -4.08602 5.33379 0
M  V30 9347 N 886.86 -1.21182 -1.00761 0
M  V30 9348 C 888.108 -1.02543 -1.74153 0
M  V30 9349 C 888.429 0.442372 -1.89916 0
M  V30 9350 O 887.699 1.31927 -1.44818 0
M  V30 9351 H 886.279 -0.37644 -0.645214 0
M  V30 9352 H 888.941 -1.52446 -1.21434 0
M  V30 9353 H 888.037 -1.49122 -2.7417 0
M  V30 9354 N 888.338 1.20213 -1.01915 0
M  V30 9355 C 889.584 1.90203 -0.720724 0
M  V30 9356 C 889.939 1.77526 0.74178 0
M  V30 9357 O 889.232 1.15037 1.53222 0
M  V30 9358 C 889.426 3.40232 -1.09438 0
M  V30 9359 C 889.255 3.67509 -2.59167 0
M  V30 9360 C 888.025 3.86082 -3.25989 0
M  V30 9361 C 890.223 3.69863 -3.5736 0
M  V30 9362 N 888.205 4.009 -4.64922 0
M  V30 9363 C 889.576 3.90136 -4.81865 0
M  V30 9364 C 891.631 3.52839 -3.51296 0
M  V30 9365 C 890.334 3.9515 -6.0104 0
M  V30 9366 C 892.36 3.59125 -4.69875 0
M  V30 9367 C 891.722 3.79874 -5.93191 0
M  V30 9368 H 887.821 0.715556 -0.315442 0
M  V30 9369 H 890.405 1.44538 -1.30449 0
M  V30 9370 H 888.576 3.84643 -0.538933 0
M  V30 9371 H 890.308 3.97704 -0.74923 0
M  V30 9372 H 887.063 3.84569 -2.76413 0
M  V30 9373 H 887.487 4.12181 -5.37062 0
M  V30 9374 H 892.129 3.35762 -2.56951 0
M  V30 9375 H 889.847 4.11022 -6.95763 0
M  V30 9376 H 893.433 3.47257 -4.66802 0
M  V30 9377 H 892.313 3.846 -6.83412 0
M  V30 9378 N 889.816 0.795718 1.36037 0
M  V30 9379 C 891.041 0.38204 2.03851 0
M  V30 9380 C 891.466 -0.995553 1.59594 0
M  V30 9381 O 890.824 -1.64258 0.767401 0
M  V30 9382 C 890.872 0.461248 3.57638 0
M  V30 9383 O 889.976 -0.529448 4.08987 0
M  V30 9384 H 889.317 0.161227 0.644129 0
M  V30 9385 H 891.847 1.07858 1.73861 0
M  V30 9386 H 891.857 0.32712 4.06687 0
M  V30 9387 H 890.532 1.46613 3.89201 0
M  V30 9388 H 889.109 -0.35646 3.71192 0
M  V30 9389 N 891.294 -1.47756 0.548274 0
M  V30 9390 C 892.524 -2.06584 0.0254503 0
M  V30 9391 C 892.932 -1.40268 -1.26971 0
M  V30 9392 O 892.275 -0.49019 -1.77039 0
M  V30 9393 C 892.337 -3.58628 -0.250301 0
M  V30 9394 C 892.001 -4.4693 0.954087 0
M  V30 9395 C 892.998 -4.85592 1.85733 0
M  V30 9396 C 890.683 -4.88573 1.16624 0
M  V30 9397 C 892.677 -5.64686 2.95648 0
M  V30 9398 C 890.364 -5.67435 2.2685 0
M  V30 9399 C 891.362 -6.05401 3.16194 0
M  V30 9400 O 891.05 -6.82676 4.24511 0
M  V30 9401 H 890.782 -0.67489 0.0387264 0
M  V30 9402 H 893.336 -1.90876 0.758663 0
M  V30 9403 H 891.566 -3.72516 -1.03771 0
M  V30 9404 H 893.255 -3.9951 -0.717419 0
M  V30 9405 H 894.021 -4.54026 1.70544 0
M  V30 9406 H 889.9 -4.58494 0.480039 0
M  V30 9407 H 893.444 -5.9424 3.65411 0
M  V30 9408 H 889.341 -5.98413 2.42016 0
M  V30 9409 H 890.109 -7.01057 4.22447 0
M  V30 9410 N 892.772 -0.284283 -1.55015 0
M  V30 9411 C 894.02 0.329212 -1.99401 0
M  V30 9412 C 894.341 1.55687 -1.17416 0
M  V30 9413 O 893.611 1.94087 -0.265937 0
M  V30 9414 H 892.191 0.12463 -0.73653 0
M  V30 9415 H 894.853 -0.391743 -1.90922 0
M  V30 9416 H 893.949 0.61278 -3.06025 0
M  V30 9417 N 894.251 1.57596 -0.0117121 0
M  V30 9418 C 895.499 1.90694 0.669342 0
M  V30 9419 C 895.82 0.886999 1.73659 0
M  V30 9420 O 895.09 -0.0739779 1.9576 0
M  V30 9421 H 893.67 0.703846 0.250219 0
M  V30 9422 H 896.332 1.94821 -0.0554057 0
M  V30 9423 H 895.428 2.90802 1.13316 0
M  V30 9424 N 895.729 -0.261212 1.5542 0
M  V30 9425 C 896.976 -0.99123 1.76581 0
M  V30 9426 C 897.304 -1.85854 0.573457 0
M  V30 9427 O 896.559 -1.90604 -0.443705 0
M  V30 9428 C 896.858 -1.89395 3.03091 0
M  V30 9429 C 896.524 -1.18318 4.351 0
M  V30 9430 C 895.186 -0.986688 4.70975 0
M  V30 9431 C 897.538 -0.678299 5.16767 0
M  V30 9432 C 894.866 -0.272788 5.86065 0
M  V30 9433 C 897.218 0.0220646 6.32596 0
M  V30 9434 C 895.882 0.230161 6.67103 0
M  V30 9435 H 895.152 -0.362717 0.646156 0
M  V30 9436 H 897.799 -0.262506 1.89692 0
M  V30 9437 H 896.104 -2.68927 2.8493 0
M  V30 9438 H 897.801 -2.46022 3.16661 0
M  V30 9439 H 894.391 -1.34625 4.06908 0
M  V30 9440 H 898.575 -0.817691 4.89518 0
M  V30 9441 H 893.831 -0.10095 6.11317 0
M  V30 9442 H 898.005 0.420981 6.95126 0
M  V30 9443 H 895.632 0.785312 7.56133 0
M  V30 9444 N 897.207 -1.48554 -0.526253 0
M  V30 9445 C 898.14 -1.57928 -1.64724 0
M  V30 9446 C 899.118 -0.429536 -1.56824 0
M  V30 9447 O 900.302 -0.641651 -1.77243 0
M  V30 9448 C 897.429 -1.51075 -3.0314 0
M  V30 9449 C 896.475 -2.70937 -3.29386 0
M  V30 9450 S 897.308 -4.3287 -3.15251 0
M  V30 9451 C 898.464 -4.28622 -4.56108 0
M  V30 9452 H 898.697 -2.52761 -1.56523 0
M  V30 9453 H 896.23 -1.37133 -0.7095 0
M  V30 9454 H 898.188 -1.47808 -3.82966 0
M  V30 9455 H 896.849 -0.57574 -3.08778 0
M  V30 9456 H 896.042 -2.62291 -4.30371 0
M  V30 9457 H 895.644 -2.71486 -2.57238 0
M  V30 9458 H 897.936 -3.98784 -5.47702 0
M  V30 9459 H 898.879 -5.29798 -4.69808 0
M  V30 9460 H 899.287 -3.59038 -4.35605 0
M  V30 9461 N 898.685 0.775411 -1.37205 0
M  V30 9462 C 899.913 1.56446 -1.35397 0
M  V30 9463 C 900.328 1.887 0.0615437 0
M  V30 9464 O 899.685 1.51178 1.02233 0
M  V30 9465 C 899.736 2.87697 -2.18889 0
M  V30 9466 O 899.457 2.56828 -3.54924 0
M  V30 9467 C 900.958 3.81944 -2.25019 0
M  V30 9468 H 898.178 0.484792 -0.463916 0
M  V30 9469 H 900.722 0.961346 -1.80495 0
M  V30 9470 H 898.877 3.44442 -1.7731 0
M  V30 9471 H 899.291 3.40851 -3.98649 0
M  V30 9472 H 900.765 4.71055 -2.87769 0
M  V30 9473 H 901.242 4.20811 -1.25757 0
M  V30 9474 H 901.848 3.3113 -2.66895 0
M  V30 9475 N 900.163 1.21714 1.00117 0
M  V30 9476 C 901.391 1.06278 1.77518 0
M  V30 9477 C 901.806 -0.387193 1.84787 0
M  V30 9478 O 901.163 -1.26854 1.31203 0
M  V30 9479 C 901.214 1.65795 3.21239 0
M  V30 9480 O 900.935 3.05119 3.14378 0
M  V30 9481 C 902.436 1.55521 4.15124 0
M  V30 9482 H 899.656 0.373013 0.557765 0
M  V30 9483 H 902.2 1.61133 1.25922 0
M  V30 9484 H 900.355 1.15022 3.69931 0
M  V30 9485 H 900.769 3.33643 4.04701 0
M  V30 9486 H 902.243 2.01902 5.13751 0
M  V30 9487 H 902.72 0.510307 4.36225 0
M  V30 9488 H 903.326 2.0556 3.72324 0
M  V30 9489 N 901.641 -1.19671 1.02551 0
M  V30 9490 C 902.589 -2.24812 0.596867 0
M  V30 9491 C 903.583 -1.65336 -0.368839 0
M  V30 9492 O 904.789 -1.78422 -0.237786 0
M  V30 9493 H 901.164 -0.731417 0.174739 0
M  V30 9494 H 903.135 -2.58286 1.49435 0
M  V30 9495 C 901.884 -3.47677 -0.0399514 0
M  V30 9496 H 901.207 -3.93728 0.694153 0
M  V30 9497 H 902.647 -4.22917 -0.302861 0
M  V30 9498 C 901.106 -3.11411 -1.2855 0
M  V30 9499 O 901.636 -3.23757 -2.37791 0
M  V30 9500 N 899.842 -2.65875 -1.17297 0
M  V30 9501 H 899.389 -2.56029 -0.284045 0
M  V30 9502 H 899.347 -2.41981 -2.00731 0
M  V30 9503 N 903.119 -0.802921 -1.35613 0
M  V30 9504 C 904.049 -0.225131 -2.32412 0
M  V30 9505 C 905.03 0.647383 -1.57299 0
M  V30 9506 O 906.215 0.578414 -1.85386 0
M  V30 9507 C 903.345 0.630085 -3.41537 0
M  V30 9508 C 902.299 -0.143635 -4.27759 0
M  V30 9509 C 901.625 0.833046 -5.28171 0
M  V30 9510 C 902.925 -1.34054 -5.04804 0
M  V30 9511 H 904.619 -1.03385 -2.80984 0
M  V30 9512 H 902.165 -0.498593 -1.35093 0
M  V30 9513 H 904.118 1.04433 -4.08254 0
M  V30 9514 H 902.842 1.47165 -2.91565 0
M  V30 9515 H 901.501 -0.539015 -3.62616 0
M  V30 9516 H 901.149 1.67001 -4.74468 0
M  V30 9517 H 900.849 0.319697 -5.8673 0
M  V30 9518 H 902.373 1.24558 -5.97761 0
M  V30 9519 H 903.787 -1.00136 -5.64487 0
M  V30 9520 H 902.184 -1.78812 -5.72841 0
M  V30 9521 H 903.254 -2.12906 -4.35659 0
M  V30 9522 N 904.597 1.47463 -0.556102 0
M  V30 9523 C 905.53 2.26934 0.240027 0
M  V30 9524 C 906.508 1.33981 0.921297 0
M  V30 9525 O 907.692 1.63361 0.940506 0
M  V30 9526 C 904.819 3.10982 1.34194 0
M  V30 9527 C 903.865 4.19504 0.769342 0
M  V30 9528 S 904.698 5.34127 -0.383209 0
M  V30 9529 C 905.854 6.21739 0.720548 0
M  V30 9530 H 906.087 2.9411 -0.434348 0
M  V30 9531 H 903.62 1.50556 -0.342402 0
M  V30 9532 H 905.578 3.59976 1.973 0
M  V30 9533 H 904.239 2.4317 1.98814 0
M  V30 9534 H 903.432 4.78036 1.59679 0
M  V30 9535 H 903.034 3.73385 0.214475 0
M  V30 9536 H 905.326 6.58021 1.61292 0
M  V30 9537 H 906.269 7.0789 0.172602 0
M  V30 9538 H 906.677 5.55342 1.01272 0
M  V30 9539 N 906.075 0.2925 1.54862 0
M  V30 9540 C 907.005 -0.580677 2.26165 0
M  V30 9541 C 907.986 -1.14485 1.25806 0
M  V30 9542 O 909.171 -1.17577 1.54562 0
M  V30 9543 C 906.301 -1.75668 2.99596 0
M  V30 9544 C 905.255 -1.32325 4.07031 0
M  V30 9545 C 904.581 -2.58374 4.68131 0
M  V30 9546 C 905.881 -0.460703 5.20264 0
M  V30 9547 H 907.575 0.0140075 2.99397 0
M  V30 9548 H 905.121 0.00817706 1.43998 0
M  V30 9549 H 907.074 -2.37356 3.48195 0
M  V30 9550 H 905.798 -2.37747 2.23928 0
M  V30 9551 H 904.457 -0.729477 3.59269 0
M  V30 9552 H 904.105 -3.18749 3.89112 0
M  V30 9553 H 903.805 -2.30078 5.40683 0
M  V30 9554 H 905.329 -3.2088 5.19489 0
M  V30 9555 H 906.743 -0.983037 5.64809 0
M  V30 9556 H 905.14 -0.271881 5.99484 0
M  V30 9557 H 906.21 0.516304 4.82143 0
M  V30 9558 N 907.553 -1.57587 0.0200696 0
M  V30 9559 C 908.781 -1.95718 -0.670964 0
M  V30 9560 C 909.196 -0.896081 -1.6618 0
M  V30 9561 O 908.553 0.123037 -1.82085 0
M  V30 9562 C 908.604 -3.33904 -1.38529 0
M  V30 9563 O 908.325 -4.35943 -0.434167 0
M  V30 9564 C 909.826 -3.86614 -2.16898 0
M  V30 9565 H 907.046 -0.644819 -0.185606 0
M  V30 9566 H 909.59 -2.04354 0.0771495 0
M  V30 9567 H 907.745 -3.26515 -2.08487 0
M  V30 9568 H 908.159 -5.16001 -0.940378 0
M  V30 9569 H 909.633 -4.85673 -2.62346 0
M  V30 9570 H 910.11 -3.20379 -3.00423 0
M  V30 9571 H 910.716 -3.97243 -1.51916 0
M  V30 9572 N 909.032 0.252966 -1.55557 0
M  V30 9573 C 909.982 1.31585 -1.86197 0
M  V30 9574 C 910.966 1.43773 -0.722357 0
M  V30 9575 O 912.158 1.47117 -0.984152 0
M  V30 9576 C 909.287 2.67245 -2.15487 0
M  V30 9577 C 908.373 2.59087 -3.3576 0
M  V30 9578 N 908.764 2.20556 -4.5518 0
M  V30 9579 C 907.062 2.90112 -3.3875 0
M  V30 9580 C 907.763 2.22881 -5.37307 0
M  V30 9581 N 906.739 2.62145 -4.76215 0
M  V30 9582 H 910.541 1.00835 -2.76061 0
M  V30 9583 H 908.055 0.461598 -1.55702 0
M  V30 9584 H 910.052 3.43944 -2.35602 0
M  V30 9585 H 908.712 2.98867 -1.26919 0
M  V30 9586 H 909.723 1.922 -4.80915 0
M  V30 9587 H 906.4 3.26313 -2.60434 0
M  V30 9588 H 907.79 1.95482 -6.42835 0
M  V30 9589 N 910.51 1.48831 0.518367 0
M  V30 9590 C 911.758 1.57128 1.27103 0
M  V30 9591 C 912.079 0.252098 1.93364 0
M  V30 9592 O 911.349 -0.727281 1.819 0
M  V30 9593 H 909.929 0.578891 0.472116 0
M  V30 9594 H 912.591 1.85361 0.602262 0
M  V30 9595 H 911.687 2.35838 2.04418 0
M  V30 9596 N 911.988 -0.768124 1.37614 0
M  V30 9597 C 913.265 -1.51637 1.23554 0
M  V30 9598 C 913.645 -2.1042 -0.169331 0
M  V30 9599 O 912.993 -1.95834 -1.17735 0
M  V30 9600 C 913.203 -2.59436 2.33439 0
M  V30 9601 C 914.551 -3.2674 2.71157 0
M  V30 9602 O 915.575 -2.69733 2.32642 0
M  V30 9603 O 914.434 -4.29814 3.37524 0
M  V30 9604 H 911.528 -0.671778 0.482332 0
M  V30 9605 H 914.074 -0.804779 1.49403 0
M  V30 9606 H 912.846 -2.14146 3.27502 0
M  V30 9607 H 912.469 -3.38192 2.09073 0
M  V30 9608 N 913.466 -1.22244 -0.994698 0
M  V30 9609 C 914.712 -1.04746 -1.73655 0
M  V30 9610 C 915.045 0.41668 -1.89677 0
M  V30 9611 O 914.32 1.30897 -1.43862 0
M  V30 9612 C 914.603 -1.75716 -3.14318 0
M  V30 9613 C 914.456 -3.29714 -3.05955 0
M  V30 9614 C 915.775 -1.50809 -4.13455 0
M  V30 9615 H 912.894 -0.381921 -0.630322 0
M  V30 9616 H 915.536 -1.50559 -1.15897 0
M  V30 9617 H 913.686 -1.3677 -3.63629 0
M  V30 9618 H 915.358 -3.78093 -2.64279 0
M  V30 9619 H 913.601 -3.59484 -2.42804 0
M  V30 9620 H 914.272 -3.74547 -4.05485 0
M  V30 9621 H 916.748 -1.84636 -3.72892 0
M  V30 9622 H 915.624 -2.02964 -5.09997 0
M  V30 9623 H 915.885 -0.440292 -4.39902 0
M  V30 9624 N 914.944 1.19125 -1.03184 0
M  V30 9625 C 916.191 1.88883 -0.730029 0
M  V30 9626 C 916.519 1.79807 0.741602 0
M  V30 9627 O 915.774 1.18686 1.55603 0
M  V30 9628 C 916.073 3.39052 -1.13041 0
M  V30 9629 C 915.739 3.68332 -2.60082 0
M  V30 9630 C 914.401 3.76033 -3.00254 0
M  V30 9631 C 916.753 3.81423 -3.55199 0
M  V30 9632 C 914.081 3.94296 -4.34451 0
M  V30 9633 C 916.433 4.012 -4.89103 0
M  V30 9634 C 915.097 4.07134 -5.28959 0
M  V30 9635 H 914.367 0.691172 -0.267137 0
M  V30 9636 H 917.014 1.41053 -1.29523 0
M  V30 9637 H 915.319 3.88801 -0.48386 0
M  V30 9638 H 917.016 3.91351 -0.874368 0
M  V30 9639 H 913.606 3.62948 -2.27961 0
M  V30 9640 H 917.79 3.74814 -3.25313 0
M  V30 9641 H 913.046 3.97131 -4.64863 0
M  V30 9642 H 917.22 4.10271 -5.62717 0
M  V30 9643 H 914.847 4.21038 -6.32954 0
M  V30 9644 N 916.422 0.810101 1.35185 0
M  V30 9645 C 917.369 0.220927 2.2974 0
M  V30 9646 C 918.339 -0.647024 1.5298 0
M  V30 9647 O 919.524 -0.591367 1.81404 0
M  V30 9648 C 916.664 -0.62167 3.39454 0
M  V30 9649 C 915.777 0.267104 4.31173 0
M  V30 9650 C 914.912 -0.583833 5.27982 0
M  V30 9651 C 913.951 0.305123 6.11339 0
M  V30 9652 N 913.088 -0.505992 7.00274 0
M  V30 9653 H 917.928 1.03266 2.79536 0
M  V30 9654 H 915.465 0.520768 1.37573 0
M  V30 9655 H 917.423 -1.12539 4.01735 0
M  V30 9656 H 916.053 -1.39863 2.90926 0
M  V30 9657 H 915.105 0.88895 3.69867 0
M  V30 9658 H 916.417 0.951182 4.89647 0
M  V30 9659 H 915.571 -1.15254 5.95652 0
M  V30 9660 H 914.31 -1.30146 4.70014 0
M  V30 9661 H 913.315 0.886075 5.42613 0
M  V30 9662 H 914.54 1.02067 6.71386 0
M  V30 9663 H 912.486 -1.20753 6.4479 0
M  V30 9664 H 912.403 0.119966 7.55905 0
M  V30 9665 H 913.671 -1.05787 7.72288 0
M  V30 9666 N 917.9 -1.47166 0.563914 0
M  V30 9667 C 919.146 -2.02756 0.0424338 0
M  V30 9668 C 919.479 -1.43662 -1.3067 0
M  V30 9669 O 918.754 -0.594676 -1.85186 0
M  V30 9670 C 919.037 -3.60074 -0.0434793 0
M  V30 9671 C 918.89 -4.29587 1.33323 0
M  V30 9672 C 920.209 -4.336 -0.753568 0
M  V30 9673 H 917.328 -0.736806 0.0168946 0
M  V30 9674 H 919.97 -1.75521 0.727496 0
M  V30 9675 H 918.12 -3.83409 -0.626906 0
M  V30 9676 H 919.792 -4.17573 1.96037 0
M  V30 9677 H 918.035 -3.8968 1.9061 0
M  V30 9678 H 918.706 -5.38218 1.22576 0
M  V30 9679 H 921.182 -4.15299 -0.258126 0
M  V30 9680 H 920.058 -5.43291 -0.782659 0
M  V30 9681 H 920.319 -4.03302 -1.81108 0
M  V30 9682 N 919.378 -0.300708 -1.54705 0
M  V30 9683 C 920.626 0.308044 -1.99739 0
M  V30 9684 C 920.947 1.54433 -1.19061 0
M  V30 9685 O 920.217 1.93794 -0.286507 0
M  V30 9686 H 918.797 0.116811 -0.73781 0
M  V30 9687 H 921.459 -0.41197 -1.90496 0
M  V30 9688 H 920.555 0.580287 -3.06658 0
M  V30 9689 N 920.856 1.57574 -0.0284266 0
M  V30 9690 C 922.102 1.92056 0.651327 0
M  V30 9691 C 922.435 0.905092 1.71819 0
M  V30 9692 O 921.71 -0.0722703 1.94366 0
M  V30 9693 C 921.993 3.37021 1.26841 0
M  V30 9694 C 921.846 4.49304 0.211157 0
M  V30 9695 C 923.165 3.81936 2.18662 0
M  V30 9696 H 920.284 0.698428 0.235304 0
M  V30 9697 H 922.926 1.89807 -0.0855435 0
M  V30 9698 H 921.076 3.39068 1.89644 0
M  V30 9699 H 922.748 4.5939 -0.419379 0
M  V30 9700 H 920.991 4.31317 -0.463445 0
M  V30 9701 H 921.662 5.47764 0.682518 0
M  V30 9702 H 924.138 3.8162 1.65847 0
M  V30 9703 H 923.014 4.84064 2.58792 0
M  V30 9704 H 923.275 3.174 3.07749 0
M  V30 9705 N 922.334 -0.244713 1.55689 0
M  V30 9706 C 923.297 -1.2864 1.89695 0
M  V30 9707 C 924.297 -1.40969 0.773583 0
M  V30 9708 O 925.487 -1.39632 1.04156 0
M  V30 9709 C 922.619 -2.66379 2.12732 0
M  V30 9710 H 923.812 -0.997033 2.82841 0
M  V30 9711 H 921.365 -0.484103 1.48614 0
M  V30 9712 H 922.1 -3.00452 1.22062 0
M  V30 9713 H 921.885 -2.58812 2.94549 0
M  V30 9714 H 923.375 -3.41592 2.40218 0
M  V30 9715 N 923.813 -1.49104 -0.510467 0
M  V30 9716 C 925.061 -1.578 -1.26268 0
M  V30 9717 C 925.382 -0.262349 -1.93227 0
M  V30 9718 O 924.652 0.717624 -1.82283 0
M  V30 9719 H 923.232 -0.581387 -0.46904 0
M  V30 9720 H 925.894 -1.85678 -0.592423 0
M  V30 9721 H 924.99 -2.36919 -2.03165 0
M  V30 9722 N 925.291 0.760815 -1.38019 0
M  V30 9723 C 926.539 1.51673 -1.33566 0
M  V30 9724 C 926.86 1.94852 0.076024 0
M  V30 9725 O 926.13 1.67112 1.02227 0
M  V30 9726 H 924.71 0.562581 -0.491438 0
M  V30 9727 H 927.372 0.904832 -1.72623 0
M  V30 9728 H 926.468 2.41102 -1.98182 0
M  V30 9729 N 926.769 1.22769 0.988202 0
M  V30 9730 C 928.18 1.0512 1.54294 0
M  V30 9731 C 928.531 -0.383904 1.92407 0
M  V30 9732 O 927.656 -1.26955 1.75246 0
M  V30 9733 C 928.251 1.90198 2.80375 0
M  V30 9734 C 926.81 1.76831 3.32276 0
M  V30 9735 C 925.957 1.86377 2.05326 0
M  V30 9736 H 928.908 1.36546 0.808758 0
M  V30 9737 H 928.929 1.42216 3.52923 0
M  V30 9738 H 928.441 2.9464 2.52605 0
M  V30 9739 H 926.542 0.751412 3.64945 0
M  V30 9740 H 926.655 2.59771 4.02562 0
M  V30 9741 H 925.019 1.2987 2.19103 0
M  V30 9742 H 925.802 2.9236 1.79946 0
M  V30 9743 N 928.247 -1.18576 1.03814 0
M  V30 9744 C 929.493 -1.88773 0.741132 0
M  V30 9745 C 929.826 -1.79993 -0.729127 0
M  V30 9746 O 929.101 -1.19851 -1.53186 0
M  V30 9747 C 929.384 -3.39352 1.20468 0
M  V30 9748 C 929.237 -3.56955 2.73684 0
M  V30 9749 C 930.556 -4.32901 0.792741 0
M  V30 9750 H 927.675 -0.685482 0.270708 0
M  V30 9751 H 930.317 -1.39523 1.2897 0
M  V30 9752 H 928.467 -3.81427 0.737974 0
M  V30 9753 H 930.139 -3.2399 3.28372 0
M  V30 9754 H 928.382 -2.99696 3.13632 0
M  V30 9755 H 929.053 -4.62598 3.01176 0
M  V30 9756 H 931.529 -3.98592 1.1943 0
M  V30 9757 H 930.405 -5.36828 1.14486 0
M  V30 9758 H 930.666 -4.41052 -0.304295 0
M  V30 9759 N 929.725 -0.817259 -1.34754 0
M  V30 9760 C 930.974 -0.39908 -1.97713 0
M  V30 9761 C 931.287 1.04203 -1.65533 0
M  V30 9762 O 932.493 1.56384 -2.21937 0
M  V30 9763 C 930.949 -0.662634 -3.53747 0
M  V30 9764 C 930.557 -2.11699 -3.94826 0
M  V30 9765 C 932.301 -0.31034 -4.23364 0
M  V30 9766 C 930.208 -2.32573 -5.4375 0
M  V30 9767 H 929.138 -0.145488 -0.739831 0
M  V30 9768 H 931.789 -1.00282 -1.53674 0
M  V30 9769 H 930.171 0.0111972 -3.95998 0
M  V30 9770 H 931.345 -2.82951 -3.63697 0
M  V30 9771 H 929.66 -2.43017 -3.3813 0
M  V30 9772 H 932.257 -0.44421 -5.32852 0
M  V30 9773 H 932.6 0.744594 -4.09587 0
M  V30 9774 H 933.133 -0.938518 -3.8657 0
M  V30 9775 H 929.872 -3.36551 -5.62507 0
M  V30 9776 H 929.392 -1.65858 -5.76412 0
M  V30 9777 H 931.071 -2.14651 -6.10356 0
M  V30 9778 N 931.203 1.46865 -0.571711 0
M  V30 9779 C 932.48 1.95596 0.0132445 0
M  V30 9780 C 932.86 1.51438 1.47071 0
M  V30 9781 O 932.208 0.759917 2.15494 0
M  V30 9782 C 932.418 3.48689 -0.147335 0
M  V30 9783 C 933.766 4.24599 -0.00946329 0
M  V30 9784 O 934.79 3.5612 -0.0756112 0
M  V30 9785 O 933.649 5.46332 0.135361 0
M  V30 9786 H 930.743 0.825102 0.0560039 0
M  V30 9787 H 933.289 1.57199 -0.639256 0
M  V30 9788 H 932.061 3.73681 -1.16096 0
M  V30 9789 H 931.684 3.93887 0.542109 0
M  V30 9790 N 932.681 0.308908 1.54543 0
M  V30 9791 C 933.927 -0.291311 2.01303 0
M  V30 9792 C 934.282 -1.50917 1.19339 0
M  V30 9793 O 933.575 -1.89776 0.263724 0
M  V30 9794 C 933.769 -0.691522 3.50646 0
M  V30 9795 C 933.598 0.486007 4.47066 0
M  V30 9796 C 932.368 0.980515 4.95695 0
M  V30 9797 C 934.566 1.33352 4.96711 0
M  V30 9798 N 932.548 2.12398 5.75986 0
M  V30 9799 C 933.919 2.32436 5.74781 0
M  V30 9800 C 935.974 1.36298 4.78881 0
M  V30 9801 C 934.677 3.34252 6.36921 0
M  V30 9802 C 936.703 2.36976 5.41845 0
M  V30 9803 C 936.065 3.34789 6.19755 0
M  V30 9804 H 932.164 -0.0708418 0.778785 0
M  V30 9805 H 934.748 0.440621 1.89649 0
M  V30 9806 H 932.919 -1.39261 3.62575 0
M  V30 9807 H 934.651 -1.27196 3.84192 0
M  V30 9808 H 931.406 0.55419 4.70346 0
M  V30 9809 H 931.83 2.70036 6.20814 0
M  V30 9810 H 936.472 0.620472 4.18222 0
M  V30 9811 H 934.19 4.09417 6.96709 0
M  V30 9812 H 937.776 2.40039 5.29974 0
M  V30 9813 H 936.656 4.11418 6.67611 0
M  V30 9814 N 934.159 -1.57557 0.0367827 0
M  V30 9815 C 935.107 -2.11844 -0.960454 0
M  V30 9816 C 936.101 -1.04681 -1.33185 0
M  V30 9817 O 937.307 -1.23108 -1.31318 0
M  V30 9818 H 933.682 -0.676921 -0.32754 0
M  V30 9819 H 935.653 -2.94557 -0.477346 0
M  V30 9820 C 934.402 -2.66683 -2.23105 0
M  V30 9821 H 933.725 -3.48795 -1.95403 0
M  V30 9822 H 935.165 -3.08305 -2.91074 0
M  V30 9823 C 933.624 -1.59782 -2.96599 0
M  V30 9824 O 934.154 -1.00214 -3.88999 0
M  V30 9825 N 932.36 -1.31644 -2.59072 0
M  V30 9826 H 931.907 -1.80272 -1.8401 0
M  V30 9827 H 931.865 -0.603457 -3.08554 0
M  V30 9828 N 935.637 0.236453 -1.55816 0
M  V30 9829 C 937.053 0.585465 -1.48474 0
M  V30 9830 C 937.253 1.8785 -0.72902 0
M  V30 9831 O 936.309 2.51131 -0.262614 0
M  V30 9832 C 937.622 0.678506 -2.92945 0
M  V30 9833 C 939.17 0.770135 -3.03378 0
M  V30 9834 C 939.645 0.894649 -4.49177 0
M  V30 9835 N 941.136 0.959253 -4.53158 0
M  V30 9836 C 941.871 1.07505 -5.63232 0
M  V30 9837 N 941.367 1.15572 -6.83092 0
M  V30 9838 N 943.16 1.10902 -5.51051 0
M  V30 9839 H 935.311 -0.612241 -2.03385 0
M  V30 9840 H 937.574 -0.212796 -0.923808 0
M  V30 9841 H 937.28 -0.201757 -3.51121 0
M  V30 9842 H 937.154 1.54703 -3.44016 0
M  V30 9843 H 939.541 1.64085 -2.45276 0
M  V30 9844 H 939.622 -0.123753 -2.555 0
M  V30 9845 H 939.266 0.0284537 -5.07892 0
M  V30 9846 H 939.196 1.80373 -4.94745 0
M  V30 9847 H 941.687 0.907827 -3.66834 0
M  V30 9848 H 942 1.24343 -7.62731 0
M  V30 9849 H 940.345 1.12511 -6.85833 0
M  V30 9850 H 943.536 1.04255 -4.56343 0
M  V30 9851 H 943.709 1.19581 -6.36871 0
M  V30 9852 N 937.115 1.49373 0.502552 0
M  V30 9853 C 938.345 1.62252 1.27898 0
M  V30 9854 C 938.753 0.292555 1.86924 0
M  V30 9855 O 938.096 -0.731823 1.68493 0
M  V30 9856 C 938.158 2.63153 2.4493 0
M  V30 9857 C 937.822 4.07541 2.06784 0
M  V30 9858 C 938.819 4.94392 1.60849 0
M  V30 9859 C 936.504 4.53263 2.16466 0
M  V30 9860 C 938.498 6.25003 1.25098 0
M  V30 9861 C 936.185 5.83888 1.80327 0
M  V30 9862 C 937.183 6.69582 1.34718 0
M  V30 9863 O 936.871 7.97773 0.990661 0
M  V30 9864 H 936.603 0.54918 0.394179 0
M  V30 9865 H 939.157 1.96132 0.610031 0
M  V30 9866 H 937.387 2.2445 3.14895 0
M  V30 9867 H 939.076 2.65578 3.06957 0
M  V30 9868 H 939.842 4.60296 1.52816 0
M  V30 9869 H 935.721 3.86731 2.50919 0
M  V30 9870 H 939.265 6.91844 0.894269 0
M  V30 9871 H 935.162 6.17513 1.8801 0
M  V30 9872 H 935.93 8.1077 1.12227 0
M  V30 9873 N 938.594 -0.753485 1.38421 0
M  V30 9874 C 939.504 -1.89797 1.37892 0
M  V30 9875 C 940.52 -1.71797 0.276023 0
M  V30 9876 O 941.696 -1.94718 0.514464 0
M  V30 9877 C 938.761 -3.25166 1.20284 0
M  V30 9878 C 937.822 -3.55691 2.4038 0
M  V30 9879 C 937.055 -4.84601 2.23602 0
M  V30 9880 O 937.278 -5.56985 1.22979 0
M  V30 9881 O 936.212 -5.14605 3.12194 0
M  V30 9882 H 940.038 -1.93197 2.34326 0
M  V30 9883 H 937.623 -0.898775 1.19342 0
M  V30 9884 H 939.505 -4.06099 1.12525 0
M  V30 9885 H 938.18 -3.22577 0.269352 0
M  V30 9886 H 937.087 -2.74919 2.53714 0
M  V30 9887 H 938.42 -3.6304 3.32359 0
M  V30 9888 N 940.072 -1.23292 -0.981677 0
M  V30 9889 C 941.321 -1.05832 -1.71705 0
M  V30 9890 C 941.634 0.40514 -1.91358 0
M  V30 9891 O 942.84 0.699645 -2.6233 0
M  V30 9892 C 941.296 -1.84532 -3.08992 0
M  V30 9893 C 940.904 -3.35199 -2.9723 0
M  V30 9894 C 942.648 -1.75557 -3.86497 0
M  V30 9895 C 940.555 -4.06296 -4.29741 0
M  V30 9896 H 939.485 -0.39241 -0.64384 0
M  V30 9897 H 942.136 -1.47247 -1.09502 0
M  V30 9898 H 940.518 -1.35923 -3.71942 0
M  V30 9899 H 941.692 -3.91286 -2.43377 0
M  V30 9900 H 940.007 -3.44973 -2.332 0
M  V30 9901 H 942.604 -2.25989 -4.84596 0
M  V30 9902 H 942.947 -0.718101 -4.1006 0
M  V30 9903 H 943.48 -2.21771 -3.30246 0
M  V30 9904 H 940.219 -5.10344 -4.11375 0
M  V30 9905 H 939.739 -3.54997 -4.83464 0
M  V30 9906 H 941.418 -4.12519 -4.98434 0
M  V30 9907 N 941.55 1.18024 -1.04442 0
M  V30 9908 C 942.483 2.20623 -0.583171 0
M  V30 9909 C 943.461 1.57994 0.384262 0
M  V30 9910 O 944.645 1.86135 0.297673 0
M  V30 9911 C 941.772 3.38378 0.147561 0
M  V30 9912 C 940.818 4.19423 -0.773711 0
M  V30 9913 S 941.651 4.85534 -2.25869 0
M  V30 9914 C 942.807 6.06686 -1.53891 0
M  V30 9915 H 943.04 2.59406 -1.45244 0
M  V30 9916 H 940.573 1.28518 -0.855708 0
M  V30 9917 H 942.531 4.06621 0.562988 0
M  V30 9918 H 941.192 2.97998 0.992765 0
M  V30 9919 H 940.385 5.03568 -0.208694 0
M  V30 9920 H 939.987 3.56579 -1.12816 0
M  V30 9921 H 942.279 6.72347 -0.834045 0
M  V30 9922 H 943.222 6.67702 -2.35755 0
M  V30 9923 H 943.63 5.55031 -1.02961 0
M  V30 9924 N 943.028 0.824394 1.34319 0
M  V30 9925 C 944.258 0.425576 2.02169 0
M  V30 9926 C 944.666 -0.973596 1.62227 0
M  V30 9927 O 944.009 -1.64173 0.824199 0
M  V30 9928 C 944.071 0.449902 3.56674 0
M  V30 9929 C 943.735 1.80266 4.19944 0
M  V30 9930 C 944.732 2.76373 4.40357 0
M  V30 9931 C 942.417 2.09155 4.56683 0
M  V30 9932 C 944.411 3.9954 4.96635 0
M  V30 9933 C 942.098 3.32581 5.12672 0
M  V30 9934 C 943.096 4.27591 5.32592 0
M  V30 9935 O 942.784 5.48837 5.87395 0
M  V30 9936 H 942.516 0.168866 0.654569 0
M  V30 9937 H 945.07 1.11441 1.7254 0
M  V30 9938 H 943.3 -0.295631 3.85568 0
M  V30 9939 H 944.989 0.0709302 4.05838 0
M  V30 9940 H 945.755 2.55351 4.12336 0
M  V30 9941 H 941.634 1.36004 4.40481 0
M  V30 9942 H 945.178 4.73709 5.12099 0
M  V30 9943 H 941.075 3.53466 5.40122 0
M  V30 9944 H 941.843 5.50377 6.05828 0
M  V30 9945 N 944.506 -1.46559 0.579492 0
M  V30 9946 C 945.754 -2.02 0.0637157 0
M  V30 9947 C 946.075 -1.45378 -1.29962 0
M  V30 9948 O 945.345 -0.637262 -1.85245 0
M  V30 9949 H 943.925 -0.746717 0.0205638 0
M  V30 9950 H 946.587 -1.79702 0.754544 0
M  V30 9951 H 945.683 -3.12099 -0.00770254 0
M  V30 9952 N 945.984 -0.3171 -1.54377 0
M  V30 9953 C 946.894 0.560867 -2.27797 0
M  V30 9954 C 947.91 1.13473 -1.31908 0
M  V30 9955 O 949.086 1.15608 -1.64914 0
M  V30 9956 C 946.151 1.70886 -3.0166 0
M  V30 9957 C 945.212 1.16745 -4.13121 0
M  V30 9958 C 944.445 2.26073 -4.83453 0
M  V30 9959 O 944.668 3.46292 -4.53252 0
M  V30 9960 O 943.602 1.91856 -5.70504 0
M  V30 9961 H 947.428 -0.035193 -3.0368 0
M  V30 9962 H 945.013 -0.0830062 -1.49169 0
M  V30 9963 H 946.895 2.37736 -3.47936 0
M  V30 9964 H 945.57 2.29122 -2.28658 0
M  V30 9965 H 944.477 0.464224 -3.71209 0
M  V30 9966 H 945.81 0.630307 -4.88147 0
M  V30 9967 N 947.462 1.57535 -0.0451378 0
M  V30 9968 C 948.878 1.56533 0.311373 0
M  V30 9969 C 949.078 1.05225 1.71843 0
M  V30 9970 O 948.134 0.706144 2.42425 0
M  V30 9971 C 949.447 3.00349 0.145348 0
M  V30 9972 C 950.995 3.12248 0.216908 0
M  V30 9973 C 951.47 4.57931 0.0794834 0
M  V30 9974 N 952.961 4.63 0.135954 0
M  V30 9975 C 953.696 5.73375 0.0536426 0
M  V30 9976 N 953.192 6.92753 -0.0806725 0
M  V30 9977 N 954.985 5.61995 0.108789 0
M  V30 9978 H 947.136 1.89211 -0.965044 0
M  V30 9979 H 949.399 0.871068 -0.374091 0
M  V30 9980 H 949.105 3.41898 -0.824533 0
M  V30 9981 H 948.979 3.66086 0.908903 0
M  V30 9982 H 951.366 2.70601 1.17726 0
M  V30 9983 H 951.447 2.49201 -0.577299 0
M  V30 9984 H 951.091 5.00262 -0.877516 0
M  V30 9985 H 951.021 5.18977 0.892758 0
M  V30 9986 H 953.512 3.77142 0.23926 0
M  V30 9987 H 953.825 7.7268 -0.136351 0
M  V30 9988 H 952.17 6.94904 -0.115675 0
M  V30 9989 H 955.361 4.67619 0.212235 0
M  V30 9990 H 955.534 6.47987 0.0411822 0
M  V30 9991 N 948.94 -0.228186 1.55939 0
M  V30 9992 C 950.17 -0.969211 1.82455 0
M  V30 9993 C 950.578 -1.78714 0.621133 0
M  V30 9994 O 949.921 -1.78841 -0.419694 0
M  V30 9995 C 949.983 -1.94088 3.02605 0
M  V30 9996 C 949.647 -1.30811 4.37878 0
M  V30 9997 C 950.644 -0.701275 5.15149 0
M  V30 9998 C 948.329 -1.32187 4.84595 0
M  V30 9999 C 950.323 -0.116631 6.37293 0
M  V30 10000 C 948.01 -0.733375 6.06683 0
M  V30 10001 C 949.008 -0.131804 6.82873 0
M  V30 10002 O 948.696 0.447549 8.02653 0
M  V30 10003 H 948.428 -0.289951 0.610659 0
M  V30 10004 H 950.982 -0.250576 2.03866 0
M  V30 10005 H 949.212 -2.69833 2.76996 0
M  V30 10006 H 950.901 -2.5469 3.1605 0
M  V30 10007 H 951.667 -0.683022 4.80166 0
M  V30 10008 H 947.546 -1.77949 4.25271 0
M  V30 10009 H 951.09 0.353539 6.96704 0
M  V30 10010 H 946.987 -0.749019 6.4114 0
M  V30 10011 H 947.755 0.341224 8.17788 0
M  V30 10012 N 950.418 -1.49637 -0.494624 0
M  V30 10013 C 951.665 -1.59445 -1.24834 0
M  V30 10014 C 951.993 -0.284028 -1.92415 0
M  V30 10015 O 951.248 0.728519 -1.81634 0
M  V30 10016 C 951.547 -2.70749 -2.33302 0
M  V30 10017 C 951.213 -4.12034 -1.83135 0
M  V30 10018 C 949.875 -4.50482 -1.69173 0
M  V30 10019 C 952.227 -5.00432 -1.4566 0
M  V30 10020 C 949.555 -5.75093 -1.16124 0
M  V30 10021 C 951.907 -6.25568 -0.940608 0
M  V30 10022 C 950.571 -6.62839 -0.787432 0
M  V30 10023 H 949.841 -0.583451 -0.456799 0
M  V30 10024 H 952.488 -1.8349 -0.548044 0
M  V30 10025 H 950.793 -2.407 -3.09145 0
M  V30 10026 H 952.49 -2.75546 -2.91334 0
M  V30 10027 H 949.08 -3.8169 -1.94964 0
M  V30 10028 H 953.264 -4.71379 -1.55291 0
M  V30 10029 H 948.52 -6.02665 -1.02982 0
M  V30 10030 H 952.694 -6.93439 -0.641467 0
M  V30 10031 H 950.321 -7.59279 -0.374191 0
M  V30 10032 N 951.896 0.746133 -1.38819 0
M  V30 10033 C 953.173 1.49652 -1.25951 0
M  V30 10034 C 953.553 2.10663 0.135833 0
M  V30 10035 O 952.901 1.97682 1.14604 0
M  V30 10036 C 953.111 2.5569 -2.37537 0
M  V30 10037 C 954.459 3.22385 -2.76321 0
M  V30 10038 O 955.483 2.65998 -2.36904 0
M  V30 10039 O 954.342 4.2439 -3.44319 0
M  V30 10040 H 951.436 0.664019 -0.492958 0
M  V30 10041 H 953.982 0.780908 -1.50665 0
M  V30 10042 H 952.754 2.08908 -3.30867 0
M  V30 10043 H 952.377 3.34823 -2.14427 0
M  V30 10044 N 953.375 1.23811 0.975125 0
M  V30 10045 C 954.338 1.02505 2.05001 0
M  V30 10046 C 955.338 -0.0150084 1.60793 0
M  V30 10047 O 956.528 0.225246 1.72738 0
M  V30 10048 C 953.66 0.552087 3.364 0
M  V30 10049 H 954.853 1.979 2.25335 0
M  V30 10050 H 952.406 1.05929 1.1493 0
M  V30 10051 H 953.141 -0.405394 3.21756 0
M  V30 10052 H 952.926 1.30267 3.69828 0
M  V30 10053 H 954.416 0.423828 4.15444 0
M  V30 10054 N 954.853 -1.17469 1.05066 0
M  V30 10055 C 956.264 -1.69334 0.786304 0
M  V30 10056 C 956.615 -1.83604 -0.691671 0
M  V30 10057 O 955.74 -1.52269 -1.53763 0
M  V30 10058 C 956.335 -3.07572 1.42074 0
M  V30 10059 C 954.894 -3.56609 1.20446 0
M  V30 10060 C 954.041 -2.329 1.50508 0
M  V30 10061 H 956.992 -1.02003 1.21577 0
M  V30 10062 H 957.013 -3.71352 0.829334 0
M  V30 10063 H 956.525 -2.97154 2.49642 0
M  V30 10064 H 954.626 -3.72306 0.147968 0
M  V30 10065 H 954.739 -4.39446 1.90852 0
M  V30 10066 H 953.103 -2.37305 0.925124 0
M  V30 10067 H 953.886 -2.25093 2.59207 0
M  V30 10068 N 956.331 -0.831506 -1.3388 0
M  V30 10069 C 957.263 -0.216908 -2.28171 0
M  V30 10070 C 958.276 0.598141 -1.51414 0
M  V30 10071 O 959.465 0.426416 -1.73332 0
M  V30 10072 C 956.565 0.713831 -3.31297 0
M  V30 10073 C 955.738 -0.0602673 -4.37358 0
M  V30 10074 C 954.797 0.792696 -5.20195 0
M  V30 10075 O 953.823 0.234564 -5.68716 0
M  V30 10076 N 955.025 2.11119 -5.40748 0
M  V30 10077 H 957.79 -1.02704 -2.81553 0
M  V30 10078 H 955.351 -0.689272 -1.46495 0
M  V30 10079 H 957.343 1.28925 -3.83615 0
M  V30 10080 H 955.913 1.42469 -2.78247 0
M  V30 10081 H 955.133 -0.817041 -3.8564 0
M  V30 10082 H 956.421 -0.592822 -5.05335 0
M  V30 10083 H 955.819 2.58828 -5.03016 0
M  V30 10084 H 954.376 2.63527 -5.96151 0
M  V30 10085 N 957.809 1.4625 -0.587256 0
M  V30 10086 C 958.719 2.34147 0.145744 0
M  V30 10087 C 959.735 1.50026 0.881376 0
M  V30 10088 O 960.911 1.82884 0.843539 0
M  V30 10089 C 957.976 3.27294 1.14366 0
M  V30 10090 C 957.037 4.27317 0.412199 0
M  V30 10091 C 956.27 5.16013 1.36257 0
M  V30 10092 O 956.493 5.0773 2.59934 0
M  V30 10093 O 955.427 5.95569 0.870681 0
M  V30 10094 H 959.253 2.98187 -0.576055 0
M  V30 10095 H 956.838 1.45299 -0.347628 0
M  V30 10096 H 958.72 3.84747 1.71894 0
M  V30 10097 H 957.395 2.65845 1.84684 0
M  V30 10098 H 956.302 3.73538 -0.205036 0
M  V30 10099 H 957.635 4.91564 -0.250104 0
M  V30 10100 N 959.287 0.325282 1.54207 0
M  V30 10101 C 960.235 -0.5554 2.25872 0
M  V30 10102 C 961.229 -1.11714 1.27344 0
M  V30 10103 O 962.435 -1.06498 1.45115 0
M  V30 10104 H 958.81 -0.19776 0.725531 0
M  V30 10105 H 960.781 0.0712858 2.98315 0
M  V30 10106 C 959.53 -1.70379 3.03095 0
M  V30 10107 H 958.853 -1.2808 3.78729 0
M  V30 10108 H 960.293 -2.29556 3.56483 0
M  V30 10109 C 958.752 -2.62242 2.11496 0
M  V30 10110 O 959.282 -3.64003 1.69895 0
M  V30 10111 N 957.488 -2.30515 1.7695 0
M  V30 10112 H 957.035 -1.47805 2.10978 0
M  V30 10113 H 956.993 -2.92241 1.15942 0
M  V30 10114 N 960.765 -1.57509 0.0534917 0
M  V30 10115 C 962.176 -1.80374 -0.481867 0
M  V30 10116 C 962.527 -0.965917 -1.70776 0
M  V30 10117 O 961.652 -0.183167 -2.15623 0
M  V30 10118 C 962.247 -3.27146 -0.880978 0
M  V30 10119 C 960.806 -3.50921 -1.3613 0
M  V30 10120 C 959.953 -2.75237 -0.337611 0
M  V30 10121 H 962.904 -1.56222 0.279353 0
M  V30 10122 H 962.925 -3.38193 -1.74373 0
M  V30 10123 H 962.437 -3.88098 0.011441 0
M  V30 10124 H 960.538 -2.95251 -2.27283 0
M  V30 10125 H 960.651 -4.59632 -1.35186 0
M  V30 10126 H 959.015 -2.41444 -0.810991 0
M  V30 10127 H 959.798 -3.38918 0.546763 0
M  V30 10128 N 962.243 0.219913 -1.56058 0
M  V30 10129 C 963.153 1.29349 -1.95719 0
M  V30 10130 C 964.169 1.5119 -0.861248 0
M  V30 10131 O 965.345 1.64289 -1.16495 0
M  V30 10132 C 962.41 2.6229 -2.26726 0
M  V30 10133 C 961.471 2.48738 -3.49897 0
M  V30 10134 C 960.704 3.75339 -3.79416 0
M  V30 10135 O 960.927 4.78427 -3.10586 0
M  V30 10136 O 959.861 3.72352 -4.72903 0
M  V30 10137 H 963.687 0.986979 -2.87215 0
M  V30 10138 H 961.272 0.42291 -1.43289 0
M  V30 10139 H 963.154 3.408 -2.47857 0
M  V30 10140 H 961.829 2.92619 -1.38404 0
M  V30 10141 H 960.736 1.68422 -3.34043 0
M  V30 10142 H 962.069 2.23347 -4.38608 0
M  V30 10143 N 963.721 1.49897 0.486681 0
M  V30 10144 C 964.969 1.59789 1.23742 0
M  V30 10145 C 965.29 0.293056 1.92785 0
M  V30 10146 O 964.56 -0.688534 1.83401 0
M  V30 10147 H 963.14 0.588775 0.459731 0
M  V30 10148 H 965.802 1.86597 0.562808 0
M  V30 10149 H 964.898 2.40121 1.9937 0
M  V30 10150 N 965.199 -0.738761 1.39212 0
M  V30 10151 C 966.429 -1.5258 1.39295 0
M  V30 10152 C 966.837 -1.89194 -0.0153 0
M  V30 10153 O 966.18 -1.5435 -0.996073 0
M  V30 10154 C 966.242 -2.84462 2.19822 0
M  V30 10155 C 965.906 -2.70303 3.68491 0
M  V30 10156 C 966.903 -2.39102 4.61656 0
M  V30 10157 C 964.588 -2.87291 4.1203 0
M  V30 10158 C 966.582 -2.25066 5.96342 0
M  V30 10159 C 964.269 -2.72874 5.46793 0
M  V30 10160 C 965.267 -2.41807 6.38763 0
M  V30 10161 O 964.955 -2.27475 7.71045 0
M  V30 10162 H 964.687 -0.478236 0.477772 0
M  V30 10163 H 967.241 -0.920846 1.83602 0
M  V30 10164 H 965.471 -3.47202 1.70257 0
M  V30 10165 H 967.16 -3.46058 2.12129 0
M  V30 10166 H 967.926 -2.25632 4.2932 0
M  V30 10167 H 963.805 -3.10466 3.40781 0
M  V30 10168 H 967.349 -2.00739 6.68094 0
M  V30 10169 H 963.246 -2.85922 5.78722 0
M  V30 10170 H 964.014 -2.42574 7.81729 0
M  V30 10171 N 966.677 -1.24326 -0.968545 0
M  V30 10172 C 967.954 -0.990459 -1.68669 0
M  V30 10173 C 968.334 0.487487 -2.05394 0
M  V30 10174 O 967.682 1.46158 -1.75642 0
M  V30 10175 C 967.892 -1.91251 -2.91931 0
M  V30 10176 C 969.24 -2.18291 -3.6419 0
M  V30 10177 O 970.264 -1.88897 -3.01987 0
M  V30 10178 O 969.123 -2.68204 -4.76161 0
M  V30 10179 H 966.217 -0.374515 -0.737338 0
M  V30 10180 H 968.763 -1.35421 -1.02271 0
M  V30 10181 H 967.535 -2.9111 -2.61478 0
M  V30 10182 H 967.158 -1.55188 -3.66064 0
M  V30 10183 N 968.156 1.1691 -1.05688 0
M  V30 10184 C 969.119 2.19297 -0.666433 0
M  V30 10185 C 970.119 1.5826 0.284674 0
M  V30 10186 O 971.309 1.74068 0.0678757 0
M  V30 10187 C 968.441 3.40894 0.0203656 0
M  V30 10188 H 969.634 2.55354 -1.57272 0
M  V30 10189 H 967.187 1.31078 -0.851359 0
M  V30 10190 H 967.922 3.10388 0.939686 0
M  V30 10191 H 967.707 3.86446 -0.663464 0
M  V30 10192 H 969.197 4.16664 0.279475 0
M  V30 10193 N 969.634 0.838594 1.33437 0
M  V30 10194 C 970.597 0.276843 2.27522 0
M  V30 10195 C 971.597 -0.554275 1.50945 0
M  V30 10196 O 972.787 -0.368107 1.70266 0
M  V30 10197 C 969.919 -0.610036 3.35397 0
M  V30 10198 H 971.112 1.10705 2.78719 0
M  V30 10199 H 968.665 0.611657 1.43835 0
M  V30 10200 H 969.4 -1.46269 2.89441 0
M  V30 10201 H 969.185 -0.0153615 3.92097 0
M  V30 10202 H 970.675 -0.996368 4.05539 0
M  V30 10203 N 971.112 -1.45937 0.595003 0
M  V30 10204 C 972.06 -2.32155 -0.143798 0
M  V30 10205 C 973.054 -1.45221 -0.872198 0
M  V30 10206 O 974.26 -1.61777 -0.789191 0
M  V30 10207 H 970.635 -0.749165 -0.0652377 0
M  V30 10208 H 972.606 -2.92264 0.602005 0
M  V30 10209 C 971.355 -3.28615 -1.13611 0
M  V30 10210 H 970.678 -3.95496 -0.585044 0
M  V30 10211 H 972.118 -3.91699 -1.62321 0
M  V30 10212 C 970.577 -2.54863 -2.20333 0
M  V30 10213 O 971.107 -2.32071 -3.27881 0
M  V30 10214 N 969.313 -2.15213 -1.95274 0
M  V30 10215 H 968.86 -2.33949 -1.07822 0
M  V30 10216 H 968.818 -1.66188 -2.66888 0
M  V30 10217 N 972.59 -0.333456 -1.54032 0
M  V30 10218 C 973.52 0.52051 -2.27625 0
M  V30 10219 C 974.501 1.1111 -1.28797 0
M  V30 10220 O 975.686 1.13438 -1.57625 0
M  V30 10221 C 972.816 1.67663 -3.04149 0
M  V30 10222 C 971.77 1.21487 -4.10396 0
M  V30 10223 C 971.096 2.45872 -4.74817 0
M  V30 10224 C 972.396 0.322603 -5.21303 0
M  V30 10225 H 974.09 -0.0933823 -2.99254 0
M  V30 10226 H 971.636 -0.0463526 -1.43925 0
M  V30 10227 H 973.589 2.28041 -3.54366 0
M  V30 10228 H 972.313 2.31727 -2.30153 0
M  V30 10229 H 970.972 0.633966 -3.61077 0
M  V30 10230 H 970.62 3.0832 -3.97426 0
M  V30 10231 H 970.32 2.15662 -5.46593 0
M  V30 10232 H 971.844 3.06994 -5.27814 0
M  V30 10233 H 973.258 0.832942 -5.67217 0
M  V30 10234 H 971.655 0.112843 -5.99994 0
M  V30 10235 H 972.725 -0.643954 -4.80605 0
M  V30 10236 N 974.068 1.57479 -0.061844 0
M  V30 10237 C 974.998 2.15181 0.9066 0
M  V30 10238 C 975.979 1.07624 1.31724 0
M  V30 10239 O 977.164 1.35614 1.39006 0
M  V30 10240 C 974.294 2.70542 2.17771 0
M  V30 10241 C 973.248 3.83178 1.9068 0
M  V30 10242 C 972.574 4.25099 3.24337 0
M  V30 10243 C 973.874 5.07853 1.21994 0
M  V30 10244 H 975.568 2.96355 0.42594 0
M  V30 10245 H 973.114 1.42556 0.203435 0
M  V30 10246 H 975.067 3.09552 2.85929 0
M  V30 10247 H 973.791 1.86575 2.68062 0
M  V30 10248 H 972.45 3.44656 1.24931 0
M  V30 10249 H 972.098 3.38069 3.72449 0
M  V30 10250 H 971.798 5.01021 3.07005 0
M  V30 10251 H 973.322 4.66718 3.93709 0
M  V30 10252 H 974.736 5.44242 1.80204 0
M  V30 10253 H 973.133 5.88987 1.14954 0
M  V30 10254 H 974.203 4.84497 0.197536 0
M  V30 10255 N 975.546 -0.211634 1.56173 0
M  V30 10256 C 976.493 -1.26231 1.93221 0
M  V30 10257 C 977.463 -1.46076 0.790641 0
M  V30 10258 O 978.648 -1.59482 1.04739 0
M  V30 10259 C 975.788 -2.60559 2.26281 0
M  V30 10260 C 974.901 -2.48431 3.5342 0
M  V30 10261 C 974.036 -3.7535 3.7588 0
M  V30 10262 C 973.075 -3.57985 4.96501 0
M  V30 10263 N 972.212 -4.76877 5.15299 0
M  V30 10264 H 977.052 -0.939367 2.82807 0
M  V30 10265 H 974.589 -0.452511 1.39967 0
M  V30 10266 H 976.547 -3.38796 2.43461 0
M  V30 10267 H 975.177 -2.9093 1.39855 0
M  V30 10268 H 974.229 -1.61577 3.44379 0
M  V30 10269 H 975.541 -2.31526 4.41811 0
M  V30 10270 H 974.695 -4.62029 3.9321 0
M  V30 10271 H 973.434 -3.95191 2.85788 0
M  V30 10272 H 972.439 -2.69691 4.79111 0
M  V30 10273 H 973.664 -3.39605 5.88086 0
M  V30 10274 H 971.61 -4.97013 4.28152 0
M  V30 10275 H 971.527 -4.62735 5.9784 0
M  V30 10276 H 972.795 -5.64954 5.37073 0
M  V30 10277 N 977.024 -1.50153 -0.478725 0
M  V30 10278 C 978.44 -1.3741 -0.811833 0
M  V30 10279 C 978.64 -0.424303 -1.96982 0
M  V30 10280 O 977.696 0.13588 -2.52134 0
M  V30 10281 C 979.009 -2.78616 -1.13108 0
M  V30 10282 C 980.557 -2.87477 -1.23798 0
M  V30 10283 C 981.032 -4.295 -1.5904 0
M  V30 10284 N 982.523 -4.32415 -1.66047 0
M  V30 10285 C 983.258 -5.39295 -1.94805 0
M  V30 10286 N 982.754 -6.56392 -2.21635 0
M  V30 10287 N 984.547 -5.26731 -1.96243 0
M  V30 10288 H 976.698 -2.10486 0.284531 0
M  V30 10289 H 978.961 -0.945786 0.0647585 0
M  V30 10290 H 978.667 -3.49921 -0.35334 0
M  V30 10291 H 978.541 -3.15382 -2.06915 0
M  V30 10292 H 980.928 -2.16396 -2.00641 0
M  V30 10293 H 981.009 -2.54264 -0.279888 0
M  V30 10294 H 980.653 -5.01115 -0.827404 0
M  V30 10295 H 980.583 -4.60194 -2.55987 0
M  V30 10296 H 983.074 -3.47975 -1.47383 0
M  V30 10297 H 983.387 -7.33658 -2.4283 0
M  V30 10298 H 981.732 -6.59579 -2.19043 0
M  V30 10299 H 984.923 -4.34249 -1.74773 0
M  V30 10300 H 985.096 -6.10115 -2.1832 0
M  V30 10301 N 978.502 0.731368 -1.39602 0
M  V30 10302 C 979.465 1.8271 -1.38383 0
M  V30 10303 C 980.465 1.58338 -0.280309 0
M  V30 10304 O 981.655 1.65671 -0.538402 0
M  V30 10305 C 978.787 3.20556 -1.16002 0
M  V30 10306 H 979.98 1.85193 -2.35889 0
M  V30 10307 H 977.533 0.935396 -1.2522 0
M  V30 10308 H 978.268 3.23732 -0.191927 0
M  V30 10309 H 978.053 3.39643 -1.9592 0
M  V30 10310 H 979.543 4.00612 -1.17899 0
M  V30 10311 N 979.98 1.24838 0.961938 0
M  V30 10312 C 981.228 1.08936 1.70227 0
M  V30 10313 C 981.549 -0.371582 1.91427 0
M  V30 10314 O 980.819 -1.26461 1.49614 0
M  V30 10315 H 979.399 0.400128 0.630799 0
M  V30 10316 H 982.061 1.56848 1.15692 0
M  V30 10317 H 981.157 1.59195 2.68446 0
M  V30 10318 N 981.458 -1.16348 1.06306 0
M  V30 10319 C 982.735 -1.829 0.69331 0
M  V30 10320 C 983.115 -1.94298 -0.82531 0
M  V30 10321 O 982.463 -1.48619 -1.73565 0
M  V30 10322 C 982.673 -3.1989 1.3954 0
M  V30 10323 C 984.021 -3.95662 1.54068 0
M  V30 10324 O 985.045 -3.29408 1.35532 0
M  V30 10325 O 983.904 -5.14422 1.84479 0
M  V30 10326 H 980.998 -0.789738 0.245445 0
M  V30 10327 H 983.544 -1.23549 1.16334 0
M  V30 10328 H 982.316 -3.06629 2.43093 0
M  V30 10329 H 981.939 -3.86918 0.915453 0
M  V30 10330 N 982.937 -0.845659 -1.3299 0
M  V30 10331 C 983.867 -0.298957 -2.31578 0
M  V30 10332 C 984.848 0.597012 -1.59279 0
M  V30 10333 O 986.033 0.519142 -1.87132 0
M  V30 10334 C 983.163 0.521109 -3.43368 0
M  V30 10335 C 982.117 -0.279651 -4.27085 0
M  V30 10336 C 981.443 0.664591 -5.30554 0
M  V30 10337 C 982.743 -1.50046 -5.00283 0
M  V30 10338 H 984.437 -1.12272 -2.77552 0
M  V30 10339 H 981.983 -0.54132 -1.33438 0
M  V30 10340 H 983.936 0.913921 -4.1137 0
M  V30 10341 H 982.66 1.37815 -2.96099 0
M  V30 10342 H 981.319 -0.654106 -3.60717 0
M  V30 10343 H 980.967 1.51822 -4.79541 0
M  V30 10344 H 980.667 0.132871 -5.8745 0
M  V30 10345 H 982.191 1.05477 -6.01421 0
M  V30 10346 H 983.605 -1.18044 -5.61016 0
M  V30 10347 H 982.002 -1.96946 -5.66862 0
M  V30 10348 H 983.072 -2.26659 -4.28665 0
M  V30 10349 N 984.415 1.45619 -0.602734 0
M  V30 10350 C 985.362 2.30493 0.118944 0
M  V30 10351 C 986.332 1.41816 0.864723 0
M  V30 10352 O 987.517 1.7075 0.851424 0
M  V30 10353 C 984.657 3.2664 1.11356 0
M  V30 10354 C 983.77 4.3042 0.369161 0
M  V30 10355 C 982.905 5.13678 1.35307 0
M  V30 10356 C 981.944 6.09189 0.596207 0
M  V30 10357 N 981.081 6.85245 1.52916 0
M  V30 10358 H 985.921 2.91672 -0.610836 0
M  V30 10359 H 983.458 1.43731 -0.313032 0
M  V30 10360 H 985.416 3.80846 1.7033 0
M  V30 10361 H 984.046 2.67225 1.81081 0
M  V30 10362 H 983.098 3.78913 -0.335994 0
M  V30 10363 H 984.41 4.98307 -0.221603 0
M  V30 10364 H 983.564 5.7226 2.01502 0
M  V30 10365 H 982.303 4.45798 1.97777 0
M  V30 10366 H 981.308 5.49743 -0.0793984 0
M  V30 10367 H 982.533 6.79096 -0.0233734 0
M  V30 10368 H 980.479 6.20058 2.14159 0
M  V30 10369 H 980.396 7.49467 0.991713 0
M  V30 10370 H 981.664 7.48371 2.18083 0
M  V30 10371 N 985.893 0.34162 1.53853 0
M  V30 10372 C 987.141 -0.254979 2.00485 0
M  V30 10373 C 987.462 -1.51222 1.23114 0
M  V30 10374 O 986.732 -1.92966 0.337787 0
M  V30 10375 H 985.312 -0.0972084 0.740648 0
M  V30 10376 H 987.974 0.462332 1.89337 0
M  V30 10377 H 987.07 -0.498778 3.08089 0
M  V30 10378 N 987.371 -1.57444 0.0701946 0
M  V30 10379 C 988.787 -1.57009 -0.286431 0
M  V30 10380 C 988.987 -1.07946 -1.70147 0
M  V30 10381 O 988.043 -0.744622 -2.41271 0
M  V30 10382 C 989.356 -3.00542 -0.0975466 0
M  V30 10383 C 990.904 -3.12553 -0.167205 0
M  V30 10384 C 991.379 -4.58 -0.00662047 0
M  V30 10385 N 992.87 -4.63158 -0.0622778 0
M  V30 10386 C 993.605 -5.73388 0.0375831 0
M  V30 10387 N 993.101 -6.92537 0.190873 0
M  V30 10388 N 994.894 -5.62097 -0.0193672 0
M  V30 10389 H 987.045 -1.87651 0.995023 0
M  V30 10390 H 989.308 -0.865006 0.387902 0
M  V30 10391 H 989.014 -3.40543 0.878822 0
M  V30 10392 H 988.888 -3.67485 -0.850547 0
M  V30 10393 H 991.275 -2.72439 -1.13406 0
M  V30 10394 H 991.356 -2.48251 0.616871 0
M  V30 10395 H 991 -4.98803 0.956992 0
M  V30 10396 H 990.93 -5.20332 -0.810081 0
M  V30 10397 H 993.421 -3.77475 -0.179229 0
M  V30 10398 H 993.734 -7.72365 0.25926 0
M  V30 10399 H 992.079 -6.94632 0.226214 0
M  V30 10400 H 995.27 -4.67897 -0.137815 0
M  V30 10401 H 995.443 -6.4797 0.0619121 0
M  V30 10402 N 988.849 0.203349 -1.56283 0
M  V30 10403 C 989.779 1.2549 -1.96912 0
M  V30 10404 C 990.76 1.47919 -0.839884 0
M  V30 10405 O 991.945 1.59795 -1.10359 0
M  V30 10406 C 989.075 2.6009 -2.30153 0
M  V30 10407 C 988.029 2.52289 -3.45738 0
M  V30 10408 C 987.355 3.91086 -3.64632 0
M  V30 10409 C 988.655 2.05503 -4.80173 0
M  V30 10410 H 990.349 0.917306 -2.85002 0
M  V30 10411 H 987.895 0.439818 -1.37119 0
M  V30 10412 H 989.848 3.33829 -2.5717 0
M  V30 10413 H 988.572 2.95574 -1.38937 0
M  V30 10414 H 987.231 1.81006 -3.18798 0
M  V30 10415 H 986.879 4.23908 -2.7076 0
M  V30 10416 H 986.579 3.86742 -4.42385 0
M  V30 10417 H 988.103 4.66459 -3.94016 0
M  V30 10418 H 989.517 2.68995 -5.06275 0
M  V30 10419 H 987.914 2.1218 -5.61337 0
M  V30 10420 H 988.984 1.00793 -4.74309 0
M  V30 10421 N 990.327 1.50405 0.470755 0
M  V30 10422 C 991.26 1.63933 1.58749 0
M  V30 10423 C 992.238 0.487444 1.55122 0
M  V30 10424 O 993.422 0.706992 1.74739 0
M  V30 10425 C 990.549 1.62222 2.97324 0
M  V30 10426 C 989.595 2.82975 3.19104 0
M  V30 10427 S 990.428 4.44272 2.98969 0
M  V30 10428 C 991.584 4.45254 4.39886 0
M  V30 10429 H 991.817 2.58396 1.47034 0
M  V30 10430 H 989.35 1.39672 0.658115 0
M  V30 10431 H 991.308 1.6192 3.77217 0
M  V30 10432 H 989.969 0.689944 3.06429 0
M  V30 10433 H 989.162 2.78083 4.2034 0
M  V30 10434 H 988.764 2.80846 2.46984 0
M  V30 10435 H 991.056 4.18837 5.32524 0
M  V30 10436 H 991.999 5.4687 4.49821 0
M  V30 10437 H 992.407 3.74958 4.2198 0
M  V30 10438 N 991.805 -0.723954 1.39988 0
M  V30 10439 C 992.735 -1.85103 1.42335 0
M  V30 10440 C 993.716 -1.6769 0.285297 0
M  V30 10441 O 994.901 -1.87846 0.492716 0
M  V30 10442 C 992.031 -3.22972 1.27697 0
M  V30 10443 C 990.985 -3.55041 2.39018 0
M  V30 10444 C 990.311 -4.91965 2.09462 0
M  V30 10445 C 991.611 -3.56889 3.8135 0
M  V30 10446 H 993.305 -1.83396 2.36656 0
M  V30 10447 H 990.851 -0.880926 1.13911 0
M  V30 10448 H 992.804 -4.01503 1.27958 0
M  V30 10449 H 991.528 -3.25233 0.298487 0
M  V30 10450 H 990.187 -2.78845 2.37993 0
M  V30 10451 H 989.835 -4.90819 1.10025 0
M  V30 10452 H 989.535 -5.14389 2.84038 0
M  V30 10453 H 991.059 -5.7284 2.11391 0
M  V30 10454 H 992.473 -4.25476 3.84243 0
M  V30 10455 H 990.87 -3.90836 4.55376 0
M  V30 10456 H 991.94 -2.56452 4.11534 0
M  V30 10457 N 993.283 -1.25346 -0.955304 0
M  V30 10458 C 994.532 -1.0945 -1.69421 0
M  V30 10459 C 994.845 0.364459 -1.92175 0
M  V30 10460 O 996.051 0.643843 -2.63755 0
M  V30 10461 C 994.507 -1.91045 -3.05008 0
M  V30 10462 C 994.115 -3.41428 -2.90053 0
M  V30 10463 C 995.859 -1.83716 -3.82686 0
M  V30 10464 C 993.766 -4.1532 -4.21026 0
M  V30 10465 H 992.696 -0.405978 -0.635372 0
M  V30 10466 H 995.347 -1.49536 -1.06354 0
M  V30 10467 H 993.729 -1.43781 -3.68975 0
M  V30 10468 H 994.903 -3.9636 -2.35022 0
M  V30 10469 H 993.218 -3.49842 -2.25831 0
M  V30 10470 H 995.815 -2.36217 -4.79693 0
M  V30 10471 H 996.158 -0.804919 -4.08444 0
M  V30 10472 H 996.691 -2.28726 -3.25468 0
M  V30 10473 H 993.43 -5.18955 -4.00457 0
M  V30 10474 H 992.95 -3.65172 -4.75825 0
M  V30 10475 H 994.629 -4.22999 -4.89572 0
M  V30 10476 N 994.761 1.15782 -1.06922 0
M  V30 10477 C 995.711 2.18373 -0.655537 0
M  V30 10478 C 996.695 1.57745 0.317084 0
M  V30 10479 O 997.887 1.76511 0.131509 0
M  V30 10480 C 995.016 3.43263 -0.0502314 0
M  V30 10481 C 994.102 4.10954 -1.04773 0
M  V30 10482 N 994.493 4.542 -2.22567 0
M  V30 10483 C 992.791 4.3723 -0.880087 0
M  V30 10484 C 993.492 5.06641 -2.85815 0
M  V30 10485 N 992.468 4.99917 -2.13505 0
M  V30 10486 H 996.27 2.49533 -1.55276 0
M  V30 10487 H 993.784 1.32303 -0.941793 0
M  V30 10488 H 995.781 4.16063 0.264003 0
M  V30 10489 H 994.441 3.13588 0.842167 0
M  V30 10490 H 995.452 4.47727 -2.60309 0
M  V30 10491 H 992.129 4.17481 -0.0402148 0
M  V30 10492 H 993.519 5.50092 -3.85808 0
M  V30 10493 N 996.239 0.8527 1.3254 0
M  V30 10494 C 997.487 0.454224 1.96929 0
M  V30 10495 C 997.808 -0.993034 1.67821 0
M  V30 10496 O 997.078 -1.69371 0.984393 0
M  V30 10497 H 995.658 0.164977 0.728554 0
M  V30 10498 H 998.32 1.0887 1.61658 0
M  V30 10499 H 997.416 0.597667 3.06324 0
M  V30 10500 N 997.718 -1.45297 0.610449 0
M  V30 10501 C 998.681 -2.28995 -0.0968194 0
M  V30 10502 C 999.681 -1.39923 -0.792353 0
M  V30 10503 O 1000.87 -1.62014 -0.64008 0
M  V30 10504 C 998.003 -3.21013 -1.14731 0
M  V30 10505 H 999.196 -2.93012 0.639082 0
M  V30 10506 H 996.749 -1.51867 0.369624 0
M  V30 10507 H 997.484 -2.61803 -1.91388 0
M  V30 10508 H 997.269 -3.86628 -0.652753 0
M  V30 10509 H 998.759 -3.8394 -1.64256 0
M  V30 10510 N 999.196 -0.349774 -1.5367 0
M  V30 10511 C 1000.44 0.245862 -2.00196 0
M  V30 10512 C 1000.76 1.51154 -1.24144 0
M  V30 10513 O 1001.96 2.18481 -1.61178 0
M  V30 10514 C 1000.42 0.488665 -3.56567 0
M  V30 10515 C 1000.03 -0.761475 -4.41481 0
M  V30 10516 C 1001.77 1.04282 -4.11492 0
M  V30 10517 C 999.679 -0.489128 -5.89374 0
M  V30 10518 H 998.609 0.0956493 -0.747909 0
M  V30 10519 H 1001.26 -0.466068 -1.77483 0
M  V30 10520 H 999.642 1.26145 -3.75371 0
M  V30 10521 H 1000.82 -1.53585 -4.34452 0
M  V30 10522 H 999.131 -1.23771 -3.9758 0
M  V30 10523 H 1001.73 1.26164 -5.19603 0
M  V30 10524 H 1002.07 2.00023 -3.65098 0
M  V30 10525 H 1002.6 0.330582 -3.96424 0
M  V30 10526 H 999.343 -1.41643 -6.40014 0
M  V30 10527 H 998.863 0.247039 -5.99291 0
M  V30 10528 H 1000.54 -0.1087 -6.46909 0
M  V30 10529 N 1000.67 1.57404 -0.0785433 0
M  V30 10530 C 1001.95 1.85163 0.630389 0
M  V30 10531 C 1002.33 0.972295 1.87376 0
M  V30 10532 O 1001.68 0.0403375 2.28464 0
M  V30 10533 C 1001.89 3.35491 0.961604 0
M  V30 10534 C 1003.24 4.0316 1.33219 0
M  V30 10535 O 1004.26 3.40276 1.05313 0
M  V30 10536 O 1003.12 5.14086 1.85412 0
M  V30 10537 H 1000.21 0.765169 0.31376 0
M  V30 10538 H 1002.76 1.69343 -0.109986 0
M  V30 10539 H 1001.53 3.91221 0.0788113 0
M  V30 10540 H 1001.15 3.56598 1.75852 0
M  V30 10541 N 1002.15 -0.195058 1.56388 0
M  V30 10542 C 1003.56 -0.75973 1.70543 0
M  V30 10543 C 1003.91 -1.83849 0.685118 0
M  V30 10544 O 1003.04 -2.15819 -0.158457 0
M  V30 10545 C 1003.63 -1.38485 3.09204 0
M  V30 10546 C 1002.19 -1.89661 3.25124 0
M  V30 10547 C 1001.34 -0.766563 2.66494 0
M  V30 10548 H 1004.29 0.0300148 1.58672 0
M  V30 10549 H 1004.31 -2.25424 3.06536 0
M  V30 10550 H 1003.82 -0.599479 3.83442 0
M  V30 10551 H 1001.92 -2.70917 2.55802 0
M  V30 10552 H 1002.04 -2.05837 4.32629 0
M  V30 10553 H 1000.4 -1.18086 2.25672 0
M  V30 10554 H 1001.18 0.00657102 3.43299 0
M  V30 10555 N 1003.63 -1.50653 -0.462772 0
M  V30 10556 C 1004.88 -1.62297 -1.21603 0
M  V30 10557 C 1005.21 -0.326191 -1.91441 0
M  V30 10558 O 1004.48 0.67284 -1.82491 0
M  V30 10559 C 1004.77 -2.80901 -2.25315 0
M  V30 10560 C 1004.62 -4.20484 -1.59728 0
M  V30 10561 C 1005.94 -2.95049 -3.26549 0
M  V30 10562 H 1003.06 -0.590691 -0.440741 0
M  V30 10563 H 1005.7 -1.83064 -0.508675 0
M  V30 10564 H 1003.85 -2.63325 -2.85643 0
M  V30 10565 H 1005.52 -4.49669 -1.02932 0
M  V30 10566 H 1003.76 -4.24357 -0.900181 0
M  V30 10567 H 1004.44 -4.99416 -2.35133 0
M  V30 10568 H 1006.91 -3.11166 -2.76251 0
M  V30 10569 H 1005.79 -3.79645 -3.96435 0
M  V30 10570 H 1006.05 -2.06019 -3.91163 0
M  V30 10571 N 1005.11 0.71652 -1.4037 0
M  V30 10572 C 1006.35 1.47857 -1.38803 0
M  V30 10573 C 1006.69 1.94197 0.0100536 0
M  V30 10574 O 1005.96 1.68093 0.978521 0
M  V30 10575 C 1006.25 2.7053 -2.37667 0
M  V30 10576 C 1006.1 2.3009 -3.86496 0
M  V30 10577 C 1007.42 3.72684 -2.34082 0
M  V30 10578 H 1004.54 0.53632 -0.505499 0
M  V30 10579 H 1007.18 0.817824 -1.71498 0
M  V30 10580 H 1005.33 3.26906 -2.09916 0
M  V30 10581 H 1007 1.79202 -4.2507 0
M  V30 10582 H 1005.24 1.62102 -4.02375 0
M  V30 10583 H 1005.91 3.18018 -4.51186 0
M  V30 10584 H 1008.39 3.25935 -2.58661 0
M  V30 10585 H 1007.27 4.56157 -3.05306 0
M  V30 10586 H 1007.53 4.20916 -1.35213 0
M  V30 10587 N 1006.59 1.25851 0.948643 0
M  V30 10588 C 1007.83 1.11119 1.69648 0
M  V30 10589 C 1008.17 -0.345995 1.91093 0
M  V30 10590 O 1007.44 -1.25467 1.48621 0
M  V30 10591 C 1007.72 1.87261 3.0758 0
M  V30 10592 C 1007.58 3.40842 2.93507 0
M  V30 10593 C 1008.9 1.6605 4.07573 0
M  V30 10594 H 1006.01 0.405052 0.615713 0
M  V30 10595 H 1008.66 1.54756 1.10229 0
M  V30 10596 H 1006.81 1.50172 3.58303 0
M  V30 10597 H 1008.48 3.87641 2.50064 0
M  V30 10598 H 1006.72 3.68248 2.29294 0
M  V30 10599 H 1007.39 3.89339 3.91305 0
M  V30 10600 H 1009.87 1.98348 3.65783 0
M  V30 10601 H 1008.74 2.21753 5.02113 0
M  V30 10602 H 1009.01 0.603256 4.37965 0
M  V30 10603 N 1008.06 -1.15214 1.07534 0
M  V30 10604 C 1009.31 -1.86548 0.810651 0
M  V30 10605 C 1009.67 -1.80863 -0.656236 0
M  V30 10606 O 1008.96 -1.22216 -1.47559 0
M  V30 10607 C 1009.15 -3.34623 1.25547 0
M  V30 10608 C 1008.98 -3.54725 2.76406 0
M  V30 10609 C 1007.75 -3.70089 3.44038 0
M  V30 10610 C 1009.95 -3.52392 3.74599 0
M  V30 10611 N 1007.93 -3.78262 4.8352 0
M  V30 10612 C 1009.3 -3.66701 4.9993 0
M  V30 10613 C 1011.36 -3.35677 3.6773 0
M  V30 10614 C 1010.06 -3.66023 6.19209 0
M  V30 10615 C 1012.09 -3.36298 4.86475 0
M  V30 10616 C 1011.45 -3.51139 6.1064 0
M  V30 10617 H 1007.55 -0.699691 0.349223 0
M  V30 10618 H 1010.13 -1.3815 1.37196 0
M  V30 10619 H 1008.3 -3.81633 0.721837 0
M  V30 10620 H 1010.03 -3.93677 0.938126 0
M  V30 10621 H 1006.79 -3.70943 2.94446 0
M  V30 10622 H 1007.21 -3.86087 5.56117 0
M  V30 10623 H 1011.86 -3.2312 2.72678 0
M  V30 10624 H 1009.57 -3.77358 7.14581 0
M  V30 10625 H 1013.16 -3.2459 4.82838 0
M  V30 10626 H 1012.04 -3.51555 7.00984 0
M  V30 10627 N 1009.54 -0.859717 -1.32086 0
M  V30 10628 C 1010.47 -0.265258 -2.2766 0
M  V30 10629 C 1011.49 0.565889 -1.52648 0
M  V30 10630 O 1012.68 0.389554 -1.74197 0
M  V30 10631 C 1009.78 0.643397 -3.32737 0
M  V30 10632 C 1008.95 -0.153024 -4.37132 0
M  V30 10633 C 1008.01 0.682176 -5.21759 0
M  V30 10634 O 1007.03 0.113878 -5.69086 0
M  V30 10635 N 1008.24 1.99602 -5.45105 0
M  V30 10636 H 1011 -1.08653 -2.79311 0
M  V30 10637 H 1008.56 -0.720191 -1.45 0
M  V30 10638 H 1010.55 1.20759 -3.86263 0
M  V30 10639 H 1009.12 1.36535 -2.81206 0
M  V30 10640 H 1008.34 -0.898657 -3.8382 0
M  V30 10641 H 1009.63 -0.699877 -5.03963 0
M  V30 10642 H 1009.03 2.481 -5.08393 0
M  V30 10643 H 1007.59 2.50823 -6.01607 0
M  V30 10644 N 1011.02 1.44971 -0.618145 0
M  V30 10645 C 1011.97 2.27704 0.116119 0
M  V30 10646 C 1012.95 1.37927 0.828558 0
M  V30 10647 O 1014.15 1.61836 0.716806 0
M  V30 10648 C 1011.28 3.25004 1.10578 0
M  V30 10649 C 1010.36 4.22269 0.39364 0
M  V30 10650 N 1010.75 5.02571 -0.570581 0
M  V30 10651 C 1009.05 4.41387 0.639809 0
M  V30 10652 C 1009.75 5.73211 -0.990144 0
M  V30 10653 N 1008.73 5.42587 -0.331653 0
M  V30 10654 H 1012.53 2.87193 -0.624295 0
M  V30 10655 H 1010.04 1.56252 -0.442631 0
M  V30 10656 H 1012.04 3.83017 1.64631 0
M  V30 10657 H 1010.7 2.67075 1.84664 0
M  V30 10658 H 1011.71 5.09153 -0.947814 0
M  V30 10659 H 1008.39 3.94572 1.36453 0
M  V30 10660 H 1009.78 6.47728 -1.78601 0
M  V30 10661 N 1012.5 0.357919 1.53482 0
M  V30 10662 C 1013.72 -0.237769 2.06033 0
M  V30 10663 C 1014.15 -1.42292 1.23023 0
M  V30 10664 O 1013.51 -1.79604 0.247427 0
M  V30 10665 C 1013.55 -0.616806 3.55286 0
M  V30 10666 O 1012.66 -1.71503 3.75047 0
M  V30 10667 H 1012 -0.0364322 0.663 0
M  V30 10668 H 1014.53 0.516301 1.97979 0
M  V30 10669 H 1014.54 -0.88996 3.98175 0
M  V30 10670 H 1013.21 0.249825 4.15149 0
M  V30 10671 H 1011.79 -1.43803 3.44057 0
M  V30 10672 N 1013.98 -1.5736 0.0868897 0
M  V30 10673 C 1014.91 -2.16596 -0.872252 0
M  V30 10674 C 1015.89 -1.09706 -1.29995 0
M  V30 10675 O 1017.07 -1.37808 -1.36831 0
M  V30 10676 C 1014.2 -2.73972 -2.1344 0
M  V30 10677 C 1013.16 -3.86163 -1.8456 0
M  V30 10678 C 1012.48 -4.30206 -3.17533 0
M  V30 10679 C 1013.78 -5.0973 -1.13899 0
M  V30 10680 H 1015.48 -2.96995 -0.378738 0
M  V30 10681 H 1013.02 -1.42861 -0.18073 0
M  V30 10682 H 1014.98 -3.14062 -2.80968 0
M  V30 10683 H 1013.7 -1.90817 -2.6506 0
M  V30 10684 H 1012.36 -3.466 -1.19432 0
M  V30 10685 H 1012.01 -3.43951 -3.67024 0
M  V30 10686 H 1011.71 -5.05841 -2.98996 0
M  V30 10687 H 1013.23 -4.72922 -3.86234 0
M  V30 10688 H 1014.64 -5.4704 -1.71523 0
M  V30 10689 H 1013.04 -5.90741 -1.05569 0
M  V30 10690 H 1014.11 -4.8475 -0.120432 0
M  V30 10691 N 1015.45 0.186762 -1.56489 0
M  V30 10692 C 1016.38 1.23395 -1.98232 0
M  V30 10693 C 1017.37 1.4702 -0.855526 0
M  V30 10694 O 1018.55 1.58616 -1.12048 0
M  V30 10695 C 1015.68 2.57635 -2.32898 0
M  V30 10696 C 1014.63 2.48607 -3.48394 0
M  V30 10697 C 1013.96 3.87196 -3.68759 0
M  V30 10698 C 1015.26 2.00398 -4.82325 0
M  V30 10699 H 1016.95 0.887026 -2.85958 0
M  V30 10700 H 1014.5 0.42525 -1.37578 0
M  V30 10701 H 1016.45 3.31082 -2.60696 0
M  V30 10702 H 1015.18 2.94084 -1.42064 0
M  V30 10703 H 1013.84 1.77615 -3.207 0
M  V30 10704 H 1013.48 4.21012 -2.75241 0
M  V30 10705 H 1013.18 3.82029 -4.46462 0
M  V30 10706 H 1014.71 4.62253 -3.98941 0
M  V30 10707 H 1016.12 2.6361 -5.091 0
M  V30 10708 H 1014.52 2.06214 -5.63556 0
M  V30 10709 H 1015.59 0.957562 -4.75351 0
M  V30 10710 N 1016.93 1.50896 0.454776 0
M  V30 10711 C 1018.18 1.62699 1.20562 0
M  V30 10712 C 1018.51 0.334943 1.91594 0
M  V30 10713 O 1017.76 -0.680106 1.83502 0
M  V30 10714 C 1018.06 2.76839 2.26042 0
M  V30 10715 C 1017.73 4.16745 1.72147 0
M  V30 10716 C 1016.39 4.54809 1.5717 0
M  V30 10717 C 1018.74 5.04118 1.32341 0
M  V30 10718 C 1016.07 5.7797 1.00835 0
M  V30 10719 C 1018.42 6.27842 0.774419 0
M  V30 10720 C 1017.09 6.64694 0.611415 0
M  V30 10721 H 1016.36 0.595358 0.441169 0
M  V30 10722 H 1019 1.84879 0.499202 0
M  V30 10723 H 1017.31 2.48812 3.02655 0
M  V30 10724 H 1019 2.83173 2.83926 0
M  V30 10725 H 1015.59 3.86725 1.84775 0
M  V30 10726 H 1019.78 4.75331 1.42739 0
M  V30 10727 H 1015.03 6.05183 0.869669 0
M  V30 10728 H 1019.21 6.94896 0.457389 0
M  V30 10729 H 1016.84 7.60004 0.172751 0
M  V30 10730 N 1018.41 -0.709066 1.40748 0
M  V30 10731 C 1019.34 -1.83583 1.4429 0
M  V30 10732 C 1020.32 -1.67378 0.303067 0
M  V30 10733 O 1021.51 -1.87312 0.512612 0
M  V30 10734 C 1018.64 -3.21599 1.31116 0
M  V30 10735 C 1017.59 -3.52486 2.4277 0
M  V30 10736 C 1016.92 -4.89716 2.14668 0
M  V30 10737 C 1018.22 -3.52824 3.85113 0
M  V30 10738 H 1019.91 -1.80876 2.38588 0
M  V30 10739 H 1017.46 -0.868795 1.14839 0
M  V30 10740 H 1019.41 -4.00123 1.32209 0
M  V30 10741 H 1018.13 -3.24898 0.332965 0
M  V30 10742 H 1016.79 -2.76305 2.40937 0
M  V30 10743 H 1016.44 -4.89625 1.15224 0
M  V30 10744 H 1016.14 -5.11347 2.89478 0
M  V30 10745 H 1017.66 -5.70566 2.17455 0
M  V30 10746 H 1019.08 -4.21377 3.88734 0
M  V30 10747 H 1017.48 -3.85984 4.59496 0
M  V30 10748 H 1018.55 -2.52073 4.14231 0
M  V30 10749 N 1019.89 -1.26353 -0.941956 0
M  V30 10750 C 1021.17 -1.02601 -1.6653 0
M  V30 10751 C 1021.55 0.44381 -2.06382 0
M  V30 10752 O 1020.89 1.42399 -1.78703 0
M  V30 10753 C 1021.1 -1.97401 -2.87809 0
M  V30 10754 C 1022.45 -2.25967 -3.59478 0
M  V30 10755 O 1023.48 -1.95261 -2.97912 0
M  V30 10756 O 1022.34 -2.78244 -4.70364 0
M  V30 10757 H 1019.43 -0.39007 -0.729228 0
M  V30 10758 H 1021.98 -1.37559 -0.993754 0
M  V30 10759 H 1020.75 -2.9659 -2.55245 0
M  V30 10760 H 1020.37 -1.62918 -3.62689 0
M  V30 10761 N 1021.37 1.14642 -1.08144 0
M  V30 10762 C 1022.33 2.17834 -0.712799 0
M  V30 10763 C 1023.33 1.58828 0.251041 0
M  V30 10764 O 1024.52 1.74173 0.0309381 0
M  V30 10765 C 1021.65 3.4086 -0.0519477 0
M  V30 10766 H 1022.85 2.51961 -1.62653 0
M  V30 10767 H 1020.4 1.29243 -0.878971 0
M  V30 10768 H 1021.13 3.12311 0.873636 0
M  V30 10769 H 1020.92 3.84952 -0.745286 0
M  V30 10770 H 1022.41 4.17163 0.191031 0
M  V30 10771 N 1022.85 0.866709 1.31628 0
M  V30 10772 C 1024.09 0.482479 1.98624 0
M  V30 10773 C 1024.45 -0.946844 1.6703 0
M  V30 10774 O 1025.65 -1.43626 2.27212 0
M  V30 10775 C 1023.92 0.728582 3.49895 0
M  V30 10776 S 1025.48 0.443724 4.36551 0
M  V30 10777 H 1022.3 0.180238 0.687776 0
M  V30 10778 H 1024.9 1.12203 1.60096 0
M  V30 10779 H 1023.6 1.76769 3.70379 0
M  V30 10780 H 1023.14 0.075903 3.93327 0
M  V30 10781 H 1025.15 -0.72534 4.9087 0
M  V30 10782 N 1024.32 -1.44642 0.625825 0
M  V30 10783 C 1025.57 -2.02393 0.128391 0
M  V30 10784 C 1025.9 -1.49075 -1.2446 0
M  V30 10785 O 1025.18 -0.672684 -1.82497 0
M  V30 10786 C 1025.46 -3.59934 0.109279 0
M  V30 10787 C 1025.31 -4.23546 1.51423 0
M  V30 10788 C 1026.63 -4.36406 -0.568985 0
M  V30 10789 H 1023.75 -0.735427 0.0481299 0
M  V30 10790 H 1026.39 -1.72277 0.801286 0
M  V30 10791 H 1024.54 -3.85722 -0.463726 0
M  V30 10792 H 1026.22 -4.08882 2.13572 0
M  V30 10793 H 1024.46 -3.81245 2.06966 0
M  V30 10794 H 1025.13 -5.32535 1.45294 0
M  V30 10795 H 1027.61 -4.1602 -0.0817516 0
M  V30 10796 H 1026.48 -5.46122 -0.551527 0
M  V30 10797 H 1026.74 -4.1062 -1.6384 0
M  V30 10798 N 1025.8 -0.366053 -1.5329 0
M  V30 10799 C 1026.75 0.480205 -2.25749 0
M  V30 10800 C 1027.72 1.07713 -1.2644 0
M  V30 10801 O 1028.9 1.10953 -1.55222 0
M  V30 10802 C 1026.04 1.61374 -3.05045 0
M  V30 10803 C 1025.16 1.04194 -4.19246 0
M  V30 10804 C 1024.29 2.14462 -4.85983 0
M  V30 10805 C 1023.33 1.5475 -5.92215 0
M  V30 10806 N 1022.47 2.58852 -6.52641 0
M  V30 10807 H 1027.31 -0.144199 -2.97651 0
M  V30 10808 H 1024.84 -0.0829321 -1.46866 0
M  V30 10809 H 1026.8 2.28144 -3.49294 0
M  V30 10810 H 1025.43 2.2088 -2.35397 0
M  V30 10811 H 1024.48 0.264514 -3.79479 0
M  V30 10812 H 1025.8 0.565379 -4.95585 0
M  V30 10813 H 1024.95 2.89051 -5.33418 0
M  V30 10814 H 1023.69 2.6547 -4.09117 0
M  V30 10815 H 1022.69 0.786759 -5.44142 0
M  V30 10816 H 1023.92 1.04566 -6.71001 0
M  V30 10817 H 1021.87 3.09073 -5.78627 0
M  V30 10818 H 1021.78 2.15884 -7.24521 0
M  V30 10819 H 1023.05 3.33142 -7.04724 0
M  V30 10820 N 1027.28 1.57312 -0.0952337 0
M  V30 10821 C 1028.24 2.12889 0.849161 0
M  V30 10822 C 1029.24 1.05819 1.21075 0
M  V30 10823 O 1030.43 1.31704 1.14016 0
M  V30 10824 C 1027.56 2.6496 2.14498 0
M  V30 10825 H 1028.76 2.97651 0.366566 0
M  V30 10826 H 1026.31 1.55542 0.153762 0
M  V30 10827 H 1027.05 1.83718 2.67242 0
M  V30 10828 H 1026.83 3.43244 1.89542 0
M  V30 10829 H 1028.32 3.07952 2.82056 0
M  V30 10830 N 1028.76 -0.17846 1.56586 0
M  V30 10831 C 1030.17 -0.529957 1.50544 0
M  V30 10832 C 1030.37 -1.85015 0.798237 0
M  V30 10833 O 1029.43 -2.49983 0.355639 0
M  V30 10834 C 1030.74 -0.569314 2.95261 0
M  V30 10835 C 1032.29 -0.657008 3.06027 0
M  V30 10836 C 1032.77 -0.727323 4.52188 0
M  V30 10837 N 1034.26 -0.790406 4.56406 0
M  V30 10838 C 1034.99 -0.865265 5.66834 0
M  V30 10839 N 1034.49 -0.901398 6.86911 0
M  V30 10840 N 1036.28 -0.903736 5.54787 0
M  V30 10841 H 1028.43 0.687304 2.00972 0
M  V30 10842 H 1030.69 0.246936 0.915274 0
M  V30 10843 H 1030.4 0.331934 3.5013 0
M  V30 10844 H 1030.27 -1.41828 3.4952 0
M  V30 10845 H 1032.66 -1.54868 2.51197 0
M  V30 10846 H 1032.74 0.218495 2.54865 0
M  V30 10847 H 1032.39 0.160067 5.07648 0
M  V30 10848 H 1032.32 -1.61887 5.01099 0
M  V30 10849 H 1034.81 -0.771054 3.6995 0
M  V30 10850 H 1035.12 -0.959494 7.6682 0
M  V30 10851 H 1033.47 -0.869795 6.89536 0
M  V30 10852 H 1036.66 -0.872459 4.59898 0
M  V30 10853 H 1036.83 -0.958615 6.4087 0
M  V30 10854 N 1030.24 -1.51135 -0.446768 0
M  V30 10855 C 1031.46 -1.67129 -1.21965 0
M  V30 10856 C 1031.88 -0.36467 -1.85245 0
M  V30 10857 O 1031.24 0.655908 -1.70306 0
M  V30 10858 C 1031.29 -2.78016 -2.31061 0
M  V30 10859 O 1031.01 -4.03615 -1.70371 0
M  V30 10860 C 1032.51 -3.05197 -3.21511 0
M  V30 10861 H 1029.73 -0.561111 -0.367961 0
M  V30 10862 H 1032.27 -1.97499 -0.530517 0
M  V30 10863 H 1030.43 -2.50272 -2.95707 0
M  V30 10864 H 1030.84 -4.65126 -2.424 0
M  V30 10865 H 1032.32 -3.8639 -3.94216 0
M  V30 10866 H 1032.79 -2.17228 -3.81718 0
M  V30 10867 H 1033.4 -3.34565 -2.62577 0
M  V30 10868 N 1031.71 0.701592 -1.41122 0
M  V30 10869 C 1032.94 1.48833 -1.43291 0
M  V30 10870 C 1033.35 1.89168 -0.0348668 0
M  V30 10871 O 1032.69 1.56937 0.9548 0
M  V30 10872 C 1032.76 2.78533 -2.27287 0
M  V30 10873 C 1032.42 2.60438 -3.75528 0
M  V30 10874 C 1033.42 2.26778 -4.67833 0
M  V30 10875 C 1031.1 2.76266 -4.19503 0
M  V30 10876 C 1033.1 2.09176 -6.021 0
M  V30 10877 C 1030.78 2.58281 -5.53836 0
M  V30 10878 C 1031.78 2.24786 -6.4495 0
M  V30 10879 O 1031.47 2.06952 -7.76805 0
M  V30 10880 H 1031.2 0.465401 -0.490284 0
M  V30 10881 H 1033.76 0.871843 -1.85979 0
M  V30 10882 H 1031.99 3.42566 -1.79403 0
M  V30 10883 H 1033.67 3.40312 -2.21229 0
M  V30 10884 H 1034.44 2.1417 -4.35151 0
M  V30 10885 H 1030.32 3.01322 -3.48893 0
M  V30 10886 H 1033.86 1.82955 -6.73181 0
M  V30 10887 H 1029.76 2.70478 -5.86099 0
M  V30 10888 H 1030.53 2.21762 -7.87886 0
M  V30 10889 N 1033.19 1.2685 0.935242 0
M  V30 10890 C 1034.6 1.11569 1.49697 0
M  V30 10891 C 1034.95 -0.301952 1.93863 0
M  V30 10892 O 1034.08 -1.19408 1.80473 0
M  V30 10893 C 1034.67 2.01918 2.72056 0
M  V30 10894 C 1033.23 1.90765 3.24477 0
M  V30 10895 C 1032.38 1.94918 1.97237 0
M  V30 10896 H 1035.33 1.39853 0.750116 0
M  V30 10897 H 1035.35 1.57056 3.46574 0
M  V30 10898 H 1034.86 3.05088 2.39881 0
M  V30 10899 H 1032.96 0.905521 3.61429 0
M  V30 10900 H 1033.08 2.76611 3.91182 0
M  V30 10901 H 1031.44 1.39046 2.13397 0
M  V30 10902 H 1032.22 2.99729 1.67385 0
M  V30 10903 N 1034.67 -1.14067 1.0875 0
M  V30 10904 C 1035.95 -1.81389 0.73195 0
M  V30 10905 C 1036.33 -1.96005 -0.78391 0
M  V30 10906 O 1035.68 -1.52267 -1.70373 0
M  V30 10907 C 1035.89 -3.16858 1.46294 0
M  V30 10908 C 1037.23 -3.92305 1.62426 0
M  V30 10909 O 1038.26 -3.26459 1.42488 0
M  V30 10910 O 1037.12 -5.10393 1.9535 0
M  V30 10911 H 1034.21 -0.784354 0.262141 0
M  V30 10912 H 1036.76 -1.21054 1.18929 0
M  V30 10913 H 1035.53 -3.01404 2.49542 0
M  V30 10914 H 1035.15 -3.84889 0.997318 0
M  V30 10915 N 1036.15 -0.873678 -1.31166 0
M  V30 10916 C 1037.38 -0.500317 -2.0045 0
M  V30 10917 C 1037.79 0.912716 -1.65729 0
M  V30 10918 O 1037.13 1.61001 -0.884563 0
M  V30 10919 C 1037.19 -0.58197 -3.54758 0
M  V30 10920 C 1036.86 -1.95728 -4.12964 0
M  V30 10921 C 1037.85 -2.92526 -4.29796 0
M  V30 10922 C 1035.54 -2.2596 -4.48606 0
M  V30 10923 C 1037.53 -4.17697 -4.81464 0
M  V30 10924 C 1035.22 -3.5138 -4.99976 0
M  V30 10925 C 1036.22 -4.47064 -5.16356 0
M  V30 10926 O 1035.9 -5.70259 -5.66621 0
M  V30 10927 H 1035.64 -0.193044 -0.64785 0
M  V30 10928 H 1038.19 -1.17768 -1.68285 0
M  V30 10929 H 1036.42 0.152326 -3.864 0
M  V30 10930 H 1038.11 -0.221506 -4.05295 0
M  V30 10931 H 1038.88 -2.70479 -4.02574 0
M  V30 10932 H 1034.75 -1.52258 -4.3513 0
M  V30 10933 H 1038.3 -4.92389 -4.94165 0
M  V30 10934 H 1034.2 -3.73269 -5.26631 0
M  V30 10935 H 1034.96 -5.72483 -5.84983 0
M  V30 10936 N 1037.63 1.44308 -0.633487 0
M  V30 10937 C 1038.86 2.06085 -0.145852 0
M  V30 10938 C 1039.26 1.47432 1.18577 0
M  V30 10939 O 1038.61 0.592575 1.7388 0
M  V30 10940 C 1038.67 3.59477 0.0407848 0
M  V30 10941 C 1038.33 4.40607 -1.21304 0
M  V30 10942 C 1039.33 4.73937 -2.13728 0
M  V30 10943 C 1037.02 4.80943 -1.44911 0
M  V30 10944 C 1039.01 5.46489 -3.28068 0
M  V30 10945 C 1036.7 5.53243 -2.59548 0
M  V30 10946 C 1037.69 5.85936 -3.50953 0
M  V30 10947 O 1037.38 6.56764 -4.6359 0
M  V30 10948 H 1037.11 0.671484 -0.0780085 0
M  V30 10949 H 1039.67 1.86128 -0.868658 0
M  V30 10950 H 1037.9 3.77933 0.818761 0
M  V30 10951 H 1039.59 4.03013 0.483273 0
M  V30 10952 H 1040.35 4.43311 -1.96725 0
M  V30 10953 H 1036.23 4.54915 -0.746537 0
M  V30 10954 H 1039.78 5.71924 -3.99435 0
M  V30 10955 H 1035.67 5.83285 -2.76493 0
M  V30 10956 H 1036.44 6.75234 -4.62602 0
M  V30 10957 N 1039.1 0.374177 1.53094 0
M  V30 10958 C 1040.35 -0.213131 2.01677 0
M  V30 10959 C 1040.68 -1.47715 1.26071 0
M  V30 10960 O 1039.96 -1.91199 0.356834 0
M  V30 10961 C 1040.24 -0.496392 3.56662 0
M  V30 10962 C 1040.09 0.781859 4.42953 0
M  V30 10963 C 1041.41 -1.29339 4.20666 0
M  V30 10964 H 1038.53 -0.0759885 0.733072 0
M  V30 10965 H 1041.17 0.500765 1.83282 0
M  V30 10966 H 1039.32 -1.10455 3.72467 0
M  V30 10967 H 1041 1.41914 4.38928 0
M  V30 10968 H 1039.24 1.40041 4.10574 0
M  V30 10969 H 1039.91 0.538508 5.49367 0
M  V30 10970 H 1042.39 -0.778848 4.08746 0
M  V30 10971 H 1041.26 -1.46033 5.29118 0
M  V30 10972 H 1041.52 -2.30435 3.77296 0
M  V30 10973 N 1040.58 -1.57259 0.103575 0
M  V30 10974 C 1041.81 -1.98711 -0.565454 0
M  V30 10975 C 1042.22 -0.981759 -1.61735 0
M  V30 10976 O 1041.56 0.0357019 -1.83665 0
M  V30 10977 C 1041.63 -3.36552 -1.26384 0
M  V30 10978 C 1041.29 -4.55566 -0.361714 0
M  V30 10979 C 1042.29 -5.18408 0.393539 0
M  V30 10980 C 1039.97 -5.01534 -0.277292 0
M  V30 10981 C 1041.97 -6.25594 1.2211 0
M  V30 10982 C 1039.65 -6.08584 0.553919 0
M  V30 10983 C 1040.65 -6.7048 1.30176 0
M  V30 10984 O 1040.34 -7.75464 2.1192 0
M  V30 10985 H 1040.07 -0.657853 -0.155582 0
M  V30 10986 H 1042.62 -2.04591 0.182089 0
M  V30 10987 H 1040.85 -3.2738 -2.05813 0
M  V30 10988 H 1042.54 -3.62395 -1.82824 0
M  V30 10989 H 1043.31 -4.8382 0.338098 0
M  V30 10990 H 1039.19 -4.53114 -0.849047 0
M  V30 10991 H 1042.73 -6.73836 1.80531 0
M  V30 10992 H 1038.63 -6.42604 0.610809 0
M  V30 10993 H 1039.4 -7.92491 2.04694 0
M  V30 10994 N 1042.06 0.170153 -1.56679 0
M  V30 10995 C 1043.47 0.732502 -1.7173 0
M  V30 10996 C 1043.82 1.82736 -0.71428 0
M  V30 10997 O 1042.95 2.16044 0.124102 0
M  V30 10998 C 1043.54 1.33548 -3.11368 0
M  V30 10999 C 1042.1 1.84464 -3.281 0
M  V30 11000 C 1041.25 0.724069 -2.6768 0
M  V30 11001 H 1044.2 -0.0552543 -1.58604 0
M  V30 11002 H 1044.22 2.20519 -3.10083 0
M  V30 11003 H 1043.73 0.5384 -3.84347 0
M  V30 11004 H 1041.83 2.66813 -2.6008 0
M  V30 11005 H 1041.95 1.98928 -4.35849 0
M  V30 11006 H 1040.31 1.14481 -2.27522 0
M  V30 11007 H 1041.09 -0.0611861 -3.43245 0
M  V30 11008 N 1043.54 1.5137 0.438746 0
M  V30 11009 C 1044.76 1.68058 1.21537 0
M  V30 11010 C 1045.19 0.376787 1.84288 0
M  V30 11011 O 1044.55 -0.662911 1.68746 0
M  V30 11012 C 1044.59 2.79684 2.27616 0
M  V30 11013 O 1043.7 2.43189 3.33066 0
M  V30 11014 H 1043.04 0.560408 0.356144 0
M  V30 11015 H 1045.57 1.97926 0.518311 0
M  V30 11016 H 1045.58 3.03726 2.72423 0
M  V30 11017 H 1044.25 3.74293 1.81321 0
M  V30 11018 H 1042.83 2.29713 2.93746 0
M  V30 11019 N 1045.02 -0.694098 1.41492 0
M  V30 11020 C 1045.97 -1.80016 1.39923 0
M  V30 11021 C 1046.95 -1.58561 0.273377 0
M  V30 11022 O 1048.14 -1.69368 0.514157 0
M  V30 11023 C 1045.27 -3.18333 1.28526 0
M  V30 11024 C 1044.36 -3.45478 2.45979 0
M  V30 11025 N 1044.75 -3.43313 3.71443 0
M  V30 11026 C 1043.05 -3.76033 2.39824 0
M  V30 11027 C 1043.75 -3.69404 4.4935 0
M  V30 11028 N 1042.72 -3.89221 3.79484 0
M  V30 11029 H 1046.53 -1.76707 2.34844 0
M  V30 11030 H 1044.04 -0.894148 1.35568 0
M  V30 11031 H 1046.04 -3.97567 1.25484 0
M  V30 11032 H 1044.7 -3.22852 0.345904 0
M  V30 11033 H 1045.71 -3.2366 4.04308 0
M  V30 11034 H 1042.38 -3.87913 1.54368 0
M  V30 11035 H 1043.77 -3.73854 5.58285 0
M  V30 11036 N 1046.49 -1.27344 -0.928501 0
M  V30 11037 C 1047.4 -1.11812 -2.06241 0
M  V30 11038 C 1048.42 -0.048347 -1.73933 0
M  V30 11039 O 1049.6 -0.25467 -1.99783 0
M  V30 11040 C 1046.66 -0.766036 -3.38131 0
M  V30 11041 C 1045.72 -1.91659 -3.84142 0
M  V30 11042 C 1044.96 -1.58121 -5.09738 0
M  V30 11043 O 1045.18 -0.488742 -5.68302 0
M  V30 11044 O 1044.11 -2.42013 -5.51102 0
M  V30 11045 H 1047.94 -2.06967 -2.22258 0
M  V30 11046 H 1045.52 -1.06524 -1.04752 0
M  V30 11047 H 1047.41 -0.582982 -4.17348 0
M  V30 11048 H 1046.08 0.155998 -3.23324 0
M  V30 11049 H 1044.99 -2.1547 -3.05816 0
M  V30 11050 H 1046.32 -2.8188 -4.0349 0
M  V30 11051 N 1047.97 1.13488 -1.09353 0
M  V30 11052 C 1048.92 2.16933 -0.701709 0
M  V30 11053 C 1049.91 1.58382 0.283553 0
M  V30 11054 O 1051.1 1.7675 0.0940391 0
M  V30 11055 C 1048.23 3.43079 -0.123031 0
M  V30 11056 C 1047.31 4.08639 -1.13466 0
M  V30 11057 N 1047.7 4.49377 -2.32152 0
M  V30 11058 C 1046 4.35265 -0.972632 0
M  V30 11059 C 1046.7 5.00464 -2.96497 0
M  V30 11060 N 1045.68 4.95275 -2.24061 0
M  V30 11061 H 1049.48 2.46183 -1.60534 0
M  V30 11062 H 1047 1.30275 -0.969644 0
M  V30 11063 H 1048.99 4.1653 0.17569 0
M  V30 11064 H 1047.65 3.15304 0.775461 0
M  V30 11065 H 1048.66 4.42105 -2.69748 0
M  V30 11066 H 1045.34 4.17301 -0.12876 0
M  V30 11067 H 1046.73 5.41785 -3.9739 0
M  V30 11068 N 1049.45 0.880621 1.30701 0
M  V30 11069 C 1050.4 0.333562 2.30196 0
M  V30 11070 C 1051.39 -0.557092 1.59978 0
M  V30 11071 O 1052.6 -0.442009 1.74489 0
M  V30 11072 H 1048.97 0.0892036 0.746691 0
M  V30 11073 H 1050.95 1.18644 2.73799 0
M  V30 11074 C 1049.69 -0.440731 3.44895 0
M  V30 11075 H 1049.02 0.235353 3.99107 0
M  V30 11076 H 1050.46 -0.788676 4.166 0
M  V30 11077 C 1048.92 -1.63613 2.94504 0
M  V30 11078 O 1049.45 -2.73549 2.94166 0
M  V30 11079 N 1047.65 -1.47183 2.5057 0
M  V30 11080 H 1047.2 -0.577479 2.51044 0
M  V30 11081 H 1047.16 -2.27303 2.17211 0
M  V30 11082 N 1050.93 -1.4397 0.641131 0
M  V30 11083 C 1052.18 -2.02246 0.14985 0
M  V30 11084 C 1052.51 -1.50387 -1.22871 0
M  V30 11085 O 1051.78 -0.692003 -1.81773 0
M  V30 11086 C 1052.07 -3.59798 0.147449 0
M  V30 11087 C 1051.92 -4.21916 1.55907 0
M  V30 11088 C 1053.24 -4.36985 -0.522667 0
M  V30 11089 H 1050.36 -0.734875 0.0559274 0
M  V30 11090 H 1053 -1.71418 0.819513 0
M  V30 11091 H 1051.15 -3.86193 -0.422789 0
M  V30 11092 H 1052.82 -4.06594 2.17896 0
M  V30 11093 H 1051.06 -3.79028 2.10998 0
M  V30 11094 H 1051.74 -5.30964 1.50934 0
M  V30 11095 H 1054.21 -4.16083 -0.0376226 0
M  V30 11096 H 1053.09 -5.46676 -0.493572 0
M  V30 11097 H 1053.35 -4.12335 -1.59475 0
M  V30 11098 N 1052.41 -0.382291 -1.52893 0
M  V30 11099 C 1053.34 0.500194 -2.22651 0
M  V30 11100 C 1054.32 1.06969 -1.22459 0
M  V30 11101 O 1055.5 1.12267 -1.51422 0
M  V30 11102 C 1052.63 1.6917 -2.93427 0
M  V30 11103 C 1051.68 1.24811 -4.07829 0
M  V30 11104 S 1052.51 0.235466 -5.34982 0
M  V30 11105 C 1053.66 1.43292 -6.09277 0
M  V30 11106 H 1053.9 -0.0921913 -2.97157 0
M  V30 11107 H 1051.43 -0.16645 -1.535 0
M  V30 11108 H 1053.39 2.37507 -3.34815 0
M  V30 11109 H 1052.05 2.25537 -2.18613 0
M  V30 11110 H 1051.24 2.13754 -4.56426 0
M  V30 11111 H 1050.84 0.643744 -3.68418 0
M  V30 11112 H 1053.14 2.36118 -6.35023 0
M  V30 11113 H 1054.08 0.988003 -7.01173 0
M  V30 11114 H 1054.49 1.64655 -5.39953 0
M  V30 11115 N 1053.89 1.57202 -0.111913 0
M  V30 11116 C 1055.13 1.94565 0.546713 0
M  V30 11117 C 1055.45 0.995644 1.67666 0
M  V30 11118 O 1054.72 0.0506681 1.95834 0
M  V30 11119 H 1053.3 0.718334 0.204951 0
M  V30 11120 H 1055.97 1.94074 -0.179193 0
M  V30 11121 H 1055.06 2.9742 0.945931 0
M  V30 11122 N 1055.36 -0.161842 1.56767 0
M  V30 11123 C 1056.77 -0.723385 1.72116 0
M  V30 11124 C 1057.13 -1.82355 0.723961 0
M  V30 11125 O 1056.25 -2.16107 -0.112643 0
M  V30 11126 C 1056.85 -1.31895 3.12072 0
M  V30 11127 C 1055.4 -1.82722 3.29074 0
M  V30 11128 C 1054.55 -0.709863 2.6806 0
M  V30 11129 H 1057.5 0.0636647 1.58572 0
M  V30 11130 H 1057.52 -2.18871 3.11249 0
M  V30 11131 H 1057.04 -0.51801 3.84627 0
M  V30 11132 H 1055.14 -2.6543 2.61491 0
M  V30 11133 H 1055.25 -1.96614 4.36898 0
M  V30 11134 H 1053.61 -1.13273 2.28126 0
M  V30 11135 H 1054.4 0.0793884 3.43208 0
M  V30 11136 N 1056.84 -1.516 -0.430713 0
M  V30 11137 C 1058.12 -1.55142 -1.19123 0
M  V30 11138 C 1058.5 -0.319596 -2.08667 0
M  V30 11139 O 1057.85 0.694927 -2.17676 0
M  V30 11140 C 1058.06 -2.86891 -1.98732 0
M  V30 11141 C 1059.4 -3.39089 -2.55546 0
M  V30 11142 O 1060.43 -2.88486 -2.08936 0
M  V30 11143 O 1059.29 -4.27401 -3.40574 0
M  V30 11144 H 1056.38 -0.624019 -0.542705 0
M  V30 11145 H 1058.93 -1.63917 -0.439244 0
M  V30 11146 H 1057.7 -3.68002 -1.33005 0
M  V30 11147 H 1057.32 -2.81309 -2.80982 0
M  V30 11148 N 1058.32 0.686584 -1.41858 0
M  V30 11149 C 1059.74 0.998283 -1.24525 0
M  V30 11150 C 1059.94 2.01006 -0.141007 0
M  V30 11151 O 1058.99 2.47667 0.491648 0
M  V30 11152 C 1060.3 1.51432 -2.59786 0
M  V30 11153 C 1061.85 1.6327 -2.67043 0
M  V30 11154 C 1062.33 2.18274 -4.02642 0
M  V30 11155 N 1063.82 2.25622 -4.04535 0
M  V30 11156 C 1064.55 2.69229 -5.06264 0
M  V30 11157 N 1064.05 3.12375 -6.1838 0
M  V30 11158 N 1065.84 2.68873 -4.93623 0
M  V30 11159 H 1057.99 0.0164825 -2.12394 0
M  V30 11160 H 1060.26 0.0698613 -0.945422 0
M  V30 11161 H 1059.96 0.845426 -3.41388 0
M  V30 11162 H 1059.84 2.49502 -2.82894 0
M  V30 11163 H 1062.22 2.29269 -1.85794 0
M  V30 11164 H 1062.3 0.637221 -2.47736 0
M  V30 11165 H 1061.95 1.52887 -4.84343 0
M  V30 11166 H 1061.88 3.18591 -4.19294 0
M  V30 11167 H 1064.37 1.95186 -3.23591 0
M  V30 11168 H 1064.68 3.44301 -6.91864 0
M  V30 11169 H 1063.03 3.10262 -6.21902 0
M  V30 11170 H 1066.22 2.34521 -4.05114 0
M  V30 11171 H 1066.39 3.02539 -5.7304 0
M  V30 11172 N 1059.8 1.27835 0.921735 0
M  V30 11173 C 1061.04 1.14692 1.67253 0
M  V30 11174 C 1061.38 -0.305384 1.91784 0
M  V30 11175 O 1060.65 -1.22286 1.51249 0
M  V30 11176 C 1060.93 1.93743 3.03539 0
M  V30 11177 C 1060.79 3.46991 2.86212 0
M  V30 11178 C 1062.11 1.74658 4.03959 0
M  V30 11179 H 1059.23 0.418021 0.606983 0
M  V30 11180 H 1061.87 1.5706 1.06922 0
M  V30 11181 H 1060.02 1.57738 3.55037 0
M  V30 11182 H 1061.69 3.92858 2.41785 0
M  V30 11183 H 1059.93 3.73029 2.21432 0
M  V30 11184 H 1060.6 3.97551 3.82958 0
M  V30 11185 H 1063.08 2.06063 3.61493 0
M  V30 11186 H 1061.96 2.32353 4.97296 0
M  V30 11187 H 1062.22 0.696019 4.36587 0
M  V30 11188 N 1061.28 -1.12907 1.09954 0
M  V30 11189 C 1062.23 -2.16558 0.713204 0
M  V30 11190 C 1063.21 -1.5853 -0.27515 0
M  V30 11191 O 1064.4 -1.76797 -0.0846643 0
M  V30 11192 C 1061.53 -3.43009 0.141224 0
M  V30 11193 C 1060.62 -4.08032 1.15632 0
M  V30 11194 N 1061.01 -4.48139 2.34531 0
M  V30 11195 C 1059.31 -4.34743 0.995701 0
M  V30 11196 C 1060.01 -4.98885 2.99147 0
M  V30 11197 N 1058.98 -4.9408 2.26684 0
M  V30 11198 H 1062.78 -2.45328 1.61838 0
M  V30 11199 H 1060.3 -1.29759 0.976539 0
M  V30 11200 H 1062.3 -4.16617 -0.153598 0
M  V30 11201 H 1060.96 -3.15711 -0.758729 0
M  V30 11202 H 1061.97 -4.40668 2.72089 0
M  V30 11203 H 1058.64 -4.17227 0.150888 0
M  V30 11204 H 1060.03 -5.3967 4.00257 0
M  V30 11205 N 1062.75 -0.88754 -1.30232 0
M  V30 11206 C 1063.68 -0.372481 -2.3051 0
M  V30 11207 C 1064.66 0.546037 -1.61098 0
M  V30 11208 O 1065.85 0.459345 -1.88689 0
M  V30 11209 C 1062.98 0.411605 -3.44852 0
M  V30 11210 C 1061.93 -0.415383 -4.2598 0
M  V30 11211 C 1061.26 0.495463 -5.324 0
M  V30 11212 C 1062.56 -1.65886 -4.95257 0
M  V30 11213 H 1064.25 -1.21045 -2.7384 0
M  V30 11214 H 1061.8 -0.583498 -1.31648 0
M  V30 11215 H 1063.75 0.782584 -4.1407 0
M  V30 11216 H 1062.48 1.28325 -3.00334 0
M  V30 11217 H 1061.14 -0.768534 -3.58454 0
M  V30 11218 H 1060.78 1.36489 -4.84128 0
M  V30 11219 H 1060.48 -0.0540885 -5.87575 0
M  V30 11220 H 1062.01 0.862901 -6.04472 0
M  V30 11221 H 1063.42 -1.35832 -5.56976 0
M  V30 11222 H 1061.82 -2.14881 -5.60309 0
M  V30 11223 H 1062.89 -2.40181 -4.21237 0
M  V30 11224 N 1064.23 1.43628 -0.648757 0
M  V30 11225 C 1065.46 2.05918 -0.167701 0
M  V30 11226 C 1065.87 1.48681 1.17006 0
M  V30 11227 O 1065.21 0.610984 1.73242 0
M  V30 11228 C 1065.28 3.595 0.00265514 0
M  V30 11229 C 1064.94 4.39295 -1.2597 0
M  V30 11230 C 1065.94 4.71643 -2.18743 0
M  V30 11231 C 1063.62 4.79379 -1.50004 0
M  V30 11232 C 1065.62 5.42978 -3.33846 0
M  V30 11233 C 1063.3 5.50459 -2.65401 0
M  V30 11234 C 1064.3 5.82181 -3.57148 0
M  V30 11235 O 1063.99 6.5181 -4.7053 0
M  V30 11236 H 1063.72 0.670619 -0.0851261 0
M  V30 11237 H 1066.27 1.85196 -0.888351 0
M  V30 11238 H 1064.5 3.7878 0.77863 0
M  V30 11239 H 1066.19 4.03503 0.440501 0
M  V30 11240 H 1066.96 4.41199 -2.01416 0
M  V30 11241 H 1062.84 4.54098 -0.794745 0
M  V30 11242 H 1066.38 5.67656 -4.05479 0
M  V30 11243 H 1062.28 5.8032 -2.82664 0
M  V30 11244 H 1063.05 6.7029 -4.69738 0
M  V30 11245 N 1065.71 0.390394 1.52688 0
M  V30 11246 C 1066.62 -0.451543 2.30213 0
M  V30 11247 C 1067.64 -1.07051 1.37172 0
M  V30 11248 O 1068.81 -1.07609 1.70242 0
M  V30 11249 C 1065.88 -1.56299 3.0947 0
M  V30 11250 C 1064.94 -0.969017 4.18221 0
M  V30 11251 C 1064.17 -2.0275 4.93688 0
M  V30 11252 O 1064.39 -3.24273 4.69258 0
M  V30 11253 O 1063.33 -1.64418 5.79008 0
M  V30 11254 H 1067.15 0.180042 3.03166 0
M  V30 11255 H 1064.74 0.154082 1.48603 0
M  V30 11256 H 1066.62 -2.20864 3.58883 0
M  V30 11257 H 1065.3 -2.17952 2.3933 0
M  V30 11258 H 1064.2 -0.286587 3.73001 0
M  V30 11259 H 1065.54 -0.396687 4.90599 0
M  V30 11260 N 1067.19 -1.57141 0.120249 0
M  V30 11261 C 1068.42 -1.99589 -0.545136 0
M  V30 11262 C 1068.83 -0.999951 -1.60145 0
M  V30 11263 O 1068.19 0.00698897 -1.82499 0
M  V30 11264 C 1068.24 -3.42038 -1.17014 0
M  V30 11265 O 1067.96 -4.37822 -0.156044 0
M  V30 11266 C 1069.46 -3.99625 -1.91872 0
M  V30 11267 H 1066.68 -0.655318 -0.144222 0
M  V30 11268 H 1069.23 -2.0345 0.206955 0
M  V30 11269 H 1067.38 -3.39113 -1.873 0
M  V30 11270 H 1067.79 -5.20937 -0.610317 0
M  V30 11271 H 1069.27 -5.01374 -2.30928 0
M  V30 11272 H 1069.75 -3.38836 -2.7944 0
M  V30 11273 H 1070.35 -4.061 -1.26345 0
M  V30 11274 N 1068.67 0.153526 -1.5685 0
M  V30 11275 C 1069.92 0.865628 -1.82181 0
M  V30 11276 C 1070.23 1.82629 -0.700434 0
M  V30 11277 O 1071.43 2.58206 -0.839155 0
M  V30 11278 C 1069.89 1.58993 -3.22877 0
M  V30 11279 C 1069.5 0.672006 -4.42931 0
M  V30 11280 C 1071.24 2.2892 -3.57486 0
M  V30 11281 C 1069.15 1.39755 -5.7465 0
M  V30 11282 H 1068.08 0.326993 -0.679406 0
M  V30 11283 H 1070.73 0.118403 -1.83118 0
M  V30 11284 H 1069.11 2.38255 -3.16308 0
M  V30 11285 H 1070.29 -0.0849226 -4.60722 0
M  V30 11286 H 1068.6 0.0814825 -4.1632 0
M  V30 11287 H 1071.2 2.8383 -4.5315 0
M  V30 11288 H 1071.54 3.05105 -2.83226 0
M  V30 11289 H 1072.07 1.56583 -3.65686 0
M  V30 11290 H 1068.81 0.677686 -6.51987 0
M  V30 11291 H 1068.33 2.12736 -5.60806 0
M  V30 11292 H 1070.01 1.94024 -6.17223 0
M  V30 11293 N 1070.14 1.51827 0.422667 0
M  V30 11294 C 1071.37 1.69049 1.1929 0
M  V30 11295 C 1071.79 0.394095 1.84641 0
M  V30 11296 O 1071.14 -0.628731 1.71328 0
M  V30 11297 C 1071.2 2.81657 2.26609 0
M  V30 11298 O 1070.92 4.06275 1.63929 0
M  V30 11299 C 1072.42 3.10274 3.16615 0
M  V30 11300 H 1069.64 0.566894 0.358988 0
M  V30 11301 H 1072.18 1.98318 0.499029 0
M  V30 11302 H 1070.34 2.54945 2.91688 0
M  V30 11303 H 1070.75 4.68924 2.3497 0
M  V30 11304 H 1072.22 3.92613 3.88019 0
M  V30 11305 H 1072.7 2.23273 3.78214 0
M  V30 11306 H 1073.31 3.387 2.57221 0
M  V30 11307 N 1071.62 -0.679052 1.4222 0
M  V30 11308 C 1073.04 -0.991665 1.25053 0
M  V30 11309 C 1073.24 -2.00928 0.151665 0
M  V30 11310 O 1072.29 -2.47925 -0.478507 0
M  V30 11311 C 1073.61 -1.50053 2.60585 0
M  V30 11312 C 1075.16 -1.61852 2.67905 0
M  V30 11313 C 1075.63 -2.16135 4.03794 0
M  V30 11314 N 1077.12 -2.23474 4.05726 0
M  V30 11315 C 1077.86 -2.66541 5.07685 0
M  V30 11316 N 1077.35 -3.09092 6.20028 0
M  V30 11317 N 1079.15 -2.66252 4.95042 0
M  V30 11318 H 1071.3 -0.00521851 2.12399 0
M  V30 11319 H 1073.56 -0.0648465 0.94578 0
M  V30 11320 H 1073.27 -0.82731 3.41831 0
M  V30 11321 H 1073.14 -2.47998 2.84213 0
M  V30 11322 H 1075.53 -2.28281 1.87008 0
M  V30 11323 H 1075.61 -0.624074 2.4807 0
M  V30 11324 H 1075.25 -1.50316 4.85147 0
M  V30 11325 H 1075.18 -3.16363 4.20978 0
M  V30 11326 H 1077.67 -1.93467 3.24621 0
M  V30 11327 H 1077.99 -3.40627 6.93681 0
M  V30 11328 H 1076.33 -3.06959 6.23539 0
M  V30 11329 H 1079.52 -2.32369 4.06352 0
M  V30 11330 H 1079.69 -2.99496 5.74636 0
M  V30 11331 N 1073.1 -1.28322 -0.914942 0
M  V30 11332 C 1074.33 -1.18083 -1.69529 0
M  V30 11333 C 1074.74 0.263274 -1.87359 0
M  V30 11334 O 1074.08 1.18988 -1.39955 0
M  V30 11335 C 1074.14 -1.8062 -3.10832 0
M  V30 11336 C 1073.81 -3.29861 -3.16292 0
M  V30 11337 C 1074.8 -4.26313 -2.97578 0
M  V30 11338 C 1072.49 -3.70797 -3.38843 0
M  V30 11339 C 1074.48 -5.61677 -3.01326 0
M  V30 11340 C 1072.17 -5.06287 -3.42223 0
M  V30 11341 C 1073.17 -6.01537 -3.23485 0
M  V30 11342 O 1072.86 -7.34556 -3.26624 0
M  V30 11343 H 1072.59 -0.410931 -0.53676 0
M  V30 11344 H 1075.14 -1.6994 -1.15367 0
M  V30 11345 H 1073.37 -1.23255 -3.66531 0
M  V30 11346 H 1075.06 -1.64915 -3.70888 0
M  V30 11347 H 1075.83 -3.96023 -2.79984 0
M  V30 11348 H 1071.71 -2.97124 -3.52475 0
M  V30 11349 H 1075.25 -6.36 -2.86618 0
M  V30 11350 H 1071.15 -5.36228 -3.59346 0
M  V30 11351 H 1071.92 -7.43167 -3.42994 0
M  V30 11352 N 1074.58 1.12322 -1.10551 0
M  V30 11353 C 1075.83 1.83858 -0.848674 0
M  V30 11354 C 1076.15 1.84159 0.62575 0
M  V30 11355 O 1075.41 1.28341 1.4774 0
M  V30 11356 C 1075.71 3.31177 -1.34375 0
M  V30 11357 C 1075.37 3.51046 -2.8298 0
M  V30 11358 C 1074.04 3.56177 -3.23561 0
M  V30 11359 C 1076.39 3.58061 -3.78737 0
M  V30 11360 C 1073.72 3.65868 -4.58647 0
M  V30 11361 C 1076.07 3.69283 -5.13627 0
M  V30 11362 C 1074.73 3.7267 -5.53781 0
M  V30 11363 H 1074 0.672784 -0.310552 0
M  V30 11364 H 1076.65 1.3253 -1.38232 0
M  V30 11365 H 1074.95 3.84937 -0.730144 0
M  V30 11366 H 1076.65 3.84998 -1.12148 0
M  V30 11367 H 1073.24 3.47716 -2.50582 0
M  V30 11368 H 1077.42 3.53366 -3.48491 0
M  V30 11369 H 1072.68 3.66763 -4.89178 0
M  V30 11370 H 1076.85 3.73654 -5.8767 0
M  V30 11371 H 1074.48 3.79932 -6.58449 0
M  V30 11372 N 1076.06 0.894434 1.2976 0
M  V30 11373 C 1077.28 0.532916 1.99919 0
M  V30 11374 C 1077.7 -0.881022 1.66983 0
M  V30 11375 O 1077.06 -1.58076 0.912035 0
M  V30 11376 C 1077.11 0.70936 3.54472 0
M  V30 11377 O 1076.83 2.06764 3.86239 0
M  V30 11378 C 1078.33 0.352089 4.419 0
M  V30 11379 H 1075.55 0.205019 0.638912 0
M  V30 11380 H 1078.09 1.20233 1.65421 0
M  V30 11381 H 1076.25 0.0871901 3.87302 0
M  V30 11382 H 1076.66 2.09315 4.80924 0
M  V30 11383 H 1078.14 0.526405 5.49484 0
M  V30 11384 H 1078.61 -0.710527 4.33415 0
M  V30 11385 H 1079.22 0.950979 4.14532 0
M  V30 11386 N 1077.53 -1.43282 0.656365 0
M  V30 11387 C 1078.81 -1.9534 0.100816 0
M  V30 11388 C 1079.19 -1.59755 -1.37992 0
M  V30 11389 O 1078.54 -0.884264 -2.10697 0
M  V30 11390 C 1078.75 -3.47237 0.35038 0
M  V30 11391 C 1080.1 -4.23822 0.257001 0
M  V30 11392 O 1081.12 -3.55073 0.283111 0
M  V30 11393 O 1079.98 -5.46192 0.183397 0
M  V30 11394 H 1077.07 -0.826963 -0.00780287 0
M  V30 11395 H 1079.62 -1.53205 0.72982 0
M  V30 11396 H 1078.39 -3.66276 1.37685 0
M  V30 11397 H 1078.02 -3.96378 -0.311539 0
M  V30 11398 N 1079.01 -0.398486 -1.52479 0
M  V30 11399 C 1079.96 0.449343 -2.23528 0
M  V30 11400 C 1080.95 1.02218 -1.24259 0
M  V30 11401 O 1082.14 0.946757 -1.49551 0
M  V30 11402 C 1079.27 1.5712 -3.05235 0
M  V30 11403 C 1078.35 1.00966 -4.11906 0
M  V30 11404 N 1078.75 0.173855 -5.05501 0
M  V30 11405 C 1077.04 1.28124 -4.272 0
M  V30 11406 C 1077.74 -0.137391 -5.81538 0
M  V30 11407 N 1076.72 0.468972 -5.41573 0
M  V30 11408 H 1080.52 -0.195654 -2.93248 0
M  V30 11409 H 1078.04 -0.208305 -1.61059 0
M  V30 11410 H 1080.03 2.19108 -3.54679 0
M  V30 11411 H 1078.69 2.21893 -2.37052 0
M  V30 11412 H 1079.7 -0.189618 -5.17553 0
M  V30 11413 H 1076.38 1.92933 -3.70247 0
M  V30 11414 H 1077.77 -0.815159 -6.66937 0
M  V30 11415 N 1080.49 1.57075 -0.12858 0
M  V30 11416 C 1081.42 2.18833 0.814519 0
M  V30 11417 C 1082.4 1.13114 1.2704 0
M  V30 11418 O 1083.59 1.41387 1.33129 0
M  V30 11419 C 1080.72 2.79535 2.06101 0
M  V30 11420 C 1079.67 3.9092 1.74257 0
M  V30 11421 C 1079 4.38473 3.06015 0
M  V30 11422 C 1080.3 5.1257 1.00345 0
M  V30 11423 H 1081.99 2.97895 0.299862 0
M  V30 11424 H 1079.54 1.4329 0.14279 0
M  V30 11425 H 1081.49 3.21401 2.72543 0
M  V30 11426 H 1080.21 1.97777 2.59907 0
M  V30 11427 H 1078.87 3.49645 1.102 0
M  V30 11428 H 1078.52 3.53561 3.57776 0
M  V30 11429 H 1078.22 5.13591 2.85479 0
M  V30 11430 H 1079.75 4.82997 3.7356 0
M  V30 11431 H 1081.16 5.51395 1.56959 0
M  V30 11432 H 1079.56 5.93333 0.898693 0
M  V30 11433 H 1080.63 4.84899 -0.0081335 0
M  V30 11434 O 1082.01 -0.0105399 1.61497 0
M  V30 11435 H 1082.7 -0.628636 1.83215 0
M  V30 END ATOM
M  V30 BEGIN BOND
M  V30 END BOND
M  V30 END CTAB
M  END
$$$$
