drugbank_target|Q7SIA3 Oxidoreductase (DB03151)
 OpenBabel12092120263D

  0  0  0     0  0            999 V3000
M  V30 BEGIN CTAB
M  V30 COUNTS 9014 9120 0 0 0
M  V30 BEGIN ATOM
M  V30 1 H -0.908 1.98254 -0.117106 0
M  V30 2 N 0 1.576 0 0
M  V30 3 C 0.963 2.07369 0.976253 0
M  V30 4 C 1.963 0.98309 1.27248 0
M  V30 5 O 3.153 1.24574 1.21766 0
M  V30 6 C 0.285 2.51514 2.30116 0
M  V30 7 H 1.478 2.94892 0.545759 0
M  V30 8 H -0.969 1.54328 0.247471 0
M  V30 9 H -0.234 1.67234 2.77855 0
M  V30 10 H -0.449 3.31163 2.09937 0
M  V30 11 H 1.041 2.90345 3.00149 0
M  V30 12 N 1.4781 -0.272755 1.55222 0
M  V30 13 C 2.4411 -1.32041 1.87344 0
M  V30 14 C 3.4411 -1.42342 0.74803 0
M  V30 15 O 4.6311 -1.41488 1.0162 0
M  V30 16 C 1.7631 -2.70173 2.07893 0
M  V30 17 H 2.9561 -1.04789 2.80997 0
M  V30 18 H 0.5091 -0.51083 1.47717 0
M  V30 19 H 1.2441 -3.02605 1.16622 0
M  V30 20 H 1.0291 -2.64082 2.89833 0
M  V30 21 H 2.5191 -3.45869 2.34017 0
M  V30 22 N 2.9562 -1.48159 -0.537278 0
M  V30 23 C 3.9192 -1.61665 -1.62472 0
M  V30 24 C 4.9192 -0.490395 -1.5314 0
M  V30 25 O 6.1092 -0.755998 -1.5694 0
M  V30 26 C 3.2412 -1.57997 -3.02076 0
M  V30 27 H 4.4342 -2.58621 -1.51839 0
M  V30 28 H 1.9872 -1.36647 -0.758771 0
M  V30 29 H 2.7222 -0.624913 -3.18222 0
M  V30 30 H 2.5072 -2.39755 -3.10258 0
M  V30 31 H 3.9972 -1.70627 -3.81151 0
M  V30 32 N 4.4343 0.785586 -1.36625 0
M  V30 33 C 5.3443 1.92964 -1.33425 0
M  V30 34 C 6.3603 1.72394 -0.235851 0
M  V30 35 O 7.5363 1.95866 -0.468878 0
M  V30 36 C 4.6013 3.27884 -1.12662 0
M  V30 37 C 3.6623 3.61204 -2.32013 0
M  V30 38 C 2.8953 4.89687 -2.12231 0
M  V30 39 O 3.1183 5.59704 -1.09945 0
M  V30 40 O 2.0523 5.21752 -3.00098 0
M  V30 41 H 5.8783 1.98613 -2.29753 0
M  V30 42 H 3.4633 0.926384 -1.17211 0
M  V30 43 H 5.3453 4.08614 -1.03016 0
M  V30 44 H 4.0203 3.23118 -0.193991 0
M  V30 45 H 2.9273 2.80765 -2.47228 0
M  V30 46 H 4.2603 3.70698 -3.23796 0
M  V30 47 N 5.9124 1.20967 1.01018 0
M  V30 48 C 6.8224 0.980157 2.13143 0
M  V30 49 C 7.8384 -0.0660665 1.73875 0
M  V30 50 O 9.0144 0.122821 2.01025 0
M  V30 51 C 6.0794 0.54216 3.42435 0
M  V30 52 C 5.1404 1.65999 3.95908 0
M  V30 53 C 4.3734 1.2428 5.19028 0
M  V30 54 O 4.5964 0.114196 5.70286 0
M  V30 55 O 3.5304 2.05271 5.65816 0
M  V30 56 H 7.3564 1.91913 2.35379 0
M  V30 57 H 4.9414 0.994099 1.11526 0
M  V30 58 H 6.8234 0.30744 4.20277 0
M  V30 59 H 5.4984 -0.36815 3.216 0
M  V30 60 H 4.4054 1.94906 3.19316 0
M  V30 61 H 5.7384 2.54753 4.21143 0
M  V30 62 N 7.3905 -1.2043 1.01659 0
M  V30 63 C 8.3535 -2.21433 0.591616 0
M  V30 64 C 9.3535 -1.57203 -0.338226 0
M  V30 65 O 10.5435 -1.73737 -0.126918 0
M  V30 66 C 7.6755 -3.40628 -0.136058 0
M  V30 67 H 8.8685 -2.60545 1.48514 0
M  V30 68 H 6.4215 -1.33893 0.806379 0
M  V30 69 H 7.1565 -3.07019 -1.04449 0
M  V30 70 H 6.9415 -3.88475 0.531917 0
M  V30 71 H 8.4315 -4.15475 -0.420735 0
M  V30 72 N 8.8686 -0.792821 -1.36206 0
M  V30 73 C 10.2846 -0.474903 -1.52371 0
M  V30 74 C 10.4846 1.00622 -1.74578 0
M  V30 75 O 9.5406 1.79162 -1.77924 0
M  V30 76 C 10.8536 -1.3083 -2.70747 0
M  V30 77 C 12.4016 -1.30234 -2.84619 0
M  V30 78 C 12.8766 -2.11956 -4.06004 0
M  V30 79 N 14.3676 -2.09419 -4.13156 0
M  V30 80 C 15.1026 -2.69419 -5.06163 0
M  V30 81 N 14.5986 -3.3829 -6.04592 0
M  V30 82 N 16.3916 -2.59134 -4.98804 0
M  V30 83 H 8.5426 -1.75222 -1.20046 0
M  V30 84 H 10.8056 -0.745024 -0.586211 0
M  V30 85 H 10.5116 -2.35881 -2.6087 0
M  V30 86 H 10.3856 -0.95196 -3.6499 0
M  V30 87 H 12.7726 -0.259748 -2.93955 0
M  V30 88 H 12.8536 -1.69847 -1.91274 0
M  V30 89 H 12.4976 -3.16248 -3.97429 0
M  V30 90 H 12.4276 -1.69711 -4.98503 0
M  V30 91 H 14.9186 -1.59297 -3.42685 0
M  V30 92 H 15.2316 -3.81394 -6.7213 0
M  V30 93 H 13.5766 -3.42393 -6.04807 0
M  V30 94 H 16.7676 -2.04927 -4.20859 0
M  V30 95 H 16.9406 -3.06185 -5.711 0
M  V30 96 N 10.3467 1.47872 -0.545128 0
M  V30 97 C 11.2947 2.31533 0.222512 0
M  V30 98 C 12.2887 1.42177 0.920985 0
M  V30 99 O 13.4947 1.59005 0.843645 0
M  V30 100 H 9.8697 0.746519 0.0906278 0
M  V30 101 H 11.8407 2.94139 -0.50246 0
M  V30 102 C 10.5897 3.2457 1.24699 0
M  V30 103 H 9.9127 3.93283 0.718944 0
M  V30 104 H 11.3527 3.85963 1.75523 0
M  V30 105 C 9.8117 2.47237 2.28856 0
M  V30 106 O 10.3417 2.20808 3.35569 0
M  V30 107 N 8.5477 2.08461 2.02466 0
M  V30 108 H 8.0947 2.30155 1.157 0
M  V30 109 H 8.0527 1.57033 2.72375 0
M  V30 110 N 11.8248 0.280983 1.55075 0
M  V30 111 C 12.7718 -0.603937 2.22758 0
M  V30 112 C 13.7418 -1.1452 1.20309 0
M  V30 113 O 14.9268 -1.19343 1.48869 0
M  V30 114 C 12.0668 -1.77947 2.95684 0
M  V30 115 C 11.1798 -1.2715 4.12864 0
M  V30 116 C 10.3148 -2.4093 4.7342 0
M  V30 117 C 9.3538 -1.87165 5.82783 0
M  V30 118 N 8.4908 -2.94441 6.37377 0
M  V30 119 H 13.3308 -0.020124 2.97993 0
M  V30 120 H 10.8678 0.00183425 1.471 0
M  V30 121 H 12.8258 -2.47055 3.36184 0
M  V30 122 H 11.4558 -2.33522 2.22861 0
M  V30 123 H 10.5078 -0.473331 3.77444 0
M  V30 124 H 11.8198 -0.837751 4.91715 0
M  V30 125 H 10.9738 -3.18021 5.1667 0
M  V30 126 H 9.7128 -2.87623 3.93859 0
M  V30 127 H 8.7178 -1.08556 5.38976 0
M  V30 128 H 9.9428 -1.41401 6.64216 0
M  V30 129 H 7.8888 -3.40505 5.60707 0
M  V30 130 H 7.8058 -2.55501 7.11516 0
M  V30 131 H 9.0738 -3.71489 6.85285 0
M  V30 132 N 13.3029 -1.57598 0.00835791 0
M  V30 133 C 14.2659 -2.07884 -0.965242 0
M  V30 134 C 15.2659 -0.989825 -1.26725 0
M  V30 135 O 16.4559 -1.25218 -1.21104 0
M  V30 136 C 13.5879 -2.52731 -2.28779 0
M  V30 137 H 14.7809 -2.95178 -0.530112 0
M  V30 138 H 12.3339 -1.54458 -0.239283 0
M  V30 139 H 13.0689 -1.68705 -2.76964 0
M  V30 140 H 12.8539 -3.32272 -2.08177 0
M  V30 141 H 14.3439 -2.91933 -2.98605 0
M  V30 142 N 14.781 0.264519 -1.55364 0
M  V30 143 C 15.731 1.32966 -1.85214 0
M  V30 144 C 16.715 1.44306 -0.711653 0
M  V30 145 O 17.907 1.47844 -0.973192 0
M  V30 146 C 15.036 2.68839 -2.13495 0
M  V30 147 C 14.122 2.61575 -3.33825 0
M  V30 148 N 14.513 2.23933 -4.53528 0
M  V30 149 C 12.811 2.92621 -3.36584 0
M  V30 150 C 13.512 2.26868 -5.35636 0
M  V30 151 N 12.488 2.65677 -4.74254 0
M  V30 152 H 16.29 1.02884 -2.75304 0
M  V30 153 H 13.804 0.473157 -1.55354 0
M  V30 154 H 15.801 3.45685 -2.33039 0
M  V30 155 H 14.461 2.99802 -1.24694 0
M  V30 156 H 15.472 1.95769 -4.79474 0
M  V30 157 H 12.149 3.2824 -2.58002 0
M  V30 158 H 13.539 2.00254 -6.41364 0
M  V30 159 N 16.2591 1.48442 0.529413 0
M  V30 160 C 17.5051 1.5672 1.28711 0
M  V30 161 C 17.8381 0.2406 1.92704 0
M  V30 162 O 17.1131 -0.753454 1.79313 0
M  V30 163 C 17.3961 2.70587 2.37603 0
M  V30 164 C 17.2491 4.12953 1.78297 0
M  V30 165 C 18.5681 2.80212 3.39366 0
M  V30 166 H 15.6871 0.570474 0.466613 0
M  V30 167 H 18.3291 1.80617 0.589706 0
M  V30 168 H 16.4791 2.50342 2.97088 0
M  V30 169 H 18.1511 4.44639 1.22858 0
M  V30 170 H 16.3941 4.19927 1.0883 0
M  V30 171 H 17.0651 4.88448 2.57144 0
M  V30 172 H 19.5411 2.98553 2.89836 0
M  V30 173 H 18.4171 3.61611 4.12951 0
M  V30 174 H 18.6781 1.88393 3.99951 0
M  V30 175 N 17.7372 -0.778329 1.37039 0
M  V30 176 C 18.7002 -1.87301 1.32102 0
M  V30 177 C 19.7002 -1.59198 0.226405 0
M  V30 178 O 20.8902 -1.67403 0.481861 0
M  V30 179 C 18.0222 -3.24309 1.05055 0
M  V30 180 H 19.2152 -1.93093 2.29467 0
M  V30 181 H 16.7682 -0.977358 1.21973 0
M  V30 182 H 17.5032 -3.24196 0.0819373 0
M  V30 183 H 17.2882 -3.46098 1.84279 0
M  V30 184 H 18.7782 -4.04382 1.04234 0
M  V30 185 N 19.2153 -1.21501 -1.00376 0
M  V30 186 C 20.6263 -1.03146 -1.55621 0
M  V30 187 C 20.9773 0.408375 -1.91903 0
M  V30 188 O 20.1023 1.29177 -1.73616 0
M  V30 189 C 20.6973 -1.86612 -2.82775 0
M  V30 190 C 19.2563 -1.72586 -3.34501 0
M  V30 191 C 18.4033 -1.83747 -2.07683 0
M  V30 192 H 21.3543 -1.35505 -0.826081 0
M  V30 193 H 21.3753 -1.3771 -3.54706 0
M  V30 194 H 20.8873 -2.91399 -2.56336 0
M  V30 195 H 18.9883 -0.704877 -3.65872 0
M  V30 196 H 19.1013 -2.54623 -4.05837 0
M  V30 197 H 17.4653 -1.27069 -2.20739 0
M  V30 198 H 18.2483 -2.90044 -1.83655 0
M  V30 199 N 20.6934 1.19889 -1.02296 0
M  V30 200 C 21.9414 1.89046 -0.714558 0
M  V30 201 C 22.2624 1.79636 0.758681 0
M  V30 202 O 21.5324 1.20292 1.54618 0
M  V30 203 H 20.1124 0.699802 -0.261317 0
M  V30 204 H 22.7744 1.45574 -1.29592 0
M  V30 205 H 21.8704 2.95524 -1.0036 0
M  V30 206 N 22.1715 0.800033 1.35784 0
M  V30 207 C 23.0815 0.207204 2.33683 0
M  V30 208 C 24.0975 -0.64631 1.61551 0
M  V30 209 O 25.2735 -0.559604 1.93469 0
M  V30 210 C 22.3385 -0.639659 3.40748 0
M  V30 211 C 21.3995 0.233585 4.28664 0
M  V30 212 C 20.6325 -0.572954 5.30616 0
M  V30 213 O 20.8555 -1.80816 5.40982 0
M  V30 214 O 19.7895 0.0327285 6.01891 0
M  V30 215 H 23.6155 1.01692 2.86169 0
M  V30 216 H 21.2005 0.561691 1.38439 0
M  V30 217 H 23.0825 -1.12223 4.06182 0
M  V30 218 H 21.7575 -1.42708 2.90544 0
M  V30 219 H 20.6645 0.763147 3.66233 0
M  V30 220 H 21.9975 0.984784 4.82248 0
M  V30 221 N 23.6496 -1.47581 0.552962 0
M  V30 222 C 24.5796 -2.32762 -0.185451 0
M  V30 223 C 25.5606 -1.43527 -0.912905 0
M  V30 224 O 26.7456 -1.72388 -0.894201 0
M  V30 225 C 23.8756 -3.25219 -1.21859 0
M  V30 226 C 22.8296 -4.23661 -0.607864 0
M  V30 227 C 22.1556 -5.05413 -1.74533 0
M  V30 228 C 23.4556 -5.20481 0.435582 0
M  V30 229 H 25.1496 -2.94749 0.525684 0
M  V30 230 H 22.6956 -1.41738 0.254251 0
M  V30 231 H 24.6486 -3.8365 -1.7433 0
M  V30 232 H 23.3726 -2.61279 -1.95961 0
M  V30 233 H 22.0316 -3.66451 -0.104489 0
M  V30 234 H 21.6796 -4.3788 -2.47529 0
M  V30 235 H 21.3796 -5.72059 -1.34249 0
M  V30 236 H 22.9036 -5.66701 -2.27338 0
M  V30 237 H 24.3176 -5.733 -0.00290157 0
M  V30 238 H 22.7146 -5.95305 0.757067 0
M  V30 239 H 23.7846 -4.66217 1.33303 0
M  V30 240 N 25.1277 -0.289203 -1.54924 0
M  V30 241 C 26.4047 0.376032 -1.91951 0
M  V30 242 C 26.7847 1.72622 -1.21511 0
M  V30 243 O 26.1327 2.25853 -0.346767 0
M  V30 244 C 26.3427 0.502378 -3.45365 0
M  V30 245 C 27.6907 0.778741 -4.17398 0
M  V30 246 O 28.7147 0.586647 -3.51336 0
M  V30 247 O 27.5737 1.14698 -5.34328 0
M  V30 248 H 24.6677 0.208167 -0.800372 0
M  V30 249 H 27.2137 -0.336394 -1.66332 0
M  V30 250 H 25.9857 -0.447255 -3.88736 0
M  V30 251 H 25.6087 1.26373 -3.76982 0
M  V30 252 N 26.6058 1.57591 -0.0167156 0
M  V30 253 C 27.5158 2.1291 0.98521 0
M  V30 254 C 28.5318 1.07834 1.36557 0
M  V30 255 O 29.7078 1.39826 1.44951 0
M  V30 256 C 26.7728 2.63512 2.25305 0
M  V30 257 C 25.8338 3.83256 1.93426 0
M  V30 258 C 25.0668 4.31435 3.14165 0
M  V30 259 O 25.2898 3.78851 4.26413 0
M  V30 260 O 24.2238 5.23416 2.97186 0
M  V30 261 H 28.0498 2.98772 0.544888 0
M  V30 262 H 25.6348 1.48012 0.203141 0
M  V30 263 H 27.5168 2.96183 2.99756 0
M  V30 264 H 26.1918 1.8074 2.68542 0
M  V30 265 H 25.0988 3.55531 1.16398 0
M  V30 266 H 26.4318 4.67153 1.55013 0
M  V30 267 N 28.0839 -0.256276 1.55502 0
M  V30 268 C 29.3139 -1.00196 1.80677 0
M  V30 269 C 29.7219 -1.79805 0.588797 0
M  V30 270 O 29.0649 -1.78055 -0.451883 0
M  V30 271 C 29.1269 -1.99515 2.99055 0
M  V30 272 C 28.7909 -1.38688 4.35448 0
M  V30 273 C 29.7879 -0.794079 5.138 0
M  V30 274 C 27.4729 -1.40906 4.82132 0
M  V30 275 C 29.4669 -0.231562 6.36979 0
M  V30 276 C 27.1539 -0.842684 6.05262 0
M  V30 277 C 28.1519 -0.254953 6.82524 0
M  V30 278 O 27.8399 0.3027 8.0333 0
M  V30 279 H 27.5719 -0.300919 0.60533 0
M  V30 280 H 30.1259 -0.287307 2.03381 0
M  V30 281 H 28.3559 -2.74785 2.72084 0
M  V30 282 H 30.0449 -2.60349 3.11405 0
M  V30 283 H 30.8109 -0.769519 4.78856 0
M  V30 284 H 26.6899 -1.85591 4.21992 0
M  V30 285 H 30.2339 0.227816 6.97228 0
M  V30 286 H 26.1309 -0.86454 6.39684 0
M  V30 287 H 26.8989 0.193662 8.18271 0
M  V30 288 N 29.562 -1.4872 -0.521534 0
M  V30 289 C 30.792 -1.6061 -1.29954 0
M  V30 290 C 31.2 -0.268728 -1.87282 0
M  V30 291 O 30.543 0.753221 -1.67548 0
M  V30 292 C 30.605 -2.60013 -2.48261 0
M  V30 293 C 30.269 -4.04874 -2.11957 0
M  V30 294 C 31.266 -4.92304 -1.67132 0
M  V30 295 C 28.951 -4.5047 -2.22221 0
M  V30 296 C 30.945 -6.2336 -1.33047 0
M  V30 297 C 28.632 -5.81544 -1.87748 0
M  V30 298 C 29.63 -6.67812 -1.43234 0
M  V30 299 O 29.318 -7.96446 -1.09217 0
M  V30 300 H 29.05 -0.544116 -0.401141 0
M  V30 301 H 31.604 -1.95339 -0.634958 0
M  V30 302 H 29.834 -2.20422 -3.17728 0
M  V30 303 H 31.523 -2.61648 -3.10315 0
M  V30 304 H 32.289 -4.58312 -1.58665 0
M  V30 305 H 28.168 -3.83504 -2.55823 0
M  V30 306 H 31.712 -6.90649 -0.982299 0
M  V30 307 H 27.609 -6.15069 -1.95858 0
M  V30 308 H 28.377 -8.09275 -1.22542 0
M  V30 309 N 31.0401 0.771051 -1.3745 0
M  V30 310 C 32.2881 1.52661 -1.32435 0
M  V30 311 C 32.6091 1.9479 0.0905024 0
M  V30 312 O 31.8791 1.66348 1.03466 0
M  V30 313 H 30.4591 0.566218 -0.487244 0
M  V30 314 H 33.1211 0.917636 -1.71946 0
M  V30 315 H 32.2171 2.42568 -1.96385 0
M  V30 316 N 32.5182 1.22032 0.997298 0
M  V30 317 C 33.7652 1.04222 1.73621 0
M  V30 318 C 34.0932 -0.423264 1.89839 0
M  V30 319 O 33.3482 -1.3302 1.43542 0
M  V30 320 C 33.6472 1.69345 3.14733 0
M  V30 321 C 33.3132 3.19226 3.18442 0
M  V30 322 C 31.9752 3.60124 3.19161 0
M  V30 323 C 34.3272 4.15181 3.15078 0
M  V30 324 C 31.6552 4.95467 3.14212 0
M  V30 325 C 34.0072 5.50495 3.1167 0
M  V30 326 C 32.6712 5.90779 3.10703 0
M  V30 327 H 31.9412 0.381374 0.635323 0
M  V30 328 H 34.5882 1.51732 1.16831 0
M  V30 329 H 32.8932 1.14147 3.74803 0
M  V30 330 H 34.5902 1.53059 3.7064 0
M  V30 331 H 31.1802 2.86659 3.18629 0
M  V30 332 H 35.3642 3.84605 3.13676 0
M  V30 333 H 30.6202 5.25916 3.11805 0
M  V30 334 H 34.7942 6.24576 3.08022 0
M  V30 335 H 32.4212 6.9562 3.06622 0
M  V30 336 N 33.9963 -1.19345 1.0293 0
M  V30 337 C 35.2423 -1.89585 0.736824 0
M  V30 338 C 35.5973 -1.78148 -0.726703 0
M  V30 339 O 34.8903 -1.16332 -1.52242 0
M  V30 340 C 35.0843 -3.39292 1.12319 0
M  V30 341 C 34.9133 -3.65298 2.62273 0
M  V30 342 C 33.6833 -3.83304 3.29251 0
M  V30 343 C 35.8813 -3.6682 3.60482 0
M  V30 344 N 33.8633 -3.96944 4.68304 0
M  V30 345 C 35.2343 -3.86037 4.85155 0
M  V30 346 C 37.2893 -3.49848 3.54275 0
M  V30 347 C 35.9923 -3.9004 6.04369 0
M  V30 348 C 38.0183 -3.55129 4.72903 0
M  V30 349 C 37.3803 -3.74831 5.9639 0
M  V30 350 H 33.4793 -0.712856 0.321497 0
M  V30 351 H 36.0633 -1.43427 1.31669 0
M  V30 352 H 34.2343 -3.84172 0.571524 0
M  V30 353 H 35.9663 -3.97055 0.78292 0
M  V30 354 H 32.7213 -3.82211 2.79663 0
M  V30 355 H 33.1453 -4.07613 5.40538 0
M  V30 356 H 37.7873 -3.33572 2.59788 0
M  V30 357 H 35.5053 -4.05108 6.99223 0
M  V30 358 H 39.0913 -3.43287 4.69729 0
M  V30 359 H 37.9713 -3.78792 6.86649 0
M  V30 360 N 35.4744 -0.807222 -1.35358 0
M  V30 361 C 36.6994 -0.399309 -2.0352 0
M  V30 362 C 37.1244 0.981986 -1.60433 0
M  V30 363 O 36.4824 1.63601 -0.781299 0
M  V30 364 C 36.5304 -0.491552 -3.57234 0
M  V30 365 O 35.6344 0.494754 -4.09421 0
M  V30 366 H 34.9754 -0.166682 -0.642739 0
M  V30 367 H 37.5054 -1.09328 -1.72941 0
M  V30 368 H 37.5154 -0.361588 -4.06395 0
M  V30 369 H 36.1904 -1.49907 -3.87944 0
M  V30 370 H 34.7674 0.324977 -3.71481 0
M  V30 371 N 36.9525 1.47285 -0.560781 0
M  V30 372 C 38.2005 2.02064 -0.0379868 0
M  V30 373 C 38.5215 1.43711 1.31803 0
M  V30 374 O 37.7915 0.61362 1.86042 0
M  V30 375 H 36.3715 0.746918 -0.0110531 0
M  V30 376 H 39.0335 1.80648 -0.731598 0
M  V30 377 H 38.1295 3.12064 0.0474463 0
M  V30 378 N 38.4306 0.297415 1.54768 0
M  V30 379 C 39.6786 -0.312295 1.99673 0
M  V30 380 C 39.9996 -1.54686 1.18732 0
M  V30 381 O 39.2696 -1.93854 0.282382 0
M  V30 382 H 37.8496 -0.118381 0.73756 0
M  V30 383 H 40.5116 0.407915 1.90583 0
M  V30 384 H 39.6076 -0.586813 3.06534 0
M  V30 385 N 39.9087 -1.5758 0.0250728 0
M  V30 386 C 40.8587 -2.06468 -0.967201 0
M  V30 387 C 41.8427 -0.964376 -1.28797 0
M  V30 388 O 43.0347 -1.22797 -1.27475 0
M  V30 389 C 40.1637 -2.59203 -2.25097 0
M  V30 390 C 39.2497 -3.76157 -1.95874 0
M  V30 391 N 39.6407 -4.86919 -1.36905 0
M  V30 392 C 37.9387 -3.84566 -2.25887 0
M  V30 393 C 38.6397 -5.68172 -1.24724 0
M  V30 394 N 37.6157 -5.14953 -1.74138 0
M  V30 395 H 41.4177 -2.89508 -0.506176 0
M  V30 396 H 38.9317 -1.61399 -0.18004 0
M  V30 397 H 40.9287 -2.92517 -2.97052 0
M  V30 398 H 39.5887 -1.77592 -2.71829 0
M  V30 399 H 40.5997 -5.07256 -1.04459 0
M  V30 400 H 37.2767 -3.13854 -2.75321 0
M  V30 401 H 38.6667 -6.67221 -0.791605 0
M  V30 402 N 41.3868 0.248026 -1.55636 0
M  V30 403 C 42.3188 1.32993 -1.8667 0
M  V30 404 C 43.3318 1.44345 -0.752877 0
M  V30 405 O 44.5208 1.45715 -1.03098 0
M  V30 406 C 41.6208 2.70863 -2.03682 0
M  V30 407 C 40.7938 2.81792 -3.34532 0
M  V30 408 C 39.8528 4.005 -3.41301 0
M  V30 409 O 38.8788 3.9008 -4.14519 0
M  V30 410 N 40.0808 5.13618 -2.70512 0
M  V30 411 H 42.8458 1.06707 -2.8006 0
M  V30 412 H 40.4068 0.438129 -1.55859 0
M  V30 413 H 42.3988 3.48612 -2.05553 0
M  V30 414 H 40.9688 2.89862 -1.17041 0
M  V30 415 H 40.1888 1.90729 -3.44987 0
M  V30 416 H 41.4768 2.86043 -4.20781 0
M  V30 417 H 40.8748 5.24975 -2.10755 0
M  V30 418 H 39.4318 5.89505 -2.78077 0
M  V30 419 N 42.8649 1.48995 0.513639 0
M  V30 420 C 44.1129 1.57531 1.26604 0
M  V30 421 C 44.4339 0.258236 1.93283 0
M  V30 422 O 43.7039 -0.721502 1.8213 0
M  V30 423 H 42.2839 0.580387 0.470276 0
M  V30 424 H 44.9459 1.85552 0.596373 0
M  V30 425 H 44.0419 2.36486 2.03669 0
M  V30 426 N 44.343 -0.763751 1.37857 0
M  V30 427 C 45.253 -1.90817 1.36478 0
M  V30 428 C 46.269 -1.71997 0.263248 0
M  V30 429 O 47.445 -1.95095 0.499979 0
M  V30 430 C 44.51 -3.2605 1.17864 0
M  V30 431 C 43.571 -3.57467 2.3773 0
M  V30 432 C 42.804 -4.86249 2.19995 0
M  V30 433 O 43.027 -5.57884 1.18836 0
M  V30 434 O 41.961 -5.16911 3.08361 0
M  V30 435 H 45.787 -1.94933 2.32884 0
M  V30 436 H 43.372 -0.907619 1.1867 0
M  V30 437 H 45.254 -4.06924 1.09504 0
M  V30 438 H 43.929 -3.22769 0.245372 0
M  V30 439 H 42.836 -2.76796 2.51664 0
M  V30 440 H 44.169 -3.655 3.29652 0
M  V30 441 N 45.8211 -1.22559 -0.990812 0
M  V30 442 C 47.0671 -1.05297 -1.73322 0
M  V30 443 C 47.4001 0.410655 -1.89808 0
M  V30 444 O 46.6751 1.30439 -1.44277 0
M  V30 445 C 46.9581 -1.76713 -3.13759 0
M  V30 446 C 46.8111 -3.30684 -3.04907 0
M  V30 447 C 48.1301 -1.52121 -4.12974 0
M  V30 448 H 45.2491 -0.38392 -0.629106 0
M  V30 449 H 47.8911 -1.50926 -1.15418 0
M  V30 450 H 46.0411 -1.37924 -3.63193 0
M  V30 451 H 47.7131 -3.7893 -2.63077 0
M  V30 452 H 45.9561 -3.60253 -2.41661 0
M  V30 453 H 46.6271 -3.75833 -4.04294 0
M  V30 454 H 49.1031 -1.85819 -3.72304 0
M  V30 455 H 47.9791 -2.04582 -5.0935 0
M  V30 456 H 48.2401 -0.454257 -4.3976 0
M  V30 457 N 47.2992 1.18797 -1.03562 0
M  V30 458 C 48.7152 1.40671 -0.753917 0
M  V30 459 C 48.9152 1.9043 0.658686 0
M  V30 460 O 47.9712 2.08538 1.42366 0
M  V30 461 C 49.2842 2.41192 -1.79574 0
M  V30 462 C 50.8322 2.54928 -1.81606 0
M  V30 463 C 51.3072 3.58709 -2.84766 0
M  V30 464 N 52.7982 3.66212 -2.83625 0
M  V30 465 C 53.5332 4.46225 -3.60098 0
M  V30 466 N 53.0292 5.29888 -4.46308 0
M  V30 467 N 54.8222 4.40939 -3.4861 0
M  V30 468 H 46.9732 0.848221 -1.94728 0
M  V30 469 H 49.2362 0.435081 -0.842264 0
M  V30 470 H 48.9422 2.11669 -2.80872 0
M  V30 471 H 48.8162 3.40467 -1.62365 0
M  V30 472 H 51.2032 2.83771 -0.809817 0
M  V30 473 H 51.2842 1.55784 -2.02891 0
M  V30 474 H 50.9282 3.30607 -3.85566 0
M  V30 475 H 50.8582 4.57519 -2.60737 0
M  V30 476 H 53.3492 3.06466 -2.21105 0
M  V30 477 H 53.6622 5.88078 -5.01382 0
M  V30 478 H 52.0072 5.29326 -4.50377 0
M  V30 479 H 55.1982 3.74624 -2.80668 0
M  V30 480 H 55.3712 5.03056 -4.08459 0
M  V30 481 N 48.7773 0.814389 1.34928 0
M  V30 482 C 50.0233 0.399013 1.98836 0
M  V30 483 C 50.3563 -1.03314 1.64438 0
M  V30 484 O 49.6313 -1.71811 0.911659 0
M  V30 485 C 49.9143 0.591629 3.55207 0
M  V30 486 C 49.7673 2.06928 3.99376 0
M  V30 487 C 51.0863 0.022199 4.40094 0
M  V30 488 H 48.2053 0.146451 0.722303 0
M  V30 489 H 50.8473 1.02537 1.59957 0
M  V30 490 H 48.9973 0.0584441 3.88456 0
M  V30 491 H 50.6693 2.66544 3.76499 0
M  V30 492 H 48.9123 2.56287 3.49999 0
M  V30 493 H 49.5833 2.1549 5.08201 0
M  V30 494 H 52.0593 0.477643 4.13349 0
M  V30 495 H 50.9353 0.186832 5.48582 0
M  V30 496 H 51.1963 -1.07215 4.28902 0
M  V30 497 N 50.2554 -1.46986 0.568584 0
M  V30 498 C 51.1854 -2.32946 -0.160753 0
M  V30 499 C 52.1664 -1.44487 -0.897631 0
M  V30 500 O 53.3514 -1.73327 -0.875867 0
M  V30 501 C 50.4814 -3.26494 -1.18403 0
M  V30 502 C 49.4354 -4.24282 -0.562895 0
M  V30 503 C 48.7614 -5.07236 -1.69163 0
M  V30 504 C 50.0614 -5.19989 0.490761 0
M  V30 505 H 51.7554 -2.94175 0.556916 0
M  V30 506 H 49.3014 -1.4146 0.26927 0
M  V30 507 H 51.2544 -3.85477 -1.70251 0
M  V30 508 H 49.9784 -2.63343 -1.93179 0
M  V30 509 H 48.6374 -3.66541 -0.0656164 0
M  V30 510 H 48.2854 -4.4048 -2.42871 0
M  V30 511 H 47.9854 -5.7345 -1.28174 0
M  V30 512 H 49.5094 -5.6908 -2.21314 0
M  V30 513 H 50.9234 -5.73271 0.0579047 0
M  V30 514 H 49.3204 -5.94469 0.820165 0
M  V30 515 H 50.3904 -4.64777 1.3824 0
M  V30 516 N 51.7335 -0.305618 -1.54608 0
M  V30 517 C 52.9815 0.301701 -1.99835 0
M  V30 518 C 53.3025 1.54054 -1.19551 0
M  V30 519 O 52.5725 1.93702 -0.292658 0
M  V30 520 H 51.1525 0.114468 -0.738178 0
M  V30 521 H 53.8145 -0.418016 -1.90364 0
M  V30 522 H 52.9105 0.570548 -3.06841 0
M  V30 523 N 53.2116 1.57565 -0.0334293 0
M  V30 524 C 54.4576 1.92262 0.645226 0
M  V30 525 C 54.7906 0.910543 1.71531 0
M  V30 526 O 54.0656 -0.066099 1.94388 0
M  V30 527 C 54.3486 3.37422 1.2577 0
M  V30 528 C 54.2016 4.49369 0.196891 0
M  V30 529 C 55.5206 3.82628 2.17449 0
M  V30 530 H 52.6396 0.699171 0.233085 0
M  V30 531 H 55.2816 1.89779 -0.0915694 0
M  V30 532 H 53.4316 3.39669 1.88566 0
M  V30 533 H 55.1036 4.59254 -0.433962 0
M  V30 534 H 53.3466 4.31168 -0.477137 0
M  V30 535 H 54.0176 5.47978 0.665124 0
M  V30 536 H 56.4936 3.82145 1.64634 0
M  V30 537 H 55.3696 4.84883 2.57254 0
M  V30 538 H 55.6306 3.18376 3.0674 0
M  V30 539 N 54.6897 -0.239769 1.55765 0
M  V30 540 C 56.1007 -0.808263 1.68297 0
M  V30 541 C 56.4517 -1.85736 0.632181 0
M  V30 542 O 55.5767 -2.15277 -0.220204 0
M  V30 543 C 56.1717 -1.47284 3.05111 0
M  V30 544 C 54.7307 -1.98895 3.19559 0
M  V30 545 C 53.8777 -0.842575 2.64189 0
M  V30 546 H 56.8287 -0.0154422 1.58692 0
M  V30 547 H 56.8497 -2.34111 2.99954 0
M  V30 548 H 56.3617 -0.709053 3.81568 0
M  V30 549 H 54.4627 -2.78132 2.47938 0
M  V30 550 H 54.5757 -2.18143 4.26556 0
M  V30 551 H 52.9397 -1.24501 2.22197 0
M  V30 552 H 53.7227 -0.0917552 3.43177 0
M  V30 553 N 56.1678 -1.49265 -0.50573 0
M  V30 554 C 57.3928 -1.62478 -1.28902 0
M  V30 555 C 57.8178 -0.294332 -1.85783 0
M  V30 556 O 57.1758 0.737412 -1.65626 0
M  V30 557 C 57.2238 -2.69268 -2.39848 0
M  V30 558 O 56.3278 -2.28113 -3.43567 0
M  V30 559 H 55.6688 -0.54399 -0.380751 0
M  V30 560 H 58.1988 -1.95421 -0.605952 0
M  V30 561 H 58.2088 -2.91291 -2.85681 0
M  V30 562 H 56.8838 -3.65846 -1.97812 0
M  V30 563 H 55.4608 -2.16401 -3.03685 0
M  V30 564 N 57.6459 0.756429 -1.3826 0
M  V30 565 C 58.5789 1.87802 -1.29637 0
M  V30 566 C 59.5569 1.61667 -0.173939 0
M  V30 567 O 60.7409 1.85208 -0.350775 0
M  V30 568 C 57.8679 3.23354 -1.00797 0
M  V30 569 C 56.9139 3.68379 -2.14939 0
M  V30 570 S 57.7469 3.8025 -3.77054 0
M  V30 571 C 58.9029 5.18626 -3.50396 0
M  V30 572 H 59.1359 1.94829 -2.24564 0
M  V30 573 H 56.6689 0.919117 -1.24063 0
M  V30 574 H 58.6269 4.01637 -0.848413 0
M  V30 575 H 57.2879 3.14008 -0.0759369 0
M  V30 576 H 56.4809 4.66693 -1.90299 0
M  V30 577 H 56.0829 2.97242 -2.26988 0
M  V30 578 H 58.3749 6.04289 -3.06334 0
M  V30 579 H 59.3179 5.48286 -4.48094 0
M  V30 580 H 59.7259 4.87289 -2.84973 0
M  V30 581 N 59.124 1.23083 0.984299 0
M  V30 582 C 60.54 0.992637 1.24975 0
M  V30 583 C 60.74 -0.308618 1.99123 0
M  V30 584 O 59.796 -1.02905 2.30579 0
M  V30 585 C 61.109 2.19698 2.05312 0
M  V30 586 C 62.657 2.24147 2.18465 0
M  V30 587 C 63.132 3.44157 3.02192 0
M  V30 588 N 64.623 3.44372 3.09777 0
M  V30 589 C 65.358 4.33886 3.74874 0
M  V30 590 N 64.854 5.3363 4.41827 0
M  V30 591 N 66.647 4.21639 3.71721 0
M  V30 592 H 58.798 2.06731 0.487453 0
M  V30 593 H 61.061 0.906339 0.277944 0
M  V30 594 H 60.767 3.1411 1.58201 0
M  V30 595 H 60.641 2.20465 3.06064 0
M  V30 596 H 63.028 1.30277 2.64786 0
M  V30 597 H 63.109 2.27415 1.17115 0
M  V30 598 H 62.753 4.38332 2.56568 0
M  V30 599 H 62.683 3.3813 4.03702 0
M  V30 600 H 65.174 2.72201 2.62135 0
M  V30 601 H 65.487 5.98196 4.89266 0
M  V30 602 H 63.832 5.37534 4.40548 0
M  V30 603 H 67.023 3.42962 3.18582 0
M  V30 604 H 67.196 4.91604 4.22173 0
M  V30 605 N 60.6021 -1.18246 1.0419 0
M  V30 606 C 61.5121 -2.25574 0.644476 0
M  V30 607 C 62.5281 -1.70845 -0.329826 0
M  V30 608 O 63.7041 -2.00554 -0.184443 0
M  V30 609 C 60.7691 -3.46697 0.014877 0
M  V30 610 C 59.8301 -4.16554 1.03834 0
M  V30 611 C 59.0631 -5.31894 0.438692 0
M  V30 612 O 59.2861 -5.65385 -0.754752 0
M  V30 613 O 58.2201 -5.90459 1.168 0
M  V30 614 H 62.0461 -2.61836 1.53869 0
M  V30 615 H 59.6311 -1.25352 0.812854 0
M  V30 616 H 61.5131 -4.20062 -0.335538 0
M  V30 617 H 60.1881 -3.12255 -0.853138 0
M  V30 618 H 59.0951 -3.45251 1.44057 0
M  V30 619 H 60.4281 -4.54998 1.87716 0
M  V30 620 N 62.0802 -0.821533 -1.34494 0
M  V30 621 C 63.0102 -0.257138 -2.3208 0
M  V30 622 C 63.9912 0.625645 -1.58176 0
M  V30 623 O 65.1762 0.552811 -1.86166 0
M  V30 624 C 62.3062 0.582958 -3.42372 0
M  V30 625 C 61.2602 -0.202571 -4.2752 0
M  V30 626 C 60.5862 0.760179 -5.29269 0
M  V30 627 C 61.8862 -1.40998 -5.02908 0
M  V30 628 H 63.5802 -1.07247 -2.79532 0
M  V30 629 H 61.1262 -0.517163 -1.34393 0
M  V30 630 H 63.0792 0.987972 -4.09655 0
M  V30 631 H 61.8032 1.43133 -2.93565 0
M  V30 632 H 60.4622 -0.588936 -3.61838 0
M  V30 633 H 60.1102 1.60447 -4.76724 0
M  V30 634 H 59.8102 0.238809 -5.87115 0
M  V30 635 H 61.3342 1.16308 -5.9942 0
M  V30 636 H 62.7482 -1.07905 -5.63054 0
M  V30 637 H 61.1452 -1.86689 -5.70322 0
M  V30 638 H 62.2152 -2.1889 -4.32684 0
M  V30 639 N 63.5583 1.46682 -0.576371 0
M  V30 640 C 64.4913 2.27243 0.208731 0
M  V30 641 C 65.4693 1.35238 0.902746 0
M  V30 642 O 66.6533 1.64641 0.917904 0
M  V30 643 C 63.7803 3.12802 1.29896 0
M  V30 644 C 62.8263 4.20524 0.711457 0
M  V30 645 S 63.6593 5.33548 -0.456781 0
M  V30 646 C 64.8153 6.22673 0.634798 0
M  V30 647 H 65.0483 2.93484 -0.474838 0
M  V30 648 H 62.5813 1.50069 -0.363118 0
M  V30 649 H 64.5393 3.62661 1.92321 0
M  V30 650 H 63.2003 2.45887 1.95444 0
M  V30 651 H 62.3933 4.80191 1.53076 0
M  V30 652 H 61.9953 3.73645 0.162999 0
M  V30 653 H 64.2873 6.60181 1.52209 0
M  V30 654 H 65.2303 7.0806 0.0750311 0
M  V30 655 H 65.6383 5.56684 0.936092 0
M  V30 656 N 65.0364 0.313813 1.54444 0
M  V30 657 C 66.4524 -0.0391619 1.59552 0
M  V30 658 C 66.6524 -1.51322 1.33056 0
M  V30 659 O 65.7084 -2.26782 1.11022 0
M  V30 660 C 67.0214 0.370302 2.98411 0
M  V30 661 C 68.5694 0.320139 3.11358 0
M  V30 662 C 69.0444 0.704617 4.52547 0
M  V30 663 N 70.5354 0.657645 4.58508 0
M  V30 664 C 71.2704 0.927453 5.6585 0
M  V30 665 N 70.7664 1.26389 6.81174 0
M  V30 666 N 72.5594 0.853662 5.5558 0
M  V30 667 H 64.7104 1.27433 1.69925 0
M  V30 668 H 66.9734 0.517511 0.794284 0
M  V30 669 H 66.6794 1.39694 3.22767 0
M  V30 670 H 66.5534 -0.269619 3.76235 0
M  V30 671 H 68.9404 -0.697275 2.86744 0
M  V30 672 H 69.0214 0.99486 2.35661 0
M  V30 673 H 68.6654 1.7199 4.77893 0
M  V30 674 H 68.5954 0.00768843 5.26599 0
M  V30 675 H 71.0864 0.409067 3.75679 0
M  V30 676 H 71.3994 1.4554 7.58972 0
M  V30 677 H 69.7444 1.30206 6.82694 0
M  V30 678 H 72.9354 0.590383 4.64362 0
M  V30 679 H 73.1084 1.0673 6.3915 0
M  V30 680 N 66.5145 -1.57545 0.0417849 0
M  V30 681 C 67.7635 -1.91494 -0.633492 0
M  V30 682 C 68.0765 -0.921084 -1.72556 0
M  V30 683 O 69.2825 -1.15228 -2.45835 0
M  V30 684 C 67.7385 -3.40072 -1.17808 0
M  V30 685 C 67.3465 -4.47843 -0.118633 0
M  V30 686 C 69.0905 -3.8307 -1.82915 0
M  V30 687 C 66.9975 -5.87529 -0.675578 0
M  V30 688 H 65.9275 -0.714653 -0.24039 0
M  V30 689 H 68.5785 -1.83175 0.109148 0
M  V30 690 H 66.9605 -3.43364 -1.97274 0
M  V30 691 H 68.1345 -4.56128 0.654494 0
M  V30 692 H 66.4495 -4.14128 0.434414 0
M  V30 693 H 69.0465 -4.84794 -2.25563 0
M  V30 694 H 69.3895 -3.1881 -2.67705 0
M  V30 695 H 69.9225 -3.82255 -1.10119 0
M  V30 696 H 66.6615 -6.55362 0.134475 0
M  V30 697 H 66.1815 -5.82824 -1.4169 0
M  V30 698 H 67.8605 -6.36491 -1.1614 0
M  V30 699 N 67.9926 0.231505 -1.5589 0
M  V30 700 C 69.4036 0.799327 -1.68724 0
M  V30 701 C 69.7546 1.85398 -0.642022 0
M  V30 702 O 68.8796 2.1539 0.208784 0
M  V30 703 C 69.4746 1.45664 -3.05888 0
M  V30 704 C 68.0336 1.97197 -3.20609 0
M  V30 705 C 67.1806 0.828552 -2.64632 0
M  V30 706 H 70.1316 0.00702616 -1.58698 0
M  V30 707 H 70.1526 2.32517 -3.01191 0
M  V30 708 H 69.6646 0.688808 -3.81939 0
M  V30 709 H 67.7656 2.76813 -2.4941 0
M  V30 710 H 67.8786 2.15878 -4.27707 0
M  V30 711 H 66.2426 1.23321 -2.22854 0
M  V30 712 H 67.0256 0.0735544 -3.43221 0
M  V30 713 N 69.4707 1.49531 0.497807 0
M  V30 714 C 70.7167 1.59415 1.25358 0
M  V30 715 C 71.0497 0.281422 1.9215 0
M  V30 716 O 70.3247 -0.715249 1.80871 0
M  V30 717 C 70.6077 2.75566 2.3181 0
M  V30 718 C 70.4607 4.16642 1.69498 0
M  V30 719 C 71.7797 2.87347 3.33346 0
M  V30 720 H 68.8987 0.580244 0.454408 0
M  V30 721 H 71.5407 1.81827 0.551262 0
M  V30 722 H 69.6907 2.56587 2.91711 0
M  V30 723 H 71.3627 4.47145 1.13399 0
M  V30 724 H 69.6057 4.22141 0.998978 0
M  V30 725 H 70.2767 4.93792 2.46725 0
M  V30 726 H 72.7527 3.04634 2.83438 0
M  V30 727 H 71.6287 3.70289 4.05188 0
M  V30 728 H 71.8897 1.96834 3.95865 0
M  V30 729 N 70.9488 -0.749086 1.3866 0
M  V30 730 C 72.1958 -1.50833 1.35114 0
M  V30 731 C 72.5238 -1.94415 -0.0574049 0
M  V30 732 O 71.7788 -1.66065 -1.03541 0
M  V30 733 C 72.0778 -2.7712 2.25697 0
M  V30 734 C 71.7438 -2.52477 3.73585 0
M  V30 735 C 70.4058 -2.45466 4.13884 0
M  V30 736 C 72.7578 -2.31066 4.67181 0
M  V30 737 C 70.0858 -2.15064 5.45861 0
M  V30 738 C 72.4378 -2.02183 5.9942 0
M  V30 739 C 71.1018 -1.93631 6.38798 0
M  V30 740 H 70.3718 -0.551936 0.494416 0
M  V30 741 H 73.0188 -0.860979 1.71054 0
M  V30 742 H 71.3238 -3.46528 1.82827 0
M  V30 743 H 73.0208 -3.35096 2.20254 0
M  V30 744 H 69.6108 -2.58807 3.41638 0
M  V30 745 H 73.7948 -2.35459 4.3689 0
M  V30 746 H 69.0508 -2.06954 5.75308 0
M  V30 747 H 73.2248 -1.8462 6.71482 0
M  V30 748 H 70.8518 -1.69839 7.40985 0
M  V30 749 N 72.4269 -1.23603 -0.977757 0
M  V30 750 C 73.3749 -1.01704 -2.09187 0
M  V30 751 C 74.3689 0.0448214 -1.69341 0
M  V30 752 O 75.5749 -0.108902 -1.7967 0
M  V30 753 H 71.9499 -0.311803 -0.684312 0
M  V30 754 H 73.9209 -1.96207 -2.24823 0
M  V30 755 C 72.6699 -0.627746 -3.41986 0
M  V30 756 H 71.9929 -1.43656 -3.73099 0
M  V30 757 H 73.4329 -0.514053 -4.20872 0
M  V30 758 C 71.8919 0.664238 -3.30287 0
M  V30 759 O 72.4219 1.71268 -3.6336 0
M  V30 760 N 70.6279 0.641156 -2.83439 0
M  V30 761 H 70.1749 -0.212376 -2.56723 0
M  V30 762 H 70.1329 1.50583 -2.75993 0
M  V30 763 N 73.905 1.17692 -1.04816 0
M  V30 764 C 75.151 1.88137 -0.75711 0
M  V30 765 C 75.484 1.80604 0.713841 0
M  V30 766 O 74.759 1.21146 1.52164 0
M  V30 767 C 75.042 3.38318 -1.2334 0
M  V30 768 C 74.895 3.54622 -2.76701 0
M  V30 769 C 76.214 4.32214 -0.829415 0
M  V30 770 H 73.333 0.683163 -0.27651 0
M  V30 771 H 75.975 1.38424 -1.30149 0
M  V30 772 H 74.125 3.80787 -0.770286 0
M  V30 773 H 75.797 3.21194 -3.31107 0
M  V30 774 H 74.04 2.97026 -3.16161 0
M  V30 775 H 74.711 4.60028 -3.05088 0
M  V30 776 H 77.187 3.97565 -1.22805 0
M  V30 777 H 76.063 5.35838 -1.19033 0
M  V30 778 H 76.324 4.41294 0.266891 0
M  V30 779 N 75.3831 0.828654 1.34056 0
M  V30 780 C 76.6601 0.341809 1.9259 0
M  V30 781 C 77.0401 -1.17158 1.75605 0
M  V30 782 O 76.3881 -1.98132 1.13824 0
M  V30 783 C 76.5981 0.777453 3.4023 0
M  V30 784 C 77.9461 0.779579 4.17382 0
M  V30 785 O 78.9701 0.7204 3.48839 0
M  V30 786 O 77.8291 0.857996 5.39723 0
M  V30 787 H 74.9231 0.0946085 0.821571 0
M  V30 788 H 77.4691 0.913827 1.42994 0
M  V30 789 H 76.2411 1.8196 3.46419 0
M  V30 790 H 75.8641 0.181444 3.97186 0
M  V30 791 N 76.8612 -1.46375 0.584142 0
M  V30 792 C 78.0862 -2.07268 0.0740405 0
M  V30 793 C 78.5112 -1.42979 -1.22223 0
M  V30 794 O 77.8692 -0.514092 -1.73859 0
M  V30 795 C 77.9172 -3.60518 -0.0767769 0
M  V30 796 O 77.0212 -3.96533 -1.13292 0
M  V30 797 H 76.3622 -0.660961 0.0634524 0
M  V30 798 H 78.8922 -1.87991 0.807492 0
M  V30 799 H 78.9022 -4.07021 -0.282489 0
M  V30 800 H 77.5772 -4.06702 0.86986 0
M  V30 801 H 76.1542 -3.61738 -0.905553 0
M  V30 802 N 78.3393 -0.321999 -1.54275 0
M  V30 803 C 79.3023 0.531975 -2.22941 0
M  V30 804 C 80.3023 1.04478 -1.22234 0
M  V30 805 O 81.4923 0.937452 -1.46825 0
M  V30 806 C 78.6243 1.73874 -2.93224 0
M  V30 807 H 79.8173 -0.0682612 -2.99822 0
M  V30 808 H 77.3703 -0.0730644 -1.56129 0
M  V30 809 H 78.1053 2.37825 -2.20476 0
M  V30 810 H 77.8903 1.37847 -3.6707 0
M  V30 811 H 79.3803 2.34496 -3.45545 0
M  V30 812 N 79.8174 1.5752 -0.0501392 0
M  V30 813 C 81.0454 1.96963 0.633492 0
M  V30 814 C 81.4604 0.927631 1.6444 0
M  V30 815 O 80.8174 -0.0882665 1.82286 0
M  V30 816 C 80.8684 3.36487 1.32132 0
M  V30 817 O 80.5894 4.36693 0.350894 0
M  V30 818 C 82.0904 3.90682 2.09481 0
M  V30 819 H 79.3104 0.648244 0.173266 0
M  V30 820 H 81.8544 2.0417 -0.116134 0
M  V30 821 H 80.0094 3.30434 2.02218 0
M  V30 822 H 80.4234 5.17702 0.841735 0
M  V30 823 H 81.8974 4.90591 2.5303 0
M  V30 824 H 82.3744 3.26053 2.94255 0
M  V30 825 H 82.9804 4.00069 1.44307 0
M  V30 826 N 81.2955 -0.223234 1.56011 0
M  V30 827 C 82.5435 -0.946003 1.78592 0
M  V30 828 C 82.8645 -1.84936 0.618349 0
M  V30 829 O 82.1345 -1.92473 -0.364833 0
M  V30 830 H 80.7145 -0.352298 0.658707 0
M  V30 831 H 83.3765 -0.235494 1.93472 0
M  V30 832 H 82.4725 -1.55381 2.70672 0
M  V30 833 N 82.7736 -1.49793 -0.48987 0
M  V30 834 C 84.0196 -1.61049 -1.24236 0
M  V30 835 C 84.3746 -0.298412 -1.90072 0
M  V30 836 O 83.6676 0.702262 -1.78266 0
M  V30 837 C 83.8616 -2.71488 -2.32441 0
M  V30 838 C 83.6906 -4.13308 -1.77218 0
M  V30 839 C 82.4606 -4.79955 -1.58023 0
M  V30 840 C 84.6586 -4.98176 -1.27772 0
M  V30 841 N 82.6406 -6.06052 -0.978465 0
M  V30 842 C 84.0116 -6.14843 -0.798 0
M  V30 843 C 86.0666 -4.84091 -1.16449 0
M  V30 844 C 84.7696 -7.18975 -0.216245 0
M  V30 845 C 86.7956 -5.88382 -0.596698 0
M  V30 846 C 86.1576 -7.04285 -0.127262 0
M  V30 847 H 82.2566 -0.643611 -0.444172 0
M  V30 848 H 84.8406 -1.86842 -0.54754 0
M  V30 849 H 83.0116 -2.47449 -2.99372 0
M  V30 850 H 84.7436 -2.72205 -2.99477 0
M  V30 851 H 81.4986 -4.36936 -1.82712 0
M  V30 852 H 81.9226 -6.73407 -0.696534 0
M  V30 853 H 86.5646 -3.94786 -1.5134 0
M  V30 854 H 84.2826 -8.0797 0.144903 0
M  V30 855 H 87.8686 -5.79545 -0.511716 0
M  V30 856 H 86.7486 -7.83606 0.30523 0
M  V30 857 N 84.2517 0.741722 -1.39055 0
M  V30 858 C 85.4997 1.49818 -1.35643 0
M  V30 859 C 85.8207 1.94938 0.0491642 0
M  V30 860 O 85.0907 1.68505 0.999141 0
M  V30 861 H 83.6707 0.555755 -0.499144 0
M  V30 862 H 86.3327 0.880957 -1.73854 0
M  V30 863 H 85.4287 2.38348 -2.01486 0
M  V30 864 N 85.7298 1.2412 0.971189 0
M  V30 865 C 86.9788 1.07284 1.70801 0
M  V30 866 C 87.2918 -0.388902 1.91695 0
M  V30 867 O 88.4978 -0.677379 2.62914 0
M  V30 868 C 86.9538 1.87145 3.07416 0
M  V30 869 C 86.5618 3.37707 2.94377 0
M  V30 870 C 88.3058 1.78828 3.84995 0
M  V30 871 C 86.2128 4.09925 4.26281 0
M  V30 872 H 85.1428 0.397854 0.64049 0
M  V30 873 H 87.7938 1.4817 1.0825 0
M  V30 874 H 86.1758 1.39071 3.70777 0
M  V30 875 H 87.3498 3.93335 2.4005 0
M  V30 876 H 85.6648 3.46938 2.30267 0
M  V30 877 H 88.2618 2.30089 4.82662 0
M  V30 878 H 88.6048 0.75284 4.09436 0
M  V30 879 H 89.1378 2.24563 3.28354 0
M  V30 880 H 85.8768 5.13813 4.07033 0
M  V30 881 H 85.3968 3.59083 4.80437 0
M  V30 882 H 87.0758 4.1673 4.94919 0
M  V30 883 N 87.2079 -1.17134 1.05439 0
M  V30 884 C 88.4359 -1.91372 0.786414 0
M  V30 885 C 88.8509 -1.76955 -0.658202 0
M  V30 886 O 88.2079 -1.10838 -1.44987 0
M  V30 887 C 88.2589 -3.42356 1.1608 0
M  V30 888 O 87.9799 -3.56332 2.54871 0
M  V30 889 C 89.4809 -4.33663 0.919322 0
M  V30 890 H 86.7009 -0.607118 0.285743 0
M  V30 891 H 89.2449 -1.48525 1.40572 0
M  V30 892 H 87.3999 -3.82939 0.586191 0
M  V30 893 H 87.8139 -4.49896 2.69618 0
M  V30 894 H 89.2879 -5.38099 1.231 0
M  V30 895 H 89.7649 -4.38959 -0.145359 0
M  V30 896 H 90.3709 -3.98796 1.47789 0
M  V30 897 N 88.686 -0.835752 -1.33615 0
M  V30 898 C 89.634 -0.255238 -2.31195 0
M  V30 899 C 90.628 0.61107 -1.57995 0
M  V30 900 O 91.834 0.500979 -1.72888 0
M  V30 901 H 88.209 -0.0638085 -0.749288 0
M  V30 902 H 90.18 -1.09283 -2.77669 0
M  V30 903 C 88.929 0.55754 -3.43201 0
M  V30 904 H 88.252 -0.0997553 -3.99676 0
M  V30 905 H 89.692 0.929622 -4.13683 0
M  V30 906 C 88.151 1.73515 -2.88781 0
M  V30 907 O 88.681 2.83376 -2.84712 0
M  V30 908 N 86.887 1.55603 -2.4543 0
M  V30 909 H 86.434 0.662354 -2.48939 0
M  V30 910 H 86.392 2.34545 -2.09371 0
M  V30 911 N 90.1641 1.46063 -0.591896 0
M  V30 912 C 91.0741 2.34192 0.13831 0
M  V30 913 C 92.0901 1.50305 0.876608 0
M  V30 914 O 93.2661 1.8315 0.837728 0
M  V30 915 C 90.3311 3.27656 1.13326 0
M  V30 916 C 89.3921 4.27445 0.39863 0
M  V30 917 C 88.6251 5.16443 1.34618 0
M  V30 918 O 88.8481 5.08553 2.58321 0
M  V30 919 O 87.7821 5.95843 0.851768 0
M  V30 920 H 91.6081 2.98002 -0.58552 0
M  V30 921 H 89.1931 1.45188 -0.352239 0
M  V30 922 H 91.0751 3.85291 1.70671 0
M  V30 923 H 89.7501 2.6643 1.83839 0
M  V30 924 H 88.6571 3.73471 -0.216895 0
M  V30 925 H 89.9901 4.91482 -0.265709 0
M  V30 926 N 91.6422 0.330177 1.54103 0
M  V30 927 C 92.8672 -0.274893 2.0557 0
M  V30 928 C 93.2922 -1.44487 1.20437 0
M  V30 929 O 92.6502 -1.80021 0.214991 0
M  V30 930 C 92.6982 -0.68079 3.54115 0
M  V30 931 O 91.8022 -1.7824 3.71893 0
M  V30 932 H 91.1432 -0.0483849 0.662235 0
M  V30 933 H 93.6732 0.480508 1.98878 0
M  V30 934 H 93.6832 -0.961635 3.96505 0
M  V30 935 H 92.3582 0.174903 4.15532 0
M  V30 936 H 90.9352 -1.49985 3.41407 0
M  V30 937 N 93.1203 -1.57491 0.0584922 0
M  V30 938 C 94.0673 -2.11958 -0.913376 0
M  V30 939 C 95.0373 -1.02875 -1.30407 0
M  V30 940 O 96.2223 -1.30464 -1.39226 0
M  V30 941 C 93.3623 -2.67497 -2.18035 0
M  V30 942 C 92.4753 -3.90691 -1.84349 0
M  V30 943 C 91.6103 -4.3452 -3.05559 0
M  V30 944 C 90.6493 -5.50395 -2.67827 0
M  V30 945 N 89.7863 -5.89244 -3.81754 0
M  V30 946 H 94.6263 -2.94704 -0.442017 0
M  V30 947 H 92.1633 -1.45643 -0.206545 0
M  V30 948 H 94.1213 -2.978 -2.92183 0
M  V30 949 H 92.7513 -1.87537 -2.62735 0
M  V30 950 H 91.8033 -3.66934 -1.00319 0
M  V30 951 H 93.1153 -4.7489 -1.5258 0
M  V30 952 H 92.2693 -4.66414 -3.87998 0
M  V30 953 H 91.0083 -3.49147 -3.40511 0
M  V30 954 H 90.0133 -5.18165 -1.83806 0
M  V30 955 H 91.2383 -6.3749 -2.34059 0
M  V30 956 H 89.1843 -5.06823 -4.16493 0
M  V30 957 H 89.1013 -6.68151 -3.53708 0
M  V30 958 H 90.3693 -6.25756 -4.64811 0
M  V30 959 N 94.5984 0.214957 -1.56127 0
M  V30 960 C 95.5084 1.28727 -1.96129 0
M  V30 961 C 96.5244 1.50916 -0.866044 0
M  V30 962 O 97.7004 1.63918 -1.17016 0
M  V30 963 C 94.7654 2.61569 -2.27558 0
M  V30 964 C 93.8264 2.47625 -3.50685 0
M  V30 965 C 93.0594 3.74132 -3.80606 0
M  V30 966 O 93.2824 4.77438 -3.12104 0
M  V30 967 O 92.2164 3.70849 -4.74083 0
M  V30 968 H 96.0424 0.977855 -2.87527 0
M  V30 969 H 93.6274 0.418358 -1.43423 0
M  V30 970 H 95.5094 3.40012 -2.48938 0
M  V30 971 H 94.1844 2.92178 -1.39332 0
M  V30 972 H 93.0914 1.67361 -3.34576 0
M  V30 973 H 94.4244 2.21954 -4.39315 0
M  V30 974 N 96.0765 1.50051 0.48192 0
M  V30 975 C 97.3255 1.59741 1.23149 0
M  V30 976 C 97.6385 0.298163 1.93314 0
M  V30 977 O 98.8445 0.273835 2.70116 0
M  V30 978 C 97.3005 2.81926 2.23708 0
M  V30 979 C 96.9085 4.18685 1.59396 0
M  V30 980 C 98.6525 3.00956 2.99375 0
M  V30 981 C 96.5595 5.3207 2.58178 0
M  V30 982 H 95.4895 0.594838 0.46334 0
M  V30 983 H 98.1405 1.76467 0.503169 0
M  V30 984 H 96.5225 2.58736 2.99786 0
M  V30 985 H 97.6965 4.52088 0.891811 0
M  V30 986 H 96.0115 4.05171 0.960503 0
M  V30 987 H 98.6085 3.82836 3.73283 0
M  V30 988 H 98.9515 2.12258 3.58123 0
M  V30 989 H 99.4845 3.24277 2.30411 0
M  V30 990 H 96.2235 6.22888 2.04184 0
M  V30 991 H 95.7435 5.03098 3.26577 0
M  V30 992 H 97.4225 5.62196 3.20225 0
M  V30 993 N 97.5546 -0.734337 1.39446 0
M  V30 994 C 98.4846 -1.86155 1.40955 0
M  V30 995 C 99.4656 -1.67898 0.272827 0
M  V30 996 O 100.651 -1.88207 0.478743 0
M  V30 997 C 97.7806 -3.23912 1.25294 0
M  V30 998 C 96.7346 -3.56808 2.36373 0
M  V30 999 C 96.0606 -4.93508 2.058 0
M  V30 1000 C 97.3606 -3.59713 3.78687 0
M  V30 1001 H 99.0546 -1.8515 2.35287 0
M  V30 1002 H 96.6006 -0.889367 1.13253 0
M  V30 1003 H 98.5536 -4.02443 1.2497 0
M  V30 1004 H 97.2776 -3.25446 0.274308 0
M  V30 1005 H 95.9366 -2.80606 2.35914 0
M  V30 1006 H 95.5846 -4.91623 1.06374 0
M  V30 1007 H 95.2846 -5.16486 2.80208 0
M  V30 1008 H 96.8086 -5.74396 2.07128 0
M  V30 1009 H 98.2226 -4.2832 3.81071 0
M  V30 1010 H 96.6196 -3.94209 4.52459 0
M  V30 1011 H 97.6896 -2.59504 4.09617 0
M  V30 1012 N 99.0327 -1.24633 -0.964593 0
M  V30 1013 C 100.281 -1.08573 -1.70459 0
M  V30 1014 C 100.602 0.375655 -1.91347 0
M  V30 1015 O 99.8717 1.26779 -1.49345 0
M  V30 1016 H 98.4517 -0.398784 -0.631649 0
M  V30 1017 H 101.114 -1.56601 -1.16026 0
M  V30 1018 H 100.21 -1.58623 -2.68785 0
M  V30 1019 N 100.511 1.16574 -1.06058 0
M  V30 1020 C 101.759 1.86677 -0.77434 0
M  V30 1021 C 102.08 1.81959 0.701147 0
M  V30 1022 O 101.35 1.2515 1.50713 0
M  V30 1023 H 99.9298 0.691134 -0.283449 0
M  V30 1024 H 102.592 1.41378 -1.34158 0
M  V30 1025 H 101.688 2.92181 -1.09711 0
M  V30 1026 N 101.989 0.842826 1.3317 0
M  V30 1027 C 103.266 0.362216 1.92217 0
M  V30 1028 C 103.646 -1.15289 1.76838 0
M  V30 1029 O 102.994 -1.96914 1.15919 0
M  V30 1030 C 103.204 0.813495 3.39387 0
M  V30 1031 C 104.552 0.823804 4.16532 0
M  V30 1032 O 105.576 0.757358 3.48055 0
M  V30 1033 O 104.435 0.915193 5.38782 0
M  V30 1034 H 101.529 0.103317 0.820521 0
M  V30 1035 H 104.075 0.928942 1.42017 0
M  V30 1036 H 102.847 1.85624 3.4447 0
M  V30 1037 H 102.47 0.223561 3.96971 0
M  V30 1038 N 103.467 -1.45747 0.599634 0
M  V30 1039 C 104.399 -2.28628 -0.161879 0
M  V30 1040 C 105.412 -1.39494 -0.839367 0
M  V30 1041 O 106.601 -1.63941 -0.706089 0
M  V30 1042 C 103.701 -3.15014 -1.24976 0
M  V30 1043 C 102.874 -4.32378 -0.660935 0
M  V30 1044 C 101.933 -5.00033 -1.63869 0
M  V30 1045 O 100.959 -5.57085 -1.1681 0
M  V30 1046 N 102.161 -4.98589 -2.97303 0
M  V30 1047 H 104.926 -2.94624 0.549265 0
M  V30 1048 H 102.487 -1.55847 0.438565 0
M  V30 1049 H 104.479 -3.5714 -1.9035 0
M  V30 1050 H 103.049 -2.5098 -1.86354 0
M  V30 1051 H 102.269 -3.9383 0.170688 0
M  V30 1052 H 103.557 -5.08197 -0.247619 0
M  V30 1053 H 102.955 -4.53514 -3.38145 0
M  V30 1054 H 101.512 -5.44603 -3.58121 0
M  V30 1055 N 104.945 -0.338344 -1.53925 0
M  V30 1056 C 105.877 0.555117 -2.22376 0
M  V30 1057 C 106.89 1.06812 -1.22862 0
M  V30 1058 O 108.079 0.979163 -1.49247 0
M  V30 1059 C 105.179 1.77609 -2.88631 0
M  V30 1060 C 104.352 1.39927 -4.14414 0
M  V30 1061 C 103.411 2.47936 -4.64127 0
M  V30 1062 O 102.437 2.11461 -5.28463 0
M  V30 1063 N 103.639 3.79107 -4.39612 0
M  V30 1064 H 106.404 -0.0310778 -2.99684 0
M  V30 1065 H 103.965 -0.162226 -1.61085 0
M  V30 1066 H 105.957 2.49287 -3.18807 0
M  V30 1067 H 104.527 2.26978 -2.14941 0
M  V30 1068 H 103.747 0.513481 -3.90841 0
M  V30 1069 H 105.035 1.12341 -4.96243 0
M  V30 1070 H 104.433 4.11531 -3.88148 0
M  V30 1071 H 102.99 4.4697 -4.74406 0
M  V30 1072 N 106.423 1.57458 -0.0668435 0
M  V30 1073 C 107.653 1.97337 0.611677 0
M  V30 1074 C 108.061 0.943744 1.63982 0
M  V30 1075 O 107.404 -0.0785584 1.83532 0
M  V30 1076 C 107.466 3.33511 1.34205 0
M  V30 1077 C 107.13 4.54598 0.467941 0
M  V30 1078 C 108.127 5.19186 -0.272439 0
M  V30 1079 C 105.812 5.0075 0.39427 0
M  V30 1080 C 107.806 6.28274 -1.07476 0
M  V30 1081 C 105.493 6.09711 -0.411729 0
M  V30 1082 C 106.491 6.73335 -1.14492 0
M  V30 1083 O 106.179 7.80199 -1.93763 0
M  V30 1084 H 105.911 0.654042 0.170893 0
M  V30 1085 H 108.465 2.04961 -0.134289 0
M  V30 1086 H 106.695 3.22487 2.13398 0
M  V30 1087 H 108.384 3.58029 1.91233 0
M  V30 1088 H 109.15 4.84477 -0.225086 0
M  V30 1089 H 105.029 4.51009 0.954569 0
M  V30 1090 H 108.573 6.77866 -1.64755 0
M  V30 1091 H 104.47 6.43854 -0.460664 0
M  V30 1092 H 105.238 7.97053 -1.86142 0
M  V30 1093 N 107.901 -0.206675 1.56239 0
M  V30 1094 C 108.831 -1.25909 1.96645 0
M  V30 1095 C 109.812 -1.48097 0.836734 0
M  V30 1096 O 110.997 -1.6003 1.10019 0
M  V30 1097 C 108.127 -2.6058 2.29599 0
M  V30 1098 C 107.081 -2.53024 3.452 0
M  V30 1099 C 106.407 -3.91861 3.63798 0
M  V30 1100 C 107.707 -2.06524 4.79734 0
M  V30 1101 H 109.401 -0.923369 2.84806 0
M  V30 1102 H 106.947 -0.442735 1.37025 0
M  V30 1103 H 108.9 -3.34375 2.56459 0
M  V30 1104 H 107.624 -2.95869 1.38307 0
M  V30 1105 H 106.283 -1.81684 3.18412 0
M  V30 1106 H 105.931 -4.24483 2.69857 0
M  V30 1107 H 105.631 -3.87683 4.4156 0
M  V30 1108 H 107.155 -4.67296 3.93022 0
M  V30 1109 H 108.569 -2.70072 5.05702 0
M  V30 1110 H 106.966 -2.13374 5.60885 0
M  V30 1111 H 108.036 -1.01802 4.74093 0
M  V30 1112 N 109.379 -1.50304 -0.473955 0
M  V30 1113 C 110.327 -1.69482 -1.59307 0
M  V30 1114 C 111.321 -0.560669 -1.59853 0
M  V30 1115 O 112.527 -0.741087 -1.64036 0
M  V30 1116 H 108.902 -0.534892 -0.528578 0
M  V30 1117 H 110.873 -2.63364 -1.40293 0
M  V30 1118 C 109.622 -1.80354 -2.97267 0
M  V30 1119 H 108.945 -2.67012 -2.97564 0
M  V30 1120 H 110.385 -1.97798 -3.75036 0
M  V30 1121 C 108.844 -0.55448 -3.32306 0
M  V30 1122 O 109.374 0.307661 -4.0052 0
M  V30 1123 N 107.58 -0.409354 -2.87702 0
M  V30 1124 H 107.127 -1.11196 -2.32364 0
M  V30 1125 H 107.085 0.425223 -3.11511 0
M  V30 1126 N 110.857 0.726932 -1.39834 0
M  V30 1127 C 112.105 1.4837 -1.37225 0
M  V30 1128 C 112.426 1.94979 0.0284857 0
M  V30 1129 O 111.696 1.69555 0.981213 0
M  V30 1130 H 110.276 0.55043 -0.505011 0
M  V30 1131 H 112.938 0.862468 -1.74778 0
M  V30 1132 H 112.034 2.36198 -2.04003 0
M  V30 1133 N 112.336 1.25143 0.95797 0
M  V30 1134 C 113.613 1.00472 1.67823 0
M  V30 1135 C 113.993 -0.470056 2.058 0
M  V30 1136 O 113.341 -1.44663 1.76875 0
M  V30 1137 C 113.551 1.9372 2.90299 0
M  V30 1138 C 114.899 2.21371 3.62326 0
M  V30 1139 O 115.923 1.91451 3.00375 0
M  V30 1140 O 114.782 2.72231 4.7387 0
M  V30 1141 H 111.876 0.380752 0.734137 0
M  V30 1142 H 114.422 1.36283 1.01119 0
M  V30 1143 H 113.194 2.93316 2.59001 0
M  V30 1144 H 112.817 1.58286 3.64735 0
M  V30 1145 N 113.814 -1.1601 1.06675 0
M  V30 1146 C 115.054 -1.88304 0.795037 0
M  V30 1147 C 115.418 -1.80062 -0.666466 0
M  V30 1148 O 116.619 -2.47319 -1.05293 0
M  V30 1149 C 114.89 -3.33664 1.28076 0
M  V30 1150 S 116.449 -4.23768 1.13868 0
M  V30 1151 H 113.267 -0.649928 0.288296 0
M  V30 1152 H 115.869 -1.4001 1.36445 0
M  V30 1153 H 114.573 -3.37203 2.33927 0
M  V30 1154 H 114.104 -3.87009 0.706253 0
M  V30 1155 H 116.119 -4.96148 0.0719668 0
M  V30 1156 N 115.292 -0.849877 -1.32721 0
M  V30 1157 C 116.242 -0.262892 -2.26479 0
M  V30 1158 C 117.226 0.588493 -1.49752 0
M  V30 1159 O 118.418 0.438659 -1.71478 0
M  V30 1160 C 115.547 0.551818 -3.38836 0
M  V30 1161 C 114.633 -0.311689 -4.22953 0
M  V30 1162 N 115.024 -1.39567 -4.86163 0
M  V30 1163 C 113.322 -0.100611 -4.45887 0
M  V30 1164 C 114.023 -1.92651 -5.48872 0
M  V30 1165 N 112.999 -1.22637 -5.29586 0
M  V30 1166 H 116.801 -1.09166 -2.72873 0
M  V30 1167 H 114.315 -0.695486 -1.46754 0
M  V30 1168 H 116.312 0.988713 -4.05006 0
M  V30 1169 H 114.972 1.37844 -2.93988 0
M  V30 1170 H 115.983 -1.77859 -4.86402 0
M  V30 1171 H 112.66 0.691681 -4.11731 0
M  V30 1172 H 114.05 -2.83487 -6.09167 0
M  V30 1173 N 116.77 1.45427 -0.607355 0
M  V30 1174 C 117.72 2.27612 0.133038 0
M  V30 1175 C 118.704 1.37307 0.838785 0
M  V30 1176 O 119.896 1.61299 0.728813 0
M  V30 1177 C 117.025 3.24173 1.12991 0
M  V30 1178 C 116.111 4.21965 0.425011 0
M  V30 1179 N 116.502 5.02982 -0.533217 0
M  V30 1180 C 114.8 4.40899 0.672593 0
M  V30 1181 C 115.501 5.73931 -0.947518 0
M  V30 1182 N 114.477 5.42819 -0.291321 0
M  V30 1183 H 118.279 2.87649 -0.602935 0
M  V30 1184 H 115.793 1.56576 -0.431006 0
M  V30 1185 H 117.79 3.81783 1.67473 0
M  V30 1186 H 116.45 2.65696 1.86644 0
M  V30 1187 H 117.461 5.09843 -0.90995 0
M  V30 1188 H 114.138 3.93547 1.39382 0
M  V30 1189 H 115.528 6.49037 -1.73782 0
M  V30 1190 N 118.248 0.346503 1.53744 0
M  V30 1191 C 119.659 -0.136779 1.86198 0
M  V30 1192 C 120.01 -1.49749 1.26766 0
M  V30 1193 O 119.135 -2.08417 0.582355 0
M  V30 1194 C 119.73 -0.254966 3.37839 0
M  V30 1195 C 118.289 -0.682482 3.70161 0
M  V30 1196 C 117.436 0.181981 2.76702 0
M  V30 1197 H 120.387 0.565994 1.48264 0
M  V30 1198 H 120.408 -1.08195 3.64793 0
M  V30 1199 H 119.92 0.735526 3.81066 0
M  V30 1200 H 118.021 -1.68189 3.3248 0
M  V30 1201 H 118.134 -0.470326 4.76786 0
M  V30 1202 H 116.498 -0.34615 2.52337 0
M  V30 1203 H 117.281 1.16966 3.2276 0
M  V30 1204 N 119.726 -1.57421 0.075193 0
M  V30 1205 C 120.676 -2.09441 -0.901025 0
M  V30 1206 C 121.66 -1.00486 -1.25663 0
M  V30 1207 O 122.852 -1.2679 -1.23504 0
M  V30 1208 C 119.981 -2.66233 -2.16737 0
M  V30 1209 C 119.067 -3.82198 -1.83808 0
M  V30 1210 N 119.458 -4.91028 -1.21345 0
M  V30 1211 C 117.756 -3.91558 -2.13538 0
M  V30 1212 C 118.457 -5.71852 -1.06585 0
M  V30 1213 N 117.433 -5.20233 -1.57667 0
M  V30 1214 H 121.235 -2.90972 -0.413815 0
M  V30 1215 H 118.749 -1.6189 -0.128601 0
M  V30 1216 H 120.746 -3.01819 -2.87595 0
M  V30 1217 H 119.406 -1.8615 -2.66042 0
M  V30 1218 H 120.417 -5.10323 -0.88268 0
M  V30 1219 H 117.094 -3.22454 -2.65197 0
M  V30 1220 H 118.484 -6.69401 -0.578933 0
M  V30 1221 N 121.204 0.198386 -1.56346 0
M  V30 1222 C 122.453 0.917451 -1.79627 0
M  V30 1223 C 122.766 1.8456 -0.64784 0
M  V30 1224 O 123.972 2.60504 -0.764859 0
M  V30 1225 C 122.428 1.68175 -3.18191 0
M  V30 1226 C 122.036 0.798589 -4.40825 0
M  V30 1227 C 123.78 2.39065 -3.50782 0
M  V30 1228 C 121.687 1.56157 -5.70411 0
M  V30 1229 H 120.617 0.346317 -0.669762 0
M  V30 1230 H 123.268 0.170801 -1.82703 0
M  V30 1231 H 121.65 2.47216 -3.09354 0
M  V30 1232 H 122.824 0.0470665 -4.60776 0
M  V30 1233 H 121.139 0.200686 -4.15916 0
M  V30 1234 H 123.736 2.96692 -4.44835 0
M  V30 1235 H 124.079 3.13091 -2.74371 0
M  V30 1236 H 124.612 1.66993 -3.61052 0
M  V30 1237 H 121.351 0.864142 -6.49779 0
M  V30 1238 H 120.871 2.2871 -5.54483 0
M  V30 1239 H 122.55 2.11622 -6.11412 0
M  V30 1240 N 122.682 1.50554 0.465978 0
M  V30 1241 C 123.907 1.65838 1.24549 0
M  V30 1242 C 124.332 0.343486 1.84937 0
M  V30 1243 O 123.69 -0.69324 1.67523 0
M  V30 1244 C 123.738 2.75533 2.32624 0
M  V30 1245 O 122.842 2.37142 3.37398 0
M  V30 1246 H 122.183 0.553893 0.366194 0
M  V30 1247 H 124.713 1.96959 0.553927 0
M  V30 1248 H 124.723 2.98763 2.77857 0
M  V30 1249 H 123.398 3.70962 1.88043 0
M  V30 1250 H 121.975 2.24377 2.97841 0
M  V30 1251 N 124.16 -0.719506 1.40217 0
M  V30 1252 C 125.093 -1.84298 1.34571 0
M  V30 1253 C 126.071 -1.61149 0.216741 0
M  V30 1254 O 127.255 -1.84212 0.399756 0
M  V30 1255 C 124.382 -3.20568 1.09335 0
M  V30 1256 C 123.428 -3.62551 2.24631 0
M  V30 1257 S 124.261 -3.7012 3.87004 0
M  V30 1258 C 125.417 -5.09154 3.64024 0
M  V30 1259 H 125.65 -1.88807 2.2965 0
M  V30 1260 H 123.183 -0.885901 1.26456 0
M  V30 1261 H 125.141 -3.99246 0.954602 0
M  V30 1262 H 123.802 -3.13696 0.159164 0
M  V30 1263 H 122.995 -4.61483 2.02606 0
M  V30 1264 H 122.597 -2.91119 2.34789 0
M  V30 1265 H 124.889 -5.95955 3.22248 0
M  V30 1266 H 125.832 -5.36213 4.62473 0
M  V30 1267 H 126.24 -4.79562 2.97793 0
M  V30 1268 N 125.638 -1.25649 -0.95132 0
M  V30 1269 C 126.866 -1.13343 -1.73092 0
M  V30 1270 C 127.281 0.312434 -1.86197 0
M  V30 1271 O 126.638 1.21465 -1.36207 0
M  V30 1272 C 126.689 -1.78602 -3.14299 0
M  V30 1273 O 126.41 -3.17537 -3.01831 0
M  V30 1274 C 127.911 -1.72119 -4.08522 0
M  V30 1275 H 125.131 -0.395181 -0.542285 0
M  V30 1276 H 127.675 -1.66076 -1.19328 0
M  V30 1277 H 125.83 -1.29832 -3.64996 0
M  V30 1278 H 126.244 -3.49676 -3.90931 0
M  V30 1279 H 127.718 -2.22435 -5.052 0
M  V30 1280 H 128.195 -0.685635 -4.33815 0
M  V30 1281 H 128.801 -2.20393 -3.63741 0
M  V30 1282 N 127.117 1.15442 -1.07289 0
M  V30 1283 C 128.394 1.82306 -0.708792 0
M  V30 1284 C 128.774 1.94991 0.808807 0
M  V30 1285 O 128.122 1.50085 1.72298 0
M  V30 1286 C 128.332 3.18695 -1.42247 0
M  V30 1287 C 129.68 3.94341 -1.57417 0
M  V30 1288 O 130.704 3.28247 -1.38319 0
M  V30 1289 O 129.563 5.12839 -1.88834 0
M  V30 1290 H 126.657 0.787628 -0.252132 0
M  V30 1291 H 129.203 1.22559 -1.17377 0
M  V30 1292 H 127.975 3.04557 -2.45684 0
M  V30 1293 H 127.598 3.86128 -0.948223 0
M  V30 1294 N 128.595 0.856903 1.32268 0
M  V30 1295 C 129.843 0.460474 1.96784 0
M  V30 1296 C 130.164 -0.987701 1.68135 0
M  V30 1297 O 129.434 -1.69058 0.989765 0
M  V30 1298 H 128.014 0.167289 0.728027 0
M  V30 1299 H 130.676 1.09383 1.61312 0
M  V30 1300 H 129.772 0.60739 3.06133 0
M  V30 1301 N 130.073 -1.45103 0.615059 0
M  V30 1302 C 131.489 -1.57137 0.279322 0
M  V30 1303 C 131.689 -1.60523 -1.21797 0
M  V30 1304 O 130.745 -1.53956 -2.00134 0
M  V30 1305 C 132.058 -2.85062 0.957083 0
M  V30 1306 C 133.606 -2.98749 0.933706 0
M  V30 1307 C 134.081 -4.29455 1.59162 0
M  V30 1308 N 135.572 -4.36231 1.55746 0
M  V30 1309 C 136.307 -5.36051 2.0356 0
M  V30 1310 N 135.803 -6.42367 2.59494 0
M  V30 1311 N 137.596 -5.27456 1.94284 0
M  V30 1312 H 129.747 -1.41148 1.58717 0
M  V30 1313 H 132.01 -0.675331 0.665306 0
M  V30 1314 H 131.716 -2.88488 2.01166 0
M  V30 1315 H 131.59 -3.7407 0.48494 0
M  V30 1316 H 133.977 -2.94886 -0.112347 0
M  V30 1317 H 134.058 -2.11132 1.44419 0
M  V30 1318 H 133.702 -4.34077 2.63704 0
M  V30 1319 H 133.632 -5.15901 1.0561 0
M  V30 1320 H 136.123 -3.60011 1.14893 0
M  V30 1321 H 136.436 -7.14793 2.93752 0
M  V30 1322 H 134.781 -6.43097 2.63537 0
M  V30 1323 H 137.972 -4.43308 1.5032 0
M  V30 1324 H 138.145 -6.05099 2.3186 0
M  V30 1325 N 131.551 -0.354651 -1.53558 0
M  V30 1326 C 132.781 0.239167 -2.05211 0
M  V30 1327 C 133.189 1.43879 -1.22863 0
M  V30 1328 O 132.532 1.81857 -0.259565 0
M  V30 1329 C 132.594 0.707251 -3.52474 0
M  V30 1330 C 132.258 -0.374212 -4.55465 0
M  V30 1331 C 133.255 -1.22054 -5.0537 0
M  V30 1332 C 130.94 -0.531323 -4.99482 0
M  V30 1333 C 132.934 -2.20942 -5.97882 0
M  V30 1334 C 130.621 -1.52358 -5.91802 0
M  V30 1335 C 131.619 -2.36108 -6.40892 0
M  V30 1336 O 131.307 -3.33643 -7.31394 0
M  V30 1337 H 131.039 0.0479716 -0.674296 0
M  V30 1338 H 133.593 -0.508121 -1.99016 0
M  V30 1339 H 131.823 1.50596 -3.56171 0
M  V30 1340 H 133.512 1.22285 -3.87042 0
M  V30 1341 H 134.278 -1.1103 -4.7212 0
M  V30 1342 H 130.157 0.110738 -4.60867 0
M  V30 1343 H 133.701 -2.86348 -6.36121 0
M  V30 1344 H 129.598 -1.63434 -6.24467 0
M  V30 1345 H 130.366 -3.29244 -7.4936 0
M  V30 1346 N 133.029 1.57378 -0.0835403 0
M  V30 1347 C 134.306 1.85363 0.624507 0
M  V30 1348 C 134.686 0.978239 1.87066 0
M  V30 1349 O 134.034 0.0475908 2.2845 0
M  V30 1350 C 134.244 3.35795 0.950947 0
M  V30 1351 C 135.592 4.03581 1.31939 0
M  V30 1352 O 136.616 3.40609 1.04232 0
M  V30 1353 O 135.475 5.14672 1.83779 0
M  V30 1354 H 132.569 0.766162 0.311329 0
M  V30 1355 H 135.115 1.69307 -0.115362 0
M  V30 1356 H 133.887 3.91244 0.0663899 0
M  V30 1357 H 133.51 3.57154 1.74719 0
M  V30 1358 N 134.507 -0.190092 1.56449 0
M  V30 1359 C 135.755 -0.907908 1.80559 0
M  V30 1360 C 136.076 -1.83583 0.657438 0
M  V30 1361 O 135.346 -1.93203 -0.323924 0
M  V30 1362 H 133.926 -0.338247 0.666032 0
M  V30 1363 H 136.588 -0.194403 1.93928 0
M  V30 1364 H 135.684 -1.49604 2.73907 0
M  V30 1365 N 135.985 -1.50799 -0.457987 0
M  V30 1366 C 136.932 -1.70617 -1.5543 0
M  V30 1367 C 137.902 -0.547562 -1.56815 0
M  V30 1368 O 139.087 -0.779647 -1.74144 0
M  V30 1369 C 136.227 -1.81831 -2.93311 0
M  V30 1370 C 135.34 -3.09278 -3.01615 0
M  V30 1371 C 134.475 -3.11209 -4.30491 0
M  V30 1372 C 133.514 -4.33055 -4.32585 0
M  V30 1373 N 132.651 -4.32652 -5.52952 0
M  V30 1374 H 137.491 -2.64207 -1.37836 0
M  V30 1375 H 135.028 -1.30959 -0.669937 0
M  V30 1376 H 136.986 -1.86314 -3.73287 0
M  V30 1377 H 135.616 -0.916685 -3.0951 0
M  V30 1378 H 134.668 -3.14203 -2.1443 0
M  V30 1379 H 135.98 -3.99233 -2.99022 0
M  V30 1380 H 135.134 -3.14494 -5.18824 0
M  V30 1381 H 133.873 -2.19106 -4.35711 0
M  V30 1382 H 132.878 -4.29969 -3.42647 0
M  V30 1383 H 134.103 -5.264 -4.29046 0
M  V30 1384 H 132.049 -3.43409 -5.58933 0
M  V30 1385 H 131.966 -5.16392 -5.52155 0
M  V30 1386 H 133.234 -4.40101 -6.43375 0
M  V30 1387 N 137.463 0.71206 -1.40597 0
M  V30 1388 C 138.693 1.49894 -1.42181 0
M  V30 1389 C 139.101 1.89189 -0.0208078 0
M  V30 1390 O 138.444 1.56223 0.966436 0
M  V30 1391 C 138.506 2.80215 -2.25211 0
M  V30 1392 C 138.17 2.63221 -3.73582 0
M  V30 1393 C 139.167 2.30249 -4.66135 0
M  V30 1394 C 136.852 2.79376 -4.17438 0
M  V30 1395 C 138.846 2.13645 -6.00529 0
M  V30 1396 C 136.533 2.6239 -5.51901 0
M  V30 1397 C 137.531 2.29573 -6.43262 0
M  V30 1398 O 137.219 2.12719 -7.75246 0
M  V30 1399 H 136.951 0.469031 -0.486812 0
M  V30 1400 H 139.505 0.88564 -1.85326 0
M  V30 1401 H 137.735 3.4389 -1.76852 0
M  V30 1402 H 139.424 3.41947 -2.18694 0
M  V30 1403 H 140.19 2.17398 -4.33547 0
M  V30 1404 H 136.069 3.03906 -3.46644 0
M  V30 1405 H 139.613 1.87953 -6.71803 0
M  V30 1406 H 135.51 2.74826 -5.84073 0
M  V30 1407 H 136.278 2.27611 -7.86216 0
M  V30 1408 N 138.941 1.26152 0.944643 0
M  V30 1409 C 139.871 1.09902 2.06019 0
M  V30 1410 C 140.852 0.00519538 1.70099 0
M  V30 1411 O 142.037 0.176583 1.93396 0
M  V30 1412 C 139.167 0.727562 3.39594 0
M  V30 1413 C 138.121 1.77274 3.89561 0
M  V30 1414 C 137.447 1.25569 5.19747 0
M  V30 1415 C 138.747 3.17357 4.14827 0
M  V30 1416 H 140.441 2.03217 2.19871 0
M  V30 1417 H 137.987 0.978452 1.05652 0
M  V30 1418 H 139.94 0.600777 4.17095 0
M  V30 1419 H 138.664 -0.241287 3.25707 0
M  V30 1420 H 137.323 1.88814 3.14237 0
M  V30 1421 H 136.971 0.276783 5.02238 0
M  V30 1422 H 136.671 1.95433 5.54148 0
M  V30 1423 H 138.195 1.1415 5.99835 0
M  V30 1424 H 139.609 3.08914 4.82954 0
M  V30 1425 H 138.006 3.84781 4.60504 0
M  V30 1426 H 139.076 3.63673 3.20734 0
M  V30 1427 N 140.419 -1.14872 1.07899 0
M  V30 1428 C 141.666 -1.85789 0.805532 0
M  V30 1429 C 141.994 -1.82649 -0.668561 0
M  V30 1430 O 141.249 -1.24858 -1.50695 0
M  V30 1431 C 141.548 -3.34223 1.26609 0
M  V30 1432 C 141.214 -3.57555 2.74709 0
M  V30 1433 C 139.876 -3.63631 3.1516 0
M  V30 1434 C 142.228 -3.66803 3.70277 0
M  V30 1435 C 139.556 -3.76473 4.49983 0
M  V30 1436 C 141.908 -3.8117 5.04869 0
M  V30 1437 C 140.572 -3.85494 5.44932 0
M  V30 1438 H 139.842 -0.679849 0.294765 0
M  V30 1439 H 142.489 -1.3572 1.35101 0
M  V30 1440 H 140.794 -3.86536 0.640103 0
M  V30 1441 H 142.491 -3.87511 1.03132 0
M  V30 1442 H 139.081 -3.5347 2.42398 0
M  V30 1443 H 143.265 -3.61404 3.40149 0
M  V30 1444 H 138.521 -3.7808 4.80484 0
M  V30 1445 H 142.695 -3.87268 5.78789 0
M  V30 1446 H 140.322 -3.95197 6.49403 0
M  V30 1447 N 141.898 -0.863906 -1.31812 0
M  V30 1448 C 143.147 -0.46801 -1.96195 0
M  V30 1449 C 143.46 0.983474 -1.69077 0
M  V30 1450 O 144.666 1.48523 -2.27273 0
M  V30 1451 C 143.122 -0.785995 -3.51212 0
M  V30 1452 C 142.73 -2.25383 -3.87178 0
M  V30 1453 C 144.474 -0.458274 -4.22019 0
M  V30 1454 C 142.381 -2.51455 -5.3528 0
M  V30 1455 H 141.311 -0.171283 -0.734287 0
M  V30 1456 H 143.962 -1.05597 -1.50072 0
M  V30 1457 H 142.344 -0.127359 -3.95795 0
M  V30 1458 H 143.518 -2.95502 -3.53575 0
M  V30 1459 H 141.833 -2.54698 -3.2942 0
M  V30 1460 H 144.43 -0.630369 -5.30971 0
M  V30 1461 H 144.773 0.600834 -4.11941 0
M  V30 1462 H 145.306 -1.07319 -3.8305 0
M  V30 1463 H 142.045 -3.56025 -5.50387 0
M  V30 1464 H 141.565 -1.85923 -5.70257 0
M  V30 1465 H 143.244 -2.35874 -6.02472 0
M  V30 1466 N 143.376 1.44774 -0.622745 0
M  V30 1467 C 144.324 2.32387 0.0994683 0
M  V30 1468 C 145.318 1.46859 0.844326 0
M  V30 1469 O 146.524 1.63254 0.758174 0
M  V30 1470 H 142.899 0.750273 0.0509291 0
M  V30 1471 H 144.87 2.91062 -0.65767 0
M  V30 1472 C 143.619 3.30723 1.07319 0
M  V30 1473 H 142.942 3.96541 0.509462 0
M  V30 1474 H 144.382 3.94725 1.54817 0
M  V30 1475 C 142.841 2.59021 2.15429 0
M  V30 1476 O 143.371 2.38286 3.23393 0
M  V30 1477 N 141.577 2.189 1.91131 0
M  V30 1478 H 141.124 2.35964 1.03337 0
M  V30 1479 H 141.082 1.71251 2.63668 0
M  V30 1480 N 144.854 0.36279 1.53368 0
M  V30 1481 C 146.131 -0.284021 1.93527 0
M  V30 1482 C 146.511 -1.66628 1.29608 0
M  V30 1483 O 145.859 -2.23942 0.45413 0
M  V30 1484 C 146.069 -0.337028 3.47369 0
M  V30 1485 C 147.417 -0.578708 4.20638 0
M  V30 1486 O 148.441 -0.418352 3.53735 0
M  V30 1487 O 147.3 -0.89074 5.39192 0
M  V30 1488 H 144.394 -0.169743 0.809393 0
M  V30 1489 H 146.94 0.41537 1.64538 0
M  V30 1490 H 145.712 0.632217 3.86159 0
M  V30 1491 H 145.335 -1.08243 3.82582 0
M  V30 1492 N 146.332 -1.57332 0.0918853 0
M  V30 1493 C 147.279 -2.13847 -0.868211 0
M  V30 1494 C 148.249 -1.05618 -1.28196 0
M  V30 1495 O 149.434 -1.33387 -1.36427 0
M  V30 1496 C 146.574 -2.72062 -2.12312 0
M  V30 1497 C 145.687 -3.94514 -1.7602 0
M  V30 1498 C 144.822 -4.40903 -2.96273 0
M  V30 1499 C 143.861 -5.55953 -2.56092 0
M  V30 1500 N 142.998 -5.97209 -3.69169 0
M  V30 1501 H 147.838 -2.95575 -0.379406 0
M  V30 1502 H 145.375 -1.46048 -0.175606 0
M  V30 1503 H 147.333 -3.03931 -2.858 0
M  V30 1504 H 145.963 -1.93068 -2.58698 0
M  V30 1505 H 145.015 -3.68979 -0.925135 0
M  V30 1506 H 146.327 -4.7802 -1.42472 0
M  V30 1507 H 145.481 -4.74539 -3.78018 0
M  V30 1508 H 144.22 -3.56291 -3.33029 0
M  V30 1509 H 143.225 -5.21948 -1.72773 0
M  V30 1510 H 144.45 -6.42311 -2.20484 0
M  V30 1511 H 142.396 -5.15543 -4.05649 0
M  V30 1512 H 142.313 -6.75504 -3.39456 0
M  V30 1513 H 143.581 -6.35475 -4.51434 0
M  V30 1514 N 147.81 0.181792 -1.56548 0
M  V30 1515 C 148.773 1.20894 -1.94724 0
M  V30 1516 C 149.773 1.37738 -0.829747 0
M  V30 1517 O 150.963 1.35323 -1.09697 0
M  V30 1518 C 148.095 2.57593 -2.23291 0
M  V30 1519 H 149.288 0.882275 -2.86629 0
M  V30 1520 H 146.841 0.423838 -1.50444 0
M  V30 1521 H 147.576 2.95291 -1.34067 0
M  V30 1522 H 147.361 2.46735 -3.04736 0
M  V30 1523 H 148.851 3.31637 -2.53785 0
M  V30 1524 N 149.288 1.51039 0.449983 0
M  V30 1525 C 150.236 1.71995 1.5659 0
M  V30 1526 C 151.23 0.586029 1.5894 0
M  V30 1527 O 152.436 0.76709 1.62837 0
M  V30 1528 H 148.811 0.543233 0.520001 0
M  V30 1529 H 150.782 2.65562 1.36085 0
M  V30 1530 C 149.531 1.8506 2.9436 0
M  V30 1531 H 148.854 2.71712 2.93279 0
M  V30 1532 H 150.294 2.0374 3.71842 0
M  V30 1533 C 148.753 0.607277 3.31382 0
M  V30 1534 O 149.283 -0.243903 4.00959 0
M  V30 1535 N 147.489 0.455073 2.87015 0
M  V30 1536 H 147.036 1.14879 2.30566 0
M  V30 1537 H 146.994 -0.375611 3.12148 0
M  V30 1538 N 150.766 -0.704594 1.40972 0
M  V30 1539 C 151.994 -1.49354 1.43182 0
M  V30 1540 C 152.409 -1.88768 0.0345508 0
M  V30 1541 O 151.766 -1.56184 -0.944081 0
M  V30 1542 C 151.817 -2.76187 2.33244 0
M  V30 1543 O 151.538 -2.38436 3.67532 0
M  V30 1544 C 153.039 -3.7 2.44162 0
M  V30 1545 H 150.259 -0.460559 0.487982 0
M  V30 1546 H 152.803 -0.868261 1.85153 0
M  V30 1547 H 150.958 -3.34974 1.94606 0
M  V30 1548 H 151.372 -3.20126 4.15475 0
M  V30 1549 H 152.846 -4.55803 3.11364 0
M  V30 1550 H 153.323 -4.13867 1.47006 0
M  V30 1551 H 153.929 -3.17121 2.83398 0
M  V30 1552 N 152.244 -1.26651 -0.937939 0
M  V30 1553 C 153.66 -1.03834 -1.21205 0
M  V30 1554 C 153.86 0.234502 -2.00131 0
M  V30 1555 O 152.916 0.942767 -2.3424 0
M  V30 1556 C 154.229 -2.27167 -1.97017 0
M  V30 1557 C 155.777 -2.32101 -2.09996 0
M  V30 1558 C 156.252 -3.55136 -2.8921 0
M  V30 1559 N 157.743 -3.55632 -2.96783 0
M  V30 1560 C 158.478 -4.475 -3.58512 0
M  V30 1561 N 157.974 -5.4966 -4.21717 0
M  V30 1562 N 159.767 -4.35145 -3.55816 0
M  V30 1563 H 151.918 -2.08398 -0.410391 0
M  V30 1564 H 154.181 -0.916031 -0.244114 0
M  V30 1565 H 153.887 -3.19765 -1.46434 0
M  V30 1566 H 153.761 -2.31672 -2.97671 0
M  V30 1567 H 156.148 -1.40015 -2.59769 0
M  V30 1568 H 156.229 -2.31605 -1.08594 0
M  V30 1569 H 155.873 -4.47553 -2.40123 0
M  V30 1570 H 155.803 -3.5288 -3.90875 0
M  V30 1571 H 158.294 -2.81743 -2.51852 0
M  V30 1572 H 158.607 -6.15943 -4.66727 0
M  V30 1573 H 156.952 -5.53514 -4.20294 0
M  V30 1574 H 160.143 -3.5455 -3.05634 0
M  V30 1575 H 160.316 -5.06934 -4.03636 0
M  V30 1576 N 153.722 1.14298 -1.08507 0
M  V30 1577 C 154.968 1.85633 -0.816581 0
M  V30 1578 C 155.301 1.82784 0.656021 0
M  V30 1579 O 154.576 1.25926 1.48233 0
M  V30 1580 C 154.859 3.34223 -1.34041 0
M  V30 1581 C 154.712 3.45639 -2.87843 0
M  V30 1582 C 156.031 4.29356 -0.9665 0
M  V30 1583 H 153.15 0.67402 -0.298104 0
M  V30 1584 H 155.792 1.34214 -1.34487 0
M  V30 1585 H 153.942 3.78144 -0.89104 0
M  V30 1586 H 155.614 3.10498 -3.41158 0
M  V30 1587 H 153.857 2.86817 -3.25451 0
M  V30 1588 H 154.528 4.50089 -3.19569 0
M  V30 1589 H 157.004 3.93457 -1.35391 0
M  V30 1590 H 155.88 5.3178 -1.3602 0
M  V30 1591 H 156.141 4.41919 0.126362 0
M  V30 1592 N 155.201 0.870884 1.31352 0
M  V30 1593 C 156.164 0.332243 2.26779 0
M  V30 1594 C 157.164 -0.517302 1.52252 0
M  V30 1595 O 158.354 -0.326477 1.71113 0
M  V30 1596 C 155.486 -0.528066 3.36785 0
M  V30 1597 H 156.679 1.17469 2.75937 0
M  V30 1598 H 154.232 0.64655 1.423 0
M  V30 1599 H 154.967 -1.39167 2.92922 0
M  V30 1600 H 154.752 0.0802582 3.92018 0
M  V30 1601 H 156.242 -0.897179 4.07849 0
M  V30 1602 N 156.679 -1.44442 0.630414 0
M  V30 1603 C 158.095 -1.56832 0.295973 0
M  V30 1604 C 158.295 -1.61806 -1.20088 0
M  V30 1605 O 157.351 -1.5607 -1.9849 0
M  V30 1606 C 158.664 -2.84031 0.987264 0
M  V30 1607 C 160.212 -2.97742 0.96534 0
M  V30 1608 C 160.687 -4.27743 1.63708 0
M  V30 1609 N 162.178 -4.34555 1.60364 0
M  V30 1610 C 162.913 -5.33862 2.09234 0
M  V30 1611 N 162.409 -6.39578 2.66292 0
M  V30 1612 N 164.202 -5.25366 1.99867 0
M  V30 1613 H 156.353 -1.39457 1.60205 0
M  V30 1614 H 158.616 -0.668237 0.672431 0
M  V30 1615 H 158.322 -2.86338 2.04215 0
M  V30 1616 H 158.196 -3.73534 0.524588 0
M  V30 1617 H 160.583 -2.94989 -0.0810639 0
M  V30 1618 H 160.664 -2.09589 1.4665 0
M  V30 1619 H 160.308 -4.31255 2.68293 0
M  V30 1620 H 160.238 -5.14752 1.11076 0
M  V30 1621 H 162.729 -3.58772 1.18705 0
M  V30 1622 H 163.042 -7.11637 3.01317 0
M  V30 1623 H 161.387 -6.40265 2.70343 0
M  V30 1624 H 164.578 -4.41688 1.55013 0
M  V30 1625 H 164.751 -6.02606 2.38265 0
M  V30 1626 N 158.157 -0.370918 -1.53173 0
M  V30 1627 C 159.406 0.218249 -2.00516 0
M  V30 1628 C 159.719 1.49429 -1.26215 0
M  V30 1629 O 160.925 2.16239 -1.64174 0
M  V30 1630 C 159.381 0.43948 -3.57207 0
M  V30 1631 C 158.989 -0.822244 -4.4039 0
M  V30 1632 C 160.733 0.986012 -4.1289 0
M  V30 1633 C 158.64 -0.570304 -5.88644 0
M  V30 1634 H 157.57 0.0853333 -0.749156 0
M  V30 1635 H 160.221 -0.490483 -1.76823 0
M  V30 1636 H 158.603 1.20961 -3.77074 0
M  V30 1637 H 159.777 -1.59557 -4.32294 0
M  V30 1638 H 158.092 -1.29238 -3.95836 0
M  V30 1639 H 160.689 1.18991 -5.21292 0
M  V30 1640 H 161.032 1.94972 -3.6782 0
M  V30 1641 H 161.565 0.27592 -3.96842 0
M  V30 1642 H 158.304 -1.50449 -6.38001 0
M  V30 1643 H 157.824 0.164427 -5.99575 0
M  V30 1644 H 159.503 -0.19784 -6.46697 0
M  V30 1645 N 159.635 1.57281 -0.100228 0
M  V30 1646 C 161.051 1.57527 0.256416 0
M  V30 1647 C 161.251 1.11173 1.68056 0
M  V30 1648 O 160.307 0.79053 2.39806 0
M  V30 1649 C 161.62 3.00673 0.0401747 0
M  V30 1650 C 163.168 3.12815 0.107528 0
M  V30 1651 C 163.643 4.57929 -0.0807834 0
M  V30 1652 N 165.134 4.63193 -0.0261207 0
M  V30 1653 C 165.869 5.73212 -0.146999 0
M  V30 1654 N 165.365 6.92047 -0.322999 0
M  V30 1655 N 167.158 5.62031 -0.0879044 0
M  V30 1656 H 159.309 1.85718 -1.03065 0
M  V30 1657 H 161.572 0.857446 -0.404339 0
M  V30 1658 H 161.278 3.38804 -0.943649 0
M  V30 1659 H 161.152 3.69042 0.780262 0
M  V30 1660 H 163.539 2.74554 1.08186 0
M  V30 1661 H 163.62 2.47028 -0.664134 0
M  V30 1662 H 163.264 4.96886 -1.05201 0
M  V30 1663 H 163.194 5.21783 0.710635 0
M  V30 1664 H 165.685 3.77748 0.107161 0
M  V30 1665 H 165.998 7.7173 -0.406608 0
M  V30 1666 H 164.343 6.94074 -0.358733 0
M  V30 1667 H 167.534 4.68075 0.048498 0
M  V30 1668 H 167.707 6.47734 -0.185557 0
M  V30 1669 N 161.113 -0.173488 1.56642 0
M  V30 1670 C 162.043 -1.2171 1.99271 0
M  V30 1671 C 163.024 -1.46289 0.867959 0
M  V30 1672 O 164.209 -1.5766 1.13388 0
M  V30 1673 C 161.339 -2.55651 2.35074 0
M  V30 1674 C 160.293 -2.45645 3.50489 0
M  V30 1675 C 159.619 -3.84056 3.72028 0
M  V30 1676 C 160.919 -1.96302 4.84007 0
M  V30 1677 H 162.613 -0.86275 2.867 0
M  V30 1678 H 160.159 -0.413571 1.37933 0
M  V30 1679 H 162.112 -3.2886 2.63494 0
M  V30 1680 H 160.836 -2.92869 1.44552 0
M  V30 1681 H 159.495 -1.7489 3.22194 0
M  V30 1682 H 159.143 -4.18664 2.788 0
M  V30 1683 H 158.843 -3.7823 4.49684 0
M  V30 1684 H 160.367 -4.58854 4.02846 0
M  V30 1685 H 161.781 -2.59284 5.11317 0
M  V30 1686 H 160.178 -2.01429 5.65284 0
M  V30 1687 H 161.248 -0.917226 4.76146 0
M  V30 1688 N 162.591 -1.51276 -0.441967 0
M  V30 1689 C 163.868 -1.54252 -1.20273 0
M  V30 1690 C 164.248 -0.30408 -2.08898 0
M  V30 1691 O 163.596 0.711084 -2.17154 0
M  V30 1692 C 163.806 -2.85406 -2.00859 0
M  V30 1693 C 165.154 -3.37181 -2.58059 0
M  V30 1694 O 166.178 -2.86925 -2.11074 0
M  V30 1695 O 165.037 -4.24858 -3.43741 0
M  V30 1696 H 162.131 -0.619969 -0.547328 0
M  V30 1697 H 164.677 -1.63586 -0.451413 0
M  V30 1698 H 163.449 -3.67003 -1.35736 0
M  V30 1699 H 163.072 -2.79213 -2.83065 0
M  V30 1700 N 164.069 0.697108 -1.41344 0
M  V30 1701 C 165.318 1.45279 -1.39918 0
M  V30 1702 C 165.631 1.95597 -0.0109624 0
M  V30 1703 O 166.837 2.71208 0.125919 0
M  V30 1704 C 165.293 2.62695 -2.46007 0
M  V30 1705 C 164.901 2.19169 -3.90729 0
M  V30 1706 C 166.645 3.40336 -2.53715 0
M  V30 1707 C 164.552 3.33535 -4.88373 0
M  V30 1708 H 163.482 0.545692 -0.520323 0
M  V30 1709 H 166.133 0.756929 -1.67161 0
M  V30 1710 H 164.515 3.34541 -2.11892 0
M  V30 1711 H 165.689 1.54623 -4.34083 0
M  V30 1712 H 164.004 1.54525 -3.86666 0
M  V30 1713 H 166.601 4.2547 -3.2385 0
M  V30 1714 H 166.944 3.85418 -1.5735 0
M  V30 1715 H 167.477 2.75546 -2.86913 0
M  V30 1716 H 164.216 2.93468 -5.86137 0
M  V30 1717 H 163.736 3.96936 -4.49668 0
M  V30 1718 H 165.415 3.99335 -5.09059 0
M  V30 1719 N 165.547 1.27147 0.931209 0
M  V30 1720 C 166.48 1.0389 2.0318 0
M  V30 1721 C 167.458 -0.0395716 1.62552 0
M  V30 1722 O 168.642 0.104867 1.88208 0
M  V30 1723 C 165.769 0.575227 3.3378 0
M  V30 1724 C 164.815 1.64774 3.93385 0
M  V30 1725 S 165.648 3.23933 4.26413 0
M  V30 1726 C 166.804 2.79358 5.60098 0
M  V30 1727 H 167.037 1.97075 2.22596 0
M  V30 1728 H 164.57 1.10938 1.07387 0
M  V30 1729 H 166.528 0.314385 4.09294 0
M  V30 1730 H 165.189 -0.336505 3.12292 0
M  V30 1731 H 164.382 1.27454 4.87618 0
M  V30 1732 H 163.984 1.86048 3.24441 0
M  V30 1733 H 166.276 2.24443 6.39243 0
M  V30 1734 H 167.219 3.72322 6.02314 0
M  V30 1735 H 167.627 2.1861 5.20452 0
M  V30 1736 N 167.025 -1.13721 1.09112 0
M  V30 1737 C 167.972 -2.19031 0.727591 0
M  V30 1738 C 168.942 -1.63555 -0.289656 0
M  V30 1739 O 170.127 -1.90023 -0.172026 0
M  V30 1740 C 167.267 -3.4477 0.15082 0
M  V30 1741 C 166.38 -4.14365 1.22172 0
M  V30 1742 C 165.515 -5.27709 0.608042 0
M  V30 1743 C 164.554 -5.89147 1.66047 0
M  V30 1744 N 163.691 -6.93929 1.06806 0
M  V30 1745 H 168.531 -2.49475 1.62991 0
M  V30 1746 H 166.068 -1.22499 0.81439 0
M  V30 1747 H 168.026 -4.16714 -0.201358 0
M  V30 1748 H 166.656 -3.14787 -0.714783 0
M  V30 1749 H 165.708 -3.40737 1.69122 0
M  V30 1750 H 167.02 -4.56114 2.01895 0
M  V30 1751 H 166.174 -6.06355 0.204523 0
M  V30 1752 H 164.913 -4.872 -0.220769 0
M  V30 1753 H 163.918 -5.09198 2.07357 0
M  V30 1754 H 165.143 -6.31729 2.49189 0
M  V30 1755 H 163.089 -6.55483 0.260476 0
M  V30 1756 H 163.006 -7.34202 1.8023 0
M  V30 1757 H 164.274 -7.76434 0.690644 0
M  V30 1758 N 168.503 -0.877838 -1.30888 0
M  V30 1759 C 169.731 -0.507414 -2.00581 0
M  V30 1760 C 170.146 0.902216 -1.65848 0
M  V30 1761 O 169.503 1.59225 -0.891831 0
M  V30 1762 C 169.554 -0.664162 -3.55347 0
M  V30 1763 O 169.275 -2.01829 -3.8884 0
M  V30 1764 C 170.776 -0.295787 -4.42312 0
M  V30 1765 H 167.996 -0.196866 -0.641471 0
M  V30 1766 H 170.54 -1.18117 -1.66939 0
M  V30 1767 H 168.695 -0.0378619 -3.87381 0
M  V30 1768 H 169.109 -2.03174 -4.8355 0
M  V30 1769 H 170.583 -0.456388 -5.5011 0
M  V30 1770 H 171.06 0.765663 -4.32475 0
M  V30 1771 H 171.666 -0.898113 -4.15709 0
M  V30 1772 N 169.982 1.44106 -0.638065 0
M  V30 1773 C 171.259 1.95453 -0.0759321 0
M  V30 1774 C 171.639 1.57984 1.40015 0
M  V30 1775 O 170.987 0.857361 2.11806 0
M  V30 1776 C 171.197 3.47655 -0.306132 0
M  V30 1777 C 172.545 4.24114 -0.203008 0
M  V30 1778 O 173.569 3.55405 -0.237871 0
M  V30 1779 O 172.428 5.46381 -0.113827 0
M  V30 1780 H 169.522 0.826797 0.0183332 0
M  V30 1781 H 172.068 1.54122 -0.710251 0
M  V30 1782 H 170.84 3.68 -1.3301 0
M  V30 1783 H 170.463 3.95949 0.361991 0
M  V30 1784 N 171.46 0.379036 1.52974 0
M  V30 1785 C 172.407 -0.461048 2.26148 0
M  V30 1786 C 173.377 -1.06637 1.27349 0
M  V30 1787 O 174.562 -1.09633 1.56157 0
M  V30 1788 C 171.702 -1.58782 3.06402 0
M  V30 1789 C 170.815 -1.00636 4.20115 0
M  V30 1790 C 169.95 -2.10334 4.87784 0
M  V30 1791 C 168.989 -1.49724 5.93506 0
M  V30 1792 N 168.126 -2.5331 6.54812 0
M  V30 1793 H 172.966 0.169429 2.97518 0
M  V30 1794 H 170.503 0.0953806 1.4679 0
M  V30 1795 H 172.461 -2.25174 3.51215 0
M  V30 1796 H 171.091 -2.18876 2.37261 0
M  V30 1797 H 170.143 -0.232332 3.7969 0
M  V30 1798 H 171.455 -0.523343 4.96047 0
M  V30 1799 H 170.609 -2.84519 5.35849 0
M  V30 1800 H 169.348 -2.61992 4.11353 0
M  V30 1801 H 168.353 -0.740598 5.44789 0
M  V30 1802 H 169.578 -0.988732 6.71864 0
M  V30 1803 H 167.524 -3.04156 5.81227 0
M  V30 1804 H 167.441 -2.09734 7.26325 0
M  V30 1805 H 168.709 -3.27155 7.07524 0
M  V30 1806 N 172.938 -1.57226 0.108567 0
M  V30 1807 C 174.187 -1.94008 -0.551703 0
M  V30 1808 C 174.5 -0.993442 -1.68494 0
M  V30 1809 O 175.706 -1.25551 -2.40726 0
M  V30 1810 C 174.162 -3.44763 -1.03279 0
M  V30 1811 C 173.77 -4.47943 0.0714193 0
M  V30 1812 C 175.514 -3.90483 -1.66503 0
M  V30 1813 C 173.421 -5.89865 -0.425779 0
M  V30 1814 H 172.351 -0.724206 -0.209863 0
M  V30 1815 H 175.002 -1.82547 0.186741 0
M  V30 1816 H 173.384 -3.51422 -1.82533 0
M  V30 1817 H 174.558 -4.52942 0.847365 0
M  V30 1818 H 172.873 -4.11913 0.609669 0
M  V30 1819 H 175.47 -4.93925 -2.04798 0
M  V30 1820 H 175.813 -3.29877 -2.53942 0
M  V30 1821 H 176.346 -3.86581 -0.938074 0
M  V30 1822 H 173.085 -6.54202 0.412316 0
M  V30 1823 H 172.605 -5.88309 -1.16843 0
M  V30 1824 H 174.284 -6.40844 -0.890397 0
M  V30 1825 N 174.416 0.165178 -1.56732 0
M  V30 1826 C 175.644 0.896218 -1.86482 0
M  V30 1827 C 176.059 1.75555 -0.694675 0
M  V30 1828 O 175.416 1.79379 0.33607 0
M  V30 1829 C 175.467 1.76792 -3.1532 0
M  V30 1830 O 175.188 0.943239 -4.27825 0
M  V30 1831 C 176.689 2.6081 -3.58459 0
M  V30 1832 H 173.909 0.260064 -0.618553 0
M  V30 1833 H 176.453 0.163428 -2.03846 0
M  V30 1834 H 174.608 2.45398 -2.99764 0
M  V30 1835 H 175.022 1.53998 -5.01383 0
M  V30 1836 H 176.496 3.17579 -4.51495 0
M  V30 1837 H 176.973 3.35977 -2.82872 0
M  V30 1838 H 177.579 1.97526 -3.76648 0
M  V30 1839 N 175.894 1.51508 0.433938 0
M  V30 1840 C 176.844 1.69451 1.52546 0
M  V30 1841 C 177.828 0.548474 1.51263 0
M  V30 1842 O 179.02 0.804529 1.57659 0
M  V30 1843 C 176.149 1.82604 2.90707 0
M  V30 1844 C 175.235 3.03002 2.96733 0
M  V30 1845 N 175.626 4.26121 2.72496 0
M  V30 1846 C 173.924 3.02327 3.27894 0
M  V30 1847 C 174.625 5.07407 2.84452 0
M  V30 1848 N 173.601 4.42126 3.16269 0
M  V30 1849 H 177.403 2.62305 1.32564 0
M  V30 1850 H 174.917 1.49202 0.641297 0
M  V30 1851 H 176.914 1.93569 3.69238 0
M  V30 1852 H 175.574 0.909339 3.11707 0
M  V30 1853 H 176.585 4.55009 2.4736 0
M  V30 1854 H 173.262 2.20301 3.54646 0
M  V30 1855 H 174.652 6.15422 2.69639 0
M  V30 1856 N 177.372 -0.689602 1.41712 0
M  V30 1857 C 178.621 -1.44534 1.40686 0
M  V30 1858 C 178.934 -1.95588 0.0213352 0
M  V30 1859 O 180.14 -2.71271 -0.111534 0
M  V30 1860 C 178.596 -2.61387 2.47396 0
M  V30 1861 C 178.204 -2.17094 3.91885 0
M  V30 1862 C 179.948 -3.38986 2.55517 0
M  V30 1863 C 177.855 -3.3094 4.90135 0
M  V30 1864 H 176.785 -0.542925 0.52321 0
M  V30 1865 H 179.436 -0.748054 1.6756 0
M  V30 1866 H 177.818 -3.33412 2.13664 0
M  V30 1867 H 178.992 -1.52318 4.34897 0
M  V30 1868 H 177.307 -1.52473 3.8748 0
M  V30 1869 H 179.904 -4.23747 3.26102 0
M  V30 1870 H 180.247 -3.84578 1.59391 0
M  V30 1871 H 180.78 -2.74021 2.8837 0
M  V30 1872 H 177.519 -2.90355 5.87685 0
M  V30 1873 H 177.039 -3.94546 4.51767 0
M  V30 1874 H 178.718 -3.9663 5.11169 0
M  V30 1875 N 178.85 -1.27639 -0.924453 0
M  V30 1876 C 180.261 -1.12834 -1.48746 0
M  V30 1877 C 180.612 0.285505 -1.94112 0
M  V30 1878 O 179.737 1.17874 -1.81479 0
M  V30 1879 C 180.332 -2.04217 -2.70334 0
M  V30 1880 C 178.891 -1.93509 -3.22848 0
M  V30 1881 C 178.038 -1.96583 -1.95577 0
M  V30 1882 H 180.989 -1.40484 -0.738233 0
M  V30 1883 H 181.01 -1.59989 -3.4523 0
M  V30 1884 H 180.522 -3.07111 -2.37285 0
M  V30 1885 H 178.623 -0.936131 -3.60649 0
M  V30 1886 H 178.736 -2.79917 -3.88823 0
M  V30 1887 H 177.1 -1.4085 -2.12211 0
M  V30 1888 H 177.883 -3.01137 -1.64837 0
M  V30 1889 N 180.328 1.1314 -1.09713 0
M  V30 1890 C 181.276 2.20717 -0.733934 0
M  V30 1891 C 182.27 1.6729 0.266506 0
M  V30 1892 O 183.476 1.79547 0.127656 0
M  V30 1893 H 179.851 0.719292 -0.21937 0
M  V30 1894 H 181.822 2.48611 -1.6503 0
M  V30 1895 C 180.571 3.47265 -0.173849 0
M  V30 1896 H 179.894 3.88716 -0.934873 0
M  V30 1897 H 181.334 4.23979 0.0423126 0
M  V30 1898 C 179.793 3.18724 1.09164 0
M  V30 1899 O 180.323 3.37762 2.17439 0
M  V30 1900 N 178.529 2.72583 1.00732 0
M  V30 1901 H 178.076 2.57291 0.126121 0
M  V30 1902 H 178.034 2.53862 1.85476 0
M  V30 1903 N 181.806 0.884767 1.30421 0
M  V30 1904 C 183.052 0.503851 1.96441 0
M  V30 1905 C 183.385 -0.944518 1.69684 0
M  V30 1906 O 182.66 -1.66737 1.00145 0
M  V30 1907 C 182.943 0.779085 3.51571 0
M  V30 1908 C 182.796 2.27807 3.87846 0
M  V30 1909 C 184.115 0.255452 4.39358 0
M  V30 1910 H 181.234 0.184533 0.713524 0
M  V30 1911 H 183.876 1.10872 1.54297 0
M  V30 1912 H 182.026 0.264274 3.876 0
M  V30 1913 H 183.698 2.86127 3.61841 0
M  V30 1914 H 181.941 2.74479 3.35922 0
M  V30 1915 H 182.612 2.42125 4.96064 0
M  V30 1916 H 185.088 0.696079 4.10236 0
M  V30 1917 H 183.964 0.477361 5.4682 0
M  V30 1918 H 184.225 -0.843293 4.33983 0
M  V30 1919 N 183.284 -1.43765 0.645699 0
M  V30 1920 C 184.216 -2.29027 -0.0890605 0
M  V30 1921 C 185.229 -1.42093 -0.794563 0
M  V30 1922 O 186.418 -1.66104 -0.653575 0
M  V30 1923 C 183.518 -3.18831 -1.14891 0
M  V30 1924 C 182.691 -4.34261 -0.523043 0
M  V30 1925 C 181.75 -5.04994 -1.47878 0
M  V30 1926 O 180.776 -5.6052 -0.990277 0
M  V30 1927 N 181.978 -5.07795 -2.81291 0
M  V30 1928 H 184.743 -2.92727 0.64272 0
M  V30 1929 H 182.304 -1.54373 0.487924 0
M  V30 1930 H 184.296 -3.63015 -1.78892 0
M  V30 1931 H 182.866 -2.56782 -1.78275 0
M  V30 1932 H 182.086 -3.93088 0.295896 0
M  V30 1933 H 183.374 -5.08728 -0.0858147 0
M  V30 1934 H 182.772 -4.64042 -3.23546 0
M  V30 1935 H 181.329 -5.55721 -3.40614 0
M  V30 1936 N 184.763 -0.387143 -1.52771 0
M  V30 1937 C 185.726 0.436939 -2.24997 0
M  V30 1938 C 186.726 0.991991 -1.26555 0
M  V30 1939 O 187.916 0.874335 -1.50669 0
M  V30 1940 C 185.048 1.61281 -3.00335 0
M  V30 1941 H 186.241 -0.195365 -2.99263 0
M  V30 1942 H 183.794 -0.139218 -1.55679 0
M  V30 1943 H 184.529 2.2826 -2.30364 0
M  V30 1944 H 184.314 1.22154 -3.72587 0
M  V30 1945 H 185.804 2.19629 -3.5518 0
M  V30 1946 N 186.241 1.57166 -0.116904 0
M  V30 1947 C 187.49 1.94298 0.541407 0
M  V30 1948 C 187.803 1.00236 1.67964 0
M  V30 1949 O 189.009 1.26826 2.40057 0
M  V30 1950 C 187.465 3.45306 1.01449 0
M  V30 1951 C 187.073 4.47899 -0.0951738 0
M  V30 1952 C 188.817 3.91361 1.6443 0
M  V30 1953 C 186.724 5.90083 0.394491 0
M  V30 1954 H 185.654 0.725308 0.206019 0
M  V30 1955 H 188.305 1.82446 -0.196419 0
M  V30 1956 H 186.687 3.52385 1.80667 0
M  V30 1957 H 187.861 4.52486 -0.871374 0
M  V30 1958 H 186.176 4.11583 -0.631505 0
M  V30 1959 H 188.773 4.95004 2.02176 0
M  V30 1960 H 189.116 3.3122 2.52189 0
M  V30 1961 H 189.649 3.87073 0.917559 0
M  V30 1962 H 186.388 6.53974 -0.447004 0
M  V30 1963 H 185.908 5.88921 1.13722 0
M  V30 1964 H 187.587 6.41307 0.856399 0
M  V30 1965 N 187.719 -0.156864 1.56817 0
M  V30 1966 C 188.669 -1.19891 1.93934 0
M  V30 1967 C 189.653 -1.39061 0.809372 0
M  V30 1968 O 190.845 -1.40789 1.07273 0
M  V30 1969 C 187.974 -2.53493 2.31508 0
M  V30 1970 C 187.06 -2.37957 3.51052 0
M  V30 1971 N 187.451 -1.92158 4.67877 0
M  V30 1972 C 185.749 -2.68739 3.55943 0
M  V30 1973 C 186.45 -1.8943 5.49992 0
M  V30 1974 N 185.426 -2.32375 4.91429 0
M  V30 1975 H 189.228 -0.836746 2.81737 0
M  V30 1976 H 186.742 -0.365012 1.58245 0
M  V30 1977 H 188.739 -3.28811 2.56299 0
M  V30 1978 H 187.399 -2.905 1.45051 0
M  V30 1979 H 188.41 -1.62274 4.91821 0
M  V30 1980 H 185.087 -3.09687 2.80001 0
M  V30 1981 H 186.477 -1.55596 6.53636 0
M  V30 1982 N 189.197 -1.51736 -0.425897 0
M  V30 1983 C 190.445 -1.64644 -1.17204 0
M  V30 1984 C 190.766 -0.370486 -1.91448 0
M  V30 1985 O 190.036 0.614088 -1.86026 0
M  V30 1986 H 188.616 -0.606819 -0.435638 0
M  V30 1987 H 191.278 -1.88713 -0.487177 0
M  V30 1988 H 190.374 -2.47958 -1.89534 0
M  V30 1989 N 190.675 0.682077 -1.42076 0
M  V30 1990 C 191.605 1.80796 -1.47767 0
M  V30 1991 C 192.586 1.6677 -0.334954 0
M  V30 1992 O 193.771 1.863 -0.548264 0
M  V30 1993 C 190.901 3.19038 -1.37229 0
M  V30 1994 C 189.855 3.47789 -2.49453 0
M  V30 1995 C 189.181 4.8553 -2.23975 0
M  V30 1996 C 190.481 3.45411 -3.91776 0
M  V30 1997 H 192.175 1.7629 -2.41997 0
M  V30 1998 H 189.721 0.846721 -1.16476 0
M  V30 1999 H 191.674 3.97528 -1.39821 0
M  V30 2000 H 190.398 3.24204 -0.394907 0
M  V30 2001 H 189.057 2.71657 -2.46166 0
M  V30 2002 H 188.705 4.87337 -1.24547 0
M  V30 2003 H 188.405 5.0573 -2.99184 0
M  V30 2004 H 189.929 5.66312 -2.28304 0
M  V30 2005 H 191.343 4.13882 -3.96705 0
M  V30 2006 H 189.74 3.77145 -4.66778 0
M  V30 2007 H 190.81 2.44122 -4.18966 0
M  V30 2008 N 192.153 1.28127 0.917671 0
M  V30 2009 C 193.569 1.05749 1.19538 0
M  V30 2010 C 193.769 -0.202633 2.00479 0
M  V30 2011 O 192.825 -0.905382 2.3571 0
M  V30 2012 C 194.138 2.30273 1.93378 0
M  V30 2013 C 195.686 2.35412 2.06277 0
M  V30 2014 C 196.161 3.59692 2.83524 0
M  V30 2015 N 197.652 3.60309 2.91087 0
M  V30 2016 C 198.387 4.53147 3.51348 0
M  V30 2017 N 197.883 5.563 4.12919 0
M  V30 2018 N 199.676 4.40751 3.48849 0
M  V30 2019 H 191.827 2.09024 0.377184 0
M  V30 2020 H 194.09 0.919798 0.22951 0
M  V30 2021 H 193.796 3.22055 1.41328 0
M  V30 2022 H 193.67 2.36378 2.93947 0
M  V30 2023 H 196.057 1.4413 2.57508 0
M  V30 2024 H 196.138 2.33304 1.04895 0
M  V30 2025 H 195.782 4.51316 2.32973 0
M  V30 2026 H 195.712 3.59054 3.85211 0
M  V30 2027 H 198.203 2.85714 2.47338 0
M  V30 2028 H 198.516 6.2329 4.56869 0
M  V30 2029 H 196.861 5.60131 4.11435 0
M  V30 2030 H 200.052 3.59367 2.99955 0
M  V30 2031 H 200.225 5.13291 3.9552 0
M  V30 2032 N 193.631 -1.12557 1.10312 0
M  V30 2033 C 194.561 -2.20341 0.772798 0
M  V30 2034 C 195.542 -1.68198 -0.25365 0
M  V30 2035 O 196.727 -1.93831 -0.119699 0
M  V30 2036 C 193.857 -3.46709 0.202443 0
M  V30 2037 C 192.811 -4.11996 1.15943 0
M  V30 2038 C 192.137 -5.328 0.450345 0
M  V30 2039 C 193.437 -4.5828 2.50552 0
M  V30 2040 H 195.131 -2.48229 1.674 0
M  V30 2041 H 192.677 -1.19308 0.806326 0
M  V30 2042 H 194.63 -4.2138 -0.0407752 0
M  V30 2043 H 193.354 -3.18245 -0.734001 0
M  V30 2044 H 192.013 -3.39305 1.38808 0
M  V30 2045 H 191.661 -5.00602 -0.490531 0
M  V30 2046 H 191.361 -5.7743 1.08851 0
M  V30 2047 H 192.885 -6.10219 0.215642 0
M  V30 2048 H 194.299 -5.2433 2.31843 0
M  V30 2049 H 192.696 -5.13683 3.10242 0
M  V30 2050 H 193.766 -3.72329 3.10643 0
M  V30 2051 N 195.109 -0.891671 -1.2995 0
M  V30 2052 C 196.041 -0.320695 -2.26945 0
M  V30 2053 C 197.054 0.528497 -1.53983 0
M  V30 2054 O 198.243 0.346959 -1.75096 0
M  V30 2055 C 195.343 0.562066 -3.34207 0
M  V30 2056 C 194.516 -0.259576 -4.36629 0
M  V30 2057 C 193.575 0.554739 -5.23268 0
M  V30 2058 O 192.601 -0.0249311 -5.69195 0
M  V30 2059 N 193.803 1.8625 -5.4981 0
M  V30 2060 H 196.568 -1.15432 -2.76578 0
M  V30 2061 H 194.129 -0.755336 -1.432 0
M  V30 2062 H 196.121 1.11304 -3.89093 0
M  V30 2063 H 194.691 1.29637 -2.84452 0
M  V30 2064 H 193.911 -0.991986 -3.81514 0
M  V30 2065 H 195.199 -0.822564 -5.02107 0
M  V30 2066 H 194.597 2.35628 -5.14292 0
M  V30 2067 H 193.154 2.36078 -6.07545 0
M  V30 2068 N 196.587 1.43421 -0.653314 0
M  V30 2069 C 197.534 2.30768 0.0382271 0
M  V30 2070 C 198.504 1.44755 0.814576 0
M  V30 2071 O 199.689 1.73624 0.791162 0
M  V30 2072 C 196.829 3.30336 0.998599 0
M  V30 2073 C 195.942 4.31448 0.218342 0
M  V30 2074 C 195.077 5.18098 1.17252 0
M  V30 2075 C 194.116 6.10902 0.382702 0
M  V30 2076 N 193.253 6.90176 1.28848 0
M  V30 2077 H 198.093 2.89357 -0.712511 0
M  V30 2078 H 195.63 1.42548 -0.363128 0
M  V30 2079 H 197.588 3.86572 1.56901 0
M  V30 2080 H 196.218 2.73397 1.71621 0
M  V30 2081 H 195.27 3.77506 -0.46836 0
M  V30 2082 H 196.582 4.97227 -0.395812 0
M  V30 2083 H 195.736 5.7896 1.81356 0
M  V30 2084 H 194.475 4.52444 1.82058 0
M  V30 2085 H 193.48 5.49128 -0.27169 0
M  V30 2086 H 194.705 6.78598 -0.260957 0
M  V30 2087 H 192.651 6.27171 1.92334 0
M  V30 2088 H 192.568 7.52478 0.728887 0
M  V30 2089 H 193.836 7.55543 1.91766 0
M  V30 2090 N 198.065 0.39524 1.52563 0
M  V30 2091 C 199.311 -0.185318 2.01952 0
M  V30 2092 C 199.644 -1.45964 1.28095 0
M  V30 2093 O 198.919 -1.90689 0.38315 0
M  V30 2094 C 199.202 -0.447193 3.57312 0
M  V30 2095 C 199.055 0.842828 4.41833 0
M  V30 2096 C 200.374 -1.23529 4.22408 0
M  V30 2097 H 197.493 -0.0658788 0.73405 0
M  V30 2098 H 200.135 0.525975 1.82575 0
M  V30 2099 H 198.285 -1.05312 3.73954 0
M  V30 2100 H 199.957 1.4795 4.36931 0
M  V30 2101 H 198.2 1.45686 4.08605 0
M  V30 2102 H 198.871 0.614165 5.48573 0
M  V30 2103 H 201.347 -0.722445 4.0978 0
M  V30 2104 H 200.223 -1.38727 5.3108 0
M  V30 2105 H 200.484 -2.25213 3.80436 0
M  V30 2106 N 199.544 -1.57102 0.125237 0
M  V30 2107 C 200.955 -1.82384 -0.399142 0
M  V30 2108 C 201.306 -1.04276 -1.66195 0
M  V30 2109 O 200.431 -0.281269 -2.14564 0
M  V30 2110 C 201.026 -3.30821 -0.730932 0
M  V30 2111 C 199.585 -3.56762 -1.19992 0
M  V30 2112 C 198.732 -2.7649 -0.211792 0
M  V30 2113 H 201.683 -1.54786 0.350277 0
M  V30 2114 H 201.704 -3.4579 -1.58775 0
M  V30 2115 H 201.216 -3.87643 0.188345 0
M  V30 2116 H 199.317 -3.05305 -2.13588 0
M  V30 2117 H 199.43 -4.65317 -1.14093 0
M  V30 2118 H 197.794 -2.4489 -0.700085 0
M  V30 2119 H 198.577 -3.36073 0.700691 0
M  V30 2120 N 201.022 0.148545 -1.56898 0
M  V30 2121 C 201.969 1.18345 -1.98149 0
M  V30 2122 C 202.939 1.42772 -0.848848 0
M  V30 2123 O 204.124 1.55132 -1.11079 0
M  V30 2124 C 201.264 2.51231 -2.36594 0
M  V30 2125 C 200.377 2.33991 -3.63142 0
M  V30 2126 C 199.512 3.59902 -3.90697 0
M  V30 2127 C 198.551 3.37692 -5.1052 0
M  V30 2128 N 197.688 4.5573 -5.34092 0
M  V30 2129 H 202.528 0.82467 -2.86362 0
M  V30 2130 H 200.065 0.395756 -1.41676 0
M  V30 2131 H 202.023 3.28713 -2.56912 0
M  V30 2132 H 200.653 2.85059 -1.51463 0
M  V30 2133 H 199.705 1.47572 -3.50609 0
M  V30 2134 H 201.017 2.13539 -4.5078 0
M  V30 2135 H 200.171 4.45813 -4.11505 0
M  V30 2136 H 198.91 3.83357 -3.01477 0
M  V30 2137 H 197.915 2.5017 -4.89587 0
M  V30 2138 H 199.14 3.15637 -6.0129 0
M  V30 2139 H 197.086 4.79361 -4.47827 0
M  V30 2140 H 197.003 4.38274 -6.15996 0
M  V30 2141 H 198.271 5.42858 -5.59397 0
M  V30 2142 N 202.5 1.5196 0.417844 0
M  V30 2143 C 203.728 1.69426 1.18753 0
M  V30 2144 C 204.143 0.399955 1.84515 0
M  V30 2145 O 203.5 -0.623288 1.71527 0
M  V30 2146 C 203.551 2.82375 2.25714 0
M  V30 2147 O 203.272 4.06793 1.62638 0
M  V30 2148 C 204.773 3.11277 3.15628 0
M  V30 2149 H 201.993 0.568031 0.357186 0
M  V30 2150 H 204.537 1.98475 0.49273 0
M  V30 2151 H 202.692 2.5587 2.90877 0
M  V30 2152 H 203.106 4.69667 2.3348 0
M  V30 2153 H 204.58 3.93843 3.86771 0
M  V30 2154 H 205.057 2.24473 3.77503 0
M  V30 2155 H 205.663 3.39515 2.56144 0
M  V30 2156 N 203.978 -0.674533 1.42435 0
M  V30 2157 C 204.926 -1.80934 1.46169 0
M  V30 2158 C 205.92 -1.66006 0.3374 0
M  V30 2159 O 207.126 -1.72611 0.510425 0
M  V30 2160 H 203.501 -0.596594 0.457798 0
M  V30 2161 H 205.472 -1.74903 2.41767 0
M  V30 2162 C 204.221 -3.19088 1.38123 0
M  V30 2163 H 203.544 -3.31203 2.23931 0
M  V30 2164 H 204.984 -3.9851 1.44797 0
M  V30 2165 C 203.443 -3.36763 0.0960517 0
M  V30 2166 O 203.973 -3.92581 -0.851073 0
M  V30 2167 N 202.179 -2.90597 0.0131186 0
M  V30 2168 H 201.726 -2.45359 0.784639 0
M  V30 2169 H 201.684 -3.028 -0.846133 0
M  V30 2170 N 205.456 -1.28612 -0.910864 0
M  V30 2171 C 206.686 -1.1862 -1.69153 0
M  V30 2172 C 207.094 0.257324 -1.87442 0
M  V30 2173 O 206.437 1.18543 -1.40332 0
M  V30 2174 C 206.499 -1.81606 -3.10257 0
M  V30 2175 C 206.163 -3.30864 -3.15243 0
M  V30 2176 C 207.16 -4.27256 -2.96223 0
M  V30 2177 C 204.845 -3.71871 -3.37664 0
M  V30 2178 C 206.839 -5.62631 -2.99541 0
M  V30 2179 C 204.526 -5.07371 -3.40614 0
M  V30 2180 C 205.524 -6.02561 -3.21573 0
M  V30 2181 O 205.212 -7.35589 -3.2429 0
M  V30 2182 H 204.944 -0.412633 -0.535453 0
M  V30 2183 H 207.498 -1.70306 -1.14827 0
M  V30 2184 H 205.728 -1.24418 -3.66138 0
M  V30 2185 H 207.417 -1.66092 -3.70362 0
M  V30 2186 H 208.183 -3.9691 -2.78725 0
M  V30 2187 H 204.062 -2.98241 -3.5153 0
M  V30 2188 H 207.606 -6.36907 -2.84597 0
M  V30 2189 H 203.503 -5.37366 -3.57642 0
M  V30 2190 H 204.271 -7.44252 -3.40633 0
M  V30 2191 N 206.934 1.1197 -1.10907 0
M  V30 2192 C 208.18 1.8386 -0.855773 0
M  V30 2193 C 208.513 1.84134 0.617103 0
M  V30 2194 O 207.788 1.29041 1.45529 0
M  V30 2195 C 208.071 3.31305 -1.411 0
M  V30 2196 C 207.924 3.39456 -2.9511 0
M  V30 2197 C 209.243 4.2721 -1.05736 0
M  V30 2198 H 206.362 0.667545 -0.312334 0
M  V30 2199 H 209.004 1.31331 -1.37303 0
M  V30 2200 H 207.154 3.76169 -0.97105 0
M  V30 2201 H 208.826 3.03191 -3.47668 0
M  V30 2202 H 207.069 2.79849 -3.31462 0
M  V30 2203 H 207.74 4.43209 -3.29044 0
M  V30 2204 H 210.216 3.90497 -1.43706 0
M  V30 2205 H 209.092 5.28775 -1.47269 0
M  V30 2206 H 209.353 4.42088 0.0325958 0
M  V30 2207 N 208.412 0.89855 1.29475 0
M  V30 2208 C 209.659 0.523882 1.95606 0
M  V30 2209 C 209.987 -0.929608 1.70847 0
M  V30 2210 O 209.242 -1.67401 1.01367 0
M  V30 2211 C 209.541 0.761398 3.49195 0
M  V30 2212 C 209.207 2.19207 3.94029 0
M  V30 2213 C 207.869 2.58326 4.05982 0
M  V30 2214 C 210.221 3.12379 4.17216 0
M  V30 2215 C 207.549 3.898 4.38489 0
M  V30 2216 C 209.901 4.43401 4.51197 0
M  V30 2217 C 208.565 4.82394 4.61359 0
M  V30 2218 H 207.835 0.191702 0.715773 0
M  V30 2219 H 210.482 1.13699 1.54094 0
M  V30 2220 H 208.787 0.0653622 3.91745 0
M  V30 2221 H 210.484 0.450904 3.98457 0
M  V30 2222 H 207.074 1.87846 3.85242 0
M  V30 2223 H 211.258 2.83371 4.07449 0
M  V30 2224 H 206.514 4.19734 4.44559 0
M  V30 2225 H 210.688 5.15623 4.68087 0
M  V30 2226 H 208.315 5.84306 4.86303 0
M  V30 2227 N 209.89 -1.43072 0.660911 0
M  V30 2228 C 211.13 -2.03596 0.181146 0
M  V30 2229 C 211.494 -1.51057 -1.18515 0
M  V30 2230 O 212.695 -2.03275 -1.75877 0
M  V30 2231 C 210.966 -3.56845 0.19911 0
M  V30 2232 S 212.525 -4.38289 -0.211684 0
M  V30 2233 H 209.343 -0.706954 0.0757479 0
M  V30 2234 H 211.945 -1.75027 0.870965 0
M  V30 2235 H 210.649 -3.92583 1.1961 0
M  V30 2236 H 210.18 -3.90067 -0.510996 0
M  V30 2237 H 212.195 -4.74583 -1.44863 0
M  V30 2238 N 211.368 -0.403325 -1.52352 0
M  V30 2239 C 212.316 0.439752 -2.28405 0
M  V30 2240 C 213.31 1.05089 -1.32863 0
M  V30 2241 O 214.516 0.989759 -1.50345 0
M  V30 2242 H 210.891 0.160587 -0.734653 0
M  V30 2243 H 212.862 -0.222983 -2.97566 0
M  V30 2244 C 211.611 1.54736 -3.11371 0
M  V30 2245 H 210.934 1.08643 -3.84755 0
M  V30 2246 H 212.374 2.1112 -3.67701 0
M  V30 2247 C 210.833 2.51141 -2.24566 0
M  V30 2248 O 211.363 3.54887 -1.88196 0
M  V30 2249 N 209.569 2.21213 -1.8845 0
M  V30 2250 H 209.116 1.36878 -2.18225 0
M  V30 2251 H 209.074 2.85963 -1.30662 0
M  V30 2252 N 212.846 1.57033 -0.133567 0
M  V30 2253 C 213.809 2.14897 0.796995 0
M  V30 2254 C 214.809 1.0874 1.18458 0
M  V30 2255 O 215.999 1.34446 1.1077 0
M  V30 2256 C 213.131 2.70112 2.07973 0
M  V30 2257 H 214.324 2.98457 0.293873 0
M  V30 2258 H 211.877 1.55871 0.115787 0
M  V30 2259 H 212.612 1.9018 2.62682 0
M  V30 2260 H 212.397 3.47764 1.81115 0
M  V30 2261 H 213.887 3.14738 2.74462 0
M  V30 2262 N 214.325 -0.140222 1.56975 0
M  V30 2263 C 215.235 -1.19223 2.02047 0
M  V30 2264 C 216.251 -1.46612 0.937062 0
M  V30 2265 O 217.427 -1.58148 1.24704 0
M  V30 2266 C 214.492 -2.50414 2.39778 0
M  V30 2267 C 213.553 -2.30612 3.621 0
M  V30 2268 C 212.786 -3.55547 3.98023 0
M  V30 2269 O 213.009 -4.62004 3.34528 0
M  V30 2270 O 211.943 -3.47808 4.91237 0
M  V30 2271 H 215.769 -0.839559 2.91865 0
M  V30 2272 H 213.354 -0.349453 1.45256 0
M  V30 2273 H 215.236 -3.27747 2.64877 0
M  V30 2274 H 213.911 -2.85198 1.53114 0
M  V30 2275 H 212.818 -1.51207 3.4218 0
M  V30 2276 H 214.151 -2.00741 4.49404 0
M  V30 2277 N 215.803 -1.52179 -0.40978 0
M  V30 2278 C 217.05 -1.66206 -1.15679 0
M  V30 2279 C 217.378 -0.391674 -1.90516 0
M  V30 2280 O 216.633 0.62533 -1.8544 0
M  V30 2281 C 216.932 -2.83428 -2.17723 0
M  V30 2282 C 216.598 -4.21672 -1.59699 0
M  V30 2283 C 215.26 -4.59274 -1.43599 0
M  V30 2284 C 217.612 -5.07825 -1.17317 0
M  V30 2285 C 214.94 -5.80709 -0.836328 0
M  V30 2286 C 217.292 -6.29864 -0.587691 0
M  V30 2287 C 215.956 -6.66216 -0.413818 0
M  V30 2288 H 215.226 -0.608192 -0.423301 0
M  V30 2289 H 217.873 -1.86279 -0.444097 0
M  V30 2290 H 216.178 -2.57687 -2.95135 0
M  V30 2291 H 217.875 -2.91477 -2.75394 0
M  V30 2292 H 214.465 -3.9204 -1.73213 0
M  V30 2293 H 218.649 -4.79359 -1.28565 0
M  V30 2294 H 213.905 -6.07498 -0.689626 0
M  V30 2295 H 218.079 -6.95948 -0.250894 0
M  V30 2296 H 215.706 -7.60182 0.0529471 0
M  V30 2297 N 217.281 0.66697 -1.42791 0
M  V30 2298 C 218.527 1.4291 -1.43891 0
M  V30 2299 C 218.86 1.94114 -0.0578972 0
M  V30 2300 O 218.135 1.71414 0.91911 0
M  V30 2301 C 218.418 2.62049 -2.46987 0
M  V30 2302 C 218.271 2.16426 -3.94309 0
M  V30 2303 C 219.59 3.64266 -2.46978 0
M  V30 2304 H 216.709 0.518306 -0.523954 0
M  V30 2305 H 219.351 0.757321 -1.74255 0
M  V30 2306 H 217.501 3.19361 -2.21225 0
M  V30 2307 H 219.173 1.64221 -4.31079 0
M  V30 2308 H 217.416 1.47925 -4.078 0
M  V30 2309 H 218.087 3.02038 -4.62036 0
M  V30 2310 H 220.563 3.16686 -2.69906 0
M  V30 2311 H 219.439 4.45196 -3.21079 0
M  V30 2312 H 219.7 4.15927 -1.49857 0
M  V30 2313 N 218.759 1.29093 0.90403 0
M  V30 2314 C 220.008 1.16187 1.64874 0
M  V30 2315 C 220.321 -0.286742 1.93487 0
M  V30 2316 O 221.527 -0.537062 2.66135 0
M  V30 2317 C 219.983 2.03177 2.97064 0
M  V30 2318 C 219.591 3.52836 2.76062 0
M  V30 2319 C 221.335 1.98984 3.74974 0
M  V30 2320 C 219.242 4.31945 4.03952 0
M  V30 2321 H 218.172 0.431246 0.618501 0
M  V30 2322 H 220.823 1.53699 1.00243 0
M  V30 2323 H 219.205 1.5853 3.62883 0
M  V30 2324 H 220.379 4.05507 2.18863 0
M  V30 2325 H 218.694 3.58656 2.11553 0
M  V30 2326 H 221.291 2.55351 4.69787 0
M  V30 2327 H 221.634 0.968815 4.0487 0
M  V30 2328 H 222.167 2.41652 3.15989 0
M  V30 2329 H 218.906 5.34667 3.79225 0
M  V30 2330 H 218.426 3.84045 4.60727 0
M  V30 2331 H 220.105 4.42379 4.72133 0
M  V30 2332 N 220.237 -1.11381 1.11499 0
M  V30 2333 C 221.648 -1.6465 0.880191 0
M  V30 2334 C 221.999 -1.87199 -0.587434 0
M  V30 2335 O 221.124 -1.60667 -1.44966 0
M  V30 2336 C 221.719 -2.99105 1.59128 0
M  V30 2337 C 220.278 -3.49279 1.40289 0
M  V30 2338 C 219.425 -2.24077 1.63354 0
M  V30 2339 H 222.376 -0.950123 1.27116 0
M  V30 2340 H 222.397 -3.66107 1.03664 0
M  V30 2341 H 221.909 -2.82661 2.65941 0
M  V30 2342 H 220.01 -3.70887 0.356888 0
M  V30 2343 H 220.123 -4.2803 2.15238 0
M  V30 2344 H 218.487 -2.31733 1.05698 0
M  V30 2345 H 219.27 -2.10175 2.71443 0
M  V30 2346 N 221.715 -0.905404 -1.28997 0
M  V30 2347 C 222.647 -0.344748 -2.26592 0
M  V30 2348 C 223.66 0.512135 -1.54535 0
M  V30 2349 O 224.849 0.328368 -1.75454 0
M  V30 2350 C 221.949 0.526587 -3.34784 0
M  V30 2351 C 221.122 -0.305871 -4.36329 0
M  V30 2352 C 220.181 0.499209 -5.23827 0
M  V30 2353 O 219.207 -0.0853004 -5.69136 0
M  V30 2354 N 220.409 1.80408 -5.51755 0
M  V30 2355 H 223.174 -1.18359 -2.75338 0
M  V30 2356 H 220.735 -0.770481 -1.42391 0
M  V30 2357 H 222.727 1.07171 -3.90252 0
M  V30 2358 H 221.297 1.26613 -2.85811 0
M  V30 2359 H 220.517 -1.0324 -3.80441 0
M  V30 2360 H 221.805 -0.875773 -5.01206 0
M  V30 2361 H 221.203 2.3016 -5.16762 0
M  V30 2362 H 219.76 2.29621 -6.10014 0
M  V30 2363 N 223.193 1.4272 -0.668489 0
M  V30 2364 C 224.604 1.84793 -0.266151 0
M  V30 2365 C 224.955 1.55959 1.19043 0
M  V30 2366 O 224.08 1.01622 1.91055 0
M  V30 2367 C 224.675 3.35436 -0.476271 0
M  V30 2368 C 223.234 3.76182 -0.128113 0
M  V30 2369 C 222.381 2.66344 -0.771777 0
M  V30 2370 H 225.332 1.32656 -0.871098 0
M  V30 2371 H 225.353 3.79515 0.273561 0
M  V30 2372 H 224.865 3.5639 -1.53647 0
M  V30 2373 H 222.966 3.60836 0.928891 0
M  V30 2374 H 223.079 4.75766 -0.564231 0
M  V30 2375 H 221.443 2.53885 -0.203652 0
M  V30 2376 H 222.226 2.90123 -1.83531 0
M  V30 2377 N 224.671 0.411399 1.52136 0
M  V30 2378 C 225.619 -0.427633 2.28635 0
M  V30 2379 C 226.613 -1.04383 1.33419 0
M  V30 2380 O 227.819 -0.981772 1.50868 0
M  V30 2381 H 224.194 -0.156689 0.735495 0
M  V30 2382 H 226.165 0.238761 2.97443 0
M  V30 2383 C 224.914 -1.53082 3.12188 0
M  V30 2384 H 224.237 -1.06601 3.85326 0
M  V30 2385 H 225.677 -2.09167 3.68816 0
M  V30 2386 C 224.136 -2.49946 2.25895 0
M  V30 2387 O 224.666 -3.53884 1.90076 0
M  V30 2388 N 222.872 -2.2021 1.8962 0
M  V30 2389 H 222.419 -1.35719 2.18948 0
M  V30 2390 H 222.377 -2.85266 1.32176 0
M  V30 2391 N 226.149 -1.5696 0.141893 0
M  V30 2392 C 227.426 -1.87553 -0.555281 0
M  V30 2393 C 227.806 -1.04699 -1.83306 0
M  V30 2394 O 227.154 -0.132346 -2.28116 0
M  V30 2395 C 227.364 -3.39093 -0.825664 0
M  V30 2396 C 228.712 -4.08199 -1.16869 0
M  V30 2397 O 229.736 -3.44242 -0.915185 0
M  V30 2398 O 228.595 -5.21139 -1.6455 0
M  V30 2399 H 225.689 -0.777188 -0.282679 0
M  V30 2400 H 228.235 -1.68763 0.17812 0
M  V30 2401 H 227.007 -3.91221 0.0788633 0
M  V30 2402 H 226.63 -3.63393 -1.61343 0
M  V30 2403 N 227.627 0.131896 -1.57047 0
M  V30 2404 C 228.875 0.840269 -1.83804 0
M  V30 2405 C 229.196 1.81017 -0.72512 0
M  V30 2406 O 228.466 1.94272 0.251995 0
M  V30 2407 H 227.046 0.313294 -0.678127 0
M  V30 2408 H 229.708 0.122294 -1.94516 0
M  V30 2409 H 228.804 1.39335 -2.79271 0
M  V30 2410 N 229.106 1.52395 0.401703 0
M  V30 2411 C 230.334 1.70676 1.16949 0
M  V30 2412 C 230.749 0.419503 1.8408 0
M  V30 2413 O 230.106 -0.605061 1.72178 0
M  V30 2414 C 230.157 2.84753 2.22706 0
M  V30 2415 O 229.878 4.08495 1.58314 0
M  V30 2416 C 231.379 3.14608 3.12309 0
M  V30 2417 H 228.599 0.571787 0.351142 0
M  V30 2418 H 231.143 1.98987 0.471652 0
M  V30 2419 H 229.298 2.58941 2.88147 0
M  V30 2420 H 229.712 4.72117 2.28485 0
M  V30 2421 H 231.186 3.97923 3.82572 0
M  V30 2422 H 231.663 2.28464 3.75101 0
M  V30 2423 H 232.269 3.42212 2.52529 0
M  V30 2424 N 230.584 -0.659388 1.43143 0
M  V30 2425 C 231.861 -1.41627 1.34912 0
M  V30 2426 C 232.241 -2.11099 -0.00607785 0
M  V30 2427 O 231.589 -2.04353 -1.02236 0
M  V30 2428 C 231.799 -2.40604 2.52805 0
M  V30 2429 C 233.147 -3.04789 2.95616 0
M  V30 2430 O 234.171 -2.50932 2.52807 0
M  V30 2431 O 233.03 -4.02421 3.69756 0
M  V30 2432 H 230.124 -0.63246 0.532844 0
M  V30 2433 H 232.67 -0.686814 1.5518 0
M  V30 2434 H 231.442 -1.88174 3.43083 0
M  V30 2435 H 231.065 -3.21009 2.34604 0
M  V30 2436 N 232.062 -1.29571 -0.897171 0
M  V30 2437 C 233.309 -1.17689 -1.6479 0
M  V30 2438 C 233.637 0.27107 -1.92602 0
M  V30 2439 O 232.892 1.21193 -1.53658 0
M  V30 2440 C 233.191 -1.9382 -3.00281 0
M  V30 2441 C 232.857 -3.43522 -2.92068 0
M  V30 2442 C 231.519 -3.84348 -2.89535 0
M  V30 2443 C 233.871 -4.38906 -2.81089 0
M  V30 2444 C 231.199 -5.18869 -2.73846 0
M  V30 2445 C 233.551 -5.73521 -2.66939 0
M  V30 2446 C 232.215 -6.13601 -2.62774 0
M  V30 2447 H 231.485 -0.430654 -0.603008 0
M  V30 2448 H 234.132 -1.60536 -1.04404 0
M  V30 2449 H 232.437 -1.4357 -3.64547 0
M  V30 2450 H 234.134 -1.82028 -3.57305 0
M  V30 2451 H 230.724 -3.11072 -2.94842 0
M  V30 2452 H 234.908 -4.08315 -2.82121 0
M  V30 2453 H 230.164 -5.4903 -2.69027 0
M  V30 2454 H 234.338 -6.47078 -2.57416 0
M  V30 2455 H 231.965 -7.17786 -2.50375 0
M  V30 2456 N 233.54 1.10788 -1.12088 0
M  V30 2457 C 234.765 1.87002 -0.896949 0
M  V30 2458 C 235.19 1.79933 0.548261 0
M  V30 2459 O 234.548 1.16662 1.38779 0
M  V30 2460 C 234.596 3.3349 -1.37174 0
M  V30 2461 O 233.7 4.08745 -0.547831 0
M  V30 2462 H 233.041 0.580397 -0.322545 0
M  V30 2463 H 235.571 1.39996 -1.49206 0
M  V30 2464 H 235.581 3.84339 -1.36922 0
M  V30 2465 H 234.256 3.37951 -2.42408 0
M  V30 2466 H 232.833 3.6776 -0.617034 0
M  V30 2467 N 235.018 0.912232 1.28515 0
M  V30 2468 C 235.948 0.416403 2.29757 0
M  V30 2469 C 236.929 -0.515194 1.6211 0
M  V30 2470 O 238.114 -0.423253 1.89532 0
M  V30 2471 C 235.244 -0.34572 3.45575 0
M  V30 2472 C 234.198 0.496599 4.25109 0
M  V30 2473 C 233.524 -0.393771 5.33248 0
M  V30 2474 C 234.824 1.75307 4.92001 0
M  V30 2475 H 236.518 1.26249 2.7148 0
M  V30 2476 H 234.064 0.608515 1.30511 0
M  V30 2477 H 236.017 -0.703422 4.15488 0
M  V30 2478 H 234.741 -1.2257 3.02728 0
M  V30 2479 H 233.4 0.8368 3.56922 0
M  V30 2480 H 233.048 -1.27225 4.86644 0
M  V30 2481 H 232.748 0.166209 5.87365 0
M  V30 2482 H 234.272 -0.747389 6.06009 0
M  V30 2483 H 235.686 1.46437 5.54283 0
M  V30 2484 H 234.083 2.25534 5.56106 0
M  V30 2485 H 235.153 2.48176 4.16577 0
M  V30 2486 N 236.496 -1.42363 0.676048 0
M  V30 2487 C 237.773 -1.95183 0.127726 0
M  V30 2488 C 238.153 -1.61641 -1.35777 0
M  V30 2489 O 237.501 -0.913216 -2.09458 0
M  V30 2490 C 237.711 -3.46721 0.398199 0
M  V30 2491 C 239.059 -4.23427 0.315383 0
M  V30 2492 O 240.083 -3.54649 0.332016 0
M  V30 2493 O 238.942 -5.45888 0.25865 0
M  V30 2494 H 236.036 -0.826992 0.00359427 0
M  V30 2495 H 238.582 -1.52184 0.750864 0
M  V30 2496 H 237.354 -3.64344 1.4272 0
M  V30 2497 H 236.977 -3.96769 -0.256885 0
M  V30 2498 N 237.974 -0.419461 -1.51915 0
M  V30 2499 C 238.922 0.415502 -2.28859 0
M  V30 2500 C 239.916 1.03674 -1.3397 0
M  V30 2501 O 241.122 0.973757 -1.51387 0
M  V30 2502 H 237.497 0.152786 -0.736315 0
M  V30 2503 H 239.468 -0.254531 -2.97312 0
M  V30 2504 C 238.217 1.51425 -3.12995 0
M  V30 2505 H 237.54 1.04556 -3.85886 0
M  V30 2506 H 238.98 2.07208 -3.6992 0
M  V30 2507 C 237.439 2.48745 -2.27217 0
M  V30 2508 O 237.969 3.52871 -1.9195 0
M  V30 2509 N 236.175 2.19202 -1.90785 0
M  V30 2510 H 235.722 1.34556 -2.19664 0
M  V30 2511 H 235.68 2.84561 -1.33687 0
M  V30 2512 N 239.452 1.56882 -0.150215 0
M  V30 2513 C 240.677 2.01027 0.510184 0
M  V30 2514 C 241.102 1.02966 1.57415 0
M  V30 2515 O 240.46 0.00590158 1.81299 0
M  V30 2516 C 240.508 3.43899 1.08472 0
M  V30 2517 O 239.612 3.4885 2.19948 0
M  V30 2518 H 238.953 0.652233 0.124451 0
M  V30 2519 H 241.483 2.03093 -0.247894 0
M  V30 2520 H 241.493 3.82766 1.41259 0
M  V30 2521 H 240.168 4.14776 0.305582 0
M  V30 2522 H 238.745 3.21827 1.88366 0
M  V30 2523 N 240.93 -0.123565 1.57115 0
M  V30 2524 C 242.16 -0.845233 1.88519 0
M  V30 2525 C 242.568 -1.74168 0.739064 0
M  V30 2526 O 241.911 -1.81244 -0.299355 0
M  V30 2527 C 241.973 -1.73452 3.14888 0
M  V30 2528 C 241.637 -1.01285 4.45635 0
M  V30 2529 C 242.634 -0.355774 5.18681 0
M  V30 2530 C 240.319 -0.99538 4.92339 0
M  V30 2531 C 242.313 0.309114 6.3665 0
M  V30 2532 C 240 -0.32669 6.10226 0
M  V30 2533 C 240.998 0.324406 6.82229 0
M  V30 2534 O 240.686 0.982437 7.97874 0
M  V30 2535 H 240.418 -0.248534 0.628655 0
M  V30 2536 H 242.972 -0.113907 2.05084 0
M  V30 2537 H 241.202 -2.50737 2.94394 0
M  V30 2538 H 242.891 -2.33021 3.32349 0
M  V30 2539 H 243.657 -0.360918 4.83655 0
M  V30 2540 H 239.536 -1.49159 4.36202 0
M  V30 2541 H 243.08 0.8179 6.92789 0
M  V30 2542 H 238.977 -0.319294 6.4471 0
M  V30 2543 H 239.745 0.886454 8.13686 0
M  V30 2544 N 242.408 -1.52605 -0.393616 0
M  V30 2545 C 243.636 -1.71294 -1.16043 0
M  V30 2546 C 244.051 -0.429259 -1.83855 0
M  V30 2547 O 243.408 0.595921 -1.72496 0
M  V30 2548 C 243.459 -2.8593 -2.21193 0
M  V30 2549 O 243.18 -4.09329 -1.56146 0
M  V30 2550 C 244.681 -3.16259 -3.10636 0
M  V30 2551 H 241.901 -0.573641 -0.348104 0
M  V30 2552 H 244.445 -1.99234 -0.461092 0
M  V30 2553 H 242.6 -2.60465 -2.86769 0
M  V30 2554 H 243.014 -4.73323 -2.25978 0
M  V30 2555 H 244.488 -3.99946 -3.80456 0
M  V30 2556 H 244.965 -2.3045 -3.73884 0
M  V30 2557 H 245.571 -3.43547 -2.50711 0
M  V30 2558 N 243.887 0.651787 -1.4349 0
M  V30 2559 C 244.82 1.77668 -1.43211 0
M  V30 2560 C 245.798 1.59931 -0.29338 0
M  V30 2561 O 246.982 1.82095 -0.487191 0
M  V30 2562 C 244.109 3.14986 -1.24505 0
M  V30 2563 C 243.155 3.51421 -2.41673 0
M  V30 2564 S 243.988 3.51234 -4.04222 0
M  V30 2565 C 245.144 4.91206 -3.87902 0
M  V30 2566 H 245.377 1.77635 -2.38397 0
M  V30 2567 H 242.91 0.824558 -1.30539 0
M  V30 2568 H 244.868 3.94237 -1.144 0
M  V30 2569 H 243.529 3.1258 -0.308651 0
M  V30 2570 H 242.722 4.51291 -2.24393 0
M  V30 2571 H 242.324 2.79585 -2.48411 0
M  V30 2572 H 244.616 5.79902 -3.50315 0
M  V30 2573 H 245.559 5.13537 -4.8753 0
M  V30 2574 H 245.967 4.64808 -3.20334 0
M  V30 2575 N 245.365 1.30045 0.890287 0
M  V30 2576 C 246.612 1.18561 1.64163 0
M  V30 2577 C 246.94 -0.260852 1.92743 0
M  V30 2578 O 246.195 -1.20376 1.54299 0
M  V30 2579 C 246.494 1.95409 2.99249 0
M  V30 2580 C 246.16 3.45066 2.90242 0
M  V30 2581 C 244.822 3.85878 2.87492 0
M  V30 2582 C 247.174 4.4039 2.78758 0
M  V30 2583 C 244.502 5.20314 2.7109 0
M  V30 2584 C 246.854 5.74928 2.63894 0
M  V30 2585 C 245.518 6.14986 2.59516 0
M  V30 2586 H 244.788 0.433846 0.600715 0
M  V30 2587 H 247.435 1.61088 1.03552 0
M  V30 2588 H 245.74 1.45501 3.63781 0
M  V30 2589 H 247.437 1.8392 3.56334 0
M  V30 2590 H 244.027 3.12631 2.93189 0
M  V30 2591 H 248.211 4.09806 2.79952 0
M  V30 2592 H 243.467 5.50449 2.66112 0
M  V30 2593 H 247.641 6.48434 2.53981 0
M  V30 2594 H 245.268 7.19104 2.46565 0
M  V30 2595 N 246.843 -1.10192 1.12674 0
M  V30 2596 C 248.071 -1.85983 0.906527 0
M  V30 2597 C 248.486 -1.80783 -0.544333 0
M  V30 2598 O 247.843 -1.19834 -1.37645 0
M  V30 2599 C 247.894 -3.34281 1.37618 0
M  V30 2600 O 247.615 -3.39401 2.77017 0
M  V30 2601 C 249.116 -4.26938 1.19325 0
M  V30 2602 H 246.336 -0.587716 0.323775 0
M  V30 2603 H 248.88 -1.39284 1.49734 0
M  V30 2604 H 247.035 -3.78436 0.828539 0
M  V30 2605 H 247.449 -4.31838 2.97684 0
M  V30 2606 H 248.923 -5.29181 1.57071 0
M  V30 2607 H 249.4 -4.38995 0.134097 0
M  V30 2608 H 250.006 -3.8859 1.72852 0
M  V30 2609 N 248.321 -0.919034 -1.28029 0
M  V30 2610 C 249.284 -0.416182 -2.2539 0
M  V30 2611 C 250.284 0.460438 -1.54067 0
M  V30 2612 O 251.474 0.262744 -1.72207 0
M  V30 2613 C 248.606 0.402707 -3.38513 0
M  V30 2614 H 249.799 -1.27629 -2.71387 0
M  V30 2615 H 247.352 -0.698919 -1.39803 0
M  V30 2616 H 248.087 1.282 -2.97885 0
M  V30 2617 H 247.872 -0.225698 -3.9145 0
M  V30 2618 H 249.362 0.745191 -4.10897 0
M  V30 2619 N 249.799 1.42003 -0.683588 0
M  V30 2620 C 251.048 2.00638 -0.206681 0
M  V30 2621 C 251.361 1.5472 1.19671 0
M  V30 2622 O 252.567 2.05833 1.77045 0
M  V30 2623 C 251.023 3.58487 -0.318632 0
M  V30 2624 C 250.631 4.1339 -1.72663 0
M  V30 2625 C 252.375 4.24384 0.0991141 0
M  V30 2626 C 250.282 5.63633 -1.79087 0
M  V30 2627 H 249.212 0.750408 -0.0735107 0
M  V30 2628 H 251.863 1.62624 -0.850048 0
M  V30 2629 H 250.245 3.94047 0.392781 0
M  V30 2630 H 251.419 3.89273 -2.46583 0
M  V30 2631 H 249.734 3.59976 -2.09299 0
M  V30 2632 H 252.331 5.34652 0.0713833 0
M  V30 2633 H 252.674 4.00505 1.13586 0
M  V30 2634 H 253.207 3.93816 -0.561599 0
M  V30 2635 H 249.946 5.92323 -2.80774 0
M  V30 2636 H 249.466 5.89714 -1.09535 0
M  V30 2637 H 251.145 6.28201 -1.5483 0
M  V30 2638 N 251.277 0.427512 1.51691 0
M  V30 2639 C 252.554 -0.201684 1.94557 0
M  V30 2640 C 252.934 -1.60981 1.36559 0
M  V30 2641 O 252.282 -2.21814 0.548702 0
M  V30 2642 C 252.492 -0.189394 3.48486 0
M  V30 2643 C 253.84 -0.39978 4.22714 0
M  V30 2644 O 254.864 -0.267945 3.55191 0
M  V30 2645 O 253.723 -0.661249 5.42485 0
M  V30 2646 H 250.817 -0.135261 0.815864 0
M  V30 2647 H 253.363 0.484782 1.62628 0
M  V30 2648 H 252.135 0.795431 3.8313 0
M  V30 2649 H 251.758 -0.919187 3.86829 0
M  V30 2650 N 252.755 -1.56801 0.158532 0
M  V30 2651 C 253.718 -2.16138 -0.762705 0
M  V30 2652 C 254.718 -1.1061 -1.16713 0
M  V30 2653 O 255.908 -1.36191 -1.08617 0
M  V30 2654 C 253.04 -2.73386 -2.03649 0
M  V30 2655 H 254.233 -2.98886 -0.246354 0
M  V30 2656 H 251.786 -1.56035 -0.0909744 0
M  V30 2657 H 252.521 -1.94335 -2.59623 0
M  V30 2658 H 252.306 -3.50601 -1.75559 0
M  V30 2659 H 253.796 -3.19065 -2.6942 0
M  V30 2660 N 254.233 0.115231 -1.57178 0
M  V30 2661 C 255.143 1.15994 -2.03918 0
M  V30 2662 C 256.159 1.45103 -0.960268 0
M  V30 2663 O 257.335 1.56144 -1.27204 0
M  V30 2664 C 254.4 2.46568 -2.43732 0
M  V30 2665 C 253.461 2.24822 -3.65723 0
M  V30 2666 C 252.694 3.4917 -4.03629 0
M  V30 2667 O 252.917 4.56623 -3.41835 0
M  V30 2668 O 251.851 3.39949 -4.96708 0
M  V30 2669 H 255.677 0.793019 -2.93164 0
M  V30 2670 H 253.262 0.3263 -1.45793 0
M  V30 2671 H 255.144 3.23492 -2.70057 0
M  V30 2672 H 253.819 2.82726 -1.57631 0
M  V30 2673 H 252.726 1.45744 -3.44542 0
M  V30 2674 H 254.059 1.93566 -4.52541 0
M  V30 2675 N 255.711 1.52812 0.385517 0
M  V30 2676 C 256.939 1.71907 1.15133 0
M  V30 2677 C 257.354 0.439004 1.83625 0
M  V30 2678 O 256.711 -0.586765 1.7281 0
M  V30 2679 C 256.762 2.87099 2.19673 0
M  V30 2680 O 256.483 4.10151 1.53973 0
M  V30 2681 C 257.984 3.17902 3.08955 0
M  V30 2682 H 255.204 0.575479 0.345057 0
M  V30 2683 H 257.748 1.99476 0.45052 0
M  V30 2684 H 255.903 2.61982 2.85384 0
M  V30 2685 H 256.317 4.74514 2.23465 0
M  V30 2686 H 257.791 4.01959 3.7833 0
M  V30 2687 H 258.268 2.3243 3.72657 0
M  V30 2688 H 258.874 3.44871 2.48885 0
M  V30 2689 N 257.189 -0.644168 1.43834 0
M  V30 2690 C 258.122 -1.76906 1.44151 0
M  V30 2691 C 259.1 -1.59774 0.301857 0
M  V30 2692 O 260.284 -1.81834 0.496841 0
M  V30 2693 C 257.411 -3.14321 1.26174 0
M  V30 2694 C 256.457 -3.50134 2.43533 0
M  V30 2695 S 257.29 -3.49085 4.06079 0
M  V30 2696 C 258.446 -4.89142 3.90501 0
M  V30 2697 H 258.679 -1.76368 2.39336 0
M  V30 2698 H 256.212 -0.817624 1.30974 0
M  V30 2699 H 258.17 -3.93625 1.16489 0
M  V30 2700 H 256.831 -3.12412 0.325224 0
M  V30 2701 H 256.024 -4.50095 2.26783 0
M  V30 2702 H 255.626 -2.78264 2.4989 0
M  V30 2703 H 257.918 -5.78036 3.53385 0
M  V30 2704 H 258.861 -5.10945 4.90246 0
M  V30 2705 H 259.269 -4.63102 3.22795 0
M  V30 2706 N 258.668 -1.30515 -0.883378 0
M  V30 2707 C 259.945 -1.10086 -1.6168 0
M  V30 2708 C 260.325 0.349269 -2.08191 0
M  V30 2709 O 259.673 1.34105 -1.85008 0
M  V30 2710 C 259.883 -2.10315 -2.78511 0
M  V30 2711 C 261.231 -2.42119 -3.48803 0
M  V30 2712 O 262.255 -2.08638 -2.88702 0
M  V30 2713 O 261.114 -2.99396 -4.57192 0
M  V30 2714 H 258.208 -0.422907 -0.710689 0
M  V30 2715 H 260.754 -1.41947 -0.930015 0
M  V30 2716 H 259.526 -3.07917 -2.41459 0
M  V30 2717 H 259.149 -1.79282 -3.54886 0
M  V30 2718 N 260.146 1.09593 -1.13257 0
M  V30 2719 C 261.392 1.82003 -0.89458 0
M  V30 2720 C 261.725 1.85402 0.577906 0
M  V30 2721 O 261 1.32099 1.42759 0
M  V30 2722 C 261.283 3.28237 -1.48096 0
M  V30 2723 C 261.136 3.3312 -3.02244 0
M  V30 2724 C 262.455 4.24871 -1.14774 0
M  V30 2725 H 259.574 0.66077 -0.326424 0
M  V30 2726 H 262.216 1.28389 -1.40058 0
M  V30 2727 H 260.366 3.74024 -1.05062 0
M  V30 2728 H 262.038 2.95748 -3.54021 0
M  V30 2729 H 260.281 2.72756 -3.37323 0
M  V30 2730 H 260.952 4.3613 -3.38371 0
M  V30 2731 H 263.428 3.87361 -1.51957 0
M  V30 2732 H 262.304 5.25532 -1.58452 0
M  V30 2733 H 262.565 4.42058 -0.0611849 0
M  V30 2734 N 261.624 0.925811 1.2754 0
M  V30 2735 C 262.587 0.428129 2.25166 0
M  V30 2736 C 263.587 -0.452261 1.54309 0
M  V30 2737 O 264.777 -0.253608 1.72344 0
M  V30 2738 C 261.909 -0.384749 3.38722 0
M  V30 2739 H 263.102 1.29066 2.70706 0
M  V30 2740 H 260.655 0.706323 1.3943 0
M  V30 2741 H 261.39 -1.26618 2.98561 0
M  V30 2742 H 261.175 0.246454 3.91325 0
M  V30 2743 H 262.665 -0.723389 4.11287 0
M  V30 2744 N 263.102 -1.41638 0.69111 0
M  V30 2745 C 264.348 -2.02104 0.229258 0
M  V30 2746 C 264.703 -1.53741 -1.15678 0
M  V30 2747 O 263.996 -0.736849 -1.76865 0
M  V30 2748 C 264.19 -3.56714 0.221277 0
M  V30 2749 C 264.019 -4.20083 1.605 0
M  V30 2750 C 262.789 -4.54566 2.20676 0
M  V30 2751 C 264.987 -4.46587 2.55078 0
M  V30 2752 N 262.969 -5.03199 3.5166 0
M  V30 2753 C 264.34 -4.96946 3.70735 0
M  V30 2754 C 266.395 -4.28593 2.53401 0
M  V30 2755 C 265.098 -5.31203 4.8499 0
M  V30 2756 C 267.124 -4.63936 3.66765 0
M  V30 2757 C 266.486 -5.14463 4.81152 0
M  V30 2758 H 262.585 -0.771256 0.12918 0
M  V30 2759 H 265.169 -1.72251 0.907626 0
M  V30 2760 H 263.34 -3.86051 -0.426562 0
M  V30 2761 H 265.072 -4.03896 -0.254983 0
M  V30 2762 H 261.827 -4.4087 1.73005 0
M  V30 2763 H 262.251 -5.31926 4.18789 0
M  V30 2764 H 266.893 -3.88771 1.66184 0
M  V30 2765 H 264.611 -5.69951 5.72871 0
M  V30 2766 H 268.197 -4.51677 3.66714 0
M  V30 2767 H 267.077 -5.41299 5.67419 0
M  V30 2768 N 264.58 -0.43555 -1.51462 0
M  V30 2769 C 265.512 0.41257 -2.25456 0
M  V30 2770 C 266.525 0.987822 -1.29406 0
M  V30 2771 O 267.714 0.882266 -1.55172 0
M  V30 2772 C 264.814 1.58894 -2.99342 0
M  V30 2773 C 263.987 1.13288 -4.22474 0
M  V30 2774 C 263.046 2.17917 -4.78956 0
M  V30 2775 O 262.072 1.77425 -5.40841 0
M  V30 2776 N 263.274 3.50382 -4.62832 0
M  V30 2777 H 266.039 -0.221603 -2.9888 0
M  V30 2778 H 263.6 -0.264342 -1.59727 0
M  V30 2779 H 265.592 2.28508 -3.34015 0
M  V30 2780 H 264.162 2.12849 -2.28941 0
M  V30 2781 H 263.382 0.263881 -3.93316 0
M  V30 2782 H 264.67 0.805542 -5.02383 0
M  V30 2783 H 264.068 3.86013 -4.13534 0
M  V30 2784 H 262.625 4.15895 -5.01871 0
M  V30 2785 N 266.058 1.56714 -0.166846 0
M  V30 2786 C 267.304 1.97039 0.479962 0
M  V30 2787 C 267.637 1.05264 1.63197 0
M  V30 2788 O 266.912 0.0988833 1.94248 0
M  V30 2789 C 267.195 3.46867 0.967212 0
M  V30 2790 C 267.048 4.49421 -0.18466 0
M  V30 2791 C 268.367 3.9968 1.84238 0
M  V30 2792 H 265.486 0.71641 0.172992 0
M  V30 2793 H 268.128 1.8832 -0.252079 0
M  V30 2794 H 266.278 3.54428 1.59101 0
M  V30 2795 H 267.95 4.53924 -0.821621 0
M  V30 2796 H 266.193 4.25573 -0.840837 0
M  V30 2797 H 266.864 5.51644 0.198317 0
M  V30 2798 H 269.34 3.94723 1.31655 0
M  V30 2799 H 268.216 5.04941 2.15234 0
M  V30 2800 H 268.477 3.43226 2.78654 0
M  V30 2801 N 267.536 -0.106894 1.57237 0
M  V30 2802 C 268.785 -0.811163 1.8467 0
M  V30 2803 C 269.098 -1.80469 0.754342 0
M  V30 2804 O 270.304 -2.55601 0.915439 0
M  V30 2805 C 268.76 -1.49337 3.27454 0
M  V30 2806 C 268.368 -0.540217 4.44731 0
M  V30 2807 C 270.112 -2.18206 3.64124 0
M  V30 2808 C 268.019 -1.22634 5.78545 0
M  V30 2809 H 266.949 -0.306679 0.688813 0
M  V30 2810 H 269.6 -0.0639887 1.83388 0
M  V30 2811 H 267.982 -2.2876 3.23241 0
M  V30 2812 H 269.156 0.221659 4.60267 0
M  V30 2813 H 267.471 0.042146 4.16379 0
M  V30 2814 H 270.068 -2.70253 4.61376 0
M  V30 2815 H 270.411 -2.96562 2.92158 0
M  V30 2816 H 270.944 -1.45658 3.70174 0
M  V30 2817 H 267.683 -0.483832 6.53712 0
M  V30 2818 H 267.203 -1.95993 5.66874 0
M  V30 2819 H 268.882 -1.75615 6.2271 0
M  V30 2820 N 269.014 -1.53014 -0.377408 0
M  V30 2821 C 270.26 -1.68872 -1.12294 0
M  V30 2822 C 270.593 -0.433224 -1.89306 0
M  V30 2823 O 269.868 0.569258 -1.85983 0
M  V30 2824 C 270.151 -2.93115 -2.09179 0
M  V30 2825 C 270.004 -4.28794 -1.35853 0
M  V30 2826 C 271.323 -3.12928 -3.09458 0
M  V30 2827 H 268.442 -0.614518 -0.406862 0
M  V30 2828 H 271.084 -1.85633 -0.40503 0
M  V30 2829 H 269.234 -2.78956 -2.70399 0
M  V30 2830 H 270.906 -4.54742 -0.775082 0
M  V30 2831 H 269.149 -4.28744 -0.660364 0
M  V30 2832 H 269.82 -5.11837 -2.06706 0
M  V30 2833 H 272.296 -3.26194 -2.58334 0
M  V30 2834 H 271.172 -4.01316 -3.74482 0
M  V30 2835 H 271.433 -2.27669 -3.78971 0
M  V30 2836 N 270.492 0.636531 -1.44174 0
M  V30 2837 C 271.769 1.39463 -1.37148 0
M  V30 2838 C 272.149 2.11082 -0.027507 0
M  V30 2839 O 271.497 2.05954 0.989716 0
M  V30 2840 C 271.707 2.36552 -2.56601 0
M  V30 2841 C 273.055 3.00048 -3.00427 0
M  V30 2842 O 274.079 2.46878 -2.56767 0
M  V30 2843 O 272.938 3.96488 -3.76111 0
M  V30 2844 H 270.032 0.623903 -0.542839 0
M  V30 2845 H 272.578 0.662039 -1.56253 0
M  V30 2846 H 271.35 1.82692 -3.46034 0
M  V30 2847 H 270.973 3.17236 -2.39681 0
M  V30 2848 N 271.97 1.30982 0.876444 0
M  V30 2849 C 273.218 1.20058 1.62575 0
M  V30 2850 C 273.539 -0.242947 1.93481 0
M  V30 2851 O 272.809 -1.1619 1.57724 0
M  V30 2852 H 271.389 0.44135 0.602677 0
M  V30 2853 H 274.051 1.64222 1.04962 0
M  V30 2854 H 273.147 1.76762 2.57219 0
M  V30 2855 N 273.449 -1.08991 1.13837 0
M  V30 2856 C 274.397 -2.17841 0.815347 0
M  V30 2857 C 275.391 -1.68164 -0.204233 0
M  V30 2858 O 276.597 -1.79897 -0.0609304 0
M  V30 2859 H 272.972 -0.710654 0.245915 0
M  V30 2860 H 274.943 -2.42315 1.74143 0
M  V30 2861 C 273.692 -3.46381 0.302614 0
M  V30 2862 H 273.015 -3.84979 1.0785 0
M  V30 2863 H 274.455 -4.23844 0.115074 0
M  V30 2864 C 272.914 -3.22556 -0.972591 0
M  V30 2865 O 273.444 -3.45599 -2.04754 0
M  V30 2866 N 271.65 -2.76134 -0.905455 0
M  V30 2867 H 271.197 -2.57582 -0.0305421 0
M  V30 2868 H 271.155 -2.60571 -1.75926 0
M  V30 2869 N 274.927 -0.932562 -1.27047 0
M  V30 2870 C 275.857 -0.452902 -2.29066 0
M  V30 2871 C 276.838 0.489338 -1.62909 0
M  V30 2872 O 278.023 0.393046 -1.90181 0
M  V30 2873 C 275.153 0.290698 -3.46081 0
M  V30 2874 C 274.107 -0.564168 -4.24265 0
M  V30 2875 C 273.433 0.308886 -5.33807 0
M  V30 2876 C 274.733 -1.83112 -4.89149 0
M  V30 2877 H 276.427 -1.30552 -2.69437 0
M  V30 2878 H 273.973 -0.629201 -1.29526 0
M  V30 2879 H 275.926 0.637233 -4.16554 0
M  V30 2880 H 274.65 1.17738 -3.0464 0
M  V30 2881 H 273.309 -0.893477 -3.55545 0
M  V30 2882 H 272.957 1.19467 -4.88607 0
M  V30 2883 H 272.657 -0.259633 -5.87026 0
M  V30 2884 H 274.181 0.650884 -6.07121 0
M  V30 2885 H 275.595 -1.55236 -5.51883 0
M  V30 2886 H 273.992 -2.34353 -5.52448 0
M  V30 2887 H 275.062 -2.54772 -4.12576 0
M  V30 2888 N 276.405 1.4127 -0.698611 0
M  V30 2889 C 277.682 1.94955 -0.158762 0
M  V30 2890 C 278.062 1.63781 1.33188 0
M  V30 2891 O 277.41 0.946423 2.07979 0
M  V30 2892 C 277.62 3.46044 -0.453309 0
M  V30 2893 C 278.968 4.22872 -0.382707 0
M  V30 2894 O 279.992 3.54076 -0.388396 0
M  V30 2895 O 278.851 5.45407 -0.345463 0
M  V30 2896 H 275.945 0.82683 -0.0167505 0
M  V30 2897 H 278.491 1.50971 -0.77498 0
M  V30 2898 H 277.263 3.62028 -1.48498 0
M  V30 2899 H 276.886 3.97128 0.19373 0
M  V30 2900 N 277.883 0.443576 1.51229 0
M  V30 2901 C 278.831 -0.37904 2.29491 0
M  V30 2902 C 279.825 -1.0153 1.35603 0
M  V30 2903 O 281.031 -0.94955 1.52917 0
M  V30 2904 H 277.406 -0.141053 0.738653 0
M  V30 2905 H 279.377 0.301799 2.9687 0
M  V30 2906 C 278.126 -1.46426 3.15364 0
M  V30 2907 H 277.449 -0.984037 3.87501 0
M  V30 2908 H 278.889 -2.01297 3.7317 0
M  V30 2909 C 277.348 -2.45099 2.31146 0
M  V30 2910 O 277.878 -3.49773 1.9754 0
M  V30 2911 N 276.084 -2.16139 1.94249 0
M  V30 2912 H 275.631 -1.31044 2.21777 0
M  V30 2913 H 275.589 -2.82398 1.38198 0
M  V30 2914 N 279.361 -1.56624 0.175154 0
M  V30 2915 C 280.589 -2.01374 -0.474971 0
M  V30 2916 C 281.004 -1.05537 -1.56548 0
M  V30 2917 O 280.361 -0.0568668 -1.82411 0
M  V30 2918 C 280.412 -3.45923 -1.04975 0
M  V30 2919 O 280.133 -4.381 -0.00276605 0
M  V30 2920 C 281.634 -4.06093 -1.77773 0
M  V30 2921 H 278.854 -0.659962 -0.121206 0
M  V30 2922 H 281.398 -2.02601 0.27801 0
M  V30 2923 H 279.553 -3.45458 -1.75321 0
M  V30 2924 H 279.967 -5.22753 -0.427681 0
M  V30 2925 H 281.441 -5.09147 -2.13245 0
M  V30 2926 H 281.918 -3.48405 -2.67414 0
M  V30 2927 H 282.524 -4.10272 -1.12059 0
M  V30 2928 N 280.839 0.0985539 -1.57292 0
M  V30 2929 C 282.116 0.834155 -1.76921 0
M  V30 2930 C 282.496 1.97101 -0.755928 0
M  V30 2931 O 281.844 2.27474 0.216245 0
M  V30 2932 C 282.054 1.33194 -3.22584 0
M  V30 2933 C 283.402 1.77611 -3.85668 0
M  V30 2934 O 284.426 1.42825 -3.26312 0
M  V30 2935 O 283.285 2.4192 -4.90038 0
M  V30 2936 H 280.379 0.397628 -0.725135 0
M  V30 2937 H 282.925 0.0807044 -1.69508 0
M  V30 2938 H 281.697 0.517248 -3.87866 0
M  V30 2939 H 281.32 2.1475 -3.34616 0
M  V30 2940 N 282.317 1.53212 0.369288 0
M  V30 2941 C 283.28 1.7872 1.43498 0
M  V30 2942 C 284.28 0.657554 1.46741 0
M  V30 2943 O 285.47 0.925736 1.47566 0
M  V30 2944 C 282.602 1.90591 2.82645 0
M  V30 2945 H 283.795 2.73894 1.22156 0
M  V30 2946 H 281.348 1.44233 0.602203 0
M  V30 2947 H 282.083 0.974709 3.09306 0
M  V30 2948 H 281.868 2.72751 2.8169 0
M  V30 2949 H 283.358 2.11931 3.59826 0
M  V30 2950 N 283.795 -0.628877 1.44509 0
M  V30 2951 C 285.072 -1.38733 1.37886 0
M  V30 2952 C 285.452 -2.11065 0.0387008 0
M  V30 2953 O 284.8 -2.06476 -0.97878 0
M  V30 2954 C 285.01 -2.35188 2.57852 0
M  V30 2955 C 286.358 -2.9845 3.02014 0
M  V30 2956 O 287.382 -2.45513 2.58073 0
M  V30 2957 O 286.241 -3.94487 3.78209 0
M  V30 2958 H 283.335 -0.621015 0.54614 0
M  V30 2959 H 285.881 -0.653744 1.56602 0
M  V30 2960 H 284.653 -1.80855 3.46998 0
M  V30 2961 H 284.276 -3.1596 2.4136 0
M  V30 2962 N 285.273 -1.31445 -0.869486 0
M  V30 2963 C 286.503 -1.23942 -1.65294 0
M  V30 2964 C 286.911 0.197561 -1.88166 0
M  V30 2965 O 286.254 1.14019 -1.44033 0
M  V30 2966 C 286.316 -1.91385 -3.04322 0
M  V30 2967 C 285.98 -3.40726 -3.04557 0
M  V30 2968 C 286.977 -4.36464 -2.82481 0
M  V30 2969 C 284.662 -3.82425 -3.25663 0
M  V30 2970 C 286.656 -5.71876 -2.8149 0
M  V30 2971 C 284.343 -5.1795 -3.243 0
M  V30 2972 C 285.341 -6.12486 -3.02241 0
M  V30 2973 O 285.029 -7.45534 -3.00724 0
M  V30 2974 H 284.761 -0.429459 -0.522054 0
M  V30 2975 H 287.315 -1.73873 -1.0935 0
M  V30 2976 H 285.545 -1.36004 -3.61994 0
M  V30 2977 H 287.234 -1.77791 -3.64891 0
M  V30 2978 H 288 -4.05576 -2.65956 0
M  V30 2979 H 283.879 -3.09274 -3.41863 0
M  V30 2980 H 287.423 -6.45638 -2.64191 0
M  V30 2981 H 283.32 -5.48473 -3.40365 0
M  V30 2982 H 284.088 -7.54713 -3.16782 0
M  V30 2983 N 286.751 1.08385 -1.14413 0
M  V30 2984 C 287.979 1.84517 -0.936001 0
M  V30 2985 C 288.394 1.81626 0.515503 0
M  V30 2986 O 287.751 1.22008 1.35721 0
M  V30 2987 C 287.802 3.32049 -1.42918 0
M  V30 2988 O 287.523 3.34951 -2.82381 0
M  V30 2989 C 289.024 4.24986 -1.26103 0
M  V30 2990 H 286.244 0.582491 -0.333084 0
M  V30 2991 H 288.788 1.36885 -1.5193 0
M  V30 2992 H 286.943 3.7707 -0.888641 0
M  V30 2993 H 287.357 4.27048 -3.04517 0
M  V30 2994 H 288.831 5.26615 -1.6547 0
M  V30 2995 H 289.308 4.38726 -0.20392 0
M  V30 2996 H 289.914 3.85791 -1.79012 0
M  V30 2997 N 288.23 0.939286 1.26551 0
M  V30 2998 C 289.478 0.58469 1.93457 0
M  V30 2999 C 289.799 -0.878774 1.74076 0
M  V30 3000 O 289.069 -1.62421 1.09528 0
M  V30 3001 H 287.649 0.21325 0.715914 0
M  V30 3002 H 290.311 1.1942 1.54029 0
M  V30 3003 H 289.407 0.800849 3.0165 0
M  V30 3004 N 289.708 -1.40897 0.706093 0
M  V30 3005 C 290.655 -2.30751 0.0474474 0
M  V30 3006 C 291.625 -1.47678 -0.76029 0
M  V30 3007 O 292.81 -1.76441 -0.726177 0
M  V30 3008 C 289.95 -3.33815 -0.875309 0
M  V30 3009 C 289.063 -4.31961 -0.0580623 0
M  V30 3010 C 288.198 -5.22093 -0.979425 0
M  V30 3011 C 287.237 -6.11902 -0.155706 0
M  V30 3012 N 286.374 -6.94482 -1.03144 0
M  V30 3013 H 291.214 -2.86513 0.819413 0
M  V30 3014 H 288.751 -1.41102 0.415783 0
M  V30 3015 H 290.709 -3.92129 -1.42446 0
M  V30 3016 H 289.339 -2.79579 -1.61356 0
M  V30 3017 H 288.391 -3.75507 0.608147 0
M  V30 3018 H 289.703 -4.95415 0.580082 0
M  V30 3019 H 288.857 -5.85292 -1.59744 0
M  V30 3020 H 287.596 -4.5889 -1.65141 0
M  V30 3021 H 286.601 -5.47742 0.475309 0
M  V30 3022 H 287.826 -6.77162 0.512635 0
M  V30 3023 H 285.772 -6.33877 -1.68924 0
M  V30 3024 H 285.689 -7.54665 -0.449108 0
M  V30 3025 H 286.957 -7.6214 -1.63593 0
M  V30 3026 N 291.186 -0.45159 -1.50991 0
M  V30 3027 C 292.416 0.108177 -2.06317 0
M  V30 3028 C 292.824 1.35774 -1.31765 0
M  V30 3029 O 292.167 1.79838 -0.374694 0
M  V30 3030 C 292.229 0.481659 -3.56259 0
M  V30 3031 C 291.893 -0.663114 -4.52163 0
M  V30 3032 C 292.89 -1.53947 -4.96585 0
M  V30 3033 C 290.575 -0.8479 -4.95092 0
M  V30 3034 C 292.569 -2.58518 -5.82621 0
M  V30 3035 C 290.256 -1.89686 -5.80915 0
M  V30 3036 C 291.254 -2.76388 -6.24579 0
M  V30 3037 O 290.942 -3.79482 -7.08695 0
M  V30 3038 H 290.674 0.00499183 -0.675982 0
M  V30 3039 H 293.228 -0.633659 -1.95381 0
M  V30 3040 H 291.458 1.27641 -3.65027 0
M  V30 3041 H 293.147 0.974233 -3.94035 0
M  V30 3042 H 293.913 -1.4083 -4.64103 0
M  V30 3043 H 289.792 -0.18258 -4.60638 0
M  V30 3044 H 293.336 -3.26224 -6.16623 0
M  V30 3045 H 289.233 -2.02817 -6.12809 0
M  V30 3046 H 290.001 -3.76234 -7.26905 0
M  V30 3047 N 292.664 1.56529 -0.183458 0
M  V30 3048 C 293.627 2.17324 0.728223 0
M  V30 3049 C 294.627 1.12453 1.14939 0
M  V30 3050 O 295.817 1.37902 1.06437 0
M  V30 3051 C 292.949 2.76591 1.99274 0
M  V30 3052 H 294.142 2.99241 0.198772 0
M  V30 3053 H 291.695 1.5616 0.0661391 0
M  V30 3054 H 292.43 1.98441 2.56499 0
M  V30 3055 H 292.215 3.5335 1.69959 0
M  V30 3056 H 293.705 3.23311 2.6431 0
M  V30 3057 N 294.142 -0.090211 1.57342 0
M  V30 3058 C 295.37 -0.806224 1.90546 0
M  V30 3059 C 295.785 -1.72041 0.777644 0
M  V30 3060 O 295.142 -1.80778 -0.250103 0
M  V30 3061 C 295.193 -1.61546 3.23396 0
M  V30 3062 O 294.914 -0.738043 4.31839 0
M  V30 3063 C 296.415 -2.4341 3.70495 0
M  V30 3064 H 293.635 -0.230256 0.630257 0
M  V30 3065 H 296.179 -0.0659843 2.04394 0
M  V30 3066 H 294.334 -2.30816 3.11131 0
M  V30 3067 H 294.748 -1.29901 5.08159 0
M  V30 3068 H 296.222 -2.95676 4.66133 0
M  V30 3069 H 296.699 -3.22098 2.98579 0
M  V30 3070 H 297.305 -1.79331 3.85643 0
M  V30 3071 N 295.62 -1.53406 -0.361157 0
M  V30 3072 C 296.845 -1.74024 -1.12829 0
M  V30 3073 C 297.27 -0.470069 -1.82132 0
M  V30 3074 O 296.628 0.57619 -1.719 0
M  V30 3075 C 296.676 -2.90903 -2.13091 0
M  V30 3076 O 295.78 -2.59821 -3.20261 0
M  V30 3077 H 295.121 -0.577804 -0.327168 0
M  V30 3078 H 297.651 -2.00307 -0.41693 0
M  V30 3079 H 297.661 -3.17194 -2.56616 0
M  V30 3080 H 296.336 -3.83034 -1.62042 0
M  V30 3081 H 294.913 -2.44362 -2.81677 0
M  V30 3082 N 297.098 0.621204 -1.44841 0
M  V30 3083 C 298.326 1.40752 -1.51646 0
M  V30 3084 C 298.741 1.88246 -0.144549 0
M  V30 3085 O 298.098 1.61422 0.851416 0
M  V30 3086 C 298.149 2.62119 -2.4895 0
M  V30 3087 O 297.87 2.16602 -3.80808 0
M  V30 3088 C 299.371 3.55135 -2.65319 0
M  V30 3089 H 296.591 0.431325 -0.514004 0
M  V30 3090 H 299.135 0.758835 -1.899 0
M  V30 3091 H 297.29 3.23058 -2.13805 0
M  V30 3092 H 297.704 2.95358 -4.33433 0
M  V30 3093 H 299.178 4.36874 -3.37409 0
M  V30 3094 H 299.655 4.04592 -1.70886 0
M  V30 3095 H 300.261 3.00058 -3.01405 0
M  V30 3096 N 298.576 1.31904 0.862503 0
M  V30 3097 C 299.816 1.23324 1.63004 0
M  V30 3098 C 300.18 -0.203724 1.90916 0
M  V30 3099 O 301.381 -0.413132 2.65606 0
M  V30 3100 C 299.652 2.06116 2.91978 0
M  V30 3101 S 301.211 2.14478 3.82812 0
M  V30 3102 H 298.029 0.439117 0.559193 0
M  V30 3103 H 300.631 1.66658 1.02202 0
M  V30 3104 H 299.335 3.09593 2.69407 0
M  V30 3105 H 298.866 1.6353 3.57801 0
M  V30 3106 H 300.881 1.28855 4.79177 0
M  V30 3107 N 300.054 -1.07777 1.14986 0
M  V30 3108 C 301.284 -1.83752 0.944402 0
M  V30 3109 C 301.692 -1.8218 -0.51058 0
M  V30 3110 O 301.035 -1.22852 -1.36576 0
M  V30 3111 C 301.097 -3.32128 1.37592 0
M  V30 3112 C 300.761 -3.57425 2.84775 0
M  V30 3113 C 301.758 -3.5173 3.8286 0
M  V30 3114 C 299.443 -3.8523 3.2234 0
M  V30 3115 C 301.437 -3.73482 5.16517 0
M  V30 3116 C 299.124 -4.06634 4.56171 0
M  V30 3117 C 300.122 -4.00754 5.53069 0
M  V30 3118 O 299.81 -4.2159 6.84483 0
M  V30 3119 H 299.542 -0.58673 0.335744 0
M  V30 3120 H 302.096 -1.36982 1.53052 0
M  V30 3121 H 300.326 -3.79686 0.733165 0
M  V30 3122 H 302.015 -3.89555 1.14024 0
M  V30 3123 H 302.781 -3.30256 3.55184 0
M  V30 3124 H 298.66 -3.88923 2.47508 0
M  V30 3125 H 302.204 -3.68808 5.92137 0
M  V30 3126 H 298.101 -4.27593 4.83564 0
M  V30 3127 H 298.869 -4.38961 6.90837 0
M  V30 3128 N 301.532 -0.945985 -1.26051 0
M  V30 3129 C 302.48 -0.450259 -2.282 0
M  V30 3130 C 303.474 0.47497 -1.62605 0
M  V30 3131 O 304.68 0.352653 -1.76512 0
M  V30 3132 H 301.055 -0.127081 -0.741184 0
M  V30 3133 H 303.026 -1.32422 -2.67408 0
M  V30 3134 C 301.775 0.26467 -3.46691 0
M  V30 3135 H 301.098 -0.438123 -3.97392 0
M  V30 3136 H 302.538 0.575678 -4.20074 0
M  V30 3137 C 300.997 1.48416 -3.02447 0
M  V30 3138 O 301.527 2.58227 -3.07704 0
M  V30 3139 N 299.733 1.34243 -2.57735 0
M  V30 3140 H 299.28 0.448994 -2.53657 0
M  V30 3141 H 299.238 2.15957 -2.28495 0
M  V30 3142 N 303.011 1.40521 -0.713556 0
M  V30 3143 C 304.236 2.05759 -0.26035 0
M  V30 3144 C 304.661 1.53403 1.08854 0
M  V30 3145 O 304.019 0.668535 1.68524 0
M  V30 3146 C 304.067 3.59745 -0.248122 0
M  V30 3147 O 303.171 4.05123 0.77131 0
M  V30 3148 H 302.512 0.652564 -0.122703 0
M  V30 3149 H 305.042 1.79958 -0.973467 0
M  V30 3150 H 305.052 4.07911 -0.0851129 0
M  V30 3151 H 303.727 3.97218 -1.2325 0
M  V30 3152 H 302.304 3.68422 0.57619 0
M  V30 3153 N 304.489 0.459591 1.5075 0
M  V30 3154 C 305.399 -0.34613 2.32033 0
M  V30 3155 C 306.415 -1.00686 1.41909 0
M  V30 3156 O 307.591 -0.997361 1.7497 0
M  V30 3157 C 304.656 -1.42029 3.16273 0
M  V30 3158 C 303.717 -0.777362 4.22203 0
M  V30 3159 C 302.95 -1.80034 5.02418 0
M  V30 3160 O 303.173 -3.02544 4.83553 0
M  V30 3161 O 302.107 -1.37853 5.85901 0
M  V30 3162 H 305.933 0.318054 3.0203 0
M  V30 3163 H 303.518 0.221663 1.47746 0
M  V30 3164 H 305.4 -2.04275 3.68578 0
M  V30 3165 H 304.075 -2.06815 2.49016 0
M  V30 3166 H 302.982 -0.116256 3.73919 0
M  V30 3167 H 304.315 -0.172634 4.91897 0
M  V30 3168 N 305.967 -1.56429 0.191757 0
M  V30 3169 C 307.383 -1.58754 -0.164137 0
M  V30 3170 C 307.583 -1.20782 -1.61288 0
M  V30 3171 O 306.639 -0.928999 -2.34789 0
M  V30 3172 C 307.952 -3.00396 0.135195 0
M  V30 3173 C 309.5 -3.1291 0.0750351 0
M  V30 3174 C 309.975 -4.56679 0.347632 0
M  V30 3175 N 311.466 -4.62252 0.296131 0
M  V30 3176 C 312.201 -5.71379 0.480948 0
M  V30 3177 N 311.697 -6.88986 0.725933 0
M  V30 3178 N 313.49 -5.60563 0.415435 0
M  V30 3179 H 305.641 -1.79393 1.13718 0
M  V30 3180 H 307.904 -0.832414 0.453643 0
M  V30 3181 H 307.61 -3.32726 1.13958 0
M  V30 3182 H 307.484 -3.72963 -0.563773 0
M  V30 3183 H 309.871 -2.80394 -0.919948 0
M  V30 3184 H 309.952 -2.42736 0.807029 0
M  V30 3185 H 309.596 -4.89907 1.33992 0
M  V30 3186 H 309.526 -5.25039 -0.405212 0
M  V30 3187 H 312.017 -3.7773 0.113259 0
M  V30 3188 H 312.33 -7.68046 0.855857 0
M  V30 3189 H 310.675 -6.90801 0.762788 0
M  V30 3190 H 313.866 -4.67561 0.224486 0
M  V30 3191 H 314.039 -6.45551 0.562889 0
M  V30 3192 N 307.445 0.0818655 -1.57387 0
M  V30 3193 C 308.408 1.08265 -2.02018 0
M  V30 3194 C 309.408 1.32183 -0.915664 0
M  V30 3195 O 310.598 1.28073 -1.18081 0
M  V30 3196 C 307.73 2.42871 -2.39221 0
M  V30 3197 H 308.923 0.698204 -2.91659 0
M  V30 3198 H 306.476 0.327303 -1.52835 0
M  V30 3199 H 307.211 2.86167 -1.52575 0
M  V30 3200 H 306.996 2.26855 -3.19811 0
M  V30 3201 H 308.486 3.14826 -2.74362 0
M  V30 3202 N 308.923 1.53595 0.353017 0
M  V30 3203 C 310.169 1.70638 1.09593 0
M  V30 3204 C 310.502 0.463286 1.88593 0
M  V30 3205 O 309.777 -0.539597 1.86865 0
M  V30 3206 C 310.06 2.96406 2.04489 0
M  V30 3207 C 309.913 4.30901 1.29014 0
M  V30 3208 C 311.232 3.17812 3.0444 0
M  V30 3209 H 308.351 0.620913 0.397034 0
M  V30 3210 H 310.993 1.86254 0.375446 0
M  V30 3211 H 309.143 2.83223 2.65927 0
M  V30 3212 H 310.815 4.55917 0.702638 0
M  V30 3213 H 309.058 4.29741 0.592071 0
M  V30 3214 H 309.729 5.1506 1.98537 0
M  V30 3215 H 312.205 3.30263 2.53112 0
M  V30 3216 H 311.081 4.07223 3.6805 0
M  V30 3217 H 311.342 2.33669 3.75301 0
M  V30 3218 N 310.401 -0.613514 1.45168 0
M  V30 3219 C 311.678 -1.37263 1.39349 0
M  V30 3220 C 312.058 -2.11012 0.0610848 0
M  V30 3221 O 311.406 -2.07502 -0.956825 0
M  V30 3222 C 311.616 -2.3244 2.60332 0
M  V30 3223 C 312.964 -2.9523 3.05163 0
M  V30 3224 O 313.988 -2.42762 2.60663 0
M  V30 3225 O 312.847 -3.90454 3.82372 0
M  V30 3226 H 309.941 -0.615188 0.552696 0
M  V30 3227 H 312.487 -0.637097 1.57287 0
M  V30 3228 H 311.259 -1.77164 3.48896 0
M  V30 3229 H 310.882 -3.13383 2.44698 0
M  V30 3230 N 311.879 -1.3236 -0.855495 0
M  V30 3231 C 312.809 -1.23833 -1.97958 0
M  V30 3232 C 313.79 -0.122361 -1.69659 0
M  V30 3233 O 314.975 -0.30939 -1.9172 0
M  V30 3234 C 312.105 -0.959772 -3.33775 0
M  V30 3235 C 311.059 -2.03689 -3.76424 0
M  V30 3236 C 310.385 -1.61075 -5.09862 0
M  V30 3237 C 311.685 -3.4518 -3.9198 0
M  V30 3238 H 313.379 -2.1788 -2.0535 0
M  V30 3239 H 310.925 -1.04891 -0.986605 0
M  V30 3240 H 312.878 -0.886678 -4.11966 0
M  V30 3241 H 311.602 0.0163404 -3.26596 0
M  V30 3242 H 310.261 -2.10012 -3.00484 0
M  V30 3243 H 309.909 -0.622107 -4.99138 0
M  V30 3244 H 309.609 -2.33143 -5.39368 0
M  V30 3245 H 311.133 -1.55201 -5.90546 0
M  V30 3246 H 312.547 -3.4145 -4.60526 0
M  V30 3247 H 310.944 -4.1559 -4.32903 0
M  V30 3248 H 312.014 -3.84903 -2.94919 0
M  V30 3249 N 313.357 1.07166 -1.15556 0
M  V30 3250 C 314.32 2.12589 -0.856644 0
M  V30 3251 C 315.32 1.6015 0.14444 0
M  V30 3252 O 316.51 1.7399 -0.0854163 0
M  V30 3253 C 313.642 3.39753 -0.279405 0
M  V30 3254 H 314.835 2.40539 -1.79112 0
M  V30 3255 H 312.388 1.23086 -0.963298 0
M  V30 3256 H 313.123 3.17447 0.663174 0
M  V30 3257 H 312.908 3.79117 -1.00063 0
M  V30 3258 H 314.398 4.17507 -0.0879113 0
M  V30 3259 N 314.835 0.952656 1.25548 0
M  V30 3260 C 316.083 0.605176 1.92826 0
M  V30 3261 C 316.404 -0.860261 1.74999 0
M  V30 3262 O 315.674 -1.6125 1.11244 0
M  V30 3263 H 314.254 0.220832 0.713612 0
M  V30 3264 H 316.916 1.21047 1.52754 0
M  V30 3265 H 316.012 0.832798 3.00784 0
M  V30 3266 N 316.313 -1.40141 0.720998 0
M  V30 3267 C 317.541 -2.05096 0.272656 0
M  V30 3268 C 317.956 -1.54334 -1.0875 0
M  V30 3269 O 317.313 -0.702211 -1.6845 0
M  V30 3270 C 317.364 -3.60636 0.249835 0
M  V30 3271 O 317.085 -4.09526 1.55629 0
M  V30 3272 C 318.586 -4.42772 -0.216396 0
M  V30 3273 H 315.806 -0.659897 0.121558 0
M  V30 3274 H 318.35 -1.79449 0.980723 0
M  V30 3275 H 316.505 -3.85232 -0.409237 0
M  V30 3276 H 316.919 -5.03758 1.4604 0
M  V30 3277 H 318.393 -5.51702 -0.181212 0
M  V30 3278 H 318.87 -4.20756 -1.25941 0
M  V30 3279 H 319.476 -4.23294 0.412596 0
M  V30 3280 N 317.792 -0.46758 -1.50504 0
M  V30 3281 C 318.725 0.374324 -2.25109 0
M  V30 3282 C 319.703 0.99921 -1.28275 0
M  V30 3283 O 320.887 1.03583 -1.57489 0
M  V30 3284 C 318.014 1.52419 -3.02467 0
M  V30 3285 C 317.06 1.01702 -4.14197 0
M  V30 3286 S 317.893 -0.0654477 -5.3546 0
M  V30 3287 C 319.049 1.08837 -6.16365 0
M  V30 3288 H 319.282 -0.258983 -2.9617 0
M  V30 3289 H 316.815 -0.252421 -1.52323 0
M  V30 3290 H 318.773 2.18322 -3.47628 0
M  V30 3291 H 317.434 2.129 -2.30938 0
M  V30 3292 H 316.627 1.87776 -4.67714 0
M  V30 3293 H 316.229 0.435757 -3.71453 0
M  V30 3294 H 318.521 2.00071 -6.47285 0
M  V30 3295 H 319.464 0.592538 -7.05616 0
M  V30 3296 H 319.872 1.34061 -5.4835 0
M  V30 3297 N 319.27 1.56325 -0.20005 0
M  V30 3298 C 320.686 1.58839 0.155716 0
M  V30 3299 C 320.886 1.21636 1.60645 0
M  V30 3300 O 319.942 0.941437 2.34293 0
M  V30 3301 C 321.255 3.0032 -0.151124 0
M  V30 3302 C 322.803 3.12866 -0.0916284 0
M  V30 3303 C 323.278 4.56488 -0.371845 0
M  V30 3304 N 324.769 4.62089 -0.320641 0
M  V30 3305 C 325.504 5.71116 -0.511243 0
M  V30 3306 N 325 6.88592 -0.762461 0
M  V30 3307 N 326.793 5.60335 -0.445157 0
M  V30 3308 H 318.944 1.78788 -1.14668 0
M  V30 3309 H 321.207 0.829996 -0.458051 0
M  V30 3310 H 320.913 3.32117 -1.15721 0
M  V30 3311 H 320.787 3.73257 0.543986 0
M  V30 3312 H 323.174 2.80878 0.905065 0
M  V30 3313 H 323.255 2.42304 -0.81989 0
M  V30 3314 H 322.899 4.89189 -1.36588 0
M  V30 3315 H 322.829 5.25246 0.377362 0
M  V30 3316 H 325.32 3.77665 -0.13329 0
M  V30 3317 H 325.633 7.67581 -0.896576 0
M  V30 3318 H 323.978 6.90387 -0.799412 0
M  V30 3319 H 327.169 4.67436 -0.249278 0
M  V30 3320 H 327.342 6.45243 -0.597116 0
M  V30 3321 N 320.748 -0.0735177 1.57428 0
M  V30 3322 C 321.696 -1.10628 2.04607 0
M  V30 3323 C 322.69 -1.40181 0.951088 0
M  V30 3324 O 323.896 -1.39608 1.1362 0
M  V30 3325 H 320.271 -0.374088 0.652351 0
M  V30 3326 H 322.242 -0.682218 2.90497 0
M  V30 3327 C 320.991 -2.41212 2.50423 0
M  V30 3328 H 320.314 -2.19322 3.34272 0
M  V30 3329 H 321.754 -3.11927 2.87189 0
M  V30 3330 C 320.213 -3.0705 1.38644 0
M  V30 3331 O 320.743 -3.95056 0.727582 0
M  V30 3332 N 318.949 -2.67645 1.132 0
M  V30 3333 H 318.496 -1.96169 1.66959 0
M  V30 3334 H 318.454 -3.1202 0.386147 0
M  V30 3335 N 322.226 -1.5378 -0.344866 0
M  V30 3336 C 323.503 -1.61589 -1.10219 0
M  V30 3337 C 323.883 -0.436316 -2.06542 0
M  V30 3338 O 323.231 0.571543 -2.21237 0
M  V30 3339 C 323.441 -2.97602 -1.82301 0
M  V30 3340 C 324.789 -3.5291 -2.36093 0
M  V30 3341 O 325.813 -2.99768 -1.924 0
M  V30 3342 O 324.672 -4.45859 -3.16026 0
M  V30 3343 H 321.766 -0.653522 -0.506792 0
M  V30 3344 H 324.312 -1.66126 -0.346465 0
M  V30 3345 H 323.084 -3.74893 -1.12121 0
M  V30 3346 H 322.707 -2.9665 -2.64735 0
M  V30 3347 N 323.704 0.605807 -1.45491 0
M  V30 3348 C 325.12 0.926751 -1.29936 0
M  V30 3349 C 325.32 1.99896 -0.253706 0
M  V30 3350 O 324.376 2.50038 0.351737 0
M  V30 3351 C 325.689 1.36599 -2.67883 0
M  V30 3352 C 327.237 1.4801 -2.75793 0
M  V30 3353 C 327.712 1.95309 -4.14268 0
M  V30 3354 N 329.203 2.0254 -4.16571 0
M  V30 3355 C 329.938 2.40363 -5.20589 0
M  V30 3356 N 329.434 2.77143 -6.34952 0
M  V30 3357 N 331.227 2.40718 -5.07948 0
M  V30 3358 H 323.378 -0.102862 -2.12151 0
M  V30 3359 H 325.641 0.016639 -0.947854 0
M  V30 3360 H 325.347 0.652306 -3.45598 0
M  V30 3361 H 325.221 2.33215 -2.96463 0
M  V30 3362 H 327.608 2.1847 -1.98381 0
M  V30 3363 H 327.689 0.497041 -2.50925 0
M  V30 3364 H 327.333 1.25436 -4.92167 0
M  V30 3365 H 327.263 2.94532 -4.3653 0
M  V30 3366 H 329.754 1.76699 -3.34045 0
M  V30 3367 H 330.067 3.0489 -7.10114 0
M  V30 3368 H 328.412 2.74834 -6.3835 0
M  V30 3369 H 331.603 2.11392 -4.1765 0
M  V30 3370 H 331.776 2.69869 -5.89131 0
M  V30 3371 N 325.182 1.32811 0.848464 0
M  V30 3372 C 326.459 1.14334 1.58704 0
M  V30 3373 C 326.839 -0.293948 2.09043 0
M  V30 3374 O 326.187 -1.29153 1.88499 0
M  V30 3375 C 326.397 2.17626 2.72837 0
M  V30 3376 C 327.745 2.51282 3.42261 0
M  V30 3377 O 328.769 2.16219 2.83068 0
M  V30 3378 O 327.628 3.11413 4.49093 0
M  V30 3379 H 324.722 0.441601 0.699226 0
M  V30 3380 H 327.268 1.44362 0.892053 0
M  V30 3381 H 326.04 3.14211 2.3321 0
M  V30 3382 H 325.663 1.88628 3.50008 0
M  V30 3383 N 326.66 -1.06551 1.16123 0
M  V30 3384 C 327.906 -1.79719 0.952505 0
M  V30 3385 C 328.261 -1.85396 -0.514385 0
M  V30 3386 O 327.554 -1.33263 -1.37665 0
M  V30 3387 C 327.748 -3.23911 1.51052 0
M  V30 3388 C 327.577 -3.32284 3.03013 0
M  V30 3389 C 326.347 -3.42371 3.71632 0
M  V30 3390 C 328.545 -3.22363 4.00732 0
M  V30 3391 N 326.527 -3.39732 5.11327 0
M  V30 3392 C 327.898 -3.26937 5.26794 0
M  V30 3393 C 329.953 -3.0623 3.92591 0
M  V30 3394 C 328.656 -3.17035 6.45663 0
M  V30 3395 C 330.682 -2.97665 5.11028 0
M  V30 3396 C 330.044 -3.02858 6.35969 0
M  V30 3397 H 326.143 -0.670585 0.402293 0
M  V30 3398 H 328.727 -1.27125 1.4747 0
M  V30 3399 H 326.898 -3.74907 1.01484 0
M  V30 3400 H 328.63 -3.85242 1.2398 0
M  V30 3401 H 325.385 -3.47058 3.22254 0
M  V30 3402 H 325.809 -3.41919 5.84312 0
M  V30 3403 H 330.451 -3.01063 2.96852 0
M  V30 3404 H 328.169 -3.2096 7.41627 0
M  V30 3405 H 331.755 -2.86273 5.06497 0
M  V30 3406 H 330.635 -2.96286 7.26075 0
M  V30 3407 N 328.138 -0.959301 -1.25041 0
M  V30 3408 C 329.384 -0.617525 -1.9317 0
M  V30 3409 C 329.717 0.843981 -1.74902 0
M  V30 3410 O 328.992 1.60615 -1.09696 0
M  V30 3411 C 329.275 -0.982736 -3.46431 0
M  V30 3412 C 329.128 -2.50032 -3.73904 0
M  V30 3413 C 330.447 -0.511176 -4.37121 0
M  V30 3414 H 327.566 -0.22582 -0.701552 0
M  V30 3415 H 330.208 -1.19679 -1.4757 0
M  V30 3416 H 328.358 -0.489806 -3.854 0
M  V30 3417 H 330.03 -3.06737 -3.44544 0
M  V30 3418 H 328.273 -2.93598 -3.19348 0
M  V30 3419 H 328.944 -2.70635 -4.81103 0
M  V30 3420 H 331.42 -0.934075 -4.0548 0
M  V30 3421 H 330.296 -0.795361 -5.43107 0
M  V30 3422 H 330.557 0.588834 -4.38161 0
M  V30 3423 N 329.616 1.39756 -0.72842 0
M  V30 3424 C 330.862 2.00942 -0.273892 0
M  V30 3425 C 331.195 1.57656 1.13394 0
M  V30 3426 O 330.47 0.802434 1.77176 0
M  V30 3427 C 330.753 3.58211 -0.368346 0
M  V30 3428 C 330.606 4.11534 -1.81548 0
M  V30 3429 C 331.925 4.39372 0.253054 0
M  V30 3430 H 329.044 0.730047 -0.100996 0
M  V30 3431 H 331.686 1.66056 -0.923337 0
M  V30 3432 H 329.836 3.88061 0.184588 0
M  V30 3433 H 331.508 3.92431 -2.42478 0
M  V30 3434 H 329.751 3.65341 -2.33898 0
M  V30 3435 H 330.422 5.20682 -1.83288 0
M  V30 3436 H 332.898 4.15527 -0.218224 0
M  V30 3437 H 331.774 5.48677 0.156585 0
M  V30 3438 H 332.035 4.21358 1.33826 0
M  V30 3439 N 331.094 0.475555 1.50254 0
M  V30 3440 C 332.34 -0.0780073 2.0265 0
M  V30 3441 C 332.673 -1.38968 1.35652 0
M  V30 3442 O 331.948 -1.8839 0.483691 0
M  V30 3443 C 332.231 -0.257161 3.59181 0
M  V30 3444 C 332.084 1.07585 4.36744 0
M  V30 3445 C 333.403 -1.00965 4.28362 0
M  V30 3446 H 330.522 -0.0268758 0.73651 0
M  V30 3447 H 333.164 0.622015 1.7953 0
M  V30 3448 H 331.314 -0.853412 3.79011 0
M  V30 3449 H 332.986 1.70902 4.28474 0
M  V30 3450 H 331.229 1.6714 4.00308 0
M  V30 3451 H 331.9 0.904088 5.44546 0
M  V30 3452 H 334.376 -0.504214 4.13034 0
M  V30 3453 H 333.252 -1.10381 5.37687 0
M  V30 3454 H 333.513 -2.04731 3.91839 0
M  V30 3455 N 332.573 -1.56217 0.208337 0
M  V30 3456 C 333.82 -1.97949 -0.42692 0
M  V30 3457 C 334.148 -1.09562 -1.60706 0
M  V30 3458 O 333.403 -0.137616 -1.95216 0
M  V30 3459 C 333.702 -3.45441 -0.916797 0
M  V30 3460 C 333.368 -4.50646 0.151391 0
M  V30 3461 C 332.03 -4.79139 0.444867 0
M  V30 3462 C 334.382 -5.13811 0.874492 0
M  V30 3463 C 331.71 -5.68084 1.46619 0
M  V30 3464 C 334.062 -6.03861 1.88506 0
M  V30 3465 C 332.726 -6.30704 2.18559 0
M  V30 3466 H 331.996 -0.724345 -0.156221 0
M  V30 3467 H 334.643 -1.89006 0.308084 0
M  V30 3468 H 332.948 -3.51521 -1.73032 0
M  V30 3469 H 334.645 -3.75094 -1.41794 0
M  V30 3470 H 331.235 -4.28511 -0.0875068 0
M  V30 3471 H 335.419 -4.91879 0.660996 0
M  V30 3472 H 330.675 -5.87151 1.7048 0
M  V30 3473 H 334.849 -6.51861 2.45051 0
M  V30 3474 H 332.476 -6.99424 2.97843 0
M  V30 3475 N 334.051 0.0651679 -1.57465 0
M  V30 3476 C 334.999 1.09542 -2.05191 0
M  V30 3477 C 335.993 1.39675 -0.958509 0
M  V30 3478 O 337.199 1.39003 -1.14359 0
M  V30 3479 H 333.574 0.370623 -0.654326 0
M  V30 3480 H 335.545 0.666802 -2.90854 0
M  V30 3481 C 334.294 2.39881 -2.51699 0
M  V30 3482 H 333.617 2.17547 -3.3543 0
M  V30 3483 H 335.057 3.104 -2.88839 0
M  V30 3484 C 333.516 3.0631 -1.40271 0
M  V30 3485 O 334.046 3.94664 -0.748523 0
M  V30 3486 N 332.252 2.67041 -1.14618 0
M  V30 3487 H 331.799 1.95281 -1.67997 0
M  V30 3488 H 331.757 3.1181 -0.402688 0
M  V30 3489 N 335.529 1.53961 0.336706 0
M  V30 3490 C 336.775 1.7179 1.07777 0
M  V30 3491 C 337.108 0.483263 1.88091 0
M  V30 3492 O 336.383 -0.519747 1.87427 0
M  V30 3493 C 336.666 2.98558 2.01334 0
M  V30 3494 C 336.519 4.32245 1.24437 0
M  V30 3495 C 337.838 3.21023 3.01052 0
M  V30 3496 H 334.957 0.625089 0.390426 0
M  V30 3497 H 337.599 1.86641 0.35567 0
M  V30 3498 H 335.749 2.86028 2.62908 0
M  V30 3499 H 337.421 4.56637 0.654243 0
M  V30 3500 H 335.664 4.30344 0.546458 0
M  V30 3501 H 336.335 5.17137 1.93063 0
M  V30 3502 H 338.811 3.32929 2.49595 0
M  V30 3503 H 337.687 4.11104 3.6371 0
M  V30 3504 H 337.948 2.37637 3.72802 0
M  V30 3505 N 337.007 -0.598083 1.45811 0
M  V30 3506 C 337.917 -1.73632 1.57763 0
M  V30 3507 C 338.933 -1.67763 0.461676 0
M  V30 3508 O 340.109 -1.87949 0.723685 0
M  V30 3509 C 337.174 -3.10114 1.55018 0
M  V30 3510 C 336.235 -3.27364 2.77726 0
M  V30 3511 C 335.468 -4.57334 2.75102 0
M  V30 3512 O 335.691 -5.40258 1.8297 0
M  V30 3513 O 334.625 -4.77502 3.66437 0
M  V30 3514 H 338.451 -1.66498 2.53992 0
M  V30 3515 H 336.036 -0.763308 1.28429 0
M  V30 3516 H 337.918 -3.9141 1.56129 0
M  V30 3517 H 336.593 -3.17718 0.619431 0
M  V30 3518 H 335.5 -2.45619 2.82174 0
M  V30 3519 H 336.833 -3.24641 3.69958 0
M  V30 3520 N 338.485 -1.33259 -0.841409 0
M  V30 3521 C 339.901 -1.12538 -1.13169 0
M  V30 3522 C 340.101 0.0854037 -2.01319 0
M  V30 3523 O 339.157 0.766417 -2.40587 0
M  V30 3524 C 340.47 -2.41156 -1.79623 0
M  V30 3525 C 342.018 -2.47038 -1.922 0
M  V30 3526 C 342.493 -3.7561 -2.6207 0
M  V30 3527 N 343.984 -3.76667 -2.69585 0
M  V30 3528 C 344.719 -4.72861 -3.2433 0
M  V30 3529 N 344.215 -5.79428 -3.79783 0
M  V30 3530 N 346.008 -4.6034 -3.22558 0
M  V30 3531 H 338.159 -2.10868 -0.254676 0
M  V30 3532 H 340.422 -0.931615 -0.175493 0
M  V30 3533 H 340.128 -3.29747 -1.22311 0
M  V30 3534 H 340.002 -2.53114 -2.79666 0
M  V30 3535 H 342.389 -1.58898 -2.48667 0
M  V30 3536 H 342.47 -2.39022 -0.911148 0
M  V30 3537 H 342.114 -4.64131 -2.06263 0
M  V30 3538 H 342.044 -3.80902 -3.63622 0
M  V30 3539 H 344.535 -2.99648 -2.30259 0
M  V30 3540 H 344.848 -6.48867 -4.19752 0
M  V30 3541 H 343.193 -5.83166 -3.78078 0
M  V30 3542 H 346.384 -3.76244 -2.78492 0
M  V30 3543 H 346.557 -5.35478 -3.64921 0
M  V30 3544 N 339.963 1.05934 -1.16686 0
M  V30 3545 C 341.212 1.78188 -0.945085 0
M  V30 3546 C 341.525 1.88338 0.528021 0
M  V30 3547 O 342.731 2.57258 0.867799 0
M  V30 3548 C 341.187 3.20277 -1.64167 0
M  V30 3549 C 340.795 3.18281 -3.15279 0
M  V30 3550 C 342.539 3.97039 -1.502 0
M  V30 3551 C 340.446 4.55112 -3.7766 0
M  V30 3552 H 339.376 0.667866 -0.349959 0
M  V30 3553 H 342.027 1.18794 -1.39858 0
M  V30 3554 H 340.409 3.79952 -1.11589 0
M  V30 3555 H 341.583 2.68167 -3.74731 0
M  V30 3556 H 339.898 2.55018 -3.29173 0
M  V30 3557 H 342.495 4.98194 -1.94183 0
M  V30 3558 H 342.838 4.13845 -0.451461 0
M  V30 3559 H 343.371 3.43894 -1.99954 0
M  V30 3560 H 340.11 4.43512 -4.82677 0
M  V30 3561 H 339.63 5.05406 -3.22994 0
M  V30 3562 H 341.309 5.24064 -3.79428 0
M  V30 3563 N 341.441 0.965919 1.2453 0
M  V30 3564 C 342.404 0.499547 2.2369 0
M  V30 3565 C 343.404 -0.40294 1.5567 0
M  V30 3566 O 344.594 -0.19865 1.73064 0
M  V30 3567 C 341.726 -0.276792 3.39774 0
M  V30 3568 H 342.919 1.37613 2.66463 0
M  V30 3569 H 340.472 0.750324 1.37112 0
M  V30 3570 H 341.207 -1.17055 3.02438 0
M  V30 3571 H 340.992 0.370826 3.90343 0
M  V30 3572 H 342.482 -0.592175 4.1338 0
M  V30 3573 N 342.919 -1.39368 0.735821 0
M  V30 3574 C 343.882 -2.2896 0.104874 0
M  V30 3575 C 344.882 -1.46347 -0.666274 0
M  V30 3576 O 346.072 -1.67014 -0.49517 0
M  V30 3577 C 343.204 -3.29857 -0.860656 0
M  V30 3578 H 344.397 -2.86259 0.894205 0
M  V30 3579 H 341.95 -1.48029 0.501704 0
M  V30 3580 H 342.685 -2.77615 -1.67631 0
M  V30 3581 H 342.47 -3.9087 -0.310327 0
M  V30 3582 H 343.96 -3.96893 -1.29867 0
M  V30 3583 N 344.397 -0.483516 -1.5 0
M  V30 3584 C 345.36 0.292965 -2.2732 0
M  V30 3585 C 346.36 0.909499 -1.32608 0
M  V30 3586 O 347.55 0.776745 -1.55924 0
M  V30 3587 C 344.682 1.41854 -3.09984 0
M  V30 3588 H 345.875 -0.385289 -2.97415 0
M  V30 3589 H 343.428 -0.237942 -1.54478 0
M  V30 3590 H 344.163 2.13148 -2.44414 0
M  V30 3591 H 343.948 0.982114 -3.79601 0
M  V30 3592 H 345.438 1.96597 -3.68429 0
M  V30 3593 N 345.875 1.56104 -0.216619 0
M  V30 3594 C 347.121 1.98466 0.417033 0
M  V30 3595 C 347.454 1.10403 1.59765 0
M  V30 3596 O 346.729 0.160632 1.93836 0
M  V30 3597 C 347.012 3.49769 0.85637 0
M  V30 3598 C 346.865 4.48606 -0.327546 0
M  V30 3599 C 348.184 4.05339 1.7143 0
M  V30 3600 H 345.303 0.721551 0.150112 0
M  V30 3601 H 347.945 1.87423 -0.311864 0
M  V30 3602 H 346.095 3.5931 1.47745 0
M  V30 3603 H 347.767 4.5108 -0.965618 0
M  V30 3604 H 346.01 4.22682 -0.975805 0
M  V30 3605 H 346.681 5.51995 0.0227149 0
M  V30 3606 H 349.157 3.98712 1.19031 0
M  V30 3607 H 348.033 5.11533 1.99061 0
M  V30 3608 H 348.294 3.51918 2.67593 0
M  V30 3609 N 347.353 -0.0568162 1.57498 0
M  V30 3610 C 348.3 -1.06591 2.04712 0
M  V30 3611 C 349.27 -1.3758 0.930644 0
M  V30 3612 O 350.455 -1.48392 1.19935 0
M  V30 3613 C 347.595 -2.3701 2.50839 0
M  V30 3614 C 346.708 -2.12421 3.76167 0
M  V30 3615 C 345.843 -3.36511 4.11015 0
M  V30 3616 C 344.882 -3.07353 5.2934 0
M  V30 3617 N 344.019 -4.23816 5.59754 0
M  V30 3618 H 348.859 -0.65631 2.90683 0
M  V30 3619 H 346.396 -0.312481 1.43743 0
M  V30 3620 H 348.354 -3.13175 2.7564 0
M  V30 3621 H 346.984 -2.75744 1.67825 0
M  V30 3622 H 346.036 -1.2688 3.58616 0
M  V30 3623 H 347.348 -1.86894 4.62463 0
M  V30 3624 H 346.502 -4.21062 4.36797 0
M  V30 3625 H 345.241 -3.65128 3.23315 0
M  V30 3626 H 344.246 -2.212 5.03339 0
M  V30 3627 H 345.471 -2.80043 6.1867 0
M  V30 3628 H 343.417 -4.52436 4.75014 0
M  V30 3629 H 343.334 -4.01614 6.40501 0
M  V30 3630 H 344.602 -5.0932 5.90096 0
M  V30 3631 N 348.832 -1.54138 -0.328536 0
M  V30 3632 C 349.795 -1.82462 -1.38709 0
M  V30 3633 C 350.795 -0.696229 -1.44946 0
M  V30 3634 O 351.985 -0.964535 -1.4506 0
M  V30 3635 C 349.117 -1.98018 -2.77492 0
M  V30 3636 H 350.31 -2.77037 -1.14851 0
M  V30 3637 H 347.863 -1.45779 -0.563751 0
M  V30 3638 H 348.598 -1.05637 -3.06613 0
M  V30 3639 H 348.383 -2.80124 -2.74359 0
M  V30 3640 H 349.873 -2.21396 -3.54081 0
M  V30 3641 N 350.31 0.590341 -1.46126 0
M  V30 3642 C 351.558 1.34616 -1.50742 0
M  V30 3643 C 351.879 1.94363 -0.157486 0
M  V30 3644 O 351.149 1.78136 0.815136 0
M  V30 3645 H 349.729 0.499789 -0.555175 0
M  V30 3646 H 352.391 0.691953 -1.82203 0
M  V30 3647 H 351.487 2.15678 -2.25587 0
M  V30 3648 N 351.788 1.33704 0.83433 0
M  V30 3649 C 352.736 1.24323 1.96587 0
M  V30 3650 C 353.73 0.143659 1.6879 0
M  V30 3651 O 354.936 0.30791 1.77347 0
M  V30 3652 H 351.311 0.385925 0.645419 0
M  V30 3653 H 353.282 2.19978 2.01624 0
M  V30 3654 C 352.031 1.00394 3.32891 0
M  V30 3655 H 351.354 1.84231 3.54822 0
M  V30 3656 H 352.794 0.97862 4.12552 0
M  V30 3657 C 351.253 -0.293047 3.35623 0
M  V30 3658 O 351.783 -1.29823 3.80143 0
M  V30 3659 N 349.989 -0.322174 2.88809 0
M  V30 3660 H 349.536 0.496379 2.52772 0
M  V30 3661 H 349.494 -1.18977 2.91019 0
M  V30 3662 N 353.266 -1.05314 1.17247 0
M  V30 3663 C 354.513 -1.78293 0.960091 0
M  V30 3664 C 354.841 -1.87658 -0.51136 0
M  V30 3665 O 354.096 -1.3718 -1.39571 0
M  V30 3666 C 354.395 -3.2229 1.54479 0
M  V30 3667 C 354.061 -3.32987 3.04024 0
M  V30 3668 C 352.723 -3.35613 3.44844 0
M  V30 3669 C 355.075 -3.34102 4.00031 0
M  V30 3670 C 352.403 -3.36982 4.8027 0
M  V30 3671 C 354.755 -3.3701 5.35357 0
M  V30 3672 C 353.419 -3.37923 5.75642 0
M  V30 3673 H 352.689 -0.652422 0.351322 0
M  V30 3674 H 355.336 -1.23782 1.46117 0
M  V30 3675 H 353.641 -3.7972 0.965391 0
M  V30 3676 H 355.338 -3.77376 1.35603 0
M  V30 3677 H 351.928 -3.31655 2.71483 0
M  V30 3678 H 356.112 -3.31276 3.69554 0
M  V30 3679 H 351.368 -3.35999 5.10798 0
M  V30 3680 H 355.542 -3.36822 6.09528 0
M  V30 3681 H 353.169 -3.38738 6.80559 0
M  V30 3682 N 354.744 -0.972509 -1.24016 0
M  V30 3683 C 355.691 -0.505969 -2.25186 0
M  V30 3684 C 356.661 0.451009 -1.5986 0
M  V30 3685 O 357.846 0.360307 -1.87367 0
M  V30 3686 C 354.986 0.193089 -3.44559 0
M  V30 3687 C 354.099 -0.803222 -4.24467 0
M  V30 3688 C 353.234 -0.0797793 -5.3114 0
M  V30 3689 C 352.273 -1.06583 -6.02749 0
M  V30 3690 N 351.41 -0.372074 -7.01113 0
M  V30 3691 H 356.25 -1.37351 -2.64459 0
M  V30 3692 H 353.787 -0.688419 -1.29997 0
M  V30 3693 H 355.745 0.615125 -4.1264 0
M  V30 3694 H 354.375 1.02455 -3.06109 0
M  V30 3695 H 353.427 -1.34368 -3.55878 0
M  V30 3696 H 354.739 -1.55494 -4.73944 0
M  V30 3697 H 353.893 0.400015 -6.0538 0
M  V30 3698 H 352.632 0.704597 -4.82583 0
M  V30 3699 H 351.637 -1.55645 -5.27309 0
M  V30 3700 H 352.862 -1.85074 -6.53395 0
M  V30 3701 H 350.808 0.393238 -6.5482 0
M  V30 3702 H 350.725 -1.06258 -7.48495 0
M  V30 3703 H 351.993 0.0855932 -7.79453 0
M  V30 3704 N 356.222 1.38976 -0.743202 0
M  V30 3705 C 357.45 2.04636 -0.30525 0
M  V30 3706 C 357.865 1.56044 1.06281 0
M  V30 3707 O 357.222 0.728921 1.67311 0
M  V30 3708 C 357.273 3.60193 -0.307177 0
M  V30 3709 O 356.994 4.06998 -1.62124 0
M  V30 3710 C 358.495 4.4306 0.145928 0
M  V30 3711 H 355.715 0.65788 -0.132041 0
M  V30 3712 H 358.259 1.77866 -1.00915 0
M  V30 3713 H 356.414 3.85835 0.347898 0
M  V30 3714 H 356.828 5.01371 -1.54036 0
M  V30 3715 H 358.302 5.51921 0.0934183 0
M  V30 3716 H 358.779 4.22706 1.19231 0
M  V30 3717 H 359.385 4.22584 -0.479886 0
M  V30 3718 N 357.7 0.491464 1.49741 0
M  V30 3719 C 358.949 -0.0582189 2.01616 0
M  V30 3720 C 359.262 -1.38927 1.3769 0
M  V30 3721 O 360.468 -2.02509 1.80838 0
M  V30 3722 C 358.924 -0.154235 3.59569 0
M  V30 3723 C 358.532 1.1696 4.32463 0
M  V30 3724 C 360.276 -0.65479 4.1942 0
M  V30 3725 C 358.183 1.03627 5.8225 0
M  V30 3726 H 357.113 -0.0255317 0.753568 0
M  V30 3727 H 359.764 0.629445 1.72367 0
M  V30 3728 H 358.146 -0.906138 3.85493 0
M  V30 3729 H 359.32 1.93405 4.18248 0
M  V30 3730 H 357.635 1.60285 3.84315 0
M  V30 3731 H 360.232 -0.771903 5.29099 0
M  V30 3732 H 360.575 -1.65127 3.8215 0
M  V30 3733 H 361.108 0.040304 3.9778 0
M  V30 3734 H 357.847 2.00672 6.24028 0
M  V30 3735 H 357.367 0.312546 5.98985 0
M  V30 3736 H 359.046 0.711114 6.4308 0
M  V30 3737 N 359.178 -1.55987 0.224894 0
M  V30 3738 C 360.426 -1.97998 -0.405099 0
M  V30 3739 C 360.747 -1.11387 -1.60056 0
M  V30 3740 O 360.017 -0.191645 -1.9496 0
M  V30 3741 H 358.597 -0.731235 -0.152658 0
M  V30 3742 H 361.259 -1.92279 0.318567 0
M  V30 3743 H 360.355 -3.03463 -0.729167 0
M  V30 3744 N 360.656 0.0484629 -1.57525 0
M  V30 3745 C 361.933 0.777447 -1.79486 0
M  V30 3746 C 362.313 1.94597 -0.818251 0
M  V30 3747 O 361.661 2.28047 0.143767 0
M  V30 3748 C 361.871 1.22864 -3.26658 0
M  V30 3749 C 363.219 1.65251 -3.91123 0
M  V30 3750 O 364.243 1.32372 -3.3069 0
M  V30 3751 O 363.102 2.26207 -4.97486 0
M  V30 3752 H 360.196 0.374357 -0.737419 0
M  V30 3753 H 362.742 0.0267359 -1.69679 0
M  V30 3754 H 361.514 0.393589 -3.89316 0
M  V30 3755 H 361.137 2.03996 -3.41279 0
M  V30 3756 N 362.134 1.5431 0.320358 0
M  V30 3757 C 363.359 1.76954 1.08175 0
M  V30 3758 C 363.784 0.518193 1.80821 0
M  V30 3759 O 363.142 -0.530411 1.73368 0
M  V30 3760 C 363.19 2.96451 2.05303 0
M  V30 3761 O 362.294 2.68221 3.13259 0
M  V30 3762 H 361.635 0.586275 0.311733 0
M  V30 3763 H 364.165 2.01342 0.363676 0
M  V30 3764 H 364.175 3.23887 2.48116 0
M  V30 3765 H 362.85 3.87196 1.51829 0
M  V30 3766 H 361.427 2.51744 2.75099 0
M  V30 3767 N 363.613 -0.582584 1.46437 0
M  V30 3768 C 364.56 -1.69164 1.5701 0
M  V30 3769 C 365.53 -1.60847 0.414403 0
M  V30 3770 O 366.715 -1.80058 0.631171 0
M  V30 3771 C 363.855 -3.075 1.56646 0
M  V30 3772 C 362.968 -3.2644 2.82951 0
M  V30 3773 C 362.103 -4.55026 2.7409 0
M  V30 3774 C 361.142 -4.6731 3.95333 0
M  V30 3775 N 360.279 -5.87221 3.84858 0
M  V30 3776 H 365.119 -1.59464 2.51744 0
M  V30 3777 H 362.656 -0.777186 1.24893 0
M  V30 3778 H 364.614 -3.8757 1.5442 0
M  V30 3779 H 363.244 -3.16096 0.654439 0
M  V30 3780 H 362.296 -2.39974 2.95155 0
M  V30 3781 H 363.608 -3.31385 3.72808 0
M  V30 3782 H 362.762 -5.43324 2.6997 0
M  V30 3783 H 361.501 -4.52519 1.81873 0
M  V30 3784 H 360.506 -3.77429 3.99784 0
M  V30 3785 H 361.731 -4.71595 4.88646 0
M  V30 3786 H 359.677 -5.85712 2.95427 0
M  V30 3787 H 359.594 -5.93435 4.6837 0
M  V30 3788 H 360.862 -6.7795 3.84713 0
M  V30 3789 N 365.091 -1.34144 -0.827227 0
M  V30 3790 C 366.337 -1.26446 -1.58554 0
M  V30 3791 C 366.67 0.1664 -1.93486 0
M  V30 3792 O 365.945 1.1107 -1.59667 0
M  V30 3793 C 366.228 -2.15111 -2.8879 0
M  V30 3794 C 366.081 -3.66712 -2.60465 0
M  V30 3795 C 367.4 -2.03311 -3.90324 0
M  V30 3796 H 364.519 -0.46067 -0.575284 0
M  V30 3797 H 367.161 -1.64356 -0.953269 0
M  V30 3798 H 365.311 -1.8291 -3.42748 0
M  V30 3799 H 366.983 -4.09259 -2.1285 0
M  V30 3800 H 365.226 -3.88014 -1.93978 0
M  V30 3801 H 365.897 -4.24112 -3.53317 0
M  V30 3802 H 368.373 -2.31574 -3.45706 0
M  V30 3803 H 367.249 -2.67582 -4.79261 0
M  V30 3804 H 367.51 -1.00879 -4.30437 0
M  V30 3805 N 366.569 1.04691 -1.17803 0
M  V30 3806 C 367.98 1.59238 -0.974689 0
M  V30 3807 C 368.331 1.90306 0.477292 0
M  V30 3808 O 367.456 1.68846 1.35352 0
M  V30 3809 C 368.051 2.89318 -1.76296 0
M  V30 3810 C 366.61 3.40506 -1.60414 0
M  V30 3811 C 365.757 2.14172 -1.76141 0
M  V30 3812 H 368.708 0.874395 -1.32439 0
M  V30 3813 H 368.729 3.5944 -1.24833 0
M  V30 3814 H 368.241 2.66675 -2.81968 0
M  V30 3815 H 366.342 3.68175 -0.572519 0
M  V30 3816 H 366.455 4.14753 -2.39827 0
M  V30 3817 H 364.819 2.25176 -1.19028 0
M  V30 3818 H 365.602 1.93992 -2.83235 0
M  V30 3819 N 368.047 0.979072 1.23499 0
M  V30 3820 C 369.293 0.648178 1.92163 0
M  V30 3821 C 369.626 -0.816049 1.76222 0
M  V30 3822 O 368.901 -1.58849 1.12237 0
M  V30 3823 C 369.184 1.03773 3.44824 0
M  V30 3824 C 369.037 2.55948 3.69879 0
M  V30 3825 C 370.356 0.580653 4.36253 0
M  V30 3826 H 367.475 0.236952 0.69787 0
M  V30 3827 H 370.117 1.22012 1.45647 0
M  V30 3828 H 368.267 0.551058 3.84572 0
M  V30 3829 H 369.939 3.12179 3.3962 0
M  V30 3830 H 368.182 2.98641 3.14636 0
M  V30 3831 H 368.853 2.78255 4.76737 0
M  V30 3832 H 371.329 0.998465 4.03943 0
M  V30 3833 H 370.205 0.881663 5.41773 0
M  V30 3834 H 370.466 -0.519052 4.39042 0
M  V30 3835 N 369.525 -1.3858 0.750561 0
M  V30 3836 C 370.771 -2.00481 0.305825 0
M  V30 3837 C 371.104 -1.5944 -1.10872 0
M  V30 3838 O 370.379 -0.83052 -1.75877 0
M  V30 3839 C 370.662 -3.5758 0.425287 0
M  V30 3840 C 370.515 -4.08594 1.88072 0
M  V30 3841 C 371.834 -4.39719 -0.183122 0
M  V30 3842 H 368.953 -0.728348 0.112598 0
M  V30 3843 H 371.595 -1.64566 0.949638 0
M  V30 3844 H 369.745 -3.88306 -0.122828 0
M  V30 3845 H 371.417 -3.88523 2.48691 0
M  V30 3846 H 369.66 -3.61574 2.39681 0
M  V30 3847 H 370.331 -5.177 1.91548 0
M  V30 3848 H 372.807 -4.15128 0.284303 0
M  V30 3849 H 371.683 -5.48856 -0.0692757 0
M  V30 3850 H 371.944 -4.23434 -1.27106 0
M  V30 3851 N 371.003 -0.499398 -1.49478 0
M  V30 3852 C 372.28 0.108629 -1.95298 0
M  V30 3853 C 372.66 1.54282 -1.44084 0
M  V30 3854 O 372.008 2.18944 -0.653908 0
M  V30 3855 C 372.218 0.0229111 -3.48992 0
M  V30 3856 C 373.566 0.197643 -4.2414 0
M  V30 3857 O 374.59 0.0981735 -3.56065 0
M  V30 3858 O 373.449 0.401669 -5.45022 0
M  V30 3859 H 370.543 0.096181 -0.821388 0
M  V30 3860 H 373.089 -0.561822 -1.6013 0
M  V30 3861 H 371.861 -0.977321 -3.78899 0
M  V30 3862 H 371.484 0.733579 -3.90774 0
M  V30 3863 N 372.481 1.55866 -0.233164 0
M  V30 3864 C 373.729 1.9821 0.394593 0
M  V30 3865 C 374.05 1.12234 1.59463 0
M  V30 3866 O 373.32 0.201981 1.94856 0
M  V30 3867 H 371.9 0.732034 0.148778 0
M  V30 3868 H 374.562 1.92107 -0.32876 0
M  V30 3869 H 373.658 3.03845 0.713063 0
M  V30 3870 N 373.959 -0.0401083 1.57549 0
M  V30 3871 C 375.375 -0.395556 1.54621 0
M  V30 3872 C 375.575 -1.77281 0.957799 0
M  V30 3873 O 374.631 -2.45888 0.574031 0
M  V30 3874 C 375.944 -0.307535 2.99123 0
M  V30 3875 C 377.492 -0.385425 3.10618 0
M  V30 3876 C 377.967 -0.326973 4.56831 0
M  V30 3877 N 379.458 -0.386102 4.61588 0
M  V30 3878 C 380.193 -0.363591 5.72246 0
M  V30 3879 N 379.689 -0.29402 6.92176 0
M  V30 3880 N 381.482 -0.412503 5.60584 0
M  V30 3881 H 373.633 0.861325 1.94152 0
M  V30 3882 H 375.896 0.326445 0.890021 0
M  V30 3883 H 375.602 0.638461 3.45856 0
M  V30 3884 H 375.476 -1.10552 3.60636 0
M  V30 3885 H 377.863 -1.32185 2.63839 0
M  V30 3886 H 377.944 0.44171 2.51957 0
M  V30 3887 H 377.588 0.605738 5.04275 0
M  V30 3888 H 377.518 -1.17207 5.13391 0
M  V30 3889 H 380.009 -0.442832 3.75296 0
M  V30 3890 H 380.322 -0.28164 7.72287 0
M  V30 3891 H 378.667 -0.260232 6.94513 0
M  V30 3892 H 381.858 -0.464769 4.65787 0
M  V30 3893 H 382.031 -0.391492 6.46816 0
M  V30 3894 N 375.437 -1.54477 -0.31217 0
M  V30 3895 C 376.685 -1.72884 -1.04668 0
M  V30 3896 C 377.006 -0.511477 -1.88173 0
M  V30 3897 O 376.276 0.474407 -1.90069 0
M  V30 3898 H 374.856 -0.637461 -0.389425 0
M  V30 3899 H 377.518 -1.91807 -0.345852 0
M  V30 3900 H 376.614 -2.61334 -1.70619 0
M  V30 3901 N 376.915 0.57481 -1.46744 0
M  V30 3902 C 377.825 1.711 -1.60505 0
M  V30 3903 C 378.841 1.67008 -0.488307 0
M  V30 3904 O 380.017 1.86774 -0.753495 0
M  V30 3905 C 377.082 3.07608 -1.59932 0
M  V30 3906 C 376.143 3.22904 -2.82898 0
M  V30 3907 C 375.376 4.529 -2.82343 0
M  V30 3908 O 375.599 5.37278 -1.91542 0
M  V30 3909 O 374.533 4.71611 -3.73987 0
M  V30 3910 H 378.359 1.62436 -2.56609 0
M  V30 3911 H 375.944 0.742779 -1.29627 0
M  V30 3912 H 377.826 3.88877 -1.62336 0
M  V30 3913 H 376.501 3.16692 -0.669898 0
M  V30 3914 H 375.408 2.41099 -2.86046 0
M  V30 3915 H 376.741 3.18715 -3.75076 0
M  V30 3916 N 378.394 1.34581 0.820102 0
M  V30 3917 C 379.619 1.30333 1.61332 0
M  V30 3918 C 380.044 -0.119339 1.87721 0
M  V30 3919 O 379.402 -1.08197 1.45475 0
M  V30 3920 C 379.45 2.10258 2.92957 0
M  V30 3921 O 378.554 1.47404 3.85157 0
M  V30 3922 H 377.895 0.447488 0.490561 0
M  V30 3923 H 380.425 1.77425 1.01889 0
M  V30 3924 H 380.435 2.21718 3.42498 0
M  V30 3925 H 379.11 3.13693 2.73074 0
M  V30 3926 H 377.687 1.44703 3.43679 0
M  V30 3927 N 379.872 -1.04064 1.18357 0
M  V30 3928 C 380.782 -2.15569 0.925596 0
M  V30 3929 C 381.798 -1.7365 -0.110295 0
M  V30 3930 O 382.974 -2.01273 0.0716218 0
M  V30 3931 C 380.039 -3.43704 0.454836 0
M  V30 3932 C 379.1 -4.00004 1.55869 0
M  V30 3933 C 378.333 -5.22023 1.1103 0
M  V30 3934 O 378.556 -5.70392 -0.0309756 0
M  V30 3935 O 377.49 -5.70856 1.90805 0
M  V30 3936 H 381.316 -2.40187 1.8586 0
M  V30 3937 H 378.901 -1.1402 0.965394 0
M  V30 3938 H 380.783 -4.20923 0.200382 0
M  V30 3939 H 379.458 -3.20559 -0.449876 0
M  V30 3940 H 378.365 -3.24172 1.86716 0
M  V30 3941 H 379.698 -4.2749 2.43953 0
M  V30 3942 N 381.35 -0.985608 -1.22978 0
M  V30 3943 C 382.597 -0.657386 -1.91532 0
M  V30 3944 C 382.925 0.809707 -1.76845 0
M  V30 3945 O 382.18 1.60021 -1.12658 0
M  V30 3946 C 382.479 -1.00014 -3.43121 0
M  V30 3947 C 382.145 -2.4583 -3.77993 0
M  V30 3948 C 380.807 -2.85679 -3.87222 0
M  V30 3949 C 383.159 -3.40378 -3.94705 0
M  V30 3950 C 380.487 -4.19081 -4.10595 0
M  V30 3951 C 382.839 -4.73429 -4.1958 0
M  V30 3952 C 381.503 -5.1303 -4.27032 0
M  V30 3953 H 380.773 -0.240555 -0.700867 0
M  V30 3954 H 383.42 -1.24044 -1.45895 0
M  V30 3955 H 381.725 -0.335072 -3.90365 0
M  V30 3956 H 383.422 -0.724322 -3.94404 0
M  V30 3957 H 380.012 -2.13939 -3.71387 0
M  V30 3958 H 384.196 -3.10766 -3.8696 0
M  V30 3959 H 379.452 -4.49362 -4.14589 0
M  V30 3960 H 383.626 -5.46644 -4.31455 0
M  V30 3961 H 381.253 -6.16418 -4.44896 0
M  V30 3962 N 382.828 1.3818 -0.7579 0
M  V30 3963 C 384.056 2.04301 -0.326937 0
M  V30 3964 C 384.471 1.57163 1.0462 0
M  V30 3965 O 383.828 0.746626 1.66529 0
M  V30 3966 C 383.879 3.59846 -0.345363 0
M  V30 3967 O 383.6 4.05256 -1.66432 0
M  V30 3968 C 385.101 4.4319 0.098927 0
M  V30 3969 H 382.321 0.656443 -0.139012 0
M  V30 3970 H 384.865 1.76786 -1.02796 0
M  V30 3971 H 383.02 3.86182 0.306955 0
M  V30 3972 H 383.434 4.99709 -1.59345 0
M  V30 3973 H 384.908 5.51989 0.0348745 0
M  V30 3974 H 385.385 4.23947 1.14741 0
M  V30 3975 H 385.991 4.22051 -0.52468 0
M  V30 3976 N 384.306 0.507319 1.49211 0
M  V30 3977 C 385.722 0.163682 1.58758 0
M  V30 3978 C 385.922 -1.33208 1.51188 0
M  V30 3979 O 384.978 -2.10855 1.38911 0
M  V30 3980 C 386.291 0.746095 2.91297 0
M  V30 3981 C 387.839 0.712773 3.04776 0
M  V30 3982 C 388.314 1.27336 4.39943 0
M  V30 3983 N 389.805 1.23433 4.46451 0
M  V30 3984 C 390.54 1.63821 5.495 0
M  V30 3985 N 390.036 2.11832 6.5962 0
M  V30 3986 N 391.829 1.55198 5.4025 0
M  V30 3987 H 383.98 1.47972 1.52375 0
M  V30 3988 H 386.243 0.614147 0.722168 0
M  V30 3989 H 385.949 1.79534 3.02424 0
M  V30 3990 H 385.823 0.210137 3.76614 0
M  V30 3991 H 388.21 -0.327656 2.93275 0
M  V30 3992 H 388.291 1.28595 2.21127 0
M  V30 3993 H 387.935 2.3126 4.52196 0
M  V30 3994 H 387.865 0.676066 5.22242 0
M  V30 3995 H 390.356 0.882627 3.67448 0
M  V30 3996 H 390.669 2.40703 7.34358 0
M  V30 3997 H 389.014 2.1581 6.60644 0
M  V30 3998 H 392.205 1.17505 4.53112 0
M  V30 3999 H 392.378 1.86997 6.20432 0
M  V30 4000 N 385.784 -1.5574 0.241426 0
M  V30 4001 C 387.014 -2.02913 -0.38857 0
M  V30 4002 C 387.422 -1.12014 -1.52478 0
M  V30 4003 O 386.765 -0.125903 -1.83268 0
M  V30 4004 C 386.827 -3.4636 -0.963075 0
M  V30 4005 C 386.491 -4.56982 0.0401916 0
M  V30 4006 C 387.488 -5.12941 0.847766 0
M  V30 4007 C 385.173 -5.0203 0.164699 0
M  V30 4008 C 387.167 -6.12437 1.76636 0
M  V30 4009 C 384.854 -6.01358 1.0868 0
M  V30 4010 C 385.852 -6.5644 1.88616 0
M  V30 4011 O 385.54 -7.53831 2.79273 0
M  V30 4012 H 385.272 -0.668983 -0.0971452 0
M  V30 4013 H 387.826 -2.02198 0.361248 0
M  V30 4014 H 386.056 -3.44206 -1.76235 0
M  V30 4015 H 387.745 -3.77065 -1.50257 0
M  V30 4016 H 388.511 -4.78974 0.762133 0
M  V30 4017 H 384.39 -4.58824 -0.447411 0
M  V30 4018 H 387.934 -6.55355 2.39071 0
M  V30 4019 H 383.831 -6.34746 1.17338 0
M  V30 4020 H 384.599 -7.71428 2.73572 0
M  V30 4021 N 387.262 0.0317525 -1.57568 0
M  V30 4022 C 388.511 0.722131 -1.8833 0
M  V30 4023 C 388.824 1.76664 -0.839587 0
M  V30 4024 O 390.03 2.50942 -1.03635 0
M  V30 4025 C 388.486 1.33544 -3.34207 0
M  V30 4026 C 388.094 0.327415 -4.46802 0
M  V30 4027 C 389.838 2.00585 -3.7412 0
M  V30 4028 C 387.745 0.948915 -5.83738 0
M  V30 4029 H 386.675 0.273466 -0.702661 0
M  V30 4030 H 389.326 -0.0235811 -1.83485 0
M  V30 4031 H 387.708 2.13077 -3.33788 0
M  V30 4032 H 388.882 -0.441006 -4.58685 0
M  V30 4033 H 387.197 -0.240758 -4.15703 0
M  V30 4034 H 389.794 2.47932 -4.73744 0
M  V30 4035 H 390.137 2.82285 -3.05975 0
M  V30 4036 H 390.67 1.27831 -3.76702 0
M  V30 4037 H 387.409 0.171387 -6.55276 0
M  V30 4038 H 386.929 1.68724 -5.7558 0
M  V30 4039 H 388.608 1.45705 -6.3038 0
M  V30 4040 N 388.74 1.54641 0.303973 0
M  V30 4041 C 390.151 1.64811 0.877163 0
M  V30 4042 C 390.502 0.554838 1.88191 0
M  V30 4043 O 389.627 -0.309033 2.14182 0
M  V30 4044 C 390.222 2.9876 1.59775 0
M  V30 4045 C 388.781 3.11061 2.11938 0
M  V30 4046 C 387.928 2.60479 0.951097 0
M  V30 4047 H 390.879 1.58493 0.0810486 0
M  V30 4048 H 390.9 2.90017 2.46314 0
M  V30 4049 H 390.412 3.7831 0.866226 0
M  V30 4050 H 388.513 2.36225 2.88146 0
M  V30 4051 H 388.626 4.17171 2.35595 0
M  V30 4052 H 386.99 2.16859 1.33583 0
M  V30 4053 H 387.773 3.42504 0.233581 0
M  V30 4054 N 390.218 -0.567019 1.47046 0
M  V30 4055 C 391.464 -1.32658 1.53394 0
M  V30 4056 C 391.797 -1.93254 0.19148 0
M  V30 4057 O 391.072 -1.77338 -0.798844 0
M  V30 4058 C 391.355 -2.44412 2.64452 0
M  V30 4059 C 391.208 -1.88749 4.08282 0
M  V30 4060 C 392.527 -3.46387 2.71485 0
M  V30 4061 H 389.646 -0.48098 0.558415 0
M  V30 4062 H 392.288 -0.635481 1.79058 0
M  V30 4063 H 390.438 -3.03363 2.427 0
M  V30 4064 H 392.11 -1.34134 4.41368 0
M  V30 4065 H 390.353 -1.19481 4.17021 0
M  V30 4066 H 391.024 -2.69491 4.81745 0
M  V30 4067 H 393.5 -2.9734 2.91081 0
M  V30 4068 H 392.376 -4.2202 3.50985 0
M  V30 4069 H 392.637 -4.04616 1.78153 0
M  V30 4070 N 391.696 -1.35014 -0.812953 0
M  V30 4071 C 393.107 -1.25035 -1.38648 0
M  V30 4072 C 393.458 0.119967 -1.95833 0
M  V30 4073 O 392.583 1.02069 -1.90816 0
M  V30 4074 C 393.178 -2.26394 -2.52054 0
M  V30 4075 C 391.737 -2.20175 -3.05287 0
M  V30 4076 C 390.884 -2.12451 -1.78213 0
M  V30 4077 H 393.835 -1.46235 -0.616516 0
M  V30 4078 H 393.856 -1.88672 -3.30429 0
M  V30 4079 H 393.368 -3.26116 -2.10404 0
M  V30 4080 H 391.469 -1.23841 -3.51417 0
M  V30 4081 H 391.582 -3.11863 -3.63701 0
M  V30 4082 H 389.946 -1.58328 -1.9951 0
M  V30 4083 H 390.729 -3.14024 -1.38723 0
M  V30 4084 N 393.175 1.03435 -1.18907 0
M  V30 4085 C 394.122 2.11591 -0.921837 0
M  V30 4086 C 395.092 1.65499 0.141226 0
M  V30 4087 O 396.277 1.908 0.000242829 0
M  V30 4088 C 393.417 3.42012 -0.460616 0
M  V30 4089 C 392.53 4.01682 -1.58982 0
M  V30 4090 C 391.665 5.20091 -1.08069 0
M  V30 4091 C 390.704 5.71805 -2.18416 0
M  V30 4092 N 389.841 6.81494 -1.68849 0
M  V30 4093 H 394.681 2.33787 -1.8479 0
M  V30 4094 H 392.218 1.1467 -0.921373 0
M  V30 4095 H 394.176 4.16834 -0.174642 0
M  V30 4096 H 392.806 3.19944 0.428467 0
M  V30 4097 H 391.858 3.24127 -1.99113 0
M  V30 4098 H 393.17 4.36084 -2.4214 0
M  V30 4099 H 392.324 6.02051 -0.749615 0
M  V30 4100 H 391.063 4.87209 -0.218771 0
M  V30 4101 H 390.068 4.88461 -2.5236 0
M  V30 4102 H 391.293 6.06728 -3.05054 0
M  V30 4103 H 389.239 6.50475 -0.849572 0
M  V30 4104 H 389.156 7.14994 -2.45601 0
M  V30 4105 H 390.424 7.67063 -1.38689 0
M  V30 4106 N 394.653 0.992116 1.22453 0
M  V30 4107 C 395.601 0.534644 2.26372 0
M  V30 4108 C 396.595 -0.414293 1.64256 0
M  V30 4109 O 397.801 -0.286899 1.77699 0
M  V30 4110 H 394.176 0.154502 0.735957 0
M  V30 4111 H 396.147 1.42256 2.62309 0
M  V30 4112 C 394.896 -0.135815 3.47435 0
M  V30 4113 H 394.219 0.585311 3.95492 0
M  V30 4114 H 395.659 -0.419374 4.21921 0
M  V30 4115 C 394.118 -1.37089 3.07747 0
M  V30 4116 O 394.648 -2.46629 3.17076 0
M  V30 4117 N 392.854 -1.24585 2.62539 0
M  V30 4118 H 392.401 -0.354542 2.55149 0
M  V30 4119 H 392.359 -2.07327 2.36353 0
M  V30 4120 N 396.131 -1.37776 0.765217 0
M  V30 4121 C 397.542 -1.82521 0.392819 0
M  V30 4122 C 397.893 -1.63789 -1.08017 0
M  V30 4123 O 397.018 -1.14542 -1.83601 0
M  V30 4124 C 397.613 -3.31358 0.706214 0
M  V30 4125 C 396.172 -3.74406 0.386952 0
M  V30 4126 C 395.319 -2.60394 0.953422 0
M  V30 4127 H 398.27 -1.2634 0.960412 0
M  V30 4128 H 398.291 -3.80498 -0.0114706 0
M  V30 4129 H 397.803 -3.44959 1.77833 0
M  V30 4130 H 395.904 -3.66377 -0.678112 0
M  V30 4131 H 396.017 -4.70749 0.890636 0
M  V30 4132 H 394.381 -2.51878 0.378064 0
M  V30 4133 H 395.164 -2.76791 2.03081 0
M  V30 4134 N 397.609 -0.515225 -1.4894 0
M  V30 4135 C 398.559 0.275113 -2.26334 0
M  V30 4136 C 399.543 0.923007 -1.31793 0
M  V30 4137 O 400.735 0.828254 -1.56426 0
M  V30 4138 C 397.864 1.33041 -3.16473 0
M  V30 4139 C 396.95 0.688051 -4.18481 0
M  V30 4140 N 397.341 -0.217638 -5.05332 0
M  V30 4141 C 395.639 0.94699 -4.3583 0
M  V30 4142 C 396.34 -0.58676 -5.78733 0
M  V30 4143 N 395.316 0.0486966 -5.43578 0
M  V30 4144 H 399.118 -0.421876 -2.90856 0
M  V30 4145 H 396.632 -0.332249 -1.58965 0
M  V30 4146 H 398.629 1.9102 -3.70563 0
M  V30 4147 H 397.289 2.02894 -2.53504 0
M  V30 4148 H 398.3 -0.589343 -5.14536 0
M  V30 4149 H 394.977 1.63719 -3.8406 0
M  V30 4150 H 396.367 -1.32855 -6.58634 0
M  V30 4151 N 399.087 1.5561 -0.249682 0
M  V30 4152 C 400.335 1.98618 0.373548 0
M  V30 4153 C 400.656 1.13919 1.58264 0
M  V30 4154 O 399.926 0.222637 1.94631 0
M  V30 4155 H 398.506 0.733571 0.141006 0
M  V30 4156 H 401.168 1.91748 -0.349117 0
M  V30 4157 H 400.264 3.04584 0.680796 0
M  V30 4158 N 400.565 -0.0233959 1.57583 0
M  V30 4159 C 401.495 -1.02162 2.09965 0
M  V30 4160 C 402.476 -1.3735 1.00344 0
M  V30 4161 O 403.661 -1.46135 1.27899 0
M  V30 4162 C 400.791 -2.32081 2.58371 0
M  V30 4163 C 399.745 -2.1112 3.72307 0
M  V30 4164 C 399.071 -3.46848 4.06941 0
M  V30 4165 C 400.371 -1.49276 5.00514 0
M  V30 4166 H 402.065 -0.585557 2.93618 0
M  V30 4167 H 399.611 -0.280218 1.41247 0
M  V30 4168 H 401.564 -3.02249 2.93639 0
M  V30 4169 H 400.288 -2.77758 1.71808 0
M  V30 4170 H 398.947 -1.43384 3.37397 0
M  V30 4171 H 398.595 -3.90184 3.17436 0
M  V30 4172 H 398.295 -3.33646 4.83688 0
M  V30 4173 H 399.819 -4.18369 4.44747 0
M  V30 4174 H 401.233 -2.09368 5.33702 0
M  V30 4175 H 399.63 -1.46632 5.8191 0
M  V30 4176 H 400.7 -0.459217 4.82721 0
M  V30 4177 N 402.043 -1.548 -0.295768 0
M  V30 4178 C 402.991 -1.86874 -1.38495 0
M  V30 4179 C 403.985 -0.742938 -1.52239 0
M  V30 4180 O 405.191 -0.926999 -1.54294 0
M  V30 4181 H 401.566 -0.592786 -0.462719 0
M  V30 4182 H 403.537 -2.77904 -1.08682 0
M  V30 4183 C 402.286 -2.13732 -2.74252 0
M  V30 4184 H 401.609 -2.99835 -2.64459 0
M  V30 4185 H 403.049 -2.4011 -3.49461 0
M  V30 4186 C 401.508 -0.937539 -3.23592 0
M  V30 4187 O 402.038 -0.160665 -4.01379 0
M  V30 4188 N 400.244 -0.741478 -2.80981 0
M  V30 4189 H 399.791 -1.37489 -2.1784 0
M  V30 4190 H 399.749 0.0597103 -3.14343 0
M  V30 4191 N 403.521 0.559213 -1.47345 0
M  V30 4192 C 404.749 1.34194 -1.57479 0
M  V30 4193 C 405.164 1.87463 -0.224261 0
M  V30 4194 O 404.521 1.64888 0.782185 0
M  V30 4195 C 404.572 2.51324 -2.59843 0
M  V30 4196 O 404.293 2.00256 -3.89653 0
M  V30 4197 C 405.794 3.43563 -2.80142 0
M  V30 4198 H 403.014 0.409136 -0.531835 0
M  V30 4199 H 405.558 0.677609 -1.92947 0
M  V30 4200 H 403.713 3.13699 -2.27314 0
M  V30 4201 H 404.127 2.76708 -4.4557 0
M  V30 4202 H 405.601 4.2217 -3.55635 0
M  V30 4203 H 406.078 3.9698 -1.87892 0
M  V30 4204 H 406.684 2.87005 -3.1386 0
M  V30 4205 N 404.999 1.35443 0.805782 0
M  V30 4206 C 406.224 1.32037 1.59941 0
M  V30 4207 C 406.649 -0.0994215 1.87837 0
M  V30 4208 O 406.007 -1.06648 1.46615 0
M  V30 4209 C 406.055 2.13354 2.90711 0
M  V30 4210 O 405.159 1.5148 3.83572 0
M  V30 4211 H 404.5 0.452666 0.485787 0
M  V30 4212 H 407.03 1.78496 1.00002 0
M  V30 4213 H 407.04 2.25338 3.40128 0
M  V30 4214 H 405.715 3.16572 2.69732 0
M  V30 4215 H 404.292 1.4834 3.42125 0
M  V30 4216 N 406.477 -1.02803 1.19454 0
M  V30 4217 C 407.888 -1.57667 0.999899 0
M  V30 4218 C 408.239 -1.91041 -0.446956 0
M  V30 4219 O 407.364 -1.70978 -1.32648 0
M  V30 4220 C 407.959 -2.86477 1.80877 0
M  V30 4221 C 406.518 -3.37911 1.65811 0
M  V30 4222 C 405.665 -2.11343 1.79526 0
M  V30 4223 H 408.616 -0.853214 1.33813 0
M  V30 4224 H 408.637 -3.57408 1.30536 0
M  V30 4225 H 408.149 -2.62155 2.86175 0
M  V30 4226 H 406.25 -3.67218 0.63102 0
M  V30 4227 H 406.363 -4.10885 2.46395 0
M  V30 4228 H 404.727 -2.23254 1.22596 0
M  V30 4229 H 405.51 -1.89461 2.86285 0
M  V30 4230 N 407.956 -0.998596 -1.21925 0
M  V30 4231 C 409.233 -0.593401 -1.86382 0
M  V30 4232 C 409.613 0.92916 -1.89552 0
M  V30 4233 O 408.961 1.81347 -1.39017 0
M  V30 4234 C 409.171 -1.22039 -3.26967 0
M  V30 4235 C 410.519 -1.32449 -4.03413 0
M  V30 4236 O 411.543 -1.17522 -3.36254 0
M  V30 4237 O 410.402 -1.56395 -5.23644 0
M  V30 4238 H 407.496 -0.202385 -0.801854 0
M  V30 4239 H 410.042 -1.09484 -1.29659 0
M  V30 4240 H 408.814 -2.26158 -3.19325 0
M  V30 4241 H 408.437 -0.704906 -3.91301 0
M  V30 4242 N 409.434 1.37368 -0.772513 0
M  V30 4243 C 410.682 1.99279 -0.336516 0
M  V30 4244 C 411.003 1.6163 1.09091 0
M  V30 4245 O 410.273 0.882109 1.74916 0
M  V30 4246 H 408.853 0.737063 -0.121435 0
M  V30 4247 H 411.515 1.67836 -0.990809 0
M  V30 4248 H 410.611 3.09332 -0.414763 0
M  V30 4249 N 410.912 0.523116 1.48665 0
M  V30 4250 C 411.859 -0.243398 2.29513 0
M  V30 4251 C 412.829 -0.940139 1.36933 0
M  V30 4252 O 414.014 -0.942503 1.65896 0
M  V30 4253 C 411.154 -1.28855 3.20141 0
M  V30 4254 C 410.267 -0.60135 4.27794 0
M  V30 4255 C 409.402 -1.62884 5.05611 0
M  V30 4256 C 408.441 -0.924726 6.05075 0
M  V30 4257 N 407.578 -1.89744 6.75975 0
M  V30 4258 H 412.418 0.452234 2.94549 0
M  V30 4259 H 409.955 0.234858 1.45213 0
M  V30 4260 H 411.913 -1.90674 3.71079 0
M  V30 4261 H 410.543 -1.95266 2.57043 0
M  V30 4262 H 409.595 0.130623 3.80176 0
M  V30 4263 H 410.907 -0.0481585 4.98777 0
M  V30 4264 H 410.061 -2.32149 5.60528 0
M  V30 4265 H 408.8 -2.21592 4.34452 0
M  V30 4266 H 407.805 -0.217966 5.49368 0
M  V30 4267 H 409.03 -0.343851 6.78229 0
M  V30 4268 H 406.976 -2.47373 6.07571 0
M  V30 4269 H 406.893 -1.3955 7.43009 0
M  V30 4270 H 408.161 -2.58229 7.35485 0
M  V30 4271 N 412.39 -1.55475 0.257931 0
M  V30 4272 C 413.62 -2.03314 -0.367026 0
M  V30 4273 C 414.028 -1.13625 -1.51281 0
M  V30 4274 O 413.371 -0.145334 -1.83124 0
M  V30 4275 C 413.433 -3.47362 -0.926284 0
M  V30 4276 C 413.097 -4.56914 0.0886584 0
M  V30 4277 C 414.094 -5.12013 0.902123 0
M  V30 4278 C 411.779 -5.01827 0.217936 0
M  V30 4279 C 413.773 -6.10529 1.83122 0
M  V30 4280 C 411.46 -6.00172 1.15052 0
M  V30 4281 C 412.458 -6.54402 1.95568 0
M  V30 4282 O 412.146 -7.50827 2.87253 0
M  V30 4283 H 411.878 -0.669976 -0.0900443 0
M  V30 4284 H 414.432 -2.01804 0.382673 0
M  V30 4285 H 412.662 -3.46056 -1.72575 0
M  V30 4286 H 414.351 -3.78637 -1.46249 0
M  V30 4287 H 415.117 -4.78139 0.812891 0
M  V30 4288 H 410.996 -4.59272 -0.398721 0
M  V30 4289 H 414.54 -6.52783 2.46008 0
M  V30 4290 H 410.437 -6.33465 1.24064 0
M  V30 4291 H 411.205 -7.68483 2.81739 0
M  V30 4292 N 413.868 0.0150385 -1.57593 0
M  V30 4293 C 415.115 0.703001 -1.89906 0
M  V30 4294 C 415.443 1.74604 -0.856944 0
M  V30 4295 O 414.698 1.95197 0.140287 0
M  V30 4296 C 414.997 1.39686 -3.28972 0
M  V30 4297 C 414.663 0.488457 -4.48246 0
M  V30 4298 C 413.325 0.2383 -4.8061 0
M  V30 4299 C 415.677 -0.137881 -5.21018 0
M  V30 4300 C 413.005 -0.646738 -5.83125 0
M  V30 4301 C 415.357 -1.0107 -6.24474 0
M  V30 4302 C 414.021 -1.27019 -6.55303 0
M  V30 4303 H 413.291 0.257246 -0.694914 0
M  V30 4304 H 415.938 -0.037259 -1.91464 0
M  V30 4305 H 414.243 2.21079 -3.23468 0
M  V30 4306 H 415.94 1.93495 -3.51227 0
M  V30 4307 H 412.53 0.693593 -4.22951 0
M  V30 4308 H 416.714 0.0423953 -4.96282 0
M  V30 4309 H 411.97 -0.855937 -6.05379 0
M  V30 4310 H 416.144 -1.50247 -6.79999 0
M  V30 4311 H 413.771 -1.95769 -7.3456 0
M  V30 4312 N 415.346 1.54954 0.287554 0
M  V30 4313 C 416.595 1.74081 1.01877 0
M  V30 4314 C 416.908 0.541135 1.87966 0
M  V30 4315 O 418.114 0.614491 2.64455 0
M  V30 4316 C 416.57 3.08042 1.86113 0
M  V30 4317 C 416.178 4.35531 1.04961 0
M  V30 4318 C 417.922 3.36523 2.58752 0
M  V30 4319 C 415.829 5.60538 1.88551 0
M  V30 4320 H 414.759 0.64884 0.384087 0
M  V30 4321 H 417.41 1.81426 0.275101 0
M  V30 4322 H 415.792 2.94696 2.64519 0
M  V30 4323 H 416.966 4.59751 0.31074 0
M  V30 4324 H 415.281 4.14085 0.43843 0
M  V30 4325 H 417.878 4.27122 3.21668 0
M  V30 4326 H 418.221 2.56 3.28283 0
M  V30 4327 H 418.754 3.50901 1.87386 0
M  V30 4328 H 415.493 6.43767 1.23466 0
M  V30 4329 H 415.013 5.40483 2.60074 0
M  V30 4330 H 416.692 5.98297 2.46273 0
M  V30 4331 N 416.824 -0.551391 1.4764 0
M  V30 4332 C 417.787 -1.64007 1.60107 0
M  V30 4333 C 418.787 -1.53601 0.47576 0
M  V30 4334 O 419.977 -1.57655 0.740988 0
M  V30 4335 C 417.109 -3.03569 1.55108 0
M  V30 4336 H 418.302 -1.543 2.57161 0
M  V30 4337 H 415.855 -0.771776 1.35917 0
M  V30 4338 H 416.59 -3.18804 0.594519 0
M  V30 4339 H 416.375 -3.12532 2.36783 0
M  V30 4340 H 417.865 -3.82762 1.66982 0
M  V30 4341 N 418.302 -1.35869 -0.798587 0
M  V30 4342 C 419.25 -1.29491 -1.93222 0
M  V30 4343 C 420.244 -0.18836 -1.6835 0
M  V30 4344 O 421.45 -0.354822 -1.76468 0
M  V30 4345 H 417.825 -0.402901 -0.63496 0
M  V30 4346 H 419.796 -2.25247 -1.9572 0
M  V30 4347 C 418.545 -1.09184 -3.30112 0
M  V30 4348 H 417.868 -1.93574 -3.49813 0
M  V30 4349 H 419.308 -1.08766 -4.09812 0
M  V30 4350 C 417.767 0.203959 -3.36282 0
M  V30 4351 O 418.297 1.19699 -3.83451 0
M  V30 4352 N 416.503 0.245488 -2.89561 0
M  V30 4353 H 416.05 -0.563223 -2.51367 0
M  V30 4354 H 416.008 1.11219 -2.94071 0
M  V30 4355 N 419.78 1.02168 -1.19998 0
M  V30 4356 C 421.028 1.75338 -1.00504 0
M  V30 4357 C 421.349 1.89387 0.464506 0
M  V30 4358 O 420.619 1.43268 1.33608 0
M  V30 4359 H 419.199 0.649564 -0.368885 0
M  V30 4360 H 421.861 1.23205 -1.51018 0
M  V30 4361 H 420.957 2.75892 -1.45912 0
M  V30 4362 N 421.258 1.00505 1.21394 0
M  V30 4363 C 422.205 0.565496 2.23765 0
M  V30 4364 C 423.175 -0.408466 1.60999 0
M  V30 4365 O 424.36 -0.310503 1.88257 0
M  V30 4366 C 421.5 -0.101667 3.4495 0
M  V30 4367 C 420.613 0.915479 4.22188 0
M  V30 4368 C 419.748 0.220574 5.30742 0
M  V30 4369 C 418.787 1.22527 5.99711 0
M  V30 4370 N 417.924 0.557831 6.9988 0
M  V30 4371 H 422.764 1.44314 2.60725 0
M  V30 4372 H 420.301 0.722643 1.28126 0
M  V30 4373 H 422.259 -0.505504 4.14126 0
M  V30 4374 H 420.889 -0.94303 3.08718 0
M  V30 4375 H 419.941 1.43756 3.52191 0
M  V30 4376 H 421.253 1.68005 4.69655 0
M  V30 4377 H 420.407 -0.239368 6.06228 0
M  V30 4378 H 419.146 -0.576401 4.84282 0
M  V30 4379 H 418.151 1.69571 5.22997 0
M  V30 4380 H 419.376 2.02332 6.48258 0
M  V30 4381 H 417.322 -0.219486 6.55633 0
M  V30 4382 H 417.239 1.26065 7.45415 0
M  V30 4383 H 418.507 0.121095 7.79406 0
M  V30 4384 N 422.737 -1.36956 0.779787 0
M  V30 4385 C 423.667 -2.32761 0.185651 0
M  V30 4386 C 424.648 -1.56177 -0.673989 0
M  V30 4387 O 425.833 -1.84378 -0.609797 0
M  V30 4388 C 422.963 -3.40418 -0.687964 0
M  V30 4389 C 421.917 -4.27941 0.0710102 0
M  V30 4390 C 421.243 -5.26681 -0.922573 0
M  V30 4391 C 422.543 -5.07006 1.25467 0
M  V30 4392 H 424.237 -2.82698 0.986008 0
M  V30 4393 H 421.783 -1.3592 0.475592 0
M  V30 4394 H 423.736 -4.06423 -1.11348 0
M  V30 4395 H 422.46 -2.89025 -1.52093 0
M  V30 4396 H 421.119 -3.63478 0.47739 0
M  V30 4397 H 420.767 -4.71565 -1.7503 0
M  V30 4398 H 420.467 -5.86103 -0.419237 0
M  V30 4399 H 421.991 -5.9556 -1.34686 0
M  V30 4400 H 423.405 -5.66105 0.905401 0
M  V30 4401 H 421.802 -5.75793 1.69063 0
M  V30 4402 H 422.872 -4.3921 2.05481 0
M  V30 4403 N 424.215 -0.530993 -1.48385 0
M  V30 4404 C 425.44 0.000729535 -2.074 0
M  V30 4405 C 425.865 1.27298 -1.3848 0
M  V30 4406 O 425.223 1.75599 -0.451081 0
M  V30 4407 C 425.271 0.206697 -3.60007 0
M  V30 4408 O 424.375 1.27514 -3.92191 0
M  V30 4409 H 423.716 -0.039583 -0.662819 0
M  V30 4410 H 426.246 -0.739194 -1.9078 0
M  V30 4411 H 426.256 0.42904 -4.05738 0
M  V30 4412 H 424.931 -0.722675 -4.09573 0
M  V30 4413 H 423.508 1.03537 -3.58238 0
M  V30 4414 N 425.693 1.55336 -0.266172 0
M  V30 4415 C 427.104 1.85236 0.233315 0
M  V30 4416 C 427.455 1.18816 1.56132 0
M  V30 4417 O 426.58 0.473307 2.11161 0
M  V30 4418 C 427.175 3.36059 0.430113 0
M  V30 4419 C 425.734 3.66116 0.873842 0
M  V30 4420 C 424.881 2.77274 -0.0380016 0
M  V30 4421 H 427.832 1.51004 -0.488214 0
M  V30 4422 H 427.853 3.58681 1.26998 0
M  V30 4423 H 427.365 3.84373 -0.536588 0
M  V30 4424 H 425.466 3.23295 1.85233 0
M  V30 4425 H 425.579 4.73699 0.717358 0
M  V30 4426 H 423.943 2.50198 0.476759 0
M  V30 4427 H 424.726 3.284 -1.00042 0
M  V30 4428 N 427.171 -0.0066808 1.57599 0
M  V30 4429 C 428.399 -0.704087 1.94551 0
M  V30 4430 C 428.814 -1.67677 0.867746 0
M  V30 4431 O 428.171 -1.8185 -0.153925 0
M  V30 4432 C 428.222 -1.44177 3.31505 0
M  V30 4433 O 427.943 -0.508097 4.35144 0
M  V30 4434 C 429.444 -2.23429 3.82876 0
M  V30 4435 H 426.664 -0.196523 0.641576 0
M  V30 4436 H 429.208 0.042453 2.04456 0
M  V30 4437 H 427.363 -2.13999 3.22929 0
M  V30 4438 H 427.777 -1.02782 5.14331 0
M  V30 4439 H 429.251 -2.70552 4.8115 0
M  V30 4440 H 429.728 -3.05818 3.15233 0
M  V30 4441 H 430.334 -1.58636 3.94607 0
M  V30 4442 N 428.649 -1.55105 -0.279332 0
M  V30 4443 C 429.895 -1.75672 -1.01327 0
M  V30 4444 C 430.228 -0.552739 -1.86168 0
M  V30 4445 O 429.503 0.449827 -1.89227 0
M  V30 4446 C 429.786 -3.05825 -1.90114 0
M  V30 4447 C 429.639 -4.36565 -1.08309 0
M  V30 4448 C 430.958 -3.31975 -2.8893 0
M  V30 4449 H 428.077 -0.639149 -0.366957 0
M  V30 4450 H 430.719 -1.87833 -0.286154 0
M  V30 4451 H 428.869 -2.95588 -2.52111 0
M  V30 4452 H 430.541 -4.58751 -0.484314 0
M  V30 4453 H 428.784 -4.32076 -0.386362 0
M  V30 4454 H 429.455 -5.23946 -1.73737 0
M  V30 4455 H 431.931 -3.41963 -2.37067 0
M  V30 4456 H 430.807 -4.2432 -3.48201 0
M  V30 4457 H 431.068 -2.51309 -3.63725 0
M  V30 4458 N 430.127 0.543554 -1.4793 0
M  V30 4459 C 431.352 1.32995 -1.59145 0
M  V30 4460 C 431.777 1.86472 -0.246956 0
M  V30 4461 O 431.135 1.63696 0.779324 0
M  V30 4462 C 431.183 2.46623 -2.63077 0
M  V30 4463 O 430.287 3.49261 -2.19295 0
M  V30 4464 H 429.628 0.394472 -0.534124 0
M  V30 4465 H 432.158 0.655489 -1.93816 0
M  V30 4466 H 432.168 2.93001 -2.83926 0
M  V30 4467 H 430.843 2.07059 -3.60693 0
M  V30 4468 H 429.42 3.09094 -2.08603 0
M  V30 4469 N 431.605 1.3629 0.791371 0
M  V30 4470 C 432.851 1.30605 1.55146 0
M  V30 4471 C 433.184 -0.115042 1.93859 0
M  V30 4472 O 432.459 -1.06798 1.62556 0
M  V30 4473 C 432.742 2.22692 2.82985 0
M  V30 4474 C 432.595 3.73489 2.50651 0
M  V30 4475 C 433.914 2.13588 3.84796 0
M  V30 4476 H 431.033 0.475761 0.562868 0
M  V30 4477 H 433.675 1.66825 0.909358 0
M  V30 4478 H 431.825 1.91933 3.37778 0
M  V30 4479 H 433.497 4.14758 2.01924 0
M  V30 4480 H 431.74 3.93021 1.83622 0
M  V30 4481 H 432.411 4.3333 3.41949 0
M  V30 4482 H 434.887 2.40659 3.39445 0
M  V30 4483 H 433.763 2.80195 4.71998 0
M  V30 4484 H 434.024 1.12256 4.27611 0
M  V30 4485 N 433.083 -1.0153 1.20538 0
M  V30 4486 C 434.332 -1.74558 1.01057 0
M  V30 4487 C 434.645 -1.90168 -0.457756 0
M  V30 4488 O 435.851 -2.60301 -0.771722 0
M  V30 4489 C 434.307 -3.13963 1.75941 0
M  V30 4490 C 433.915 -3.06361 3.26875 0
M  V30 4491 C 435.659 -3.91191 1.64832 0
M  V30 4492 C 433.566 -4.40782 3.94291 0
M  V30 4493 H 432.496 -0.654417 0.374505 0
M  V30 4494 H 435.147 -1.13521 1.44171 0
M  V30 4495 H 433.529 -3.75549 1.25614 0
M  V30 4496 H 434.703 -2.54074 3.84425 0
M  V30 4497 H 433.018 -2.42625 3.38411 0
M  V30 4498 H 435.615 -4.90644 2.12539 0
M  V30 4499 H 435.958 -4.11884 0.604745 0
M  V30 4500 H 436.491 -3.36236 2.12579 0
M  V30 4501 H 433.23 -4.25292 4.98805 0
M  V30 4502 H 432.75 -4.9307 3.41529 0
M  V30 4503 H 434.429 -5.09621 3.98617 0
M  V30 4504 N 434.561 -1.01147 -1.20859 0
M  V30 4505 C 435.524 -0.582224 -2.21682 0
M  V30 4506 C 436.524 0.344887 -1.57058 0
M  V30 4507 O 437.714 0.134281 -1.73682 0
M  V30 4508 C 434.846 0.150496 -3.40568 0
M  V30 4509 H 436.039 -1.47408 -2.61172 0
M  V30 4510 H 433.592 -0.800695 -1.34233 0
M  V30 4511 H 434.327 1.0575 -3.06574 0
M  V30 4512 H 434.112 -0.515444 -3.88697 0
M  V30 4513 H 435.602 0.438344 -4.15293 0
M  V30 4514 N 436.039 1.36541 -0.78704 0
M  V30 4515 C 437.288 1.98552 -0.35494 0
M  V30 4516 C 437.601 1.63171 1.07864 0
M  V30 4517 O 438.807 2.18399 1.61289 0
M  V30 4518 C 437.263 3.55136 -0.583671 0
M  V30 4519 C 436.871 3.99444 -2.02851 0
M  V30 4520 C 438.615 4.2395 -0.215957 0
M  V30 4521 C 436.522 5.48796 -2.20403 0
M  V30 4522 H 435.452 0.742888 -0.128972 0
M  V30 4523 H 438.103 1.5587 -0.968337 0
M  V30 4524 H 436.485 3.95875 0.0994046 0
M  V30 4525 H 437.659 3.6991 -2.74779 0
M  V30 4526 H 435.974 3.43459 -2.35425 0
M  V30 4527 H 438.571 5.33709 -0.325405 0
M  V30 4528 H 438.914 4.07827 0.835646 0
M  V30 4529 H 439.447 3.88565 -0.852175 0
M  V30 4530 H 436.186 5.69864 -3.23937 0
M  V30 4531 H 435.706 5.79964 -1.52977 0
M  V30 4532 H 437.385 6.14986 -2.01002 0
M  V30 4533 N 437.518 0.538854 1.48102 0
M  V30 4534 C 438.795 -0.0568108 1.95517 0
M  V30 4535 C 439.175 -1.50408 1.48124 0
M  V30 4536 O 438.523 -2.17133 0.711727 0
M  V30 4537 C 438.733 0.0696262 3.48931 0
M  V30 4538 C 440.081 -0.0851202 4.24515 0
M  V30 4539 O 441.105 -0.0037347 3.562 0
M  V30 4540 O 439.964 -0.257025 5.45895 0
M  V30 4541 H 437.058 -0.0743695 0.823649 0
M  V30 4542 H 439.604 0.604081 1.58584 0
M  V30 4543 H 438.376 1.07744 3.76174 0
M  V30 4544 H 437.999 -0.629714 3.92582 0
M  V30 4545 N 438.996 -1.55193 0.274407 0
M  V30 4546 C 439.943 -2.225 -0.613374 0
M  V30 4547 C 440.913 -1.19823 -1.15029 0
M  V30 4548 O 442.098 -1.48362 -1.19973 0
M  V30 4549 C 439.238 -2.94927 -1.79199 0
M  V30 4550 C 438.351 -4.12322 -1.28899 0
M  V30 4551 C 437.486 -4.72394 -2.42934 0
M  V30 4552 C 436.525 -5.81984 -1.89634 0
M  V30 4553 N 435.662 -6.36123 -2.9714 0
M  V30 4554 H 440.502 -2.97982 -0.032756 0
M  V30 4555 H 438.039 -1.47099 -0.00440146 0
M  V30 4556 H 439.997 -3.35134 -2.48478 0
M  V30 4557 H 438.627 -2.2187 -2.34465 0
M  V30 4558 H 437.679 -3.7724 -0.489327 0
M  V30 4559 H 438.991 -4.91355 -0.858587 0
M  V30 4560 H 438.145 -5.15317 -3.20208 0
M  V30 4561 H 436.884 -3.92636 -2.8929 0
M  V30 4562 H 435.889 -5.38511 -1.1084 0
M  V30 4563 H 437.114 -6.6361 -1.44215 0
M  V30 4564 H 435.06 -5.59259 -3.42878 0
M  V30 4565 H 434.977 -7.10427 -2.58515 0
M  V30 4566 H 436.245 -6.83704 -3.74391 0
M  V30 4567 N 440.474 -0.00167713 -1.576 0
M  V30 4568 C 441.404 0.988091 -2.11563 0
M  V30 4569 C 442.385 1.35736 -1.02517 0
M  V30 4570 O 443.57 1.44082 -1.30208 0
M  V30 4571 C 440.7 2.27941 -2.62031 0
M  V30 4572 C 439.654 2.0517 -3.75619 0
M  V30 4573 C 438.98 3.4033 -4.12407 0
M  V30 4574 C 440.28 1.41294 -5.02825 0
M  V30 4575 H 441.974 0.538771 -2.94513 0
M  V30 4576 H 439.52 0.257712 -1.41675 0
M  V30 4577 H 441.473 2.97539 -2.9841 0
M  V30 4578 H 440.197 2.74989 -1.76205 0
M  V30 4579 H 438.856 1.37998 -3.39635 0
M  V30 4580 H 438.504 3.85085 -3.23603 0
M  V30 4581 H 438.204 3.25909 -4.88935 0
M  V30 4582 H 439.728 4.1124 -4.51347 0
M  V30 4583 H 441.142 2.00851 -5.36965 0
M  V30 4584 H 439.539 1.37356 -5.84169 0
M  V30 4585 H 440.609 0.382362 -4.8339 0
M  V30 4586 N 441.952 1.55251 0.271103 0
M  V30 4587 C 443.229 1.66664 1.02384 0
M  V30 4588 C 443.609 0.534363 2.04225 0
M  V30 4589 O 442.957 -0.465337 2.23712 0
M  V30 4590 C 443.167 3.05961 1.67895 0
M  V30 4591 C 444.515 3.63772 2.18986 0
M  V30 4592 O 445.539 3.08606 1.77878 0
M  V30 4593 O 444.398 4.60429 2.94393 0
M  V30 4594 H 441.492 0.676957 0.475035 0
M  V30 4595 H 444.038 1.67589 0.26681 0
M  V30 4596 H 442.81 3.79815 0.941071 0
M  V30 4597 H 442.433 3.08943 2.5028 0
M  V30 4598 N 443.43 -0.535701 1.48216 0
M  V30 4599 C 444.707 -1.29683 1.46429 0
M  V30 4600 C 445.087 -2.10391 0.172852 0
M  V30 4601 O 444.435 -2.12282 -0.845488 0
M  V30 4602 C 444.645 -2.18313 2.72287 0
M  V30 4603 C 445.993 -2.78639 3.20383 0
M  V30 4604 O 447.017 -2.28604 2.73164 0
M  V30 4605 O 445.876 -3.69636 4.02531 0
M  V30 4606 H 442.97 -0.585026 0.584529 0
M  V30 4607 H 445.516 -0.552827 1.60443 0
M  V30 4608 H 444.288 -1.58421 3.57797 0
M  V30 4609 H 443.911 -2.99971 2.60966 0
M  V30 4610 N 444.908 -1.36708 -0.784132 0
M  V30 4611 C 445.838 -1.34153 -1.91116 0
M  V30 4612 C 446.819 -0.212121 -1.68772 0
M  V30 4613 O 448.004 -0.410581 -1.8981 0
M  V30 4614 C 445.134 -1.13535 -3.28218 0
M  V30 4615 C 444.088 -2.23356 -3.65097 0
M  V30 4616 C 443.414 -1.87875 -5.00607 0
M  V30 4617 C 444.714 -3.65473 -3.73131 0
M  V30 4618 H 446.408 -2.28459 -1.93512 0
M  V30 4619 H 443.954 -1.09973 -0.929618 0
M  V30 4620 H 445.907 -1.10381 -4.06687 0
M  V30 4621 H 444.631 -0.156804 -3.26223 0
M  V30 4622 H 443.29 -2.25645 -2.88929 0
M  V30 4623 H 442.938 -0.885814 -4.95139 0
M  V30 4624 H 442.638 -2.61406 -5.26252 0
M  V30 4625 H 444.162 -1.86286 -5.81489 0
M  V30 4626 H 445.576 -3.65382 -4.41779 0
M  V30 4627 H 443.973 -4.37953 -4.10265 0
M  V30 4628 H 445.043 -3.99995 -2.74102 0
M  V30 4629 N 446.386 1.0089 -1.21074 0
M  V30 4630 C 447.633 1.74607 -1.0256 0
M  V30 4631 C 447.961 1.89426 0.44136 0
M  V30 4632 O 447.216 1.42266 1.34384 0
M  V30 4633 C 447.515 3.16335 -1.66334 0
M  V30 4634 C 447.181 3.21474 -3.16173 0
M  V30 4635 C 445.843 3.22583 -3.57062 0
M  V30 4636 C 448.195 3.19025 -4.12156 0
M  V30 4637 C 445.523 3.18925 -4.92446 0
M  V30 4638 C 447.875 3.16909 -5.47496 0
M  V30 4639 C 446.539 3.16326 -5.87787 0
M  V30 4640 H 445.809 0.638933 -0.375294 0
M  V30 4641 H 448.456 1.18274 -1.50611 0
M  V30 4642 H 446.761 3.75876 -1.10566 0
M  V30 4643 H 448.458 3.72083 -1.49516 0
M  V30 4644 H 445.048 3.2135 -2.83605 0
M  V30 4645 H 449.232 3.17332 -3.81595 0
M  V30 4646 H 444.488 3.16809 -5.22917 0
M  V30 4647 H 448.662 3.13968 -6.21609 0
M  V30 4648 H 446.289 3.13246 -6.92662 0
M  V30 4649 N 447.864 1.01787 1.20321 0
M  V30 4650 C 448.774 0.598898 2.26827 0
M  V30 4651 C 449.79 -0.36418 1.70146 0
M  V30 4652 O 450.966 -0.224812 2.00141 0
M  V30 4653 C 448.031 -0.0549769 3.46656 0
M  V30 4654 C 447.092 0.954205 4.18561 0
M  V30 4655 C 446.325 0.331439 5.3267 0
M  V30 4656 O 446.548 -0.86851 5.63749 0
M  V30 4657 O 445.482 1.0488 5.92692 0
M  V30 4658 H 449.308 1.48562 2.64883 0
M  V30 4659 H 446.893 0.787434 1.26964 0
M  V30 4660 H 448.775 -0.420102 4.19301 0
M  V30 4661 H 447.45 -0.915876 3.10473 0
M  V30 4662 H 446.357 1.37072 3.48083 0
M  V30 4663 H 447.69 1.78511 4.58688 0
M  V30 4664 N 449.342 -1.36122 0.79427 0
M  V30 4665 C 450.619 -1.93398 0.292685 0
M  V30 4666 C 450.999 -1.72567 -1.21589 0
M  V30 4667 O 450.347 -1.08745 -2.00965 0
M  V30 4668 C 450.557 -3.42099 0.690614 0
M  V30 4669 C 451.905 -4.19231 0.673105 0
M  V30 4670 O 452.929 -3.50559 0.631389 0
M  V30 4671 O 451.788 -5.41732 0.720362 0
M  V30 4672 H 448.882 -0.823712 0.0736693 0
M  V30 4673 H 451.428 -1.45273 0.87714 0
M  V30 4674 H 450.2 -3.50938 1.73085 0
M  V30 4675 H 449.823 -3.97519 0.0803036 0
M  V30 4676 N 450.82 -0.546701 -1.47814 0
M  V30 4677 C 451.767 0.206854 -2.29871 0
M  V30 4678 C 452.737 0.918235 -1.38411 0
M  V30 4679 O 453.922 0.915991 -1.67375 0
M  V30 4680 C 451.062 1.23746 -3.22151 0
M  V30 4681 C 450.175 0.533216 -4.28697 0
M  V30 4682 C 449.31 1.5482 -5.08138 0
M  V30 4683 C 448.349 0.828347 -6.06469 0
M  V30 4684 N 447.486 1.78966 -6.78908 0
M  V30 4685 H 452.326 -0.499037 -2.93792 0
M  V30 4686 H 449.863 -0.25793 -1.44821 0
M  V30 4687 H 451.821 1.84746 -3.74065 0
M  V30 4688 H 450.451 1.91151 -2.60117 0
M  V30 4689 H 449.503 -0.191089 -3.7992 0
M  V30 4690 H 450.815 -0.0311987 -4.9879 0
M  V30 4691 H 449.969 2.23202 -5.6415 0
M  V30 4692 H 448.708 2.14652 -4.37922 0
M  V30 4693 H 447.713 0.130539 -5.49645 0
M  V30 4694 H 448.938 0.235907 -6.7869 0
M  V30 4695 H 446.884 2.37675 -6.1143 0
M  V30 4696 H 446.801 1.27712 -7.45135 0
M  V30 4697 H 448.069 2.46496 -7.395 0
M  V30 4698 N 452.299 1.55045 -0.282633 0
M  V30 4699 C 453.548 1.98938 0.332667 0
M  V30 4700 C 453.861 1.17455 1.56409 0
M  V30 4701 O 455.067 1.51527 2.25282 0
M  V30 4702 C 453.523 3.54105 0.643226 0
M  V30 4703 C 453.131 4.44374 -0.568814 0
M  V30 4704 C 454.875 4.06569 1.22074 0
M  V30 4705 C 452.782 5.90943 -0.232426 0
M  V30 4706 H 451.712 0.743043 0.128075 0
M  V30 4707 H 454.363 1.79341 -0.388464 0
M  V30 4708 H 452.745 3.69532 1.42346 0
M  V30 4709 H 453.919 4.40718 -1.34551 0
M  V30 4710 H 452.234 4.02585 -1.06369 0
M  V30 4711 H 454.831 5.13626 1.48635 0
M  V30 4712 H 455.174 3.56057 2.15707 0
M  V30 4713 H 455.707 3.94612 0.502621 0
M  V30 4714 H 452.446 6.45567 -1.13683 0
M  V30 4715 H 451.966 5.9765 0.507357 0
M  V30 4716 H 453.645 6.4677 0.172657 0
M  V30 4717 N 453.777 0.010035 1.57597 0
M  V30 4718 C 454.687 -0.994226 2.12491 0
M  V30 4719 C 455.703 -1.37013 1.07254 0
M  V30 4720 O 456.879 -1.45542 1.3921 0
M  V30 4721 C 453.944 -2.2642 2.62555 0
M  V30 4722 C 453.005 -1.95049 3.82432 0
M  V30 4723 C 452.238 -3.15991 4.30099 0
M  V30 4724 O 452.461 -4.28015 3.7704 0
M  V30 4725 O 451.395 -2.99403 5.22151 0
M  V30 4726 H 455.221 -0.557549 2.98538 0
M  V30 4727 H 452.806 -0.209413 1.47925 0
M  V30 4728 H 454.688 -3.01009 2.9491 0
M  V30 4729 H 453.363 -2.69306 1.796 0
M  V30 4730 H 452.27 -1.17904 3.55034 0
M  V30 4731 H 453.603 -1.56992 4.66491 0
M  V30 4732 N 455.255 -1.55392 -0.262866 0
M  V30 4733 C 456.185 -1.91978 -1.32917 0
M  V30 4734 C 457.166 -0.7828 -1.51017 0
M  V30 4735 O 458.351 -1.04178 -1.63892 0
M  V30 4736 C 455.481 -2.20055 -2.68687 0
M  V30 4737 C 454.435 -3.35854 -2.65304 0
M  V30 4738 C 453.761 -3.49435 -4.04721 0
M  V30 4739 C 455.061 -4.71977 -2.23685 0
M  V30 4740 H 456.755 -2.81292 -1.02544 0
M  V30 4741 H 454.301 -1.3534 -0.491846 0
M  V30 4742 H 456.254 -2.44237 -3.43404 0
M  V30 4743 H 454.978 -1.27551 -3.00663 0
M  V30 4744 H 453.637 -3.11655 -1.93045 0
M  V30 4745 H 453.285 -2.54379 -4.33936 0
M  V30 4746 H 452.985 -4.27297 -4.0335 0
M  V30 4747 H 454.509 -3.7592 -4.81161 0
M  V30 4748 H 455.923 -4.95637 -2.88127 0
M  V30 4749 H 454.32 -5.52828 -2.33456 0
M  V30 4750 H 455.39 -4.70115 -1.18827 0
M  V30 4751 N 456.733 0.527833 -1.48498 0
M  V30 4752 C 458.149 0.856571 -1.34666 0
M  V30 4753 C 458.349 1.98271 -0.35931 0
M  V30 4754 O 457.405 2.51551 0.218703 0
M  V30 4755 C 458.718 1.22207 -2.74747 0
M  V30 4756 C 460.266 1.33183 -2.83251 0
M  V30 4757 C 460.741 1.73075 -4.24039 0
M  V30 4758 N 462.232 1.80174 -4.26722 0
M  V30 4759 C 462.967 2.1243 -5.32598 0
M  V30 4760 N 462.463 2.43096 -6.4875 0
M  V30 4761 N 464.256 2.13454 -5.19994 0
M  V30 4762 H 456.407 -0.215174 -2.11307 0
M  V30 4763 H 458.67 -0.0336281 -0.947403 0
M  V30 4764 H 458.376 0.468195 -3.4857 0
M  V30 4765 H 458.25 2.17173 -3.08409 0
M  V30 4766 H 460.637 2.07647 -2.09683 0
M  V30 4767 H 460.718 0.363333 -2.53206 0
M  V30 4768 H 460.362 0.991712 -4.98124 0
M  V30 4769 H 460.292 2.70979 -4.51529 0
M  V30 4770 H 462.783 1.58744 -3.42942 0
M  V30 4771 H 463.096 2.6682 -7.25277 0
M  V30 4772 H 461.441 2.40611 -6.52021 0
M  V30 4773 H 464.632 1.88956 -4.28268 0
M  V30 4774 H 464.805 2.38261 -6.02608 0
M  V30 4775 N 458.211 1.37122 0.776871 0
M  V30 4776 C 459.488 1.22586 1.52421 0
M  V30 4777 C 459.868 -0.182726 2.10308 0
M  V30 4778 O 459.216 -1.18979 1.9508 0
M  V30 4779 C 459.426 2.31782 2.60918 0
M  V30 4780 C 460.774 2.69071 3.2846 0
M  V30 4781 O 461.798 2.3092 2.71209 0
M  V30 4782 O 460.657 3.3478 4.31954 0
M  V30 4783 H 457.751 0.478045 0.674835 0
M  V30 4784 H 460.297 1.48888 0.814275 0
M  V30 4785 H 459.069 3.26131 2.16227 0
M  V30 4786 H 458.692 2.06916 3.39517 0
M  V30 4787 N 459.689 -1.00246 1.21608 0
M  V30 4788 C 460.917 -1.77631 1.06089 0
M  V30 4789 C 461.332 -1.84746 -0.38916 0
M  V30 4790 O 460.689 -1.31068 -1.26994 0
M  V30 4791 C 460.74 -3.21415 1.65453 0
M  V30 4792 O 460.461 -3.14703 3.04785 0
M  V30 4793 C 461.962 -4.15289 1.55079 0
M  V30 4794 H 459.182 -0.558162 0.37242 0
M  V30 4795 H 461.726 -1.26093 1.60999 0
M  V30 4796 H 459.881 -3.70053 1.14629 0
M  V30 4797 H 460.295 -4.05056 3.33212 0
M  V30 4798 H 461.769 -5.13965 2.01355 0
M  V30 4799 H 462.246 -4.36279 0.505665 0
M  V30 4800 H 462.852 -3.72543 2.05163 0
M  V30 4801 N 461.167 -1.02423 -1.1978 0
M  V30 4802 C 462.416 -0.713265 -1.88667 0
M  V30 4803 C 462.729 0.7609 -1.80193 0
M  V30 4804 O 463.935 1.18473 -2.44288 0
M  V30 4805 C 462.391 -1.22545 -3.38394 0
M  V30 4806 C 461.999 -2.72706 -3.55437 0
M  V30 4807 C 463.743 -0.990257 -4.12788 0
M  V30 4808 C 461.65 -3.17367 -4.99031 0
M  V30 4809 H 460.58 -0.263105 -0.706606 0
M  V30 4810 H 463.231 -1.23792 -1.35454 0
M  V30 4811 H 461.613 -0.628732 -3.90977 0
M  V30 4812 H 462.787 -3.37993 -3.13205 0
M  V30 4813 H 461.102 -2.94453 -2.94425 0
M  V30 4814 H 463.699 -1.29926 -5.18675 0
M  V30 4815 H 464.042 0.0730761 -4.16236 0
M  V30 4816 H 464.575 -1.55074 -3.66329 0
M  V30 4817 H 461.314 -4.23009 -5.00743 0
M  V30 4818 H 460.834 -2.56805 -5.42044 0
M  V30 4819 H 462.513 -3.10441 -5.67658 0
M  V30 4820 N 462.645 1.35699 -0.801477 0
M  V30 4821 C 463.891 1.99208 -0.380022 0
M  V30 4822 C 464.224 1.63445 1.04878 0
M  V30 4823 O 463.499 0.895223 1.72673 0
M  V30 4824 C 463.782 3.55755 -0.557708 0
M  V30 4825 C 463.635 4.01332 -2.03107 0
M  V30 4826 C 464.954 4.40096 0.0197968 0
M  V30 4827 H 462.073 0.723667 -0.139552 0
M  V30 4828 H 464.715 1.60928 -1.01006 0
M  V30 4829 H 462.865 3.88494 -0.0213741 0
M  V30 4830 H 464.537 3.79026 -2.62939 0
M  V30 4831 H 462.78 3.52429 -2.52936 0
M  V30 4832 H 463.451 5.10234 -2.1063 0
M  V30 4833 H 465.927 4.13786 -0.438179 0
M  V30 4834 H 464.803 5.48735 -0.134477 0
M  V30 4835 H 465.064 4.2786 1.11303 0
M  V30 4836 N 464.123 0.554532 1.47522 0
M  V30 4837 C 465.086 -0.184174 2.28459 0
M  V30 4838 C 466.086 -0.845195 1.36796 0
M  V30 4839 O 467.276 -0.701467 1.59452 0
M  V30 4840 C 464.408 -1.26903 3.16399 0
M  V30 4841 H 465.601 0.526751 2.95238 0
M  V30 4842 H 463.154 0.311375 1.53167 0
M  V30 4843 H 463.889 -2.01244 2.54306 0
M  V30 4844 H 463.674 -0.799883 3.83854 0
M  V30 4845 H 465.164 -1.78794 3.77389 0
M  V30 4846 N 465.601 -1.54893 0.290851 0
M  V30 4847 C 466.511 -2.26812 -0.59945 0
M  V30 4848 C 467.527 -1.29963 -1.15696 0
M  V30 4849 O 468.703 -1.62928 -1.18391 0
M  V30 4850 C 465.768 -2.98716 -1.75982 0
M  V30 4851 C 464.829 -4.1108 -1.2374 0
M  V30 4852 C 464.062 -4.79546 -2.34246 0
M  V30 4853 O 464.285 -4.47309 -3.53936 0
M  V30 4854 O 463.219 -5.67165 -2.01512 0
M  V30 4855 H 467.045 -3.03696 -0.0163561 0
M  V30 4856 H 464.63 -1.49289 0.0576755 0
M  V30 4857 H 466.512 -3.43851 -2.43607 0
M  V30 4858 H 465.187 -2.24737 -2.3297 0
M  V30 4859 H 464.094 -3.70367 -0.527163 0
M  V30 4860 H 465.427 -4.87007 -0.71307 0
M  V30 4861 N 467.08 -0.0183926 -1.57589 0
M  V30 4862 C 468.491 0.521927 -1.79256 0
M  V30 4863 C 468.842 1.72885 -0.927636 0
M  V30 4864 O 467.967 2.15978 -0.135091 0
M  V30 4865 C 468.562 0.953632 -3.25102 0
M  V30 4866 C 467.121 1.43913 -3.47801 0
M  V30 4867 C 466.268 0.398837 -2.74417 0
M  V30 4868 H 469.219 -0.244485 -1.56805 0
M  V30 4869 H 469.24 1.81863 -3.34224 0
M  V30 4870 H 468.752 0.0750123 -3.88028 0
M  V30 4871 H 466.853 2.33804 -2.90115 0
M  V30 4872 H 466.966 1.45391 -4.56507 0
M  V30 4873 H 465.33 0.864572 -2.39577 0
M  V30 4874 H 466.113 -0.471132 -3.40052 0
M  V30 4875 N 468.558 1.5553 0.254621 0
M  V30 4876 C 469.468 1.92789 1.33677 0
M  V30 4877 C 470.484 0.827356 1.53071 0
M  V30 4878 O 471.66 1.12807 1.66843 0
M  V30 4879 C 468.725 2.20827 2.67275 0
M  V30 4880 C 467.786 3.4427 2.5647 0
M  V30 4881 C 467.019 3.70961 3.83697 0
M  V30 4882 O 467.242 2.99852 4.85227 0
M  V30 4883 O 466.176 4.64491 3.82794 0
M  V30 4884 H 470.002 2.84945 1.05071 0
M  V30 4885 H 467.587 1.42312 0.454723 0
M  V30 4886 H 469.469 2.40204 3.46237 0
M  V30 4887 H 468.144 1.31851 2.9563 0
M  V30 4888 H 467.051 3.30209 1.75821 0
M  V30 4889 H 468.384 4.33524 2.33062 0
M  V30 4890 N 470.036 -0.519951 1.48776 0
M  V30 4891 C 470.966 -1.63253 1.66945 0
M  V30 4892 C 471.947 -1.62014 0.518224 0
M  V30 4893 O 473.132 -1.79053 0.751919 0
M  V30 4894 C 470.262 -3.0181 1.71836 0
M  V30 4895 C 469.216 -3.17911 2.8656 0
M  V30 4896 C 468.542 -4.5763 2.76548 0
M  V30 4897 C 469.842 -2.99729 4.27738 0
M  V30 4898 H 471.536 -1.48302 2.6009 0
M  V30 4899 H 469.082 -0.712026 1.25165 0
M  V30 4900 H 471.035 -3.79525 1.83135 0
M  V30 4901 H 469.759 -3.17806 0.752775 0
M  V30 4902 H 468.418 -2.42616 2.74833 0
M  V30 4903 H 468.066 -4.70476 1.77937 0
M  V30 4904 H 467.766 -4.69346 3.53536 0
M  V30 4905 H 469.29 -5.37431 2.89828 0
M  V30 4906 H 470.704 -3.67228 4.40246 0
M  V30 4907 H 469.101 -3.22932 5.05801 0
M  V30 4908 H 470.171 -1.96047 4.43502 0
M  V30 4909 N 471.514 -1.37532 -0.769588 0
M  V30 4910 C 472.762 -1.32597 -1.5252 0
M  V30 4911 C 473.083 0.0884294 -1.94799 0
M  V30 4912 O 472.353 1.03289 -1.66458 0
M  V30 4913 H 470.933 -0.487846 -0.565699 0
M  V30 4914 H 473.595 -1.72044 -0.915806 0
M  V30 4915 H 472.691 -1.96643 -2.42359 0
M  V30 4916 N 472.992 0.995999 -1.22138 0
M  V30 4917 C 473.922 2.10387 -1.01289 0
M  V30 4918 C 474.903 1.69975 0.0651454 0
M  V30 4919 O 476.088 1.9396 -0.0964628 0
M  V30 4920 C 473.218 3.42312 -0.586517 0
M  V30 4921 C 472.172 3.96558 -1.61014 0
M  V30 4922 C 471.498 5.24494 -1.0397 0
M  V30 4923 C 472.798 4.27595 -2.99933 0
M  V30 4924 H 474.492 2.28086 -1.93951 0
M  V30 4925 H 472.038 1.09607 -0.933928 0
M  V30 4926 H 473.991 4.19223 -0.427793 0
M  V30 4927 H 472.715 3.24431 0.375761 0
M  V30 4928 H 471.374 3.21776 -1.75658 0
M  V30 4929 H 471.022 5.02953 -0.0688703 0
M  V30 4930 H 470.722 5.61755 -1.72352 0
M  V30 4931 H 472.246 6.04042 -0.892494 0
M  V30 4932 H 473.66 4.95315 -2.8868 0
M  V30 4933 H 472.057 4.76021 -3.6541 0
M  V30 4934 H 473.127 3.35498 -3.50099 0
M  V30 4935 N 474.47 1.03057 1.19235 0
M  V30 4936 C 475.718 0.726581 1.88587 0
M  V30 4937 C 476.039 -0.747227 1.80115 0
M  V30 4938 O 475.309 -1.53849 1.21274 0
M  V30 4939 H 473.889 0.265768 0.698124 0
M  V30 4940 H 476.551 1.30516 1.44746 0
M  V30 4941 H 475.647 1.0224 2.94879 0
M  V30 4942 N 475.948 -1.35272 0.808662 0
M  V30 4943 C 477.359 -1.81179 0.450688 0
M  V30 4944 C 477.71 -1.67143 -1.02751 0
M  V30 4945 O 476.835 -1.20325 -1.79864 0
M  V30 4946 C 477.43 -3.28943 0.811275 0
M  V30 4947 C 475.989 -3.72985 0.505871 0
M  V30 4948 C 475.136 -2.57229 1.03578 0
M  V30 4949 H 478.087 -1.2322 1.00012 0
M  V30 4950 H 478.108 -3.80342 0.109588 0
M  V30 4951 H 477.62 -3.39127 1.88718 0
M  V30 4952 H 475.721 -3.68349 -0.561209 0
M  V30 4953 H 475.834 -4.67677 1.03995 0
M  V30 4954 H 474.198 -2.50548 0.458005 0
M  V30 4955 H 474.981 -2.7019 2.11784 0
M  V30 4956 N 477.426 -0.562348 -1.47226 0
M  V30 4957 C 478.356 0.170627 -2.32876 0
M  V30 4958 C 479.337 0.903748 -1.44106 0
M  V30 4959 O 480.522 0.883206 -1.72954 0
M  V30 4960 C 477.652 1.19786 -3.25989 0
M  V30 4961 C 476.606 0.580875 -4.2404 0
M  V30 4962 C 475.932 1.71311 -5.06514 0
M  V30 4963 C 477.232 -0.468714 -5.20193 0
M  V30 4964 H 478.926 -0.544441 -2.94408 0
M  V30 4965 H 476.472 -0.263271 -1.41573 0
M  V30 4966 H 478.425 1.71884 -3.84752 0
M  V30 4967 H 477.149 1.94294 -2.62521 0
M  V30 4968 H 475.808 0.0811538 -3.6651 0
M  V30 4969 H 475.456 2.44736 -4.39447 0
M  V30 4970 H 475.156 1.30604 -5.72902 0
M  V30 4971 H 476.68 2.23725 -5.68137 0
M  V30 4972 H 478.094 -0.0336028 -5.7329 0
M  V30 4973 H 476.491 -0.794957 -5.94811 0
M  V30 4974 H 477.561 -1.36269 -4.65359 0
M  V30 4975 N 478.904 1.54736 -0.299062 0
M  V30 4976 C 479.854 2.20155 0.592932 0
M  V30 4977 C 480.838 1.1739 1.10038 0
M  V30 4978 O 482.03 1.43116 1.04147 0
M  V30 4979 C 479.159 2.94437 1.76527 0
M  V30 4980 C 478.245 4.04516 1.27388 0
M  V30 4981 N 478.636 5.03319 0.500339 0
M  V30 4982 C 476.934 4.18022 1.55478 0
M  V30 4983 C 477.635 5.81209 0.238909 0
M  V30 4984 N 476.611 5.37408 0.818163 0
M  V30 4985 H 480.413 2.93899 -0.00563596 0
M  V30 4986 H 477.927 1.62068 -0.103732 0
M  V30 4987 H 479.924 3.3977 2.41582 0
M  V30 4988 H 478.584 2.22209 2.36756 0
M  V30 4989 H 479.595 5.17696 0.145419 0
M  V30 4990 H 476.272 3.56998 2.16469 0
M  V30 4991 H 477.662 6.70812 -0.382223 0
M  V30 4992 N 480.382 0.0267497 1.57577 0
M  V30 4993 C 481.61 -0.662661 1.96001 0
M  V30 4994 C 482.025 -1.65799 0.903117 0
M  V30 4995 O 481.382 -1.82135 -0.115317 0
M  V30 4996 C 481.433 -1.37112 3.34488 0
M  V30 4997 O 481.154 -0.415683 4.36123 0
M  V30 4998 C 482.655 -2.15257 3.8753 0
M  V30 4999 H 479.875 -0.18287 0.6456 0
M  V30 5000 H 482.419 0.0858116 2.0432 0
M  V30 5001 H 480.574 -2.07101 3.27395 0
M  V30 5002 H 480.988 -0.918496 5.16395 0
M  V30 5003 H 482.462 -2.60285 4.86781 0
M  V30 5004 H 482.939 -2.99063 3.21649 0
M  V30 5005 H 483.545 -1.50231 3.97883 0
M  V30 5006 N 481.861 -1.55662 -0.24637 0
M  V30 5007 C 483.089 -1.81575 -0.991876 0
M  V30 5008 C 483.504 -0.602545 -1.78927 0
M  V30 5009 O 482.861 0.428795 -1.77391 0
M  V30 5010 C 482.912 -3.05711 -1.92933 0
M  V30 5011 O 482.633 -4.22348 -1.1642 0
M  V30 5012 C 484.134 -3.44428 -2.79078 0
M  V30 5013 H 481.354 -0.604209 -0.291844 0
M  V30 5014 H 483.898 -2.02722 -0.269095 0
M  V30 5015 H 482.053 -2.86612 -2.60638 0
M  V30 5016 H 482.467 -4.92706 -1.79835 0
M  V30 5017 H 483.941 -4.34388 -3.40603 0
M  V30 5018 H 484.418 -2.65037 -3.50217 0
M  V30 5019 H 485.024 -3.65879 -2.16824 0
M  V30 5020 N 483.339 0.512053 -1.4905 0
M  V30 5021 C 484.586 1.26686 -1.57978 0
M  V30 5022 C 484.914 1.92733 -0.261553 0
M  V30 5023 O 484.169 1.80772 0.749667 0
M  V30 5024 C 484.468 2.36446 -2.68008 0
M  V30 5025 C 484.134 1.87932 -4.09869 0
M  V30 5026 C 482.796 1.74419 -4.48477 0
M  V30 5027 C 485.148 1.5149 -4.98698 0
M  V30 5028 C 482.476 1.22827 -5.73699 0
M  V30 5029 C 484.828 1.01355 -6.24428 0
M  V30 5030 C 483.492 0.864735 -6.61875 0
M  V30 5031 H 482.762 0.463577 -0.578081 0
M  V30 5032 H 485.409 0.569421 -1.82838 0
M  V30 5033 H 483.714 3.11933 -2.37076 0
M  V30 5034 H 485.411 2.9453 -2.72127 0
M  V30 5035 H 482.001 1.99405 -3.79389 0
M  V30 5036 H 486.185 1.60782 -4.69535 0
M  V30 5037 H 481.441 1.10008 -6.01422 0
M  V30 5038 H 485.615 0.722351 -6.92644 0
M  V30 5039 H 483.242 0.462777 -7.5879 0
M  V30 5040 N 484.817 1.37938 0.762283 0
M  V30 5041 C 486.094 1.24196 1.51112 0
M  V30 5042 C 486.474 -0.160409 2.1049 0
M  V30 5043 O 485.822 -1.16904 1.96331 0
M  V30 5044 C 486.032 2.34537 2.58445 0
M  V30 5045 C 487.38 2.7254 3.25588 0
M  V30 5046 O 488.404 2.33783 2.68745 0
M  V30 5047 O 487.263 3.39343 4.28379 0
M  V30 5048 H 484.357 0.485175 0.669727 0
M  V30 5049 H 486.903 1.49743 0.798438 0
M  V30 5050 H 485.675 3.28406 2.12756 0
M  V30 5051 H 485.298 2.10505 3.37303 0
M  V30 5052 N 486.295 -0.989507 1.22664 0
M  V30 5053 C 487.543 -1.72612 1.05117 0
M  V30 5054 C 487.864 -1.90552 -0.414131 0
M  V30 5055 O 487.134 -1.4676 -1.29762 0
M  V30 5056 H 485.714 -0.639555 0.385977 0
M  V30 5057 H 488.376 -1.19158 1.54232 0
M  V30 5058 H 487.472 -2.71926 1.53175 0
M  V30 5059 N 487.773 -1.03688 -1.18687 0
M  V30 5060 C 489.189 -0.755413 -1.4059 0
M  V30 5061 C 489.389 0.656659 -1.905 0
M  V30 5062 O 488.445 1.42144 -2.08689 0
M  V30 5063 C 489.758 -1.7983 -2.41001 0
M  V30 5064 C 491.306 -1.81877 -2.54735 0
M  V30 5065 C 491.781 -2.85148 -3.58406 0
M  V30 5066 N 493.272 -2.84015 -3.6591 0
M  V30 5067 C 494.007 -3.60573 -4.45841 0
M  V30 5068 N 493.503 -4.46871 -5.29413 0
M  V30 5069 N 495.296 -3.49079 -4.40568 0
M  V30 5070 H 487.447 -1.94818 -0.846148 0
M  V30 5071 H 489.71 -0.842727 -0.434184 0
M  V30 5072 H 489.416 -2.81097 -2.1137 0
M  V30 5073 H 489.29 -1.62727 -3.40294 0
M  V30 5074 H 491.677 -0.812836 -2.83685 0
M  V30 5075 H 491.758 -2.03057 -1.55568 0
M  V30 5076 H 491.402 -3.85918 -3.30197 0
M  V30 5077 H 491.332 -2.61224 -4.57241 0
M  V30 5078 H 493.823 -2.21431 -3.0623 0
M  V30 5079 H 494.136 -5.02007 -5.87545 0
M  V30 5080 H 492.481 -4.5094 -5.28846 0
M  V30 5081 H 495.672 -2.81066 -3.74325 0
M  V30 5082 H 495.845 -4.08994 -5.02621 0
M  V30 5083 N 489.251 1.34841 -0.815825 0
M  V30 5084 C 490.499 1.98107 -0.399744 0
M  V30 5085 C 490.82 1.65019 1.03894 0
M  V30 5086 O 490.09 0.937311 1.72021 0
M  V30 5087 H 488.67 0.732827 -0.144823 0
M  V30 5088 H 491.332 1.64599 -1.0437 0
M  V30 5089 H 490.428 3.07856 -0.512965 0
M  V30 5090 N 490.729 0.570148 1.46925 0
M  V30 5091 C 491.677 -0.183181 2.31878 0
M  V30 5092 C 492.671 -0.896721 1.43719 0
M  V30 5093 O 493.877 -0.816536 1.60414 0
M  V30 5094 H 490.252 -0.077944 0.74795 0
M  V30 5095 H 492.223 0.552312 2.93244 0
M  V30 5096 C 490.972 -1.19172 3.2664 0
M  V30 5097 H 490.295 -0.652088 3.94446 0
M  V30 5098 H 491.735 -1.68946 3.88887 0
M  V30 5099 C 490.194 -2.24627 2.51086 0
M  V30 5100 O 490.724 -3.31773 2.26472 0
M  V30 5101 N 488.93 -1.98898 2.11867 0
M  V30 5102 H 488.477 -1.11777 2.32086 0
M  V30 5103 H 488.435 -2.6967 1.61634 0
M  V30 5104 N 492.207 -1.54576 0.307264 0
M  V30 5105 C 493.17 -2.22423 -0.553224 0
M  V30 5106 C 494.17 -1.21231 -1.05639 0
M  V30 5107 O 495.36 -1.45923 -0.951419 0
M  V30 5108 C 492.492 -2.91552 -1.76664 0
M  V30 5109 H 493.685 -2.99874 0.0396484 0
M  V30 5110 H 491.238 -1.56192 0.0581629 0
M  V30 5111 H 491.973 -2.18196 -2.39918 0
M  V30 5112 H 491.758 -3.65738 -1.41343 0
M  V30 5113 H 493.248 -3.43292 -2.37783 0
M  V30 5114 N 493.685 -0.035106 -1.57561 0
M  V30 5115 C 494.915 0.651312 -1.96065 0
M  V30 5116 C 495.323 1.6585 -0.910514 0
M  V30 5117 O 494.666 1.83336 0.11552 0
M  V30 5118 C 494.728 1.40897 -3.30739 0
M  V30 5119 C 494.392 0.559436 -4.53563 0
M  V30 5120 C 495.389 -0.16778 -5.19629 0
M  V30 5121 C 493.074 0.495079 -4.99854 0
M  V30 5122 C 495.068 -0.947963 -6.30311 0
M  V30 5123 C 492.755 -0.288804 -6.10417 0
M  V30 5124 C 493.753 -1.00903 -6.75505 0
M  V30 5125 O 493.441 -1.78005 -7.83945 0
M  V30 5126 H 493.173 0.184036 -0.650467 0
M  V30 5127 H 495.727 -0.0929677 -2.05189 0
M  V30 5128 H 493.957 2.19852 -3.18123 0
M  V30 5129 H 495.646 1.98407 -3.54104 0
M  V30 5130 H 496.412 -0.12743 -4.84833 0
M  V30 5131 H 492.291 1.04524 -4.48994 0
M  V30 5132 H 495.835 -1.51064 -6.81047 0
M  V30 5133 H 491.732 -0.33085 -6.44652 0
M  V30 5134 H 492.5 -1.70046 -8.00641 0
M  V30 5135 N 495.163 1.55791 0.238111 0
M  V30 5136 C 496.391 1.82098 0.982233 0
M  V30 5137 C 496.806 0.612025 1.78605 0
M  V30 5138 O 496.163 -0.419381 1.77616 0
M  V30 5139 C 496.214 3.0673 1.91309 0
M  V30 5140 O 495.935 4.2296 1.14179 0
M  V30 5141 C 497.436 3.45903 2.77248 0
M  V30 5142 H 494.656 0.605748 0.288635 0
M  V30 5143 H 497.2 2.02862 0.258341 0
M  V30 5144 H 495.355 2.87991 2.59114 0
M  V30 5145 H 495.769 4.93653 1.7722 0
M  V30 5146 H 497.243 4.36189 3.38295 0
M  V30 5147 H 497.72 2.66891 3.48806 0
M  V30 5148 H 498.326 3.67024 2.14881 0
M  V30 5149 N 496.642 -0.504142 1.49319 0
M  V30 5150 C 497.87 -1.28256 1.62351 0
M  V30 5151 C 498.285 -1.86502 0.293682 0
M  V30 5152 O 497.642 -1.67678 -0.720449 0
M  V30 5153 C 497.693 -2.41507 2.68992 0
M  V30 5154 O 497.414 -1.85656 3.96817 0
M  V30 5155 C 498.915 -3.32929 2.927 0
M  V30 5156 H 496.135 -0.389115 0.546654 0
M  V30 5157 H 498.679 -0.605531 1.95329 0
M  V30 5158 H 496.834 -3.05046 2.38801 0
M  V30 5159 H 497.248 -2.59981 4.55533 0
M  V30 5160 H 498.722 -4.0868 3.71058 0
M  V30 5161 H 499.199 -3.89733 2.02496 0
M  V30 5162 H 499.805 -2.75158 3.24296 0
M  V30 5163 N 498.12 -1.38341 -0.754957 0
M  V30 5164 C 499.05 -1.38176 -1.88227 0
M  V30 5165 C 500.031 -0.247873 -1.68284 0
M  V30 5166 O 501.216 -0.45075 -1.88896 0
M  V30 5167 C 498.346 -1.20471 -3.25736 0
M  V30 5168 C 497.3 -2.3105 -3.60278 0
M  V30 5169 C 496.626 -1.98452 -4.96509 0
M  V30 5170 C 497.926 -3.73305 -3.65295 0
M  V30 5171 H 499.62 -2.32512 -1.88622 0
M  V30 5172 H 497.166 -1.1192 -0.906082 0
M  V30 5173 H 499.119 -1.18982 -4.04254 0
M  V30 5174 H 497.843 -0.225965 -3.25817 0
M  V30 5175 H 496.502 -2.31723 -2.84078 0
M  V30 5176 H 496.15 -0.990641 -4.93148 0
M  V30 5177 H 495.85 -2.7251 -5.20588 0
M  V30 5178 H 497.374 -1.98578 -5.77407 0
M  V30 5179 H 498.788 -3.7467 -4.3393 0
M  V30 5180 H 497.185 -4.46557 -4.00883 0
M  V30 5181 H 498.255 -4.05719 -2.65556 0
M  V30 5182 N 499.598 0.982988 -1.23187 0
M  V30 5183 C 500.845 1.72392 -1.06241 0
M  V30 5184 C 501.173 1.9032 0.40108 0
M  V30 5185 O 500.428 1.45084 1.31336 0
M  V30 5186 C 500.727 3.12736 -1.73006 0
M  V30 5187 C 500.393 3.14695 -3.22921 0
M  V30 5188 C 499.055 3.14937 -3.63824 0
M  V30 5189 C 501.407 3.10211 -4.1883 0
M  V30 5190 C 498.735 3.08408 -4.99101 0
M  V30 5191 C 501.087 3.05224 -5.54095 0
M  V30 5192 C 499.751 3.03787 -5.94365 0
M  V30 5193 H 499.021 0.630829 -0.388762 0
M  V30 5194 H 501.668 1.15053 -1.53085 0
M  V30 5195 H 499.973 3.73446 -1.18514 0
M  V30 5196 H 501.67 3.68828 -1.57374 0
M  V30 5197 H 498.26 3.15262 -2.90358 0
M  V30 5198 H 502.444 3.09166 -3.8824 0
M  V30 5199 H 497.7 3.05646 -5.29519 0
M  V30 5200 H 501.874 3.00712 -6.28128 0
M  V30 5201 H 499.501 2.98483 -6.99151 0
M  V30 5202 N 501.076 1.04316 1.18135 0
M  V30 5203 C 502.325 0.74319 1.87509 0
M  V30 5204 C 502.638 -0.732136 1.81381 0
M  V30 5205 O 503.844 -1.14572 2.46141 0
M  V30 5206 C 502.3 1.27913 3.36402 0
M  V30 5207 C 501.908 2.78326 3.51053 0
M  V30 5208 C 503.652 1.0558 4.11161 0
M  V30 5209 C 501.559 3.25266 4.93919 0
M  V30 5210 H 500.489 0.274313 0.702331 0
M  V30 5211 H 503.14 1.25931 1.33467 0
M  V30 5212 H 501.522 0.690853 3.89927 0
M  V30 5213 H 502.696 3.42933 3.07788 0
M  V30 5214 H 501.011 2.991 2.89704 0
M  V30 5215 H 503.608 1.38161 5.16542 0
M  V30 5216 H 503.951 -0.00684729 4.16299 0
M  V30 5217 H 504.484 1.60882 3.63816 0
M  V30 5218 H 501.223 4.30922 4.9395 0
M  V30 5219 H 500.743 2.65396 5.3789 0
M  V30 5220 H 502.422 3.19433 5.62647 0
M  V30 5221 N 502.554 -1.34406 0.822964 0
M  V30 5222 C 503.831 -1.92733 0.333641 0
M  V30 5223 C 504.211 -1.75107 -1.17901 0
M  V30 5224 O 503.559 -1.12983 -1.98613 0
M  V30 5225 C 503.769 -3.40557 0.763023 0
M  V30 5226 C 505.117 -4.17709 0.761879 0
M  V30 5227 O 506.141 -3.49141 0.705606 0
M  V30 5228 O 505 -5.40082 0.835109 0
M  V30 5229 H 502.094 -0.821964 0.0911249 0
M  V30 5230 H 504.64 -1.4338 0.907757 0
M  V30 5231 H 503.412 -3.47187 1.8049 0
M  V30 5232 H 503.035 -3.97259 0.164605 0
M  V30 5233 N 504.032 -0.577932 -1.46621 0
M  V30 5234 C 505.257 -0.0652536 -2.07297 0
M  V30 5235 C 505.682 1.22828 -1.4246 0
M  V30 5236 O 505.04 1.74075 -0.506718 0
M  V30 5237 C 505.088 0.0920589 -3.60482 0
M  V30 5238 O 504.192 1.14972 -3.96049 0
M  V30 5239 H 503.533 -0.06065 -0.661224 0
M  V30 5240 H 506.063 -0.799515 -1.88332 0
M  V30 5241 H 506.073 0.299741 -4.06897 0
M  V30 5242 H 504.748 -0.852612 -4.07067 0
M  V30 5243 H 503.325 0.920879 -3.61351 0
M  V30 5244 N 505.51 1.54411 -0.315457 0
M  V30 5245 C 506.442 2.21527 0.588067 0
M  V30 5246 C 507.455 1.21263 1.08624 0
M  V30 5247 O 508.644 1.47777 1.00121 0
M  V30 5248 C 505.744 2.85963 1.81875 0
M  V30 5249 C 504.917 4.12291 1.46063 0
M  V30 5250 C 503.976 4.60396 2.54799 0
M  V30 5251 O 503.002 5.25265 2.19283 0
M  V30 5252 N 504.204 4.33935 3.85591 0
M  V30 5253 H 506.969 2.99697 0.013414 0
M  V30 5254 H 504.53 1.61308 -0.138295 0
M  V30 5255 H 506.522 3.15071 2.53993 0
M  V30 5256 H 505.092 2.11548 2.30144 0
M  V30 5257 H 504.312 3.90036 0.571445 0
M  V30 5258 H 505.6 4.9452 1.19695 0
M  V30 5259 H 504.998 3.81996 4.17248 0
M  V30 5260 H 503.555 4.67718 4.53964 0
M  V30 5261 N 506.988 0.0434614 1.5754 0
M  V30 5262 C 508.234 -0.632971 1.92669 0
M  V30 5263 C 508.567 -1.70947 0.921446 0
M  V30 5264 O 507.842 -1.94426 -0.0537202 0
M  V30 5265 C 508.125 -1.23619 3.38216 0
M  V30 5266 C 507.978 -0.168274 4.49485 0
M  V30 5267 C 509.297 -2.15008 3.84005 0
M  V30 5268 H 506.416 -0.228629 0.700641 0
M  V30 5269 H 509.058 0.103651 1.89717 0
M  V30 5270 H 507.208 -1.864 3.40863 0
M  V30 5271 H 508.88 0.463196 4.58969 0
M  V30 5272 H 507.123 0.504581 4.30855 0
M  V30 5273 H 507.794 -0.630218 5.48391 0
M  V30 5274 H 510.27 -1.62198 3.83185 0
M  V30 5275 H 509.146 -2.54161 4.86511 0
M  V30 5276 H 509.407 -3.04707 3.20322 0
M  V30 5277 N 508.466 -1.55915 -0.229846 0
M  V30 5278 C 509.706 -1.80314 -0.962614 0
M  V30 5279 C 510.07 -0.61568 -1.81861 0
M  V30 5280 O 511.271 -0.738795 -2.58448 0
M  V30 5281 C 509.542 -3.0956 -1.78627 0
M  V30 5282 S 511.101 -3.55243 -2.57581 0
M  V30 5283 H 507.919 -0.633142 -0.323499 0
M  V30 5284 H 510.521 -1.94155 -0.228919 0
M  V30 5285 H 509.225 -3.94033 -1.14742 0
M  V30 5286 H 508.756 -2.98503 -2.56241 0
M  V30 5287 H 510.771 -3.17924 -3.80971 0
M  V30 5288 N 509.944 0.496216 -1.49584 0
M  V30 5289 C 510.891 1.59722 -1.66606 0
M  V30 5290 C 511.861 1.58158 -0.507477 0
M  V30 5291 O 513.046 1.76072 -0.735076 0
M  V30 5292 C 510.186 2.97844 -1.74308 0
M  V30 5293 C 509.299 3.09388 -3.01502 0
M  V30 5294 C 508.434 4.38271 -3.00153 0
M  V30 5295 C 507.473 4.43466 -4.21906 0
M  V30 5296 N 506.61 5.63784 -4.1844 0
M  V30 5297 H 511.45 1.44515 -2.60613 0
M  V30 5298 H 508.987 0.703048 -1.29212 0
M  V30 5299 H 510.945 3.77907 -1.76754 0
M  V30 5300 H 509.575 3.11743 -0.837619 0
M  V30 5301 H 508.627 2.22357 -3.08645 0
M  V30 5302 H 509.939 3.09085 -3.91494 0
M  V30 5303 H 509.093 5.2666 -3.01188 0
M  V30 5304 H 507.832 4.41146 -2.07947 0
M  V30 5305 H 506.837 3.53478 -4.21109 0
M  V30 5306 H 508.062 4.42303 -5.1531 0
M  V30 5307 H 506.008 5.67491 -3.29074 0
M  V30 5308 H 505.925 5.65118 -5.02173 0
M  V30 5309 H 507.193 6.54367 -4.23585 0
M  V30 5310 N 511.423 1.38739 0.74761 0
M  V30 5311 C 512.669 1.3648 1.50814 0
M  V30 5312 C 513.024 -0.0431982 1.92351 0
M  V30 5313 O 512.317 -1.0071 1.62997 0
M  V30 5314 C 512.511 2.25992 2.7688 0
M  V30 5315 C 512.34 3.75354 2.47668 0
M  V30 5316 C 511.11 4.44348 2.40589 0
M  V30 5317 C 513.308 4.67642 2.14046 0
M  V30 5318 N 511.29 5.79114 2.03715 0
M  V30 5319 C 512.661 5.90965 1.87512 0
M  V30 5320 C 514.716 4.55787 2.00407 0
M  V30 5321 C 513.419 7.03759 1.48714 0
M  V30 5322 C 515.445 5.68491 1.63011 0
M  V30 5323 C 514.807 6.90879 1.37353 0
M  V30 5324 H 510.906 0.554695 0.551214 0
M  V30 5325 H 513.49 1.7418 0.870033 0
M  V30 5326 H 511.661 1.9047 3.3849 0
M  V30 5327 H 513.393 2.14815 3.42982 0
M  V30 5328 H 510.148 3.97634 2.57262 0
M  V30 5329 H 510.572 6.504 1.87906 0
M  V30 5330 H 515.214 3.61712 2.18916 0
M  V30 5331 H 512.932 7.97746 1.28945 0
M  V30 5332 H 516.518 5.613 1.53081 0
M  V30 5333 H 515.398 7.76609 1.08848 0
M  V30 5334 N 512.901 -0.976442 1.23707 0
M  V30 5335 C 513.849 -2.09078 1.01927 0
M  V30 5336 C 514.843 -1.69345 -0.0430193 0
M  V30 5337 O 516.049 -1.79659 0.110814 0
M  V30 5338 H 512.424 -0.68398 0.312531 0
M  V30 5339 H 514.395 -2.24614 1.96447 0
M  V30 5340 C 513.144 -3.41919 0.631385 0
M  V30 5341 H 512.467 -3.72946 1.44053 0
M  V30 5342 H 513.907 -4.20817 0.518532 0
M  V30 5343 C 512.366 -3.30357 -0.660723 0
M  V30 5344 O 512.896 -3.63542 -1.70881 0
M  V30 5345 N 511.102 -2.83507 -0.638139 0
M  V30 5346 H 510.649 -2.567 0.215108 0
M  V30 5347 H 510.607 -2.76153 -1.50289 0
M  V30 5348 N 514.379 -1.04941 -1.1758 0
M  V30 5349 C 515.628 -0.753124 -1.87112 0
M  V30 5350 C 515.941 0.722507 -1.81767 0
M  V30 5351 O 517.147 1.13265 -2.46746 0
M  V30 5352 C 515.603 -1.29695 -3.35719 0
M  V30 5353 C 515.211 -2.80184 -3.49572 0
M  V30 5354 C 516.955 -1.07759 -4.10595 0
M  V30 5355 C 514.862 -3.2788 -4.92187 0
M  V30 5356 H 513.792 -0.278034 -0.700866 0
M  V30 5357 H 516.443 -1.26637 -1.32798 0
M  V30 5358 H 514.825 -0.711522 -3.89555 0
M  V30 5359 H 515.999 -3.44561 -3.05965 0
M  V30 5360 H 514.314 -3.00632 -2.88113 0
M  V30 5361 H 516.911 -1.40899 -5.15802 0
M  V30 5362 H 517.254 -0.0152302 -4.16297 0
M  V30 5363 H 517.787 -1.62809 -3.62957 0
M  V30 5364 H 514.526 -4.33535 -4.91658 0
M  V30 5365 H 514.046 -2.68245 -5.36475 0
M  V30 5366 H 515.725 -3.22412 -5.60945 0
M  V30 5367 N 515.857 1.33968 -0.830081 0
M  V30 5368 C 516.82 2.27694 -0.26235 0
M  V30 5369 C 517.82 1.50589 0.563876 0
M  V30 5370 O 519.01 1.70028 0.378941 0
M  V30 5371 C 516.142 3.35002 0.63138 0
M  V30 5372 H 517.335 2.79419 -1.08928 0
M  V30 5373 H 514.888 1.44221 -0.602486 0
M  V30 5374 H 515.623 2.88504 1.48109 0
M  V30 5375 H 515.408 3.92079 0.0403276 0
M  V30 5376 H 516.898 4.04897 1.02217 0
M  V30 5377 N 517.335 0.585699 1.46312 0
M  V30 5378 C 518.612 0.00542031 1.95599 0
M  V30 5379 C 518.992 -1.45619 1.52834 0
M  V30 5380 O 518.34 -2.14759 0.780446 0
M  V30 5381 C 518.55 0.180601 3.48532 0
M  V30 5382 C 519.898 0.049979 4.24571 0
M  V30 5383 O 520.922 0.109589 3.56031 0
M  V30 5384 O 519.781 -0.0832226 5.46437 0
M  V30 5385 H 516.875 -0.0481281 0.825598 0
M  V30 5386 H 519.421 0.654227 1.56582 0
M  V30 5387 H 518.193 1.19657 3.72556 0
M  V30 5388 H 517.816 -0.504498 3.94386 0
M  V30 5389 N 518.813 -1.54241 0.323641 0
M  V30 5390 C 519.776 -2.22997 -0.529602 0
M  V30 5391 C 520.776 -1.22345 -1.04347 0
M  V30 5392 O 521.966 -1.46924 -0.935889 0
M  V30 5393 C 519.098 -2.93409 -1.73562 0
M  V30 5394 H 520.291 -2.99815 0.0714518 0
M  V30 5395 H 517.844 -1.56121 0.0747258 0
M  V30 5396 H 518.579 -2.20729 -2.37591 0
M  V30 5397 H 518.364 -3.67217 -1.37456 0
M  V30 5398 H 519.854 -3.45794 -2.34128 0
M  V30 5399 N 520.291 -0.0518155 -1.57515 0
M  V30 5400 C 521.54 0.621286 -1.91893 0
M  V30 5401 C 521.853 1.71966 -0.932052 0
M  V30 5402 O 523.059 2.45096 -1.16791 0
M  V30 5403 C 521.515 1.15641 -3.40816 0
M  V30 5404 C 521.123 0.0901146 -4.47909 0
M  V30 5405 C 522.867 1.80472 -3.84227 0
M  V30 5406 C 520.774 0.638154 -5.87947 0
M  V30 5407 H 519.704 0.235835 -0.716169 0
M  V30 5408 H 522.355 -0.120809 -1.83102 0
M  V30 5409 H 520.737 1.95084 -3.44613 0
M  V30 5410 H 521.911 -0.683525 -4.55702 0
M  V30 5411 H 520.226 -0.460774 -4.13843 0
M  V30 5412 H 522.823 2.22471 -4.86221 0
M  V30 5413 H 523.166 2.65669 -3.20508 0
M  V30 5414 H 523.699 1.07683 -3.82948 0
M  V30 5415 H 520.438 -0.176202 -6.55263 0
M  V30 5416 H 519.958 1.37976 -5.83714 0
M  V30 5417 H 521.637 1.12085 -6.37217 0
M  V30 5418 N 521.769 1.56035 0.221574 0
M  V30 5419 C 522.716 1.92413 1.27459 0
M  V30 5420 C 523.686 0.781323 1.46576 0
M  V30 5421 O 524.871 1.03721 1.60145 0
M  V30 5422 C 522.011 2.24617 2.61995 0
M  V30 5423 C 521.124 3.51831 2.50677 0
M  V30 5424 C 520.259 3.73482 3.77736 0
M  V30 5425 C 519.298 4.94211 3.6114 0
M  V30 5426 N 518.435 5.12252 4.80148 0
M  V30 5427 H 523.275 2.82203 0.957355 0
M  V30 5428 H 520.812 1.39676 0.461415 0
M  V30 5429 H 522.77 2.41298 3.40339 0
M  V30 5430 H 521.4 1.38 2.91815 0
M  V30 5431 H 520.452 3.43343 1.63767 0
M  V30 5432 H 521.764 4.40328 2.34334 0
M  V30 5433 H 520.918 3.9026 4.64523 0
M  V30 5434 H 519.657 2.83266 3.97003 0
M  V30 5435 H 518.662 4.77384 2.72736 0
M  V30 5436 H 519.887 5.85912 3.43343 0
M  V30 5437 H 517.833 4.24978 4.99729 0
M  V30 5438 H 517.75 5.94881 4.66532 0
M  V30 5439 H 519.018 5.33465 5.68362 0
M  V30 5440 N 523.247 -0.488276 1.49845 0
M  V30 5441 C 524.197 -1.58556 1.63842 0
M  V30 5442 C 525.181 -1.53142 0.493586 0
M  V30 5443 O 526.373 -1.60457 0.747169 0
M  V30 5444 C 523.502 -2.97101 1.72005 0
M  V30 5445 C 522.588 -3.07463 2.92108 0
M  V30 5446 N 522.979 -2.87681 4.16021 0
M  V30 5447 C 521.277 -3.3858 2.90309 0
M  V30 5448 C 521.978 -3.0256 4.96822 0
M  V30 5449 N 520.954 -3.32002 4.30437 0
M  V30 5450 H 524.756 -1.41935 2.57355 0
M  V30 5451 H 522.27 -0.694668 1.46793 0
M  V30 5452 H 524.267 -3.75976 1.80132 0
M  V30 5453 H 522.927 -3.14782 0.796375 0
M  V30 5454 H 523.938 -2.63603 4.45796 0
M  V30 5455 H 520.615 -3.62357 2.07372 0
M  V30 5456 H 522.005 -2.9165 6.05301 0
M  V30 5457 N 524.725 -1.39134 -0.740242 0
M  V30 5458 C 525.955 -1.39132 -1.52728 0
M  V30 5459 C 526.363 0.0173133 -1.89192 0
M  V30 5460 O 525.706 0.997715 -1.54244 0
M  V30 5461 C 525.768 -2.1952 -2.84695 0
M  V30 5462 C 525.432 -3.68203 -2.70695 0
M  V30 5463 C 526.429 -4.61401 -2.39593 0
M  V30 5464 C 524.114 -4.11724 -2.8773 0
M  V30 5465 C 526.108 -5.96102 -2.25701 0
M  V30 5466 C 523.795 -5.46503 -2.73456 0
M  V30 5467 C 524.793 -6.38506 -2.42486 0
M  V30 5468 O 524.481 -7.70803 -2.28295 0
M  V30 5469 H 524.213 -0.477263 -0.478744 0
M  V30 5470 H 526.767 -1.83504 -0.922799 0
M  V30 5471 H 524.997 -1.69888 -3.47383 0
M  V30 5472 H 526.686 -2.1176 -3.46284 0
M  V30 5473 H 527.452 -4.29079 -2.26088 0
M  V30 5474 H 523.331 -3.4045 -3.10829 0
M  V30 5475 H 526.875 -6.6788 -2.0145 0
M  V30 5476 H 522.772 -5.78417 -2.86538 0
M  V30 5477 H 523.54 -7.8147 -2.43405 0
M  V30 5478 N 526.204 0.969867 -1.24223 0
M  V30 5479 C 527.152 2.08535 -1.03034 0
M  V30 5480 C 528.146 1.69366 0.0340379 0
M  V30 5481 O 529.352 1.79597 -0.12034 0
M  V30 5482 H 525.727 0.682313 -0.316154 0
M  V30 5483 H 527.698 2.23569 -1.97635 0
M  V30 5484 C 526.447 3.4158 -0.649509 0
M  V30 5485 H 525.77 3.72177 -1.46028 0
M  V30 5486 H 527.21 4.20536 -0.540841 0
M  V30 5487 C 525.669 3.30703 0.643194 0
M  V30 5488 O 526.199 3.64443 1.68951 0
M  V30 5489 N 524.405 2.83841 0.623095 0
M  V30 5490 H 523.952 2.56583 -0.228719 0
M  V30 5491 H 523.91 2.76946 1.48823 0
M  V30 5492 N 527.682 1.05563 1.17022 0
M  V30 5493 C 528.93 0.76642 1.87004 0
M  V30 5494 C 529.251 -0.708854 1.8166 0
M  V30 5495 O 528.521 -1.51242 1.2451 0
M  V30 5496 H 527.101 0.280516 0.692329 0
M  V30 5497 H 529.763 1.33557 1.41945 0
M  V30 5498 H 528.859 1.08472 2.92644 0
M  V30 5499 N 529.16 -1.33526 0.837174 0
M  V30 5500 C 530.437 -1.92369 0.354065 0
M  V30 5501 C 530.817 -1.76348 -1.16038 0
M  V30 5502 O 530.165 -1.15083 -1.97403 0
M  V30 5503 C 530.375 -3.39728 0.799101 0
M  V30 5504 C 531.723 -4.16877 0.806139 0
M  V30 5505 O 532.747 -3.48373 0.742597 0
M  V30 5506 O 531.606 -5.39166 0.892345 0
M  V30 5507 H 528.7 -0.820952 0.0998378 0
M  V30 5508 H 531.246 -1.42409 0.922913 0
M  V30 5509 H 530.018 -3.45254 1.84162 0
M  V30 5510 H 529.641 -3.97062 0.206731 0
M  V30 5511 N 530.638 -0.59345 -1.46 0
M  V30 5512 C 532.054 -0.255965 -1.57534 0
M  V30 5513 C 532.254 1.24167 -1.58697 0
M  V30 5514 O 531.31 2.02398 -1.50968 0
M  V30 5515 C 532.623 -0.91466 -2.86451 0
M  V30 5516 C 534.171 -0.889253 -3.00102 0
M  V30 5517 C 534.646 -1.52769 -4.3177 0
M  V30 5518 N 536.137 -1.49253 -4.38495 0
M  V30 5519 C 536.872 -1.9558 -5.39014 0
M  V30 5520 N 536.368 -2.49929 -6.46148 0
M  V30 5521 N 538.161 -1.86432 -5.30282 0
M  V30 5522 H 530.312 -1.56604 -1.43489 0
M  V30 5523 H 532.575 -0.655207 -0.685133 0
M  V30 5524 H 532.281 -1.96861 -2.91442 0
M  V30 5525 H 532.155 -0.429356 -3.74748 0
M  V30 5526 H 534.542 0.156111 -2.94687 0
M  V30 5527 H 534.623 -1.41268 -2.13253 0
M  V30 5528 H 534.267 -2.57231 -4.37944 0
M  V30 5529 H 534.197 -0.979398 -5.17412 0
M  V30 5530 H 536.688 -1.09536 -3.61677 0
M  V30 5531 H 537.001 -2.83109 -7.19075 0
M  V30 5532 H 535.346 -2.53961 -6.46938 0
M  V30 5533 H 538.537 -1.43722 -4.4549 0
M  V30 5534 H 538.71 -2.22852 -6.08474 0
M  V30 5535 N 532.116 1.54067 -0.331816 0
M  V30 5536 C 533.362 2.01012 0.268667 0
M  V30 5537 C 533.695 1.2195 1.51136 0
M  V30 5538 O 532.97 0.303972 1.9211 0
M  V30 5539 C 533.253 3.55158 0.59456 0
M  V30 5540 C 533.106 4.4494 -0.659409 0
M  V30 5541 C 534.425 4.16939 1.4089 0
M  V30 5542 H 531.544 0.730698 0.0961756 0
M  V30 5543 H 534.186 1.84593 -0.450031 0
M  V30 5544 H 532.336 3.6928 1.20685 0
M  V30 5545 H 534.008 4.42675 -1.29756 0
M  V30 5546 H 532.251 4.1428 -1.28665 0
M  V30 5547 H 532.922 5.50643 -0.386804 0
M  V30 5548 H 535.398 4.06443 0.891272 0
M  V30 5549 H 534.274 5.24889 1.60569 0
M  V30 5550 H 534.535 3.70798 2.40752 0
M  V30 5551 N 533.594 0.0601682 1.57485 0
M  V30 5552 C 534.542 -0.928899 2.13247 0
M  V30 5553 C 535.536 -1.31616 1.06647 0
M  V30 5554 O 536.742 -1.29476 1.25043 0
M  V30 5555 H 533.117 -0.317455 0.681708 0
M  V30 5556 H 535.088 -0.433566 2.95233 0
M  V30 5557 C 533.837 -2.19121 2.69965 0
M  V30 5558 H 533.16 -1.90204 3.51657 0
M  V30 5559 H 534.6 -2.86465 3.12592 0
M  V30 5560 C 533.059 -2.94195 1.64168 0
M  V30 5561 O 533.589 -3.87468 1.05978 0
M  V30 5562 N 531.795 -2.57089 1.35476 0
M  V30 5563 H 531.342 -1.81314 1.82984 0
M  V30 5564 H 531.3 -3.07624 0.649196 0
M  V30 5565 N 535.072 -1.5615 -0.213296 0
M  V30 5566 C 536.302 -1.83372 -0.951757 0
M  V30 5567 C 536.71 -0.638158 -1.78113 0
M  V30 5568 O 536.053 0.402609 -1.79234 0
M  V30 5569 C 536.115 -3.04444 -1.91192 0
M  V30 5570 C 535.779 -4.39107 -1.26627 0
M  V30 5571 C 536.776 -5.15794 -0.652087 0
M  V30 5572 C 534.461 -4.85834 -1.27556 0
M  V30 5573 C 536.455 -6.37376 -0.055814 0
M  V30 5574 C 534.142 -6.07356 -0.675451 0
M  V30 5575 C 535.14 -6.82967 -0.0666367 0
M  V30 5576 O 534.828 -8.0219 0.524119 0
M  V30 5577 H 534.56 -0.613398 -0.284111 0
M  V30 5578 H 537.114 -2.04096 -0.231112 0
M  V30 5579 H 535.344 -2.79559 -2.67178 0
M  V30 5580 H 537.033 -3.18466 -2.51662 0
M  V30 5581 H 537.799 -4.80796 -0.637172 0
M  V30 5582 H 533.678 -4.26949 -1.73883 0
M  V30 5583 H 537.222 -6.96334 0.420004 0
M  V30 5584 H 533.119 -6.41825 -0.687806 0
M  V30 5585 H 533.887 -8.17426 0.419243 0
M  V30 5586 N 536.55 0.480323 -1.50102 0
M  V30 5587 C 537.799 1.22979 -1.59872 0
M  V30 5588 C 538.112 1.93282 -0.30022 0
M  V30 5589 O 539.318 2.70086 -0.276709 0
M  V30 5590 C 537.774 2.23408 -2.82164 0
M  V30 5591 C 537.382 1.5895 -4.18854 0
M  V30 5592 C 539.126 2.99055 -3.01275 0
M  V30 5593 C 537.033 2.57611 -5.32344 0
M  V30 5594 H 535.963 0.462707 -0.59533 0
M  V30 5595 H 538.614 0.501291 -1.7652 0
M  V30 5596 H 536.996 2.99511 -2.59055 0
M  V30 5597 H 538.17 0.887 -4.52182 0
M  V30 5598 H 536.485 0.956191 -4.05273 0
M  V30 5599 H 539.082 3.72876 -3.83233 0
M  V30 5600 H 539.425 3.57897 -2.12639 0
M  V30 5601 H 539.958 2.30066 -3.24522 0
M  V30 5602 H 536.697 2.03521 -6.23105 0
M  V30 5603 H 536.217 3.26041 -5.03445 0
M  V30 5604 H 537.896 3.19627 -5.62537 0
M  V30 5605 N 538.028 1.39524 0.732853 0
M  V30 5606 C 539.444 1.21176 1.03868 0
M  V30 5607 C 539.644 0.0748448 2.01361 0
M  V30 5608 O 538.7 -0.57281 2.45917 0
M  V30 5609 C 540.013 2.54667 1.59892 0
M  V30 5610 C 541.561 2.6153 1.71962 0
M  V30 5611 C 542.036 3.95248 2.31394 0
M  V30 5612 N 543.527 3.96899 2.38801 0
M  V30 5613 C 544.262 4.97138 2.85729 0
M  V30 5614 N 543.758 6.07775 3.32537 0
M  V30 5615 N 545.551 4.84516 2.84957 0
M  V30 5616 H 537.702 2.12225 0.086304 0
M  V30 5617 H 539.965 0.942614 0.100907 0
M  V30 5618 H 539.671 3.38423 0.95721 0
M  V30 5619 H 539.545 2.74538 2.58668 0
M  V30 5620 H 541.932 1.78156 2.35254 0
M  V30 5621 H 542.013 2.45507 0.718327 0
M  V30 5622 H 541.657 4.79054 1.68729 0
M  V30 5623 H 541.587 4.08593 3.32204 0
M  V30 5624 H 544.078 3.16998 2.05719 0
M  V30 5625 H 544.391 6.8017 3.66862 0
M  V30 5626 H 542.736 6.11366 3.30541 0
M  V30 5627 H 545.927 3.97185 2.47713 0
M  V30 5628 H 546.1 5.62783 3.21215 0
M  V30 5629 N 539.506 -0.963266 1.24736 0
M  V30 5630 C 540.438 -2.06162 1.0015 0
M  V30 5631 C 541.451 -1.62771 -0.0305905 0
M  V30 5632 O 542.64 -1.77296 0.206966 0
M  V30 5633 C 539.74 -3.35333 0.490385 0
M  V30 5634 C 538.913 -4.07609 1.58663 0
M  V30 5635 C 537.972 -5.15052 1.0774 0
M  V30 5636 O 536.998 -5.4098 1.77002 0
M  V30 5637 N 538.2 -5.80436 -0.0858605 0
M  V30 5638 H 540.965 -2.27825 1.94719 0
M  V30 5639 H 538.526 -1.13121 1.15825 0
M  V30 5640 H 540.518 -4.04477 0.134371 0
M  V30 5641 H 539.088 -3.10507 -0.361155 0
M  V30 5642 H 538.308 -3.32681 2.11463 0
M  V30 5643 H 539.596 -4.52656 2.32336 0
M  V30 5644 H 538.994 -5.6178 -0.664806 0
M  V30 5645 H 537.551 -6.50674 -0.382981 0
M  V30 5646 N 540.985 -1.06182 -1.16461 0
M  V30 5647 C 541.932 -0.671613 -2.20812 0
M  V30 5648 C 542.902 0.331186 -1.62765 0
M  V30 5649 O 544.087 0.22033 -1.89524 0
M  V30 5650 C 541.227 -0.063029 -3.45042 0
M  V30 5651 C 540.34 -1.11587 -4.1734 0
M  V30 5652 C 539.475 -0.473546 -5.29085 0
M  V30 5653 C 538.514 -1.51 -5.93182 0
M  V30 5654 N 537.651 -0.891118 -6.96422 0
M  V30 5655 H 542.491 -1.56589 -2.53542 0
M  V30 5656 H 540.028 -0.782951 -1.24532 0
M  V30 5657 H 541.986 0.307344 -4.16066 0
M  V30 5658 H 540.616 0.794663 -3.12866 0
M  V30 5659 H 539.668 -1.60396 -3.44931 0
M  V30 5660 H 540.98 -1.90221 -4.61104 0
M  V30 5661 H 540.134 -0.0501432 -6.06679 0
M  V30 5662 H 538.873 0.344687 -4.8648 0
M  V30 5663 H 537.878 -1.94331 -5.14311 0
M  V30 5664 H 539.103 -2.33031 -6.37866 0
M  V30 5665 H 537.049 -0.0935753 -6.55933 0
M  V30 5666 H 536.966 -1.61486 -7.38551 0
M  V30 5667 H 538.234 -0.492822 -7.77941 0
M  V30 5668 N 542.463 1.3308 -0.844243 0
M  V30 5669 C 543.393 2.3161 -0.296493 0
M  V30 5670 C 544.374 1.59215 0.598707 0
M  V30 5671 O 545.559 1.87077 0.521134 0
M  V30 5672 C 542.689 3.43313 0.524762 0
M  V30 5673 C 541.643 4.27115 -0.275106 0
M  V30 5674 C 540.969 5.30483 0.670236 0
M  V30 5675 C 542.269 5.00443 -1.49514 0
M  V30 5676 H 543.963 2.77672 -1.11976 0
M  V30 5677 H 541.509 1.33496 -0.539899 0
M  V30 5678 H 543.462 4.11273 0.918298 0
M  V30 5679 H 542.186 2.95952 1.3813 0
M  V30 5680 H 540.845 3.60787 -0.650267 0
M  V30 5681 H 540.493 4.79379 1.52332 0
M  V30 5682 H 540.193 5.87435 0.139123 0
M  V30 5683 H 541.717 6.01308 1.06117 0
M  V30 5684 H 543.131 5.61141 -1.17447 0
M  V30 5685 H 541.528 5.67071 -1.96343 0
M  V30 5686 H 542.598 4.28906 -2.26202 0
M  V30 5687 N 543.941 0.601185 1.45683 0
M  V30 5688 C 545.218 0.0261659 1.95582 0
M  V30 5689 C 545.598 -1.4399 1.5437 0
M  V30 5690 O 544.946 -2.13919 0.80318 0
M  V30 5691 C 545.156 0.217557 3.48321 0
M  V30 5692 C 546.504 0.0950076 4.24494 0
M  V30 5693 O 547.528 0.147345 3.55895 0
M  V30 5694 O 546.387 -0.025261 5.46494 0
M  V30 5695 H 543.481 -0.0393688 0.826062 0
M  V30 5696 H 546.027 0.670798 1.55879 0
M  V30 5697 H 544.799 1.23601 3.71266 0
M  V30 5698 H 544.422 -0.46264 3.94899 0
M  V30 5699 N 545.419 -1.53889 0.339982 0
M  V30 5700 C 546.665 -2.01152 -0.258003 0
M  V30 5701 C 546.998 -1.22749 -1.50487 0
M  V30 5702 O 546.273 -0.314156 -1.91946 0
M  V30 5703 C 546.556 -3.55468 -0.575717 0
M  V30 5704 C 546.409 -4.44584 0.682996 0
M  V30 5705 C 547.728 -4.1768 -1.38677 0
M  V30 5706 H 544.847 -0.731198 -0.0922992 0
M  V30 5707 H 547.489 -1.84352 0.459814 0
M  V30 5708 H 545.639 -3.69914 -1.18725 0
M  V30 5709 H 547.311 -4.41981 1.32102 0
M  V30 5710 H 545.554 -4.13592 1.3086 0
M  V30 5711 H 546.225 -5.5043 0.416001 0
M  V30 5712 H 548.701 -4.0691 -0.869705 0
M  V30 5713 H 547.577 -5.25734 -1.57783 0
M  V30 5714 H 547.838 -3.72069 -2.38782 0
M  V30 5715 N 546.897 -0.0685191 -1.57451 0
M  V30 5716 C 547.829 0.929372 -2.09512 0
M  V30 5717 C 548.842 1.26354 -1.02657 0
M  V30 5718 O 550.031 1.2213 -1.30179 0
M  V30 5719 C 547.131 2.24612 -2.53777 0
M  V30 5720 C 546.304 2.09128 -3.84167 0
M  V30 5721 C 545.363 3.24079 -4.14559 0
M  V30 5722 O 544.389 2.99215 -4.8421 0
M  V30 5723 N 545.591 4.49077 -3.67845 0
M  V30 5724 H 548.356 0.484901 -2.95751 0
M  V30 5725 H 545.917 0.11729 -1.61475 0
M  V30 5726 H 547.909 3.00412 -2.71172 0
M  V30 5727 H 546.479 2.60569 -1.72692 0
M  V30 5728 H 545.699 1.17815 -3.76182 0
M  V30 5729 H 546.987 1.9603 -4.69521 0
M  V30 5730 H 546.385 4.72165 -3.11571 0
M  V30 5731 H 544.942 5.21915 -3.90446 0
M  V30 5732 N 548.375 1.56261 0.205012 0
M  V30 5733 C 549.605 1.83874 0.942018 0
M  V30 5734 C 550.013 0.647595 1.77772 0
M  V30 5735 O 549.356 -0.393098 1.79445 0
M  V30 5736 C 549.418 3.05453 1.89575 0
M  V30 5737 C 549.082 4.39772 1.24296 0
M  V30 5738 C 550.079 5.16133 0.624724 0
M  V30 5739 C 547.764 4.86504 1.24978 0
M  V30 5740 C 549.758 6.37396 0.0220117 0
M  V30 5741 C 547.445 6.07705 0.643232 0
M  V30 5742 C 548.443 6.82993 0.0304164 0
M  V30 5743 O 548.131 8.019 -0.566654 0
M  V30 5744 H 547.863 0.614896 0.280854 0
M  V30 5745 H 550.417 2.04215 0.220285 0
M  V30 5746 H 548.647 2.80972 2.65691 0
M  V30 5747 H 550.336 3.19797 2.4997 0
M  V30 5748 H 551.102 4.81127 0.611666 0
M  V30 5749 H 546.981 4.27865 1.71616 0
M  V30 5750 H 550.525 6.96102 -0.456926 0
M  V30 5751 H 546.422 6.42181 0.653759 0
M  V30 5752 H 547.19 8.17192 -0.462588 0
M  V30 5753 N 549.853 -0.472356 1.50355 0
M  V30 5754 C 550.785 -1.58795 1.65278 0
M  V30 5755 C 551.798 -1.53782 0.534313 0
M  V30 5756 O 552.987 -1.59193 0.807446 0
M  V30 5757 C 550.087 -2.97672 1.62001 0
M  V30 5758 C 549.26 -3.27568 2.89859 0
M  V30 5759 C 548.319 -4.45993 2.79242 0
M  V30 5760 O 547.345 -4.46364 3.53197 0
M  V30 5761 N 548.547 -5.47578 1.92713 0
M  V30 5762 H 551.312 -1.46411 2.61503 0
M  V30 5763 H 548.873 -0.660751 1.47803 0
M  V30 5764 H 550.865 -3.74862 1.52513 0
M  V30 5765 H 549.435 -3.03832 0.735159 0
M  V30 5766 H 548.655 -2.39003 3.13483 0
M  V30 5767 H 549.943 -3.44352 3.74565 0
M  V30 5768 H 549.341 -5.50099 1.31939 0
M  V30 5769 H 547.898 -6.23757 1.8913 0
M  V30 5770 N 551.331 -1.39911 -0.725443 0
M  V30 5771 C 552.742 -1.33599 -1.30415 0
M  V30 5772 C 553.093 -0.00481792 -1.96199 0
M  V30 5773 O 552.218 0.897275 -1.96921 0
M  V30 5774 C 552.813 -2.41965 -2.37146 0
M  V30 5775 C 551.372 -2.39144 -2.90667 0
M  V30 5776 C 550.519 -2.23355 -1.64341 0
M  V30 5777 H 553.47 -1.4986 -0.522267 0
M  V30 5778 H 553.491 -2.09304 -3.17761 0
M  V30 5779 H 553.003 -3.38837 -1.89238 0
M  V30 5780 H 551.104 -1.4594 -3.4283 0
M  V30 5781 H 551.217 -3.34362 -3.43131 0
M  V30 5782 H 549.581 -1.70696 -1.89037 0
M  V30 5783 H 550.364 -3.2221 -1.18471 0
M  V30 5784 N 552.809 0.956637 -1.25245 0
M  V30 5785 C 554.057 1.69764 -1.09657 0
M  V30 5786 C 554.378 1.91583 0.363464 0
M  V30 5787 O 553.648 1.50149 1.25825 0
M  V30 5788 H 552.228 0.629097 -0.402798 0
M  V30 5789 H 554.89 1.15026 -1.57337 0
M  V30 5790 H 553.986 2.67769 -1.60331 0
M  V30 5791 N 554.287 1.06798 1.15896 0
M  V30 5792 C 555.237 0.653213 2.18443 0
M  V30 5793 C 556.221 -0.318763 1.57711 0
M  V30 5794 O 557.413 -0.133388 1.76497 0
M  V30 5795 C 554.542 0.0465785 3.43268 0
M  V30 5796 C 553.628 1.04336 4.11066 0
M  V30 5797 N 554.019 2.22084 4.54436 0
M  V30 5798 C 552.317 0.875433 4.37324 0
M  V30 5799 C 553.018 2.85276 5.06944 0
M  V30 5800 N 551.994 2.12973 5.00143 0
M  V30 5801 H 555.796 1.55011 2.49698 0
M  V30 5802 H 553.31 0.940384 1.32403 0
M  V30 5803 H 555.307 -0.26843 4.16035 0
M  V30 5804 H 553.967 -0.845504 3.13499 0
M  V30 5805 H 554.978 2.59833 4.48004 0
M  V30 5806 H 551.655 0.0357721 4.17485 0
M  V30 5807 H 553.045 3.85223 5.50503 0
M  V30 5808 N 555.766 -1.3263 0.851289 0
M  V30 5809 C 556.714 -2.30882 0.282202 0
M  V30 5810 C 557.708 -1.58697 -0.592589 0
M  V30 5811 O 558.914 -1.73461 -0.480768 0
M  V30 5812 H 555.289 -0.748492 0.0725487 0
M  V30 5813 H 557.26 -2.76374 1.12516 0
M  V30 5814 C 556.009 -3.43828 -0.517449 0
M  V30 5815 H 555.332 -3.99532 0.146392 0
M  V30 5816 H 556.772 -4.1474 -0.88128 0
M  V30 5817 C 555.231 -2.90786 -1.70133 0
M  V30 5818 O 555.761 -2.88 -2.80034 0
M  V30 5819 N 553.967 -2.4723 -1.52728 0
M  V30 5820 H 553.514 -2.49695 -0.633257 0
M  V30 5821 H 553.472 -2.12094 -2.32085 0
M  V30 5822 N 557.244 -0.608902 -1.45362 0
M  V30 5823 C 558.194 0.130616 -2.27626 0
M  V30 5824 C 559.178 0.837323 -1.37396 0
M  V30 5825 O 560.37 0.727096 -1.61376 0
M  V30 5826 C 557.499 1.12646 -3.24293 0
M  V30 5827 C 556.585 0.42052 -4.2201 0
M  V30 5828 N 556.976 -0.538569 -5.02925 0
M  V30 5829 C 555.274 0.667901 -4.40971 0
M  V30 5830 C 555.975 -0.953625 -5.7383 0
M  V30 5831 N 554.951 -0.297097 -5.42788 0
M  V30 5832 H 558.753 -0.605996 -2.87585 0
M  V30 5833 H 556.267 -0.432672 -1.5653 0
M  V30 5834 H 558.264 1.67066 -3.81961 0
M  V30 5835 H 556.924 1.86361 -2.65894 0
M  V30 5836 H 557.935 -0.915375 -5.09746 0
M  V30 5837 H 554.612 1.38963 -3.93695 0
M  V30 5838 H 556.002 -1.74473 -6.48852 0
M  V30 5839 N 558.722 1.53707 -0.348139 0
M  V30 5840 C 559.685 2.23812 0.494058 0
M  V30 5841 C 560.685 1.23989 1.02388 0
M  V30 5842 O 561.875 1.48395 0.912396 0
M  V30 5843 C 559.007 2.96133 1.68872 0
M  V30 5844 H 560.2 2.99663 -0.119141 0
M  V30 5845 H 557.753 1.55983 -0.0995539 0
M  V30 5846 H 558.488 2.24481 2.34049 0
M  V30 5847 H 558.273 3.69357 1.31596 0
M  V30 5848 H 559.763 3.49475 2.28597 0
M  V30 5849 N 560.2 0.0768682 1.57412 0
M  V30 5850 C 561.425 -0.603404 1.98428 0
M  V30 5851 C 561.85 -1.62047 0.955108 0
M  V30 5852 O 561.208 -1.81129 -0.0786778 0
M  V30 5853 C 561.256 -1.24396 3.38464 0
M  V30 5854 O 560.36 -2.35982 3.3821 0
M  V30 5855 H 559.701 -0.154741 0.645718 0
M  V30 5856 H 562.231 0.152885 2.04028 0
M  V30 5857 H 562.241 -1.5896 3.7576 0
M  V30 5858 H 560.916 -0.498735 4.12899 0
M  V30 5859 H 559.493 -2.03173 3.1269 0
M  V30 5860 N 561.678 -1.56367 -0.196722 0
M  V30 5861 C 562.608 -1.97442 -1.24655 0
M  V30 5862 C 563.589 -0.846147 -1.47561 0
M  V30 5863 O 564.774 -1.11035 -1.59326 0
M  V30 5864 C 561.904 -2.31253 -2.59112 0
M  V30 5865 C 560.858 -3.46804 -2.50821 0
M  V30 5866 C 560.184 -3.66286 -3.89536 0
M  V30 5867 C 561.484 -4.8104 -2.03465 0
M  V30 5868 H 563.178 -2.85388 -0.905216 0
M  V30 5869 H 560.724 -1.37304 -0.434002 0
M  V30 5870 H 562.677 -2.58583 -3.32736 0
M  V30 5871 H 561.401 -1.40188 -2.94983 0
M  V30 5872 H 560.06 -3.19563 -1.79653 0
M  V30 5873 H 559.708 -2.72555 -4.22756 0
M  V30 5874 H 559.408 -4.4402 -3.84864 0
M  V30 5875 H 560.932 -3.9599 -4.64784 0
M  V30 5876 H 562.346 -5.07411 -2.66846 0
M  V30 5877 H 560.743 -5.62232 -2.09798 0
M  V30 5878 H 561.813 -4.74732 -0.98781 0
M  V30 5879 N 563.156 0.464375 -1.50603 0
M  V30 5880 C 564.384 1.23907 -1.65695 0
M  V30 5881 C 564.799 1.85658 -0.343027 0
M  V30 5882 O 564.156 1.69529 0.675739 0
M  V30 5883 C 564.207 2.3429 -2.75301 0
M  V30 5884 O 563.928 1.7507 -4.01599 0
M  V30 5885 C 565.429 3.25051 -3.01424 0
M  V30 5886 H 562.649 0.374485 -0.556778 0
M  V30 5887 H 565.193 0.55353 -1.96866 0
M  V30 5888 H 563.348 2.98607 -2.46804 0
M  V30 5889 H 563.762 2.47812 -4.62266 0
M  V30 5890 H 565.236 3.98699 -3.81763 0
M  V30 5891 H 565.713 3.84227 -2.12758 0
M  V30 5892 H 566.319 2.66463 -3.31477 0
M  V30 5893 N 564.634 1.40294 0.718013 0
M  V30 5894 C 565.544 1.42678 1.86226 0
M  V30 5895 C 566.56 0.319655 1.71039 0
M  V30 5896 O 567.736 0.563852 1.93346 0
M  V30 5897 C 564.801 1.2852 3.21999 0
M  V30 5898 C 563.862 2.49354 3.49458 0
M  V30 5899 C 563.095 2.35863 4.78753 0
M  V30 5900 O 563.318 1.37114 5.53675 0
M  V30 5901 O 562.252 3.25189 5.06494 0
M  V30 5902 H 566.078 2.39167 1.87171 0
M  V30 5903 H 563.663 1.2159 0.868112 0
M  V30 5904 H 565.545 1.22824 4.03103 0
M  V30 5905 H 564.22 0.351359 3.21787 0
M  V30 5906 H 563.127 2.60628 2.68373 0
M  V30 5907 H 564.46 3.41491 3.54464 0
M  V30 5908 N 566.112 -0.949982 1.2575 0
M  V30 5909 C 567.337 -1.73503 1.13628 0
M  V30 5910 C 567.762 -1.85601 -0.30559 0
M  V30 5911 O 567.12 -1.33984 -1.22139 0
M  V30 5912 C 567.168 -3.1243 1.80055 0
M  V30 5913 O 566.272 -3.97916 1.08336 0
M  V30 5914 H 565.613 -0.532665 0.396439 0
M  V30 5915 H 568.143 -1.19043 1.66403 0
M  V30 5916 H 568.153 -3.62866 1.86527 0
M  V30 5917 H 566.828 -3.02941 2.84956 0
M  V30 5918 H 565.405 -3.56375 1.09777 0
M  V30 5919 N 567.59 -1.07411 -1.15328 0
M  V30 5920 C 569.006 -0.799759 -1.38116 0
M  V30 5921 C 569.206 0.59572 -1.92493 0
M  V30 5922 O 568.262 1.35433 -2.13106 0
M  V30 5923 C 569.575 -1.87407 -2.35158 0
M  V30 5924 C 571.123 -1.89889 -2.48819 0
M  V30 5925 C 571.598 -2.96406 -3.49153 0
M  V30 5926 N 573.089 -2.95512 -3.56689 0
M  V30 5927 C 573.824 -3.74575 -4.34144 0
M  V30 5928 N 573.32 -4.63488 -5.14928 0
M  V30 5929 N 575.113 -3.62919 -4.29239 0
M  V30 5930 H 567.264 -1.97411 -0.78374 0
M  V30 5931 H 569.527 -0.856113 -0.407154 0
M  V30 5932 H 569.233 -2.8768 -2.0232 0
M  V30 5933 H 569.107 -1.73471 -3.34944 0
M  V30 5934 H 571.494 -0.902677 -2.80955 0
M  V30 5935 H 571.575 -2.07904 -1.49029 0
M  V30 5936 H 571.219 -3.96227 -3.17752 0
M  V30 5937 H 571.149 -2.75638 -4.48699 0
M  V30 5938 H 573.64 -2.31061 -2.99031 0
M  V30 5939 H 573.953 -5.20445 -5.71276 0
M  V30 5940 H 572.298 -4.67537 -5.14232 0
M  V30 5941 H 575.489 -2.92833 -3.65194 0
M  V30 5942 H 575.662 -4.24777 -4.89355 0
M  V30 5943 N 569.068 1.32177 -0.85831 0
M  V30 5944 C 570.345 1.91781 -0.384624 0
M  V30 5945 C 570.725 1.78171 1.13217 0
M  V30 5946 O 570.073 1.18209 1.95548 0
M  V30 5947 C 570.283 3.38414 -0.853047 0
M  V30 5948 C 571.631 4.15542 -0.872359 0
M  V30 5949 O 572.655 3.47148 -0.797926 0
M  V30 5950 O 571.514 5.37678 -0.978009 0
M  V30 5951 H 568.608 0.819259 -0.112886 0
M  V30 5952 H 571.154 1.40923 -0.945453 0
M  V30 5953 H 569.926 3.4228 -1.89632 0
M  V30 5954 H 569.549 3.96683 -0.269874 0
M  V30 5955 N 570.547 0.616602 1.45037 0
M  V30 5956 C 571.51 -0.0871112 2.29034 0
M  V30 5957 C 572.51 -0.786414 1.40258 0
M  V30 5958 O 573.7 -0.633207 1.62284 0
M  V30 5959 C 570.832 -1.13369 3.21497 0
M  V30 5960 H 572.025 0.651497 2.92738 0
M  V30 5961 H 569.578 0.376058 1.51709 0
M  V30 5962 H 570.313 -1.90277 2.62612 0
M  V30 5963 H 570.098 -0.636358 3.86902 0
M  V30 5964 H 571.588 -1.62627 3.84633 0
M  V30 5965 N 572.025 -1.5352 0.356285 0
M  V30 5966 C 573.302 -1.93405 -0.292223 0
M  V30 5967 C 573.682 -1.28901 -1.67176 0
M  V30 5968 O 573.03 -0.444632 -2.24132 0
M  V30 5969 C 573.24 -3.47223 -0.35175 0
M  V30 5970 C 574.588 -4.20389 -0.596534 0
M  V30 5971 O 575.612 -3.53554 -0.433344 0
M  V30 5972 O 574.471 -5.3881 -0.913589 0
M  V30 5973 H 571.565 -0.808666 -0.173172 0
M  V30 5974 H 574.111 -1.64713 0.408391 0
M  V30 5975 H 572.883 -3.86423 0.615841 0
M  V30 5976 H 572.506 -3.8212 -1.09864 0
M  V30 5977 N 573.503 -0.0852151 -1.57369 0
M  V30 5978 C 574.751 0.579658 -1.93609 0
M  V30 5979 C 575.072 1.69332 -0.967043 0
M  V30 5980 O 574.342 1.95892 -0.0174215 0
M  V30 5981 H 572.922 0.217113 -0.714752 0
M  V30 5982 H 575.584 -0.146226 -1.94351 0
M  V30 5983 H 574.68 0.996276 -2.95771 0
M  V30 5984 N 574.981 1.5647 0.188427 0
M  V30 5985 C 575.928 1.95073 1.23349 0
M  V30 5986 C 576.898 0.812238 1.44886 0
M  V30 5987 O 578.083 1.07095 1.57909 0
M  V30 5988 C 575.223 2.30124 2.57171 0
M  V30 5989 C 574.336 3.57069 2.43157 0
M  V30 5990 C 573.471 3.81411 3.69729 0
M  V30 5991 C 572.51 5.0176 3.50575 0
M  V30 5992 N 571.647 5.22321 4.69175 0
M  V30 5993 H 576.487 2.84171 0.89728 0
M  V30 5994 H 574.024 1.40623 0.431683 0
M  V30 5995 H 575.982 2.48463 3.35145 0
M  V30 5996 H 574.612 1.44159 2.88822 0
M  V30 5997 H 573.664 3.4674 1.56447 0
M  V30 5998 H 574.976 4.452 2.24942 0
M  V30 5999 H 574.13 4.00026 4.56141 0
M  V30 6000 H 572.869 2.91624 3.90905 0
M  V30 6001 H 571.874 4.83061 2.62549 0
M  V30 6002 H 573.099 5.93063 3.30837 0
M  V30 6003 H 571.045 4.35483 4.90602 0
M  V30 6004 H 570.962 6.04643 4.53809 0
M  V30 6005 H 572.23 5.45401 5.56919 0
M  V30 6006 N 576.459 -0.456382 1.50847 0
M  V30 6007 C 577.705 -1.20618 1.63777 0
M  V30 6008 C 578.06 -1.8936 0.340677 0
M  V30 6009 O 577.353 -1.79786 -0.662378 0
M  V30 6010 C 577.547 -2.26336 2.76599 0
M  V30 6011 C 577.376 -1.67968 4.17153 0
M  V30 6012 C 576.146 -1.47293 4.83356 0
M  V30 6013 C 578.344 -1.16643 5.00898 0
M  V30 6014 N 576.326 -0.843222 6.08081 0
M  V30 6015 C 577.697 -0.660843 6.16468 0
M  V30 6016 C 579.752 -1.05637 4.86565 0
M  V30 6017 C 578.455 -0.0560365 7.19278 0
M  V30 6018 C 580.481 -0.465485 5.89565 0
M  V30 6019 C 579.843 0.0296516 7.04394 0
M  V30 6020 H 575.942 -0.429725 0.653345 0
M  V30 6021 H 578.526 -0.505784 1.88016 0
M  V30 6022 H 576.697 -2.93785 2.54056 0
M  V30 6023 H 578.429 -2.9334 2.78808 0
M  V30 6024 H 575.184 -1.72934 4.40898 0
M  V30 6025 H 575.608 -0.546357 6.74792 0
M  V30 6026 H 580.25 -1.42508 3.98059 0
M  V30 6027 H 577.968 0.324845 8.07447 0
M  V30 6028 H 581.554 -0.382493 5.80541 0
M  V30 6029 H 580.434 0.479705 7.82731 0
M  V30 6030 N 577.937 -1.40673 -0.710563 0
M  V30 6031 C 578.867 -1.44095 -1.83736 0
M  V30 6032 C 579.848 -0.301286 -1.67411 0
M  V30 6033 O 581.033 -0.510618 -1.87367 0
M  V30 6034 C 578.163 -1.30773 -3.21738 0
M  V30 6035 C 577.117 -2.42395 -3.52745 0
M  V30 6036 C 576.443 -2.14147 -4.89944 0
M  V30 6037 C 577.743 -3.84738 -3.53234 0
M  V30 6038 H 579.437 -2.38396 -1.81129 0
M  V30 6039 H 576.983 -1.14746 -0.870017 0
M  V30 6040 H 578.936 -1.31783 -4.00264 0
M  V30 6041 H 577.66 -0.329507 -3.24934 0
M  V30 6042 H 576.319 -2.40643 -2.76562 0
M  V30 6043 H 575.967 -1.14703 -4.89747 0
M  V30 6044 H 575.667 -2.88934 -5.11655 0
M  V30 6045 H 577.191 -2.16848 -5.70797 0
M  V30 6046 H 578.605 -3.88286 -4.2179 0
M  V30 6047 H 577.002 -4.59085 -3.86473 0
M  V30 6048 H 578.072 -4.13962 -2.52514 0
M  V30 6049 N 579.415 0.9433 -1.26252 0
M  V30 6050 C 580.661 1.69175 -1.11837 0
M  V30 6051 C 580.994 1.91238 0.337891 0
M  V30 6052 O 580.269 1.49152 1.24836 0
M  V30 6053 C 580.552 3.06783 -1.88563 0
M  V30 6054 C 580.405 2.9206 -3.42083 0
M  V30 6055 C 581.724 4.06865 -1.67776 0
M  V30 6056 H 578.843 0.61399 -0.407658 0
M  V30 6057 H 581.485 1.09572 -1.55222 0
M  V30 6058 H 579.635 3.57663 -1.51689 0
M  V30 6059 H 581.307 2.48419 -3.88698 0
M  V30 6060 H 579.55 2.27731 -3.69217 0
M  V30 6061 H 580.221 3.89651 -3.90994 0
M  V30 6062 H 582.697 3.64939 -1.99897 0
M  V30 6063 H 581.573 5.01168 -2.23879 0
M  V30 6064 H 581.834 4.37705 -0.621816 0
M  V30 6065 N 580.893 1.08022 1.14757 0
M  V30 6066 C 582.139 0.808705 1.85978 0
M  V30 6067 C 582.472 -0.663764 1.82504 0
M  V30 6068 O 581.747 -1.48765 1.25296 0
M  V30 6069 C 582.03 1.32623 3.34788 0
M  V30 6070 C 581.883 2.86375 3.46856 0
M  V30 6071 C 583.202 0.948291 4.29762 0
M  V30 6072 H 580.321 0.295244 0.675278 0
M  V30 6073 H 582.963 1.33917 1.34783 0
M  V30 6074 H 581.113 0.875002 3.78518 0
M  V30 6075 H 582.785 3.39839 3.11941 0
M  V30 6076 H 581.028 3.24232 2.88194 0
M  V30 6077 H 581.699 3.17658 4.51439 0
M  V30 6078 H 584.175 1.33722 3.94028 0
M  V30 6079 H 583.051 1.33765 5.32352 0
M  V30 6080 H 583.312 -0.145094 4.41862 0
M  V30 6081 N 582.371 -1.3172 0.865308 0
M  V30 6082 C 583.301 -2.31109 0.333302 0
M  V30 6083 C 584.282 -1.60148 -0.573301 0
M  V30 6084 O 585.467 -1.87882 -0.491305 0
M  V30 6085 C 582.597 -3.44104 -0.470078 0
M  V30 6086 C 581.551 -4.26623 0.343021 0
M  V30 6087 C 580.877 -5.31482 -0.585756 0
M  V30 6088 C 582.177 -4.98001 1.57456 0
M  V30 6089 H 583.871 -2.75855 1.1638 0
M  V30 6090 H 581.417 -1.3262 0.561069 0
M  V30 6091 H 583.37 -4.12682 -0.852752 0
M  V30 6092 H 582.094 -2.98112 -1.33404 0
M  V30 6093 H 580.753 -3.59707 0.707583 0
M  V30 6094 H 580.401 -4.81741 -1.44686 0
M  V30 6095 H 580.101 -5.87582 -0.0456494 0
M  V30 6096 H 581.625 -6.0292 -0.965375 0
M  V30 6097 H 583.039 -5.59201 1.26359 0
M  V30 6098 H 581.436 -5.63876 2.05339 0
M  V30 6099 H 582.506 -4.25253 2.32997 0
M  V30 6100 N 583.85 -0.624285 -1.44708 0
M  V30 6101 C 585.075 -0.131171 -2.06985 0
M  V30 6102 C 585.5 1.18234 -1.46295 0
M  V30 6103 O 584.858 1.72375 -0.561842 0
M  V30 6104 C 584.906 -0.0226724 -3.60593 0
M  V30 6105 O 584.01 1.02314 -3.99507 0
M  V30 6106 H 583.351 -0.0816556 -0.65896 0
M  V30 6107 H 585.88 -0.859027 -1.85693 0
M  V30 6108 H 585.891 0.170138 -4.07645 0
M  V30 6109 H 584.566 -0.981685 -4.04148 0
M  V30 6110 H 583.143 0.805452 -3.64097 0
M  V30 6111 N 585.328 1.53329 -0.364422 0
M  V30 6112 C 586.275 2.25698 0.482607 0
M  V30 6113 C 587.245 1.26325 1.07848 0
M  V30 6114 O 588.43 1.55104 1.11119 0
M  V30 6115 C 585.57 3.04873 1.61699 0
M  V30 6116 C 584.683 4.19135 1.0464 0
M  V30 6117 C 583.818 4.85754 2.14979 0
M  V30 6118 C 582.857 5.9205 1.5538 0
M  V30 6119 N 581.994 6.52365 2.59547 0
M  V30 6120 H 586.834 2.97666 -0.141032 0
M  V30 6121 H 584.371 1.46875 -0.0813692 0
M  V30 6122 H 586.329 3.49051 2.28516 0
M  V30 6123 H 584.959 2.35162 2.2113 0
M  V30 6124 H 584.011 3.79451 0.268553 0
M  V30 6125 H 585.323 4.95525 0.570653 0
M  V30 6126 H 584.477 5.3311 2.89619 0
M  V30 6127 H 583.216 4.08834 2.65906 0
M  V30 6128 H 582.221 5.44058 0.792549 0
M  V30 6129 H 583.446 6.7089 1.0528 0
M  V30 6130 H 581.392 5.78298 3.09689 0
M  V30 6131 H 581.309 7.2429 2.16655 0
M  V30 6132 H 582.577 7.0437 3.33892 0
M  V30 6133 N 586.806 0.0935595 1.57322 0
M  V30 6134 C 588.053 -0.570509 1.94297 0
M  V30 6135 C 588.381 -1.68286 0.97519 0
M  V30 6136 O 587.636 -1.95699 -0.00548655 0
M  V30 6137 C 587.935 -1.16692 3.37813 0
M  V30 6138 C 587.601 -0.178509 4.50547 0
M  V30 6139 C 586.263 0.0933475 4.81109 0
M  V30 6140 C 588.615 0.496472 5.1883 0
M  V30 6141 C 585.943 1.0469 5.77284 0
M  V30 6142 C 588.295 1.43849 6.16028 0
M  V30 6143 C 586.959 1.71859 6.44997 0
M  V30 6144 H 586.229 -0.208764 0.710984 0
M  V30 6145 H 588.876 0.169066 1.90752 0
M  V30 6146 H 587.181 -1.98271 3.37929 0
M  V30 6147 H 588.878 -1.6884 3.63722 0
M  V30 6148 H 585.468 -0.400584 4.26724 0
M  V30 6149 H 589.652 0.299584 4.95395 0
M  V30 6150 H 584.908 1.27094 5.98044 0
M  V30 6151 H 589.082 1.96734 6.68034 0
M  V30 6152 H 586.709 2.45906 7.19329 0
M  V30 6153 N 588.284 -1.56567 -0.180126 0
M  V30 6154 C 589.509 -1.85975 -0.918041 0
M  V30 6155 C 589.934 -0.678888 -1.75422 0
M  V30 6156 O 589.292 0.372168 -1.77439 0
M  V30 6157 C 589.34 -3.13731 -1.77779 0
M  V30 6158 O 588.444 -2.95335 -2.87838 0
M  V30 6159 H 587.785 -0.61196 -0.257683 0
M  V30 6160 H 590.315 -2.03798 -0.180923 0
M  V30 6161 H 590.325 -3.4491 -2.17948 0
M  V30 6162 H 589 -3.99293 -1.16352 0
M  V30 6163 H 587.577 -2.7549 -2.51316 0
M  V30 6164 N 589.762 0.448376 -1.51087 0
M  V30 6165 C 590.709 1.54341 -1.71603 0
M  V30 6166 C 591.679 1.56463 -0.557536 0
M  V30 6167 O 592.864 1.73644 -0.79072 0
M  V30 6168 C 590.004 2.92148 -1.83695 0
M  V30 6169 C 589.117 2.99639 -3.11192 0
M  V30 6170 C 588.252 4.285 -3.13944 0
M  V30 6171 C 587.291 4.29819 -4.35801 0
M  V30 6172 N 586.428 5.50186 -4.36164 0
M  V30 6173 H 591.268 1.36151 -2.65079 0
M  V30 6174 H 588.805 0.661585 -1.31383 0
M  V30 6175 H 590.763 3.72093 -1.88687 0
M  V30 6176 H 589.393 3.0892 -0.936374 0
M  V30 6177 H 588.445 2.12425 -3.15562 0
M  V30 6178 H 589.757 2.96474 -4.01129 0
M  V30 6179 H 588.911 5.16811 -3.17791 0
M  V30 6180 H 587.65 4.34307 -2.21876 0
M  V30 6181 H 586.655 3.39902 -4.32142 0
M  V30 6182 H 587.88 4.25685 -5.29121 0
M  V30 6183 H 585.826 5.56735 -3.46961 0
M  V30 6184 H 585.743 5.48856 -5.19897 0
M  V30 6185 H 587.011 6.40559 -4.44189 0
M  V30 6186 N 591.24 1.41047 0.703093 0
M  V30 6187 C 592.517 1.30493 1.45708 0
M  V30 6188 C 592.897 -0.0709892 2.10981 0
M  V30 6189 O 592.245 -1.08471 2.01113 0
M  V30 6190 C 592.455 2.45287 2.48265 0
M  V30 6191 C 593.803 2.86104 3.13735 0
M  V30 6192 O 594.827 2.44971 2.58587 0
M  V30 6193 O 593.686 3.57206 4.13601 0
M  V30 6194 H 590.78 0.513144 0.648546 0
M  V30 6195 H 593.326 1.52995 0.734208 0
M  V30 6196 H 592.098 3.37135 1.98635 0
M  V30 6197 H 591.721 2.24622 3.28071 0
M  V30 6198 N 592.718 -0.936591 1.26751 0
M  V30 6199 C 594.134 -1.21095 1.03963 0
M  V30 6200 C 594.334 -2.00156 -0.232372 0
M  V30 6201 O 593.39 -2.3434 -0.940274 0
M  V30 6202 C 594.703 -1.96775 2.27377 0
M  V30 6203 C 596.251 -2.09749 2.32324 0
M  V30 6204 C 596.726 -2.88832 3.55443 0
M  V30 6205 N 598.217 -2.96404 3.55948 0
M  V30 6206 C 598.952 -3.58036 4.47881 0
M  V30 6207 N 598.448 -4.21132 5.50109 0
M  V30 6208 N 600.241 -3.55353 4.35523 0
M  V30 6209 H 592.392 -0.408173 2.08441 0
M  V30 6210 H 594.655 -0.243139 0.91629 0
M  V30 6211 H 594.361 -1.46094 3.19921 0
M  V30 6212 H 594.235 -2.97424 2.31989 0
M  V30 6213 H 596.622 -2.5962 1.40291 0
M  V30 6214 H 596.703 -1.08347 2.31721 0
M  V30 6215 H 596.347 -2.39647 4.47808 0
M  V30 6216 H 596.277 -3.90499 3.53296 0
M  V30 6217 H 598.768 -2.51552 2.82011 0
M  V30 6218 H 599.081 -4.66071 6.16439 0
M  V30 6219 H 597.426 -4.19705 5.53961 0
M  V30 6220 H 600.617 -3.05256 3.54875 0
M  V30 6221 H 600.79 -4.03097 5.07363 0
M  V30 6222 N 594.196 -1.08629 -1.14182 0
M  V30 6223 C 595.443 -0.817345 -1.85272 0
M  V30 6224 C 595.771 0.656917 -1.83071 0
M  V30 6225 O 595.026 1.49897 -1.25815 0
M  V30 6226 C 595.325 -1.28734 -3.3341 0
M  V30 6227 C 594.991 -2.76981 -3.55798 0
M  V30 6228 C 593.653 -3.17469 -3.61617 0
M  V30 6229 C 596.005 -3.72605 -3.64438 0
M  V30 6230 C 593.333 -4.52371 -3.736 0
M  V30 6231 C 595.685 -5.07286 -3.77947 0
M  V30 6232 C 594.349 -5.47376 -3.82016 0
M  V30 6233 H 593.619 -0.299088 -0.677958 0
M  V30 6234 H 596.266 -1.35962 -1.34857 0
M  V30 6235 H 594.571 -0.664702 -3.8612 0
M  V30 6236 H 596.268 -1.05598 -3.86846 0
M  V30 6237 H 592.858 -2.44644 -3.51919 0
M  V30 6238 H 597.042 -3.42443 -3.5923 0
M  V30 6239 H 592.298 -4.82882 -3.75013 0
M  V30 6240 H 596.472 -5.81243 -3.83575 0
M  V30 6241 H 594.099 -6.51906 -3.91054 0
M  V30 6242 N 595.674 1.31259 -0.872281 0
M  V30 6243 C 596.604 2.30929 -0.345554 0
M  V30 6244 C 597.585 1.60449 0.5648 0
M  V30 6245 O 598.77 1.8814 0.481335 0
M  V30 6246 C 595.9 3.44348 0.451823 0
M  V30 6247 C 594.854 4.26435 -0.365641 0
M  V30 6248 C 594.18 5.31785 0.557562 0
M  V30 6249 C 595.48 4.97159 -1.60095 0
M  V30 6250 H 597.174 2.75234 -1.17841 0
M  V30 6251 H 594.72 1.3232 -0.568094 0
M  V30 6252 H 596.673 4.13128 0.830854 0
M  V30 6253 H 595.397 2.98816 1.31821 0
M  V30 6254 H 594.056 3.59326 -0.726649 0
M  V30 6255 H 593.704 4.82502 1.4213 0
M  V30 6256 H 593.404 5.87598 0.0144878 0
M  V30 6257 H 594.928 6.03424 0.933387 0
M  V30 6258 H 596.342 5.58523 -1.29323 0
M  V30 6259 H 594.739 5.62779 -2.08327 0
M  V30 6260 H 595.809 4.24012 -2.35249 0
M  V30 6261 N 597.152 0.631951 1.44375 0
M  V30 6262 C 598.563 0.219036 1.85411 0
M  V30 6263 C 598.914 -1.22974 1.52879 0
M  V30 6264 O 598.039 -1.93579 0.967266 0
M  V30 6265 C 598.634 0.39075 3.36539 0
M  V30 6266 C 597.193 0.0323351 3.76386 0
M  V30 6267 C 596.34 0.703744 2.68221 0
M  V30 6268 H 599.291 0.837056 1.3483 0
M  V30 6269 H 599.312 -0.370056 3.78696 0
M  V30 6270 H 598.824 1.44527 3.60185 0
M  V30 6271 H 596.925 -1.02042 3.58355 0
M  V30 6272 H 597.038 0.442969 4.77048 0
M  V30 6273 H 595.402 0.138974 2.54321 0
M  V30 6274 H 596.185 1.76088 2.947 0
M  V30 6275 N 598.631 -1.53133 0.372548 0
M  V30 6276 C 599.877 -2.01654 -0.215277 0
M  V30 6277 C 600.21 -1.25914 -1.47849 0
M  V30 6278 O 599.485 -0.3548 -1.91237 0
M  V30 6279 C 599.768 -3.56609 -0.500187 0
M  V30 6280 C 599.621 -4.43036 0.777145 0
M  V30 6281 C 600.94 -4.20528 -1.29786 0
M  V30 6282 H 598.059 -0.732991 -0.0767686 0
M  V30 6283 H 600.701 -1.83335 0.498814 0
M  V30 6284 H 598.851 -3.7235 -1.10852 0
M  V30 6285 H 600.523 -4.39079 1.41447 0
M  V30 6286 H 598.766 -4.10723 1.39604 0
M  V30 6287 H 599.437 -5.49424 0.532662 0
M  V30 6288 H 601.913 -4.08663 -0.783198 0
M  V30 6289 H 600.789 -5.28962 -1.46596 0
M  V30 6290 H 601.05 -3.77051 -2.30836 0
M  V30 6291 N 600.109 -0.101901 -1.5727 0
M  V30 6292 C 601.357 0.559091 -1.94213 0
M  V30 6293 C 601.678 1.68297 -0.984948 0
M  V30 6294 O 600.948 1.95863 -0.0381975 0
M  V30 6295 H 599.528 0.20952 -0.717015 0
M  V30 6296 H 602.19 -0.166831 -1.94185 0
M  V30 6297 H 601.286 0.96485 -2.96811 0
M  V30 6298 N 601.587 1.56661 0.17182 0
M  V30 6299 C 602.998 1.71652 0.734329 0
M  V30 6300 C 603.349 0.712335 1.82812 0
M  V30 6301 O 602.474 -0.126401 2.16031 0
M  V30 6302 C 603.069 3.11226 1.3388 0
M  V30 6303 C 601.628 3.27904 1.84813 0
M  V30 6304 C 600.775 2.67603 0.726917 0
M  V30 6305 H 603.726 1.5861 -0.0535665 0
M  V30 6306 H 603.747 3.09849 2.20849 0
M  V30 6307 H 603.259 3.8429 0.54249 0
M  V30 6308 H 601.36 2.59796 2.6709 0
M  V30 6309 H 601.473 4.35637 1.99392 0
M  V30 6310 H 599.837 2.274 1.14723 0
M  V30 6311 H 600.62 3.43252 -0.0575334 0
M  V30 6312 N 603.065 -0.440357 1.51323 0
M  V30 6313 C 603.995 -1.54174 1.75364 0
M  V30 6314 C 604.976 -1.59039 0.603375 0
M  V30 6315 O 606.161 -1.74815 0.845774 0
M  V30 6316 C 603.291 -2.92277 1.87593 0
M  V30 6317 C 602.245 -3.02274 3.03009 0
M  V30 6318 C 601.571 -4.42327 3.00418 0
M  V30 6319 C 602.871 -2.76634 4.43024 0
M  V30 6320 H 604.565 -1.34307 2.67585 0
M  V30 6321 H 602.111 -0.644678 1.28763 0
M  V30 6322 H 604.064 -3.69284 2.02995 0
M  V30 6323 H 602.788 -3.13369 0.920179 0
M  V30 6324 H 601.447 -2.27706 2.87307 0
M  V30 6325 H 601.095 -4.60382 2.02626 0
M  V30 6326 H 600.795 -4.49946 3.77918 0
M  V30 6327 H 602.319 -5.21312 3.17909 0
M  V30 6328 H 603.733 -3.43376 4.59093 0
M  V30 6329 H 602.13 -2.95666 5.22208 0
M  V30 6330 H 603.2 -1.72262 4.5327 0
M  V30 6331 N 604.543 -1.41418 -0.695603 0
M  V30 6332 C 605.493 -1.39731 -1.80165 0
M  V30 6333 C 606.477 -0.271689 -1.5859 0
M  V30 6334 O 607.669 -0.512354 -1.69422 0
M  V30 6335 C 604.798 -1.28187 -3.1847 0
M  V30 6336 C 603.884 -2.45612 -3.45739 0
M  V30 6337 N 604.275 -3.71077 -3.43708 0
M  V30 6338 C 602.573 -2.39424 -3.76288 0
M  V30 6339 C 603.274 -4.48957 -3.69882 0
M  V30 6340 N 602.25 -3.7907 -3.89624 0
M  V30 6341 H 606.052 -2.34656 -1.76957 0
M  V30 6342 H 603.566 -1.35473 -0.89559 0
M  V30 6343 H 605.563 -1.2506 -3.977 0
M  V30 6344 H 604.223 -0.342468 -3.22889 0
M  V30 6345 H 605.234 -4.03963 -3.2409 0
M  V30 6346 H 601.911 -1.53955 -3.88077 0
M  V30 6347 H 603.301 -5.57887 -3.74448 0
M  V30 6348 N 606.021 0.929856 -1.27246 0
M  V30 6349 C 607.432 1.49223 -1.12203 0
M  V30 6350 C 607.783 1.93989 0.293731 0
M  V30 6351 O 606.908 1.80978 1.18642 0
M  V30 6352 C 607.503 2.71198 -2.0307 0
M  V30 6353 C 606.062 3.23666 -1.92139 0
M  V30 6354 C 605.209 1.96409 -1.95752 0
M  V30 6355 H 608.16 0.744181 -1.4017 0
M  V30 6356 H 608.181 3.45905 -1.58524 0
M  V30 6357 H 607.693 2.38585 -3.06102 0
M  V30 6358 H 605.794 3.61042 -0.920834 0
M  V30 6359 H 605.907 3.90006 -2.78267 0
M  V30 6360 H 604.271 2.12806 -1.39949 0
M  V30 6361 H 605.054 1.66113 -3.00436 0
M  V30 6362 N 607.499 1.09233 1.13605 0
M  V30 6363 C 608.409 0.741939 2.22559 0
M  V30 6364 C 609.425 -0.255236 1.72118 0
M  V30 6365 O 610.601 -0.0970747 2.01166 0
M  V30 6366 C 607.666 0.165595 3.46304 0
M  V30 6367 C 606.727 1.21846 4.11645 0
M  V30 6368 C 605.96 0.669526 5.29484 0
M  V30 6369 O 606.183 -0.508228 5.68131 0
M  V30 6370 O 605.117 1.42361 5.84822 0
M  V30 6371 H 608.943 1.65107 2.54899 0
M  V30 6372 H 606.528 0.866584 1.21699 0
M  V30 6373 H 608.41 -0.152592 4.21124 0
M  V30 6374 H 607.085 -0.716573 3.15669 0
M  V30 6375 H 605.992 1.58931 3.38662 0
M  V30 6376 H 607.325 2.07321 4.46407 0
M  V30 6377 N 608.977 -1.30795 0.87923 0
M  V30 6378 C 609.925 -2.30231 0.331112 0
M  V30 6379 C 610.919 -1.59918 -0.558794 0
M  V30 6380 O 612.125 -1.74441 -0.443866 0
M  V30 6381 H 608.5 -0.746785 0.088409 0
M  V30 6382 H 610.471 -2.73925 1.18353 0
M  V30 6383 C 609.22 -3.44848 -0.444401 0
M  V30 6384 H 608.543 -3.99131 0.231106 0
M  V30 6385 H 609.983 -4.16516 -0.793109 0
M  V30 6386 C 608.442 -2.94329 -1.63926 0
M  V30 6387 O 608.972 -2.93875 -2.73862 0
M  V30 6388 N 607.178 -2.50413 -1.4745 0
M  V30 6389 H 606.725 -2.50982 -0.58015 0
M  V30 6390 H 606.683 -2.16969 -2.27534 0
M  V30 6391 N 610.455 -0.639598 -1.44038 0
M  V30 6392 C 611.732 -0.078012 -1.95444 0
M  V30 6393 C 612.112 1.39847 -1.58133 0
M  V30 6394 O 611.46 2.11714 -0.859614 0
M  V30 6395 C 611.67 -0.309832 -3.47622 0
M  V30 6396 C 613.018 -0.207521 -4.24093 0
M  V30 6397 O 614.042 -0.241653 -3.55379 0
M  V30 6398 O 612.901 -0.119641 -5.46369 0
M  V30 6399 H 609.995 0.0174534 -0.826816 0
M  V30 6400 H 612.541 -0.711891 -1.54046 0
M  V30 6401 H 611.313 -1.33401 -3.67858 0
M  V30 6402 H 610.936 0.357777 -3.95987 0
M  V30 6403 N 611.933 1.52934 -0.380664 0
M  V30 6404 C 612.865 2.23822 0.493581 0
M  V30 6405 C 613.878 1.25761 1.03383 0
M  V30 6406 O 615.067 1.5189 0.937633 0
M  V30 6407 C 612.167 2.9342 1.69582 0
M  V30 6408 C 611.34 4.18115 1.28445 0
M  V30 6409 C 610.399 4.70788 2.35042 0
M  V30 6410 O 609.425 5.34093 1.96807 0
M  V30 6411 N 610.627 4.49899 3.66839 0
M  V30 6412 H 613.392 2.99484 -0.11371 0
M  V30 6413 H 610.953 1.60577 -0.206587 0
M  V30 6414 H 612.945 3.2556 2.40401 0
M  V30 6415 H 611.515 2.21119 2.20965 0
M  V30 6416 H 610.735 3.92109 0.405503 0
M  V30 6417 H 612.023 4.99152 0.986132 0
M  V30 6418 H 611.421 3.99349 4.0067 0
M  V30 6419 H 609.978 4.86551 4.33718 0
M  V30 6420 N 613.412 0.11024 1.57214 0
M  V30 6421 C 614.342 -0.840002 2.17867 0
M  V30 6422 C 615.323 -1.28352 1.11624 0
M  V30 6423 O 616.508 -1.3477 1.39824 0
M  V30 6424 C 613.638 -2.09349 2.77111 0
M  V30 6425 C 612.592 -1.78807 3.8886 0
M  V30 6426 C 611.918 -3.11112 4.34872 0
M  V30 6427 C 613.218 -1.0632 5.11364 0
M  V30 6428 H 614.912 -0.334608 2.97524 0
M  V30 6429 H 612.458 -0.159502 1.43114 0
M  V30 6430 H 614.411 -2.76275 3.18198 0
M  V30 6431 H 613.135 -2.62198 1.9473 0
M  V30 6432 H 611.794 -1.14273 3.48335 0
M  V30 6433 H 611.442 -3.61877 3.49362 0
M  V30 6434 H 611.142 -2.91453 5.10224 0
M  V30 6435 H 612.666 -3.79171 4.78604 0
M  V30 6436 H 614.08 -1.63383 5.49526 0
M  V30 6437 H 612.477 -0.967876 5.92243 0
M  V30 6438 H 613.547 -0.0484569 4.84876 0
M  V30 6439 N 614.89 -1.56749 -0.16351 0
M  V30 6440 C 616.139 -1.81626 -0.877211 0
M  V30 6441 C 616.452 -0.688791 -1.83071 0
M  V30 6442 O 617.658 -0.822697 -2.58735 0
M  V30 6443 C 616.114 -3.21858 -1.61045 0
M  V30 6444 C 615.722 -4.42494 -0.700195 0
M  V30 6445 C 617.466 -3.56021 -2.31192 0
M  V30 6446 C 615.373 -5.73748 -1.43412 0
M  V30 6447 H 614.303 -0.67731 -0.331312 0
M  V30 6448 H 616.954 -1.83039 -0.13006 0
M  V30 6449 H 615.336 -3.14784 -2.40264 0
M  V30 6450 H 616.51 -4.60766 0.0555849 0
M  V30 6451 H 614.825 -4.1626 -0.10799 0
M  V30 6452 H 617.422 -4.51333 -2.8671 0
M  V30 6453 H 617.765 -2.81277 -3.06902 0
M  V30 6454 H 618.298 -3.64682 -1.58909 0
M  V30 6455 H 615.037 -6.51543 -0.719186 0
M  V30 6456 H 614.557 -5.5944 -2.16302 0
M  V30 6457 H 616.236 -6.15975 -1.9795 0
M  V30 6458 N 616.368 0.432326 -1.51554 0
M  V30 6459 C 617.645 1.19288 -1.55015 0
M  V30 6460 C 618.025 2.08701 -0.317375 0
M  V30 6461 O 617.373 2.17602 0.697243 0
M  V30 6462 C 617.583 1.99037 -2.86679 0
M  V30 6463 C 618.931 2.55907 -3.38817 0
M  V30 6464 O 619.955 2.09243 -2.88263 0
M  V30 6465 O 618.814 3.41029 -4.27038 0
M  V30 6466 H 615.908 0.543369 -0.623441 0
M  V30 6467 H 618.454 0.440988 -1.6387 0
M  V30 6468 H 617.226 1.33397 -3.6786 0
M  V30 6469 H 616.849 2.81281 -2.8101 0
M  V30 6470 N 617.846 1.41785 0.688094 0
M  V30 6471 C 619.095 1.4084 1.44385 0
M  V30 6472 C 619.408 0.0234166 1.95586 0
M  V30 6473 O 620.614 -0.108647 2.71283 0
M  V30 6474 C 619.07 2.47675 2.61123 0
M  V30 6475 C 618.678 3.92116 2.16677 0
M  V30 6476 C 620.422 2.55877 3.38714 0
M  V30 6477 C 618.329 4.90487 3.30419 0
M  V30 6478 H 617.259 0.523787 0.542368 0
M  V30 6479 H 619.91 1.6764 0.74627 0
M  V30 6480 H 618.292 2.14018 3.33185 0
M  V30 6481 H 619.466 4.35059 1.51856 0
M  V30 6482 H 617.781 3.87642 1.5206 0
M  V30 6483 H 620.378 3.26553 4.234 0
M  V30 6484 H 620.721 1.59801 3.84408 0
M  V30 6485 H 621.254 2.88662 2.73714 0
M  V30 6486 H 617.993 5.87994 2.89729 0
M  V30 6487 H 617.513 4.52187 3.94065 0
M  V30 6488 H 619.192 5.11591 3.96085 0
M  V30 6489 N 619.324 -0.923095 1.27737 0
M  V30 6490 C 620.549 -1.71054 1.17283 0
M  V30 6491 C 620.974 -1.86208 -0.266153 0
M  V30 6492 O 620.332 -1.36545 -1.1927 0
M  V30 6493 C 620.38 -3.0854 1.86642 0
M  V30 6494 O 619.484 -3.95528 1.16752 0
M  V30 6495 H 618.825 -0.524136 0.407649 0
M  V30 6496 H 621.355 -1.15487 1.6889 0
M  V30 6497 H 621.365 -3.58828 1.94182 0
M  V30 6498 H 620.04 -2.96828 2.91317 0
M  V30 6499 H 618.617 -3.53967 1.17312 0
M  V30 6500 N 620.802 -1.09834 -1.13024 0
M  V30 6501 C 622.05 -0.835297 -1.8403 0
M  V30 6502 C 622.371 0.640944 -1.84165 0
M  V30 6503 O 621.641 1.46517 -1.30037 0
M  V30 6504 H 620.221 -0.306018 -0.681441 0
M  V30 6505 H 622.883 -1.38734 -1.36891 0
M  V30 6506 H 621.979 -1.19258 -2.88416 0
M  V30 6507 N 622.28 1.30327 -0.886154 0
M  V30 6508 C 623.19 2.31854 -0.357866 0
M  V30 6509 C 624.206 1.65392 0.540502 0
M  V30 6510 O 625.382 1.96683 0.433339 0
M  V30 6511 C 622.447 3.44171 0.417999 0
M  V30 6512 C 621.508 4.26257 -0.510263 0
M  V30 6513 C 620.741 5.3321 0.228669 0
M  V30 6514 O 620.964 5.51542 1.45458 0
M  V30 6515 O 619.898 6.0042 -0.421832 0
M  V30 6516 H 623.724 2.78995 -1.19982 0
M  V30 6517 H 621.309 1.34518 -0.650028 0
M  V30 6518 H 623.191 4.12588 0.857251 0
M  V30 6519 H 621.866 2.99164 1.23623 0
M  V30 6520 H 620.773 3.60533 -0.99835 0
M  V30 6521 H 622.106 4.74871 -1.29454 0
M  V30 6522 N 623.758 0.647228 1.43697 0
M  V30 6523 C 624.668 -0.0487997 2.34549 0
M  V30 6524 C 625.684 -0.818586 1.53542 0
M  V30 6525 O 626.86 -0.767195 1.86215 0
M  V30 6526 C 623.925 -1.00734 3.31743 0
M  V30 6527 C 622.986 -0.23515 4.28655 0
M  V30 6528 C 622.219 -1.14803 5.21206 0
M  V30 6529 O 622.442 -2.38717 5.18045 0
M  V30 6530 O 621.376 -0.623667 5.9866 0
M  V30 6531 H 625.202 0.698863 2.9555 0
M  V30 6532 H 622.787 0.407412 1.43738 0
M  V30 6533 H 624.669 -1.55837 3.91526 0
M  V30 6534 H 623.344 -1.73534 2.73254 0
M  V30 6535 H 622.251 0.359319 3.7237 0
M  V30 6536 H 623.584 0.453152 4.9011 0
M  V30 6537 N 625.236 -1.5273 0.388769 0
M  V30 6538 C 626.169 -2.22861 -0.490752 0
M  V30 6539 C 627.147 -1.22912 -1.06449 0
M  V30 6540 O 628.331 -1.51896 -1.11624 0
M  V30 6541 C 625.458 -2.94141 -1.67925 0
M  V30 6542 C 624.504 -4.08355 -1.23081 0
M  V30 6543 S 625.337 -5.35077 -0.212786 0
M  V30 6544 C 626.493 -6.09879 -1.40708 0
M  V30 6545 H 626.726 -2.97115 0.104787 0
M  V30 6546 H 624.259 -1.53428 0.172956 0
M  V30 6547 H 626.217 -3.35818 -2.36085 0
M  V30 6548 H 624.878 -2.19568 -2.24608 0
M  V30 6549 H 624.071 -4.57328 -2.11818 0
M  V30 6550 H 623.673 -3.68688 -0.628121 0
M  V30 6551 H 625.965 -6.36018 -2.33424 0
M  V30 6552 H 626.908 -7.01586 -0.958271 0
M  V30 6553 H 627.316 -5.40646 -1.62364 0
M  V30 6554 N 626.714 -0.118576 -1.57153 0
M  V30 6555 C 627.661 0.831789 -2.1529 0
M  V30 6556 C 628.631 1.26385 -1.07778 0
M  V30 6557 O 629.816 1.34144 -1.35684 0
M  V30 6558 C 626.956 2.07664 -2.75626 0
M  V30 6559 C 626.069 1.69298 -3.97444 0
M  V30 6560 C 625.204 2.88747 -4.45868 0
M  V30 6561 C 624.243 2.46619 -5.60219 0
M  V30 6562 N 623.38 3.5898 -6.03389 0
M  V30 6563 H 628.22 0.329183 -2.96176 0
M  V30 6564 H 625.757 0.150792 -1.46325 0
M  V30 6565 H 627.715 2.80601 -3.08738 0
M  V30 6566 H 626.345 2.55384 -1.97431 0
M  V30 6567 H 625.397 0.862374 -3.70496 0
M  V30 6568 H 626.709 1.34338 -4.80369 0
M  V30 6569 H 625.863 3.69909 -4.80887 0
M  V30 6570 H 624.602 3.26933 -3.61892 0
M  V30 6571 H 623.607 1.63889 -5.24805 0
M  V30 6572 H 624.832 2.0955 -6.45961 0
M  V30 6573 H 622.778 3.9684 -5.22354 0
M  V30 6574 H 622.695 3.27942 -6.81168 0
M  V30 6575 H 623.963 4.40583 -6.43045 0
M  V30 6576 N 628.193 1.56834 0.155195 0
M  V30 6577 C 629.123 2.00678 1.19376 0
M  V30 6578 C 630.104 0.884973 1.45266 0
M  V30 6579 O 631.289 1.1522 1.56326 0
M  V30 6580 C 628.419 2.38042 2.5289 0
M  V30 6581 C 627.373 3.53332 2.41538 0
M  V30 6582 C 626.699 3.76485 3.79688 0
M  V30 6583 C 627.999 4.86265 1.9064 0
M  V30 6584 H 629.693 2.87688 0.829232 0
M  V30 6585 H 627.239 1.38407 0.397445 0
M  V30 6586 H 629.192 2.67314 3.25763 0
M  V30 6587 H 627.916 1.4796 2.91162 0
M  V30 6588 H 626.575 3.24213 1.71117 0
M  V30 6589 H 626.223 2.83667 4.15382 0
M  V30 6590 H 625.923 4.54068 3.72956 0
M  V30 6591 H 627.447 4.08174 4.54122 0
M  V30 6592 H 628.861 5.14308 2.53299 0
M  V30 6593 H 627.258 5.67597 1.94818 0
M  V30 6594 H 628.328 4.77184 0.861596 0
M  V30 6595 N 629.671 -0.424282 1.51781 0
M  V30 6596 C 630.917 -1.17434 1.6534 0
M  V30 6597 C 631.25 -1.90549 0.374806 0
M  V30 6598 O 630.525 -1.84145 -0.626179 0
M  V30 6599 C 630.808 -2.18093 2.86544 0
M  V30 6600 C 630.661 -1.48975 4.24413 0
M  V30 6601 C 631.98 -3.18934 3.03264 0
M  V30 6602 H 629.099 -0.425566 0.601716 0
M  V30 6603 H 631.741 -0.461921 1.84299 0
M  V30 6604 H 629.891 -2.78849 2.7051 0
M  V30 6605 H 631.563 -0.914551 4.52143 0
M  V30 6606 H 629.806 -0.791893 4.26511 0
M  V30 6607 H 630.477 -2.22347 5.05238 0
M  V30 6608 H 632.953 -2.68243 3.18096 0
M  V30 6609 H 631.829 -3.86645 3.89611 0
M  V30 6610 H 632.09 -3.85793 2.15908 0
M  V30 6611 N 631.149 -1.42148 -0.680565 0
M  V30 6612 C 632.099 -1.41634 -1.78672 0
M  V30 6613 C 633.083 -0.288494 -1.58293 0
M  V30 6614 O 634.275 -0.530295 -1.68869 0
M  V30 6615 C 631.404 -1.31558 -3.17092 0
M  V30 6616 C 630.49 -2.49265 -3.43115 0
M  V30 6617 N 630.881 -3.74702 -3.39753 0
M  V30 6618 C 629.179 -2.43401 -3.73727 0
M  V30 6619 C 629.88 -4.52854 -3.651 0
M  V30 6620 N 628.856 -3.83181 -3.85582 0
M  V30 6621 H 632.658 -2.3652 -1.74458 0
M  V30 6622 H 630.172 -1.36415 -0.881171 0
M  V30 6623 H 632.169 -1.29272 -3.96351 0
M  V30 6624 H 630.829 -0.376696 -3.22508 0
M  V30 6625 H 631.84 -4.07378 -3.19787 0
M  V30 6626 H 628.517 -1.58062 -3.86423 0
M  V30 6627 H 629.907 -5.61827 -3.6851 0
M  V30 6628 N 632.627 0.916307 -1.28225 0
M  V30 6629 C 633.904 1.64429 -1.05936 0
M  V30 6630 C 634.284 2.07234 0.402139 0
M  V30 6631 O 633.632 1.81535 1.3877 0
M  V30 6632 C 633.842 2.83773 -2.03159 0
M  V30 6633 C 635.19 3.54852 -2.33164 0
M  V30 6634 O 636.214 2.93918 -2.01223 0
M  V30 6635 O 635.073 4.64663 -2.87664 0
M  V30 6636 H 632.167 0.721221 -0.404683 0
M  V30 6637 H 634.713 0.965838 -1.39534 0
M  V30 6638 H 633.485 2.49217 -3.01673 0
M  V30 6639 H 633.108 3.59333 -1.70192 0
M  V30 6640 N 634.105 1.10431 1.1244 0
M  V30 6641 C 635.353 0.845045 1.83585 0
M  V30 6642 C 635.674 -0.631168 1.84503 0
M  V30 6643 O 634.944 -1.45825 1.30813 0
M  V30 6644 H 633.524 0.309628 0.679809 0
M  V30 6645 H 636.186 1.39458 1.36153 0
M  V30 6646 H 635.282 1.20786 2.8778 0
M  V30 6647 N 635.583 -1.29855 0.893053 0
M  V30 6648 C 636.994 -1.77946 0.564998 0
M  V30 6649 C 637.345 -1.73339 -0.919134 0
M  V30 6650 O 636.47 -1.3152 -1.71847 0
M  V30 6651 C 637.065 -3.23118 1.01883 0
M  V30 6652 C 635.624 -3.69013 0.742051 0
M  V30 6653 C 634.771 -2.50121 1.19727 0
M  V30 6654 H 637.722 -1.16611 1.07646 0
M  V30 6655 H 637.743 -3.78875 0.351249 0
M  V30 6656 H 637.255 -3.26439 2.09903 0
M  V30 6657 H 635.356 -3.71173 -0.325816 0
M  V30 6658 H 635.469 -4.60117 1.33527 0
M  V30 6659 H 633.833 -2.47128 0.616418 0
M  V30 6660 H 634.616 -2.56174 2.28538 0
M  V30 6661 N 637.061 -0.65484 -1.43351 0
M  V30 6662 C 638.289 -0.176685 -2.06144 0
M  V30 6663 C 638.704 1.15831 -1.49093 0
M  V30 6664 O 638.061 1.71542 -0.622868 0
M  V30 6665 C 638.112 -0.0813326 -3.61408 0
M  V30 6666 O 637.833 -1.36355 -4.1634 0
M  V30 6667 C 639.334 0.422706 -4.4128 0
M  V30 6668 H 636.554 -0.0906429 -0.66485 0
M  V30 6669 H 639.098 -0.895945 -1.83829 0
M  V30 6670 H 637.253 0.588496 -3.82904 0
M  V30 6671 H 637.667 -1.22381 -5.10023 0
M  V30 6672 H 639.141 0.438375 -5.50257 0
M  V30 6673 H 639.618 1.45432 -4.14423 0
M  V30 6674 H 640.224 -0.214687 -4.24758 0
M  V30 6675 N 638.539 1.52521 -0.396863 0
M  V30 6676 C 639.769 2.05792 0.182485 0
M  V30 6677 C 640.177 1.26784 1.40436 0
M  V30 6678 O 639.52 0.309617 1.81072 0
M  V30 6679 C 639.582 3.54291 0.609781 0
M  V30 6680 C 639.246 4.5426 -0.499674 0
M  V30 6681 C 640.243 5.01812 -1.35944 0
M  V30 6682 C 637.928 4.97827 -0.668864 0
M  V30 6683 C 639.922 5.91562 -2.37346 0
M  V30 6684 C 637.609 5.87376 -1.68621 0
M  V30 6685 C 638.607 6.34137 -2.53692 0
M  V30 6686 O 638.295 7.21915 -3.53686 0
M  V30 6687 H 638.027 0.675362 0.0293583 0
M  V30 6688 H 640.581 1.97539 -0.56281 0
M  V30 6689 H 638.811 3.60188 1.40717 0
M  V30 6690 H 640.5 3.90267 1.11565 0
M  V30 6691 H 641.266 4.68879 -1.24008 0
M  V30 6692 H 637.145 4.60997 -0.0163971 0
M  V30 6693 H 640.689 6.27983 -3.03782 0
M  V30 6694 H 636.586 6.19723 -1.80593 0
M  V30 6695 H 637.354 7.39996 -3.49784 0
M  V30 6696 N 640.017 0.126909 1.57088 0
M  V30 6697 C 640.98 -0.806097 2.14557 0
M  V30 6698 C 641.98 -1.18918 1.08236 0
M  V30 6699 O 643.17 -1.11339 1.33975 0
M  V30 6700 C 640.302 -2.09116 2.69227 0
M  V30 6701 H 641.495 -0.306522 2.98329 0
M  V30 6702 H 639.048 -0.122393 1.5582 0
M  V30 6703 H 639.783 -2.63486 1.89065 0
M  V30 6704 H 639.568 -1.82588 3.46993 0
M  V30 6705 H 641.058 -2.75794 3.13572 0
M  V30 6706 N 641.495 -1.56914 -0.146875 0
M  V30 6707 C 642.405 -2.0154 -1.20079 0
M  V30 6708 C 643.421 -0.930838 -1.47008 0
M  V30 6709 O 644.597 -1.24032 -1.58676 0
M  V30 6710 C 641.662 -2.38715 -2.51428 0
M  V30 6711 C 640.723 -3.6112 -2.32145 0
M  V30 6712 C 639.956 -3.96512 -3.57231 0
M  V30 6713 O 640.179 -3.32566 -4.63418 0
M  V30 6714 O 639.113 -4.89758 -3.49887 0
M  V30 6715 H 642.939 -2.91506 -0.851924 0
M  V30 6716 H 640.524 -1.45106 -0.355607 0
M  V30 6717 H 642.406 -2.63485 -3.28867 0
M  V30 6718 H 641.081 -1.51903 -2.85845 0
M  V30 6719 H 639.988 -3.41536 -1.52656 0
M  V30 6720 H 641.321 -4.48549 -2.02644 0
M  V30 6721 N 642.974 0.416227 -1.52004 0
M  V30 6722 C 644.385 0.995319 -1.57957 0
M  V30 6723 C 644.736 1.91744 -0.415754 0
M  V30 6724 O 643.861 2.11349 0.464808 0
M  V30 6725 C 644.456 1.81191 -2.86278 0
M  V30 6726 C 643.015 2.34115 -2.94732 0
M  V30 6727 C 642.162 1.139 -2.52828 0
M  V30 6728 H 645.113 0.196716 -1.57476 0
M  V30 6729 H 645.134 2.66859 -2.71231 0
M  V30 6730 H 644.646 1.14051 -3.70963 0
M  V30 6731 H 642.747 3.04647 -2.14525 0
M  V30 6732 H 642.86 2.65466 -3.98829 0
M  V30 6733 H 641.224 1.49081 -2.06511 0
M  V30 6734 H 642.007 0.483383 -3.3988 0
M  V30 6735 N 644.452 1.42507 0.673017 0
M  V30 6736 C 645.402 1.4258 1.77919 0
M  V30 6737 C 646.386 0.296885 1.58137 0
M  V30 6738 O 647.578 0.539243 1.68586 0
M  V30 6739 C 644.707 1.33238 3.1639 0
M  V30 6740 C 643.793 2.51081 3.41788 0
M  V30 6741 N 644.184 3.76498 3.37761 0
M  V30 6742 C 642.482 2.4538 3.72431 0
M  V30 6743 C 643.183 4.54784 3.62693 0
M  V30 6744 N 642.159 3.8522 3.83544 0
M  V30 6745 H 645.961 2.37442 1.73201 0
M  V30 6746 H 643.475 1.36881 0.873924 0
M  V30 6747 H 645.472 1.31372 3.9566 0
M  V30 6748 H 644.132 0.393794 3.22303 0
M  V30 6749 H 645.143 4.09068 3.17622 0
M  V30 6750 H 641.82 1.60109 3.85579 0
M  V30 6751 H 643.21 5.63774 3.65525 0
M  V30 6752 N 645.93 -0.909495 1.28709 0
M  V30 6753 C 647.207 -1.63865 1.06806 0
M  V30 6754 C 647.587 -2.07445 -0.391143 0
M  V30 6755 O 646.935 -1.82269 -1.37805 0
M  V30 6756 C 647.145 -2.82692 2.04661 0
M  V30 6757 C 648.493 -3.5361 2.35042 0
M  V30 6758 O 649.517 -2.92847 2.02779 0
M  V30 6759 O 648.376 -4.63131 2.90124 0
M  V30 6760 H 645.47 -0.719065 0.408502 0
M  V30 6761 H 648.016 -0.958424 1.40044 0
M  V30 6762 H 646.788 -2.47614 3.0299 0
M  V30 6763 H 646.411 -3.58426 1.72095 0
M  V30 6764 N 647.408 -1.11026 -1.11852 0
M  V30 6765 C 648.648 -0.866348 -1.85132 0
M  V30 6766 C 649.012 0.597236 -1.82475 0
M  V30 6767 O 650.213 0.957744 -2.51159 0
M  V30 6768 C 648.484 -1.40721 -3.28531 0
M  V30 6769 S 650.043 -1.29964 -4.19112 0
M  V30 6770 H 646.861 -0.312899 -0.638447 0
M  V30 6771 H 649.463 -1.41691 -1.34699 0
M  V30 6772 H 648.167 -2.46631 -3.28027 0
M  V30 6773 H 647.698 -0.85349 -3.8403 0
M  V30 6774 H 649.713 -0.261333 -4.95511 0
M  V30 6775 N 648.886 1.2938 -0.899927 0
M  V30 6776 C 650.135 1.9483 -0.521937 0
M  V30 6777 C 650.448 1.71725 0.936473 0
M  V30 6778 O 651.654 2.31282 1.42199 0
M  V30 6779 C 650.11 3.48911 -0.88255 0
M  V30 6780 C 649.718 3.80815 -2.35974 0
M  V30 6781 C 651.462 4.20595 -0.57448 0
M  V30 6782 C 649.369 5.28142 -2.66121 0
M  V30 6783 H 648.299 0.729285 -0.191468 0
M  V30 6784 H 650.95 1.47103 -1.09695 0
M  V30 6785 H 649.332 3.95293 -0.236459 0
M  V30 6786 H 650.506 3.45291 -3.05141 0
M  V30 6787 H 648.821 3.22271 -2.63686 0
M  V30 6788 H 651.418 5.29031 -0.776556 0
M  V30 6789 H 651.761 4.13442 0.487005 0
M  V30 6790 H 652.294 3.79945 -1.17842 0
M  V30 6791 H 649.033 5.4036 -3.71068 0
M  V30 6792 H 648.553 5.64913 -2.01578 0
M  V30 6793 H 650.232 5.95738 -2.52399 0
M  V30 6794 N 650.364 0.662433 1.43002 0
M  V30 6795 C 651.294 -0.00979809 2.33498 0
M  V30 6796 C 652.275 -0.802329 1.49989 0
M  V30 6797 O 653.46 -0.761964 1.78627 0
M  V30 6798 C 650.59 -0.970446 3.33466 0
M  V30 6799 C 649.544 -0.287383 4.27034 0
M  V30 6800 C 648.87 -1.36012 5.17112 0
M  V30 6801 C 650.17 0.82595 5.15728 0
M  V30 6802 H 651.864 0.745959 2.89958 0
M  V30 6803 H 649.41 0.360172 1.39423 0
M  V30 6804 H 651.363 -1.44971 3.95679 0
M  V30 6805 H 650.087 -1.75748 2.75282 0
M  V30 6806 H 648.746 0.17152 3.66199 0
M  V30 6807 H 648.394 -2.13882 4.55262 0
M  V30 6808 H 648.094 -0.908276 5.80538 0
M  V30 6809 H 649.618 -1.84056 5.82199 0
M  V30 6810 H 651.032 0.42845 5.71697 0
M  V30 6811 H 649.429 1.20282 5.87922 0
M  V30 6812 H 650.499 1.68003 4.54866 0
M  V30 6813 N 651.842 -1.52309 0.404946 0
M  V30 6814 C 653.088 -2.02065 -0.172455 0
M  V30 6815 C 653.421 -1.29022 -1.45145 0
M  V30 6816 O 652.696 -0.395284 -1.90441 0
M  V30 6817 C 652.979 -3.5759 -0.424433 0
M  V30 6818 C 652.832 -4.41287 0.870945 0
M  V30 6819 C 654.151 -4.23186 -1.20837 0
M  V30 6820 H 651.27 -0.734454 -0.0612035 0
M  V30 6821 H 653.912 -1.82236 0.53759 0
M  V30 6822 H 652.062 -3.74617 -1.02929 0
M  V30 6823 H 653.734 -4.3598 1.50729 0
M  V30 6824 H 651.977 -4.07669 1.48284 0
M  V30 6825 H 652.648 -5.48171 0.649083 0
M  V30 6826 H 655.124 -4.10232 -0.696338 0
M  V30 6827 H 654 -5.31953 -1.35343 0
M  V30 6828 H 654.261 -3.81862 -2.22786 0
M  V30 6829 N 653.32 -0.135238 -1.57019 0
M  V30 6830 C 654.736 0.221262 -1.58059 0
M  V30 6831 C 654.936 1.65538 -1.14889 0
M  V30 6832 O 653.992 2.37985 -0.843751 0
M  V30 6833 C 655.305 -0.0268114 -3.00688 0
M  V30 6834 C 656.853 0.0378206 -3.12977 0
M  V30 6835 C 657.328 -0.182769 -4.57635 0
M  V30 6836 N 658.819 -0.129292 -4.6302 0
M  V30 6837 C 659.554 -0.274648 -5.72742 0
M  V30 6838 N 659.05 -0.477075 -6.91155 0
M  V30 6839 N 660.843 -0.213077 -5.61696 0
M  V30 6840 H 652.994 -1.07177 -1.83376 0
M  V30 6841 H 655.257 -0.423338 -0.848227 0
M  V30 6842 H 654.963 -1.01889 -3.36618 0
M  V30 6843 H 654.837 0.697863 -3.70688 0
M  V30 6844 H 657.224 1.02043 -2.76896 0
M  V30 6845 H 657.305 -0.718996 -2.45487 0
M  V30 6846 H 656.949 -1.16243 -4.94419 0
M  V30 6847 H 656.879 0.59423 -5.23237 0
M  V30 6848 H 659.37 0.0229896 -3.77893 0
M  V30 6849 H 659.683 -0.578413 -7.70632 0
M  V30 6850 H 658.028 -0.513252 -6.93102 0
M  V30 6851 H 661.219 -0.0557796 -4.68067 0
M  V30 6852 H 661.392 -0.329796 -6.4716 0
M  V30 6853 N 654.798 1.5699 0.138552 0
M  V30 6854 C 656.214 1.51844 0.491472 0
M  V30 6855 C 656.414 0.845063 1.82923 0
M  V30 6856 O 655.47 0.419143 2.48997 0
M  V30 6857 C 656.783 2.96615 0.493987 0
M  V30 6858 C 658.331 3.076 0.578913 0
M  V30 6859 C 658.806 4.53893 0.612009 0
M  V30 6860 N 660.297 4.5827 0.673997 0
M  V30 6861 C 661.032 5.68852 0.720729 0
M  V30 6862 N 660.528 6.88982 0.726292 0
M  V30 6863 N 662.321 5.56908 0.762253 0
M  V30 6864 H 654.472 1.99158 -0.738228 0
M  V30 6865 H 656.735 0.908693 -0.270149 0
M  V30 6866 H 656.441 3.49172 -0.420933 0
M  V30 6867 H 656.315 3.53017 1.32887 0
M  V30 6868 H 658.702 2.55057 1.48425 0
M  V30 6869 H 658.783 2.54227 -0.283286 0
M  V30 6870 H 658.427 5.07076 -0.289208 0
M  V30 6871 H 658.357 5.05057 1.49082 0
M  V30 6872 H 660.848 3.71793 0.676654 0
M  V30 6873 H 661.161 7.69014 0.764032 0
M  V30 6874 H 659.506 6.91526 0.69403 0
M  V30 6875 H 662.697 4.61969 0.755135 0
M  V30 6876 H 662.87 6.43102 0.795207 0
M  V30 6877 N 656.276 -0.40816 1.52223 0
M  V30 6878 C 657.553 -1.16807 1.56893 0
M  V30 6879 C 657.933 -2.08169 0.350537 0
M  V30 6880 O 657.281 -2.18684 -0.662536 0
M  V30 6881 C 657.491 -1.94451 2.8981 0
M  V30 6882 C 658.839 -2.50484 3.42845 0
M  V30 6883 O 659.863 -2.0463 2.91556 0
M  V30 6884 O 658.722 -3.34192 4.3241 0
M  V30 6885 H 655.816 -0.533382 0.632007 0
M  V30 6886 H 658.362 -0.414862 1.64551 0
M  V30 6887 H 657.134 -1.27527 3.69936 0
M  V30 6888 H 656.757 -2.76775 2.85449 0
M  V30 6889 N 657.755 -1.42862 -0.66545 0
M  V30 6890 C 658.687 -1.43026 -1.79098 0
M  V30 6891 C 659.7 -0.32803 -1.59461 0
M  V30 6892 O 660.889 -0.591709 -1.68407 0
M  V30 6893 C 657.989 -1.21566 -3.16346 0
M  V30 6894 C 657.162 -2.44399 -3.62751 0
M  V30 6895 C 656.221 -2.18344 -4.78761 0
M  V30 6896 O 655.247 -2.91611 -4.88827 0
M  V30 6897 N 656.449 -1.1924 -5.68122 0
M  V30 6898 H 659.214 -2.40045 -1.79439 0
M  V30 6899 H 656.775 -1.37861 -0.848872 0
M  V30 6900 H 658.767 -1.02037 -3.91625 0
M  V30 6901 H 657.337 -0.330368 -3.10849 0
M  V30 6902 H 656.557 -2.79433 -2.78048 0
M  V30 6903 H 657.845 -3.26173 -3.90498 0
M  V30 6904 H 657.243 -0.586603 -5.6265 0
M  V30 6905 H 655.8 -1.05698 -6.43173 0
M  V30 6906 N 659.233 0.902656 -1.29189 0
M  V30 6907 C 660.482 1.6475 -1.16362 0
M  V30 6908 C 660.795 1.93517 0.284682 0
M  V30 6909 O 662.001 2.66192 0.534229 0
M  V30 6910 C 660.457 2.96848 -2.03493 0
M  V30 6911 C 660.065 2.75687 -3.5313 0
M  V30 6912 C 661.809 3.74762 -1.99383 0
M  V30 6913 C 659.716 4.03492 -4.32375 0
M  V30 6914 H 658.646 0.618041 -0.431904 0
M  V30 6915 H 661.297 1.0008 -1.53806 0
M  V30 6916 H 659.679 3.62715 -1.58916 0
M  V30 6917 H 660.853 2.18431 -4.05739 0
M  V30 6918 H 659.168 2.11171 -3.58881 0
M  V30 6919 H 661.765 4.69515 -2.5585 0
M  V30 6920 H 662.108 4.04767 -0.973123 0
M  V30 6921 H 662.641 3.15732 -2.41988 0
M  V30 6922 H 659.38 3.78656 -5.3507 0
M  V30 6923 H 658.9 4.60318 -3.84535 0
M  V30 6924 H 660.579 4.71662 -4.42881 0
M  V30 6925 N 660.711 1.11618 1.11262 0
M  V30 6926 C 661.658 0.7762 2.17356 0
M  V30 6927 C 662.628 -0.253152 1.6416 0
M  V30 6928 O 663.813 -0.129655 1.90359 0
M  V30 6929 C 660.953 0.227581 3.44349 0
M  V30 6930 C 660.066 1.31372 4.1154 0
M  V30 6931 C 659.201 0.72544 5.26223 0
M  V30 6932 C 658.24 1.7913 5.85302 0
M  V30 6933 N 657.377 1.22237 6.91377 0
M  V30 6934 H 662.217 1.68508 2.45783 0
M  V30 6935 H 659.754 0.841475 1.20655 0
M  V30 6936 H 661.712 -0.108483 4.17059 0
M  V30 6937 H 660.342 -0.644486 3.16301 0
M  V30 6938 H 659.394 1.7667 3.36885 0
M  V30 6939 H 660.706 2.12005 4.51504 0
M  V30 6940 H 659.86 0.339541 6.05749 0
M  V30 6941 H 658.599 -0.112188 4.87571 0
M  V30 6942 H 657.604 2.18648 5.04453 0
M  V30 6943 H 658.829 2.63199 6.26022 0
M  V30 6944 H 656.775 0.406423 6.5474 0
M  V30 6945 H 656.692 1.9654 7.30006 0
M  V30 6946 H 657.96 0.863426 7.74703 0
M  V30 6947 N 662.189 -1.289 0.906776 0
M  V30 6948 C 663.417 -1.99401 0.551969 0
M  V30 6949 C 663.832 -1.67816 -0.865048 0
M  V30 6950 O 663.189 -0.927078 -1.57199 0
M  V30 6951 C 663.24 -3.53779 0.743152 0
M  V30 6952 O 662.961 -3.84248 2.1044 0
M  V30 6953 C 664.462 -4.41543 0.39424 0
M  V30 6954 H 661.682 -0.636926 0.211106 0
M  V30 6955 H 664.226 -1.64266 1.21807 0
M  V30 6956 H 662.381 -3.87201 0.124143 0
M  V30 6957 H 662.795 -4.78904 2.13895 0
M  V30 6958 H 664.269 -5.48957 0.578814 0
M  V30 6959 H 664.746 -4.34073 -0.669137 0
M  V30 6960 H 665.352 -4.13605 0.990491 0
M  V30 6961 N 663.667 -0.670007 -1.42649 0
M  V30 6962 C 664.614 0.0112928 -2.30797 0
M  V30 6963 C 665.584 0.797627 -1.45695 0
M  V30 6964 O 666.769 0.770845 -1.74535 0
M  V30 6965 C 663.909 0.95998 -3.31479 0
M  V30 6966 C 663.022 0.167975 -4.31673 0
M  V30 6967 C 662.157 1.11198 -5.19431 0
M  V30 6968 C 661.196 0.311381 -6.11307 0
M  V30 6969 N 660.333 1.20784 -6.91633 0
M  V30 6970 H 665.173 -0.746231 -2.88505 0
M  V30 6971 H 662.71 -0.379739 -1.42114 0
M  V30 6972 H 664.668 1.52379 -3.88377 0
M  V30 6973 H 663.298 1.68419 -2.75382 0
M  V30 6974 H 662.35 -0.512385 -3.76933 0
M  V30 6975 H 663.662 -0.453814 -4.96731 0
M  V30 6976 H 662.816 1.74587 -5.81037 0
M  V30 6977 H 661.555 1.76766 -4.54538 0
M  V30 6978 H 660.56 -0.335758 -5.48774 0
M  V30 6979 H 661.785 -0.340135 -6.78248 0
M  V30 6980 H 659.731 1.85001 -6.29373 0
M  V30 6981 H 659.648 0.64102 -7.53277 0
M  V30 6982 H 660.916 1.82936 -7.5773 0
M  V30 6983 N 665.145 1.52092 -0.413018 0
M  V30 6984 C 666.092 2.27119 0.410558 0
M  V30 6985 C 667.062 1.29692 1.03774 0
M  V30 6986 O 668.247 1.58561 1.06128 0
M  V30 6987 C 665.387 3.09863 1.51918 0
M  V30 6988 C 664.5 4.22252 0.912528 0
M  V30 6989 C 663.635 4.92348 1.99417 0
M  V30 6990 C 662.674 5.96694 1.36466 0
M  V30 6991 N 661.811 6.60292 2.38661 0
M  V30 6992 H 666.651 2.97067 -0.235661 0
M  V30 6993 H 664.188 1.46542 -0.128055 0
M  V30 6994 H 666.146 3.56144 2.17295 0
M  V30 6995 H 664.776 2.42078 2.13537 0
M  V30 6996 H 663.828 3.80113 0.147697 0
M  V30 6997 H 665.14 4.9709 0.412717 0
M  V30 6998 H 664.294 5.42054 2.72512 0
M  V30 6999 H 663.033 4.17087 2.52764 0
M  V30 7000 H 662.038 5.46304 0.61906 0
M  V30 7001 H 663.263 6.73899 0.838827 0
M  V30 7002 H 661.209 5.87858 2.91134 0
M  V30 7003 H 661.126 7.30816 1.93503 0
M  V30 7004 H 662.394 7.14635 3.11314 0
M  V30 7005 N 666.623 0.143563 1.56945 0
M  V30 7006 C 667.872 -0.50835 1.95189 0
M  V30 7007 C 668.185 -1.66239 1.03073 0
M  V30 7008 O 669.391 -2.3787 1.30882 0
M  V30 7009 C 667.847 -0.955735 3.46978 0
M  V30 7010 C 667.455 0.171183 4.47673 0
M  V30 7011 C 669.199 -1.57763 3.94095 0
M  V30 7012 C 667.106 -0.294279 5.90667 0
M  V30 7013 H 666.036 -0.193679 0.728701 0
M  V30 7014 H 668.687 0.227357 1.82086 0
M  V30 7015 H 667.069 -1.7466 3.55401 0
M  V30 7016 H 668.243 0.948049 4.50942 0
M  V30 7017 H 666.558 0.701273 4.10452 0
M  V30 7018 H 669.155 -1.93745 4.98364 0
M  V30 7019 H 669.498 -2.46531 3.35452 0
M  V30 7020 H 670.031 -0.851728 3.88575 0
M  V30 7021 H 666.77 0.557939 6.53121 0
M  V30 7022 H 666.29 -1.0371 5.90766 0
M  V30 7023 H 667.969 -0.747426 6.42668 0
M  V30 7024 N 668.101 -1.57061 -0.130224 0
M  V30 7025 C 669.331 -1.88159 -0.853217 0
M  V30 7026 C 669.739 -0.731675 -1.7448 0
M  V30 7027 O 669.082 0.307035 -1.81116 0
M  V30 7028 C 669.144 -3.1415 -1.74785 0
M  V30 7029 C 668.808 -4.45202 -1.03173 0
M  V30 7030 C 669.805 -5.18526 -0.377759 0
M  V30 7031 C 667.49 -4.91912 -1.01624 0
M  V30 7032 C 669.484 -6.36775 0.282123 0
M  V30 7033 C 667.171 -6.10082 -0.352555 0
M  V30 7034 C 668.169 -6.82361 0.295483 0
M  V30 7035 O 667.857 -7.98284 0.948606 0
M  V30 7036 H 667.589 -0.627596 -0.251197 0
M  V30 7037 H 670.143 -2.05034 -0.1226 0
M  V30 7038 H 668.373 -2.93328 -2.51983 0
M  V30 7039 H 670.062 -3.31359 -2.34427 0
M  V30 7040 H 670.828 -4.83498 -0.381417 0
M  V30 7041 H 666.707 -4.35566 -1.51007 0
M  V30 7042 H 670.251 -6.93129 0.788525 0
M  V30 7043 H 666.148 -6.44569 -0.346621 0
M  V30 7044 H 666.916 -8.14054 0.851954 0
M  V30 7045 N 669.579 0.400081 -1.52437 0
M  V30 7046 C 670.489 1.51253 -1.79331 0
M  V30 7047 C 671.505 1.60188 -0.679396 0
M  V30 7048 O 672.681 1.76733 -0.965791 0
M  V30 7049 C 669.746 2.869 -1.94652 0
M  V30 7050 C 668.807 2.87777 -3.18564 0
M  V30 7051 C 668.04 4.16954 -3.33145 0
M  V30 7052 O 668.263 5.11329 -2.52783 0
M  V30 7053 O 667.197 4.2487 -4.26343 0
M  V30 7054 H 671.023 1.31461 -2.73773 0
M  V30 7055 H 668.608 0.586834 -1.37392 0
M  V30 7056 H 670.49 3.67336 -2.065 0
M  V30 7057 H 669.165 3.06741 -1.034 0
M  V30 7058 H 668.072 2.06162 -3.12167 0
M  V30 7059 H 669.405 2.72886 -4.09627 0
M  V30 7060 N 671.057 1.43213 0.657864 0
M  V30 7061 C 672.473 1.26511 0.972992 0
M  V30 7062 C 672.673 0.181477 2.00681 0
M  V30 7063 O 671.729 -0.441649 2.48608 0
M  V30 7064 C 673.042 2.62784 1.46168 0
M  V30 7065 C 674.59 2.70278 1.57857 0
M  V30 7066 C 675.065 4.06958 2.10117 0
M  V30 7067 N 676.556 4.08999 2.17426 0
M  V30 7068 C 677.291 5.11585 2.58975 0
M  V30 7069 N 676.787 6.24548 2.99853 0
M  V30 7070 N 678.58 4.9894 2.58873 0
M  V30 7071 H 670.731 2.12384 -0.0263129 0
M  V30 7072 H 672.994 0.946638 0.0507992 0
M  V30 7073 H 672.7 3.43022 0.776474 0
M  V30 7074 H 672.574 2.87863 2.43751 0
M  V30 7075 H 674.961 1.90376 2.25479 0
M  V30 7076 H 675.042 2.4897 0.587179 0
M  V30 7077 H 674.686 4.87325 1.43098 0
M  V30 7078 H 674.616 4.25628 3.10078 0
M  V30 7079 H 677.107 3.27457 1.88627 0
M  V30 7080 H 677.42 6.98661 3.30292 0
M  V30 7081 H 675.765 6.28027 2.97669 0
M  V30 7082 H 678.956 4.09757 2.26311 0
M  V30 7083 H 679.129 5.79019 2.90932 0
M  V30 7084 N 672.536 -0.895792 1.29666 0
M  V30 7085 C 673.484 -2.02173 1.15017 0
M  V30 7086 C 674.478 -1.69276 0.0647651 0
M  V30 7087 O 675.684 -1.7859 0.224846 0
M  V30 7088 H 672.059 -0.662719 0.355397 0
M  V30 7089 H 674.03 -2.11666 2.10334 0
M  V30 7090 C 672.779 -3.37212 0.847555 0
M  V30 7091 H 672.102 -3.6303 1.67479 0
M  V30 7092 H 673.542 -4.16668 0.785106 0
M  V30 7093 C 672.001 -3.33891 -0.44929 0
M  V30 7094 O 672.531 -3.73673 -1.47415 0
M  V30 7095 N 670.737 -2.86991 -0.456547 0
M  V30 7096 H 670.284 -2.54813 0.377925 0
M  V30 7097 H 670.242 -2.85152 -1.32423 0
M  V30 7098 N 674.014 -1.12206 -1.10668 0
M  V30 7099 C 675.291 -0.787382 -1.79052 0
M  V30 7100 C 675.671 0.723267 -1.98323 0
M  V30 7101 O 675.019 1.6561 -1.57434 0
M  V30 7102 C 675.229 -1.55968 -3.1221 0
M  V30 7103 C 676.577 -1.74413 -3.87125 0
M  V30 7104 O 677.601 -1.5246 -3.21923 0
M  V30 7105 O 676.46 -2.10952 -5.04144 0
M  V30 7106 H 673.554 -0.286137 -0.775922 0
M  V30 7107 H 676.1 -1.22595 -1.1734 0
M  V30 7108 H 674.872 -2.58692 -2.93588 0
M  V30 7109 H 674.495 -1.1152 -3.8164 0
M  V30 7110 N 675.492 1.28418 -0.913599 0
M  V30 7111 C 676.903 1.77024 -0.593237 0
M  V30 7112 C 677.254 1.74779 0.891441 0
M  V30 7113 O 676.379 1.34237 1.69733 0
M  V30 7114 C 676.974 3.21456 -1.07011 0
M  V30 7115 C 675.533 3.67786 -0.800664 0
M  V30 7116 C 674.68 2.48185 -1.23691 0
M  V30 7117 H 677.631 1.14883 -1.09487 0
M  V30 7118 H 677.652 3.78269 -0.411481 0
M  V30 7119 H 677.164 3.23058 -2.1507 0
M  V30 7120 H 675.265 3.71644 0.266725 0
M  V30 7121 H 675.378 4.57934 -1.4083 0
M  V30 7122 H 673.742 2.46116 -0.655655 0
M  V30 7123 H 674.525 2.52506 -2.32585 0
M  V30 7124 N 676.97 0.677563 1.42291 0
M  V30 7125 C 678.2 0.209155 2.05539 0
M  V30 7126 C 678.608 -1.13987 1.51009 0
M  V30 7127 O 677.951 -1.71976 0.645764 0
M  V30 7128 C 678.013 0.0697758 3.59432 0
M  V30 7129 C 677.677 1.34795 4.36668 0
M  V30 7130 C 678.674 2.28201 4.67141 0
M  V30 7131 C 676.359 1.59632 4.76259 0
M  V30 7132 C 678.353 3.44718 5.36142 0
M  V30 7133 C 676.04 2.76437 5.45 0
M  V30 7134 C 677.038 3.68805 5.74867 0
M  V30 7135 O 676.726 4.83567 6.42198 0
M  V30 7136 H 676.458 0.0986202 0.668768 0
M  V30 7137 H 679.012 0.925483 1.83368 0
M  V30 7138 H 677.242 -0.702157 3.80272 0
M  V30 7139 H 678.931 -0.359115 4.04308 0
M  V30 7140 H 679.697 2.10264 4.37052 0
M  V30 7141 H 675.576 0.886073 4.52404 0
M  V30 7142 H 679.12 4.16833 5.59371 0
M  V30 7143 H 675.017 2.94299 5.74507 0
M  V30 7144 H 675.785 4.83147 6.6069 0
M  V30 7145 N 678.448 -1.51871 0.421078 0
M  V30 7146 C 679.695 -2.01938 -0.15079 0
M  V30 7147 C 680.023 -1.30611 -1.44121 0
M  V30 7148 O 679.278 -0.404631 -1.91471 0
M  V30 7149 C 679.577 -3.54764 -0.433292 0
M  V30 7150 C 679.243 -4.44288 0.76936 0
M  V30 7151 C 677.905 -4.68477 1.09921 0
M  V30 7152 C 680.257 -4.96915 1.57242 0
M  V30 7153 C 677.585 -5.4254 2.2331 0
M  V30 7154 C 679.937 -5.7222 2.69716 0
M  V30 7155 C 678.601 -5.94678 3.03174 0
M  V30 7156 H 677.871 -0.738943 -0.0551781 0
M  V30 7157 H 680.518 -1.82977 0.564945 0
M  V30 7158 H 678.823 -3.71968 -1.23074 0
M  V30 7159 H 680.52 -3.91023 -0.888922 0
M  V30 7160 H 677.11 -4.25646 0.502305 0
M  V30 7161 H 681.294 -4.78125 1.3308 0
M  V30 7162 H 676.55 -5.58146 2.49565 0
M  V30 7163 H 680.724 -6.11992 3.32323 0
M  V30 7164 H 678.351 -6.51848 3.9115 0
M  V30 7165 N 679.926 -0.151884 -1.56866 0
M  V30 7166 C 680.889 0.771861 -2.15812 0
M  V30 7167 C 681.889 1.17181 -1.10115 0
M  V30 7168 O 683.079 1.09194 -1.35729 0
M  V30 7169 C 680.211 2.04806 -2.7252 0
M  V30 7170 H 681.404 0.259021 -2.98779 0
M  V30 7171 H 678.957 0.097588 -1.55995 0
M  V30 7172 H 679.692 2.60445 -1.93233 0
M  V30 7173 H 679.477 1.77044 -3.49854 0
M  V30 7174 H 680.967 2.70771 -3.1792 0
M  V30 7175 N 681.404 1.57128 0.121893 0
M  V30 7176 C 682.629 1.89254 0.848385 0
M  V30 7177 C 683.054 0.743527 1.72781 0
M  V30 7178 O 682.412 -0.306056 1.78698 0
M  V30 7179 C 682.46 3.20113 1.66012 0
M  V30 7180 O 681.564 3.05815 2.76679 0
M  V30 7181 H 680.905 0.621103 0.234793 0
M  V30 7182 H 683.435 2.0433 0.10516 0
M  V30 7183 H 683.445 3.52761 2.04996 0
M  V30 7184 H 682.12 4.03336 1.01452 0
M  V30 7185 H 680.697 2.84627 2.40918 0
M  V30 7186 N 682.882 -0.391992 1.52647 0
M  V30 7187 C 684.122 -1.1463 1.69232 0
M  V30 7188 C 684.486 -1.87312 0.421684 0
M  V30 7189 O 685.687 -2.64768 0.463852 0
M  V30 7190 C 683.958 -2.10088 2.89133 0
M  V30 7191 S 685.517 -2.93395 3.2629 0
M  V30 7192 H 682.335 -0.388076 0.59575 0
M  V30 7193 H 684.937 -0.431149 1.90687 0
M  V30 7194 H 683.641 -1.55408 3.79837 0
M  V30 7195 H 683.172 -2.86116 2.70003 0
M  V30 7196 H 685.187 -4.12193 2.76244 0
M  V30 7197 N 684.36 -1.4356 -0.65026 0
M  V30 7198 C 685.776 -1.27025 -0.966269 0
M  V30 7199 C 685.976 -0.192117 -2.00582 0
M  V30 7200 O 685.032 0.428459 -2.48838 0
M  V30 7201 C 686.345 -2.63556 -1.44772 0
M  V30 7202 C 687.893 -2.71111 -1.56421 0
M  V30 7203 C 688.368 -4.08067 -2.07956 0
M  V30 7204 N 689.859 -4.10146 -2.15254 0
M  V30 7205 C 690.594 -5.12952 -2.56258 0
M  V30 7206 N 690.09 -6.26129 -2.96537 0
M  V30 7207 N 691.883 -5.00306 -2.56224 0
M  V30 7208 H 684.034 -2.12367 0.0375758 0
M  V30 7209 H 686.297 -0.946894 -0.0457782 0
M  V30 7210 H 686.003 -3.43429 -0.758271 0
M  V30 7211 H 685.877 -2.89152 -2.42221 0
M  V30 7212 H 688.264 -1.91569 -2.24467 0
M  V30 7213 H 688.345 -2.49277 -0.573967 0
M  V30 7214 H 687.989 -4.88077 -1.40511 0
M  V30 7215 H 687.919 -4.27266 -3.07817 0
M  V30 7216 H 690.41 -3.28453 -1.86887 0
M  V30 7217 H 690.723 -7.00403 -3.26582 0
M  V30 7218 H 689.068 -6.29597 -2.94334 0
M  V30 7219 H 692.259 -4.10952 -2.24135 0
M  V30 7220 H 692.432 -5.80553 -2.87857 0
M  V30 7221 N 685.838 0.888903 -1.30139 0
M  V30 7222 C 686.801 1.97576 -1.16174 0
M  V30 7223 C 687.801 1.60525 -0.094086 0
M  V30 7224 O 688.991 1.70812 -0.341889 0
M  V30 7225 C 686.123 3.3188 -0.778983 0
M  V30 7226 H 687.316 2.11393 -2.12728 0
M  V30 7227 H 684.869 1.0748 -1.1348 0
M  V30 7228 H 685.604 3.23765 0.186225 0
M  V30 7229 H 685.389 3.60141 -1.55051 0
M  V30 7230 H 686.879 4.11612 -0.704631 0
M  V30 7231 N 687.317 1.12792 1.10072 0
M  V30 7232 C 688.249 0.757003 2.16338 0
M  V30 7233 C 689.262 -0.218144 1.61332 0
M  V30 7234 O 690.451 0.0010727 1.785 0
M  V30 7235 C 687.551 0.100303 3.38752 0
M  V30 7236 C 686.724 1.10586 4.2319 0
M  V30 7237 C 685.783 0.47609 5.24042 0
M  V30 7238 O 684.809 1.13418 5.57786 0
M  V30 7239 N 686.011 -0.754823 5.75572 0
M  V30 7240 H 688.776 1.6714 2.48766 0
M  V30 7241 H 686.337 1.02003 1.25726 0
M  V30 7242 H 688.329 -0.333092 4.03327 0
M  V30 7243 H 686.899 -0.716915 3.04268 0
M  V30 7244 H 686.119 1.71677 3.54853 0
M  V30 7245 H 687.407 1.78571 4.76435 0
M  V30 7246 H 686.805 -1.30838 5.50362 0
M  V30 7247 H 685.362 -1.13098 6.41913 0
M  V30 7248 N 688.795 -1.27931 0.920396 0
M  V30 7249 C 689.758 -2.25345 0.41858 0
M  V30 7250 C 690.758 -1.54116 -0.458798 0
M  V30 7251 O 691.948 -1.72235 -0.260912 0
M  V30 7252 C 689.08 -3.38556 -0.399104 0
M  V30 7253 H 690.273 -2.71251 1.27918 0
M  V30 7254 H 687.826 -1.39728 0.700406 0
M  V30 7255 H 688.561 -2.98021 -1.27882 0
M  V30 7256 H 688.346 -3.91426 0.229863 0
M  V30 7257 H 689.836 -4.10976 -0.740817 0
M  V30 7258 N 690.273 -0.685099 -1.4193 0
M  V30 7259 C 691.183 -0.013404 -2.34596 0
M  V30 7260 C 692.199 0.777589 -1.55658 0
M  V30 7261 O 693.375 0.717553 -1.88184 0
M  V30 7262 C 690.44 0.919031 -3.34297 0
M  V30 7263 C 689.501 0.121417 -4.29128 0
M  V30 7264 C 688.734 1.00944 -5.24067 0
M  V30 7265 O 688.957 2.24898 -5.24192 0
M  V30 7266 O 687.891 0.464724 -6.00103 0
M  V30 7267 H 691.717 -0.776978 -2.93593 0
M  V30 7268 H 689.302 -0.445379 -1.42607 0
M  V30 7269 H 691.184 1.45402 -3.9552 0
M  V30 7270 H 689.859 1.66228 -2.77759 0
M  V30 7271 H 688.766 -0.45792 -3.71287 0
M  V30 7272 H 690.099 -0.582937 -4.88736 0
M  V30 7273 N 691.751 1.51645 -0.429126 0
M  V30 7274 C 692.698 2.27542 0.386446 0
M  V30 7275 C 693.668 1.30786 1.02393 0
M  V30 7276 O 694.853 1.59678 1.0444 0
M  V30 7277 C 691.993 3.11457 1.48623 0
M  V30 7278 C 691.106 4.23196 0.867691 0
M  V30 7279 C 690.241 4.94435 1.94183 0
M  V30 7280 C 689.28 5.98108 1.30129 0
M  V30 7281 N 688.417 6.62786 2.31644 0
M  V30 7282 H 693.257 2.968 -0.267155 0
M  V30 7283 H 690.794 1.46397 -0.143591 0
M  V30 7284 H 692.752 3.58429 2.13506 0
M  V30 7285 H 691.382 2.44329 2.10957 0
M  V30 7286 H 690.434 3.80248 0.107373 0
M  V30 7287 H 691.746 4.97499 0.35997 0
M  V30 7288 H 690.9 5.44914 2.66747 0
M  V30 7289 H 689.639 4.19744 2.48326 0
M  V30 7290 H 688.644 5.4693 0.561082 0
M  V30 7291 H 689.869 6.74751 0.767303 0
M  V30 7292 H 687.815 5.90913 2.84883 0
M  V30 7293 H 687.732 7.32828 1.85741 0
M  V30 7294 H 689 7.17897 3.03717 0
M  V30 7295 N 693.229 0.160201 1.56784 0
M  V30 7296 C 694.506 -0.533355 1.88188 0
M  V30 7297 C 694.886 -1.82072 1.06831 0
M  V30 7298 O 694.234 -2.27946 0.158959 0
M  V30 7299 C 694.444 -0.786034 3.40033 0
M  V30 7300 C 695.792 -1.12097 4.09536 0
M  V30 7301 O 696.816 -0.874949 3.45287 0
M  V30 7302 O 695.675 -1.58457 5.23023 0
M  V30 7303 H 692.769 -0.273589 0.780434 0
M  V30 7304 H 695.315 0.197803 1.68543 0
M  V30 7305 H 694.087 0.124515 3.91102 0
M  V30 7306 H 693.71 -1.57091 3.65251 0
M  V30 7307 N 694.707 -1.5719 -0.113559 0
M  V30 7308 C 695.955 -1.84772 -0.818761 0
M  V30 7309 C 696.276 -0.746196 -1.80158 0
M  V30 7310 O 695.546 0.229305 -1.94553 0
M  V30 7311 H 694.126 -0.681737 -0.305359 0
M  V30 7312 H 696.788 -1.94645 -0.0995845 0
M  V30 7313 H 695.884 -2.80878 -1.36067 0
M  V30 7314 N 696.185 0.383891 -1.52853 0
M  V30 7315 C 697.431 1.13009 -1.68395 0
M  V30 7316 C 697.764 1.89488 -0.425195 0
M  V30 7317 O 697.039 1.8574 0.577136 0
M  V30 7318 C 697.322 2.10419 -2.92226 0
M  V30 7319 C 697.175 1.3767 -4.28214 0
M  V30 7320 C 698.494 3.10781 -3.11614 0
M  V30 7321 H 695.613 0.409463 -0.612788 0
M  V30 7322 H 698.255 0.412895 -1.85459 0
M  V30 7323 H 696.405 2.71579 -2.77808 0
M  V30 7324 H 698.077 0.794352 -4.54409 0
M  V30 7325 H 696.32 0.678533 -4.2846 0
M  V30 7326 H 696.991 2.08874 -5.10956 0
M  V30 7327 H 699.467 2.59715 -3.25096 0
M  V30 7328 H 698.343 3.76179 -3.99725 0
M  V30 7329 H 698.604 3.79933 -2.2606 0
M  V30 7330 N 697.663 1.43903 0.642637 0
M  V30 7331 C 698.891 1.4954 1.42988 0
M  V30 7332 C 699.306 0.116588 1.8844 0
M  V30 7333 O 698.663 -0.875285 1.60141 0
M  V30 7334 C 698.714 2.45031 2.65785 0
M  V30 7335 O 698.435 3.77551 2.22232 0
M  V30 7336 C 699.936 2.60017 3.59035 0
M  V30 7337 H 697.156 0.507544 0.438907 0
M  V30 7338 H 699.7 1.88752 0.786942 0
M  V30 7339 H 697.855 2.08985 3.26196 0
M  V30 7340 H 698.269 4.29001 3.01759 0
M  V30 7341 H 699.743 3.30887 4.41835 0
M  V30 7342 H 700.22 1.64861 4.07084 0
M  V30 7343 H 700.826 2.96918 3.045 0
M  V30 7344 N 699.141 -0.881989 1.30609 0
M  V30 7345 C 700.071 -2.00413 1.1982 0
M  V30 7346 C 701.052 -1.69871 0.0881538 0
M  V30 7347 O 702.237 -1.92304 0.2707 0
M  V30 7348 C 699.367 -3.35641 0.89233 0
M  V30 7349 C 698.321 -3.80451 1.96064 0
M  V30 7350 C 697.647 -5.13003 1.5077 0
M  V30 7351 C 698.947 -3.98855 3.37213 0
M  V30 7352 H 700.641 -2.09698 2.13699 0
M  V30 7353 H 698.187 -1.00754 1.02882 0
M  V30 7354 H 700.14 -4.13669 0.803497 0
M  V30 7355 H 698.864 -3.26497 -0.0821381 0
M  V30 7356 H 697.523 -3.04654 2.03916 0
M  V30 7357 H 697.171 -5.0029 0.521417 0
M  V30 7358 H 696.871 -5.43956 2.22229 0
M  V30 7359 H 698.395 -5.93554 1.43271 0
M  V30 7360 H 699.809 -4.67312 3.32103 0
M  V30 7361 H 698.206 -4.41188 4.06784 0
M  V30 7362 H 699.276 -3.02614 3.78883 0
M  V30 7363 N 700.619 -1.13374 -1.09472 0
M  V30 7364 C 701.529 -0.824029 -2.19652 0
M  V30 7365 C 702.545 0.19118 -1.72947 0
M  V30 7366 O 703.721 0.0223464 -2.01388 0
M  V30 7367 C 700.786 -0.294009 -3.45451 0
M  V30 7368 C 699.847 -1.3704 -4.0684 0
M  V30 7369 C 699.08 -0.86558 -5.26634 0
M  V30 7370 O 699.303 0.29702 -5.69626 0
M  V30 7371 O 698.237 -1.63968 -5.79136 0
M  V30 7372 H 702.063 -1.74454 -2.48595 0
M  V30 7373 H 699.648 -0.911155 -1.18399 0
M  V30 7374 H 701.53 -0.00381039 -4.214 0
M  V30 7375 H 700.205 0.598921 -3.18111 0
M  V30 7376 H 699.112 -1.71391 -3.3253 0
M  V30 7377 H 700.445 -2.23746 -4.38405 0
M  V30 7378 N 702.098 1.27442 -0.927168 0
M  V30 7379 C 703.323 1.99036 -0.583042 0
M  V30 7380 C 703.748 1.68711 0.83176 0
M  V30 7381 O 703.106 0.927081 1.55804 0
M  V30 7382 C 703.154 3.51271 -0.814925 0
M  V30 7383 O 702.258 4.12226 0.119742 0
M  V30 7384 H 701.599 0.624883 -0.224538 0
M  V30 7385 H 704.129 1.62263 -1.24628 0
M  V30 7386 H 704.139 4.01411 -0.730282 0
M  V30 7387 H 702.814 3.72676 -1.84623 0
M  V30 7388 H 701.391 3.72897 -0.0147688 0
M  V30 7389 N 703.576 0.692616 1.41565 0
M  V30 7390 C 704.853 0.150496 1.9502 0
M  V30 7391 C 705.233 -1.33881 1.63215 0
M  V30 7392 O 704.581 -2.08378 0.937598 0
M  V30 7393 C 704.791 0.438636 3.46233 0
M  V30 7394 C 706.139 0.364777 4.2303 0
M  V30 7395 O 707.163 0.373383 3.54238 0
M  V30 7396 O 706.022 0.32234 5.45549 0
M  V30 7397 H 703.116 0.0132454 0.826894 0
M  V30 7398 H 705.662 0.768574 1.51298 0
M  V30 7399 H 704.434 1.46962 3.62654 0
M  V30 7400 H 704.057 -0.210562 3.97042 0
M  V30 7401 N 705.054 -1.51416 0.437162 0
M  V30 7402 C 706.002 -2.29328 -0.388765 0
M  V30 7403 C 706.996 -1.35171 -1.02104 0
M  V30 7404 O 708.202 -1.52513 -0.956024 0
M  V30 7405 H 704.577 -0.738048 -0.144183 0
M  V30 7406 H 706.548 -2.96995 0.289212 0
M  V30 7407 C 705.297 -3.14741 -1.47761 0
M  V30 7408 H 704.62 -3.8708 -1.00045 0
M  V30 7409 H 706.06 -3.72313 -2.02877 0
M  V30 7410 C 704.519 -2.30105 -2.46076 0
M  V30 7411 O 705.049 -1.96055 -3.50607 0
M  V30 7412 N 703.255 -1.93331 -2.1696 0
M  V30 7413 H 702.802 -2.2122 -1.31983 0
M  V30 7414 H 702.76 -1.36999 -2.82982 0
M  V30 7415 N 706.532 -0.168513 -1.56696 0
M  V30 7416 C 707.479 0.762875 -2.17828 0
M  V30 7417 C 708.449 1.22892 -1.11745 0
M  V30 7418 O 709.634 1.29759 -1.39883 0
M  V30 7419 C 706.774 1.9879 -2.82093 0
M  V30 7420 C 705.887 1.56568 -4.02629 0
M  V30 7421 C 705.022 2.74416 -4.54829 0
M  V30 7422 C 704.061 2.28671 -5.67782 0
M  V30 7423 N 703.198 3.39602 -6.14504 0
M  V30 7424 H 708.038 0.23479 -2.97074 0
M  V30 7425 H 705.575 0.104163 -1.46731 0
M  V30 7426 H 707.533 2.70636 -3.17509 0
M  V30 7427 H 706.163 2.48973 -2.05456 0
M  V30 7428 H 705.215 0.744067 -3.73052 0
M  V30 7429 H 706.527 1.18988 -4.844 0
M  V30 7430 H 705.681 3.54423 -4.92412 0
M  V30 7431 H 704.42 3.15254 -3.7211 0
M  V30 7432 H 703.425 1.4711 -5.29753 0
M  V30 7433 H 704.65 1.88894 -6.52301 0
M  V30 7434 H 702.596 3.80021 -5.34715 0
M  V30 7435 H 702.513 3.06105 -6.91257 0
M  V30 7436 H 703.781 4.19902 -6.56737 0
M  V30 7437 N 708.01 1.57248 0.105221 0
M  V30 7438 C 709.256 1.85845 0.811753 0
M  V30 7439 C 709.589 0.756219 1.78871 0
M  V30 7440 O 708.864 -0.236736 1.93054 0
M  V30 7441 C 709.147 3.25059 1.54947 0
M  V30 7442 C 709 4.45898 0.591185 0
M  V30 7443 C 710.319 3.6203 2.50245 0
M  V30 7444 H 707.438 0.675973 0.293649 0
M  V30 7445 H 710.08 1.89849 0.0756269 0
M  V30 7446 H 708.23 3.21776 2.17698 0
M  V30 7447 H 709.902 4.61291 -0.0285352 0
M  V30 7448 H 708.145 4.33693 -0.0962343 0
M  V30 7449 H 708.816 5.40009 1.1443 0
M  V30 7450 H 711.292 3.66192 1.97593 0
M  V30 7451 H 710.168 4.60389 2.98886 0
M  V30 7452 H 710.429 2.90176 3.33542 0
M  V30 7453 N 709.488 -0.375779 1.53054 0
M  V30 7454 C 710.737 -1.11674 1.67964 0
M  V30 7455 C 711.05 -1.90755 0.432655 0
M  V30 7456 O 712.256 -2.67538 0.462109 0
M  V30 7457 C 710.712 -2.0344 2.96884 0
M  V30 7458 C 710.32 -1.29719 4.28809 0
M  V30 7459 C 712.064 -2.7759 3.2116 0
M  V30 7460 C 709.971 -2.20327 5.48826 0
M  V30 7461 H 708.901 -0.420597 0.625791 0
M  V30 7462 H 711.552 -0.378499 1.79554 0
M  V30 7463 H 709.934 -2.80953 2.79072 0
M  V30 7464 H 711.108 -0.573394 4.57219 0
M  V30 7465 H 709.423 -0.674735 4.10897 0
M  V30 7466 H 712.02 -3.4559 4.0801 0
M  V30 7467 H 712.363 -3.42399 2.36789 0
M  V30 7468 H 712.896 -2.07164 3.396 0
M  V30 7469 H 709.635 -1.60113 6.35645 0
M  V30 7470 H 709.155 -2.90585 5.2471 0
M  V30 7471 H 710.834 -2.80116 5.83219 0
M  V30 7472 N 710.966 -1.44241 -0.634997 0
M  V30 7473 C 712.382 -1.28043 -0.952742 0
M  V30 7474 C 712.582 -0.21338 -2.00367 0
M  V30 7475 O 711.638 0.402042 -2.49279 0
M  V30 7476 C 712.951 -2.65076 -1.41968 0
M  V30 7477 C 714.499 -2.72755 -1.53537 0
M  V30 7478 C 714.974 -4.10249 -2.03616 0
M  V30 7479 N 716.465 -4.12406 -2.10892 0
M  V30 7480 C 717.2 -5.15641 -2.50803 0
M  V30 7481 N 716.696 -6.29239 -2.89879 0
M  V30 7482 N 718.489 -5.02995 -2.50903 0
M  V30 7483 H 710.64 -2.12315 0.060098 0
M  V30 7484 H 712.903 -0.947326 -0.0357325 0
M  V30 7485 H 712.609 -3.44213 -0.721804 0
M  V30 7486 H 712.483 -2.91704 -2.39141 0
M  V30 7487 H 714.87 -1.93939 -2.22422 0
M  V30 7488 H 714.951 -2.49872 -0.547496 0
M  V30 7489 H 714.595 -4.8954 -1.35327 0
M  V30 7490 H 714.525 -4.30507 -3.03268 0
M  V30 7491 H 717.016 -3.30417 -1.83393 0
M  V30 7492 H 717.329 -7.03827 -3.19135 0
M  V30 7493 H 715.674 -6.32683 -2.8764 0
M  V30 7494 H 718.865 -4.13306 -2.19763 0
M  V30 7495 H 719.038 -5.83574 -2.81683 0
M  V30 7496 N 712.444 0.87505 -1.31075 0
M  V30 7497 C 713.721 1.60976 -1.11113 0
M  V30 7498 C 714.101 2.08409 0.336006 0
M  V30 7499 O 713.449 1.85858 1.32924 0
M  V30 7500 C 713.659 2.77166 -2.12085 0
M  V30 7501 C 715.007 3.47254 -2.44335 0
M  V30 7502 O 716.031 2.87367 -2.10472 0
M  V30 7503 O 714.89 4.55276 -3.02301 0
M  V30 7504 H 711.984 0.707982 -0.427424 0
M  V30 7505 H 714.53 0.920957 -1.42536 0
M  V30 7506 H 713.302 2.39494 -3.09449 0
M  V30 7507 H 712.925 3.53737 -1.81538 0
M  V30 7508 N 713.922 1.13953 1.08869 0
M  V30 7509 C 715.17 0.903023 1.80803 0
M  V30 7510 C 715.491 -0.572151 1.86417 0
M  V30 7511 O 714.761 -1.41589 1.35386 0
M  V30 7512 H 713.341 0.331099 0.669614 0
M  V30 7513 H 716.003 1.43719 1.31647 0
M  V30 7514 H 715.099 1.29881 2.83791 0
M  V30 7515 N 715.4 -1.26948 0.933913 0
M  V30 7516 C 716.348 -2.2862 0.428463 0
M  V30 7517 C 717.342 -1.62144 -0.490464 0
M  V30 7518 O 718.548 -1.76167 -0.36948 0
M  V30 7519 H 714.923 -0.742363 0.120003 0
M  V30 7520 H 716.894 -2.68659 1.29865 0
M  V30 7521 C 715.643 -3.46423 -0.29774 0
M  V30 7522 H 714.966 -3.97792 0.400183 0
M  V30 7523 H 716.406 -4.19505 -0.615736 0
M  V30 7524 C 714.865 -3.01017 -1.51295 0
M  V30 7525 O 715.395 -3.05226 -2.61151 0
M  V30 7526 N 713.601 -2.56442 -1.36696 0
M  V30 7527 H 713.148 -2.53217 -0.473178 0
M  V30 7528 H 713.106 -2.26424 -2.18127 0
M  V30 7529 N 716.879 -0.700114 -1.41195 0
M  V30 7530 C 717.826 -0.0376652 -2.30769 0
M  V30 7531 C 718.796 0.766544 -1.47354 0
M  V30 7532 O 719.981 0.73365 -1.76131 0
M  V30 7533 C 717.121 0.889452 -3.33441 0
M  V30 7534 C 716.234 0.076373 -4.31932 0
M  V30 7535 C 715.369 1.00155 -5.21673 0
M  V30 7536 C 714.408 0.181644 -6.1183 0
M  V30 7537 N 713.545 1.06087 -6.94039 0
M  V30 7538 H 718.385 -0.80726 -2.86858 0
M  V30 7539 H 715.922 -0.409798 -1.41277 0
M  V30 7540 H 717.88 1.44107 -3.91522 0
M  V30 7541 H 716.51 1.6254 -2.78892 0
M  V30 7542 H 715.562 -0.592223 -3.75762 0
M  V30 7543 H 716.874 -0.559076 -4.95657 0
M  V30 7544 H 716.028 1.62223 -5.8461 0
M  V30 7545 H 714.767 1.67085 -4.58186 0
M  V30 7546 H 713.772 -0.452085 -5.47938 0
M  V30 7547 H 714.997 -0.483925 -6.77374 0
M  V30 7548 H 712.943 1.7161 -6.33156 0
M  V30 7549 H 712.86 0.481094 -7.54468 0
M  V30 7550 H 714.128 1.66822 -7.6144 0
M  V30 7551 N 718.357 1.51182 -0.445186 0
M  V30 7552 C 719.603 2.02452 0.11882 0
M  V30 7553 C 719.936 1.32824 1.41673 0
M  V30 7554 O 719.211 0.445637 1.89326 0
M  V30 7555 C 719.494 3.5859 0.329475 0
M  V30 7556 C 719.347 4.38823 -0.987638 0
M  V30 7557 C 720.666 4.26241 1.09575 0
M  V30 7558 H 717.785 0.735819 0.0417092 0
M  V30 7559 H 720.427 1.80747 -0.585718 0
M  V30 7560 H 718.577 3.77214 0.9296 0
M  V30 7561 H 720.249 4.3183 -1.62235 0
M  V30 7562 H 718.492 4.03594 -1.59041 0
M  V30 7563 H 719.163 5.46257 -0.794192 0
M  V30 7564 H 721.639 4.11934 0.587328 0
M  V30 7565 H 720.515 5.35354 1.21191 0
M  V30 7566 H 720.776 3.87635 2.12584 0
M  V30 7567 N 719.835 0.176821 1.56605 0
M  V30 7568 C 721.251 -0.179278 1.5859 0
M  V30 7569 C 721.451 -1.62433 1.19238 0
M  V30 7570 O 720.507 -2.35665 0.906552 0
M  V30 7571 C 721.82 0.106524 3.00511 0
M  V30 7572 C 723.368 0.0451731 3.12967 0
M  V30 7573 C 723.843 0.304038 4.5699 0
M  V30 7574 N 725.334 0.252008 4.62514 0
M  V30 7575 C 726.069 0.426404 5.71812 0
M  V30 7576 N 725.565 0.660155 6.89648 0
M  V30 7577 N 727.358 0.361926 5.60934 0
M  V30 7578 H 719.509 1.12001 1.8047 0
M  V30 7579 H 721.772 0.445679 0.836704 0
M  V30 7580 H 721.478 1.10778 3.33798 0
M  V30 7581 H 721.352 -0.599337 3.72408 0
M  V30 7582 H 723.739 -0.946662 2.79504 0
M  V30 7583 H 723.82 0.78383 2.43495 0
M  V30 7584 H 723.464 1.29311 4.91163 0
M  V30 7585 H 723.394 -0.455294 5.24628 0
M  V30 7586 H 725.885 0.0772102 3.77821 0
M  V30 7587 H 726.198 0.782529 7.68828 0
M  V30 7588 H 724.543 0.696835 6.91498 0
M  V30 7589 H 727.734 0.17986 4.67754 0
M  V30 7590 H 727.907 0.501263 6.46058 0
M  V30 7591 N 721.313 -1.57302 -0.09688 0
M  V30 7592 C 722.559 -1.86273 -0.801885 0
M  V30 7593 C 722.892 -0.765694 -1.78468 0
M  V30 7594 O 722.167 0.226495 -1.93177 0
M  V30 7595 C 722.45 -3.25876 -1.53221 0
M  V30 7596 C 722.303 -4.46205 -0.567529 0
M  V30 7597 C 723.622 -3.63352 -2.48321 0
M  V30 7598 H 720.741 -0.67752 -0.29006 0
M  V30 7599 H 723.383 -1.89887 -0.0655577 0
M  V30 7600 H 721.533 -3.22926 -2.15988 0
M  V30 7601 H 723.205 -4.6127 0.0529982 0
M  V30 7602 H 721.448 -4.33636 0.119233 0
M  V30 7603 H 722.119 -5.40608 -1.11564 0
M  V30 7604 H 724.595 -3.67234 -1.95648 0
M  V30 7605 H 723.471 -4.61968 -2.9644 0
M  V30 7606 H 723.732 -2.91941 -3.31998 0
M  V30 7607 N 722.791 0.367657 -1.53252 0
M  V30 7608 C 724.021 1.12955 -1.72988 0
M  V30 7609 C 724.429 1.8358 -0.457708 0
M  V30 7610 O 723.772 1.74336 0.579006 0
M  V30 7611 C 723.834 2.20545 -2.83902 0
M  V30 7612 C 723.498 1.69704 -4.24323 0
M  V30 7613 C 724.495 1.16223 -5.06743 0
M  V30 7614 C 722.18 1.7528 -4.70725 0
M  V30 7615 C 724.174 0.689935 -6.33655 0
M  V30 7616 C 721.861 1.27662 -5.97617 0
M  V30 7617 C 722.859 0.746083 -6.78913 0
M  V30 7618 O 722.547 0.276925 -8.03423 0
M  V30 7619 H 722.279 0.343753 -0.582074 0
M  V30 7620 H 724.833 0.433106 -2.00782 0
M  V30 7621 H 723.063 2.93676 -2.51577 0
M  V30 7622 H 724.752 2.82111 -2.91836 0
M  V30 7623 H 725.518 1.11256 -4.72067 0
M  V30 7624 H 721.397 2.15515 -4.07522 0
M  V30 7625 H 724.941 0.275164 -6.97057 0
M  V30 7626 H 720.838 1.32322 -6.31792 0
M  V30 7627 H 721.606 0.396445 -8.17539 0
M  V30 7628 N 724.269 1.44576 0.627338 0
M  V30 7629 C 725.202 1.46206 1.75212 0
M  V30 7630 C 726.18 0.320483 1.5941 0
M  V30 7631 O 727.364 0.518028 1.81242 0
M  V30 7632 C 724.491 1.29834 3.12827 0
M  V30 7633 C 723.537 2.47603 3.47268 0
M  V30 7634 S 724.37 4.10125 3.44322 0
M  V30 7635 C 725.526 3.96183 4.84551 0
M  V30 7636 H 725.759 2.41378 1.73563 0
M  V30 7637 H 723.292 1.3192 0.802283 0
M  V30 7638 H 725.25 1.21075 3.92239 0
M  V30 7639 H 723.911 0.361662 3.12011 0
M  V30 7640 H 723.104 2.3202 4.47418 0
M  V30 7641 H 722.706 2.53121 2.75329 0
M  V30 7642 H 724.998 3.60107 5.73872 0
M  V30 7643 H 725.941 4.96176 5.05188 0
M  V30 7644 H 726.349 3.28177 4.59304 0
M  V30 7645 N 725.747 -0.868086 1.31537 0
M  V30 7646 C 726.975 -1.65402 1.24298 0
M  V30 7647 C 727.39 -1.87827 -0.191389 0
M  V30 7648 O 726.747 -1.43776 -1.12404 0
M  V30 7649 C 726.798 -3.02093 1.9855 0
M  V30 7650 O 726.519 -2.80668 3.36388 0
M  V30 7651 C 728.02 -3.96538 1.98173 0
M  V30 7652 H 725.24 -0.515598 0.429417 0
M  V30 7653 H 727.784 -1.0834 1.73444 0
M  V30 7654 H 725.939 -3.55838 1.53161 0
M  V30 7655 H 726.353 -3.67504 3.74221 0
M  V30 7656 H 727.827 -4.8976 2.54635 0
M  V30 7657 H 728.304 -4.28474 0.964697 0
M  V30 7658 H 728.91 -3.48729 2.4345 0
M  V30 7659 N 727.225 -1.14528 -1.08264 0
M  V30 7660 C 728.45 -0.938381 -1.84957 0
M  V30 7661 C 728.875 0.508044 -1.81109 0
M  V30 7662 O 728.233 1.36146 -1.19724 0
M  V30 7663 C 728.281 -1.44568 -3.30352 0
M  V30 7664 O 727.385 -0.638745 -4.07423 0
M  V30 7665 H 726.726 -0.335394 -0.573068 0
M  V30 7666 H 729.256 -1.52287 -1.36637 0
M  V30 7667 H 729.266 -1.45449 -3.81194 0
M  V30 7668 H 727.941 -2.49876 -3.32468 0
M  V30 7669 H 726.518 -0.698801 -3.66294 0
M  V30 7670 N 728.703 1.26451 -0.940633 0
M  V30 7671 C 729.949 1.94065 -0.58878 0
M  V30 7672 C 730.282 1.7363 0.869853 0
M  V30 7673 O 729.557 1.073 1.62225 0
M  V30 7674 C 729.84 3.47852 -0.931199 0
M  V30 7675 C 729.693 3.77575 -2.44453 0
M  V30 7676 C 731.012 4.37832 -0.446229 0
M  V30 7677 H 728.131 0.704827 -0.21538 0
M  V30 7678 H 730.773 1.4933 -1.17475 0
M  V30 7679 H 728.923 3.86085 -0.432539 0
M  V30 7680 H 730.595 3.49059 -3.01588 0
M  V30 7681 H 728.838 3.23671 -2.88825 0
M  V30 7682 H 729.509 4.85068 -2.63464 0
M  V30 7683 H 731.985 4.06822 -0.873778 0
M  V30 7684 H 730.861 5.44228 -0.714648 0
M  V30 7685 H 731.122 4.37239 0.653815 0
M  V30 7686 N 730.181 0.707592 1.40822 0
M  V30 7687 C 731.144 0.0587224 2.29125 0
M  V30 7688 C 732.144 -0.695624 1.44975 0
M  V30 7689 O 733.334 -0.528718 1.65983 0
M  V30 7690 C 730.466 -0.926939 3.28056 0
M  V30 7691 H 731.659 0.836349 2.88002 0
M  V30 7692 H 729.212 0.471778 1.4901 0
M  V30 7693 H 729.947 -1.7319 2.74182 0
M  V30 7694 H 729.732 -0.389015 3.90165 0
M  V30 7695 H 731.222 -1.37837 3.94196 0
M  V30 7696 N 731.66 -1.50943 0.453197 0
M  V30 7697 C 733.071 -1.86699 -0.00619892 0
M  V30 7698 C 733.422 -1.3693 -1.40515 0
M  V30 7699 O 732.547 -0.726715 -2.03833 0
M  V30 7700 C 733.142 -3.38795 -0.018025 0
M  V30 7701 C 731.701 -3.74028 -0.421885 0
M  V30 7702 C 730.848 -2.74752 0.375087 0
M  V30 7703 H 733.799 -1.43942 0.668317 0
M  V30 7704 H 733.82 -3.71468 -0.824125 0
M  V30 7705 H 733.332 -3.74988 1.00028 0
M  V30 7706 H 731.433 -3.43431 -1.44521 0
M  V30 7707 H 731.546 -4.78908 -0.135664 0
M  V30 7708 H 729.91 -2.5414 -0.168794 0
M  V30 7709 H 730.693 -3.13787 1.39256 0
M  V30 7710 N 733.138 -0.185124 -1.56509 0
M  V30 7711 C 734.07 0.771401 -2.15829 0
M  V30 7712 C 735.083 1.18392 -1.11747 0
M  V30 7713 O 736.272 1.12137 -1.38879 0
M  V30 7714 C 733.372 2.05169 -2.69739 0
M  V30 7715 C 732.545 1.80056 -3.98621 0
M  V30 7716 C 731.604 2.92435 -4.37456 0
M  V30 7717 O 730.63 2.62473 -5.05071 0
M  V30 7718 N 731.832 4.20554 -4.00143 0
M  V30 7719 H 734.597 0.264184 -2.98533 0
M  V30 7720 H 732.158 -0.00281069 -1.619 0
M  V30 7721 H 734.15 2.7947 -2.92709 0
M  V30 7722 H 732.72 2.47041 -1.91545 0
M  V30 7723 H 731.94 0.895862 -3.83885 0
M  V30 7724 H 733.228 1.60662 -4.82768 0
M  V30 7725 H 732.626 4.47753 -3.45736 0
M  V30 7726 H 731.183 4.91514 -4.28085 0
M  V30 7727 N 734.616 1.57351 0.0885366 0
M  V30 7728 C 735.846 1.90355 0.80303 0
M  V30 7729 C 736.254 0.777678 1.72478 0
M  V30 7730 O 735.597 -0.258908 1.81866 0
M  V30 7731 C 735.659 3.18674 1.66395 0
M  V30 7732 C 735.323 4.4778 0.913327 0
M  V30 7733 C 736.32 5.19345 0.240148 0
M  V30 7734 C 734.005 4.94434 0.885462 0
M  V30 7735 C 735.999 6.35803 -0.450854 0
M  V30 7736 C 733.686 6.10802 0.190679 0
M  V30 7737 C 734.684 6.81337 -0.476295 0
M  V30 7738 O 734.372 7.95488 -1.15992 0
M  V30 7739 H 734.104 0.634035 0.234469 0
M  V30 7740 H 736.658 2.05287 0.0681959 0
M  V30 7741 H 734.888 2.99906 2.44117 0
M  V30 7742 H 736.577 3.37458 2.2556 0
M  V30 7743 H 737.343 4.84339 0.253092 0
M  V30 7744 H 733.222 4.39417 1.39406 0
M  V30 7745 H 736.766 6.90795 -0.972019 0
M  V30 7746 H 732.663 6.45261 0.175603 0
M  V30 7747 H 733.431 8.11509 -1.06749 0
M  V30 7748 N 736.094 -0.359525 1.53444 0
M  V30 7749 C 737.342 -1.09935 1.69584 0
M  V30 7750 C 737.663 -1.89656 0.453371 0
M  V30 7751 O 736.933 -1.8852 -0.53263 0
M  V30 7752 H 735.513 -0.408843 0.625185 0
M  V30 7753 H 738.175 -0.40467 1.90653 0
M  V30 7754 H 737.271 -1.78575 2.55964 0
M  V30 7755 N 737.572 -1.44907 -0.619662 0
M  V30 7756 C 738.505 -1.47133 -1.74434 0
M  V30 7757 C 739.483 -0.328933 -1.59238 0
M  V30 7758 O 740.667 -0.527632 -1.80965 0
M  V30 7759 C 737.794 -1.31491 -3.12134 0
M  V30 7760 C 736.84 -2.49441 -3.4595 0
M  V30 7761 S 737.673 -4.11945 -3.42142 0
M  V30 7762 C 738.829 -3.98747 -4.82443 0
M  V30 7763 H 739.062 -2.42295 -1.7228 0
M  V30 7764 H 736.595 -1.32343 -0.795276 0
M  V30 7765 H 738.553 -1.23153 -3.91591 0
M  V30 7766 H 737.214 -0.378203 -3.11815 0
M  V30 7767 H 736.407 -2.3439 -4.46181 0
M  V30 7768 H 736.009 -2.54577 -2.73982 0
M  V30 7769 H 738.301 -3.63145 -5.71954 0
M  V30 7770 H 739.244 -4.98848 -5.0255 0
M  V30 7771 H 739.652 -3.30608 -4.57557 0
M  V30 7772 N 739.05 0.861098 -1.31996 0
M  V30 7773 C 740.278 1.6474 -1.25173 0
M  V30 7774 C 740.693 1.87926 0.181425 0
M  V30 7775 O 740.05 1.4437 1.1164 0
M  V30 7776 C 740.101 3.01036 -2.0015 0
M  V30 7777 O 739.822 2.7888 -3.37872 0
M  V30 7778 C 741.323 3.95481 -2.00273 0
M  V30 7779 H 738.543 0.513314 -0.432146 0
M  V30 7780 H 741.087 1.07419 -1.74016 0
M  V30 7781 H 739.242 3.55021 -1.55046 0
M  V30 7782 H 739.656 3.65514 -3.76165 0
M  V30 7783 H 741.13 4.88403 -2.57229 0
M  V30 7784 H 741.607 4.27957 -0.987407 0
M  V30 7785 H 742.213 3.47433 -2.45296 0
M  V30 7786 N 740.528 1.15101 1.07655 0
M  V30 7787 C 741.805 0.834578 1.76902 0
M  V30 7788 C 742.185 -0.670431 2.00171 0
M  V30 7789 O 741.533 -1.61378 1.6177 0
M  V30 7790 C 741.743 1.64191 3.07965 0
M  V30 7791 C 743.091 1.84615 3.82364 0
M  V30 7792 O 744.115 1.60941 3.17768 0
M  V30 7793 O 742.974 2.24244 4.98374 0
M  V30 7794 H 740.068 0.306608 0.768063 0
M  V30 7795 H 742.614 1.25663 1.14048 0
M  V30 7796 H 741.386 2.66386 2.86626 0
M  V30 7797 H 741.009 1.216 3.78549 0
M  V30 7798 N 742.006 -1.2595 0.947325 0
M  V30 7799 C 743.253 -1.93463 0.598178 0
M  V30 7800 C 743.581 -1.74271 -0.863705 0
M  V30 7801 O 742.836 -1.07684 -1.63409 0
M  V30 7802 C 743.135 -3.46034 0.894158 0
M  V30 7803 C 742.801 -3.85373 2.3409 0
M  V30 7804 C 741.463 -3.95823 2.73637 0
M  V30 7805 C 743.815 -4.04986 3.2808 0
M  V30 7806 C 741.143 -4.23288 4.06257 0
M  V30 7807 C 743.495 -4.3394 4.60303 0
M  V30 7808 C 742.159 -4.42606 4.99656 0
M  V30 7809 H 741.429 -0.707933 0.218889 0
M  V30 7810 H 744.076 -1.4964 1.19499 0
M  V30 7811 H 742.381 -3.9121 0.214874 0
M  V30 7812 H 744.078 -3.96445 0.602698 0
M  V30 7813 H 740.668 -3.7779 2.02417 0
M  V30 7814 H 744.852 -3.96333 2.9872 0
M  V30 7815 H 740.108 -4.28211 4.36401 0
M  V30 7816 H 744.282 -4.48061 5.33118 0
M  V30 7817 H 741.909 -4.63641 6.02446 0
M  V30 7818 N 743.484 -0.715051 -1.40445 0
M  V30 7819 C 744.431 -0.0621393 -2.30716 0
M  V30 7820 C 745.401 0.750871 -1.48159 0
M  V30 7821 O 746.586 0.714928 -1.76899 0
M  V30 7822 C 743.726 0.854036 -3.34365 0
M  V30 7823 C 742.839 0.0305565 -4.31989 0
M  V30 7824 C 741.974 0.946162 -5.22706 0
M  V30 7825 C 741.013 0.116741 -6.11989 0
M  V30 7826 N 740.15 0.987194 -6.95125 0
M  V30 7827 H 744.99 -0.83764 -2.85985 0
M  V30 7828 H 742.527 -0.424759 -1.40834 0
M  V30 7829 H 744.485 1.39946 -3.93028 0
M  V30 7830 H 743.115 1.59572 -2.806 0
M  V30 7831 H 742.167 -0.632044 -3.75112 0
M  V30 7832 H 743.479 -0.611615 -4.95036 0
M  V30 7833 H 742.633 1.56014 -5.86297 0
M  V30 7834 H 741.372 1.62216 -4.59932 0
M  V30 7835 H 740.377 -0.510176 -5.47428 0
M  V30 7836 H 741.602 -0.555742 -6.76822 0
M  V30 7837 H 739.548 1.64885 -6.3494 0
M  V30 7838 H 739.465 0.401046 -7.54936 0
M  V30 7839 H 740.733 1.58737 -7.63166 0
M  V30 7840 N 744.962 1.50701 -0.461195 0
M  V30 7841 C 746.208 2.02566 0.0973411 0
M  V30 7842 C 746.541 1.3432 1.40257 0
M  V30 7843 O 745.816 0.465692 1.88843 0
M  V30 7844 C 746.099 3.58919 0.291423 0
M  V30 7845 C 745.952 4.37751 -1.03413 0
M  V30 7846 C 747.271 4.27379 1.05048 0
M  V30 7847 H 744.39 0.73622 0.0339026 0
M  V30 7848 H 747.032 1.80115 -0.604855 0
M  V30 7849 H 745.182 3.78179 0.889539 0
M  V30 7850 H 746.854 4.30085 -1.66806 0
M  V30 7851 H 745.097 4.01885 -1.63313 0
M  V30 7852 H 745.768 5.45384 -0.852085 0
M  V30 7853 H 748.244 4.12534 0.543603 0
M  V30 7854 H 747.12 5.36609 1.15506 0
M  V30 7855 H 747.381 3.89868 2.0846 0
M  V30 7856 N 746.441 0.193421 1.56409 0
M  V30 7857 C 747.388 -0.728124 2.19014 0
M  V30 7858 C 748.358 -1.21098 1.13686 0
M  V30 7859 O 749.543 -1.27517 1.4193 0
M  V30 7860 C 746.683 -1.94277 2.8522 0
M  V30 7861 C 745.796 -1.50143 4.05069 0
M  V30 7862 C 744.931 -2.67145 4.59137 0
M  V30 7863 C 743.97 -2.19609 5.71348 0
M  V30 7864 N 743.107 -3.29782 6.19829 0
M  V30 7865 H 747.947 -0.187499 2.9741 0
M  V30 7866 H 745.484 -0.0808064 1.46878 0
M  V30 7867 H 747.442 -2.65551 3.21774 0
M  V30 7868 H 746.072 -2.45673 2.09391 0
M  V30 7869 H 745.124 -0.684624 3.74189 0
M  V30 7870 H 746.436 -1.11266 4.86232 0
M  V30 7871 H 745.59 -3.46544 4.97988 0
M  V30 7872 H 744.329 -3.09295 3.77078 0
M  V30 7873 H 743.334 -1.38664 5.32027 0
M  V30 7874 H 744.559 -1.78492 6.55223 0
M  V30 7875 H 742.505 -3.71466 5.40693 0
M  V30 7876 H 742.422 -2.95069 6.96039 0
M  V30 7877 H 743.69 -4.094 6.63334 0
M  V30 7878 N 747.919 -1.57396 -0.0801906 0
M  V30 7879 C 748.829 -2.06451 -1.11423 0
M  V30 7880 C 749.845 -0.992352 -1.42928 0
M  V30 7881 O 751.021 -1.30651 -1.53272 0
M  V30 7882 C 748.086 -2.49164 -2.41077 0
M  V30 7883 C 747.147 -3.70641 -2.16619 0
M  V30 7884 C 746.38 -4.11307 -3.40092 0
M  V30 7885 O 746.603 -3.51922 -4.48895 0
M  V30 7886 O 745.537 -5.04157 -3.288 0
M  V30 7887 H 749.363 -2.94857 -0.727519 0
M  V30 7888 H 746.948 -1.46484 -0.293743 0
M  V30 7889 H 748.83 -2.77196 -3.17396 0
M  V30 7890 H 747.505 -1.6389 -2.79145 0
M  V30 7891 H 746.412 -3.47703 -1.38033 0
M  V30 7892 H 747.745 -4.5674 -1.83437 0
M  V30 7893 N 749.397 0.351382 -1.53633 0
M  V30 7894 C 750.645 1.09034 -1.70165 0
M  V30 7895 C 750.966 1.89413 -0.463422 0
M  V30 7896 O 750.236 1.888 0.522624 0
M  V30 7897 H 748.816 0.405522 -0.627344 0
M  V30 7898 H 751.478 0.394554 -1.90865 0
M  V30 7899 H 750.574 1.77215 -2.56907 0
M  V30 7900 N 750.875 1.45233 0.611969 0
M  V30 7901 C 752.152 1.39495 1.37115 0
M  V30 7902 C 752.532 0.0633303 2.11005 0
M  V30 7903 O 751.88 -0.954617 2.07604 0
M  V30 7904 C 752.09 2.60579 2.32163 0
M  V30 7905 C 753.438 3.05477 2.94905 0
M  V30 7906 O 754.462 2.60921 2.42485 0
M  V30 7907 O 753.321 3.82787 3.90047 0
M  V30 7908 H 750.415 0.55335 0.614599 0
M  V30 7909 H 752.961 1.57355 0.635423 0
M  V30 7910 H 751.733 3.49085 1.76793 0
M  V30 7911 H 751.356 2.45031 3.13122 0
M  V30 7912 N 752.353 -0.854086 1.3245 0
M  V30 7913 C 753.263 -1.99503 1.23434 0
M  V30 7914 C 754.279 -1.73371 0.147828 0
M  V30 7915 O 755.455 -1.97998 0.368609 0
M  V30 7916 C 752.52 -3.33192 0.958328 0
M  V30 7917 C 751.581 -3.72542 2.13333 0
M  V30 7918 C 750.814 -4.99852 1.8704 0
M  V30 7919 O 751.037 -5.64573 0.813239 0
M  V30 7920 O 749.971 -5.36345 2.73161 0
M  V30 7921 H 753.797 -2.10046 2.1935 0
M  V30 7922 H 751.382 -0.984823 1.12346 0
M  V30 7923 H 753.264 -4.13327 0.820918 0
M  V30 7924 H 751.939 -3.23687 0.0293299 0
M  V30 7925 H 750.846 -2.92981 2.32622 0
M  V30 7926 H 752.179 -3.86694 3.04514 0
M  V30 7927 N 753.831 -1.1567 -1.07043 0
M  V30 7928 C 755.077 -0.9349 -1.79965 0
M  V30 7929 C 755.41 0.536464 -1.86643 0
M  V30 7930 O 754.685 1.39781 -1.35247 0
M  V30 7931 C 754.968 -1.55371 -3.24857 0
M  V30 7932 C 754.821 -3.09589 -3.26305 0
M  V30 7933 C 756.14 -1.24209 -4.22209 0
M  V30 7934 H 753.259 -0.341061 -0.653335 0
M  V30 7935 H 755.901 -1.42883 -1.25237 0
M  V30 7936 H 754.051 -1.13368 -3.71591 0
M  V30 7937 H 755.723 -3.60521 -2.87789 0
M  V30 7938 H 753.966 -3.43315 -2.65174 0
M  V30 7939 H 754.637 -3.48002 -4.28484 0
M  V30 7940 H 757.113 -1.60548 -3.8388 0
M  V30 7941 H 755.989 -1.70119 -5.21872 0
M  V30 7942 H 756.25 -0.15964 -4.41812 0
M  V30 7943 N 755.309 1.25446 -0.953992 0
M  V30 7944 C 756.537 1.97215 -0.625595 0
M  V30 7945 C 756.952 1.70911 0.802168 0
M  V30 7946 O 756.309 0.984782 1.5365 0
M  V30 7947 C 756.36 3.50777 -0.873943 0
M  V30 7948 O 756.081 3.76173 -2.24556 0
M  V30 7949 C 757.582 4.39776 -0.557845 0
M  V30 7950 H 754.802 0.628652 -0.2346 0
M  V30 7951 H 757.346 1.59632 -1.27819 0
M  V30 7952 H 755.501 3.86474 -0.267765 0
M  V30 7953 H 755.915 4.70636 -2.31522 0
M  V30 7954 H 757.389 5.46431 -0.782157 0
M  V30 7955 H 757.866 4.36257 0.507573 0
M  V30 7956 H 758.472 4.09644 -1.14332 0
M  V30 7957 N 756.787 0.722489 1.40064 0
M  V30 7958 C 758.033 0.265371 2.01056 0
M  V30 7959 C 758.366 -1.14062 1.57174 0
M  V30 7960 O 757.641 -1.77514 0.794916 0
M  V30 7961 C 757.924 0.353157 3.58364 0
M  V30 7962 C 757.777 1.79802 4.123 0
M  V30 7963 C 759.096 -0.271677 4.39261 0
M  V30 7964 H 756.215 0.0979002 0.730469 0
M  V30 7965 H 758.857 0.916289 1.66446 0
M  V30 7966 H 757.007 -0.201037 3.87979 0
M  V30 7967 H 758.679 2.40813 3.93455 0
M  V30 7968 H 756.922 2.32348 3.66329 0
M  V30 7969 H 757.593 1.81079 5.21454 0
M  V30 7970 H 760.069 0.200607 4.15616 0
M  V30 7971 H 758.945 -0.179843 5.48605 0
M  V30 7972 H 759.206 -1.35611 4.20787 0
M  V30 7973 N 758.265 -1.50454 0.469181 0
M  V30 7974 C 759.495 -2.06429 -0.0840913 0
M  V30 7975 C 759.903 -1.3334 -1.34227 0
M  V30 7976 O 759.246 -0.395656 -1.79389 0
M  V30 7977 C 759.308 -3.56797 -0.440049 0
M  V30 7978 C 758.972 -4.51359 0.715838 0
M  V30 7979 C 759.969 -4.94754 1.59732 0
M  V30 7980 C 757.654 -4.94069 0.905621 0
M  V30 7981 C 759.648 -5.79564 2.653 0
M  V30 7982 C 757.335 -5.78662 1.96453 0
M  V30 7983 C 758.333 -6.21311 2.83658 0
M  V30 7984 O 758.021 -7.04218 3.87727 0
M  V30 7985 H 757.753 -0.675994 0.00289751 0
M  V30 7986 H 760.307 -1.94629 0.656417 0
M  V30 7987 H 758.537 -3.66492 -1.23372 0
M  V30 7988 H 760.226 -3.95145 -0.928181 0
M  V30 7989 H 760.992 -4.62428 1.46237 0
M  V30 7990 H 756.871 -4.60394 0.236326 0
M  V30 7991 H 760.415 -6.12774 3.33398 0
M  V30 7992 H 756.312 -6.10401 2.09955 0
M  V30 7993 H 757.08 -7.22464 3.84692 0
M  V30 7994 N 759.743 -0.201713 -1.56304 0
M  V30 7995 C 760.992 0.435557 -1.96941 0
M  V30 7996 C 761.305 1.62299 -1.09172 0
M  V30 7997 O 762.511 2.32849 -1.3962 0
M  V30 7998 C 760.967 0.826298 -3.50286 0
M  V30 7999 C 760.575 -0.337216 -4.46729 0
M  V30 8000 C 762.319 1.43028 -3.99679 0
M  V30 8001 C 760.226 0.0748539 -5.91353 0
M  V30 8002 H 759.156 0.1665 -0.735387 0
M  V30 8003 H 761.807 -0.294781 -1.81117 0
M  V30 8004 H 760.189 1.61349 -3.61639 0
M  V30 8005 H 761.363 -1.11476 -4.47113 0
M  V30 8006 H 759.678 -0.853126 -4.07567 0
M  V30 8007 H 762.275 1.75115 -5.05212 0
M  V30 8008 H 762.618 2.33911 -3.44371 0
M  V30 8009 H 763.151 0.706924 -3.91468 0
M  V30 8010 H 759.89 -0.799957 -6.506 0
M  V30 8011 H 759.41 0.817122 -5.94208 0
M  V30 8012 H 761.089 0.508389 -6.45 0
M  V30 8013 N 761.222 1.57436 0.0718424 0
M  V30 8014 C 762.45 1.91474 0.783932 0
M  V30 8015 C 762.865 0.797669 1.71122 0
M  V30 8016 O 762.222 -0.228989 1.81058 0
M  V30 8017 C 762.273 3.25259 1.57761 0
M  V30 8018 O 761.994 4.3267 0.687596 0
M  V30 8019 C 763.495 3.7331 2.3907 0
M  V30 8020 H 760.715 0.632901 0.222885 0
M  V30 8021 H 763.259 2.04457 0.0421262 0
M  V30 8022 H 761.414 3.13804 2.27169 0
M  V30 8023 H 761.828 5.09641 1.23962 0
M  V30 8024 H 763.302 4.69551 2.90216 0
M  V30 8025 H 763.779 3.02318 3.18591 0
M  V30 8026 H 764.385 3.8771 1.74818 0
M  V30 8027 N 762.7 -0.34323 1.53817 0
M  V30 8028 C 763.648 -1.44176 1.82527 0
M  V30 8029 C 764.642 -1.54452 0.695772 0
M  V30 8030 O 765.848 -1.57072 0.879114 0
M  V30 8031 H 762.223 -0.480729 0.578277 0
M  V30 8032 H 764.194 -1.17176 2.74431 0
M  V30 8033 C 762.943 -2.80695 2.05197 0
M  V30 8034 H 762.266 -2.73554 2.91561 0
M  V30 8035 H 763.706 -3.56679 2.29251 0
M  V30 8036 C 762.165 -3.26322 0.837589 0
M  V30 8037 O 762.695 -4.01683 0.0371631 0
M  V30 8038 N 760.901 -2.83128 0.654724 0
M  V30 8039 H 760.448 -2.21965 1.30725 0
M  V30 8040 H 760.406 -3.14011 -0.156345 0
M  V30 8041 N 764.178 -1.45556 -0.604258 0
M  V30 8042 C 765.108 -1.57327 -1.72541 0
M  V30 8043 C 766.089 -0.424637 -1.64714 0
M  V30 8044 O 767.274 -0.648196 -1.83063 0
M  V30 8045 C 764.404 -1.54279 -3.11152 0
M  V30 8046 C 763.358 -2.67893 -3.33792 0
M  V30 8047 C 762.684 -2.499 -4.72709 0
M  V30 8048 C 763.984 -4.0988 -3.23722 0
M  V30 8049 H 765.678 -2.51175 -1.62947 0
M  V30 8050 H 763.224 -1.20884 -0.782504 0
M  V30 8051 H 765.177 -1.6111 -3.89386 0
M  V30 8052 H 763.901 -0.569627 -3.21594 0
M  V30 8053 H 762.56 -2.60495 -2.57949 0
M  V30 8054 H 762.208 -1.50715 -4.79889 0
M  V30 8055 H 761.908 -3.26091 -4.88813 0
M  V30 8056 H 763.432 -2.5859 -5.5314 0
M  V30 8057 H 764.846 -4.18503 -3.91826 0
M  V30 8058 H 763.243 -4.86487 -3.51355 0
M  V30 8059 H 764.313 -4.31553 -2.21111 0
M  V30 8060 N 765.656 0.84705 -1.32902 0
M  V30 8061 C 766.933 1.58583 -1.14503 0
M  V30 8062 C 767.313 2.09075 0.291724 0
M  V30 8063 O 766.661 1.88636 1.28952 0
M  V30 8064 C 766.871 2.72605 -2.17916 0
M  V30 8065 C 768.219 3.41993 -2.51646 0
M  V30 8066 O 769.243 2.82838 -2.1652 0
M  V30 8067 O 768.102 4.48761 -3.1189 0
M  V30 8068 H 765.196 0.698756 -0.442345 0
M  V30 8069 H 767.742 0.890516 -1.44457 0
M  V30 8070 H 766.514 2.32876 -3.14459 0
M  V30 8071 H 766.137 3.49807 -1.89 0
M  V30 8072 N 767.134 1.16236 1.06428 0
M  V30 8073 C 768.067 0.81119 2.13295 0
M  V30 8074 C 769.045 -0.216555 1.61151 0
M  V30 8075 O 770.229 -0.100949 1.88229 0
M  V30 8076 C 767.356 0.207901 3.38061 0
M  V30 8077 C 766.402 1.20904 4.09004 0
M  V30 8078 S 767.235 2.75513 4.59187 0
M  V30 8079 C 768.391 2.1663 5.87216 0
M  V30 8080 H 768.624 1.71632 2.42755 0
M  V30 8081 H 766.157 0.985693 1.18842 0
M  V30 8082 H 768.115 -0.133715 4.10282 0
M  V30 8083 H 766.776 -0.67497 3.06762 0
M  V30 8084 H 765.969 0.735326 4.98607 0
M  V30 8085 H 765.571 1.49567 3.42791 0
M  V30 8086 H 767.863 1.53413 6.59902 0
M  V30 8087 H 768.806 3.04437 6.39315 0
M  V30 8088 H 769.214 1.60565 5.41183 0
M  V30 8089 N 768.612 -1.24939 0.960631 0
M  V30 8090 C 769.858 -1.93104 0.61958 0
M  V30 8091 C 770.191 -1.74991 -0.84212 0
M  V30 8092 O 769.466 -1.09867 -1.60498 0
M  V30 8093 C 769.749 -3.46326 0.986422 0
M  V30 8094 C 769.602 -3.73638 2.50429 0
M  V30 8095 C 770.921 -4.37067 0.515827 0
M  V30 8096 H 768.04 -0.701311 0.226566 0
M  V30 8097 H 770.682 -1.47442 1.19836 0
M  V30 8098 H 768.832 -3.85348 0.493907 0
M  V30 8099 H 770.504 -3.44217 3.07103 0
M  V30 8100 H 768.747 -3.19035 2.93937 0
M  V30 8101 H 769.418 -4.80815 2.71147 0
M  V30 8102 H 771.894 -4.05381 0.938389 0
M  V30 8103 H 770.77 -5.43022 0.80114 0
M  V30 8104 H 771.031 -4.38224 -0.584171 0
M  V30 8105 N 770.09 -0.729906 -1.39679 0
M  V30 8106 C 771 -0.0880322 -2.34435 0
M  V30 8107 C 772.016 0.727674 -1.58053 0
M  V30 8108 O 773.192 0.657321 -1.90371 0
M  V30 8109 C 770.257 0.812211 -3.37052 0
M  V30 8110 C 769.318 -0.0151681 -4.29297 0
M  V30 8111 C 768.551 0.842202 -5.27013 0
M  V30 8112 O 768.774 2.08108 -5.31081 0
M  V30 8113 O 767.708 0.27357 -6.01278 0
M  V30 8114 H 771.534 -0.869989 -2.90972 0
M  V30 8115 H 769.119 -0.490522 -1.41118 0
M  V30 8116 H 771.001 1.32745 -3.99946 0
M  V30 8117 H 769.676 1.57307 -2.82907 0
M  V30 8118 H 768.583 -0.575811 -3.69642 0
M  V30 8119 H 769.916 -0.738129 -4.86634 0
M  V30 8120 N 771.568 1.50203 -0.477153 0
M  V30 8121 C 772.845 1.95115 0.137609 0
M  V30 8122 C 773.225 1.41778 1.56404 0
M  V30 8123 O 772.573 0.621333 2.1989 0
M  V30 8124 C 772.783 3.4892 0.0747168 0
M  V30 8125 C 774.131 4.238 0.260585 0
M  V30 8126 O 775.155 3.5588 0.151021 0
M  V30 8127 O 774.014 5.44366 0.482534 0
M  V30 8128 H 771.108 0.81987 0.108364 0
M  V30 8129 H 773.654 1.60946 -0.537989 0
M  V30 8130 H 772.426 3.80308 -0.920966 0
M  V30 8131 H 772.049 3.89642 0.791509 0
M  V30 8132 N 773.046 0.209999 1.56195 0
M  V30 8133 C 774.292 -0.425442 1.98287 0
M  V30 8134 C 774.625 -1.60232 1.09724 0
M  V30 8135 O 773.9 -1.93902 0.152414 0
M  V30 8136 C 774.183 -0.871189 3.49403 0
M  V30 8137 C 774.036 0.308527 4.48741 0
M  V30 8138 C 775.355 -1.73146 4.04609 0
M  V30 8139 H 772.474 -0.153169 0.720908 0
M  V30 8140 H 775.116 0.303916 1.87554 0
M  V30 8141 H 773.266 -1.49266 3.58681 0
M  V30 8142 H 774.938 0.946487 4.51486 0
M  V30 8143 H 773.181 0.957878 4.23092 0
M  V30 8144 H 773.852 -0.0461143 5.51981 0
M  V30 8145 H 776.328 -1.2072 3.98203 0
M  V30 8146 H 775.204 -2.01228 5.10684 0
M  V30 8147 H 775.465 -2.69083 3.5078 0
M  V30 8148 N 774.524 -1.57472 -0.0634922 0
M  V30 8149 C 775.752 -1.91887 -0.773767 0
M  V30 8150 C 776.167 -0.806733 -1.70696 0
M  V30 8151 O 775.524 0.219383 -1.81177 0
M  V30 8152 C 775.575 -3.26092 -1.56034 0
M  V30 8153 O 775.296 -4.33029 -0.66464 0
M  V30 8154 C 776.797 -3.74573 -2.37087 0
M  V30 8155 H 774.017 -0.634074 -0.219525 0
M  V30 8156 H 776.561 -2.04476 -0.0312828 0
M  V30 8157 H 774.716 -3.15004 -2.25502 0
M  V30 8158 H 775.13 -5.10291 -1.21258 0
M  V30 8159 H 776.604 -4.71084 -2.87722 0
M  V30 8160 H 777.081 -3.04003 -3.16984 0
M  V30 8161 H 777.687 -3.88631 -1.72759 0
M  V30 8162 N 776.003 0.335068 -1.53997 0
M  V30 8163 C 776.953 1.4127 -1.7896 0
M  V30 8164 C 777.937 1.474 -0.64513 0
M  V30 8165 O 779.129 1.52127 -0.904785 0
M  V30 8166 C 776.258 2.78292 -2.01018 0
M  V30 8167 C 775.344 2.7652 -3.21555 0
M  V30 8168 N 775.735 2.44374 -4.42849 0
M  V30 8169 C 774.033 3.0766 -3.22895 0
M  V30 8170 C 774.734 2.51049 -5.24737 0
M  V30 8171 N 773.71 2.8702 -4.6165 0
M  V30 8172 H 777.512 1.15327 -2.70327 0
M  V30 8173 H 775.026 0.543483 -1.53036 0
M  V30 8174 H 777.023 3.55949 -2.17039 0
M  V30 8175 H 775.683 3.05175 -1.10898 0
M  V30 8176 H 776.694 2.17422 -4.70051 0
M  V30 8177 H 773.371 3.3966 -2.42771 0
M  V30 8178 H 774.761 2.29283 -6.31569 0
M  V30 8179 N 777.481 1.45874 0.596531 0
M  V30 8180 C 778.729 1.5017 1.35253 0
M  V30 8181 C 779.05 0.149246 1.94428 0
M  V30 8182 O 778.32 -0.82268 1.77789 0
M  V30 8183 H 776.9 0.553052 0.502138 0
M  V30 8184 H 779.562 1.81908 0.699671 0
M  V30 8185 H 778.658 2.24671 2.16632 0
M  V30 8186 N 778.959 -0.83999 1.33349 0
M  V30 8187 C 780.206 -1.59517 1.24742 0
M  V30 8188 C 780.534 -1.93598 -0.187077 0
M  V30 8189 O 779.789 -1.58782 -1.14398 0
M  V30 8190 C 780.088 -2.91571 2.06691 0
M  V30 8191 C 779.754 -2.76856 3.55895 0
M  V30 8192 C 778.416 -2.72551 3.96572 0
M  V30 8193 C 780.768 -2.61741 4.50712 0
M  V30 8194 C 778.096 -2.51028 5.30285 0
M  V30 8195 C 780.448 -2.41752 5.84584 0
M  V30 8196 C 779.112 -2.35848 6.24445 0
M  V30 8197 H 778.382 -0.583714 0.456463 0
M  V30 8198 H 781.029 -0.973261 1.64924 0
M  V30 8199 H 779.334 -3.57961 1.59284 0
M  V30 8200 H 781.031 -3.49053 1.9739 0
M  V30 8201 H 777.621 -2.81039 3.23597 0
M  V30 8202 H 781.805 -2.64102 4.20195 0
M  V30 8203 H 777.061 -2.44903 5.60208 0
M  V30 8204 H 781.235 -2.2904 6.57658 0
M  V30 8205 H 778.862 -2.18931 7.27993 0
M  V30 8206 N 780.437 -1.16799 -1.0581 0
M  V30 8207 C 781.677 -0.963264 -1.80279 0
M  V30 8208 C 782.041 0.499671 -1.85384 0
M  V30 8209 O 783.242 0.823264 -2.55882 0
M  V30 8210 C 781.513 -1.57938 -3.20609 0
M  V30 8211 S 783.072 -1.51997 -4.11634 0
M  V30 8212 H 779.89 -0.346302 -0.620964 0
M  V30 8213 H 782.492 -1.48632 -1.26999 0
M  V30 8214 H 781.196 -2.63672 -3.14492 0
M  V30 8215 H 780.727 -1.05586 -3.78966 0
M  V30 8216 H 782.742 -0.523625 -4.93429 0
M  V30 8217 N 781.915 1.24427 -0.967243 0
M  V30 8218 C 782.848 2.23885 -0.441683 0
M  V30 8219 C 783.826 1.55231 0.483963 0
M  V30 8220 O 785.01 1.83865 0.415445 0
M  V30 8221 C 782.137 3.36755 0.362458 0
M  V30 8222 C 781.183 4.23495 -0.505407 0
M  V30 8223 S 782.016 4.98916 -1.94534 0
M  V30 8224 C 783.172 6.15245 -1.14997 0
M  V30 8225 H 783.405 2.68118 -1.28453 0
M  V30 8226 H 780.938 1.337 -0.772243 0
M  V30 8227 H 782.896 4.02218 0.820445 0
M  V30 8228 H 781.557 2.91081 1.18027 0
M  V30 8229 H 780.75 5.03876 0.111979 0
M  V30 8230 H 780.352 3.63032 -0.899104 0
M  V30 8231 H 782.644 6.7629 -0.404769 0
M  V30 8232 H 783.587 6.81343 -1.92814 0
M  V30 8233 H 783.995 5.60455 -0.674543 0
M  V30 8234 N 783.393 0.737304 1.3929 0
M  V30 8235 C 784.639 0.286681 2.00763 0
M  V30 8236 C 784.972 -1.12388 1.58375 0
M  V30 8237 O 784.247 -1.76661 0.813699 0
M  V30 8238 C 784.53 0.391147 3.57969 0
M  V30 8239 C 784.383 1.84165 4.1037 0
M  V30 8240 C 785.702 -0.225072 4.39524 0
M  V30 8241 H 782.821 0.105642 0.729389 0
M  V30 8242 H 785.463 0.933892 1.65464 0
M  V30 8243 H 783.613 -0.159875 3.88171 0
M  V30 8244 H 785.285 2.44972 3.90879 0
M  V30 8245 H 783.528 2.3622 3.63844 0
M  V30 8246 H 784.199 1.866 5.19504 0
M  V30 8247 H 786.675 0.244677 4.1538 0
M  V30 8248 H 785.551 -0.121646 5.48765 0
M  V30 8249 H 785.812 -1.31141 4.22202 0
M  V30 8250 N 784.871 -1.49948 0.485112 0
M  V30 8251 C 785.819 -2.30449 -0.315609 0
M  V30 8252 C 786.813 -1.38351 -0.977516 0
M  V30 8253 O 788.019 -1.55477 -0.907019 0
M  V30 8254 H 784.394 -0.742262 -0.120629 0
M  V30 8255 H 786.365 -2.95925 0.383552 0
M  V30 8256 C 785.114 -3.19283 -1.37673 0
M  V30 8257 H 784.437 -3.90067 -0.876801 0
M  V30 8258 H 785.877 -3.78579 -1.90929 0
M  V30 8259 C 784.336 -2.37817 -2.38631 0
M  V30 8260 O 784.866 -2.0711 -3.44192 0
M  V30 8261 N 783.072 -2.00135 -2.107 0
M  V30 8262 H 782.619 -2.25307 -1.24878 0
M  V30 8263 H 782.577 -1.45933 -2.7848 0
M  V30 8264 N 786.349 -0.21828 -1.56081 0
M  V30 8265 C 787.299 0.706492 -2.16778 0
M  V30 8266 C 788.283 1.15987 -1.11516 0
M  V30 8267 O 789.475 1.11441 -1.37513 0
M  V30 8268 C 786.604 1.91583 -2.8487 0
M  V30 8269 C 785.69 1.48228 -3.97353 0
M  V30 8270 N 786.081 0.761113 -5.00041 0
M  V30 8271 C 784.379 1.76982 -4.09382 0
M  V30 8272 C 785.08 0.540496 -5.79184 0
M  V30 8273 N 784.056 1.09622 -5.32432 0
M  V30 8274 H 787.858 0.147038 -2.93532 0
M  V30 8275 H 785.372 -0.0194049 -1.62388 0
M  V30 8276 H 787.369 2.58906 -3.26762 0
M  V30 8277 H 786.029 2.47979 -2.09611 0
M  V30 8278 H 787.04 0.414141 -5.16241 0
M  V30 8279 H 783.717 2.34721 -3.45271 0
M  V30 8280 H 785.107 -0.0332531 -6.71892 0
M  V30 8281 N 787.827 1.57504 0.0551401 0
M  V30 8282 C 789.075 1.87684 0.74962 0
M  V30 8283 C 789.396 0.812547 1.77264 0
M  V30 8284 O 788.666 -0.15694 1.9527 0
M  V30 8285 H 787.246 0.6926 0.279846 0
M  V30 8286 H 789.908 1.94881 0.0272745 0
M  V30 8287 H 789.004 2.85734 1.25548 0
M  V30 8288 N 789.305 -0.326896 1.54172 0
M  V30 8289 C 790.551 -1.06681 1.72473 0
M  V30 8290 C 790.884 -1.87779 0.49523 0
M  V30 8291 O 790.159 -1.87754 -0.507803 0
M  V30 8292 C 790.442 -1.99429 2.99834 0
M  V30 8293 C 790.295 -1.21682 4.33028 0
M  V30 8294 C 791.614 -2.99002 3.22933 0
M  V30 8295 H 788.733 -0.386438 0.627563 0
M  V30 8296 H 791.375 -0.343779 1.86864 0
M  V30 8297 H 789.525 -2.61081 2.87696 0
M  V30 8298 H 791.197 -0.625153 4.57044 0
M  V30 8299 H 789.44 -0.519045 4.30684 0
M  V30 8300 H 790.111 -1.89766 5.18356 0
M  V30 8301 H 792.587 -2.4747 3.34511 0
M  V30 8302 H 791.463 -3.61085 4.13412 0
M  V30 8303 H 791.724 -3.71281 2.40006 0
M  V30 8304 N 790.784 -1.46188 -0.588786 0
M  V30 8305 C 792.009 -1.5498 -1.37826 0
M  V30 8306 C 792.434 -0.189498 -1.87143 0
M  V30 8307 O 791.792 0.829293 -1.61222 0
M  V30 8308 C 791.84 -2.55369 -2.54596 0
M  V30 8309 O 790.944 -2.08452 -3.55839 0
M  V30 8310 H 790.285 -0.521741 -0.41071 0
M  V30 8311 H 792.815 -1.91708 -0.714779 0
M  V30 8312 H 792.825 -2.74782 -3.01594 0
M  V30 8313 H 791.5 -3.54155 -2.18052 0
M  V30 8314 H 790.077 -1.98999 -3.15363 0
M  V30 8315 N 792.262 0.832906 -1.33792 0
M  V30 8316 C 793.195 1.94788 -1.18882 0
M  V30 8317 C 794.173 1.62389 -0.0828426 0
M  V30 8318 O 795.357 1.86886 -0.246175 0
M  V30 8319 C 792.484 3.28506 -0.824728 0
M  V30 8320 C 791.53 3.79872 -1.93905 0
M  V30 8321 S 792.363 4.00832 -3.55097 0
M  V30 8322 C 793.519 5.37492 -3.20708 0
M  V30 8323 H 793.752 2.07137 -2.13264 0
M  V30 8324 H 791.285 0.987362 -1.18704 0
M  V30 8325 H 793.243 4.05769 -0.621442 0
M  V30 8326 H 791.904 3.13939 0.100587 0
M  V30 8327 H 791.097 4.76647 -1.6378 0
M  V30 8328 H 790.699 3.09524 -2.09931 0
M  V30 8329 H 792.991 6.20544 -2.71903 0
M  V30 8330 H 793.934 5.72593 -4.16584 0
M  V30 8331 H 794.342 5.02529 -2.57148 0
M  V30 8332 N 793.74 1.17359 1.05189 0
M  V30 8333 C 794.65 0.904984 2.16442 0
M  V30 8334 C 795.666 -0.12686 1.73537 0
M  V30 8335 O 796.842 0.0524127 2.01332 0
M  V30 8336 C 793.907 0.422019 3.44122 0
M  V30 8337 C 792.968 1.52045 4.01473 0
M  V30 8338 C 792.201 1.06044 5.23059 0
M  V30 8339 O 792.424 -0.0854023 5.70336 0
M  V30 8340 O 791.358 1.85349 5.72651 0
M  V30 8341 H 795.184 1.8356 2.41949 0
M  V30 8342 H 792.769 0.95447 1.14936 0
M  V30 8343 H 794.651 0.160208 4.21095 0
M  V30 8344 H 793.326 -0.480444 3.20115 0
M  V30 8345 H 792.233 1.83615 3.25939 0
M  V30 8346 H 793.566 2.39863 4.29798 0
M  V30 8347 N 795.218 -1.23913 0.973828 0
M  V30 8348 C 796.467 -1.91455 0.63464 0
M  V30 8349 C 796.78 -1.76893 -0.834759 0
M  V30 8350 O 797.986 -2.3918 -1.28473 0
M  V30 8351 C 796.442 -3.43172 1.08447 0
M  V30 8352 C 796.05 -3.66409 2.57776 0
M  V30 8353 C 797.794 -4.1653 0.818721 0
M  V30 8354 C 795.701 -5.11728 2.9646 0
M  V30 8355 H 794.631 -0.716881 0.233661 0
M  V30 8356 H 797.282 -1.40457 1.18085 0
M  V30 8357 H 795.664 -3.93242 0.466524 0
M  V30 8358 H 796.838 -3.26913 3.24753 0
M  V30 8359 H 795.153 -3.06349 2.82027 0
M  V30 8360 H 797.75 -5.23603 1.08367 0
M  V30 8361 H 798.093 -4.15578 -0.245128 0
M  V30 8362 H 798.626 -3.72428 1.39793 0
M  V30 8363 H 795.365 -5.17806 4.01941 0
M  V30 8364 H 794.885 -5.52199 2.34172 0
M  V30 8365 H 796.564 -5.80009 2.86703 0
M  V30 8366 N 796.696 -0.74468 -1.38897 0
M  V30 8367 C 797.921 -0.306119 -2.05128 0
M  V30 8368 C 798.346 1.0541 -1.55789 0
M  V30 8369 O 797.704 1.66993 -0.705909 0
M  V30 8370 C 797.752 -0.328195 -3.59103 0
M  V30 8371 O 796.856 0.680876 -4.06741 0
M  V30 8372 H 796.197 -0.137209 -0.649669 0
M  V30 8373 H 798.727 -1.01331 -1.77745 0
M  V30 8374 H 798.737 -0.175956 -4.0762 0
M  V30 8375 H 797.412 -1.32067 -3.94374 0
M  V30 8376 H 795.989 0.49398 -3.69614 0
M  V30 8377 N 798.174 1.49689 -0.493057 0
M  V30 8378 C 799.585 1.8665 -0.0433032 0
M  V30 8379 C 799.936 1.40607 1.36836 0
M  V30 8380 O 799.061 0.780503 2.01834 0
M  V30 8381 C 799.656 3.38724 -0.0718069 0
M  V30 8382 C 798.215 3.75015 0.32257 0
M  V30 8383 C 797.362 2.7366 -0.4478 0
M  V30 8384 H 800.313 1.42119 -0.706246 0
M  V30 8385 H 800.334 3.73522 0.725347 0
M  V30 8386 H 799.846 3.72204 -1.09935 0
M  V30 8387 H 797.947 3.47142 1.35364 0
M  V30 8388 H 798.06 4.79099 0.00864259 0
M  V30 8389 H 796.424 2.54498 0.101354 0
M  V30 8390 H 797.207 3.09985 -1.47527 0
M  V30 8391 N 799.652 0.226554 1.55963 0
M  V30 8392 C 800.584 -0.713907 2.17798 0
M  V30 8393 C 801.597 -1.15387 1.14846 0
M  V30 8394 O 802.786 -1.08416 1.41804 0
M  V30 8395 C 799.886 -1.97945 2.75084 0
M  V30 8396 C 799.059 -1.69424 4.03255 0
M  V30 8397 C 798.118 -2.80734 4.45056 0
M  V30 8398 O 797.144 -2.4899 5.11852 0
M  V30 8399 N 798.346 -4.09797 4.11152 0
M  V30 8400 H 801.111 -0.18494 2.99129 0
M  V30 8401 H 798.672 0.0457346 1.61835 0
M  V30 8402 H 800.664 -2.71611 3.00016 0
M  V30 8403 H 799.234 -2.41876 1.98027 0
M  V30 8404 H 798.454 -0.793767 3.86126 0
M  V30 8405 H 799.742 -1.47806 4.86858 0
M  V30 8406 H 799.14 -4.38429 3.57486 0
M  V30 8407 H 797.697 -4.79992 4.40966 0
M  V30 8408 N 801.13 -1.57531 -0.0467866 0
M  V30 8409 C 802.062 -2.02156 -1.08007 0
M  V30 8410 C 803.075 -0.931434 -1.33522 0
M  V30 8411 O 804.264 -1.209 -1.31321 0
M  V30 8412 C 801.364 -2.36675 -2.42566 0
M  V30 8413 C 800.537 -3.67848 -2.36658 0
M  V30 8414 C 799.596 -3.89754 -3.53523 0
M  V30 8415 O 798.622 -4.61036 -3.33818 0
M  V30 8416 N 799.824 -3.34025 -4.74771 0
M  V30 8417 H 802.589 -2.91414 -0.699845 0
M  V30 8418 H 800.15 -1.60185 -0.235041 0
M  V30 8419 H 802.142 -2.48482 -3.19435 0
M  V30 8420 H 800.712 -1.53178 -2.72498 0
M  V30 8421 H 799.932 -3.66561 -1.45005 0
M  V30 8422 H 801.22 -4.53931 -2.29835 0
M  V30 8423 H 800.618 -2.76214 -4.93683 0
M  V30 8424 H 799.175 -3.51241 -5.49066 0
M  V30 8425 N 802.608 0.318715 -1.54344 0
M  V30 8426 C 803.836 1.0755 -1.7675 0
M  V30 8427 C 804.251 1.81543 -0.518422 0
M  V30 8428 O 803.608 1.75198 0.511078 0
M  V30 8429 C 803.659 2.06983 -2.96378 0
M  V30 8430 O 803.38 1.35995 -4.16458 0
M  V30 8431 C 804.881 2.94841 -3.31034 0
M  V30 8432 H 802.101 0.319711 -0.589937 0
M  V30 8433 H 804.645 0.363369 -2.01246 0
M  V30 8434 H 802.8 2.73724 -2.74142 0
M  V30 8435 H 803.214 2.02623 -4.83781 0
M  V30 8436 H 804.688 3.60496 -4.18027 0
M  V30 8437 H 805.165 3.62199 -2.48412 0
M  V30 8438 H 805.771 2.33656 -3.55366 0
M  V30 8439 N 804.086 1.46499 0.581025 0
M  V30 8440 C 805.049 1.5677 1.672 0
M  V30 8441 C 806.049 0.444716 1.54528 0
M  V30 8442 O 807.239 0.709074 1.59116 0
M  V30 8443 C 804.371 1.4896 3.06633 0
M  V30 8444 H 805.564 2.54 1.5945 0
M  V30 8445 H 803.117 1.34334 0.799003 0
M  V30 8446 H 803.852 0.530168 3.19937 0
M  V30 8447 H 803.637 2.30439 3.17239 0
M  V30 8448 H 805.127 1.59237 3.86048 0
M  V30 8449 N 805.565 -0.825799 1.34232 0
M  V30 8450 C 806.79 -1.61883 1.29648 0
M  V30 8451 C 807.215 -1.87669 -0.127295 0
M  V30 8452 O 806.573 -1.45016 -1.08813 0
M  V30 8453 C 806.621 -2.93846 2.09014 0
M  V30 8454 O 805.725 -3.85778 1.4577 0
M  V30 8455 H 805.066 -0.492454 0.445405 0
M  V30 8456 H 807.596 -1.02641 1.76992 0
M  V30 8457 H 807.606 -3.43435 2.20264 0
M  V30 8458 H 806.281 -2.74401 3.12533 0
M  V30 8459 H 804.858 -3.4429 1.43245 0
M  V30 8460 N 807.043 -1.17915 -1.04565 0
M  V30 8461 C 808.289 -0.972863 -1.77942 0
M  V30 8462 C 808.622 0.496753 -1.87739 0
M  V30 8463 O 807.897 1.3688 -1.38181 0
M  V30 8464 C 808.18 -1.62227 -3.21488 0
M  V30 8465 C 808.033 -3.16441 -3.19664 0
M  V30 8466 C 809.352 -1.33137 -4.19479 0
M  V30 8467 H 806.471 -0.354843 -0.645953 0
M  V30 8468 H 809.113 -1.45508 -1.22178 0
M  V30 8469 H 807.263 -1.21224 -3.69103 0
M  V30 8470 H 808.935 -3.66544 -2.80077 0
M  V30 8471 H 807.178 -3.48863 -2.57832 0
M  V30 8472 H 807.849 -3.57012 -4.21006 0
M  V30 8473 H 810.325 -1.68654 -3.80388 0
M  V30 8474 H 809.201 -1.81151 -5.18146 0
M  V30 8475 H 809.462 -0.253319 -4.41374 0
M  V30 8476 N 808.521 1.23394 -0.980386 0
M  V30 8477 C 809.749 1.95844 -0.667286 0
M  V30 8478 C 810.164 1.72574 0.765735 0
M  V30 8479 O 809.521 1.01715 1.51526 0
M  V30 8480 C 809.572 3.48844 -0.948151 0
M  V30 8481 O 809.293 3.71325 -2.32485 0
M  V30 8482 C 810.794 4.38494 -0.651002 0
M  V30 8483 H 808.014 0.623535 -0.247882 0
M  V30 8484 H 810.558 1.56885 -1.31176 0
M  V30 8485 H 808.713 3.85819 -0.349681 0
M  V30 8486 H 809.127 4.65619 -2.41452 0
M  V30 8487 H 810.601 5.44648 -0.897887 0
M  V30 8488 H 811.078 4.37236 0.414922 0
M  V30 8489 H 811.684 4.07127 -1.22995 0
M  V30 8490 N 809.999 0.752036 1.385 0
M  V30 8491 C 811.246 0.307503 2.00152 0
M  V30 8492 C 811.574 -1.11033 1.59693 0
M  V30 8493 O 810.829 -1.77455 0.825125 0
M  V30 8494 C 811.128 0.376155 3.55415 0
M  V30 8495 C 810.794 1.74942 4.15579 0
M  V30 8496 C 809.456 2.12525 4.31725 0
M  V30 8497 C 811.808 2.65031 4.48785 0
M  V30 8498 C 809.136 3.39671 4.78373 0
M  V30 8499 C 811.488 3.91567 4.96848 0
M  V30 8500 C 810.152 4.2922 5.11201 0
M  V30 8501 H 809.422 0.112523 0.732407 0
M  V30 8502 H 812.069 0.962213 1.65571 0
M  V30 8503 H 810.374 -0.362121 3.90123 0
M  V30 8504 H 812.071 0.0138065 4.00998 0
M  V30 8505 H 808.661 1.44726 4.03426 0
M  V30 8506 H 812.845 2.3726 4.35914 0
M  V30 8507 H 808.101 3.68765 4.8767 0
M  V30 8508 H 812.275 4.61517 5.21512 0
M  V30 8509 H 809.902 5.27805 5.47107 0
M  V30 8510 N 811.477 -1.49425 0.500989 0
M  V30 8511 C 812.705 -2.06861 -0.0403443 0
M  V30 8512 C 813.12 -1.36132 -1.30819 0
M  V30 8513 O 812.477 -0.439647 -1.77125 0
M  V30 8514 C 812.528 -3.6027 -0.297902 0
M  V30 8515 O 812.249 -4.28338 0.919686 0
M  V30 8516 C 813.75 -4.34419 -0.882876 0
M  V30 8517 H 810.97 -0.670688 0.0204619 0
M  V30 8518 H 813.514 -1.92207 0.698342 0
M  V30 8519 H 811.669 -3.74627 -0.98657 0
M  V30 8520 H 812.083 -5.2004 0.682528 0
M  V30 8521 H 813.557 -5.42631 -1.01268 0
M  V30 8522 H 814.034 -3.96898 -1.88066 0
M  V30 8523 H 814.64 -4.24669 -0.231677 0
M  V30 8524 N 812.955 -0.234822 -1.55841 0
M  V30 8525 C 813.918 0.656378 -2.196 0
M  V30 8526 C 814.918 1.11179 -1.16171 0
M  V30 8527 O 816.108 1.01845 -1.41326 0
M  V30 8528 C 813.24 1.90072 -2.82993 0
M  V30 8529 H 814.433 0.100281 -2.99732 0
M  V30 8530 H 811.986 0.0147613 -1.56293 0
M  V30 8531 H 812.721 2.49836 -2.06767 0
M  V30 8532 H 812.506 1.5825 -3.58747 0
M  V30 8533 H 813.996 2.53538 -3.31826 0
M  V30 8534 N 814.433 1.57553 0.0384317 0
M  V30 8535 C 815.681 1.88468 0.729672 0
M  V30 8536 C 816.002 0.831302 1.76393 0
M  V30 8537 O 815.272 -0.13622 1.95426 0
M  V30 8538 H 813.852 0.695529 0.272485 0
M  V30 8539 H 816.514 1.94899 0.0066032 0
M  V30 8540 H 815.61 2.8705 1.22511 0
M  V30 8541 N 815.911 -0.310526 1.54511 0
M  V30 8542 C 816.858 -1.38264 1.84802 0
M  V30 8543 C 817.828 -1.50808 0.696141 0
M  V30 8544 O 819.013 -1.6582 0.943846 0
M  V30 8545 C 816.153 -2.74422 2.09252 0
M  V30 8546 C 815.266 -2.70405 3.36906 0
M  V30 8547 C 814.401 -3.98495 3.51248 0
M  V30 8548 C 813.44 -3.88836 4.72729 0
M  V30 8549 N 812.577 -5.08683 4.83928 0
M  V30 8550 H 817.417 -1.11732 2.76261 0
M  V30 8551 H 814.954 -0.540609 1.36806 0
M  V30 8552 H 816.912 -3.53593 2.21422 0
M  V30 8553 H 815.542 -2.99235 1.2107 0
M  V30 8554 H 814.594 -1.83151 3.33406 0
M  V30 8555 H 815.906 -2.59155 4.26193 0
M  V30 8556 H 815.06 -4.861 3.63031 0
M  V30 8557 H 813.799 -4.12567 2.60077 0
M  V30 8558 H 812.804 -2.99615 4.60989 0
M  V30 8559 H 814.029 -3.76318 5.65298 0
M  V30 8560 H 811.975 -5.23236 3.95677 0
M  V30 8561 H 811.892 -4.99819 5.67201 0
M  V30 8562 H 813.16 -5.97966 5.00057 0
M  V30 8563 N 817.389 -1.46805 -0.573248 0
M  V30 8564 C 818.8 -1.46655 -1.15539 0
M  V30 8565 C 819.151 -0.2125 -1.95046 0
M  V30 8566 O 818.276 0.683759 -2.05314 0
M  V30 8567 C 818.871 -2.65711 -2.10198 0
M  V30 8568 C 817.43 -2.68572 -2.63716 0
M  V30 8569 C 816.577 -2.39498 -1.39772 0
M  V30 8570 H 819.528 -1.54547 -0.36068 0
M  V30 8571 H 819.549 -2.41768 -2.93817 0
M  V30 8572 H 819.061 -3.56967 -1.52303 0
M  V30 8573 H 817.162 -1.81414 -3.25453 0
M  V30 8574 H 817.275 -3.68809 -3.05805 0
M  V30 8575 H 815.639 -1.89749 -1.69904 0
M  V30 8576 H 816.422 -3.32942 -0.836943 0
M  V30 8577 N 818.867 0.818669 -1.34668 0
M  V30 8578 C 820.115 1.57201 -1.27013 0
M  V30 8579 C 820.436 1.94354 0.158599 0
M  V30 8580 O 819.706 1.62626 1.09223 0
M  V30 8581 H 818.286 0.582919 -0.467135 0
M  V30 8582 H 820.948 0.977234 -1.6863 0
M  V30 8583 H 820.044 2.49291 -1.87778 0
M  V30 8584 N 820.346 1.18468 1.03938 0
M  V30 8585 C 821.592 0.982286 1.77423 0
M  V30 8586 C 821.925 -0.48679 1.88 0
M  V30 8587 O 821.2 -1.36146 1.38905 0
M  V30 8588 C 821.483 1.63929 3.20623 0
M  V30 8589 C 821.336 3.18132 3.17982 0
M  V30 8590 C 822.655 1.3536 4.18767 0
M  V30 8591 H 819.774 0.358264 0.644062 0
M  V30 8592 H 822.416 1.46154 1.21405 0
M  V30 8593 H 820.566 1.2318 3.68455 0
M  V30 8594 H 822.238 3.68024 2.78129 0
M  V30 8595 H 820.481 3.50225 2.55978 0
M  V30 8596 H 821.152 3.5924 4.19107 0
M  V30 8597 H 823.628 1.70669 3.79488 0
M  V30 8598 H 822.504 1.83896 5.17178 0
M  V30 8599 H 822.765 0.276722 4.41233 0
M  V30 8600 N 821.824 -1.22873 0.986916 0
M  V30 8601 C 823.054 -1.95204 0.67668 0
M  V30 8602 C 823.462 -1.73193 -0.761641 0
M  V30 8603 O 822.805 -1.0243 -1.52492 0
M  V30 8604 C 822.867 -3.48173 0.895302 0
M  V30 8605 C 822.531 -3.93912 2.31695 0
M  V30 8606 C 823.528 -4.02064 3.29607 0
M  V30 8607 C 821.213 -4.26722 2.64978 0
M  V30 8608 C 823.207 -4.42391 4.58878 0
M  V30 8609 C 820.894 -4.66729 3.94471 0
M  V30 8610 C 821.892 -4.74531 4.91232 0
M  V30 8611 O 821.58 -5.13636 6.18412 0
M  V30 8612 H 821.312 -0.628105 0.24992 0
M  V30 8613 H 823.866 -1.5714 1.32274 0
M  V30 8614 H 822.096 -3.86223 0.192072 0
M  V30 8615 H 823.785 -4.01717 0.581233 0
M  V30 8616 H 824.551 -3.76912 3.05225 0
M  V30 8617 H 820.43 -4.19858 1.9037 0
M  V30 8618 H 823.974 -4.48395 5.34404 0
M  V30 8619 H 819.871 -4.91332 4.18645 0
M  V30 8620 H 820.639 -5.31728 6.2226 0
M  V30 8621 N 823.302 -0.75937 -1.38099 0
M  V30 8622 C 824.548 -0.327559 -2.00745 0
M  V30 8623 C 824.903 1.08042 -1.592 0
M  V30 8624 O 824.196 1.7306 -0.822236 0
M  V30 8625 C 824.39 -0.394999 -3.55211 0
M  V30 8626 C 824.219 -1.80798 -4.11755 0
M  V30 8627 C 822.989 -2.42585 -4.43262 0
M  V30 8628 C 825.187 -2.76556 -4.33614 0
M  V30 8629 N 823.169 -3.75784 -4.85448 0
M  V30 8630 C 824.54 -3.94532 -4.78273 0
M  V30 8631 C 826.595 -2.74004 -4.15724 0
M  V30 8632 C 825.298 -5.10322 -5.06916 0
M  V30 8633 C 827.324 -3.88957 -4.45496 0
M  V30 8634 C 826.686 -5.05672 -4.90383 0
M  V30 8635 H 822.785 -0.166644 -0.764038 0
M  V30 8636 H 825.369 -0.99056 -1.67619 0
M  V30 8637 H 823.54 0.237761 -3.87672 0
M  V30 8638 H 825.272 0.0576828 -4.04659 0
M  V30 8639 H 822.027 -1.94302 -4.31907 0
M  V30 8640 H 822.451 -4.44234 -5.10867 0
M  V30 8641 H 827.093 -1.84948 -3.80203 0
M  V30 8642 H 824.811 -5.99988 -5.41332 0
M  V30 8643 H 828.397 -3.88308 -4.33253 0
M  V30 8644 H 827.277 -5.93146 -5.1298 0
M  V30 8645 N 824.78 1.49157 -0.508906 0
M  V30 8646 C 826.01 2.06579 0.0293308 0
M  V30 8647 C 826.418 1.36852 1.30645 0
M  V30 8648 O 825.761 0.443079 1.78276 0
M  V30 8649 C 825.823 3.57838 0.345296 0
M  V30 8650 C 825.487 4.49302 -0.835256 0
M  V30 8651 C 826.484 4.90345 -1.72793 0
M  V30 8652 C 824.169 4.91494 -1.0363 0
M  V30 8653 C 826.163 5.72327 -2.80573 0
M  V30 8654 C 823.85 5.7325 -2.11726 0
M  V30 8655 C 824.848 6.13572 -3.00032 0
M  V30 8656 O 824.536 6.93691 -4.06261 0
M  V30 8657 H 824.268 0.675679 -0.0208193 0
M  V30 8658 H 826.822 1.9282 -0.707789 0
M  V30 8659 H 825.052 3.69634 1.13612 0
M  V30 8660 H 826.741 3.97467 0.823089 0
M  V30 8661 H 827.507 4.58388 -1.58446 0
M  V30 8662 H 823.386 4.59605 -0.358308 0
M  V30 8663 H 826.93 6.03719 -3.49527 0
M  V30 8664 H 822.827 6.0462 -2.26065 0
M  V30 8665 H 823.595 7.12011 -4.03711 0
M  V30 8666 N 826.258 0.243083 1.55714 0
M  V30 8667 C 827.488 -0.38641 2.02954 0
M  V30 8668 C 827.896 -1.52358 1.12177 0
M  V30 8669 O 827.239 -1.83255 0.127853 0
M  V30 8670 C 827.301 -0.959388 3.46462 0
M  V30 8671 C 826.965 0.0450546 4.56978 0
M  V30 8672 C 827.962 0.853224 5.12851 0
M  V30 8673 C 825.647 0.170041 5.02012 0
M  V30 8674 C 827.641 1.77288 6.12248 0
M  V30 8675 C 825.328 1.0932 6.01242 0
M  V30 8676 C 826.326 1.89315 6.56238 0
M  V30 8677 O 826.014 2.80075 7.53534 0
M  V30 8678 H 825.746 -0.0964333 0.669086 0
M  V30 8679 H 828.3 0.363399 2.0216 0
M  V30 8680 H 826.53 -1.75869 3.44394 0
M  V30 8681 H 828.219 -1.49856 3.77224 0
M  V30 8682 H 828.985 0.767229 4.78893 0
M  V30 8683 H 824.864 -0.442528 4.58871 0
M  V30 8684 H 828.408 2.39768 6.55101 0
M  V30 8685 H 824.305 1.18013 6.3462 0
M  V30 8686 H 825.073 2.74393 7.71136 0
M  V30 8687 N 827.736 -1.57571 -0.0300757 0
M  V30 8688 C 828.976 -1.91074 -0.725946 0
M  V30 8689 C 829.34 -0.841545 -1.72575 0
M  V30 8690 O 830.541 -1.06088 -2.46979 0
M  V30 8691 C 828.812 -3.2973 -1.37888 0
M  V30 8692 S 830.371 -3.85065 -2.10405 0
M  V30 8693 H 827.189 -0.669084 -0.240515 0
M  V30 8694 H 829.791 -1.9549 0.019384 0
M  V30 8695 H 828.495 -4.05411 -0.637974 0
M  V30 8696 H 828.026 -3.28614 -2.16278 0
M  V30 8697 H 830.041 -3.63711 -3.37533 0
M  V30 8698 N 829.214 0.302327 -1.54673 0
M  V30 8699 C 830.162 1.39286 -1.86285 0
M  V30 8700 C 831.156 1.52553 -0.736478 0
M  V30 8701 O 832.362 1.54686 -0.92045 0
M  V30 8702 H 828.737 0.465228 -0.590819 0
M  V30 8703 H 830.708 1.09859 -2.77441 0
M  V30 8704 C 829.457 2.75155 -2.12567 0
M  V30 8705 H 828.78 2.65728 -2.98712 0
M  V30 8706 H 830.22 3.50476 -2.38627 0
M  V30 8707 C 828.679 3.23987 -0.923813 0
M  V30 8708 O 829.209 4.01443 -0.143649 0
M  V30 8709 N 827.415 2.81293 -0.72956 0
M  V30 8710 H 826.962 2.18421 -1.36565 0
M  V30 8711 H 826.92 3.14315 0.0730351 0
M  V30 8712 N 830.692 1.47107 0.565454 0
M  V30 8713 C 831.938 1.54519 1.3227 0
M  V30 8714 C 832.293 0.201313 1.91344 0
M  V30 8715 O 831.586 -0.792058 1.74462 0
M  V30 8716 C 831.78 2.59309 2.45954 0
M  V30 8717 C 831.609 4.03756 1.98019 0
M  V30 8718 C 830.379 4.71293 1.8224 0
M  V30 8719 C 832.577 4.91029 1.52955 0
M  V30 8720 N 830.559 6.00288 1.28557 0
M  V30 8721 C 831.93 6.09986 1.10981 0
M  V30 8722 C 833.985 4.77539 1.4093 0
M  V30 8723 C 832.688 7.16943 0.581796 0
M  V30 8724 C 834.714 5.84584 0.895307 0
M  V30 8725 C 834.076 7.02725 0.485454 0
M  V30 8726 H 830.175 0.620177 0.476345 0
M  V30 8727 H 832.759 1.83814 0.641901 0
M  V30 8728 H 830.93 2.31896 3.11575 0
M  V30 8729 H 832.662 2.56614 3.1294 0
M  V30 8730 H 829.417 4.27074 2.04707 0
M  V30 8731 H 829.841 6.68991 1.03828 0
M  V30 8732 H 834.483 3.86574 1.71231 0
M  V30 8733 H 832.201 8.07661 0.266399 0
M  V30 8734 H 835.787 5.76191 0.805939 0
M  V30 8735 H 834.667 7.84144 0.0938828 0
M  V30 8736 N 832.17 -0.811516 1.35101 0
M  V30 8737 C 833.417 -1.56835 1.28098 0
M  V30 8738 C 833.745 -1.93951 -0.14597 0
M  V30 8739 O 833 -1.61173 -1.11004 0
M  V30 8740 C 833.299 -2.87121 2.1283 0
M  V30 8741 C 832.965 -2.69245 3.61688 0
M  V30 8742 C 831.627 -2.64078 4.02264 0
M  V30 8743 C 833.979 -2.52122 4.56162 0
M  V30 8744 C 831.307 -2.39724 5.3549 0
M  V30 8745 C 833.659 -2.29298 5.89581 0
M  V30 8746 C 832.323 -2.2255 6.29307 0
M  V30 8747 H 831.593 -0.5739 0.468742 0
M  V30 8748 H 834.24 -0.93806 1.66951 0
M  V30 8749 H 832.545 -3.54502 1.66841 0
M  V30 8750 H 834.242 -3.44788 2.0475 0
M  V30 8751 H 830.832 -2.74112 3.29485 0
M  V30 8752 H 835.016 -2.5513 4.25702 0
M  V30 8753 H 830.272 -2.32965 5.65276 0
M  V30 8754 H 834.446 -2.15038 6.62368 0
M  V30 8755 H 832.073 -2.0344 7.32473 0
M  V30 8756 N 833.648 -1.19017 -1.03309 0
M  V30 8757 C 834.888 -1.00129 -1.78195 0
M  V30 8758 C 835.252 0.460236 -1.86402 0
M  V30 8759 O 836.453 0.768802 -2.57571 0
M  V30 8760 C 834.724 -1.64703 -3.17187 0
M  V30 8761 S 836.283 -1.60695 -4.08317 0
M  V30 8762 H 833.101 -0.359395 -0.613479 0
M  V30 8763 H 835.703 -1.51293 -1.23818 0
M  V30 8764 H 834.407 -2.70283 -3.08829 0
M  V30 8765 H 833.938 -1.136 -3.76641 0
M  V30 8766 H 835.953 -0.628171 -4.92208 0
M  V30 8767 N 835.127 1.22348 -0.993418 0
M  V30 8768 C 836.077 2.221 -0.515333 0
M  V30 8769 C 837.061 1.55409 0.416762 0
M  V30 8770 O 838.253 1.75317 0.243497 0
M  V30 8771 C 835.382 3.42888 0.168173 0
M  V30 8772 C 834.468 4.16786 -0.784257 0
M  V30 8773 N 834.859 4.67435 -1.93231 0
M  V30 8774 C 833.157 4.41942 -0.600243 0
M  V30 8775 C 833.858 5.23792 -2.53016 0
M  V30 8776 N 832.834 5.12483 -1.8128 0
M  V30 8777 H 836.636 2.58902 -1.39093 0
M  V30 8778 H 834.15 1.38024 -0.855747 0
M  V30 8779 H 836.147 4.13542 0.528069 0
M  V30 8780 H 834.807 3.07598 1.03989 0
M  V30 8781 H 835.818 4.63375 -2.31309 0
M  V30 8782 H 832.495 4.16891 0.225369 0
M  V30 8783 H 833.885 5.73515 -3.50043 0
M  V30 8784 N 836.605 0.766683 1.37694 0
M  V30 8785 C 837.568 0.155849 2.2867 0
M  V30 8786 C 838.568 -0.633509 1.47795 0
M  V30 8787 O 839.758 -0.457844 1.68076 0
M  V30 8788 C 836.89 -0.786965 3.31692 0
M  V30 8789 H 838.083 0.957748 2.84196 0
M  V30 8790 H 835.636 0.534554 1.46875 0
M  V30 8791 H 836.371 -1.61406 2.8128 0
M  V30 8792 H 836.156 -0.223182 3.91464 0
M  V30 8793 H 837.646 -1.20994 3.99688 0
M  V30 8794 N 838.083 -1.48885 0.516809 0
M  V30 8795 C 839.013 -2.32241 -0.242157 0
M  V30 8796 C 839.994 -1.41258 -0.947633 0
M  V30 8797 O 841.179 -1.70156 -0.935973 0
M  V30 8798 C 838.309 -3.22151 -1.29754 0
M  V30 8799 C 837.263 -4.22053 -0.710995 0
M  V30 8800 C 836.589 -5.01007 -1.86806 0
M  V30 8801 C 837.889 -5.21388 0.30853 0
M  V30 8802 H 839.583 -2.95943 0.453651 0
M  V30 8803 H 837.129 -1.42316 0.219612 0
M  V30 8804 H 839.082 -3.79284 -1.83634 0
M  V30 8805 H 837.806 -2.56423 -2.02274 0
M  V30 8806 H 836.465 -3.66087 -0.193819 0
M  V30 8807 H 836.113 -4.31713 -2.58133 0
M  V30 8808 H 835.813 -5.68615 -1.48159 0
M  V30 8809 H 837.337 -5.60989 -2.4109 0
M  V30 8810 H 838.751 -5.73122 -0.142703 0
M  V30 8811 H 837.148 -5.96975 0.611673 0
M  V30 8812 H 838.218 -4.69329 1.21894 0
M  V30 8813 N 839.561 -0.251338 -1.55583 0
M  V30 8814 C 840.511 0.660351 -2.18228 0
M  V30 8815 C 841.495 1.13596 -1.13951 0
M  V30 8816 O 842.687 1.08499 -1.39846 0
M  V30 8817 C 839.816 1.85498 -2.88869 0
M  V30 8818 C 838.902 1.39767 -4.00407 0
M  V30 8819 N 839.293 0.654876 -5.01543 0
M  V30 8820 C 837.591 1.68259 -4.13044 0
M  V30 8821 C 838.292 0.417521 -5.802 0
M  V30 8822 N 837.268 0.983032 -5.34638 0
M  V30 8823 H 841.07 0.0847425 -2.93778 0
M  V30 8824 H 838.584 -0.0538456 -1.62311 0
M  V30 8825 H 840.581 2.51916 -3.3218 0
M  V30 8826 H 839.241 2.43477 -2.14823 0
M  V30 8827 H 840.252 0.304545 -5.17004 0
M  V30 8828 H 836.929 2.27344 -3.50172 0
M  V30 8829 H 838.319 -0.175764 -6.7167 0
M  V30 8830 N 841.039 1.57585 0.0217189 0
M  V30 8831 C 841.972 2.02435 1.05334 0
M  V30 8832 C 842.95 0.91006 1.34747 0
M  V30 8833 O 844.134 1.17648 1.47279 0
M  V30 8834 C 841.261 2.40362 2.38629 0
M  V30 8835 C 840.307 3.62307 2.25025 0
M  V30 8836 S 841.14 5.11141 1.59673 0
M  V30 8837 C 842.296 5.52316 2.94444 0
M  V30 8838 H 842.529 2.89621 0.671354 0
M  V30 8839 H 840.062 1.52648 0.231925 0
M  V30 8840 H 842.02 2.62883 3.15282 0
M  V30 8841 H 840.681 1.53615 2.73973 0
M  V30 8842 H 839.874 3.86523 3.23443 0
M  V30 8843 H 839.476 3.39675 1.56515 0
M  V30 8844 H 841.768 5.53449 3.90768 0
M  V30 8845 H 842.711 6.52539 2.74952 0
M  V30 8846 H 843.119 4.79834 2.97355 0
M  V30 8847 N 842.517 -0.29412 1.54831 0
M  V30 8848 C 843.427 -1.3854 1.89325 0
M  V30 8849 C 844.443 -1.55127 0.788133 0
M  V30 8850 O 845.619 -1.6966 1.08524 0
M  V30 8851 C 842.684 -2.72809 2.13954 0
M  V30 8852 C 841.745 -2.65148 3.37631 0
M  V30 8853 C 840.978 -3.93014 3.61076 0
M  V30 8854 O 841.201 -4.927 2.87406 0
M  V30 8855 O 840.135 -3.94491 4.54599 0
M  V30 8856 H 843.961 -1.12289 2.82179 0
M  V30 8857 H 841.546 -0.490793 1.41108 0
M  V30 8858 H 843.428 -3.52238 2.31315 0
M  V30 8859 H 842.103 -2.9889 1.24285 0
M  V30 8860 H 841.01 -1.84168 3.25627 0
M  V30 8861 H 842.343 -2.4402 4.27452 0
M  V30 8862 N 843.995 -1.47404 -0.557645 0
M  V30 8863 C 844.928 -1.54399 -1.68036 0
M  V30 8864 C 845.906 -0.396175 -1.577 0
M  V30 8865 O 847.09 -0.603911 -1.78564 0
M  V30 8866 C 844.217 -1.44611 -3.06277 0
M  V30 8867 C 843.263 -2.63889 -3.35059 0
M  V30 8868 S 844.096 -4.26086 -3.24362 0
M  V30 8869 C 845.252 -4.1885 -4.65097 0
M  V30 8870 H 845.485 -2.49384 -1.61849 0
M  V30 8871 H 843.018 -1.35597 -0.738429 0
M  V30 8872 H 844.976 -1.39651 -3.86015 0
M  V30 8873 H 843.637 -0.510114 -3.0993 0
M  V30 8874 H 842.83 -2.53103 -4.35838 0
M  V30 8875 H 842.432 -2.65969 -2.62938 0
M  V30 8876 H 844.724 -3.87077 -5.56037 0
M  V30 8877 H 845.667 -5.19714 -4.8094 0
M  V30 8878 H 846.075 -3.49717 -4.43123 0
M  V30 8879 N 845.473 0.80434 -1.35529 0
M  V30 8880 C 846.719 1.56385 -1.29118 0
M  V30 8881 C 847.052 1.9374 0.133536 0
M  V30 8882 O 846.327 1.6153 1.08344 0
M  V30 8883 C 846.61 2.85097 -2.19981 0
M  V30 8884 C 846.463 2.54204 -3.7108 0
M  V30 8885 C 847.782 3.86817 -2.09907 0
M  V30 8886 H 844.901 0.567382 -0.470368 0
M  V30 8887 H 847.543 0.925235 -1.6595 0
M  V30 8888 H 845.693 3.39594 -1.88701 0
M  V30 8889 H 847.365 2.05872 -4.12813 0
M  V30 8890 H 845.608 1.87364 -3.91251 0
M  V30 8891 H 846.279 3.46068 -4.30048 0
M  V30 8892 H 848.755 3.41725 -2.37409 0
M  V30 8893 H 847.631 4.7465 -2.75678 0
M  V30 8894 H 847.892 4.28663 -1.08171 0
M  V30 8895 N 846.951 1.19563 1.02676 0
M  V30 8896 C 848.199 0.997593 1.75763 0
M  V30 8897 C 848.52 -0.47253 1.89188 0
M  V30 8898 O 847.79 -1.34214 1.42701 0
M  V30 8899 H 846.37 0.366128 0.651122 0
M  V30 8900 H 849.032 1.50495 1.23844 0
M  V30 8901 H 848.128 1.44741 2.76508 0
M  V30 8902 N 848.429 -1.21819 0.999893 0
M  V30 8903 C 849.845 -1.42847 0.711824 0
M  V30 8904 C 850.045 -1.88391 -0.714928 0
M  V30 8905 O 849.101 -2.0422 -1.48494 0
M  V30 8906 C 850.414 -2.46417 1.72334 0
M  V30 8907 C 851.962 -2.60207 1.73958 0
M  V30 8908 C 852.437 -3.67005 2.73992 0
M  V30 8909 N 853.928 -3.7447 2.72628 0
M  V30 8910 C 854.663 -4.56718 3.46693 0
M  V30 8911 N 854.159 -5.42904 4.3038 0
M  V30 8912 N 855.952 -4.51094 3.35366 0
M  V30 8913 H 848.103 -0.905656 1.92124 0
M  V30 8914 H 850.366 -0.459893 0.828977 0
M  V30 8915 H 850.072 -2.19914 2.74465 0
M  V30 8916 H 849.946 -3.45137 1.52186 0
M  V30 8917 H 852.333 -2.8605 0.725217 0
M  V30 8918 H 852.414 -1.61739 1.98177 0
M  V30 8919 H 852.058 -3.41908 3.75582 0
M  V30 8920 H 851.988 -4.65058 2.4704 0
M  V30 8921 H 854.479 -3.12895 2.11909 0
M  V30 8922 H 854.792 -6.02704 4.83702 0
M  V30 8923 H 853.137 -5.42463 4.34464 0
M  V30 8924 H 856.328 -3.82791 2.69423 0
M  V30 8925 H 856.501 -5.1496 3.93344 0
M  V30 8926 N 849.908 -0.773975 -1.37286 0
M  V30 8927 C 850.841 -0.108019 -2.27944 0
M  V30 8928 C 851.819 0.706737 -1.46438 0
M  V30 8929 O 853.003 0.681025 -1.75768 0
M  V30 8930 C 850.13 0.853199 -3.27778 0
M  V30 8931 C 849.176 0.122164 -4.26325 0
M  V30 8932 S 850.009 -1.19136 -5.22079 0
M  V30 8933 C 851.165 -0.233737 -6.25463 0
M  V30 8934 H 851.398 -0.876743 -2.84078 0
M  V30 8935 H 848.931 -0.567468 -1.43594 0
M  V30 8936 H 850.889 1.40238 -3.85803 0
M  V30 8937 H 849.55 1.59505 -2.70586 0
M  V30 8938 H 848.743 0.850926 -4.96765 0
M  V30 8939 H 848.345 -0.356079 -3.72301 0
M  V30 8940 H 850.637 0.59305 -6.74899 0
M  V30 8941 H 851.58 -0.906373 -7.02275 0
M  V30 8942 H 851.988 0.156048 -5.64284 0
M  V30 8943 N 851.386 1.48609 -0.524698 0
M  V30 8944 C 852.316 2.32366 0.229837 0
M  V30 8945 C 853.297 1.41759 0.940129 0
M  V30 8946 O 854.482 1.7065 0.926936 0
M  V30 8947 C 851.612 3.22835 1.28043 0
M  V30 8948 C 850.566 4.22424 0.688603 0
M  V30 8949 C 849.892 5.0199 1.84146 0
M  V30 8950 C 851.192 5.21217 -0.336176 0
M  V30 8951 H 852.886 2.95698 -0.469339 0
M  V30 8952 H 850.432 1.42197 -0.227156 0
M  V30 8953 H 852.385 3.80253 1.8162 0
M  V30 8954 H 851.109 2.57492 2.00912 0
M  V30 8955 H 849.768 3.66185 0.174402 0
M  V30 8956 H 849.416 4.33076 2.5584 0
M  V30 8957 H 849.116 5.69392 1.45142 0
M  V30 8958 H 850.64 5.62259 2.38111 0
M  V30 8959 H 852.054 5.7319 0.112307 0
M  V30 8960 H 850.451 5.96642 -0.643324 0
M  V30 8961 H 851.521 4.68676 -1.24381 0
M  V30 8962 N 852.864 0.259585 1.55447 0
M  V30 8963 C 854.11 -0.362143 1.9954 0
M  V30 8964 C 854.443 -1.5666 1.14767 0
M  V30 8965 O 853.718 -1.93319 0.214025 0
M  V30 8966 C 854.001 -0.759588 3.51998 0
M  V30 8967 C 853.854 0.451134 4.47532 0
M  V30 8968 C 855.173 -1.60186 4.09913 0
M  V30 8969 H 852.292 -0.130157 0.725416 0
M  V30 8970 H 854.934 0.363431 1.86492 0
M  V30 8971 H 853.084 -1.3778 3.63248 0
M  V30 8972 H 854.756 1.08965 4.48246 0
M  V30 8973 H 852.999 1.092 4.19831 0
M  V30 8974 H 853.67 0.129518 5.51848 0
M  V30 8975 H 856.146 -1.0799 4.01842 0
M  V30 8976 H 855.022 -1.84879 5.16828 0
M  V30 8977 H 855.283 -2.57787 3.59163 0
M  V30 8978 N 854.342 -1.57594 -0.0133615 0
M  V30 8979 C 855.252 -2.10991 -1.02566 0
M  V30 8980 C 856.268 -1.05208 -1.3859 0
M  V30 8981 O 857.444 -1.37034 -1.47593 0
M  V30 8982 C 854.509 -2.59165 -2.30292 0
M  V30 8983 C 853.57 -3.79495 -2.00704 0
M  V30 8984 C 852.803 -4.25361 -3.22341 0
M  V30 8985 O 853.026 -3.70645 -4.33565 0
M  V30 8986 O 851.96 -5.17649 -3.07121 0
M  V30 8987 H 855.786 -2.97678 -0.601806 0
M  V30 8988 H 853.371 -1.47598 -0.23135 0
M  V30 8989 H 855.253 -2.90409 -3.05354 0
M  V30 8990 H 853.928 -1.75582 -2.71942 0
M  V30 8991 H 852.835 -3.53245 -1.23161 0
M  V30 8992 H 854.168 -4.64109 -1.639 0
M  V30 8993 N 855.82 0.285905 -1.54985 0
M  V30 8994 C 856.783 1.33625 -1.86218 0
M  V30 8995 C 857.783 1.42971 -0.735936 0
M  V30 8996 O 858.973 1.42345 -1.00417 0
M  V30 8997 C 856.105 2.71926 -2.05595 0
M  V30 8998 H 857.298 1.07167 -2.80099 0
M  V30 8999 H 854.851 0.523335 -1.47278 0
M  V30 9000 H 855.586 3.03583 -1.14053 0
M  V30 9001 H 855.371 2.6653 -2.87583 0
M  V30 9002 H 856.861 3.47841 -2.31077 0
M  V30 9003 N 857.298 1.47698 0.54982 0
M  V30 9004 C 858.261 1.60282 1.63837 0
M  V30 9005 C 859.261 0.477394 1.5355 0
M  V30 9006 O 860.451 0.742665 1.57576 0
M  V30 9007 C 857.583 1.55431 3.03404 0
M  V30 9008 H 858.776 2.57325 1.54026 0
M  V30 9009 H 856.329 1.35999 0.770329 0
M  V30 9010 H 857.064 0.597912 3.1874 0
M  V30 9011 H 856.849 2.37116 3.12279 0
M  V30 9012 H 858.339 1.6739 3.82584 0
M  V30 9013 O 858.815 -0.694561 1.45802 0
M  V30 9014 H 859.506 -1.34642 1.39252 0
M  V30 END ATOM
M  V30 BEGIN BOND
M  V30 END BOND
M  V30 END CTAB
M  END
$$$$
