drugbank_target|Q7SID9 Oxidoreductase (DB03147)
 OpenBabel12092120243D

  0  0  0     0  0            999 V3000
M  V30 BEGIN CTAB
M  V30 COUNTS 8548 8682 0 0 0
M  V30 BEGIN ATOM
M  V30 1 H -0.908 1.98254 -0.117106 0
M  V30 2 N 0 1.576 0 0
M  V30 3 C 1.225 1.95249 0.699468 0
M  V30 4 C 1.65 0.874934 1.66513 0
M  V30 5 O 1.008 -0.166929 1.8053 0
M  V30 6 C 1.056 3.31994 1.40756 0
M  V30 7 O 0.16 3.26298 2.52197 0
M  V30 8 H -0.499 0.637402 0.186051 0
M  V30 9 H 2.031 2.04531 -0.05319 0
M  V30 10 H 2.041 3.6756 1.77098 0
M  V30 11 H 0.716 4.09975 0.69953 0
M  V30 12 H -0.707 3.02408 2.18183 0
M  V30 13 N 1.4781 -0.272755 1.55222 0
M  V30 14 C 2.7061 -1.02255 1.79865 0
M  V30 15 C 3.1211 -1.79924 0.572088 0
M  V30 16 O 2.4781 -1.76638 -0.458842 0
M  V30 17 C 2.5291 -1.98094 3.02392 0
M  V30 18 O 2.2501 -1.23572 4.20311 0
M  V30 19 C 3.7511 -2.84884 3.39641 0
M  V30 20 H 0.9711 -0.302057 0.599168 0
M  V30 21 H 3.5151 -0.303465 2.02236 0
M  V30 22 H 1.6701 -2.65465 2.82147 0
M  V30 23 H 2.0841 -1.88172 4.89583 0
M  V30 24 H 3.5581 -3.47927 4.28545 0
M  V30 25 H 4.0351 -3.54665 2.59055 0
M  V30 26 H 4.6411 -2.23003 3.62146 0
M  V30 27 N 2.9562 -1.48159 -0.537278 0
M  V30 28 C 4.2042 -1.55497 -1.29094 0
M  V30 29 C 4.5252 -0.227454 -1.93669 0
M  V30 30 O 3.7952 0.750386 -1.80959 0
M  V30 31 H 2.3752 -0.572832 -0.47945 0
M  V30 32 H 5.0372 -1.84579 -0.625818 0
M  V30 33 H 4.1332 -2.33216 -2.07405 0
M  V30 34 N 4.4343 0.785586 -1.36625 0
M  V30 35 C 5.8453 1.36101 -1.27803 0
M  V30 36 C 6.1963 1.96035 0.0804875 0
M  V30 37 O 5.3213 1.92834 0.982042 0
M  V30 38 C 5.9163 2.47442 -2.31426 0
M  V30 39 C 4.4753 3.00789 -2.26281 0
M  V30 40 C 3.6223 1.73896 -2.15999 0
M  V30 41 H 6.5733 0.586928 -1.47448 0
M  V30 42 H 6.5943 3.2656 -1.95291 0
M  V30 43 H 6.1063 2.03791 -3.30289 0
M  V30 44 H 4.2073 3.48851 -1.30896 0
M  V30 45 H 4.3203 3.57343 -3.19128 0
M  V30 46 H 2.6843 1.9628 -1.62316 0
M  V30 47 H 3.4673 1.32368 -3.16755 0
M  V30 48 N 5.9124 1.20967 1.01018 0
M  V30 49 C 7.1584 1.02526 1.74975 0
M  V30 50 C 7.4914 -0.4408 1.89131 0
M  V30 51 O 6.7664 -1.32718 1.42184 0
M  V30 52 C 7.0494 1.71699 3.1653 0
M  V30 53 C 6.9024 3.25791 3.10129 0
M  V30 54 C 8.2214 1.45531 4.15342 0
M  V30 55 H 5.3404 0.373863 0.635134 0
M  V30 56 H 7.9824 1.49071 1.17805 0
M  V30 57 H 6.1324 1.32128 3.65341 0
M  V30 58 H 7.8044 3.74697 2.69072 0
M  V30 59 H 6.0474 3.56363 2.47362 0
M  V30 60 H 6.7184 3.69353 4.10222 0
M  V30 61 H 9.1944 1.79872 3.75213 0
M  V30 62 H 8.0704 1.96453 5.1254 0
M  V30 63 H 8.3314 0.384237 4.40427 0
M  V30 64 N 7.3905 -1.2043 1.01659 0
M  V30 65 C 8.3535 -2.21433 0.591616 0
M  V30 66 C 9.3535 -1.57203 -0.338226 0
M  V30 67 O 10.5435 -1.73737 -0.126918 0
M  V30 68 C 7.6755 -3.40628 -0.136058 0
M  V30 69 H 8.8685 -2.60545 1.48514 0
M  V30 70 H 6.4215 -1.33893 0.806379 0
M  V30 71 H 7.1565 -3.07019 -1.04449 0
M  V30 72 H 6.9415 -3.88475 0.531917 0
M  V30 73 H 8.4315 -4.15475 -0.420735 0
M  V30 74 N 8.8686 -0.792821 -1.36206 0
M  V30 75 C 10.2796 -0.429513 -1.81692 0
M  V30 76 C 10.6306 1.04695 -1.65932 0
M  V30 77 O 9.7556 1.81256 -1.18218 0
M  V30 78 C 10.3506 -0.772831 -3.29868 0
M  V30 79 C 8.9096 -0.462307 -3.7355 0
M  V30 80 C 8.0566 -1.00569 -2.5842 0
M  V30 81 H 11.0076 -0.985672 -1.24379 0
M  V30 82 H 11.0286 -0.0651928 -3.80444 0
M  V30 83 H 10.5406 -1.84747 -3.41307 0
M  V30 84 H 8.6416 0.604158 -3.67669 0
M  V30 85 H 8.7546 -0.985299 -4.68859 0
M  V30 86 H 7.1186 -0.428734 -2.51066 0
M  V30 87 H 7.9016 -2.08616 -2.72643 0
M  V30 88 N 10.3467 1.47872 -0.545128 0
M  V30 89 C 11.2767 2.32661 0.197793 0
M  V30 90 C 12.2577 1.43041 0.920504 0
M  V30 91 O 13.4427 1.71912 0.90333 0
M  V30 92 C 10.5727 3.24569 1.23582 0
M  V30 93 C 9.5267 4.23333 0.630323 0
M  V30 94 C 8.8527 5.0448 1.77211 0
M  V30 95 C 10.1527 5.20704 -0.407974 0
M  V30 96 H 11.8467 2.95024 -0.510045 0
M  V30 97 H 9.3927 1.4187 -0.246731 0
M  V30 98 H 11.3457 3.8272 1.76362 0
M  V30 99 H 10.0697 2.60236 1.97344 0
M  V30 100 H 8.7287 3.6639 0.123922 0
M  V30 101 H 8.3767 4.36561 2.49847 0
M  V30 102 H 8.0767 5.71339 1.37281 0
M  V30 103 H 9.6007 5.65487 2.3034 0
M  V30 104 H 11.0147 5.7329 0.033305 0
M  V30 105 H 9.4117 5.95699 -0.725486 0
M  V30 106 H 10.4817 4.66917 -1.30828 0
M  V30 107 N 11.8248 0.280983 1.55075 0
M  V30 108 C 13.2358 -0.215629 1.85451 0
M  V30 109 C 13.5868 -1.54991 1.203 0
M  V30 110 O 12.7118 -2.10699 0.493435 0
M  V30 111 C 13.3068 -0.398026 3.36454 0
M  V30 112 C 11.8658 -0.838866 3.66933 0
M  V30 113 C 11.0128 0.064458 2.77225 0
M  V30 114 H 13.9638 0.502601 1.50531 0
M  V30 115 H 13.9848 -1.23569 3.59876 0
M  V30 116 H 13.4968 0.573241 3.83843 0
M  V30 117 H 11.5978 -1.8214 3.25048 0
M  V30 118 H 11.7108 -0.672123 4.74362 0
M  V30 119 H 10.0748 -0.452863 2.50642 0
M  V30 120 H 10.8578 1.03172 3.2743 0
M  V30 121 N 13.3029 -1.57598 0.00835791 0
M  V30 122 C 14.5309 -1.95214 -0.68549 0
M  V30 123 C 14.9459 -0.883706 -1.66841 0
M  V30 124 O 14.3029 0.136565 -1.81988 0
M  V30 125 C 14.3539 -3.32865 -1.41007 0
M  V30 126 O 14.0749 -4.35609 -0.466552 0
M  V30 127 C 15.5759 -3.84991 -2.19765 0
M  V30 128 H 12.7959 -0.643422 -0.190392 0
M  V30 129 H 15.3399 -2.04406 0.0619607 0
M  V30 130 H 13.4949 -3.24956 -2.10908 0
M  V30 131 H 13.9089 -5.15288 -0.978699 0
M  V30 132 H 15.3829 -4.8371 -2.65948 0
M  V30 133 H 15.8599 -3.18137 -3.02796 0
M  V30 134 H 16.4659 -3.96103 -1.54864 0
M  V30 135 N 14.781 0.264519 -1.55364 0
M  V30 136 C 16.192 0.834936 -1.6699 0
M  V30 137 C 16.543 1.86718 -0.602552 0
M  V30 138 O 15.668 2.14899 0.254425 0
M  V30 139 C 16.263 1.5212 -3.02729 0
M  V30 140 C 14.822 2.03954 -3.16354 0
M  V30 141 C 13.969 0.884498 -2.62815 0
M  V30 142 H 16.92 0.0406869 -1.58648 0
M  V30 143 H 16.941 2.38853 -2.96191 0
M  V30 144 H 16.453 0.769668 -3.80392 0
M  V30 145 H 14.554 2.82041 -2.43482 0
M  V30 146 H 14.667 2.24902 -4.23032 0
M  V30 147 H 13.031 1.2802 -2.20188 0
M  V30 148 H 13.814 0.14634 -3.42988 0
M  V30 149 N 16.2591 1.48442 0.529413 0
M  V30 150 C 17.6701 1.5002 1.11134 0
M  V30 151 C 18.0211 0.27031 1.94329 0
M  V30 152 O 17.1461 -0.622507 2.07253 0
M  V30 153 C 17.7411 2.71834 2.02217 0
M  V30 154 C 16.3001 2.76283 2.55627 0
M  V30 155 C 15.4471 2.43542 1.326 0
M  V30 156 H 18.3981 1.5555 0.314641 0
M  V30 157 H 18.4191 2.50384 2.8651 0
M  V30 158 H 17.9311 3.61331 1.41639 0
M  V30 159 H 16.0321 1.90995 3.19924 0
M  V30 160 H 16.1451 3.77725 2.94721 0
M  V30 161 H 14.5091 1.94709 1.64196 0
M  V30 162 H 15.2921 3.3528 0.737734 0
M  V30 163 N 17.7372 -0.778329 1.37039 0
M  V30 164 C 18.6852 -1.91278 1.32345 0
M  V30 165 C 19.6792 -1.68051 0.213331 0
M  V30 166 O 20.8852 -1.75922 0.38098 0
M  V30 167 H 17.2602 -0.628909 0.412283 0
M  V30 168 H 19.2312 -1.92355 2.28127 0
M  V30 169 C 17.9802 -3.28455 1.14073 0
M  V30 170 H 17.3032 -3.46901 1.98746 0
M  V30 171 H 18.7432 -4.08152 1.14837 0
M  V30 172 C 17.2022 -3.36548 -0.154015 0
M  V30 173 O 17.7322 -3.85186 -1.13993 0
M  V30 174 N 15.9382 -2.89894 -0.202475 0
M  V30 175 H 15.4852 -2.50504 0.600476 0
M  V30 176 H 15.4432 -2.9569 -1.06841 0
M  V30 177 N 19.2153 -1.21501 -1.00376 0
M  V30 178 C 20.4623 -1.03299 -1.74171 0
M  V30 179 C 20.7903 0.433326 -1.89612 0
M  V30 180 O 20.0453 1.33779 -1.42834 0
M  V30 181 C 20.3443 -1.67673 -3.15627 0
M  V30 182 C 20.0103 -3.17533 -3.2013 0
M  V30 183 C 18.6723 -3.58427 -3.21067 0
M  V30 184 C 21.0243 -4.13504 -3.17275 0
M  V30 185 C 18.3523 -4.93794 -3.16835 0
M  V30 186 C 20.7043 -5.48834 -3.14585 0
M  V30 187 C 19.3683 -5.89123 -3.13831 0
M  V30 188 H 18.6383 -0.377999 -0.637336 0
M  V30 189 H 21.2853 -1.51111 -1.17634 0
M  V30 190 H 19.5903 -1.12158 -3.75404 0
M  V30 191 H 21.2873 -1.51091 -3.71446 0
M  V30 192 H 17.8773 -2.84965 -3.20145 0
M  V30 193 H 22.0613 -3.82936 -3.15711 0
M  V30 194 H 17.3173 -5.24255 -3.1459 0
M  V30 195 H 21.4913 -6.22934 -3.1133 0
M  V30 196 H 19.1183 -6.93984 -3.10307 0
M  V30 197 N 20.6934 1.19889 -1.02296 0
M  V30 198 C 22.1044 1.71124 -0.746568 0
M  V30 199 C 22.4554 1.81939 0.734335 0
M  V30 200 O 21.5804 1.48639 1.57275 0
M  V30 201 C 22.1754 3.10804 -1.34857 0
M  V30 202 C 20.7344 3.59323 -1.1209 0
M  V30 203 C 19.8814 2.3635 -1.45031 0
M  V30 204 H 22.8324 1.04813 -1.19163 0
M  V30 205 H 22.8534 3.73186 -0.742437 0
M  V30 206 H 22.3654 3.029 -2.42638 0
M  V30 207 H 20.4664 3.7255 -0.0610337 0
M  V30 208 H 20.5794 4.4378 -1.80544 0
M  V30 209 H 18.9434 2.39399 -0.869487 0
M  V30 210 H 19.7264 2.31081 -2.53883 0
M  V30 211 N 22.1715 0.800033 1.35784 0
M  V30 212 C 23.1195 0.193851 2.31791 0
M  V30 213 C 24.1135 -0.652744 1.56319 0
M  V30 214 O 25.3195 -0.546641 1.71499 0
M  V30 215 H 21.6945 0.04392 0.750716 0
M  V30 216 H 23.6655 1.01883 2.80468 0
M  V30 217 C 22.4145 -0.648338 3.41602 0
M  V30 218 H 21.7375 -0.00624665 3.998 0
M  V30 219 H 23.1775 -1.03898 4.11073 0
M  V30 220 C 21.6365 -1.8111 2.84079 0
M  V30 221 O 22.1665 -2.90825 2.77099 0
M  V30 222 N 20.3725 -1.62056 2.41218 0
M  V30 223 H 19.9195 -0.728123 2.47095 0
M  V30 224 H 19.8775 -2.40013 2.03079 0
M  V30 225 N 23.6496 -1.47581 0.552962 0
M  V30 226 C 24.9266 -1.95563 -0.0381515 0
M  V30 227 C 25.3066 -1.49552 -1.48988 0
M  V30 228 O 24.6546 -0.732414 -2.16444 0
M  V30 229 C 24.8646 -3.48848 0.102919 0
M  V30 230 C 26.2126 -4.24577 -0.0446082 0
M  V30 231 O 27.2366 -3.56187 0.0302548 0
M  V30 232 O 26.0956 -5.46116 -0.204923 0
M  V30 233 H 23.1896 -0.824321 -0.0665067 0
M  V30 234 H 25.7356 -1.58001 0.619186 0
M  V30 235 H 24.5076 -3.75129 1.11328 0
M  V30 236 H 24.1306 -3.93165 -0.592224 0
M  V30 237 N 25.1277 -0.289203 -1.54924 0
M  V30 238 C 26.3767 0.324231 -1.99077 0
M  V30 239 C 26.6897 1.5591 -1.18117 0
M  V30 240 O 27.8957 2.24637 -1.52481 0
M  V30 241 C 26.3517 0.628209 -3.54375 0
M  V30 242 C 25.9597 -0.587647 -4.44129 0
M  V30 243 C 27.7037 1.20349 -4.07083 0
M  V30 244 C 25.6107 -0.257475 -5.90839 0
M  V30 245 H 24.5407 0.124924 -0.743579 0
M  V30 246 H 27.1917 -0.396063 -1.79175 0
M  V30 247 H 25.5737 1.40778 -3.70132 0
M  V30 248 H 26.7477 -1.36418 -4.40144 0
M  V30 249 H 25.0627 -1.08074 -4.0213 0
M  V30 250 H 27.6597 1.46456 -5.14252 0
M  V30 251 H 28.0027 2.14195 -3.56968 0
M  V30 252 H 28.5357 0.485889 -3.94821 0
M  V30 253 H 25.2747 -1.16419 -6.45079 0
M  V30 254 H 24.7947 0.482018 -5.9786 0
M  V30 255 H 26.4737 0.145238 -6.46837 0
M  V30 256 N 26.6058 1.57591 -0.0167156 0
M  V30 257 C 27.5688 2.08393 0.954204 0
M  V30 258 C 28.5688 0.996531 1.26198 0
M  V30 259 O 29.7588 1.25858 1.20438 0
M  V30 260 C 26.8908 2.5394 2.27436 0
M  V30 261 H 28.0838 2.95455 0.514451 0
M  V30 262 H 25.6368 1.54582 0.231089 0
M  V30 263 H 26.3718 1.70171 2.76066 0
M  V30 264 H 26.1568 3.33371 2.06412 0
M  V30 265 H 27.6468 2.93512 2.97053 0
M  V30 266 N 28.0839 -0.256276 1.55502 0
M  V30 267 C 29.0139 -1.32102 1.92539 0
M  V30 268 C 29.9949 -1.50684 0.789194 0
M  V30 269 O 31.1799 -1.63449 1.04872 0
M  V30 270 C 28.3099 -2.67752 2.21192 0
M  V30 271 C 27.2639 -2.63878 3.36975 0
M  V30 272 C 26.5899 -4.03236 3.51147 0
M  V30 273 C 27.8899 -2.21682 4.72921 0
M  V30 274 H 29.5839 -1.01351 2.81724 0
M  V30 275 H 27.1299 -0.486105 1.35547 0
M  V30 276 H 29.0829 -3.42365 2.45691 0
M  V30 277 H 27.8069 -3.0012 1.28824 0
M  V30 278 H 26.4659 -1.91722 3.12471 0
M  V30 279 H 26.1139 -4.32854 2.56216 0
M  V30 280 H 25.8139 -4.01535 4.29003 0
M  V30 281 H 27.3379 -4.79563 3.77957 0
M  V30 282 H 28.7519 -2.86023 4.96854 0
M  V30 283 H 27.1489 -2.3111 5.53812 0
M  V30 284 H 28.2189 -1.16833 4.70615 0
M  V30 285 N 29.562 -1.4872 -0.521534 0
M  V30 286 C 30.809 -1.57168 -1.27689 0
M  V30 287 C 31.137 -0.249275 -1.92896 0
M  V30 288 O 30.392 0.761162 -1.80291 0
M  V30 289 C 30.691 -2.66497 -2.38148 0
M  V30 290 C 30.357 -4.08664 -1.90538 0
M  V30 291 C 29.019 -4.47357 -1.77271 0
M  V30 292 C 31.371 -4.97724 -1.54663 0
M  V30 293 C 28.699 -5.72905 -1.26478 0
M  V30 294 C 31.051 -6.2377 -1.05329 0
M  V30 295 C 29.715 -6.61311 -0.906861 0
M  V30 296 H 28.985 -0.575117 -0.467249 0
M  V30 297 H 31.632 -1.82472 -0.581051 0
M  V30 298 H 29.937 -2.35085 -3.13437 0
M  V30 299 H 31.634 -2.70246 -2.96257 0
M  V30 300 H 28.224 -3.78111 -2.01816 0
M  V30 301 H 32.408 -4.68501 -1.63768 0
M  V30 302 H 27.664 -6.00709 -1.13835 0
M  V30 303 H 31.838 -6.9217 -0.76644 0
M  V30 304 H 29.465 -7.5848 -0.511083 0
M  V30 305 N 31.0401 0.771051 -1.3745 0
M  V30 306 C 31.9721 1.89352 -1.29146 0
M  V30 307 C 32.9851 1.61477 -0.207124 0
M  V30 308 O 34.1741 1.72382 -0.463324 0
M  V30 309 C 31.2741 3.24596 -0.974195 0
M  V30 310 C 30.4471 3.80111 -2.16413 0
M  V30 311 C 29.5061 4.93832 -1.81703 0
M  V30 312 O 28.5321 5.09382 -2.54006 0
M  V30 313 N 29.7341 5.75483 -0.761573 0
M  V30 314 H 32.4991 1.96991 -2.25864 0
M  V30 315 H 30.0601 0.950191 -1.31084 0
M  V30 316 H 32.0521 3.98193 -0.722828 0
M  V30 317 H 30.6221 3.12454 -0.0955527 0
M  V30 318 H 29.8421 2.98284 -2.57721 0
M  V30 319 H 31.1301 4.13932 -2.95867 0
M  V30 320 H 30.5281 5.65469 -0.161609 0
M  V30 321 H 29.0851 6.49302 -0.570064 0
M  V30 322 N 32.5182 1.22032 0.997298 0
M  V30 323 C 33.4502 0.944263 2.08845 0
M  V30 324 C 34.4632 -0.0754663 1.62625 0
M  V30 325 O 35.6522 0.157994 1.77799 0
M  V30 326 C 32.7522 0.397723 3.36558 0
M  V30 327 C 31.9252 1.47362 4.11829 0
M  V30 328 C 30.9842 0.934951 5.17827 0
M  V30 329 O 30.0102 1.62016 5.45655 0
M  V30 330 N 31.2122 -0.245895 5.79979 0
M  V30 331 H 33.9772 1.88363 2.33109 0
M  V30 332 H 31.5382 1.12661 1.16272 0
M  V30 333 H 33.5302 0.0227771 4.04694 0
M  V30 334 H 32.1002 -0.446646 3.09393 0
M  V30 335 H 31.3202 2.02208 3.38386 0
M  V30 336 H 32.6082 2.19764 4.58891 0
M  V30 337 H 32.0062 -0.819475 5.59733 0
M  V30 338 H 30.5632 -0.562272 6.4937 0
M  V30 339 N 33.9963 -1.19345 1.0293 0
M  V30 340 C 34.9593 -2.20793 0.615069 0
M  V30 341 C 35.9593 -1.57553 -0.321533 0
M  V30 342 O 37.1493 -1.73862 -0.108483 0
M  V30 343 C 34.2813 -3.40754 -0.0999222 0
M  V30 344 H 35.4743 -2.58955 1.51269 0
M  V30 345 H 33.0273 -1.3303 0.820534 0
M  V30 346 H 33.7623 -3.0811 -1.01187 0
M  V30 347 H 33.5473 -3.87889 0.57309 0
M  V30 348 H 35.0373 -4.15898 -0.376645 0
M  V30 349 N 35.4744 -0.807222 -1.35358 0
M  V30 350 C 36.7044 -0.399796 -2.02695 0
M  V30 351 C 37.1124 0.994176 -1.60974 0
M  V30 352 O 36.4554 1.65209 -0.803226 0
M  V30 353 C 36.5174 -0.404445 -3.57218 0
M  V30 354 C 36.1814 -1.74904 -4.22206 0
M  V30 355 C 37.1784 -2.70743 -4.4384 0
M  V30 356 C 34.8634 -2.03322 -4.5931 0
M  V30 357 C 36.8574 -3.93183 -5.01683 0
M  V30 358 C 34.5444 -3.26026 -5.16866 0
M  V30 359 C 35.5424 -4.20774 -5.37994 0
M  V30 360 O 35.2304 -5.41312 -5.94337 0
M  V30 361 H 34.9624 -0.160517 -0.656666 0
M  V30 362 H 37.5164 -1.09235 -1.73945 0
M  V30 363 H 35.7464 0.344707 -3.85161 0
M  V30 364 H 37.4354 -0.0192429 -4.05895 0
M  V30 365 H 38.2014 -2.5008 -4.15554 0
M  V30 366 H 34.0804 -1.30384 -4.42178 0
M  V30 367 H 37.6244 -4.6715 -5.1809 0
M  V30 368 H 33.5214 -3.46559 -5.44579 0
M  V30 369 H 34.2894 -5.42618 -6.12787 0
M  V30 370 N 36.9525 1.47285 -0.560781 0
M  V30 371 C 37.8845 2.28118 0.222438 0
M  V30 372 C 38.8975 1.37219 0.876056 0
M  V30 373 O 40.0865 1.62011 0.749307 0
M  V30 374 C 37.1865 3.1159 1.33285 0
M  V30 375 C 36.3595 4.30473 0.77534 0
M  V30 376 C 35.4185 4.95513 1.77069 0
M  V30 377 O 34.4445 5.53792 1.31539 0
M  V30 378 N 35.6465 4.90531 3.10418 0
M  V30 379 H 38.4115 2.95976 -0.470958 0
M  V30 380 H 35.9725 1.56955 -0.39709 0
M  V30 381 H 37.9645 3.51967 1.99752 0
M  V30 382 H 36.5345 2.45951 1.92943 0
M  V30 383 H 35.7545 3.94144 -0.0662113 0
M  V30 384 H 37.0425 5.07362 0.382272 0
M  V30 385 H 36.4405 4.44389 3.5005 0
M  V30 386 H 34.9975 5.34917 3.72434 0
M  V30 387 N 38.4306 0.297415 1.54768 0
M  V30 388 C 39.3786 -0.596051 2.24833 0
M  V30 389 C 40.3726 -1.13992 1.25308 0
M  V30 390 O 41.5786 -1.09098 1.4317 0
M  V30 391 H 37.9536 -0.210814 0.721846 0
M  V30 392 H 39.9246 0.0174667 2.98395 0
M  V30 393 C 38.6736 -1.75818 2.99972 0
M  V30 394 H 37.9966 -1.3489 3.76357 0
M  V30 395 H 39.4366 -2.35949 3.52284 0
M  V30 396 C 37.8956 -2.66014 2.06732 0
M  V30 397 O 38.4256 -3.67009 1.63302 0
M  V30 398 N 36.6316 -2.33669 1.72763 0
M  V30 399 H 36.1786 -1.51586 2.08277 0
M  V30 400 H 36.1366 -2.94285 1.10652 0
M  V30 401 N 39.9087 -1.5758 0.0250728 0
M  V30 402 C 41.1547 -1.92746 -0.649648 0
M  V30 403 C 41.5097 -0.901588 -1.69968 0
M  V30 404 O 40.8027 0.0829251 -1.9142 0
M  V30 405 C 40.9967 -3.32421 -1.31268 0
M  V30 406 C 40.8257 -4.48499 -0.328394 0
M  V30 407 C 39.5957 -5.05251 0.070284 0
M  V30 408 C 41.7937 -5.12618 0.415665 0
M  V30 409 N 39.7757 -6.04851 1.05016 0
M  V30 410 C 41.1467 -6.0728 1.24943 0
M  V30 411 C 43.2017 -4.95612 0.476803 0
M  V30 412 C 41.9047 -6.86766 2.1388 0
M  V30 413 C 43.9307 -5.75703 1.3535 0
M  V30 414 C 43.2927 -6.69978 2.17504 0
M  V30 415 H 39.3917 -0.753231 -0.210159 0
M  V30 416 H 41.9757 -1.94486 0.0912999 0
M  V30 417 H 40.1467 -3.31508 -2.02379 0
M  V30 418 H 41.8787 -3.54946 -1.94411 0
M  V30 419 H 38.6337 -4.72628 -0.303323 0
M  V30 420 H 39.0577 -6.5934 1.53622 0
M  V30 421 H 43.6997 -4.22554 -0.144105 0
M  V30 422 H 41.4177 -7.59132 2.77027 0
M  V30 423 H 45.0037 -5.64579 1.40504 0
M  V30 424 H 43.8837 -7.30873 2.84244 0
M  V30 425 N 41.3868 0.248026 -1.55636 0
M  V30 426 C 42.6118 0.998028 -1.81808 0
M  V30 427 C 43.0368 1.78207 -0.601979 0
M  V30 428 O 42.3948 1.75653 0.448961 0
M  V30 429 C 42.4428 1.9125 -3.05705 0
M  V30 430 O 41.5468 3.00406 -2.82542 0
M  V30 431 H 40.8878 0.284045 -0.600179 0
M  V30 432 H 43.4178 0.269357 -2.02819 0
M  V30 433 H 43.4278 2.32737 -3.35108 0
M  V30 434 H 42.1028 1.33602 -3.93857 0
M  V30 435 H 40.6798 2.63056 -2.64303 0
M  V30 436 N 42.8649 1.48995 0.513639 0
M  V30 437 C 43.8119 1.6473 1.61656 0
M  V30 438 C 44.7819 0.488984 1.58739 0
M  V30 439 O 45.9669 0.714478 1.76918 0
M  V30 440 C 43.1069 1.7082 2.99858 0
M  V30 441 C 42.2199 2.9787 3.12885 0
M  V30 442 C 41.3549 2.95017 4.41744 0
M  V30 443 C 40.3939 4.16702 4.48359 0
M  V30 444 N 39.5309 4.11832 5.68629 0
M  V30 445 H 44.3709 2.58909 1.47547 0
M  V30 446 H 41.9079 1.28382 0.71808 0
M  V30 447 H 43.8659 1.72331 3.79944 0
M  V30 448 H 42.4959 0.801181 3.12699 0
M  V30 449 H 41.5479 3.06029 2.25944 0
M  V30 450 H 42.8599 3.8786 3.13633 0
M  V30 451 H 42.0139 2.95021 5.30139 0
M  V30 452 H 40.7529 2.02784 4.43542 0
M  V30 453 H 39.7579 4.16955 3.58369 0
M  V30 454 H 40.9829 5.10113 4.48287 0
M  V30 455 H 38.9289 3.22428 5.71293 0
M  V30 456 H 38.8459 4.95543 5.7094 0
M  V30 457 H 40.1139 4.1592 6.59266 0
M  V30 458 N 44.343 -0.763751 1.37857 0
M  V30 459 C 45.253 -1.90817 1.36478 0
M  V30 460 C 46.269 -1.71997 0.263248 0
M  V30 461 O 47.445 -1.95095 0.499979 0
M  V30 462 C 44.51 -3.2605 1.17864 0
M  V30 463 C 43.571 -3.57467 2.3773 0
M  V30 464 C 42.804 -4.86249 2.19995 0
M  V30 465 O 43.027 -5.57884 1.18836 0
M  V30 466 O 41.961 -5.16911 3.08361 0
M  V30 467 H 45.787 -1.94933 2.32884 0
M  V30 468 H 43.372 -0.907619 1.1867 0
M  V30 469 H 45.254 -4.06924 1.09504 0
M  V30 470 H 43.929 -3.22769 0.245372 0
M  V30 471 H 42.836 -2.76796 2.51664 0
M  V30 472 H 44.169 -3.655 3.29652 0
M  V30 473 N 45.8211 -1.22559 -0.990812 0
M  V30 474 C 47.0701 -1.04553 -1.72486 0
M  V30 475 C 47.3831 0.419349 -1.91052 0
M  V30 476 O 48.5891 0.719121 -2.61803 0
M  V30 477 C 47.0451 -1.82231 -3.10355 0
M  V30 478 C 46.6531 -3.32981 -2.99713 0
M  V30 479 C 48.3971 -1.7268 -3.87791 0
M  V30 480 C 46.3041 -4.03091 -4.32748 0
M  V30 481 H 45.2341 -0.387614 -0.646739 0
M  V30 482 H 47.8851 -1.46429 -1.10593 0
M  V30 483 H 46.2671 -1.33155 -3.72942 0
M  V30 484 H 47.4411 -3.89466 -2.46278 0
M  V30 485 H 45.7561 -3.43231 -2.35758 0
M  V30 486 H 48.3531 -2.22381 -4.86262 0
M  V30 487 H 48.6961 -0.687607 -4.10582 0
M  V30 488 H 49.2291 -2.1931 -3.31885 0
M  V30 489 H 45.9681 -5.07273 -4.15156 0
M  V30 490 H 45.4881 -3.51394 -4.86089 0
M  V30 491 H 47.1671 -4.08804 -5.01486 0
M  V30 492 N 47.2992 1.18797 -1.03562 0
M  V30 493 C 48.2322 2.2105 -0.56676 0
M  V30 494 C 49.2102 1.57704 0.395993 0
M  V30 495 O 50.3942 1.85908 0.311498 0
M  V30 496 C 47.5212 3.38259 0.172704 0
M  V30 497 C 46.5672 4.19987 -0.74252 0
M  V30 498 S 47.4002 4.87199 -2.22254 0
M  V30 499 C 48.5562 6.07813 -1.49379 0
M  V30 500 H 48.7892 2.60478 -1.43312 0
M  V30 501 H 46.3222 1.29151 -0.846133 0
M  V30 502 H 48.2802 4.06191 0.593191 0
M  V30 503 H 46.9412 2.97252 1.01488 0
M  V30 504 H 46.1342 5.03709 -0.171265 0
M  V30 505 H 45.7362 3.57408 -1.10163 0
M  V30 506 H 48.0282 6.72948 -0.784056 0
M  V30 507 H 48.9712 6.69435 -2.30786 0
M  V30 508 H 49.3792 5.55781 -0.988331 0
M  V30 509 N 48.7773 0.814389 1.34928 0
M  V30 510 C 49.7073 0.244827 2.32213 0
M  V30 511 C 50.6883 -0.634024 1.57842 0
M  V30 512 O 51.8733 -0.562676 1.8587 0
M  V30 513 C 49.0033 -0.601106 3.42058 0
M  V30 514 C 47.9573 0.179896 4.27622 0
M  V30 515 C 47.2833 -0.788237 5.28858 0
M  V30 516 C 48.5833 1.38329 5.03649 0
M  V30 517 H 50.2773 1.05763 2.80097 0
M  V30 518 H 47.8233 0.510029 1.34665 0
M  V30 519 H 49.7763 -1.00968 4.09125 0
M  V30 520 H 48.5003 -1.44688 2.92802 0
M  V30 521 H 47.1593 0.569739 3.62146 0
M  V30 522 H 46.8073 -1.62973 4.75866 0
M  V30 523 H 46.5073 -0.269942 5.8698 0
M  V30 524 H 48.0313 -1.19485 5.98795 0
M  V30 525 H 49.4453 1.04918 5.63618 0
M  V30 526 H 47.8423 1.83662 5.71304 0
M  V30 527 H 48.9123 2.16592 4.33839 0
M  V30 528 N 50.2554 -1.46986 0.568584 0
M  V30 529 C 51.5324 -1.95592 -0.0174074 0
M  V30 530 C 51.9124 -1.51124 -1.47393 0
M  V30 531 O 51.2604 -0.755329 -2.15655 0
M  V30 532 C 51.4704 -3.48719 0.139913 0
M  V30 533 C 52.8184 -4.246 0.000426376 0
M  V30 534 O 53.8424 -3.56135 0.0680316 0
M  V30 535 O 52.7014 -5.46302 -0.146988 0
M  V30 536 H 49.7954 -0.82498 -0.0577599 0
M  V30 537 H 52.3414 -1.57335 0.635909 0
M  V30 538 H 51.1134 -3.73927 1.15301 0
M  V30 539 H 50.7364 -3.93771 -0.550491 0
M  V30 540 N 51.7335 -0.305618 -1.54608 0
M  V30 541 C 52.6965 0.555591 -2.22364 0
M  V30 542 C 53.6965 1.05768 -1.21119 0
M  V30 543 O 54.8865 0.952972 -1.45822 0
M  V30 544 C 52.0185 1.76974 -2.91364 0
M  V30 545 H 53.2115 -0.0364572 -2.99878 0
M  V30 546 H 50.7645 -0.0565007 -1.56198 0
M  V30 547 H 51.4995 2.40151 -2.17941 0
M  V30 548 H 51.2845 1.41732 -3.65588 0
M  V30 549 H 52.7745 2.38148 -3.43038 0
M  V30 550 N 53.2116 1.57565 -0.0334293 0
M  V30 551 C 54.4396 1.9628 0.654347 0
M  V30 552 C 54.8546 0.910138 1.65414 0
M  V30 553 O 54.2116 -0.107595 1.82183 0
M  V30 554 C 54.2626 3.35067 1.35693 0
M  V30 555 O 53.9836 4.36296 0.397191 0
M  V30 556 C 55.4846 3.88439 2.13613 0
M  V30 557 H 52.7046 0.646369 0.180132 0
M  V30 558 H 55.2486 2.04282 -0.0944721 0
M  V30 559 H 53.4036 3.2827 2.05712 0
M  V30 560 H 53.8176 5.1678 0.896597 0
M  V30 561 H 55.2916 4.8788 2.58219 0
M  V30 562 H 55.7686 3.22914 2.97696 0
M  V30 563 H 56.3746 3.98516 1.48543 0
M  V30 564 N 54.6897 -0.239769 1.55765 0
M  V30 565 C 55.9357 -0.963942 1.79108 0
M  V30 566 C 56.2907 -1.82689 0.60352 0
M  V30 567 O 55.5837 -1.87313 -0.403033 0
M  V30 568 C 55.7777 -1.852 3.05672 0
M  V30 569 C 55.6067 -1.07651 4.36625 0
M  V30 570 C 54.3767 -0.778738 4.99263 0
M  V30 571 C 56.5747 -0.45062 5.12322 0
M  V30 572 N 54.5567 0.0200708 6.13897 0
M  V30 573 C 55.9277 0.212429 6.19636 0
M  V30 574 C 57.9827 -0.361806 4.96584 0
M  V30 575 C 56.6857 0.955772 7.12922 0
M  V30 576 C 58.7117 0.368023 5.90254 0
M  V30 577 C 58.0737 1.01968 6.96981 0
M  V30 578 H 54.1727 -0.333601 0.707272 0
M  V30 579 H 56.7567 -0.236425 1.93259 0
M  V30 580 H 54.9277 -2.55149 2.92837 0
M  V30 581 H 56.6597 -2.51228 3.1728 0
M  V30 582 H 53.4147 -1.09229 4.60832 0
M  V30 583 H 53.8387 0.407777 6.75771 0
M  V30 584 H 58.4807 -0.851286 4.14141 0
M  V30 585 H 56.1987 1.45683 7.9486 0
M  V30 586 H 59.7847 0.437504 5.80153 0
M  V30 587 H 58.6647 1.5754 7.68213 0
M  V30 588 N 56.1678 -1.49265 -0.50573 0
M  V30 589 C 57.4138 -1.58748 -1.26202 0
M  V30 590 C 57.7468 -0.271227 -1.92297 0
M  V30 591 O 57.0218 0.724831 -1.80489 0
M  V30 592 C 57.3048 -2.74332 -2.33268 0
M  V30 593 C 57.1578 -4.15737 -1.71705 0
M  V30 594 C 58.4768 -2.85576 -3.34865 0
M  V30 595 H 55.5958 -0.577826 -0.457478 0
M  V30 596 H 58.2378 -1.81532 -0.560897 0
M  V30 597 H 56.3878 -2.55036 -2.93068 0
M  V30 598 H 58.0598 -4.46537 -1.15769 0
M  V30 599 H 56.3028 -4.21605 -1.02135 0
M  V30 600 H 56.9738 -4.92477 -2.49341 0
M  V30 601 H 59.4498 -3.03127 -2.8505 0
M  V30 602 H 58.3258 -3.68135 -4.07146 0
M  V30 603 H 58.5868 -1.94732 -3.96903 0
M  V30 604 N 57.6459 0.756429 -1.3826 0
M  V30 605 C 58.8859 1.52833 -1.35725 0
M  V30 606 C 59.2499 1.91926 0.0534106 0
M  V30 607 O 60.4509 2.68028 0.203613 0
M  V30 608 C 58.7219 2.74919 -2.28373 0
M  V30 609 S 60.2809 3.64817 -2.43832 0
M  V30 610 H 57.0989 0.523043 -0.481608 0
M  V30 611 H 59.7009 0.888212 -1.74158 0
M  V30 612 H 58.4049 2.44304 -3.29763 0
M  V30 613 H 57.9359 3.43878 -1.91079 0
M  V30 614 H 59.9509 4.676 -1.66027 0
M  V30 615 N 59.124 1.23083 0.984299 0
M  V30 616 C 60.349 1.088 1.76571 0
M  V30 617 C 60.774 -0.356657 1.84688 0
M  V30 618 O 60.132 -1.25788 1.30565 0
M  V30 619 C 60.18 1.71371 3.17277 0
M  V30 620 O 59.284 0.973213 4.00752 0
M  V30 621 H 58.625 0.381599 0.543395 0
M  V30 622 H 61.155 1.63057 1.23587 0
M  V30 623 H 61.165 1.76449 3.67872 0
M  V30 624 H 59.84 2.76493 3.10684 0
M  V30 625 H 58.417 0.999078 3.59267 0
M  V30 626 N 60.6021 -1.18246 1.0419 0
M  V30 627 C 62.0131 -1.69914 0.773698 0
M  V30 628 C 62.3641 -1.83085 -0.705297 0
M  V30 629 O 61.4891 -1.51123 -1.5489 0
M  V30 630 C 62.0841 -3.08619 1.39784 0
M  V30 631 C 60.6431 -3.57494 1.17792 0
M  V30 632 C 59.7901 -2.34013 1.48773 0
M  V30 633 H 62.7411 -1.02904 1.20816 0
M  V30 634 H 62.7621 -3.71958 0.801714 0
M  V30 635 H 62.2741 -2.99001 2.47426 0
M  V30 636 H 60.3751 -3.72406 0.120295 0
M  V30 637 H 60.4881 -4.40852 1.87581 0
M  V30 638 H 58.8521 -2.37986 0.907463 0
M  V30 639 H 59.6351 -2.27013 2.57527 0
M  V30 640 N 62.0802 -0.821533 -1.34494 0
M  V30 641 C 63.0272 -0.240397 -2.29545 0
M  V30 642 C 63.9972 0.634031 -1.53523 0
M  V30 643 O 65.1822 0.575966 -1.81899 0
M  V30 644 C 62.3222 0.592869 -3.39969 0
M  V30 645 C 61.4352 -0.30365 -4.30932 0
M  V30 646 C 60.5702 0.539049 -5.28458 0
M  V30 647 C 59.6092 -0.356942 -6.11058 0
M  V30 648 N 58.7462 0.446603 -7.00678 0
M  V30 649 H 63.5862 -1.05632 -2.7865 0
M  V30 650 H 61.1232 -0.532413 -1.37127 0
M  V30 651 H 63.0812 1.09129 -4.02675 0
M  V30 652 H 61.7112 1.37392 -2.92102 0
M  V30 653 H 60.7632 -0.920276 -3.691 0
M  V30 654 H 62.0752 -0.992661 -4.88823 0
M  V30 655 H 61.2292 1.102 -5.96608 0
M  V30 656 H 59.9682 1.26157 -4.71101 0
M  V30 657 H 58.9732 -0.932047 -5.41842 0
M  V30 658 H 60.1982 -1.07755 -6.70497 0
M  V30 659 H 58.1442 1.15282 -6.45791 0
M  V30 660 H 58.0612 -0.184048 -7.55776 0
M  V30 661 H 59.3292 0.992352 -7.73158 0
M  V30 662 N 63.5583 1.46682 -0.576371 0
M  V30 663 C 64.7863 2.06798 -0.0649635 0
M  V30 664 C 65.2013 1.42612 1.23723 0
M  V30 665 O 64.5583 0.529203 1.74659 0
M  V30 666 C 64.6093 3.6132 0.114202 0
M  V30 667 O 64.3303 4.23104 -1.13644 0
M  V30 668 C 65.8313 4.38349 0.66069 0
M  V30 669 H 63.0513 0.668778 -0.0545616 0
M  V30 670 H 65.5953 1.88404 -0.795237 0
M  V30 671 H 63.7503 3.79162 0.794673 0
M  V30 672 H 64.1643 5.15894 -0.946253 0
M  V30 673 H 65.6383 5.47081 0.73526 0
M  V30 674 H 66.1153 4.05953 1.67627 0
M  V30 675 H 66.7213 4.25297 0.0152951 0
M  V30 676 N 65.0364 0.313813 1.54444 0
M  V30 677 C 66.4474 -0.176243 1.85866 0
M  V30 678 C 66.7984 -1.52405 1.23561 0
M  V30 679 O 65.9234 -2.09605 0.538016 0
M  V30 680 C 66.5184 -0.32657 3.37222 0
M  V30 681 C 65.0774 -0.760846 3.6863 0
M  V30 682 C 64.2244 0.123247 2.77026 0
M  V30 683 H 67.1754 0.534418 1.49431 0
M  V30 684 H 67.1964 -1.15908 3.62416 0
M  V30 685 H 66.7084 0.654531 3.82541 0
M  V30 686 H 64.8094 -1.75204 3.28838 0
M  V30 687 H 64.9224 -0.571353 4.75681 0
M  V30 688 H 63.2864 -0.399597 2.51546 0
M  V30 689 H 64.0694 1.10094 3.25168 0
M  V30 690 N 66.5145 -1.57545 0.0417849 0
M  V30 691 C 67.4465 -2.07904 -0.964799 0
M  V30 692 C 68.4595 -1.00497 -1.28079 0
M  V30 693 O 69.6485 -1.28087 -1.24322 0
M  V30 694 C 66.7485 -2.49928 -2.28887 0
M  V30 695 C 65.9215 -3.80562 -2.15619 0
M  V30 696 C 64.9805 -4.08999 -3.31069 0
M  V30 697 O 64.0065 -4.79061 -3.0739 0
M  V30 698 N 65.2085 -3.6017 -4.55256 0
M  V30 699 H 67.9735 -2.94886 -0.535029 0
M  V30 700 H 65.5345 -1.61252 -0.144681 0
M  V30 701 H 67.5265 -2.66034 -3.04972 0
M  V30 702 H 66.0965 -1.68245 -2.63463 0
M  V30 703 H 65.3165 -3.74129 -1.24183 0
M  V30 704 H 66.6045 -4.66126 -2.03971 0
M  V30 705 H 66.0025 -3.03512 -4.77386 0
M  V30 706 H 64.5595 -3.81532 -5.28466 0
M  V30 707 N 67.9926 0.231505 -1.5589 0
M  V30 708 C 69.2696 0.981096 -1.69215 0
M  V30 709 C 69.6496 2.02799 -0.586164 0
M  V30 710 O 68.9976 2.24823 0.408253 0
M  V30 711 C 69.2076 1.60054 -3.10135 0
M  V30 712 C 70.5556 2.09658 -3.69227 0
M  V30 713 O 71.5796 1.69967 -3.13033 0
M  V30 714 O 70.4386 2.8258 -4.67772 0
M  V30 715 H 67.5326 0.457653 -0.688827 0
M  V30 716 H 70.0786 0.224073 -1.68214 0
M  V30 717 H 68.8506 0.844105 -3.82087 0
M  V30 718 H 68.4736 2.42336 -3.15212 0
M  V30 719 N 69.4707 1.49531 0.497807 0
M  V30 720 C 70.7167 1.59415 1.25358 0
M  V30 721 C 71.0497 0.281422 1.9215 0
M  V30 722 O 70.3247 -0.715249 1.80871 0
M  V30 723 C 70.6077 2.75566 2.3181 0
M  V30 724 C 70.4607 4.16642 1.69498 0
M  V30 725 C 71.7797 2.87347 3.33346 0
M  V30 726 H 68.8987 0.580244 0.454408 0
M  V30 727 H 71.5407 1.81827 0.551262 0
M  V30 728 H 69.6907 2.56587 2.91711 0
M  V30 729 H 71.3627 4.47145 1.13399 0
M  V30 730 H 69.6057 4.22141 0.998978 0
M  V30 731 H 70.2767 4.93792 2.46725 0
M  V30 732 H 72.7527 3.04634 2.83438 0
M  V30 733 H 71.6287 3.70289 4.05188 0
M  V30 734 H 71.8897 1.96834 3.95865 0
M  V30 735 N 70.9488 -0.749086 1.3866 0
M  V30 736 C 72.1948 -1.51056 1.35314 0
M  V30 737 C 72.5278 -1.94121 -0.0553751 0
M  V30 738 O 71.8028 -1.65763 -1.01749 0
M  V30 739 C 72.0858 -2.76003 2.31288 0
M  V30 740 C 71.9388 -2.39047 3.8102 0
M  V30 741 C 73.2578 -3.78046 2.2532 0
M  V30 742 H 70.3768 -0.547972 0.492844 0
M  V30 743 H 73.0188 -0.857628 1.69543 0
M  V30 744 H 71.1688 -3.31716 2.02229 0
M  V30 745 H 72.8408 -1.89074 4.20771 0
M  V30 746 H 71.0838 -1.71449 3.98482 0
M  V30 747 H 71.7548 -3.28462 4.4364 0
M  V30 748 H 74.2308 -3.31884 2.50983 0
M  V30 749 H 73.1068 -4.63159 2.94576 0
M  V30 750 H 73.3678 -4.23957 1.25352 0
M  V30 751 N 72.4269 -1.23603 -0.977757 0
M  V30 752 C 73.8429 -0.999251 -1.24447 0
M  V30 753 C 74.0429 0.298053 -1.99283 0
M  V30 754 O 73.0989 1.01681 -2.31122 0
M  V30 755 C 74.4119 -2.20784 -2.04144 0
M  V30 756 C 75.9599 -2.25303 -2.17273 0
M  V30 757 C 76.4349 -3.45755 -3.00362 0
M  V30 758 N 77.9259 -3.4601 -3.07947 0
M  V30 759 C 78.6609 -4.35868 -3.72568 0
M  V30 760 N 78.1569 -5.35966 -4.38991 0
M  V30 761 N 79.9499 -4.23605 -3.6948 0
M  V30 762 H 72.1009 -2.06986 -0.476483 0
M  V30 763 H 74.3639 -0.907801 -0.273134 0
M  V30 764 H 74.0699 -3.14945 -1.56533 0
M  V30 765 H 73.9439 -2.22085 -3.04891 0
M  V30 766 H 76.3309 -1.3168 -2.64092 0
M  V30 767 H 76.4119 -2.28033 -1.15907 0
M  V30 768 H 76.0559 -4.39687 -2.5424 0
M  V30 769 H 75.9859 -3.40266 -4.01904 0
M  V30 770 H 78.4769 -2.73588 -2.60688 0
M  V30 771 H 78.7899 -6.00783 -4.86086 0
M  V30 772 H 77.1349 -5.39863 -4.37691 0
M  V30 773 H 80.3259 -3.44647 -3.16759 0
M  V30 774 H 80.4989 -4.93836 -4.1956 0
M  V30 775 N 73.905 1.17692 -1.04816 0
M  V30 776 C 74.835 2.23777 -0.666791 0
M  V30 777 C 75.816 1.66796 0.33361 0
M  V30 778 O 77.001 1.93039 0.212042 0
M  V30 779 C 74.131 3.47281 -0.0367933 0
M  V30 780 C 73.085 4.17059 -0.961546 0
M  V30 781 C 72.411 5.34342 -0.195626 0
M  V30 782 C 73.711 4.69713 -2.28402 0
M  V30 783 H 75.405 2.55933 -1.55367 0
M  V30 784 H 72.951 1.23019 -0.748484 0
M  V30 785 H 74.904 4.20706 0.241775 0
M  V30 786 H 73.628 3.14381 0.885004 0
M  V30 787 H 72.287 3.45541 -1.22462 0
M  V30 788 H 71.935 4.97692 0.728816 0
M  V30 789 H 71.635 5.81966 -0.811775 0
M  V30 790 H 73.159 6.10553 0.0757473 0
M  V30 791 H 74.573 5.34794 -2.06563 0
M  V30 792 H 72.97 5.279 -2.8538 0
M  V30 793 H 74.04 3.86726 -2.92525 0
M  V30 794 N 75.3831 0.828654 1.34056 0
M  V30 795 C 76.3461 0.259927 2.27721 0
M  V30 796 C 77.3461 -0.565478 1.50529 0
M  V30 797 O 78.5361 -0.38075 1.69988 0
M  V30 798 C 75.6681 -0.634944 3.34935 0
M  V30 799 H 76.8611 1.0863 2.79534 0
M  V30 800 H 74.4141 0.600951 1.44285 0
M  V30 801 H 75.1491 -1.48416 2.88346 0
M  V30 802 H 74.9341 -0.0444999 3.92075 0
M  V30 803 H 76.4241 -1.02648 4.04788 0
M  V30 804 N 76.8612 -1.46375 0.584142 0
M  V30 805 C 77.8092 -2.32042 -0.161047 0
M  V30 806 C 78.8032 -1.44569 -0.882966 0
M  V30 807 O 80.0092 -1.61186 -0.801191 0
M  V30 808 H 76.3842 -0.748659 -0.0708033 0
M  V30 809 H 78.3552 -2.92704 0.580269 0
M  V30 810 C 77.1042 -3.27762 -1.1605 0
M  V30 811 H 76.4272 -3.95051 -0.614419 0
M  V30 812 H 77.8672 -3.90481 -1.65228 0
M  V30 813 C 76.3262 -2.53218 -2.22221 0
M  V30 814 O 76.8562 -2.29628 -3.29597 0
M  V30 815 N 75.0622 -2.13756 -1.96868 0
M  V30 816 H 74.6092 -2.33142 -1.09557 0
M  V30 817 H 74.5672 -1.642 -2.68115 0
M  V30 818 N 78.3393 -0.321999 -1.54275 0
M  V30 819 C 79.5853 0.274234 -2.01543 0
M  V30 820 C 79.9403 1.499 -1.20614 0
M  V30 821 O 79.2333 1.89546 -0.279804 0
M  V30 822 C 79.4273 0.661769 -3.5122 0
M  V30 823 C 79.2563 -0.523892 -4.46638 0
M  V30 824 C 78.0263 -1.02251 -4.94846 0
M  V30 825 C 80.2243 -1.37558 -4.95563 0
M  V30 826 N 78.2063 -2.17274 -5.74165 0
M  V30 827 C 79.5773 -2.37301 -5.7279 0
M  V30 828 C 81.6323 -1.40353 -4.77709 0
M  V30 829 C 80.3353 -3.3964 -6.34064 0
M  V30 830 C 82.3613 -2.41562 -5.39817 0
M  V30 831 C 81.7233 -3.40031 -6.16894 0
M  V30 832 H 77.8223 0.0642367 -0.779357 0
M  V30 833 H 80.4063 -0.456683 -1.89268 0
M  V30 834 H 78.5773 1.36182 -3.63743 0
M  V30 835 H 80.3093 1.23934 -3.85256 0
M  V30 836 H 77.0643 -0.594046 -4.6986 0
M  V30 837 H 77.4883 -2.75289 -6.18502 0
M  V30 838 H 82.1303 -0.655907 -4.17681 0
M  V30 839 H 79.8483 -4.15309 -6.93213 0
M  V30 840 H 83.4343 -2.44524 -5.2792 0
M  V30 841 H 82.3143 -4.17063 -6.64099 0
M  V30 842 N 79.8174 1.5752 -0.0501392 0
M  V30 843 C 80.7804 2.1037 0.909786 0
M  V30 844 C 81.7804 1.02308 1.24056 0
M  V30 845 O 82.9704 1.28385 1.17741 0
M  V30 846 C 80.1024 2.58708 2.21998 0
M  V30 847 H 81.2954 2.96479 0.451665 0
M  V30 848 H 78.8484 1.55038 0.198248 0
M  V30 849 H 79.5834 1.75989 2.72394 0
M  V30 850 H 79.3684 3.37675 1.99295 0
M  V30 851 H 80.8584 2.99747 2.9076 0
M  V30 852 N 81.2955 -0.223234 1.56011 0
M  V30 853 C 82.2455 -1.28008 1.88674 0
M  V30 854 C 83.2295 -1.42369 0.749663 0
M  V30 855 O 84.4215 -1.45212 1.01205 0
M  V30 856 C 81.5505 -2.63084 2.20548 0
M  V30 857 C 80.6365 -2.52632 3.40643 0
M  V30 858 N 81.0275 -2.11829 4.59306 0
M  V30 859 C 79.3255 -2.83594 3.44224 0
M  V30 860 C 80.0265 -2.12587 5.41463 0
M  V30 861 N 79.0025 -2.5301 4.81131 0
M  V30 862 H 82.8045 -0.955487 2.77935 0
M  V30 863 H 80.3185 -0.431801 1.56554 0
M  V30 864 H 82.3155 -3.39385 2.42122 0
M  V30 865 H 80.9755 -2.96391 1.32599 0
M  V30 866 H 81.9865 -1.82988 4.84496 0
M  V30 867 H 78.6635 -3.21284 2.66614 0
M  V30 868 H 80.0535 -1.83179 6.46448 0
M  V30 869 N 82.7736 -1.49793 -0.48987 0
M  V30 870 C 83.6836 -1.70036 -1.61632 0
M  V30 871 C 84.6996 -0.583102 -1.63939 0
M  V30 872 O 85.8756 -0.859169 -1.82154 0
M  V30 873 C 82.9406 -1.77277 -2.97949 0
M  V30 874 C 82.0016 -3.00918 -3.06181 0
M  V30 875 C 81.2346 -3.07804 -4.35996 0
M  V30 876 O 81.4576 -2.21982 -5.25433 0
M  V30 877 O 80.3916 -4.00369 -4.49431 0
M  V30 878 H 84.2176 -2.65486 -1.47482 0
M  V30 879 H 81.8026 -1.33666 -0.667362 0
M  V30 880 H 83.6846 -1.84329 -3.78947 0
M  V30 881 H 82.3596 -0.850076 -3.12339 0
M  V30 882 H 81.2666 -2.99377 -2.2433 0
M  V30 883 H 82.5996 -3.92704 -2.96723 0
M  V30 884 N 84.2517 0.741722 -1.39055 0
M  V30 885 C 85.2017 1.84661 -1.33732 0
M  V30 886 C 86.1857 1.59397 -0.219401 0
M  V30 887 O 87.3777 1.71015 -0.456375 0
M  V30 888 C 84.5067 3.22512 -1.17647 0
M  V30 889 C 83.5927 3.53628 -2.34112 0
M  V30 890 N 83.9837 3.55723 -3.59576 0
M  V30 891 C 82.2817 3.83956 -2.26923 0
M  V30 892 C 82.9827 3.84443 -4.36553 0
M  V30 893 N 81.9587 4.01877 -3.66055 0
M  V30 894 H 85.7607 1.84576 -2.28711 0
M  V30 895 H 83.2747 0.939647 -1.32455 0
M  V30 896 H 85.2717 4.01597 -1.11917 0
M  V30 897 H 83.9317 3.2384 -0.236124 0
M  V30 898 H 84.9427 3.37196 -3.93089 0
M  V30 899 H 81.6197 3.92929 -1.41113 0
M  V30 900 H 83.0097 3.92588 -5.45274 0
M  V30 901 N 85.7298 1.2412 0.971189 0
M  V30 902 C 87.0068 0.986867 1.6888 0
M  V30 903 C 87.3868 -0.491857 2.0529 0
M  V30 904 O 86.7348 -1.46531 1.75331 0
M  V30 905 C 86.9448 1.9063 2.92338 0
M  V30 906 C 88.2928 2.17515 3.64654 0
M  V30 907 O 89.3168 1.88254 3.02388 0
M  V30 908 O 88.1758 2.6719 4.7673 0
M  V30 909 H 85.2698 0.372944 0.738134 0
M  V30 910 H 87.8158 1.35203 1.02559 0
M  V30 911 H 86.5878 2.90552 2.62097 0
M  V30 912 H 86.2108 1.54408 3.66393 0
M  V30 913 N 87.2079 -1.17134 1.05439 0
M  V30 914 C 88.4379 -1.91094 0.785274 0
M  V30 915 C 88.8459 -1.77198 -0.663142 0
M  V30 916 O 88.1889 -1.10835 -1.46497 0
M  V30 917 C 88.2509 -3.42594 1.08949 0
M  V30 918 C 87.9149 -3.80274 2.53458 0
M  V30 919 C 88.9119 -3.82912 3.51673 0
M  V30 920 C 86.5969 -4.11162 2.88532 0
M  V30 921 C 88.5909 -4.15913 4.83006 0
M  V30 922 C 86.2779 -4.43831 4.20068 0
M  V30 923 C 87.2759 -4.46185 5.17115 0
M  V30 924 O 86.9639 -4.78083 6.46291 0
M  V30 925 H 86.6959 -0.613073 0.284811 0
M  V30 926 H 89.2499 -1.49461 1.40893 0
M  V30 927 H 87.4799 -3.84534 0.408741 0
M  V30 928 H 89.1689 -3.97817 0.805991 0
M  V30 929 H 89.9349 -3.5917 3.25917 0
M  V30 930 H 85.8139 -4.085 2.13656 0
M  V30 931 H 89.3579 -4.17665 5.5875 0
M  V30 932 H 85.2549 -4.67037 4.45586 0
M  V30 933 H 86.0229 -4.9593 6.51149 0
M  V30 934 N 88.686 -0.835752 -1.33615 0
M  V30 935 C 89.633 -0.26473 -2.29277 0
M  V30 936 C 90.603 0.617712 -1.54187 0
M  V30 937 O 91.788 0.556641 -1.825 0
M  V30 938 C 88.928 0.556777 -3.40579 0
M  V30 939 C 88.041 -0.349339 -4.30585 0
M  V30 940 C 87.176 0.482969 -5.29 0
M  V30 941 C 86.215 -0.421732 -6.10645 0
M  V30 942 N 85.352 0.372262 -7.01112 0
M  V30 943 H 90.192 -1.08582 -2.77514 0
M  V30 944 H 87.729 -0.546927 -1.36554 0
M  V30 945 H 89.687 1.04852 -4.03809 0
M  V30 946 H 88.317 1.34286 -2.93542 0
M  V30 947 H 87.369 -0.959372 -3.68104 0
M  V30 948 H 88.681 -1.04445 -4.87742 0
M  V30 949 H 87.835 1.03866 -5.97743 0
M  V30 950 H 86.574 1.21153 -4.72412 0
M  V30 951 H 85.579 -0.989464 -5.40823 0
M  V30 952 H 86.804 -1.14861 -6.69316 0
M  V30 953 H 84.75 1.08426 -6.46977 0
M  V30 954 H 84.667 -0.264198 -7.55538 0
M  V30 955 H 85.935 0.910293 -7.74167 0
M  V30 956 N 90.1641 1.46063 -0.591896 0
M  V30 957 C 91.4131 2.01547 -0.0786637 0
M  V30 958 C 91.7261 1.46796 1.29268 0
M  V30 959 O 92.9321 1.94157 1.89777 0
M  V30 960 C 91.3881 3.59787 -0.0900024 0
M  V30 961 C 90.9961 4.23534 -1.46023 0
M  V30 962 C 92.7401 4.22895 0.368806 0
M  V30 963 C 90.6471 5.73881 -1.4288 0
M  V30 964 H 89.5771 0.753564 -0.0256388 0
M  V30 965 H 92.2281 1.677 -0.744905 0
M  V30 966 H 90.6101 3.90752 0.642586 0
M  V30 967 H 91.7841 4.04167 -2.21328 0
M  V30 968 H 90.0991 3.72558 -1.85982 0
M  V30 969 H 92.6961 5.33116 0.411258 0
M  V30 970 H 93.0391 3.9247 1.38827 0
M  V30 971 H 93.5721 3.9659 -0.31001 0
M  V30 972 H 90.3111 6.0898 -2.42536 0
M  V30 973 H 89.8311 5.95486 -0.718095 0
M  V30 974 H 91.5101 6.36776 -1.14565 0
M  V30 975 N 91.6422 0.330177 1.54103 0
M  V30 976 C 93.0582 -0.0222371 1.59585 0
M  V30 977 C 93.2582 -1.49902 1.34654 0
M  V30 978 O 92.3142 -2.25592 1.13421 0
M  V30 979 C 93.6272 0.401932 2.98002 0
M  V30 980 C 95.1752 0.353145 3.11001 0
M  V30 981 C 95.6502 0.752576 4.51775 0
M  V30 982 N 97.1412 0.706239 4.57784 0
M  V30 983 C 97.8762 0.987417 5.64834 0
M  V30 984 N 97.3722 1.33607 6.79795 0
M  V30 985 N 99.1652 0.91254 5.54643 0
M  V30 986 H 91.3162 1.29228 1.68564 0
M  V30 987 H 93.5792 0.525906 0.78875 0
M  V30 988 H 93.2852 1.4311 3.21267 0
M  V30 989 H 93.1592 -0.229699 3.765 0
M  V30 990 H 95.5462 -0.666822 2.87467 0
M  V30 991 H 95.6272 1.0198 2.34593 0
M  V30 992 H 95.2712 1.77049 4.76042 0
M  V30 993 H 95.2012 0.0635409 5.26562 0
M  V30 994 H 97.6922 0.44889 3.75224 0
M  V30 995 H 98.0052 1.53582 7.57385 0
M  V30 996 H 96.3502 1.37439 6.81275 0
M  V30 997 H 99.5412 0.639601 4.6371 0
M  V30 998 H 99.7142 1.13503 6.37982 0
M  V30 999 N 93.1203 -1.57491 0.0584922 0
M  V30 1000 C 94.5313 -1.80526 -0.476138 0
M  V30 1001 C 94.8823 -0.971334 -1.70469 0
M  V30 1002 O 94.0073 -0.190012 -2.15564 0
M  V30 1003 C 94.6023 -3.27424 -0.870587 0
M  V30 1004 C 93.1613 -3.51351 -1.35015 0
M  V30 1005 C 92.3083 -2.75343 -0.32887 0
M  V30 1006 H 95.2593 -1.56133 0.284312 0
M  V30 1007 H 95.2803 -3.38745 -1.73299 0
M  V30 1008 H 94.7923 -3.88093 0.0237627 0
M  V30 1009 H 92.8933 -2.95971 -2.26345 0
M  V30 1010 H 93.0063 -4.60059 -1.33726 0
M  V30 1011 H 91.3703 -2.417 -0.803321 0
M  V30 1012 H 92.1533 -3.38743 0.557521 0
M  V30 1013 N 94.5984 0.214957 -1.56127 0
M  V30 1014 C 96.0144 0.564948 -1.49267 0
M  V30 1015 C 96.2144 1.86827 -0.754838 0
M  V30 1016 O 95.2704 2.50745 -0.297198 0
M  V30 1017 C 96.5834 0.638071 -2.93852 0
M  V30 1018 C 98.1314 0.728253 -3.0441 0
M  V30 1019 C 98.6064 0.832663 -4.50367 0
M  V30 1020 N 100.097 0.896712 -4.54437 0
M  V30 1021 C 100.832 0.997324 -5.6466 0
M  V30 1022 N 100.328 1.06147 -6.8462 0
M  V30 1023 N 102.121 1.03297 -5.52527 0
M  V30 1024 H 94.2724 -0.640211 -2.02522 0
M  V30 1025 H 96.5354 -0.225507 -0.920788 0
M  V30 1026 H 96.2414 -0.250126 -3.50809 0
M  V30 1027 H 96.1154 1.49947 -3.46115 0
M  V30 1028 H 98.5024 1.60689 -2.47514 0
M  V30 1029 H 98.5834 -0.158952 -2.55306 0
M  V30 1030 H 98.2274 -0.0415417 -5.07883 0
M  V30 1031 H 98.1574 1.73538 -4.97184 0
M  V30 1032 H 100.648 0.857188 -3.6805 0
M  V30 1033 H 100.961 1.1382 -7.64372 0
M  V30 1034 H 99.3064 1.03049 -6.87318 0
M  V30 1035 H 102.497 0.979558 -4.57736 0
M  V30 1036 H 102.67 1.10793 -6.38458 0
M  V30 1037 N 96.0765 1.50051 0.48192 0
M  V30 1038 C 97.3245 1.60181 1.23234 0
M  V30 1039 C 97.6455 0.299176 1.92691 0
M  V30 1040 O 96.9155 -0.682708 1.83619 0
M  V30 1041 H 95.4955 0.590232 0.457859 0
M  V30 1042 H 98.1575 1.86775 0.556881 0
M  V30 1043 H 97.2535 2.40753 1.98607 0
M  V30 1044 N 97.5546 -0.734337 1.39446 0
M  V30 1045 C 98.5176 -1.83004 1.37994 0
M  V30 1046 C 99.5176 -1.58397 0.276938 0
M  V30 1047 O 100.708 -1.65785 0.534875 0
M  V30 1048 C 97.8396 -3.20802 1.1532 0
M  V30 1049 H 99.0326 -1.85694 2.35494 0
M  V30 1050 H 96.5856 -0.938059 1.25021 0
M  V30 1051 H 97.3206 -3.23772 0.185036 0
M  V30 1052 H 97.1056 -3.4006 1.95197 0
M  V30 1053 H 98.5956 -4.00862 1.17046 0
M  V30 1054 N 99.0327 -1.24633 -0.964593 0
M  V30 1055 C 99.9657 -0.984662 -2.05863 0
M  V30 1056 C 100.944 0.0826554 -1.6239 0
M  V30 1057 O 102.128 -0.0549296 -1.8842 0
M  V30 1058 C 99.2547 -0.486529 -3.35187 0
M  V30 1059 C 98.3007 -1.54286 -3.97615 0
M  V30 1060 S 99.1337 -3.12513 -4.34851 0
M  V30 1061 C 100.29 -2.6441 -5.67308 0
M  V30 1062 H 100.523 -1.91104 -2.27743 0
M  V30 1063 H 98.0557 -1.08052 -1.10291 0
M  V30 1064 H 100.014 -0.205757 -4.09984 0
M  V30 1065 H 98.6747 0.419186 -3.1129 0
M  V30 1066 H 97.8677 -1.14481 -4.90826 0
M  V30 1067 H 97.4697 -1.7738 -3.2926 0
M  V30 1068 H 99.7617 -2.07416 -6.44969 0
M  V30 1069 H 100.705 -3.56222 -6.11973 0
M  V30 1070 H 101.113 -2.04734 -5.26065 0
M  V30 1071 N 100.511 1.16574 -1.06058 0
M  V30 1072 C 101.461 2.18854 -0.63929 0
M  V30 1073 C 102.445 1.57505 0.328798 0
M  V30 1074 O 103.637 1.76408 0.144623 0
M  V30 1075 C 100.766 3.43291 -0.0247203 0
M  V30 1076 C 99.8518 4.11722 -1.01716 0
M  V30 1077 N 100.243 4.55841 -2.19186 0
M  V30 1078 C 98.5408 4.37872 -0.847569 0
M  V30 1079 C 99.2418 5.08751 -2.82042 0
M  V30 1080 N 98.2178 5.01489 -2.09784 0
M  V30 1081 H 102.02 2.5068 -1.53417 0
M  V30 1082 H 99.5338 1.32999 -0.931935 0
M  V30 1083 H 101.531 4.15856 0.294915 0
M  V30 1084 H 100.191 3.12954 0.865448 0
M  V30 1085 H 101.202 4.49649 -2.56975 0
M  V30 1086 H 97.8788 4.17499 -0.00918848 0
M  V30 1087 H 99.2688 5.52944 -3.81709 0
M  V30 1088 N 101.989 0.842826 1.3317 0
M  V30 1089 C 103.237 0.439577 1.97262 0
M  V30 1090 C 103.558 -1.00548 1.67078 0
M  V30 1091 O 102.828 -1.70098 0.971779 0
M  V30 1092 H 101.408 0.159558 0.72976 0
M  V30 1093 H 104.07 1.07665 1.62463 0
M  V30 1094 H 103.166 0.574886 3.0676 0
M  V30 1095 N 103.467 -1.45747 0.599634 0
M  V30 1096 C 104.713 -2.03153 0.100263 0
M  V30 1097 C 105.068 -1.46073 -1.25221 0
M  V30 1098 O 104.361 -0.622878 -1.81193 0
M  V30 1099 C 104.555 -3.57399 -0.00602758 0
M  V30 1100 C 104.384 -4.2944 1.3346 0
M  V30 1101 C 103.154 -4.6768 1.91321 0
M  V30 1102 C 105.352 -4.61905 2.2616 0
M  V30 1103 N 103.334 -5.24544 3.18946 0
M  V30 1104 C 104.705 -5.19518 3.3838 0
M  V30 1105 C 106.76 -4.43841 2.25631 0
M  V30 1106 C 105.463 -5.60972 4.50226 0
M  V30 1107 C 107.489 -4.86322 3.36518 0
M  V30 1108 C 106.851 -5.44021 4.4746 0
M  V30 1109 H 102.95 -0.777911 0.0798696 0
M  V30 1110 H 105.534 -1.77674 0.796244 0
M  V30 1111 H 103.705 -3.82556 -0.671212 0
M  V30 1112 H 105.437 -4.01457 -0.51133 0
M  V30 1113 H 102.192 -4.5098 1.44617 0
M  V30 1114 H 102.616 -5.57483 3.84112 0
M  V30 1115 H 107.258 -3.98552 1.41123 0
M  V30 1116 H 104.976 -6.0523 5.35464 0
M  V30 1117 H 108.562 -4.74084 3.37247 0
M  V30 1118 H 107.442 -5.76289 5.31846 0
M  V30 1119 N 104.945 -0.338344 -1.53925 0
M  V30 1120 C 106.173 0.261298 -2.05243 0
M  V30 1121 C 106.588 1.44625 -1.21363 0
M  V30 1122 O 105.945 1.80811 -0.247736 0
M  V30 1123 C 105.996 0.681412 -3.5502 0
M  V30 1124 O 105.717 -0.456414 -4.35716 0
M  V30 1125 C 107.218 1.34232 -4.22489 0
M  V30 1126 H 104.438 0.0513685 -0.669031 0
M  V30 1127 H 106.982 -0.488822 -1.98572 0
M  V30 1128 H 105.137 1.38148 -3.61931 0
M  V30 1129 H 105.551 -0.122564 -5.24357 0
M  V30 1130 H 107.025 1.58708 -5.28693 0
M  V30 1131 H 107.502 2.29426 -3.74514 0
M  V30 1132 H 108.108 0.684424 -4.19757 0
M  V30 1133 N 106.423 1.57458 -0.0668435 0
M  V30 1134 C 107.834 1.80776 0.466558 0
M  V30 1135 C 108.185 0.980361 1.69951 0
M  V30 1136 O 107.31 0.201441 2.1546 0
M  V30 1137 C 107.905 3.27881 0.85321 0
M  V30 1138 C 106.464 3.52062 1.3315 0
M  V30 1139 C 105.611 2.75513 0.314264 0
M  V30 1140 H 108.562 1.5598 -0.292588 0
M  V30 1141 H 108.583 3.39659 1.715 0
M  V30 1142 H 108.095 3.88075 -0.0443439 0
M  V30 1143 H 106.196 2.97167 2.24772 0
M  V30 1144 H 106.309 4.60762 1.31285 0
M  V30 1145 H 104.673 2.42123 0.790492 0
M  V30 1146 H 105.456 3.38442 -0.575477 0
M  V30 1147 N 107.901 -0.206675 1.56239 0
M  V30 1148 C 108.831 -1.25909 1.96645 0
M  V30 1149 C 109.812 -1.48097 0.836734 0
M  V30 1150 O 110.997 -1.6003 1.10019 0
M  V30 1151 C 108.127 -2.6058 2.29599 0
M  V30 1152 C 107.081 -2.53024 3.452 0
M  V30 1153 C 106.407 -3.91861 3.63798 0
M  V30 1154 C 107.707 -2.06524 4.79734 0
M  V30 1155 H 109.401 -0.923369 2.84806 0
M  V30 1156 H 106.947 -0.442735 1.37025 0
M  V30 1157 H 108.9 -3.34375 2.56459 0
M  V30 1158 H 107.624 -2.95869 1.38307 0
M  V30 1159 H 106.283 -1.81684 3.18412 0
M  V30 1160 H 105.931 -4.24483 2.69857 0
M  V30 1161 H 105.631 -3.87683 4.4156 0
M  V30 1162 H 107.155 -4.67296 3.93022 0
M  V30 1163 H 108.569 -2.70072 5.05702 0
M  V30 1164 H 106.966 -2.13374 5.60885 0
M  V30 1165 H 108.036 -1.01802 4.74093 0
M  V30 1166 N 109.379 -1.50304 -0.473955 0
M  V30 1167 C 110.607 -1.64902 -1.24959 0
M  V30 1168 C 111.022 -0.331198 -1.85872 0
M  V30 1169 O 110.379 0.68652 -1.69095 0
M  V30 1170 C 110.43 -2.73803 -2.36038 0
M  V30 1171 O 110.151 -4.00477 -1.77624 0
M  V30 1172 C 111.652 -2.99349 -3.26964 0
M  V30 1173 H 108.872 -0.554383 -0.378022 0
M  V30 1174 H 111.416 -1.9651 -0.566054 0
M  V30 1175 H 109.571 -2.44898 -3.00173 0
M  V30 1176 H 109.985 -4.60678 -2.5075 0
M  V30 1177 H 111.459 -3.79217 -4.01121 0
M  V30 1178 H 111.936 -2.10307 -3.85574 0
M  V30 1179 H 112.542 -3.29774 -2.68569 0
M  V30 1180 N 110.857 0.726932 -1.39834 0
M  V30 1181 C 112.103 1.48884 -1.377 0
M  V30 1182 C 112.436 1.94185 0.0244852 0
M  V30 1183 O 111.711 1.67361 0.990986 0
M  V30 1184 C 111.994 2.72288 -2.3565 0
M  V30 1185 C 111.847 2.32956 -3.84775 0
M  V30 1186 C 113.166 3.74414 -2.31306 0
M  V30 1187 H 110.285 0.540062 -0.5015 0
M  V30 1188 H 112.927 0.830547 -1.70886 0
M  V30 1189 H 111.077 3.28457 -2.07481 0
M  V30 1190 H 112.749 1.82356 -4.23726 0
M  V30 1191 H 110.992 1.65088 -4.01159 0
M  V30 1192 H 111.663 3.21362 -4.4881 0
M  V30 1193 H 114.139 3.27849 -2.56231 0
M  V30 1194 H 113.015 4.58414 -3.01907 0
M  V30 1195 H 113.276 4.21909 -1.32081 0
M  V30 1196 N 112.336 1.25143 0.95797 0
M  V30 1197 C 113.246 1.06968 2.08794 0
M  V30 1198 C 114.262 0.00773911 1.73998 0
M  V30 1199 O 115.438 0.207972 2.00323 0
M  V30 1200 C 112.503 0.68691 3.39827 0
M  V30 1201 C 111.564 1.82641 3.88511 0
M  V30 1202 C 110.797 1.46181 5.1329 0
M  V30 1203 O 111.02 0.355971 5.69288 0
M  V30 1204 O 109.954 2.29085 5.566 0
M  V30 1205 H 113.78 2.01723 2.27027 0
M  V30 1206 H 111.365 1.04051 1.07209 0
M  V30 1207 H 113.247 0.485417 4.18595 0
M  V30 1208 H 111.922 -0.231417 3.22872 0
M  V30 1209 H 110.829 2.08274 3.10762 0
M  V30 1210 H 112.162 2.72386 4.09959 0
M  V30 1211 N 113.814 -1.1601 1.06675 0
M  V30 1212 C 114.761 -2.20525 0.680967 0
M  V30 1213 C 115.731 -1.62904 -0.324283 0
M  V30 1214 O 116.916 -1.89615 -0.212294 0
M  V30 1215 C 114.056 -3.45013 0.0776551 0
M  V30 1216 C 113.169 -4.16863 1.13355 0
M  V30 1217 C 112.304 -5.2888 0.49597 0
M  V30 1218 C 111.343 -5.92537 1.53513 0
M  V30 1219 N 110.48 -6.96038 0.920631 0
M  V30 1220 H 115.32 -2.52876 1.57663 0
M  V30 1221 H 112.857 -1.24199 0.788223 0
M  V30 1222 H 114.815 -4.16193 -0.289704 0
M  V30 1223 H 113.445 -3.132 -0.781393 0
M  V30 1224 H 112.497 -3.44248 1.61857 0
M  V30 1225 H 113.809 -4.60294 1.92174 0
M  V30 1226 H 112.963 -6.06653 0.0758604 0
M  V30 1227 H 111.702 -4.86622 -0.324062 0
M  V30 1228 H 110.707 -5.13482 1.9651 0
M  V30 1229 H 111.932 -6.36873 2.35733 0
M  V30 1230 H 109.878 -6.55888 0.12138 0
M  V30 1231 H 109.795 -7.3786 1.64616 0
M  V30 1232 H 111.063 -7.77725 0.525795 0
M  V30 1233 N 115.292 -0.849877 -1.32721 0
M  V30 1234 C 116.54 -0.450032 -1.97026 0
M  V30 1235 C 116.861 0.996604 -1.67609 0
M  V30 1236 O 116.131 1.6958 -0.980786 0
M  V30 1237 H 114.711 -0.163426 -0.728904 0
M  V30 1238 H 117.373 -1.08526 -1.6189 0
M  V30 1239 H 116.469 -0.591146 -3.0645 0
M  V30 1240 N 116.77 1.45427 -0.607355 0
M  V30 1241 C 117.733 2.28974 0.101693 0
M  V30 1242 C 118.733 1.39754 0.795329 0
M  V30 1243 O 119.923 1.61878 0.643527 0
M  V30 1244 C 117.055 3.20768 1.15414 0
M  V30 1245 H 118.248 2.93147 -0.632844 0
M  V30 1246 H 115.801 1.51945 -0.366391 0
M  V30 1247 H 116.536 2.61395 1.91945 0
M  V30 1248 H 116.321 3.86489 0.66098 0
M  V30 1249 H 117.811 3.83589 1.65073 0
M  V30 1250 N 118.248 0.346503 1.53744 0
M  V30 1251 C 119.196 -0.52422 2.26616 0
M  V30 1252 C 120.19 -1.09948 1.28871 0
M  V30 1253 O 121.396 -1.04488 1.46568 0
M  V30 1254 H 117.771 -0.187743 0.728187 0
M  V30 1255 H 119.742 0.11239 2.98188 0
M  V30 1256 C 118.491 -1.66186 3.05414 0
M  V30 1257 H 117.814 -1.22848 3.80458 0
M  V30 1258 H 119.254 -2.24622 3.59612 0
M  V30 1259 C 117.713 -2.59302 2.1509 0
M  V30 1260 O 118.243 -3.61628 1.74895 0
M  V30 1261 N 116.449 -2.28055 1.8011 0
M  V30 1262 H 115.996 -1.44883 2.12994 0
M  V30 1263 H 115.954 -2.90615 1.19958 0
M  V30 1264 N 119.726 -1.57421 0.075193 0
M  V30 1265 C 120.972 -1.93905 -0.594025 0
M  V30 1266 C 121.305 -0.955701 -1.69056 0
M  V30 1267 O 120.58 0.0145373 -1.94495 0
M  V30 1268 C 120.863 -3.40638 -1.1678 0
M  V30 1269 C 120.716 -4.49733 -0.0776792 0
M  V30 1270 C 122.035 -3.88259 -2.07228 0
M  V30 1271 H 119.154 -0.705105 -0.214466 0
M  V30 1272 H 121.796 -1.8947 0.141854 0
M  V30 1273 H 119.946 -3.44549 -1.79494 0
M  V30 1274 H 121.618 -4.57942 0.555573 0
M  V30 1275 H 119.861 -4.29751 0.591286 0
M  V30 1276 H 120.532 -5.49549 -0.519603 0
M  V30 1277 H 123.008 -3.86376 -1.54445 0
M  V30 1278 H 121.884 -4.91533 -2.44308 0
M  V30 1279 H 122.145 -3.26396 -2.98191 0
M  V30 1280 N 121.204 0.198386 -1.56346 0
M  V30 1281 C 122.114 1.2664 -1.97483 0
M  V30 1282 C 123.13 1.49989 -0.882002 0
M  V30 1283 O 124.306 1.62668 -1.18748 0
M  V30 1284 C 121.371 2.59141 -2.30319 0
M  V30 1285 C 120.432 2.43892 -3.53292 0
M  V30 1286 C 119.665 3.70074 -3.84553 0
M  V30 1287 O 119.888 4.74101 -3.1715 0
M  V30 1288 O 118.822 3.658 -4.7799 0
M  V30 1289 H 122.648 0.947304 -2.88548 0
M  V30 1290 H 120.233 0.403123 -1.43859 0
M  V30 1291 H 122.115 3.37352 -2.5253 0
M  V30 1292 H 120.79 2.90684 -1.42423 0
M  V30 1293 H 119.697 1.63803 -3.36332 0
M  V30 1294 H 121.03 2.17282 -4.41644 0
M  V30 1295 N 122.682 1.50554 0.465978 0
M  V30 1296 C 123.629 1.6979 1.56333 0
M  V30 1297 C 124.599 0.539239 1.57103 0
M  V30 1298 O 125.784 0.770401 1.74555 0
M  V30 1299 C 122.924 1.80273 2.94271 0
M  V30 1300 C 122.037 3.07674 3.0325 0
M  V30 1301 C 121.172 3.08922 4.32135 0
M  V30 1302 C 120.211 4.30755 4.34875 0
M  V30 1303 N 119.348 4.29714 5.55239 0
M  V30 1304 H 124.188 2.63472 1.39235 0
M  V30 1305 H 121.725 1.30602 0.676873 0
M  V30 1306 H 123.683 1.84332 3.74269 0
M  V30 1307 H 122.313 0.900258 3.09992 0
M  V30 1308 H 121.365 3.13062 2.16094 0
M  V30 1309 H 122.677 3.97642 3.01135 0
M  V30 1310 H 121.831 3.11738 5.20485 0
M  V30 1311 H 120.57 2.16792 4.36866 0
M  V30 1312 H 119.575 4.28146 3.44922 0
M  V30 1313 H 120.8 5.24117 4.31831 0
M  V30 1314 H 118.746 3.4044 5.60746 0
M  V30 1315 H 118.663 5.13456 5.54886 0
M  V30 1316 H 119.931 4.36683 6.457 0
M  V30 1317 N 124.16 -0.719506 1.40217 0
M  V30 1318 C 125.406 -1.48152 1.38488 0
M  V30 1319 C 125.739 -1.94195 -0.0141867 0
M  V30 1320 O 125.014 -1.67884 -0.982096 0
M  V30 1321 C 125.297 -2.71035 2.37091 0
M  V30 1322 C 125.15 -2.30912 3.86005 0
M  V30 1323 C 126.469 -3.73182 2.33288 0
M  V30 1324 H 123.588 -0.537395 0.504357 0
M  V30 1325 H 126.23 -0.821472 1.71324 0
M  V30 1326 H 124.38 -3.27352 2.0922 0
M  V30 1327 H 126.052 -1.80107 4.24687 0
M  V30 1328 H 124.295 -1.62958 4.02029 0
M  V30 1329 H 124.966 -3.18978 4.50508 0
M  V30 1330 H 127.442 -3.26485 2.57966 0
M  V30 1331 H 126.318 -4.56806 3.04334 0
M  V30 1332 H 126.579 -4.21202 1.34317 0
M  V30 1333 N 125.638 -1.25649 -0.95132 0
M  V30 1334 C 126.887 -1.09988 -1.69073 0
M  V30 1335 C 127.2 0.358355 -1.92289 0
M  V30 1336 O 128.406 0.635466 -2.63958 0
M  V30 1337 C 126.862 -1.92012 -3.044 0
M  V30 1338 C 126.47 -3.42347 -2.88968 0
M  V30 1339 C 128.214 -1.8493 -3.82101 0
M  V30 1340 C 126.121 -4.16655 -4.19705 0
M  V30 1341 H 125.051 -0.407993 -0.63408 0
M  V30 1342 H 127.702 -1.49873 -1.05879 0
M  V30 1343 H 126.084 -1.44952 -3.68517 0
M  V30 1344 H 127.258 -3.97104 -2.33762 0
M  V30 1345 H 125.573 -3.50557 -2.24719 0
M  V30 1346 H 128.17 -2.37739 -4.78941 0
M  V30 1347 H 128.513 -0.817883 -4.08187 0
M  V30 1348 H 129.046 -2.29758 -3.2474 0
M  V30 1349 H 125.785 -5.20224 -3.98807 0
M  V30 1350 H 125.305 -3.66681 -4.74663 0
M  V30 1351 H 126.984 -4.24551 -4.88227 0
M  V30 1352 N 127.117 1.15442 -1.07289 0
M  V30 1353 C 128.047 2.22312 -0.714107 0
M  V30 1354 C 129.028 1.67467 0.298155 0
M  V30 1355 O 130.213 1.93445 0.171048 0
M  V30 1356 C 127.343 3.47124 -0.110448 0
M  V30 1357 C 126.297 4.14926 -1.04979 0
M  V30 1358 C 125.623 5.33807 -0.308924 0
M  V30 1359 C 126.923 4.64762 -2.38314 0
M  V30 1360 H 128.617 2.5258 -1.6076 0
M  V30 1361 H 126.163 1.21404 -0.77441 0
M  V30 1362 H 128.116 4.21124 0.152482 0
M  V30 1363 H 126.84 3.16187 0.81812 0
M  V30 1364 H 125.499 3.42866 -1.29764 0
M  V30 1365 H 125.147 4.99126 0.623084 0
M  V30 1366 H 124.847 5.80113 -0.935036 0
M  V30 1367 H 126.371 6.10576 -0.0537771 0
M  V30 1368 H 127.785 5.30292 -2.1786 0
M  V30 1369 H 126.182 5.21728 -2.96514 0
M  V30 1370 H 127.252 3.80434 -3.00663 0
M  V30 1371 N 128.595 0.856903 1.32268 0
M  V30 1372 C 129.558 0.308171 2.27119 0
M  V30 1373 C 130.558 -0.533421 1.51695 0
M  V30 1374 O 131.748 -0.344607 1.70757 0
M  V30 1375 C 128.88 -0.563757 3.36206 0
M  V30 1376 H 130.073 1.14535 2.77167 0
M  V30 1377 H 127.626 0.631421 1.42978 0
M  V30 1378 H 128.361 -1.42266 2.91429 0
M  V30 1379 H 128.146 0.0386749 3.92081 0
M  V30 1380 H 129.636 -0.940386 4.06874 0
M  V30 1381 N 130.073 -1.45103 0.615059 0
M  V30 1382 C 131.35 -1.95549 0.0448276 0
M  V30 1383 C 131.73 -1.55737 -1.4251 0
M  V30 1384 O 131.078 -0.823556 -2.13143 0
M  V30 1385 C 131.288 -3.48098 0.250785 0
M  V30 1386 C 132.636 -4.24384 0.135509 0
M  V30 1387 O 133.66 -3.55738 0.181299 0
M  V30 1388 O 132.519 -5.46493 0.0268878 0
M  V30 1389 H 129.613 -0.8264 -0.0314845 0
M  V30 1390 H 132.159 -1.55232 0.685642 0
M  V30 1391 H 130.931 -3.7007 1.27139 0
M  V30 1392 H 130.554 -3.95323 -0.424937 0
M  V30 1393 N 131.551 -0.354651 -1.53558 0
M  V30 1394 C 132.779 0.239515 -2.05509 0
M  V30 1395 C 133.194 1.4333 -1.2289 0
M  V30 1396 O 132.551 1.80538 -0.266899 0
M  V30 1397 C 132.602 0.643719 -3.55723 0
M  V30 1398 O 132.323 -0.502602 -4.35207 0
M  V30 1399 C 133.824 1.29743 -4.23889 0
M  V30 1400 H 131.044 0.0442697 -0.669538 0
M  V30 1401 H 133.588 -0.509856 -1.98042 0
M  V30 1402 H 131.743 1.34302 -3.63376 0
M  V30 1403 H 132.157 -0.178172 -5.24197 0
M  V30 1404 H 133.631 1.53091 -5.30346 0
M  V30 1405 H 134.108 2.25441 -3.76926 0
M  V30 1406 H 134.714 0.639865 -4.20459 0
M  V30 1407 N 133.029 1.57378 -0.0835403 0
M  V30 1408 C 133.962 2.09016 0.915833 0
M  V30 1409 C 134.94 0.997993 1.2837 0
M  V30 1410 O 136.124 1.27219 1.39096 0
M  V30 1411 C 133.251 2.55757 2.22049 0
M  V30 1412 C 132.297 3.76522 2.00333 0
M  V30 1413 S 133.13 5.20661 1.25191 0
M  V30 1414 C 134.286 5.70743 2.56912 0
M  V30 1415 H 134.519 2.93457 0.476492 0
M  V30 1416 H 132.052 1.53856 0.129493 0
M  V30 1417 H 134.01 2.83346 2.97027 0
M  V30 1418 H 132.671 1.71564 2.63106 0
M  V30 1419 H 131.864 4.07256 2.96916 0
M  V30 1420 H 131.466 3.49367 1.33488 0
M  V30 1421 H 133.758 5.78304 3.52946 0
M  V30 1422 H 134.701 6.6944 2.30772 0
M  V30 1423 H 135.109 4.98616 2.64655 0
M  V30 1424 N 134.507 -0.190092 1.56449 0
M  V30 1425 C 135.735 -0.925772 1.85033 0
M  V30 1426 C 136.15 -1.76638 0.666658 0
M  V30 1427 O 135.507 -1.78822 -0.364565 0
M  V30 1428 C 135.558 -1.81786 3.12468 0
M  V30 1429 O 135.279 -1.01118 4.26271 0
M  V30 1430 C 136.78 -2.6648 3.54265 0
M  V30 1431 H 134 -0.269872 0.614337 0
M  V30 1432 H 136.544 -0.195837 2.0356 0
M  V30 1433 H 134.699 -2.50136 2.95822 0
M  V30 1434 H 135.113 -1.61956 4.98869 0
M  V30 1435 H 136.587 -3.24722 4.46385 0
M  V30 1436 H 137.064 -3.40434 2.77491 0
M  V30 1437 H 137.67 -2.03493 3.73458 0
M  V30 1438 N 135.985 -1.50799 -0.457987 0
M  V30 1439 C 136.935 -1.67003 -1.55222 0
M  V30 1440 C 137.919 -0.52434 -1.52117 0
M  V30 1441 O 139.111 -0.779345 -1.58919 0
M  V30 1442 C 136.24 -1.77956 -2.93576 0
M  V30 1443 C 135.326 -2.98243 -3.01516 0
M  V30 1444 N 135.717 -4.21732 -2.79241 0
M  V30 1445 C 134.015 -2.97072 -3.32662 0
M  V30 1446 C 134.716 -5.02817 -2.92489 0
M  V30 1447 N 133.692 -4.37038 -3.23262 0
M  V30 1448 H 137.494 -2.60163 -1.36721 0
M  V30 1449 H 135.008 -1.48163 -0.664952 0
M  V30 1450 H 137.005 -1.87671 -3.72271 0
M  V30 1451 H 135.665 -0.859634 -3.13114 0
M  V30 1452 H 136.676 -4.51016 -2.54567 0
M  V30 1453 H 133.353 -2.14631 -3.58106 0
M  V30 1454 H 134.743 -6.11054 -2.79396 0
M  V30 1455 N 137.463 0.71206 -1.40597 0
M  V30 1456 C 138.393 1.83889 -1.43899 0
M  V30 1457 C 139.374 1.67442 -0.299504 0
M  V30 1458 O 140.559 1.87421 -0.508624 0
M  V30 1459 C 137.689 3.21877 -1.30431 0
M  V30 1460 C 136.643 3.53002 -2.42019 0
M  V30 1461 C 135.969 4.90172 -2.13626 0
M  V30 1462 C 137.269 3.53643 -3.84362 0
M  V30 1463 H 138.963 1.81383 -2.38203 0
M  V30 1464 H 136.509 0.871237 -1.14654 0
M  V30 1465 H 138.462 4.00404 -1.31357 0
M  V30 1466 H 137.186 3.24968 -0.326049 0
M  V30 1467 H 135.845 2.76818 -2.40349 0
M  V30 1468 H 135.493 4.89869 -1.14182 0
M  V30 1469 H 135.193 5.11962 -2.88389 0
M  V30 1470 H 136.717 5.71028 -2.1624 0
M  V30 1471 H 138.131 4.22203 -3.87837 0
M  V30 1472 H 136.528 3.86961 -4.58673 0
M  V30 1473 H 137.598 2.52954 -4.13693 0
M  V30 1474 N 138.941 1.26152 0.944643 0
M  V30 1475 C 139.889 1.07215 2.06417 0
M  V30 1476 C 140.883 9.2007e-05 1.694 0
M  V30 1477 O 142.089 0.1565 1.79318 0
M  V30 1478 H 138.464 0.329837 0.675805 0
M  V30 1479 H 140.435 2.02099 2.19541 0
M  V30 1480 C 139.184 0.718197 3.40202 0
M  V30 1481 H 138.507 1.53497 3.69159 0
M  V30 1482 H 139.947 0.625459 4.19361 0
M  V30 1483 C 138.406 -0.576435 3.31932 0
M  V30 1484 O 138.936 -1.61574 3.67773 0
M  V30 1485 N 137.142 -0.565781 2.85039 0
M  V30 1486 H 136.689 0.280367 2.5607 0
M  V30 1487 H 136.647 -1.43213 2.79888 0
M  V30 1488 N 140.419 -1.14872 1.07899 0
M  V30 1489 C 141.667 -1.85422 0.803941 0
M  V30 1490 C 141.988 -1.83051 -0.67211 0
M  V30 1491 O 141.258 -1.27532 -1.48703 0
M  V30 1492 H 139.838 -0.686537 0.294408 0
M  V30 1493 H 142.5 -1.39226 1.3639 0
M  V30 1494 H 141.596 -2.90399 1.14346 0
M  V30 1495 N 141.898 -0.863906 -1.31812 0
M  V30 1496 C 143.147 -0.46801 -1.96195 0
M  V30 1497 C 143.46 0.983474 -1.69077 0
M  V30 1498 O 144.666 1.48523 -2.27273 0
M  V30 1499 C 143.122 -0.785995 -3.51212 0
M  V30 1500 C 142.73 -2.25383 -3.87178 0
M  V30 1501 C 144.474 -0.458274 -4.22019 0
M  V30 1502 C 142.381 -2.51455 -5.3528 0
M  V30 1503 H 141.311 -0.171283 -0.734287 0
M  V30 1504 H 143.962 -1.05597 -1.50072 0
M  V30 1505 H 142.344 -0.127359 -3.95795 0
M  V30 1506 H 143.518 -2.95502 -3.53575 0
M  V30 1507 H 141.833 -2.54698 -3.2942 0
M  V30 1508 H 144.43 -0.630369 -5.30971 0
M  V30 1509 H 144.773 0.600834 -4.11941 0
M  V30 1510 H 145.306 -1.07319 -3.8305 0
M  V30 1511 H 142.045 -3.56025 -5.50387 0
M  V30 1512 H 141.565 -1.85923 -5.70257 0
M  V30 1513 H 143.244 -2.35874 -6.02472 0
M  V30 1514 N 143.376 1.44774 -0.622745 0
M  V30 1515 C 144.604 2.06487 -0.130722 0
M  V30 1516 C 145.019 1.46476 1.19123 0
M  V30 1517 O 144.376 0.584502 1.72887 0
M  V30 1518 C 144.427 3.615 -0.000807207 0
M  V30 1519 O 144.148 4.19274 -1.27048 0
M  V30 1520 C 145.649 4.40229 0.520898 0
M  V30 1521 H 142.869 0.666704 -0.0758106 0
M  V30 1522 H 145.413 1.85779 -0.854774 0
M  V30 1523 H 143.568 3.81498 0.673643 0
M  V30 1524 H 143.982 5.12622 -1.1099 0
M  V30 1525 H 145.456 5.49144 0.560838 0
M  V30 1526 H 145.933 4.1108 1.54627 0
M  V30 1527 H 146.539 4.25131 -0.120018 0
M  V30 1528 N 144.854 0.36279 1.53368 0
M  V30 1529 C 146.1 -0.228113 2.01513 0
M  V30 1530 C 146.433 -1.48648 1.2497 0
M  V30 1531 O 145.708 -1.91459 0.342616 0
M  V30 1532 C 145.991 -0.522884 3.56284 0
M  V30 1533 C 145.844 0.74892 4.43521 0
M  V30 1534 C 147.163 -1.32461 4.19693 0
M  V30 1535 H 144.282 -0.0814343 0.732487 0
M  V30 1536 H 146.924 0.48713 1.83649 0
M  V30 1537 H 145.074 -1.1322 3.71636 0
M  V30 1538 H 146.746 1.38648 4.39971 0
M  V30 1539 H 144.989 1.36986 4.11603 0
M  V30 1540 H 145.66 0.497667 5.49752 0
M  V30 1541 H 148.136 -0.809203 4.08156 0
M  V30 1542 H 147.012 -1.49961 5.28018 0
M  V30 1543 H 147.273 -2.33232 3.75573 0
M  V30 1544 N 146.332 -1.57332 0.0918853 0
M  V30 1545 C 147.28 -2.15075 -0.885747 0
M  V30 1546 C 148.274 -1.09277 -1.29441 0
M  V30 1547 O 149.48 -1.27627 -1.26931 0
M  V30 1548 H 145.855 -0.687966 -0.303656 0
M  V30 1549 H 147.826 -2.96047 -0.373995 0
M  V30 1550 C 146.575 -2.74325 -2.13638 0
M  V30 1551 H 145.898 -3.55418 -1.8308 0
M  V30 1552 H 147.338 -3.183 -2.80109 0
M  V30 1553 C 145.797 -1.70062 -2.90827 0
M  V30 1554 O 146.327 -1.13763 -3.85254 0
M  V30 1555 N 144.533 -1.40628 -2.54307 0
M  V30 1556 H 144.08 -1.866 -1.7759 0
M  V30 1557 H 144.038 -0.711043 -3.06254 0
M  V30 1558 N 147.81 0.181792 -1.56548 0
M  V30 1559 C 149.038 0.915947 -1.85521 0
M  V30 1560 C 149.453 1.76282 -0.676016 0
M  V30 1561 O 148.81 1.79012 0.355077 0
M  V30 1562 C 148.861 1.80126 -3.13427 0
M  V30 1563 O 148.582 0.988562 -4.26801 0
M  V30 1564 C 150.083 2.64597 -3.55673 0
M  V30 1565 H 147.303 0.26661 -0.61576 0
M  V30 1566 H 149.847 0.185039 -2.03661 0
M  V30 1567 H 148.002 2.48563 -2.97145 0
M  V30 1568 H 148.416 1.59308 -4.99721 0
M  V30 1569 H 149.89 3.2235 -4.48101 0
M  V30 1570 H 150.367 3.38958 -2.79292 0
M  V30 1571 H 150.973 2.0151 -3.74532 0
M  V30 1572 N 149.288 1.51039 0.449983 0
M  V30 1573 C 150.536 1.62759 1.19808 0
M  V30 1574 C 150.857 0.339981 1.92013 0
M  V30 1575 O 150.127 -0.643606 1.85026 0
M  V30 1576 H 148.707 0.599811 0.445237 0
M  V30 1577 H 151.369 1.87914 0.517138 0
M  V30 1578 H 150.465 2.44911 1.93455 0
M  V30 1579 N 150.766 -0.704594 1.40972 0
M  V30 1580 C 152.014 -1.46169 1.39568 0
M  V30 1581 C 152.335 -1.95 0.00253745 0
M  V30 1582 O 151.605 -1.71095 -0.954114 0
M  V30 1583 H 150.185 -0.542326 0.513704 0
M  V30 1584 H 152.847 -0.834553 1.76128 0
M  V30 1585 H 151.943 -2.32922 2.07735 0
M  V30 1586 N 152.244 -1.26651 -0.937939 0
M  V30 1587 C 153.655 -1.1125 -1.49934 0
M  V30 1588 C 154.006 0.306077 -1.93798 0
M  V30 1589 O 153.131 1.19792 -1.80219 0
M  V30 1590 C 153.726 -2.01339 -2.72485 0
M  V30 1591 C 152.285 -1.90074 -3.24883 0
M  V30 1592 C 151.432 -1.94498 -1.97651 0
M  V30 1593 H 154.383 -1.39693 -0.753091 0
M  V30 1594 H 154.404 -1.56319 -3.46907 0
M  V30 1595 H 153.916 -3.04577 -2.40529 0
M  V30 1596 H 152.017 -0.897827 -3.61621 0
M  V30 1597 H 152.13 -2.75778 -3.9177 0
M  V30 1598 H 150.494 -1.38591 -2.13693 0
M  V30 1599 H 151.277 -2.99372 -1.68022 0
M  V30 1600 N 153.722 1.14298 -1.08507 0
M  V30 1601 C 154.968 1.85633 -0.816581 0
M  V30 1602 C 155.301 1.82784 0.656021 0
M  V30 1603 O 154.576 1.25926 1.48233 0
M  V30 1604 C 154.859 3.34223 -1.34041 0
M  V30 1605 C 154.712 3.45639 -2.87843 0
M  V30 1606 C 156.031 4.29356 -0.9665 0
M  V30 1607 H 153.15 0.67402 -0.298104 0
M  V30 1608 H 155.792 1.34214 -1.34487 0
M  V30 1609 H 153.942 3.78144 -0.89104 0
M  V30 1610 H 155.614 3.10498 -3.41158 0
M  V30 1611 H 153.857 2.86817 -3.25451 0
M  V30 1612 H 154.528 4.50089 -3.19569 0
M  V30 1613 H 157.004 3.93457 -1.35391 0
M  V30 1614 H 155.88 5.3178 -1.3602 0
M  V30 1615 H 156.141 4.41919 0.126362 0
M  V30 1616 N 155.201 0.870884 1.31352 0
M  V30 1617 C 156.164 0.332243 2.26779 0
M  V30 1618 C 157.164 -0.517302 1.52252 0
M  V30 1619 O 158.354 -0.326477 1.71113 0
M  V30 1620 C 155.486 -0.528066 3.36785 0
M  V30 1621 H 156.679 1.17469 2.75937 0
M  V30 1622 H 154.232 0.64655 1.423 0
M  V30 1623 H 154.967 -1.39167 2.92922 0
M  V30 1624 H 154.752 0.0802582 3.92018 0
M  V30 1625 H 156.242 -0.897179 4.07849 0
M  V30 1626 N 156.679 -1.44442 0.630414 0
M  V30 1627 C 157.907 -2.06414 0.141671 0
M  V30 1628 C 158.322 -1.47105 -1.18345 0
M  V30 1629 O 157.679 -0.593662 -1.72574 0
M  V30 1630 C 157.73 -3.61494 0.0199784 0
M  V30 1631 O 157.451 -4.18594 1.29269 0
M  V30 1632 C 158.952 -4.40499 -0.497544 0
M  V30 1633 H 156.172 -0.666292 0.0793452 0
M  V30 1634 H 158.716 -1.85323 0.864614 0
M  V30 1635 H 156.871 -3.8185 -0.653402 0
M  V30 1636 H 157.285 -5.12026 1.13707 0
M  V30 1637 H 158.759 -5.49433 -0.531708 0
M  V30 1638 H 159.236 -4.11895 -1.52445 0
M  V30 1639 H 159.842 -4.25061 0.142562 0
M  V30 1640 N 158.157 -0.370918 -1.53173 0
M  V30 1641 C 159.403 0.217423 -2.01631 0
M  V30 1642 C 159.736 1.47983 -1.25756 0
M  V30 1643 O 159.011 1.91274 -0.352764 0
M  V30 1644 C 159.294 0.503982 -3.56556 0
M  V30 1645 C 159.147 -0.77243 -4.43118 0
M  V30 1646 C 160.466 1.30234 -4.20389 0
M  V30 1647 H 157.585 0.0775486 -0.732909 0
M  V30 1648 H 160.227 -0.496863 -1.83388 0
M  V30 1649 H 158.377 1.11248 -3.72231 0
M  V30 1650 H 160.049 -1.4098 -4.39229 0
M  V30 1651 H 158.292 -1.39167 -4.10871 0
M  V30 1652 H 158.963 -0.526815 -5.4948 0
M  V30 1653 H 161.439 0.787546 -4.08579 0
M  V30 1654 H 160.315 1.47158 -5.28806 0
M  V30 1655 H 160.576 2.31237 -3.76805 0
M  V30 1656 N 159.635 1.57281 -0.100228 0
M  V30 1657 C 160.863 1.98879 0.570509 0
M  V30 1658 C 161.278 0.979476 1.61405 0
M  V30 1659 O 160.635 -0.0302288 1.82475 0
M  V30 1660 C 160.686 3.4052 1.2136 0
M  V30 1661 O 160.407 4.37588 0.211786 0
M  V30 1662 C 161.908 3.97149 1.96945 0
M  V30 1663 H 159.128 0.653428 0.152555 0
M  V30 1664 H 161.672 2.03697 -0.18103 0
M  V30 1665 H 159.827 3.367 1.91603 0
M  V30 1666 H 160.241 5.20118 0.676607 0
M  V30 1667 H 161.715 4.98393 2.37294 0
M  V30 1668 H 162.192 3.3525 2.83733 0
M  V30 1669 H 162.798 4.04458 1.31506 0
M  V30 1670 N 161.113 -0.173488 1.56642 0
M  V30 1671 C 162.076 -1.19859 1.95362 0
M  V30 1672 C 163.076 -1.37296 0.83704 0
M  V30 1673 O 164.266 -1.34739 1.10413 0
M  V30 1674 C 161.398 -2.56405 2.24654 0
M  V30 1675 H 162.591 -0.867062 2.87092 0
M  V30 1676 H 160.144 -0.415853 1.50666 0
M  V30 1677 H 160.879 -2.94576 1.35631 0
M  V30 1678 H 160.664 -2.45115 3.06041 0
M  V30 1679 H 162.154 -3.30287 2.5554 0
M  V30 1680 N 162.591 -1.51276 -0.441967 0
M  V30 1681 C 163.839 -1.63392 -1.18943 0
M  V30 1682 C 164.16 -0.350159 -1.9183 0
M  V30 1683 O 163.43 0.633784 -1.85364 0
M  V30 1684 H 162.01 -0.602164 -0.442049 0
M  V30 1685 H 164.672 -1.88186 -0.507165 0
M  V30 1686 H 163.768 -2.45934 -1.92154 0
M  V30 1687 N 164.069 0.697108 -1.41344 0
M  V30 1688 C 165.032 1.79281 -1.42797 0
M  V30 1689 C 166.032 1.57607 -0.318837 0
M  V30 1690 O 167.222 1.64309 -0.578642 0
M  V30 1691 C 164.354 3.17632 -1.23785 0
M  V30 1692 H 165.547 1.79385 -2.40335 0
M  V30 1693 H 163.1 0.904582 -1.27464 0
M  V30 1694 H 163.835 3.23167 -0.270814 0
M  V30 1695 H 163.62 3.34765 -2.04144 0
M  V30 1696 H 165.11 3.97617 -1.27633 0
M  V30 1697 N 165.547 1.27147 0.931209 0
M  V30 1698 C 166.795 1.13055 1.6752 0
M  V30 1699 C 167.116 -0.324791 1.92276 0
M  V30 1700 O 166.386 -1.22775 1.52654 0
M  V30 1701 H 164.966 0.415391 0.620854 0
M  V30 1702 H 167.628 1.59623 1.11833 0
M  V30 1703 H 166.724 1.65694 2.64485 0
M  V30 1704 N 167.025 -1.13721 1.09112 0
M  V30 1705 C 167.988 -2.17222 0.731241 0
M  V30 1706 C 168.988 -1.59035 -0.237566 0
M  V30 1707 O 170.178 -1.74192 -0.0161704 0
M  V30 1708 C 167.31 -3.40804 0.0808443 0
M  V30 1709 H 168.503 -2.50573 1.64783 0
M  V30 1710 H 166.056 -1.28493 0.889897 0
M  V30 1711 H 166.791 -3.1304 -0.847127 0
M  V30 1712 H 166.576 -3.84306 0.777896 0
M  V30 1713 H 168.066 -4.1731 -0.155657 0
M  V30 1714 N 168.503 -0.877838 -1.30888 0
M  V30 1715 C 169.728 -0.506629 -2.01117 0
M  V30 1716 C 170.153 0.895564 -1.65412 0
M  V30 1717 O 169.511 1.5923 -0.866922 0
M  V30 1718 C 169.559 -0.680223 -3.54126 0
M  V30 1719 O 168.663 0.277033 -4.11468 0
M  V30 1720 H 168.004 -0.200518 -0.633 0
M  V30 1721 H 170.534 -1.18342 -1.66902 0
M  V30 1722 H 170.544 -0.5765 -4.03907 0
M  V30 1723 H 169.219 -1.70261 -3.79452 0
M  V30 1724 H 167.796 0.127606 -3.72682 0
M  V30 1725 N 169.982 1.44106 -0.638065 0
M  V30 1726 C 171.231 2.01194 -0.142744 0
M  V30 1727 C 171.544 1.50835 1.24532 0
M  V30 1728 O 172.75 2.00096 1.83504 0
M  V30 1729 C 171.206 3.59319 -0.20442 0
M  V30 1730 C 170.814 4.18674 -1.59423 0
M  V30 1731 C 172.558 4.23854 0.234079 0
M  V30 1732 C 170.465 5.69045 -1.61065 0
M  V30 1733 H 169.395 0.752367 -0.0495998 0
M  V30 1734 H 172.046 1.65246 -0.797881 0
M  V30 1735 H 170.428 3.92598 0.517946 0
M  V30 1736 H 171.602 3.96921 -2.34074 0
M  V30 1737 H 169.917 3.66453 -1.97741 0
M  V30 1738 H 172.514 5.34155 0.241443 0
M  V30 1739 H 172.857 3.96688 1.2627 0
M  V30 1740 H 173.39 3.95403 -0.436025 0
M  V30 1741 H 170.129 6.00956 -2.61787 0
M  V30 1742 H 169.649 5.929 -0.90718 0
M  V30 1743 H 171.328 6.32809 -1.34766 0
M  V30 1744 N 171.46 0.379036 1.52974 0
M  V30 1745 C 172.37 -0.468639 2.29872 0
M  V30 1746 C 173.386 -1.08067 1.36373 0
M  V30 1747 O 174.562 -1.08871 1.69438 0
M  V30 1748 C 171.627 -1.58594 3.083 0
M  V30 1749 C 170.688 -1.00007 4.17489 0
M  V30 1750 C 169.921 -2.06413 4.92168 0
M  V30 1751 O 170.144 -3.27751 4.66835 0
M  V30 1752 O 169.078 -1.68717 5.7777 0
M  V30 1753 H 172.904 0.157508 3.03291 0
M  V30 1754 H 170.489 0.143035 1.48714 0
M  V30 1755 H 172.371 -2.23525 3.57232 0
M  V30 1756 H 171.046 -2.19724 2.37703 0
M  V30 1757 H 169.953 -0.314299 3.72777 0
M  V30 1758 H 171.286 -0.433135 4.90291 0
M  V30 1759 N 172.938 -1.57226 0.108567 0
M  V30 1760 C 173.901 -2.13602 -0.831082 0
M  V30 1761 C 174.901 -1.06841 -1.20173 0
M  V30 1762 O 176.091 -1.32666 -1.12895 0
M  V30 1763 C 173.223 -2.66769 -2.12243 0
M  V30 1764 H 174.416 -2.97951 -0.341317 0
M  V30 1765 H 171.969 -1.55667 -0.14057 0
M  V30 1766 H 172.704 -1.85977 -2.65675 0
M  V30 1767 H 172.489 -3.44839 -1.86625 0
M  V30 1768 H 173.979 -3.10332 -2.79435 0
M  V30 1769 N 174.416 0.165178 -1.56732 0
M  V30 1770 C 175.665 0.879143 -1.81532 0
M  V30 1771 C 175.978 1.83144 -0.686842 0
M  V30 1772 O 177.184 2.58823 -0.819944 0
M  V30 1773 C 175.64 1.61388 -3.21686 0
M  V30 1774 C 175.248 0.704904 -4.4242 0
M  V30 1775 C 176.992 2.3157 -3.55774 0
M  V30 1776 C 174.899 1.44022 -5.73595 0
M  V30 1777 H 173.829 0.332033 -0.676957 0
M  V30 1778 H 176.48 0.132008 -1.83025 0
M  V30 1779 H 174.862 2.40599 -3.14529 0
M  V30 1780 H 176.036 -0.0506815 -4.60772 0
M  V30 1781 H 174.351 0.112419 -4.16248 0
M  V30 1782 H 176.948 2.8719 -4.51028 0
M  V30 1783 H 177.291 3.07201 -2.8095 0
M  V30 1784 H 177.824 1.59297 -3.64513 0
M  V30 1785 H 174.563 0.72612 -6.51466 0
M  V30 1786 H 174.083 2.16898 -5.5921 0
M  V30 1787 H 175.762 1.98606 -6.15764 0
M  V30 1788 N 175.894 1.51508 0.433938 0
M  V30 1789 C 177.14 1.64588 1.18484 0
M  V30 1790 C 177.473 0.362666 1.90784 0
M  V30 1791 O 176.748 -0.637892 1.83742 0
M  V30 1792 C 177.031 2.85149 2.19913 0
M  V30 1793 C 176.884 4.23456 1.51674 0
M  V30 1794 C 178.203 3.01227 3.20858 0
M  V30 1795 H 175.322 0.598994 0.429389 0
M  V30 1796 H 177.964 1.84002 0.473647 0
M  V30 1797 H 176.114 2.68729 2.80566 0
M  V30 1798 H 177.786 4.51552 0.943322 0
M  V30 1799 H 176.029 4.25998 0.819035 0
M  V30 1800 H 176.7 5.03812 2.2556 0
M  V30 1801 H 179.176 3.16382 2.70263 0
M  V30 1802 H 178.052 3.87141 3.89118 0
M  V30 1803 H 178.313 2.13447 3.8716 0
M  V30 1804 N 177.372 -0.689602 1.41712 0
M  V30 1805 C 178.6 -1.47827 1.44758 0
M  V30 1806 C 179.015 -1.88721 0.0545703 0
M  V30 1807 O 178.372 -1.57176 -0.927463 0
M  V30 1808 C 178.423 -2.73698 2.3616 0
M  V30 1809 O 178.144 -2.34524 3.7004 0
M  V30 1810 C 179.645 -3.67389 2.48072 0
M  V30 1811 H 176.865 -0.455357 0.49284 0
M  V30 1812 H 179.409 -0.848574 1.86063 0
M  V30 1813 H 177.564 -3.32891 1.98148 0
M  V30 1814 H 177.978 -3.15701 4.18847 0
M  V30 1815 H 179.452 -4.52475 3.16181 0
M  V30 1816 H 179.929 -4.12284 1.51388 0
M  V30 1817 H 180.535 -3.14097 2.86746 0
M  V30 1818 N 178.85 -1.27639 -0.924453 0
M  V30 1819 C 179.76 -1.12466 -2.05885 0
M  V30 1820 C 180.776 -0.053869 -1.73917 0
M  V30 1821 O 181.952 -0.261012 -1.99702 0
M  V30 1822 C 179.017 -0.776768 -3.37886 0
M  V30 1823 C 178.078 -1.92878 -3.83532 0
M  V30 1824 C 177.311 -1.59739 -5.09234 0
M  V30 1825 O 177.534 -0.506782 -5.68144 0
M  V30 1826 O 176.468 -2.43761 -5.50331 0
M  V30 1827 H 180.294 -2.07671 -2.21599 0
M  V30 1828 H 177.879 -1.06857 -1.04413 0
M  V30 1829 H 179.761 -0.596229 -4.17161 0
M  V30 1830 H 178.436 0.145732 -3.23372 0
M  V30 1831 H 177.343 -2.1644 -3.0513 0
M  V30 1832 H 178.676 -2.8316 -4.02593 0
M  V30 1833 N 180.328 1.1314 -1.09713 0
M  V30 1834 C 181.258 2.20748 -0.761102 0
M  V30 1835 C 182.239 1.68061 0.262566 0
M  V30 1836 O 183.424 1.93765 0.129977 0
M  V30 1837 C 180.554 3.46812 -0.184054 0
M  V30 1838 C 179.508 4.12606 -1.13757 0
M  V30 1839 C 178.834 5.33031 -0.422083 0
M  V30 1840 C 180.134 4.59603 -2.48118 0
M  V30 1841 H 181.828 2.49113 -1.66082 0
M  V30 1842 H 179.374 1.19734 -0.799987 0
M  V30 1843 H 181.327 4.21353 0.0631215 0
M  V30 1844 H 180.051 3.17851 0.750868 0
M  V30 1845 H 178.71 3.40036 -1.37007 0
M  V30 1846 H 178.358 5.00335 0.517072 0
M  V30 1847 H 178.058 5.77999 -1.05788 0
M  V30 1848 H 179.582 6.10325 -0.183277 0
M  V30 1849 H 180.996 5.25552 -2.29059 0
M  V30 1850 H 179.393 5.15321 -3.07514 0
M  V30 1851 H 180.463 3.73971 -3.08665 0
M  V30 1852 N 181.806 0.884767 1.30421 0
M  V30 1853 C 182.738 0.308655 2.27112 0
M  V30 1854 C 183.751 -0.536655 1.53701 0
M  V30 1855 O 184.94 -0.35624 1.74909 0
M  V30 1856 C 182.04 -0.579782 3.33904 0
M  V30 1857 C 181.213 0.236417 4.36761 0
M  V30 1858 C 180.272 -0.582482 5.22966 0
M  V30 1859 O 179.298 -0.00525502 5.692 0
M  V30 1860 N 180.5 -1.89163 5.48815 0
M  V30 1861 H 183.265 1.13964 2.77186 0
M  V30 1862 H 180.826 0.747731 1.43599 0
M  V30 1863 H 182.818 -1.13366 3.88497 0
M  V30 1864 H 181.388 -1.31144 2.83761 0
M  V30 1865 H 180.608 0.97174 3.82035 0
M  V30 1866 H 181.896 0.795924 5.02536 0
M  V30 1867 H 181.294 -2.38352 5.13035 0
M  V30 1868 H 179.851 -2.39296 6.06284 0
M  V30 1869 N 183.284 -1.43765 0.645699 0
M  V30 1870 C 184.231 -2.30745 -0.0504648 0
M  V30 1871 C 185.201 -1.4432 -0.822241 0
M  V30 1872 O 186.386 -1.73202 -0.800358 0
M  V30 1873 C 183.526 -3.29802 -1.0161 0
M  V30 1874 C 182.639 -4.31326 -0.241219 0
M  V30 1875 C 181.774 -5.17469 -1.19998 0
M  V30 1876 C 180.813 -6.10691 -0.415094 0
M  V30 1877 N 179.95 -6.89483 -1.32506 0
M  V30 1878 H 184.79 -2.8973 0.697155 0
M  V30 1879 H 182.327 -1.42738 0.355563 0
M  V30 1880 H 184.285 -3.85734 -1.58949 0
M  V30 1881 H 182.915 -2.72483 -1.73069 0
M  V30 1882 H 181.967 -3.77749 0.448334 0
M  V30 1883 H 183.279 -4.9743 0.369437 0
M  V30 1884 H 182.433 -5.7799 -1.84424 0
M  V30 1885 H 181.172 -4.51473 -1.84455 0
M  V30 1886 H 180.177 -5.49265 0.242565 0
M  V30 1887 H 181.402 -6.78727 0.224966 0
M  V30 1888 H 179.348 -6.26142 -1.95657 0
M  V30 1889 H 179.265 -7.52081 -0.768783 0
M  V30 1890 H 180.533 -7.54516 -1.9577 0
M  V30 1891 N 184.763 -0.387143 -1.52771 0
M  V30 1892 C 185.713 0.465942 -2.23188 0
M  V30 1893 C 186.697 1.03138 -1.23496 0
M  V30 1894 O 187.889 0.957845 -1.48843 0
M  V30 1895 C 185.018 1.59384 -3.04059 0
M  V30 1896 C 184.104 1.04024 -4.11144 0
M  V30 1897 N 184.495 0.211416 -5.05358 0
M  V30 1898 C 182.793 1.31295 -4.26237 0
M  V30 1899 C 183.494 -0.0941698 -5.81624 0
M  V30 1900 N 182.47 0.509207 -5.4121 0
M  V30 1901 H 186.272 -0.173856 -2.93385 0
M  V30 1902 H 183.786 -0.19633 -1.61209 0
M  V30 1903 H 185.783 2.21738 -3.53041 0
M  V30 1904 H 184.443 2.23648 -2.35397 0
M  V30 1905 H 185.454 -0.151151 -5.17679 0
M  V30 1906 H 182.131 1.95679 -3.68803 0
M  V30 1907 H 183.521 -0.765572 -6.67524 0
M  V30 1908 N 186.241 1.57166 -0.116904 0
M  V30 1909 C 187.518 1.86645 0.585049 0
M  V30 1910 C 187.898 1.0177 1.84949 0
M  V30 1911 O 187.246 0.0960379 2.28298 0
M  V30 1912 C 187.456 3.37736 0.879507 0
M  V30 1913 C 188.804 4.06289 1.23348 0
M  V30 1914 O 189.828 3.42743 0.969836 0
M  V30 1915 O 188.687 5.18455 1.7282 0
M  V30 1916 H 185.781 0.772593 0.295007 0
M  V30 1917 H 188.327 1.69025 -0.151249 0
M  V30 1918 H 187.099 3.91296 -0.0166136 0
M  V30 1919 H 186.722 3.6078 1.67103 0
M  V30 1920 N 187.719 -0.156864 1.56817 0
M  V30 1921 C 188.649 -1.19589 2.00551 0
M  V30 1922 C 189.63 -1.4536 0.883426 0
M  V30 1923 O 190.815 -1.56449 1.15054 0
M  V30 1924 C 187.945 -2.53143 2.37773 0
M  V30 1925 C 186.899 -2.41913 3.53075 0
M  V30 1926 C 186.225 -3.80088 3.76081 0
M  V30 1927 C 187.525 -1.91157 4.86062 0
M  V30 1928 H 189.219 -0.832293 2.87599 0
M  V30 1929 H 186.765 -0.398918 1.38364 0
M  V30 1930 H 188.718 -3.26047 2.66967 0
M  V30 1931 H 187.442 -2.91319 1.4765 0
M  V30 1932 H 186.101 -1.71462 3.24031 0
M  V30 1933 H 185.749 -4.15683 2.83225 0
M  V30 1934 H 185.449 -3.73439 4.53671 0
M  V30 1935 H 186.973 -4.54556 4.0769 0
M  V30 1936 H 188.387 -2.53846 5.14038 0
M  V30 1937 H 186.784 -1.95422 5.67389 0
M  V30 1938 H 187.854 -0.866673 4.77092 0
M  V30 1939 N 189.197 -1.51736 -0.425897 0
M  V30 1940 C 190.445 -1.64644 -1.17204 0
M  V30 1941 C 190.766 -0.370486 -1.91448 0
M  V30 1942 O 190.036 0.614088 -1.86026 0
M  V30 1943 H 188.616 -0.606819 -0.435638 0
M  V30 1944 H 191.278 -1.88713 -0.487177 0
M  V30 1945 H 190.374 -2.47958 -1.89534 0
M  V30 1946 N 190.675 0.682077 -1.42076 0
M  V30 1947 C 191.921 1.44283 -1.43366 0
M  V30 1948 C 192.276 1.92344 -0.0465775 0
M  V30 1949 O 191.569 1.67517 0.929973 0
M  V30 1950 C 191.763 2.66036 -2.38662 0
M  V30 1951 C 191.592 2.29889 -3.86499 0
M  V30 1952 C 190.362 2.19599 -4.55087 0
M  V30 1953 C 192.56 1.91999 -4.77117 0
M  V30 1954 N 190.542 1.76478 -5.87987 0
M  V30 1955 C 191.913 1.59741 -5.99068 0
M  V30 1956 C 193.968 1.78927 -4.64639 0
M  V30 1957 C 192.671 1.15723 -7.0993 0
M  V30 1958 C 194.697 1.36314 -5.75476 0
M  V30 1959 C 194.059 1.04975 -6.96534 0
M  V30 1960 H 190.158 0.524739 -0.579805 0
M  V30 1961 H 192.742 0.787834 -1.78048 0
M  V30 1962 H 190.913 3.29237 -2.06053 0
M  V30 1963 H 192.645 3.32588 -2.30581 0
M  V30 1964 H 189.4 2.38433 -4.09202 0
M  V30 1965 H 189.824 1.57362 -6.58458 0
M  V30 1966 H 194.466 2.01805 -3.7153 0
M  V30 1967 H 192.184 0.91591 -8.02893 0
M  V30 1968 H 195.77 1.26731 -5.6783 0
M  V30 1969 H 194.65 0.725017 -7.80841 0
M  V30 1970 N 192.153 1.28127 0.917671 0
M  V30 1971 C 193.116 1.11744 2.00115 0
M  V30 1972 C 194.116 0.0583052 1.60694 0
M  V30 1973 O 195.306 0.303755 1.71531 0
M  V30 1974 C 192.438 0.704862 3.33533 0
M  V30 1975 H 193.631 2.07966 2.16079 0
M  V30 1976 H 191.184 1.11058 1.09981 0
M  V30 1977 H 191.919 -0.258299 3.2327 0
M  V30 1978 H 191.704 1.4699 3.63505 0
M  V30 1979 H 193.194 0.612768 4.1308 0
M  V30 1980 N 193.631 -1.12557 1.10312 0
M  V30 1981 C 194.579 -2.20325 0.745629 0
M  V30 1982 C 195.573 -1.67429 -0.25763 0
M  V30 1983 O 196.779 -1.79612 -0.118132 0
M  V30 1984 H 193.154 -0.718118 0.223182 0
M  V30 1985 H 195.125 -2.47733 1.66346 0
M  V30 1986 C 193.874 -3.47168 0.192262 0
M  V30 1987 H 193.197 -3.88215 0.955475 0
M  V30 1988 H 194.637 -4.23995 -0.0198274 0
M  V30 1989 C 193.096 -3.19298 -1.07472 0
M  V30 1990 O 193.626 -3.3891 -2.15645 0
M  V30 1991 N 191.832 -2.73113 -0.992847 0
M  V30 1992 H 191.379 -2.57354 -0.112474 0
M  V30 1993 H 191.337 -2.54842 -1.84127 0
M  V30 1994 N 195.109 -0.891671 -1.2995 0
M  V30 1995 C 196.039 -0.379797 -2.30391 0
M  V30 1996 C 197.02 0.540919 -1.6127 0
M  V30 1997 O 198.205 0.453352 -1.88834 0
M  V30 1998 C 195.335 0.400654 -3.44981 0
M  V30 1999 C 194.289 -0.428905 -4.25846 0
M  V30 2000 C 193.615 0.478557 -5.32554 0
M  V30 2001 C 194.915 -1.67458 -4.94727 0
M  V30 2002 H 196.609 -1.21914 -2.73454 0
M  V30 2003 H 194.155 -0.587675 -1.31462 0
M  V30 2004 H 196.108 0.769434 -4.14316 0
M  V30 2005 H 194.832 1.27371 -3.0074 0
M  V30 2006 H 193.491 -0.779911 -3.58208 0
M  V30 2007 H 193.139 1.34951 -4.84559 0
M  V30 2008 H 192.839 -0.0727433 -5.87555 0
M  V30 2009 H 194.363 0.843705 -6.04743 0
M  V30 2010 H 195.777 -1.376 -5.56542 0
M  V30 2011 H 194.174 -2.16659 -5.59624 0
M  V30 2012 H 195.244 -2.41518 -4.20473 0
M  V30 2013 N 196.587 1.43421 -0.653314 0
M  V30 2014 C 197.998 1.85065 -0.246537 0
M  V30 2015 C 198.349 1.54688 1.2069 0
M  V30 2016 O 197.474 0.995896 1.92122 0
M  V30 2017 C 198.069 3.35922 -0.440666 0
M  V30 2018 C 196.628 3.76297 -0.0882064 0
M  V30 2019 C 195.775 2.67147 -0.743484 0
M  V30 2020 H 198.726 1.33572 -0.856979 0
M  V30 2021 H 198.747 3.79204 0.313798 0
M  V30 2022 H 198.259 3.58 -1.49858 0
M  V30 2023 H 196.36 3.5983 0.96711 0
M  V30 2024 H 196.473 4.76338 -0.513738 0
M  V30 2025 H 194.837 2.54086 -0.176712 0
M  V30 2026 H 195.62 2.92053 -1.80443 0
M  V30 2027 N 198.065 0.39524 1.52563 0
M  V30 2028 C 199.028 -0.425001 2.25225 0
M  V30 2029 C 200.028 -0.985266 1.27079 0
M  V30 2030 O 201.218 -0.866332 1.5113 0
M  V30 2031 C 198.35 -1.59686 3.01186 0
M  V30 2032 H 199.543 0.211233 2.99155 0
M  V30 2033 H 197.096 0.147472 1.55603 0
M  V30 2034 H 197.831 -2.27035 2.31572 0
M  V30 2035 H 197.616 -1.20176 3.73229 0
M  V30 2036 H 199.106 -2.17743 3.5634 0
M  V30 2037 N 199.544 -1.57102 0.125237 0
M  V30 2038 C 200.955 -1.82384 -0.399142 0
M  V30 2039 C 201.306 -1.04276 -1.66195 0
M  V30 2040 O 200.431 -0.281269 -2.14564 0
M  V30 2041 C 201.026 -3.30821 -0.730932 0
M  V30 2042 C 199.585 -3.56762 -1.19992 0
M  V30 2043 C 198.732 -2.7649 -0.211792 0
M  V30 2044 H 201.683 -1.54786 0.350277 0
M  V30 2045 H 201.704 -3.4579 -1.58775 0
M  V30 2046 H 201.216 -3.87643 0.188345 0
M  V30 2047 H 199.317 -3.05305 -2.13588 0
M  V30 2048 H 199.43 -4.65317 -1.14093 0
M  V30 2049 H 197.794 -2.4489 -0.700085 0
M  V30 2050 H 198.577 -3.36073 0.700691 0
M  V30 2051 N 201.022 0.148545 -1.56898 0
M  V30 2052 C 202.27 0.859717 -1.82902 0
M  V30 2053 C 202.591 1.81775 -0.70588 0
M  V30 2054 O 201.861 1.93994 0.272586 0
M  V30 2055 H 200.441 0.320469 -0.674766 0
M  V30 2056 H 203.103 0.142918 -1.94375 0
M  V30 2057 H 202.199 1.4229 -2.77777 0
M  V30 2058 N 202.5 1.5196 0.417844 0
M  V30 2059 C 203.746 1.65836 1.16732 0
M  V30 2060 C 204.079 0.382881 1.90388 0
M  V30 2061 O 203.354 -0.618368 1.84408 0
M  V30 2062 C 203.637 2.87466 2.16876 0
M  V30 2063 C 203.49 4.25041 1.47174 0
M  V30 2064 C 204.809 3.04613 3.17646 0
M  V30 2065 H 201.928 0.603515 0.423011 0
M  V30 2066 H 204.57 1.84494 0.454105 0
M  V30 2067 H 202.72 2.71689 2.777 0
M  V30 2068 H 204.392 4.52527 0.895376 0
M  V30 2069 H 202.635 4.26843 0.773806 0
M  V30 2070 H 203.306 5.06176 2.20204 0
M  V30 2071 H 205.782 3.1923 2.66892 0
M  V30 2072 H 204.658 3.91247 3.8499 0
M  V30 2073 H 204.919 2.17541 3.84874 0
M  V30 2074 N 203.978 -0.674533 1.42435 0
M  V30 2075 C 204.908 -1.80009 1.48724 0
M  V30 2076 C 205.889 -1.6659 0.343793 0
M  V30 2077 O 207.074 -1.86007 0.558137 0
M  V30 2078 C 204.204 -3.18306 1.38919 0
M  V30 2079 C 203.158 -3.46461 2.51294 0
M  V30 2080 C 202.484 -4.84335 2.26547 0
M  V30 2081 C 203.784 -3.43328 3.93603 0
M  V30 2082 H 205.478 -1.75004 2.42928 0
M  V30 2083 H 203.024 -0.840533 1.16923 0
M  V30 2084 H 204.977 -3.9678 1.41927 0
M  V30 2085 H 203.701 -3.2399 0.412094 0
M  V30 2086 H 202.36 -2.70348 2.47604 0
M  V30 2087 H 202.008 -4.86669 1.2713 0
M  V30 2088 H 201.708 -5.04136 3.01861 0
M  V30 2089 H 203.232 -5.65094 2.31304 0
M  V30 2090 H 204.646 -4.11772 3.98894 0
M  V30 2091 H 203.043 -3.74664 4.68771 0
M  V30 2092 H 204.113 -2.41897 4.20255 0
M  V30 2093 N 205.456 -1.28612 -0.910864 0
M  V30 2094 C 206.681 -1.1891 -1.69927 0
M  V30 2095 C 207.106 0.248372 -1.86453 0
M  V30 2096 O 206.464 1.17961 -1.37676 0
M  V30 2097 C 206.512 -1.89578 -3.06745 0
M  V30 2098 O 205.616 -1.20521 -3.94396 0
M  V30 2099 H 204.957 -0.412632 -0.520222 0
M  V30 2100 H 207.487 -1.69985 -1.1387 0
M  V30 2101 H 207.497 -1.97597 -3.56958 0
M  V30 2102 H 206.172 -2.94136 -2.94035 0
M  V30 2103 H 204.749 -1.20684 -3.52831 0
M  V30 2104 N 206.934 1.1197 -1.10907 0
M  V30 2105 C 208.183 1.82947 -0.849302 0
M  V30 2106 C 208.496 1.85275 0.627112 0
M  V30 2107 O 209.702 2.52296 1.00295 0
M  V30 2108 C 208.158 3.28529 -1.46959 0
M  V30 2109 C 207.766 3.34546 -2.97965 0
M  V30 2110 C 209.51 4.04443 -1.28942 0
M  V30 2111 C 207.417 4.74491 -3.53004 0
M  V30 2112 H 206.347 0.685477 -0.314065 0
M  V30 2113 H 208.998 1.2604 -1.33365 0
M  V30 2114 H 207.38 3.85333 -0.912917 0
M  V30 2115 H 208.554 2.87654 -3.59989 0
M  V30 2116 H 206.869 2.72108 -3.15192 0
M  V30 2117 H 209.466 5.07787 -1.67502 0
M  V30 2118 H 209.809 4.15656 -0.231456 0
M  V30 2119 H 210.342 3.5401 -1.81443 0
M  V30 2120 H 207.081 4.68474 -4.58489 0
M  V30 2121 H 206.601 5.21816 -2.9575 0
M  V30 2122 H 208.28 5.4344 -3.51115 0
M  V30 2123 N 208.412 0.89855 1.29475 0
M  V30 2124 C 209.66 0.522847 1.9522 0
M  V30 2125 C 209.981 -0.93371 1.71192 0
M  V30 2126 O 209.251 -1.65823 1.04305 0
M  V30 2127 H 207.831 0.190366 0.722336 0
M  V30 2128 H 210.493 1.14459 1.5775 0
M  V30 2129 H 209.589 0.704476 3.04045 0
M  V30 2130 N 209.89 -1.43072 0.660911 0
M  V30 2131 C 211.138 -2.01323 0.177094 0
M  V30 2132 C 211.459 -1.5245 -1.2159 0
M  V30 2133 O 210.729 -0.740322 -1.81373 0
M  V30 2134 H 209.309 -0.744382 0.0624804 0
M  V30 2135 H 211.971 -1.75179 0.854305 0
M  V30 2136 H 211.067 -3.11649 0.167641 0
M  V30 2137 N 211.368 -0.403325 -1.52352 0
M  V30 2138 C 212.331 0.413051 -2.25447 0
M  V30 2139 C 213.331 0.978513 -1.276 0
M  V30 2140 O 214.521 0.858305 -1.51587 0
M  V30 2141 C 211.653 1.58087 -3.02029 0
M  V30 2142 H 212.846 -0.227094 -2.99039 0
M  V30 2143 H 210.399 -0.155722 -1.55522 0
M  V30 2144 H 211.134 2.25804 -2.32772 0
M  V30 2145 H 210.919 1.18195 -3.73861 0
M  V30 2146 H 212.409 2.1585 -3.57489 0
M  V30 2147 N 212.846 1.57033 -0.133567 0
M  V30 2148 C 213.776 2.1909 0.807567 0
M  V30 2149 C 214.757 1.13517 1.26681 0
M  V30 2150 O 215.942 1.41809 1.32679 0
M  V30 2151 C 213.072 2.80188 2.05212 0
M  V30 2152 C 212.026 3.91471 1.73015 0
M  V30 2153 C 211.352 4.39443 3.04622 0
M  V30 2154 C 212.652 5.12886 0.987168 0
M  V30 2155 H 214.346 2.97988 0.290403 0
M  V30 2156 H 211.892 1.43335 0.138239 0
M  V30 2157 H 213.845 3.22264 2.71521 0
M  V30 2158 H 212.569 1.98601 2.59278 0
M  V30 2159 H 211.228 3.49993 1.0909 0
M  V30 2160 H 210.876 3.54695 3.56651 0
M  V30 2161 H 210.576 5.14495 2.83847 0
M  V30 2162 H 212.1 4.8418 3.72024 0
M  V30 2163 H 213.514 5.51891 1.55208 0
M  V30 2164 H 211.911 5.93615 0.87985 0
M  V30 2165 H 212.981 4.84894 -0.0235286 0
M  V30 2166 N 214.325 -0.140222 1.56975 0
M  V30 2167 C 215.288 -1.15689 1.97861 0
M  V30 2168 C 216.288 -1.3549 0.865974 0
M  V30 2169 O 217.478 -1.32367 1.13246 0
M  V30 2170 C 214.61 -2.51582 2.30042 0
M  V30 2171 H 215.803 -0.805971 2.88867 0
M  V30 2172 H 213.356 -0.383801 1.51515 0
M  V30 2173 H 214.091 -2.91632 1.41849 0
M  V30 2174 H 213.876 -2.38569 3.11171 0
M  V30 2175 H 215.366 -3.24792 2.62488 0
M  V30 2176 N 215.803 -1.52179 -0.40978 0
M  V30 2177 C 217.049 -1.66453 -1.15851 0
M  V30 2178 C 217.382 -0.392972 -1.90182 0
M  V30 2179 O 216.657 0.608579 -1.84734 0
M  V30 2180 C 216.94 -2.88612 -2.15349 0
M  V30 2181 C 216.793 -4.25815 -1.44918 0
M  V30 2182 C 218.112 -3.06294 -3.16026 0
M  V30 2183 H 215.231 -0.60575 -0.419805 0
M  V30 2184 H 217.873 -1.84732 -0.444314 0
M  V30 2185 H 216.023 -2.73158 -2.76255 0
M  V30 2186 H 217.695 -4.52995 -0.871365 0
M  V30 2187 H 215.938 -4.27247 -0.751159 0
M  V30 2188 H 216.609 -5.07337 -2.17516 0
M  V30 2189 H 219.085 -3.20641 -2.65195 0
M  V30 2190 H 217.961 -3.93283 -3.8291 0
M  V30 2191 H 218.222 -2.19579 -3.83715 0
M  V30 2192 N 217.281 0.66697 -1.42791 0
M  V30 2193 C 218.229 1.80157 -1.47127 0
M  V30 2194 C 219.223 1.65825 -0.346199 0
M  V30 2195 O 220.429 1.72338 -0.519572 0
M  V30 2196 H 216.804 0.594158 -0.460956 0
M  V30 2197 H 218.775 1.73619 -2.42692 0
M  V30 2198 C 217.524 3.18351 -1.39813 0
M  V30 2199 H 216.847 3.3001 -2.25684 0
M  V30 2200 H 218.287 3.97736 -1.46908 0
M  V30 2201 C 216.746 3.36707 -0.11391 0
M  V30 2202 O 217.276 3.93027 0.830241 0
M  V30 2203 N 215.482 2.90586 -0.0285295 0
M  V30 2204 H 215.029 2.4494 -0.79764 0
M  V30 2205 H 214.987 3.03245 0.830063 0
M  V30 2206 N 218.759 1.29093 0.90403 0
M  V30 2207 C 219.722 1.1386 1.98919 0
M  V30 2208 C 220.722 0.0753457 1.60623 0
M  V30 2209 O 221.912 0.321931 1.71199 0
M  V30 2210 C 219.044 0.740198 3.32767 0
M  V30 2211 H 220.237 2.10246 2.13861 0
M  V30 2212 H 217.79 1.12218 1.08797 0
M  V30 2213 H 218.525 -0.223997 3.23525 0
M  V30 2214 H 218.31 1.50838 3.61926 0
M  V30 2215 H 219.8 0.656546 4.12407 0
M  V30 2216 N 220.237 -1.11381 1.11499 0
M  V30 2217 C 221.187 -2.15555 0.74298 0
M  V30 2218 C 222.171 -1.58894 -0.253276 0
M  V30 2219 O 223.363 -1.76897 -0.0602918 0
M  V30 2220 C 220.492 -3.42782 0.188481 0
M  V30 2221 C 219.578 -4.064 1.21244 0
M  V30 2222 N 219.969 -4.44864 2.40685 0
M  V30 2223 C 218.267 -4.3333 1.05552 0
M  V30 2224 C 218.968 -4.94715 3.05994 0
M  V30 2225 N 217.944 -4.90909 2.33472 0
M  V30 2226 H 221.746 -2.43074 1.65203 0
M  V30 2227 H 219.26 -1.28401 0.994329 0
M  V30 2228 H 221.257 -4.16789 -0.0961693 0
M  V30 2229 H 219.917 -3.16727 -0.715149 0
M  V30 2230 H 220.928 -4.36876 2.78136 0
M  V30 2231 H 217.605 -4.1698 0.208372 0
M  V30 2232 H 218.995 -5.34103 4.07656 0
M  V30 2233 N 221.715 -0.905404 -1.28997 0
M  V30 2234 C 222.963 -0.533192 -1.9494 0
M  V30 2235 C 223.284 0.924618 -1.71685 0
M  V30 2236 O 222.554 1.65268 -1.05183 0
M  V30 2237 H 221.134 -0.194194 -0.721317 0
M  V30 2238 H 223.796 -1.15294 -1.57141 0
M  V30 2239 H 222.892 -0.72059 -3.03667 0
M  V30 2240 N 223.193 1.4272 -0.668489 0
M  V30 2241 C 224.156 2.292 0.00448567 0
M  V30 2242 C 225.156 1.43001 0.735339 0
M  V30 2243 O 226.346 1.64461 0.57429 0
M  V30 2244 C 223.478 3.25375 1.01705 0
M  V30 2245 H 224.671 2.90199 -0.756608 0
M  V30 2246 H 222.224 1.50254 -0.430506 0
M  V30 2247 H 222.959 2.69301 1.80686 0
M  V30 2248 H 222.744 3.88944 0.496463 0
M  V30 2249 H 224.234 3.90245 1.48655 0
M  V30 2250 N 224.671 0.411399 1.52136 0
M  V30 2251 C 225.634 -0.401089 2.25663 0
M  V30 2252 C 226.634 -0.971732 1.28117 0
M  V30 2253 O 227.824 -0.850254 1.52041 0
M  V30 2254 C 224.956 -1.56483 3.02863 0
M  V30 2255 H 226.149 0.24295 2.98914 0
M  V30 2256 H 223.702 0.163968 1.55438 0
M  V30 2257 H 224.437 -2.24567 2.33967 0
M  V30 2258 H 224.222 -1.16211 3.74483 0
M  V30 2259 H 225.712 -2.13951 3.58629 0
M  V30 2260 N 226.149 -1.5696 0.141893 0
M  V30 2261 C 227.079 -2.19516 -0.795936 0
M  V30 2262 C 228.06 -1.14187 -1.26077 0
M  V30 2263 O 229.245 -1.42511 -1.31925 0
M  V30 2264 C 226.375 -2.81272 -2.03723 0
M  V30 2265 C 225.329 -3.92384 -1.70936 0
M  V30 2266 C 224.655 -4.41052 -3.02287 0
M  V30 2267 C 225.955 -5.13403 -0.959954 0
M  V30 2268 H 227.649 -2.98138 -0.274596 0
M  V30 2269 H 225.195 -1.43406 -0.130636 0
M  V30 2270 H 227.148 -3.237 -2.69808 0
M  V30 2271 H 225.872 -1.99973 -2.58221 0
M  V30 2272 H 224.531 -3.50566 -1.07232 0
M  V30 2273 H 224.179 -3.56582 -3.54765 0
M  V30 2274 H 223.879 -5.15993 -2.81114 0
M  V30 2275 H 225.403 -4.86146 -3.69451 0
M  V30 2276 H 226.817 -5.52706 -1.52279 0
M  V30 2277 H 225.214 -5.94073 -0.848357 0
M  V30 2278 H 226.284 -4.84875 0.0492434 0
M  V30 2279 N 227.627 0.131896 -1.57047 0
M  V30 2280 C 229.038 0.690407 -1.73465 0
M  V30 2281 C 229.389 1.8094 -0.758629 0
M  V30 2282 O 228.514 2.16282 0.0713813 0
M  V30 2283 C 229.109 1.25916 -3.14532 0
M  V30 2284 C 227.668 1.76409 -3.32501 0
M  V30 2285 C 226.815 0.658579 -2.69366 0
M  V30 2286 H 229.766 -0.0939144 -1.58422 0
M  V30 2287 H 229.787 2.12892 -3.15369 0
M  V30 2288 H 229.299 0.444515 -3.85546 0
M  V30 2289 H 227.4 2.60391 -2.66509 0
M  V30 2290 H 227.513 1.88241 -4.4057 0
M  V30 2291 H 225.877 1.08899 -2.30246 0
M  V30 2292 H 226.66 -0.14487 -3.42994 0
M  V30 2293 N 229.106 1.52395 0.401703 0
M  V30 2294 C 230.069 1.75636 1.47257 0
M  V30 2295 C 231.069 0.62628 1.48103 0
M  V30 2296 O 232.259 0.894227 1.49497 0
M  V30 2297 C 229.391 1.84553 2.86624 0
M  V30 2298 H 230.584 2.71241 1.27938 0
M  V30 2299 H 228.137 1.42923 0.632662 0
M  V30 2300 H 228.872 0.908882 3.11303 0
M  V30 2301 H 228.657 2.66715 2.87412 0
M  V30 2302 H 230.147 2.04251 3.64241 0
M  V30 2303 N 230.584 -0.659388 1.43143 0
M  V30 2304 C 231.83 -1.42145 1.44647 0
M  V30 2305 C 232.163 -1.9408 0.0681907 0
M  V30 2306 O 231.438 -1.71899 -0.910007 0
M  V30 2307 C 231.721 -2.60735 2.48373 0
M  V30 2308 C 231.574 -2.14332 3.95451 0
M  V30 2309 C 232.893 -3.62951 2.48906 0
M  V30 2310 H 230.012 -0.51552 0.526696 0
M  V30 2311 H 232.654 -0.748069 1.74654 0
M  V30 2312 H 230.804 -3.18184 2.22916 0
M  V30 2313 H 232.476 -1.61932 4.31944 0
M  V30 2314 H 230.719 -1.4576 4.08578 0
M  V30 2315 H 231.39 -2.99583 4.63631 0
M  V30 2316 H 233.866 -3.1525 2.71582 0
M  V30 2317 H 232.742 -4.43487 3.23435 0
M  V30 2318 H 233.003 -4.15126 1.52061 0
M  V30 2319 N 232.062 -1.29571 -0.897171 0
M  V30 2320 C 233.31 -1.17456 -1.64464 0
M  V30 2321 C 233.631 0.273698 -1.9307 0
M  V30 2322 O 232.901 1.18684 -1.55855 0
M  V30 2323 H 231.481 -0.431706 -0.609622 0
M  V30 2324 H 234.143 -1.62531 -1.07562 0
M  V30 2325 H 233.239 -1.72648 -2.59998 0
M  V30 2326 N 233.54 1.10788 -1.12088 0
M  V30 2327 C 234.472 2.16816 -0.743213 0
M  V30 2328 C 235.485 1.6119 0.228412 0
M  V30 2329 O 236.674 1.78497 0.0102931 0
M  V30 2330 C 233.774 3.38809 -0.0787313 0
M  V30 2331 C 232.947 4.23885 -1.0789 0
M  V30 2332 C 232.006 5.24334 -0.442713 0
M  V30 2333 O 231.032 5.58497 -1.09864 0
M  V30 2334 N 232.234 5.75079 0.791457 0
M  V30 2335 H 234.999 2.49825 -1.65552 0
M  V30 2336 H 232.56 1.26373 -1.012 0
M  V30 2337 H 234.552 4.03107 0.358766 0
M  V30 2338 H 233.122 3.03805 0.736275 0
M  V30 2339 H 232.342 3.55939 -1.69414 0
M  V30 2340 H 233.63 4.77562 -1.75533 0
M  V30 2341 H 233.028 5.49517 1.3434 0
M  V30 2342 H 231.585 6.4118 1.17183 0
M  V30 2343 N 235.018 0.912232 1.28515 0
M  V30 2344 C 236.246 0.560416 1.99166 0
M  V30 2345 C 236.661 -0.857927 1.68182 0
M  V30 2346 O 236.018 -1.56805 0.933733 0
M  V30 2347 C 236.069 0.758142 3.53461 0
M  V30 2348 O 235.79 2.12067 3.83352 0
M  V30 2349 C 237.291 0.412954 4.41372 0
M  V30 2350 H 234.511 0.213805 0.636026 0
M  V30 2351 H 237.055 1.22502 1.63749 0
M  V30 2352 H 235.21 0.140556 3.87145 0
M  V30 2353 H 235.624 2.15923 4.77993 0
M  V30 2354 H 237.098 0.60208 5.48707 0
M  V30 2355 H 237.575 -0.65073 4.34353 0
M  V30 2356 H 238.181 1.00802 4.13182 0
M  V30 2357 N 236.496 -1.42363 0.676048 0
M  V30 2358 C 237.724 -2.05859 0.207268 0
M  V30 2359 C 238.139 -1.50796 -1.13605 0
M  V30 2360 O 237.496 -0.648265 -1.70598 0
M  V30 2361 C 237.547 -3.61248 0.134975 0
M  V30 2362 O 237.268 -4.1427 1.42521 0
M  V30 2363 C 238.769 -4.41859 -0.357151 0
M  V30 2364 H 235.989 -0.663431 0.100503 0
M  V30 2365 H 238.533 -1.82479 0.923136 0
M  V30 2366 H 236.688 -3.83735 -0.531588 0
M  V30 2367 H 237.102 -5.0815 1.29939 0
M  V30 2368 H 238.576 -5.50847 -0.356641 0
M  V30 2369 H 239.053 -4.16536 -1.39264 0
M  V30 2370 H 239.659 -4.24392 0.27772 0
M  V30 2371 N 237.974 -0.419461 -1.51915 0
M  V30 2372 C 238.904 0.391813 -2.30189 0
M  V30 2373 C 239.885 1.03699 -1.34836 0
M  V30 2374 O 241.07 1.04403 -1.63748 0
M  V30 2375 C 238.2 1.50312 -3.13087 0
M  V30 2376 C 237.154 0.9824 -4.16573 0
M  V30 2377 C 236.48 2.18809 -4.8788 0
M  V30 2378 C 237.78 0.0292356 -5.22292 0
M  V30 2379 H 239.474 -0.26135 -2.98257 0
M  V30 2380 H 237.02 -0.127134 -1.43438 0
M  V30 2381 H 238.973 2.07773 -3.66617 0
M  V30 2382 H 237.697 2.18431 -2.42807 0
M  V30 2383 H 236.356 0.430119 -3.64068 0
M  V30 2384 H 236.004 2.85507 -4.14119 0
M  V30 2385 H 235.704 1.84615 -5.57845 0
M  V30 2386 H 237.228 2.76858 -5.44226 0
M  V30 2387 H 238.642 0.512976 -5.71 0
M  V30 2388 H 237.039 -0.2244 -5.9968 0
M  V30 2389 H 238.109 -0.912931 -4.76228 0
M  V30 2390 N 239.452 1.56882 -0.150215 0
M  V30 2391 C 240.863 1.82995 0.370076 0
M  V30 2392 C 241.214 1.06907 1.64515 0
M  V30 2393 O 240.339 0.315369 2.1409 0
M  V30 2394 C 240.934 3.31942 0.678208 0
M  V30 2395 C 239.493 3.58625 1.14301 0
M  V30 2396 C 238.64 2.76792 0.167778 0
M  V30 2397 H 241.591 1.54209 -0.374858 0
M  V30 2398 H 241.612 3.48272 1.53254 0
M  V30 2399 H 241.124 3.87294 -0.249991 0
M  V30 2400 H 239.225 3.08664 2.08704 0
M  V30 2401 H 239.338 4.67073 1.06676 0
M  V30 2402 H 237.702 2.45972 0.661037 0
M  V30 2403 H 238.485 3.34916 -0.754069 0
M  V30 2404 N 240.93 -0.123565 1.57115 0
M  V30 2405 C 242.178 -0.83051 1.84247 0
M  V30 2406 C 242.499 -1.80629 0.73471 0
M  V30 2407 O 241.769 -1.94403 -0.241688 0
M  V30 2408 H 240.349 -0.309694 0.679778 0
M  V30 2409 H 243.011 -0.111976 1.94578 0
M  V30 2410 H 242.107 -1.37852 2.80006 0
M  V30 2411 N 242.408 -1.52605 -0.393616 0
M  V30 2412 C 243.358 -1.73436 -1.48 0
M  V30 2413 C 244.342 -0.588386 -1.49756 0
M  V30 2414 O 245.534 -0.846047 -1.5547 0
M  V30 2415 C 242.663 -1.90247 -2.85764 0
M  V30 2416 C 241.749 -3.10763 -2.88595 0
M  V30 2417 N 242.14 -4.33196 -2.61103 0
M  V30 2418 C 240.438 -3.10914 -3.19763 0
M  V30 2419 C 241.139 -5.1477 -2.70899 0
M  V30 2420 N 240.115 -4.50356 -3.04435 0
M  V30 2421 H 243.917 -2.65727 -1.25563 0
M  V30 2422 H 241.431 -1.5085 -0.601513 0
M  V30 2423 H 243.428 -2.03291 -3.63976 0
M  V30 2424 H 242.088 -0.991663 -3.09186 0
M  V30 2425 H 243.099 -4.61408 -2.35209 0
M  V30 2426 H 239.776 -2.29626 -3.4868 0
M  V30 2427 H 241.166 -6.22355 -2.53227 0
M  V30 2428 N 243.887 0.651787 -1.4349 0
M  V30 2429 C 245.115 1.43937 -1.48626 0
M  V30 2430 C 245.53 1.8851 -0.104587 0
M  V30 2431 O 244.887 1.5958 0.885464 0
M  V30 2432 C 244.938 2.6734 -2.43334 0
M  V30 2433 O 244.659 2.24631 -3.76128 0
M  V30 2434 C 246.16 3.60683 -2.57726 0
M  V30 2435 H 243.38 0.44213 -0.504739 0
M  V30 2436 H 245.924 0.798944 -1.88248 0
M  V30 2437 H 244.079 3.2752 -2.06904 0
M  V30 2438 H 244.493 3.04485 -4.2707 0
M  V30 2439 H 245.967 4.43933 -3.28067 0
M  V30 2440 H 246.444 4.08126 -1.62265 0
M  V30 2441 H 247.05 3.06384 -2.94973 0
M  V30 2442 N 245.365 1.30045 0.890287 0
M  V30 2443 C 246.595 1.21296 1.67245 0
M  V30 2444 C 247.003 -0.227471 1.87828 0
M  V30 2445 O 246.346 -1.16296 1.422 0
M  V30 2446 C 246.408 1.86519 3.07329 0
M  V30 2447 C 246.072 3.35837 3.09939 0
M  V30 2448 C 247.069 4.31915 2.89389 0
M  V30 2449 C 244.754 3.77196 3.31706 0
M  V30 2450 C 246.748 5.67325 2.90552 0
M  V30 2451 C 244.435 5.12725 3.32499 0
M  V30 2452 C 245.433 6.076 3.11947 0
M  V30 2453 O 245.121 7.40655 3.12547 0
M  V30 2454 H 244.853 0.4211 0.528821 0
M  V30 2455 H 247.407 1.72111 1.12103 0
M  V30 2456 H 245.637 1.30228 3.64112 0
M  V30 2457 H 247.326 1.71963 3.67673 0
M  V30 2458 H 248.092 4.01294 2.72375 0
M  V30 2459 H 243.971 3.03796 3.4674 0
M  V30 2460 H 247.515 6.41354 2.74429 0
M  V30 2461 H 243.412 5.42988 3.49047 0
M  V30 2462 H 244.18 7.49577 3.28749 0
M  V30 2463 N 246.843 -1.10192 1.12674 0
M  V30 2464 C 248.091 -1.81845 0.881861 0
M  V30 2465 C 248.412 -1.85737 -0.593867 0
M  V30 2466 O 247.682 -1.33724 -1.4316 0
M  V30 2467 H 246.262 -0.673432 0.323261 0
M  V30 2468 H 248.924 -1.33316 1.42172 0
M  V30 2469 H 248.02 -2.85288 1.2656 0
M  V30 2470 N 248.321 -0.919034 -1.28029 0
M  V30 2471 C 249.546 -0.570357 -1.99403 0
M  V30 2472 C 249.971 0.842486 -1.68178 0
M  V30 2473 O 249.329 1.56391 -0.917141 0
M  V30 2474 C 249.377 -0.792541 -3.51783 0
M  V30 2475 O 248.481 0.145988 -4.12142 0
M  V30 2476 H 247.822 -0.220555 -0.6263 0
M  V30 2477 H 250.352 -1.23592 -1.63053 0
M  V30 2478 H 250.362 -0.704708 -4.01868 0
M  V30 2479 H 249.037 -1.82247 -3.73844 0
M  V30 2480 H 247.614 0.00897528 -3.72899 0
M  V30 2481 N 249.799 1.42003 -0.683588 0
M  V30 2482 C 250.729 2.33487 -0.024866 0
M  V30 2483 C 251.71 1.51163 0.779975 0
M  V30 2484 O 252.895 1.79739 0.735362 0
M  V30 2485 C 250.025 3.3487 0.920836 0
M  V30 2486 C 248.979 4.27414 0.223958 0
M  V30 2487 C 248.305 5.19074 1.2832 0
M  V30 2488 C 249.605 5.14445 -0.90242 0
M  V30 2489 H 251.299 2.88819 -0.788921 0
M  V30 2490 H 248.845 1.38873 -0.38083 0
M  V30 2491 H 250.798 3.97787 1.39081 0
M  V30 2492 H 249.522 2.77861 1.71642 0
M  V30 2493 H 248.181 3.65904 -0.225864 0
M  V30 2494 H 247.829 4.58387 2.071 0
M  V30 2495 H 247.529 5.81822 0.821995 0
M  V30 2496 H 249.053 5.84867 1.75392 0
M  V30 2497 H 250.467 5.70998 -0.513272 0
M  V30 2498 H 248.864 5.86072 -1.28997 0
M  V30 2499 H 249.934 4.52322 -1.74737 0
M  V30 2500 N 251.277 0.427512 1.51691 0
M  V30 2501 C 252.502 -0.143601 2.06902 0
M  V30 2502 C 252.927 -1.36536 1.29382 0
M  V30 2503 O 252.285 -1.78289 0.329043 0
M  V30 2504 C 252.333 -0.454207 3.57728 0
M  V30 2505 O 251.437 -1.54228 3.82475 0
M  V30 2506 H 250.778 -0.00617128 0.663971 0
M  V30 2507 H 253.308 0.606014 1.95419 0
M  V30 2508 H 253.318 -0.707525 4.01818 0
M  V30 2509 H 251.993 0.438812 4.13579 0
M  V30 2510 H 250.57 -1.2797 3.50254 0
M  V30 2511 N 252.755 -1.56801 0.158532 0
M  V30 2512 C 253.703 -2.18638 -0.793729 0
M  V30 2513 C 254.697 -1.14669 -1.24689 0
M  V30 2514 O 255.903 -1.32895 -1.21403 0
M  V30 2515 H 252.278 -0.700226 -0.274204 0
M  V30 2516 H 254.249 -2.97367 -0.248095 0
M  V30 2517 C 252.998 -2.83139 -2.0181 0
M  V30 2518 H 252.321 -3.62863 -1.67841 0
M  V30 2519 H 253.761 -3.29894 -2.66357 0
M  V30 2520 C 252.22 -1.82244 -2.83353 0
M  V30 2521 O 252.75 -1.3 -3.80083 0
M  V30 2522 N 250.956 -1.51288 -2.48114 0
M  V30 2523 H 250.503 -1.93964 -1.69516 0
M  V30 2524 H 250.461 -0.840296 -3.02963 0
M  V30 2525 N 254.233 0.115231 -1.57178 0
M  V30 2526 C 255.163 1.1423 -2.03651 0
M  V30 2527 C 256.144 1.42967 -0.921655 0
M  V30 2528 O 257.329 1.53343 -1.19162 0
M  V30 2529 C 254.459 2.4675 -2.44401 0
M  V30 2530 C 253.413 2.32467 -3.59365 0
M  V30 2531 C 252.739 3.69984 -3.86026 0
M  V30 2532 C 254.039 1.78203 -4.90959 0
M  V30 2533 H 255.733 0.755749 -2.89705 0
M  V30 2534 H 253.279 0.362093 -1.39373 0
M  V30 2535 H 255.232 3.18854 -2.75517 0
M  V30 2536 H 253.956 2.87302 -1.55322 0
M  V30 2537 H 252.615 1.62811 -3.28463 0
M  V30 2538 H 252.263 4.08028 -2.94147 0
M  V30 2539 H 251.963 3.61279 -4.63412 0
M  V30 2540 H 253.487 4.43587 -4.19599 0
M  V30 2541 H 254.901 2.40128 -5.20587 0
M  V30 2542 H 253.298 1.8031 -5.72371 0
M  V30 2543 H 254.368 0.739876 -4.79222 0
M  V30 2544 N 255.711 1.52812 0.385517 0
M  V30 2545 C 256.957 1.68275 1.13188 0
M  V30 2546 C 257.29 0.423179 1.89533 0
M  V30 2547 O 256.565 -0.579113 1.85679 0
M  V30 2548 C 256.848 2.92001 2.1073 0
M  V30 2549 C 256.701 4.28067 1.38125 0
M  V30 2550 C 258.02 3.11283 3.11113 0
M  V30 2551 H 255.139 0.612352 0.410115 0
M  V30 2552 H 257.781 1.85415 0.414869 0
M  V30 2553 H 255.931 2.77519 2.71874 0
M  V30 2554 H 257.603 4.54324 0.799187 0
M  V30 2555 H 255.846 4.28388 0.683092 0
M  V30 2556 H 256.517 5.10733 2.09417 0
M  V30 2557 H 258.993 3.2482 2.6006 0
M  V30 2558 H 257.869 3.99325 3.76605 0
M  V30 2559 H 258.13 2.25656 3.80173 0
M  V30 2560 N 257.189 -0.644168 1.43834 0
M  V30 2561 C 258.417 -1.43147 1.49387 0
M  V30 2562 C 258.832 -1.88452 0.114583 0
M  V30 2563 O 258.189 -1.60047 -0.876989 0
M  V30 2564 C 258.24 -2.66046 2.44748 0
M  V30 2565 O 257.961 -2.22633 3.77314 0
M  V30 2566 C 259.462 -3.59311 2.59635 0
M  V30 2567 H 256.682 -0.439447 0.507077 0
M  V30 2568 H 259.226 -0.78895 1.88669 0
M  V30 2569 H 257.381 -3.26418 2.08638 0
M  V30 2570 H 257.795 -3.02216 4.28679 0
M  V30 2571 H 259.269 -4.42187 3.30416 0
M  V30 2572 H 259.746 -4.07259 1.64427 0
M  V30 2573 H 260.352 -3.04816 2.96593 0
M  V30 2574 N 258.668 -1.30515 -0.883378 0
M  V30 2575 C 259.578 -1.18959 -2.02203 0
M  V30 2576 C 260.594 -0.109172 -1.73657 0
M  V30 2577 O 261.77 -0.324413 -1.9877 0
M  V30 2578 C 258.835 -0.883871 -3.35244 0
M  V30 2579 C 257.896 -2.04982 -3.77201 0
M  V30 2580 C 257.129 -1.75859 -5.03894 0
M  V30 2581 O 257.352 -0.687276 -5.66244 0
M  V30 2582 O 256.286 -2.61146 -5.42297 0
M  V30 2583 H 260.112 -2.14616 -2.1488 0
M  V30 2584 H 257.697 -1.10124 -1.0096 0
M  V30 2585 H 259.579 -0.728644 -4.15053 0
M  V30 2586 H 258.254 0.0427798 -3.23672 0
M  V30 2587 H 257.161 -2.26038 -2.9809 0
M  V30 2588 H 258.494 -2.95825 -3.93381 0
M  V30 2589 N 260.146 1.09593 -1.13257 0
M  V30 2590 C 261.076 2.18214 -0.830946 0
M  V30 2591 C 262.057 1.68812 0.208966 0
M  V30 2592 O 263.242 1.9408 0.0682666 0
M  V30 2593 C 260.372 3.46051 -0.294296 0
M  V30 2594 C 259.326 4.08778 -1.26826 0
M  V30 2595 C 258.652 5.31419 -0.591449 0
M  V30 2596 C 259.952 4.51476 -2.62615 0
M  V30 2597 H 261.646 2.43703 -1.73923 0
M  V30 2598 H 259.192 1.17128 -0.837675 0
M  V30 2599 H 261.145 4.2134 -0.0709606 0
M  V30 2600 H 259.869 3.20079 0.649366 0
M  V30 2601 H 258.528 3.35505 -1.47756 0
M  V30 2602 H 258.176 5.01727 0.357633 0
M  V30 2603 H 257.876 5.74341 -1.24123 0
M  V30 2604 H 259.4 6.09433 -0.377355 0
M  V30 2605 H 260.814 5.17999 -2.45663 0
M  V30 2606 H 259.211 5.05277 -3.23752 0
M  V30 2607 H 260.281 3.63962 -3.20406 0
M  V30 2608 N 261.624 0.925811 1.2754 0
M  V30 2609 C 262.852 0.581509 1.9856 0
M  V30 2610 C 263.267 -0.840041 1.69082 0
M  V30 2611 O 262.624 -1.55805 0.950312 0
M  V30 2612 C 262.675 0.795589 3.52637 0
M  V30 2613 O 262.396 2.16121 3.81082 0
M  V30 2614 C 263.897 0.459744 4.4091 0
M  V30 2615 H 261.117 0.220538 0.633722 0
M  V30 2616 H 263.661 1.24232 1.6244 0
M  V30 2617 H 261.816 0.18161 3.86974 0
M  V30 2618 H 262.23 2.2098 4.75676 0
M  V30 2619 H 263.704 0.660244 5.48037 0
M  V30 2620 H 264.181 -0.604625 4.35018 0
M  V30 2621 H 264.787 1.05178 4.12089 0
M  V30 2622 N 263.102 -1.41638 0.69111 0
M  V30 2623 C 264.065 -2.29178 0.0319786 0
M  V30 2624 C 265.065 -1.44153 -0.712496 0
M  V30 2625 O 266.255 -1.65354 -0.548053 0
M  V30 2626 C 263.387 -3.26952 -0.965161 0
M  V30 2627 H 264.58 -2.88959 0.802681 0
M  V30 2628 H 262.133 -1.4955 0.454356 0
M  V30 2629 H 262.868 -2.72142 -1.76378 0
M  V30 2630 H 262.653 -3.89685 -0.434522 0
M  V30 2631 H 264.143 -3.92561 -1.42428 0
M  V30 2632 N 264.58 -0.43555 -1.51462 0
M  V30 2633 C 265.826 0.131709 -2.02372 0
M  V30 2634 C 266.159 1.42516 -1.3192 0
M  V30 2635 O 265.434 1.89606 -0.433573 0
M  V30 2636 C 265.717 0.352301 -3.58373 0
M  V30 2637 C 265.57 -0.959676 -4.39443 0
M  V30 2638 C 266.889 1.12286 -4.25535 0
M  V30 2639 H 264.008 0.0463936 -0.735538 0
M  V30 2640 H 266.65 -0.574197 -1.81116 0
M  V30 2641 H 264.8 0.9536 -3.76615 0
M  V30 2642 H 266.472 -1.59482 -4.32855 0
M  V30 2643 H 264.715 -1.56468 -4.04599 0
M  V30 2644 H 265.386 -0.759394 -5.46752 0
M  V30 2645 H 267.862 0.613545 -4.11552 0
M  V30 2646 H 266.738 1.24598 -5.34571 0
M  V30 2647 H 266.999 2.15048 -3.86273 0
M  V30 2648 N 266.058 1.56714 -0.166846 0
M  V30 2649 C 267.304 1.97039 0.479962 0
M  V30 2650 C 267.637 1.05264 1.63197 0
M  V30 2651 O 266.912 0.0988833 1.94248 0
M  V30 2652 C 267.195 3.46867 0.967212 0
M  V30 2653 C 267.048 4.49421 -0.18466 0
M  V30 2654 C 268.367 3.9968 1.84238 0
M  V30 2655 H 265.486 0.71641 0.172992 0
M  V30 2656 H 268.128 1.8832 -0.252079 0
M  V30 2657 H 266.278 3.54428 1.59101 0
M  V30 2658 H 267.95 4.53924 -0.821621 0
M  V30 2659 H 266.193 4.25573 -0.840837 0
M  V30 2660 H 266.864 5.51644 0.198317 0
M  V30 2661 H 269.34 3.94723 1.31655 0
M  V30 2662 H 268.216 5.04941 2.15234 0
M  V30 2663 H 268.477 3.43226 2.78654 0
M  V30 2664 N 267.536 -0.106894 1.57237 0
M  V30 2665 C 268.782 -0.808678 1.86633 0
M  V30 2666 C 269.137 -1.76917 0.756178 0
M  V30 2667 O 268.43 -1.90055 -0.242834 0
M  V30 2668 C 268.624 -1.58628 3.20268 0
M  V30 2669 C 268.453 -0.702592 4.44178 0
M  V30 2670 C 267.223 -0.352808 5.04067 0
M  V30 2671 C 269.421 -0.0148031 5.14298 0
M  V30 2672 N 267.403 0.540279 6.11518 0
M  V30 2673 C 268.774 0.736809 6.15606 0
M  V30 2674 C 270.829 0.0603524 4.97863 0
M  V30 2675 C 269.532 1.55654 7.02257 0
M  V30 2676 C 271.558 0.866942 5.85011 0
M  V30 2677 C 270.92 1.60671 6.85831 0
M  V30 2678 H 267.019 -0.27246 0.733001 0
M  V30 2679 H 269.603 -0.0717858 1.94568 0
M  V30 2680 H 267.774 -2.29413 3.13408 0
M  V30 2681 H 269.506 -2.23434 3.3743 0
M  V30 2682 H 266.261 -0.697802 4.68431 0
M  V30 2683 H 266.685 0.979029 6.69884 0
M  V30 2684 H 271.327 -0.497236 4.19866 0
M  V30 2685 H 269.045 2.12524 7.79653 0
M  V30 2686 H 272.631 0.927612 5.74358 0
M  V30 2687 H 271.511 2.2208 7.52097 0
M  V30 2688 N 269.014 -1.53014 -0.377408 0
M  V30 2689 C 269.962 -1.7927 -1.48206 0
M  V30 2690 C 270.956 -0.661195 -1.55963 0
M  V30 2691 O 272.162 -0.843908 -1.58991 0
M  V30 2692 H 268.537 -0.567425 -0.493491 0
M  V30 2693 H 270.508 -2.71753 -1.2326 0
M  V30 2694 C 269.257 -1.98894 -2.85196 0
M  V30 2695 H 268.58 -2.85395 -2.79981 0
M  V30 2696 H 270.02 -2.21249 -3.61698 0
M  V30 2697 C 268.479 -0.764691 -3.28107 0
M  V30 2698 O 269.009 0.0523226 -4.01666 0
M  V30 2699 N 267.215 -0.591493 -2.84517 0
M  V30 2700 H 266.762 -1.25749 -2.24822 0
M  V30 2701 H 266.72 0.226253 -3.13585 0
M  V30 2702 N 270.492 0.636531 -1.44174 0
M  V30 2703 C 271.74 1.39343 -1.46383 0
M  V30 2704 C 272.061 1.94766 -0.0955715 0
M  V30 2705 O 271.331 1.75452 0.871395 0
M  V30 2706 H 269.911 0.517199 -0.538994 0
M  V30 2707 H 272.573 0.74957 -1.7991 0
M  V30 2708 H 271.669 2.22746 -2.18611 0
M  V30 2709 N 271.97 1.30982 0.876444 0
M  V30 2710 C 273.198 1.23242 1.6619 0
M  V30 2711 C 273.613 -0.203345 1.87702 0
M  V30 2712 O 272.97 -1.13317 1.43057 0
M  V30 2713 C 273.021 1.96623 3.03351 0
M  V30 2714 O 272.742 3.34594 2.82804 0
M  V30 2715 C 274.243 1.95644 3.97792 0
M  V30 2716 H 271.463 0.426126 0.518322 0
M  V30 2717 H 274.007 1.7275 1.09442 0
M  V30 2718 H 272.162 1.50892 3.56806 0
M  V30 2719 H 272.576 3.71873 3.69879 0
M  V30 2720 H 274.05 2.51511 4.91372 0
M  V30 2721 H 274.527 0.937395 4.2908 0
M  V30 2722 H 275.133 2.41225 3.50272 0
M  V30 2723 N 273.449 -1.08991 1.13837 0
M  V30 2724 C 274.677 -1.85011 0.926202 0
M  V30 2725 C 275.092 -1.8135 -0.525127 0
M  V30 2726 O 274.449 -1.21287 -1.36366 0
M  V30 2727 C 274.5 -3.32802 1.41155 0
M  V30 2728 O 274.221 -3.36444 2.80601 0
M  V30 2729 C 275.722 -4.25649 1.23847 0
M  V30 2730 H 272.942 -0.584249 0.32999 0
M  V30 2731 H 275.486 -1.37688 1.51202 0
M  V30 2732 H 273.641 -3.77536 0.868631 0
M  V30 2733 H 274.055 -4.28657 3.02248 0
M  V30 2734 H 275.529 -5.27485 1.62675 0
M  V30 2735 H 276.006 -4.38828 0.18065 0
M  V30 2736 H 276.612 -3.86735 1.76964 0
M  V30 2737 N 274.927 -0.932562 -1.27047 0
M  V30 2738 C 276.157 -0.591173 -1.97961 0
M  V30 2739 C 276.565 0.836219 -1.69717 0
M  V30 2740 O 275.908 1.56801 -0.957036 0
M  V30 2741 C 275.97 -0.743082 -3.51736 0
M  V30 2742 C 275.634 -2.1435 -4.03613 0
M  V30 2743 C 276.631 -3.11815 -4.16014 0
M  V30 2744 C 274.316 -2.46175 -4.37839 0
M  V30 2745 C 276.31 -4.39211 -4.61923 0
M  V30 2746 C 273.997 -3.73806 -4.83438 0
M  V30 2747 C 274.995 -4.70137 -4.95439 0
M  V30 2748 O 274.683 -5.95496 -5.40037 0
M  V30 2749 H 274.415 -0.222375 -0.638377 0
M  V30 2750 H 276.969 -1.25317 -1.62742 0
M  V30 2751 H 275.199 -0.0239739 -3.86693 0
M  V30 2752 H 276.888 -0.40603 -4.03864 0
M  V30 2753 H 277.654 -2.88549 -3.89826 0
M  V30 2754 H 273.533 -1.71936 -4.27737 0
M  V30 2755 H 277.077 -5.14404 -4.71205 0
M  V30 2756 H 272.974 -3.96888 -5.09068 0
M  V30 2757 H 273.742 -5.98554 -5.58279 0
M  V30 2758 N 276.405 1.4127 -0.698611 0
M  V30 2759 C 277.368 2.29158 -0.044132 0
M  V30 2760 C 278.368 1.44529 0.704841 0
M  V30 2761 O 279.558 1.65643 0.539276 0
M  V30 2762 C 276.69 3.27459 0.947809 0
M  V30 2763 H 277.883 2.88529 -0.817994 0
M  V30 2764 H 275.436 1.49307 -0.46228 0
M  V30 2765 H 276.171 2.73073 1.74933 0
M  V30 2766 H 275.956 3.8991 0.41385 0
M  V30 2767 H 277.446 3.93311 1.40344 0
M  V30 2768 N 277.883 0.443576 1.51229 0
M  V30 2769 C 278.813 -0.355142 2.30783 0
M  V30 2770 C 279.794 -1.0154 1.36468 0
M  V30 2771 O 280.979 -1.01785 1.65389 0
M  V30 2772 C 278.109 -1.45312 3.15439 0
M  V30 2773 C 277.063 -0.916002 4.18083 0
M  V30 2774 C 276.389 -2.1102 4.91299 0
M  V30 2775 C 277.689 0.0538602 5.22272 0
M  V30 2776 H 279.383 0.308767 2.97804 0
M  V30 2777 H 276.929 0.149937 1.43217 0
M  V30 2778 H 278.882 -2.01914 3.69876 0
M  V30 2779 H 277.606 -2.14541 2.46252 0
M  V30 2780 H 276.265 -0.372145 3.64706 0
M  V30 2781 H 275.913 -2.78882 4.18609 0
M  V30 2782 H 275.613 -1.75717 5.60712 0
M  V30 2783 H 277.137 -2.68164 5.48562 0
M  V30 2784 H 278.551 -0.422069 5.71744 0
M  V30 2785 H 276.948 0.319776 5.99247 0
M  V30 2786 H 278.018 0.98858 4.74716 0
M  V30 2787 N 279.361 -1.56624 0.175154 0
M  V30 2788 C 280.271 -2.21741 -0.766042 0
M  V30 2789 C 281.287 -1.21023 -1.25018 0
M  V30 2790 O 282.463 -1.53697 -1.3015 0
M  V30 2791 C 279.528 -2.84839 -1.97655 0
M  V30 2792 C 278.589 -4.00769 -1.53892 0
M  V30 2793 C 277.822 -4.60849 -2.69173 0
M  V30 2794 O 278.045 -4.19823 -3.86141 0
M  V30 2795 O 276.979 -5.50655 -2.43028 0
M  V30 2796 H 280.805 -3.02738 -0.241585 0
M  V30 2797 H 278.39 -1.49305 -0.053222 0
M  V30 2798 H 280.272 -3.24834 -2.68442 0
M  V30 2799 H 278.947 -2.06836 -2.48999 0
M  V30 2800 H 277.854 -3.65436 -0.80044 0
M  V30 2801 H 279.187 -4.80376 -1.07236 0
M  V30 2802 N 280.839 0.0985539 -1.57292 0
M  V30 2803 C 282.067 0.816318 -1.90115 0
M  V30 2804 C 282.482 1.72451 -0.768509 0
M  V30 2805 O 281.839 1.80643 0.259687 0
M  V30 2806 C 281.89 1.63259 -3.22535 0
M  V30 2807 O 281.611 0.760934 -4.31441 0
M  V30 2808 C 283.112 2.45372 -3.69199 0
M  V30 2809 H 280.332 0.233595 -0.629027 0
M  V30 2810 H 282.876 0.0768229 -2.04356 0
M  V30 2811 H 281.031 2.32463 -3.09903 0
M  V30 2812 H 281.445 1.32595 -5.07463 0
M  V30 2813 H 282.919 2.98144 -4.64558 0
M  V30 2814 H 283.396 3.23677 -2.96867 0
M  V30 2815 H 284.002 1.81373 -3.84687 0
M  V30 2816 N 282.317 1.53212 0.369288 0
M  V30 2817 C 283.547 1.72868 1.13139 0
M  V30 2818 C 283.955 0.455754 1.83629 0
M  V30 2819 O 283.298 -0.580861 1.74275 0
M  V30 2820 C 283.36 2.83667 2.20847 0
M  V30 2821 C 283.024 4.24142 1.70155 0
M  V30 2822 C 284.021 5.06619 1.16763 0
M  V30 2823 C 281.706 4.70539 1.7578 0
M  V30 2824 C 283.7 6.33581 0.696678 0
M  V30 2825 C 281.387 5.97481 1.28297 0
M  V30 2826 C 282.385 6.78833 0.753307 0
M  V30 2827 O 282.073 8.03393 0.285475 0
M  V30 2828 H 281.805 0.581707 0.344373 0
M  V30 2829 H 284.359 2.00736 0.435243 0
M  V30 2830 H 282.589 2.51265 2.93944 0
M  V30 2831 H 284.278 2.91536 2.82421 0
M  V30 2832 H 285.044 4.71948 1.11758 0
M  V30 2833 H 280.923 4.07293 2.15949 0
M  V30 2834 H 284.467 6.97027 0.282581 0
M  V30 2835 H 280.364 6.31651 1.32994 0
M  V30 2836 H 281.132 8.17497 0.405145 0
M  V30 2837 N 283.795 -0.628877 1.44509 0
M  V30 2838 C 284.727 -1.754 1.47538 0
M  V30 2839 C 285.74 -1.58575 0.368506 0
M  V30 2840 O 286.929 -1.66847 0.634376 0
M  V30 2841 C 284.029 -3.1315 1.29577 0
M  V30 2842 C 283.202 -3.56413 2.53551 0
M  V30 2843 C 282.261 -4.7305 2.30457 0
M  V30 2844 O 281.287 -4.81247 3.03957 0
M  V30 2845 N 282.489 -5.64903 1.3366 0
M  V30 2846 H 285.254 -1.73272 2.44534 0
M  V30 2847 H 282.815 -0.813512 1.39977 0
M  V30 2848 H 284.807 -3.88902 1.11971 0
M  V30 2849 H 283.377 -3.09908 0.409371 0
M  V30 2850 H 282.597 -2.70847 2.86419 0
M  V30 2851 H 283.885 -3.82071 3.36005 0
M  V30 2852 H 283.283 -5.60975 0.729604 0
M  V30 2853 H 281.84 -6.40275 1.22032 0
M  V30 2854 N 285.273 -1.31445 -0.869486 0
M  V30 2855 C 286.689 -1.10113 -1.15531 0
M  V30 2856 C 286.889 0.128087 -2.01092 0
M  V30 2857 O 285.945 0.817276 -2.38908 0
M  V30 2858 C 287.258 -2.37291 -1.84698 0
M  V30 2859 C 288.806 -2.42906 -1.97397 0
M  V30 2860 C 289.281 -3.69967 -2.69979 0
M  V30 2861 N 290.772 -3.70864 -2.77514 0
M  V30 2862 C 291.507 -4.65875 -3.34287 0
M  V30 2863 N 291.003 -5.71242 -3.91988 0
M  V30 2864 N 292.796 -4.53394 -3.3225 0
M  V30 2865 H 284.947 -2.1028 -0.299347 0
M  V30 2866 H 287.21 -0.927683 -0.195214 0
M  V30 2867 H 286.916 -3.27078 -1.29278 0
M  V30 2868 H 286.79 -2.47125 -2.84972 0
M  V30 2869 H 289.177 -1.53588 -2.51982 0
M  V30 2870 H 289.258 -2.37036 -0.961643 0
M  V30 2871 H 288.902 -4.59652 -2.16062 0
M  V30 2872 H 288.832 -3.73103 -3.7162 0
M  V30 2873 H 291.323 -2.94697 -2.36563 0
M  V30 2874 H 291.636 -6.39817 -4.33421 0
M  V30 2875 H 289.981 -5.75015 -3.90362 0
M  V30 2876 H 293.172 -3.70252 -2.8641 0
M  V30 2877 H 293.345 -5.27617 -3.76197 0
M  V30 2878 N 286.751 1.08385 -1.14413 0
M  V30 2879 C 287.699 2.17406 -0.826888 0
M  V30 2880 C 288.693 1.6827 0.195312 0
M  V30 2881 O 289.899 1.79927 0.0513892 0
M  V30 2882 H 286.274 0.70934 -0.249681 0
M  V30 2883 H 288.245 2.41388 -1.75426 0
M  V30 2884 C 286.994 3.46215 -0.320979 0
M  V30 2885 H 286.317 3.84401 -1.0989 0
M  V30 2886 H 287.757 4.23777 -0.137549 0
M  V30 2887 C 286.216 3.23067 0.955472 0
M  V30 2888 O 286.746 3.4668 2.02918 0
M  V30 2889 N 284.952 2.7661 0.890798 0
M  V30 2890 H 284.499 2.57594 0.0168815 0
M  V30 2891 H 284.457 2.61501 1.74542 0
M  V30 2892 N 288.23 0.939286 1.26551 0
M  V30 2893 C 289.507 0.5038 1.89001 0
M  V30 2894 C 289.887 -1.01854 1.84903 0
M  V30 2895 O 289.235 -1.87773 1.30206 0
M  V30 2896 C 289.445 1.063 3.32417 0
M  V30 2897 C 290.793 1.13051 4.09273 0
M  V30 2898 O 291.817 1.01345 3.41479 0
M  V30 2899 O 290.676 1.31233 5.30509 0
M  V30 2900 H 287.77 0.163897 0.810597 0
M  V30 2901 H 290.316 1.03173 1.34735 0
M  V30 2902 H 289.088 2.10665 3.29752 0
M  V30 2903 H 288.711 0.517408 3.94219 0
M  V30 2904 N 289.708 -1.40897 0.706093 0
M  V30 2905 C 291.119 -1.84023 0.315052 0
M  V30 2906 C 291.47 -1.5906 -1.14866 0
M  V30 2907 O 290.595 -1.06651 -1.88293 0
M  V30 2908 C 291.19 -3.34055 0.565038 0
M  V30 2909 C 289.749 -3.7571 0.227806 0
M  V30 2910 C 288.896 -2.64204 0.842122 0
M  V30 2911 H 291.847 -1.303 0.905963 0
M  V30 2912 H 291.868 -3.80107 -0.172843 0
M  V30 2913 H 291.38 -3.52192 1.63042 0
M  V30 2914 H 289.481 -3.63172 -0.832895 0
M  V30 2915 H 289.594 -4.74103 0.690174 0
M  V30 2916 H 287.958 -2.53255 0.270893 0
M  V30 2917 H 288.741 -2.85155 1.91158 0
M  V30 2918 N 291.186 -0.45159 -1.50991 0
M  V30 2919 C 292.602 -0.104647 -1.59257 0
M  V30 2920 C 292.802 1.38728 -1.4614 0
M  V30 2921 O 291.858 2.15866 -1.30989 0
M  V30 2922 C 293.171 -0.637468 -2.93865 0
M  V30 2923 C 294.719 -0.599166 -3.07212 0
M  V30 2924 C 295.194 -1.1092 -4.44366 0
M  V30 2925 N 296.685 -1.06778 -4.50725 0
M  V30 2926 C 297.42 -1.43314 -5.55201 0
M  V30 2927 N 296.916 -1.87204 -6.67028 0
M  V30 2928 N 298.709 -1.3504 -5.45638 0
M  V30 2929 H 290.86 -1.42214 -1.57762 0
M  V30 2930 H 293.123 -0.586921 -0.744465 0
M  V30 2931 H 292.829 -1.68187 -3.08879 0
M  V30 2932 H 292.703 -0.0702139 -3.77135 0
M  V30 2933 H 295.09 0.436277 -2.91857 0
M  V30 2934 H 295.171 -1.20299 -2.25747 0
M  V30 2935 H 294.815 -2.14318 -4.60467 0
M  V30 2936 H 294.745 -0.481773 -5.24392 0
M  V30 2937 H 297.236 -0.745643 -3.70471 0
M  V30 2938 H 297.549 -2.13282 -7.42786 0
M  V30 2939 H 295.894 -1.91142 -6.68199 0
M  V30 2940 H 299.085 -1.00607 -4.57161 0
M  V30 2941 H 299.258 -1.63841 -6.26945 0
M  V30 2942 N 292.664 1.56529 -0.183458 0
M  V30 2943 C 293.913 1.96419 0.458511 0
M  V30 2944 C 294.226 1.0727 1.63562 0
M  V30 2945 O 295.432 1.36893 2.34462 0
M  V30 2946 C 293.888 3.49298 0.867122 0
M  V30 2947 C 293.496 4.47092 -0.285057 0
M  V30 2948 C 295.24 3.97983 1.47683 0
M  V30 2949 C 293.147 5.91225 0.143862 0
M  V30 2950 H 292.077 0.733394 0.175071 0
M  V30 2951 H 294.728 1.81448 -0.273624 0
M  V30 2952 H 293.11 3.59731 1.65559 0
M  V30 2953 H 294.284 4.48383 -1.0625 0
M  V30 2954 H 292.599 4.08535 -0.805503 0
M  V30 2955 H 295.196 5.03134 1.80999 0
M  V30 2956 H 295.539 3.41618 2.37914 0
M  V30 2957 H 296.072 3.90617 0.752562 0
M  V30 2958 H 292.811 6.5149 -0.723974 0
M  V30 2959 H 292.331 5.93214 0.886413 0
M  V30 2960 H 294.01 6.44362 0.583628 0
M  V30 2961 N 294.142 -0.090211 1.57342 0
M  V30 2962 C 295.37 -0.806224 1.90546 0
M  V30 2963 C 295.785 -1.72041 0.777644 0
M  V30 2964 O 295.142 -1.80778 -0.250103 0
M  V30 2965 C 295.193 -1.61546 3.23396 0
M  V30 2966 O 294.914 -0.738043 4.31839 0
M  V30 2967 C 296.415 -2.4341 3.70495 0
M  V30 2968 H 293.635 -0.230256 0.630257 0
M  V30 2969 H 296.179 -0.0659843 2.04394 0
M  V30 2970 H 294.334 -2.30816 3.11131 0
M  V30 2971 H 294.748 -1.29901 5.08159 0
M  V30 2972 H 296.222 -2.95676 4.66133 0
M  V30 2973 H 296.699 -3.22098 2.98579 0
M  V30 2974 H 297.305 -1.79331 3.85643 0
M  V30 2975 N 295.62 -1.53406 -0.361157 0
M  V30 2976 C 297.031 -1.61442 -0.937728 0
M  V30 2977 C 297.382 -0.48461 -1.90121 0
M  V30 2978 O 296.507 0.388312 -2.12888 0
M  V30 2979 C 297.102 -2.92624 -1.70753 0
M  V30 2980 C 295.661 -3.02981 -2.23337 0
M  V30 2981 C 294.808 -2.5677 -1.04712 0
M  V30 2982 H 297.759 -1.58083 -0.139816 0
M  V30 2983 H 297.78 -2.80675 -2.56908 0
M  V30 2984 H 297.292 -3.74834 -1.00604 0
M  V30 2985 H 295.393 -2.25368 -2.96715 0
M  V30 2986 H 295.506 -4.0814 -2.50916 0
M  V30 2987 H 293.87 -2.11752 -1.41539 0
M  V30 2988 H 294.653 -3.41402 -0.360539 0
M  V30 2989 N 297.098 0.621204 -1.44841 0
M  V30 2990 C 298.028 1.74366 -1.55303 0
M  V30 2991 C 299.009 1.65199 -0.405385 0
M  V30 2992 O 300.194 1.83807 -0.626787 0
M  V30 2993 C 297.324 3.12931 -1.50637 0
M  V30 2994 C 296.278 3.36896 -2.63979 0
M  V30 2995 C 295.604 4.75594 -2.44366 0
M  V30 2996 C 296.904 3.28483 -4.06074 0
M  V30 2997 H 298.598 1.65867 -2.49256 0
M  V30 2998 H 296.144 0.796558 -1.19962 0
M  V30 2999 H 298.097 3.9124 -1.56555 0
M  V30 3000 H 296.821 3.22237 -0.532057 0
M  V30 3001 H 295.48 2.60972 -2.57467 0
M  V30 3002 H 295.128 4.81616 -1.45105 0
M  V30 3003 H 294.828 4.92586 -3.20364 0
M  V30 3004 H 296.352 5.5612 -2.52117 0
M  V30 3005 H 297.766 3.96684 -4.13902 0
M  V30 3006 H 296.163 3.57008 -4.82354 0
M  V30 3007 H 297.233 2.26133 -4.28943 0
M  V30 3008 N 298.576 1.31904 0.862503 0
M  V30 3009 C 299.506 1.22782 1.98612 0
M  V30 3010 C 300.487 0.113362 1.69722 0
M  V30 3011 O 301.672 0.299218 1.91881 0
M  V30 3012 C 298.802 0.942058 3.34279 0
M  V30 3013 C 297.756 2.0169 3.77499 0
M  V30 3014 C 297.082 1.58369 5.10709 0
M  V30 3015 C 298.382 3.43096 3.93805 0
M  V30 3016 H 300.076 2.16788 2.06502 0
M  V30 3017 H 297.622 1.04366 0.992154 0
M  V30 3018 H 299.575 0.864818 4.1243 0
M  V30 3019 H 298.299 -0.0336603 3.26583 0
M  V30 3020 H 296.958 2.08416 3.01593 0
M  V30 3021 H 296.606 0.595628 4.99461 0
M  V30 3022 H 296.306 2.30279 5.40597 0
M  V30 3023 H 297.83 1.52067 5.91361 0
M  V30 3024 H 299.244 3.39003 4.62331 0
M  V30 3025 H 297.641 4.13288 4.35101 0
M  V30 3026 H 298.711 3.83334 2.96957 0
M  V30 3027 N 300.054 -1.07777 1.14986 0
M  V30 3028 C 301.282 -1.84018 0.945773 0
M  V30 3029 C 301.697 -1.81897 -0.505863 0
M  V30 3030 O 301.054 -1.22726 -1.35072 0
M  V30 3031 C 301.105 -3.31287 1.44677 0
M  V30 3032 O 300.826 -3.33449 2.84154 0
M  V30 3033 C 302.327 -4.24311 1.28355 0
M  V30 3034 H 299.547 -0.580716 0.336169 0
M  V30 3035 H 302.091 -1.36077 1.52654 0
M  V30 3036 H 300.246 -3.76594 0.908625 0
M  V30 3037 H 300.66 -4.25427 3.06777 0
M  V30 3038 H 302.134 -5.2573 1.68261 0
M  V30 3039 H 302.611 -4.38612 0.227184 0
M  V30 3040 H 303.217 -3.84836 1.81056 0
M  V30 3041 N 301.532 -0.945985 -1.26051 0
M  V30 3042 C 302.48 -0.450259 -2.282 0
M  V30 3043 C 303.474 0.47497 -1.62605 0
M  V30 3044 O 304.68 0.352653 -1.76512 0
M  V30 3045 H 301.055 -0.127081 -0.741184 0
M  V30 3046 H 303.026 -1.32422 -2.67408 0
M  V30 3047 C 301.775 0.26467 -3.46691 0
M  V30 3048 H 301.098 -0.438123 -3.97392 0
M  V30 3049 H 302.538 0.575678 -4.20074 0
M  V30 3050 C 300.997 1.48416 -3.02447 0
M  V30 3051 O 301.527 2.58227 -3.07704 0
M  V30 3052 N 299.733 1.34243 -2.57735 0
M  V30 3053 H 299.28 0.448994 -2.53657 0
M  V30 3054 H 299.238 2.15957 -2.28495 0
M  V30 3055 N 303.011 1.40521 -0.713556 0
M  V30 3056 C 303.941 2.33381 -0.0743864 0
M  V30 3057 C 304.922 1.52784 0.747735 0
M  V30 3058 O 306.107 1.81258 0.697071 0
M  V30 3059 C 303.237 3.36748 0.849598 0
M  V30 3060 C 302.191 4.27793 0.133247 0
M  V30 3061 C 301.517 5.21679 1.17281 0
M  V30 3062 C 302.817 5.12415 -1.01134 0
M  V30 3063 H 304.511 2.87081 -0.850007 0
M  V30 3064 H 302.057 1.38034 -0.410201 0
M  V30 3065 H 304.01 4.00648 1.30612 0
M  V30 3066 H 302.734 2.81439 1.65709 0
M  V30 3067 H 301.393 3.65342 -0.303426 0
M  V30 3068 H 301.041 4.62677 1.9733 0
M  V30 3069 H 300.741 5.83435 0.698397 0
M  V30 3070 H 302.265 5.88456 1.62947 0
M  V30 3071 H 303.679 5.69781 -0.634274 0
M  V30 3072 H 302.076 5.83203 -1.41399 0
M  V30 3073 H 303.146 4.48514 -1.84292 0
M  V30 3074 N 304.489 0.459591 1.5075 0
M  V30 3075 C 305.737 -0.0991532 2.01857 0
M  V30 3076 C 306.058 -1.41247 1.34441 0
M  V30 3077 O 305.328 -1.89775 0.486022 0
M  V30 3078 H 303.908 -0.039633 0.745948 0
M  V30 3079 H 306.57 0.607387 1.85194 0
M  V30 3080 H 305.666 -0.258998 3.11023 0
M  V30 3081 N 305.967 -1.56429 0.191757 0
M  V30 3082 C 307.383 -1.58754 -0.164137 0
M  V30 3083 C 307.583 -1.20782 -1.61288 0
M  V30 3084 O 306.639 -0.928999 -2.34789 0
M  V30 3085 C 307.952 -3.00396 0.135195 0
M  V30 3086 C 309.5 -3.1291 0.0750351 0
M  V30 3087 C 309.975 -4.56679 0.347632 0
M  V30 3088 N 311.466 -4.62252 0.296131 0
M  V30 3089 C 312.201 -5.71379 0.480948 0
M  V30 3090 N 311.697 -6.88986 0.725933 0
M  V30 3091 N 313.49 -5.60563 0.415435 0
M  V30 3092 H 305.641 -1.79393 1.13718 0
M  V30 3093 H 307.904 -0.832414 0.453643 0
M  V30 3094 H 307.61 -3.32726 1.13958 0
M  V30 3095 H 307.484 -3.72963 -0.563773 0
M  V30 3096 H 309.871 -2.80394 -0.919948 0
M  V30 3097 H 309.952 -2.42736 0.807029 0
M  V30 3098 H 309.596 -4.89907 1.33992 0
M  V30 3099 H 309.526 -5.25039 -0.405212 0
M  V30 3100 H 312.017 -3.7773 0.113259 0
M  V30 3101 H 312.33 -7.68046 0.855857 0
M  V30 3102 H 310.675 -6.90801 0.762788 0
M  V30 3103 H 313.866 -4.67561 0.224486 0
M  V30 3104 H 314.039 -6.45551 0.562889 0
M  V30 3105 N 307.445 0.0818655 -1.57387 0
M  V30 3106 C 308.685 0.788375 -1.88584 0
M  V30 3107 C 309.049 1.75248 -0.784351 0
M  V30 3108 O 310.25 2.50334 -0.979105 0
M  V30 3109 C 308.521 1.48654 -3.25018 0
M  V30 3110 S 310.08 2.22951 -3.7794 0
M  V30 3111 H 306.898 0.262383 -0.660815 0
M  V30 3112 H 309.5 0.0448995 -1.95448 0
M  V30 3113 H 308.204 0.770919 -4.03094 0
M  V30 3114 H 307.735 2.26965 -3.21326 0
M  V30 3115 H 309.75 3.49309 -3.52417 0
M  V30 3116 N 308.923 1.53595 0.353017 0
M  V30 3117 C 310.17 1.70385 1.09431 0
M  V30 3118 C 310.498 0.462113 1.88931 0
M  V30 3119 O 309.753 -0.556074 1.87633 0
M  V30 3120 C 310.052 2.91313 2.07054 0
M  V30 3121 C 309.718 4.27308 1.43939 0
M  V30 3122 C 308.38 4.64287 1.26454 0
M  V30 3123 C 310.732 5.11829 0.983883 0
M  V30 3124 C 308.06 5.83412 0.620226 0
M  V30 3125 C 310.412 6.31611 0.353516 0
M  V30 3126 C 309.076 6.67293 0.166272 0
M  V30 3127 H 308.346 0.623484 0.400436 0
M  V30 3128 H 310.993 1.87799 0.374655 0
M  V30 3129 H 309.298 2.68463 2.85368 0
M  V30 3130 H 310.995 3.01497 2.64387 0
M  V30 3131 H 307.585 3.98198 1.58543 0
M  V30 3132 H 311.769 4.838 1.10685 0
M  V30 3133 H 307.025 6.09639 0.463681 0
M  V30 3134 H 311.199 6.964 -0.00757555 0
M  V30 3135 H 308.826 7.59461 -0.335047 0
M  V30 3136 N 310.401 -0.613514 1.45168 0
M  V30 3137 C 311.331 -1.7354 1.56225 0
M  V30 3138 C 312.312 -1.64981 0.41414 0
M  V30 3139 O 313.497 -1.83472 0.636526 0
M  V30 3140 C 310.627 -3.12128 1.52295 0
M  V30 3141 C 309.581 -3.35491 2.65762 0
M  V30 3142 C 308.907 -4.74291 2.46885 0
M  V30 3143 C 310.207 -3.26325 4.0781 0
M  V30 3144 H 311.901 -1.64543 2.50132 0
M  V30 3145 H 309.447 -0.790185 1.20383 0
M  V30 3146 H 311.4 -3.90404 1.58628 0
M  V30 3147 H 310.124 -3.2195 0.549139 0
M  V30 3148 H 308.783 -2.59603 2.58847 0
M  V30 3149 H 308.431 -4.80839 1.47657 0
M  V30 3150 H 308.131 -4.9088 3.22972 0
M  V30 3151 H 309.655 -5.54775 2.55063 0
M  V30 3152 H 311.069 -3.94483 4.16 0
M  V30 3153 H 309.466 -3.54445 4.8424 0
M  V30 3154 H 310.536 -2.23855 4.30136 0
M  V30 3155 N 311.879 -1.3236 -0.855495 0
M  V30 3156 C 313.107 -1.2587 -1.64208 0
M  V30 3157 C 313.522 0.173457 -1.88002 0
M  V30 3158 O 312.879 1.11027 -1.44842 0
M  V30 3159 C 312.93 -2.01424 -3.00184 0
M  V30 3160 O 312.651 -3.39051 -2.77445 0
M  V30 3161 C 314.152 -2.01948 -3.94629 0
M  V30 3162 H 311.372 -0.434318 -0.511477 0
M  V30 3163 H 313.916 -1.74469 -1.0668 0
M  V30 3164 H 312.071 -1.56549 -3.5436 0
M  V30 3165 H 312.485 -3.77711 -3.63916 0
M  V30 3166 H 313.959 -2.59297 -4.87308 0
M  V30 3167 H 314.436 -1.00554 -4.27534 0
M  V30 3168 H 315.042 -2.46767 -3.4639 0
M  V30 3169 N 313.357 1.07166 -1.15556 0
M  V30 3170 C 314.582 1.84053 -0.955988 0
M  V30 3171 C 315.007 1.81586 0.490739 0
M  V30 3172 O 314.365 1.21018 1.34997 0
M  V30 3173 C 314.413 3.28957 -1.47714 0
M  V30 3174 O 313.517 4.06795 -0.677593 0
M  V30 3175 H 312.858 0.569842 -0.340847 0
M  V30 3176 H 315.388 1.35178 -1.53584 0
M  V30 3177 H 315.398 3.79788 -1.4908 0
M  V30 3178 H 314.073 3.30068 -2.53037 0
M  V30 3179 H 312.65 3.6561 -0.733721 0
M  V30 3180 N 314.835 0.952656 1.25548 0
M  V30 3181 C 316.081 0.607272 1.93494 0
M  V30 3182 C 316.414 -0.853245 1.74452 0
M  V30 3183 O 315.689 -1.61194 1.08843 0
M  V30 3184 C 315.972 0.96435 3.46947 0
M  V30 3185 C 315.825 2.48045 3.75225 0
M  V30 3186 C 317.144 0.487987 4.37386 0
M  V30 3187 H 314.263 0.222096 0.702739 0
M  V30 3188 H 316.905 1.18895 1.48203 0
M  V30 3189 H 315.055 0.469361 3.85654 0
M  V30 3190 H 316.727 3.04905 3.46166 0
M  V30 3191 H 314.97 2.919 3.209 0
M  V30 3192 H 315.641 2.6808 4.82532 0
M  V30 3193 H 318.117 0.912558 4.0597 0
M  V30 3194 H 316.993 0.766547 5.43521 0
M  V30 3195 H 317.254 -0.612063 4.37843 0
M  V30 3196 N 316.313 -1.40141 0.720998 0
M  V30 3197 C 317.541 -2.05096 0.272656 0
M  V30 3198 C 317.956 -1.54334 -1.0875 0
M  V30 3199 O 317.313 -0.702211 -1.6845 0
M  V30 3200 C 317.364 -3.60636 0.249835 0
M  V30 3201 O 317.085 -4.09526 1.55629 0
M  V30 3202 C 318.586 -4.42772 -0.216396 0
M  V30 3203 H 315.806 -0.659897 0.121558 0
M  V30 3204 H 318.35 -1.79449 0.980723 0
M  V30 3205 H 316.505 -3.85232 -0.409237 0
M  V30 3206 H 316.919 -5.03758 1.4604 0
M  V30 3207 H 318.393 -5.51702 -0.181212 0
M  V30 3208 H 318.87 -4.20756 -1.25941 0
M  V30 3209 H 319.476 -4.23294 0.412596 0
M  V30 3210 N 317.792 -0.46758 -1.50504 0
M  V30 3211 C 318.725 0.374324 -2.25109 0
M  V30 3212 C 319.703 0.99921 -1.28275 0
M  V30 3213 O 320.887 1.03583 -1.57489 0
M  V30 3214 C 318.014 1.52419 -3.02467 0
M  V30 3215 C 317.06 1.01702 -4.14197 0
M  V30 3216 S 317.893 -0.0654477 -5.3546 0
M  V30 3217 C 319.049 1.08837 -6.16365 0
M  V30 3218 H 319.282 -0.258983 -2.9617 0
M  V30 3219 H 316.815 -0.252421 -1.52323 0
M  V30 3220 H 318.773 2.18322 -3.47628 0
M  V30 3221 H 317.434 2.129 -2.30938 0
M  V30 3222 H 316.627 1.87776 -4.67714 0
M  V30 3223 H 316.229 0.435757 -3.71453 0
M  V30 3224 H 318.521 2.00071 -6.47285 0
M  V30 3225 H 319.464 0.592538 -7.05616 0
M  V30 3226 H 319.872 1.34061 -5.4835 0
M  V30 3227 N 319.27 1.56325 -0.20005 0
M  V30 3228 C 320.202 2.16555 0.750771 0
M  V30 3229 C 321.215 1.12871 1.1732 0
M  V30 3230 O 322.404 1.39943 1.10807 0
M  V30 3231 C 319.504 2.71684 2.02586 0
M  V30 3232 C 318.677 4.00321 1.76244 0
M  V30 3233 C 317.736 4.40227 2.88248 0
M  V30 3234 O 316.762 5.07552 2.57642 0
M  V30 3235 N 317.964 4.04138 4.16717 0
M  V30 3236 H 320.729 2.98772 0.235685 0
M  V30 3237 H 318.29 1.6189 -0.0182594 0
M  V30 3238 H 320.282 2.95363 2.76664 0
M  V30 3239 H 318.852 1.93893 2.45202 0
M  V30 3240 H 318.072 3.84723 0.85919 0
M  V30 3241 H 319.36 4.84279 1.56048 0
M  V30 3242 H 318.758 3.49993 4.44434 0
M  V30 3243 H 317.315 4.32756 4.87407 0
M  V30 3244 N 320.748 -0.0735177 1.57428 0
M  V30 3245 C 321.711 -1.07192 2.02589 0
M  V30 3246 C 322.711 -1.31695 0.922661 0
M  V30 3247 O 323.901 -1.27445 1.18758 0
M  V30 3248 C 321.033 -2.41599 2.40506 0
M  V30 3249 H 322.226 -0.682727 2.92025 0
M  V30 3250 H 319.779 -0.319193 1.53006 0
M  V30 3251 H 320.514 -2.85354 1.5409 0
M  V30 3252 H 320.299 -2.25156 3.21009 0
M  V30 3253 H 321.789 -3.13367 2.76027 0
M  V30 3254 N 322.226 -1.5378 -0.344866 0
M  V30 3255 C 323.474 -1.70625 -1.08311 0
M  V30 3256 C 323.795 -0.471447 -1.89215 0
M  V30 3257 O 323.065 0.514616 -1.8902 0
M  V30 3258 H 321.645 -0.629058 -0.402859 0
M  V30 3259 H 324.307 -1.9103 -0.386459 0
M  V30 3260 H 323.403 -2.57656 -1.76124 0
M  V30 3261 N 323.704 0.605807 -1.45491 0
M  V30 3262 C 325.115 1.18777 -1.44045 0
M  V30 3263 C 325.466 1.95471 -0.169001 0
M  V30 3264 O 324.591 2.0374 0.729324 0
M  V30 3265 C 325.186 2.16064 -2.60963 0
M  V30 3266 C 323.745 2.69633 -2.62631 0
M  V30 3267 C 322.892 1.45072 -2.36325 0
M  V30 3268 H 325.843 0.395017 -1.53705 0
M  V30 3269 H 325.864 2.9913 -2.35163 0
M  V30 3270 H 325.376 1.60217 -3.53486 0
M  V30 3271 H 323.477 3.29414 -1.74119 0
M  V30 3272 H 323.59 3.13944 -3.61906 0
M  V30 3273 H 321.954 1.74089 -1.85917 0
M  V30 3274 H 322.737 0.910899 -3.30995 0
M  V30 3275 N 325.182 1.32811 0.848464 0
M  V30 3276 C 326.13 1.22231 1.97895 0
M  V30 3277 C 327.124 0.125749 1.68933 0
M  V30 3278 O 328.33 0.289083 1.77663 0
M  V30 3279 H 324.705 0.379058 0.649476 0
M  V30 3280 H 326.676 2.17828 2.03945 0
M  V30 3281 C 325.425 0.968572 3.33937 0
M  V30 3282 H 324.748 1.80458 3.56756 0
M  V30 3283 H 326.188 0.934808 4.13567 0
M  V30 3284 C 324.647 -0.328628 3.35293 0
M  V30 3285 O 325.177 -1.33848 3.78745 0
M  V30 3286 N 323.383 -0.352788 2.88451 0
M  V30 3287 H 322.93 0.469541 2.53285 0
M  V30 3288 H 322.888 -1.22057 2.89741 0
M  V30 3289 N 326.66 -1.06551 1.16123 0
M  V30 3290 C 327.907 -1.79302 0.941126 0
M  V30 3291 C 328.235 -1.87105 -0.531235 0
M  V30 3292 O 327.49 -1.35692 -1.41018 0
M  V30 3293 C 327.789 -3.23911 1.51052 0
M  V30 3294 C 327.455 -3.36193 3.00475 0
M  V30 3295 C 326.117 -3.39252 3.41265 0
M  V30 3296 C 328.469 -3.38326 3.96465 0
M  V30 3297 C 325.797 -3.42057 4.76669 0
M  V30 3298 C 328.149 -3.4267 5.31752 0
M  V30 3299 C 326.813 -3.4401 5.72026 0
M  V30 3300 H 326.083 -0.656111 0.344382 0
M  V30 3301 H 328.73 -1.25325 1.44796 0
M  V30 3302 H 327.035 -3.80723 0.925063 0
M  V30 3303 H 328.732 -3.78793 1.31593 0
M  V30 3304 H 325.322 -3.34516 2.6795 0
M  V30 3305 H 329.506 -3.35176 3.6602 0
M  V30 3306 H 324.762 -3.41398 5.07206 0
M  V30 3307 H 328.936 -3.43268 6.05921 0
M  V30 3308 H 326.563 -3.45937 6.76928 0
M  V30 3309 N 328.138 -0.959301 -1.25041 0
M  V30 3310 C 329.554 -0.664474 -1.4511 0
M  V30 3311 C 329.754 0.776481 -1.85938 0
M  V30 3312 O 328.81 1.55128 -1.99227 0
M  V30 3313 C 330.123 -1.64139 -2.5195 0
M  V30 3314 C 331.671 -1.65309 -2.65786 0
M  V30 3315 C 332.146 -2.61777 -3.75815 0
M  V30 3316 N 333.637 -2.60169 -3.83231 0
M  V30 3317 C 334.372 -3.31489 -4.6787 0
M  V30 3318 N 333.868 -4.12298 -5.56761 0
M  V30 3319 N 335.661 -3.20354 -4.61876 0
M  V30 3320 H 327.812 -1.89043 -0.968332 0
M  V30 3321 H 330.075 -0.813408 -0.4869 0
M  V30 3322 H 329.781 -2.67086 -2.28819 0
M  V30 3323 H 329.655 -1.40756 -3.49954 0
M  V30 3324 H 332.042 -0.630778 -2.8828 0
M  V30 3325 H 332.123 -1.92753 -1.68167 0
M  V30 3326 H 331.767 -3.64137 -3.54071 0
M  V30 3327 H 331.697 -2.31616 -4.72929 0
M  V30 3328 H 334.188 -2.01507 -3.19692 0
M  V30 3329 H 334.501 -4.63625 -6.18281 0
M  V30 3330 H 332.846 -4.16395 -5.56454 0
M  V30 3331 H 336.037 -2.56692 -3.91442 0
M  V30 3332 H 336.21 -3.76201 -5.27614 0
M  V30 3333 N 329.616 1.39756 -0.72842 0
M  V30 3334 C 330.548 2.29157 -0.0446202 0
M  V30 3335 C 331.561 1.46484 0.710367 0
M  V30 3336 O 332.75 1.69632 0.55562 0
M  V30 3337 C 329.85 3.24987 0.961071 0
M  V30 3338 C 329.023 4.36572 0.268967 0
M  V30 3339 C 328.082 5.12756 1.18184 0
M  V30 3340 O 327.108 5.6534 0.661794 0
M  V30 3341 N 328.31 5.23331 2.51206 0
M  V30 3342 H 331.075 2.88482 -0.812295 0
M  V30 3343 H 328.636 1.51265 -0.577098 0
M  V30 3344 H 330.628 3.72827 1.57423 0
M  V30 3345 H 329.198 2.66739 1.63 0
M  V30 3346 H 328.418 3.90694 -0.524574 0
M  V30 3347 H 329.706 5.08363 -0.210934 0
M  V30 3348 H 329.104 4.82116 2.9594 0
M  V30 3349 H 327.661 5.74634 3.07634 0
M  V30 3350 N 331.094 0.475555 1.50254 0
M  V30 3351 C 332.51 0.12997 1.5907 0
M  V30 3352 C 332.71 -1.36385 1.48328 0
M  V30 3353 O 331.766 -2.13754 1.34407 0
M  V30 3354 C 333.079 0.684139 2.92814 0
M  V30 3355 C 334.627 0.647965 3.0622 0
M  V30 3356 C 335.102 1.17975 4.42545 0
M  V30 3357 N 336.593 1.13936 4.48969 0
M  V30 3358 C 337.328 1.52129 5.52851 0
M  V30 3359 N 336.824 1.97793 6.63965 0
M  V30 3360 N 338.617 1.43704 5.4342 0
M  V30 3361 H 330.768 1.44706 1.55479 0
M  V30 3362 H 333.031 0.598691 0.735033 0
M  V30 3363 H 332.737 1.73079 3.06164 0
M  V30 3364 H 332.611 0.130204 3.76975 0
M  V30 3365 H 334.998 -0.38979 2.92514 0
M  V30 3366 H 335.079 1.23876 2.23805 0
M  V30 3367 H 334.723 2.21616 4.57 0
M  V30 3368 H 334.653 0.565138 5.23559 0
M  V30 3369 H 337.144 0.804488 3.69238 0
M  V30 3370 H 337.457 2.25072 7.39299 0
M  V30 3371 H 335.802 2.01749 6.65073 0
M  V30 3372 H 338.993 1.07867 4.55502 0
M  V30 3373 H 339.166 1.73794 6.24259 0
M  V30 3374 N 332.573 -1.56217 0.208337 0
M  V30 3375 C 333.813 -1.99849 -0.428927 0
M  V30 3376 C 334.177 -1.09262 -1.57879 0
M  V30 3377 O 335.378 -1.42185 -2.28116 0
M  V30 3378 C 333.649 -3.46777 -0.864879 0
M  V30 3379 S 335.208 -4.12434 -1.49811 0
M  V30 3380 H 332.026 -0.697742 -0.136665 0
M  V30 3381 H 334.628 -1.92953 0.314519 0
M  V30 3382 H 333.332 -4.10396 -0.0181326 0
M  V30 3383 H 332.863 -3.57518 -1.64147 0
M  V30 3384 H 334.878 -4.10532 -2.78707 0
M  V30 3385 N 334.051 0.0651679 -1.57465 0
M  V30 3386 C 334.983 1.10359 -2.00882 0
M  V30 3387 C 335.996 1.346 -0.915788 0
M  V30 3388 O 337.185 1.32723 -1.1936 0
M  V30 3389 C 334.285 2.45312 -2.33828 0
M  V30 3390 C 333.458 2.40934 -3.65061 0
M  V30 3391 C 332.517 3.58047 -3.85602 0
M  V30 3392 O 331.543 3.39175 -4.57109 0
M  V30 3393 N 332.745 4.78637 -3.28462 0
M  V30 3394 H 335.51 0.733807 -2.90578 0
M  V30 3395 H 333.071 0.253719 -1.599 0
M  V30 3396 H 335.063 3.22314 -2.44737 0
M  V30 3397 H 333.633 2.74267 -1.49988 0
M  V30 3398 H 332.853 1.49273 -3.64844 0
M  V30 3399 H 334.141 2.35117 -4.51218 0
M  V30 3400 H 333.539 4.96872 -2.70433 0
M  V30 3401 H 332.096 5.53127 -3.44809 0
M  V30 3402 N 335.529 1.53961 0.336706 0
M  V30 3403 C 336.754 1.75797 1.10046 0
M  V30 3404 C 337.179 0.498985 1.81361 0
M  V30 3405 O 336.537 -0.548769 1.72795 0
M  V30 3406 C 336.585 2.94257 2.08436 0
M  V30 3407 O 335.689 2.64883 3.16087 0
M  V30 3408 H 335.03 0.582936 0.317934 0
M  V30 3409 H 337.56 2.00945 0.38501 0
M  V30 3410 H 337.57 3.21237 2.51537 0
M  V30 3411 H 336.245 3.85564 1.55927 0
M  V30 3412 H 334.822 2.48812 2.77753 0
M  V30 3413 N 337.007 -0.598083 1.45811 0
M  V30 3414 C 338.237 -1.38121 1.53643 0
M  V30 3415 C 338.645 -1.88425 0.171081 0
M  V30 3416 O 337.988 -1.63409 -0.839237 0
M  V30 3417 C 338.05 -2.61432 2.46766 0
M  V30 3418 C 337.714 -2.32702 3.93318 0
M  V30 3419 C 338.711 -1.92479 4.82957 0
M  V30 3420 C 336.396 -2.45321 4.38318 0
M  V30 3421 C 338.39 -1.65248 6.15607 0
M  V30 3422 C 336.077 -2.17703 5.71007 0
M  V30 3423 C 337.075 -1.7773 6.5947 0
M  V30 3424 O 336.763 -1.50441 7.89698 0
M  V30 3425 H 336.495 -0.428863 0.522544 0
M  V30 3426 H 339.049 -0.73557 1.91777 0
M  V30 3427 H 337.279 -3.28749 2.0362 0
M  V30 3428 H 338.968 -3.23487 2.45175 0
M  V30 3429 H 339.734 -1.82258 4.49452 0
M  V30 3430 H 335.613 -2.75399 3.69697 0
M  V30 3431 H 339.157 -1.33973 6.84614 0
M  V30 3432 H 335.054 -2.27544 6.04065 0
M  V30 3433 H 335.822 -1.64415 8.01817 0
M  V30 3434 N 338.485 -1.33259 -0.841409 0
M  V30 3435 C 339.713 -1.27605 -1.62864 0
M  V30 3436 C 340.128 0.153507 -1.88175 0
M  V30 3437 O 339.485 1.09485 -1.46011 0
M  V30 3438 C 339.536 -2.04596 -2.98031 0
M  V30 3439 O 339.257 -3.41975 -2.73834 0
M  V30 3440 C 340.758 -2.06122 -3.92465 0
M  V30 3441 H 337.978 -0.439718 -0.506842 0
M  V30 3442 H 340.522 -1.75591 -1.04824 0
M  V30 3443 H 338.677 -1.60299 -3.5268 0
M  V30 3444 H 339.091 -3.81549 -3.59889 0
M  V30 3445 H 340.565 -2.64451 -4.84531 0
M  V30 3446 H 341.042 -1.05083 -4.26444 0
M  V30 3447 H 341.648 -2.50427 -3.43753 0
M  V30 3448 N 339.963 1.05934 -1.16686 0
M  V30 3449 C 341.24 1.75643 -0.860747 0
M  V30 3450 C 341.62 2.01144 0.640641 0
M  V30 3451 O 340.968 1.64147 1.58959 0
M  V30 3452 C 341.178 3.05493 -1.68745 0
M  V30 3453 C 342.526 3.79581 -1.90271 0
M  V30 3454 O 343.55 3.15344 -1.65641 0
M  V30 3455 O 342.409 4.9499 -2.31618 0
M  V30 3456 H 339.503 0.763426 -0.317977 0
M  V30 3457 H 342.049 1.1217 -1.27342 0
M  V30 3458 H 340.821 2.8264 -2.70611 0
M  V30 3459 H 340.444 3.76702 -1.27206 0
M  V30 3460 N 341.441 0.965919 1.2453 0
M  V30 3461 C 342.69 0.622437 1.91856 0
M  V30 3462 C 343.003 -0.846006 1.76358 0
M  V30 3463 O 344.209 -1.29993 2.38357 0
M  V30 3464 C 342.665 1.0626 3.43856 0
M  V30 3465 C 342.273 2.55437 3.68043 0
M  V30 3466 C 344.017 0.792183 4.17043 0
M  V30 3467 C 341.924 2.93196 5.13605 0
M  V30 3468 H 340.854 0.229092 0.718354 0
M  V30 3469 H 343.505 1.17189 1.41206 0
M  V30 3470 H 341.887 0.441476 3.93531 0
M  V30 3471 H 343.061 3.22665 3.28974 0
M  V30 3472 H 341.376 2.8007 3.08139 0
M  V30 3473 H 343.973 1.05031 5.24283 0
M  V30 3474 H 344.316 -0.271584 4.15413 0
M  V30 3475 H 344.849 1.37419 3.73311 0
M  V30 3476 H 341.588 3.98636 5.20355 0
M  V30 3477 H 341.108 2.30651 5.53679 0
M  V30 3478 H 342.787 2.83004 5.81823 0
M  V30 3479 N 342.919 -1.39368 0.735821 0
M  V30 3480 C 344.33 -1.83313 0.354015 0
M  V30 3481 C 344.681 -1.61461 -1.11466 0
M  V30 3482 O 343.806 -1.10621 -1.85989 0
M  V30 3483 C 344.401 -3.32781 0.635769 0
M  V30 3484 C 342.96 -3.75142 0.307448 0
M  V30 3485 C 342.107 -2.62358 0.897974 0
M  V30 3486 H 345.058 -1.28349 0.933398 0
M  V30 3487 H 345.079 -3.80388 -0.0921773 0
M  V30 3488 H 344.591 -3.48654 1.70476 0
M  V30 3489 H 342.692 -3.64857 -0.755674 0
M  V30 3490 H 342.805 -4.72532 0.790583 0
M  V30 3491 H 341.169 -2.52624 0.324551 0
M  V30 3492 H 341.952 -2.81036 1.97164 0
M  V30 3493 N 344.397 -0.483516 -1.5 0
M  V30 3494 C 345.643 0.0593261 -2.03313 0
M  V30 3495 C 345.998 1.36288 -1.35806 0
M  V30 3496 O 345.291 1.85519 -0.478897 0
M  V30 3497 C 345.485 0.286226 -3.56252 0
M  V30 3498 C 345.314 -0.993788 -4.38582 0
M  V30 3499 C 344.084 -1.54064 -4.81241 0
M  V30 3500 C 346.282 -1.89249 -4.78215 0
M  V30 3501 N 344.264 -2.76838 -5.47936 0
M  V30 3502 C 345.635 -2.96606 -5.44449 0
M  V30 3503 C 347.69 -1.90138 -4.60165 0
M  V30 3504 C 346.393 -4.04857 -5.94544 0
M  V30 3505 C 348.419 -2.97353 -5.1121 0
M  V30 3506 C 347.781 -4.03429 -5.77429 0
M  V30 3507 H 343.88 -0.0186322 -0.781778 0
M  V30 3508 H 346.464 -0.654489 -1.8337 0
M  V30 3509 H 344.635 0.969086 -3.76116 0
M  V30 3510 H 346.367 0.824515 -3.96212 0
M  V30 3511 H 343.122 -1.08813 -4.6093 0
M  V30 3512 H 343.546 -3.39221 -5.85882 0
M  V30 3513 H 348.188 -1.09441 -4.0839 0
M  V30 3514 H 345.906 -4.86363 -6.4535 0
M  V30 3515 H 349.492 -2.99039 -4.99066 0
M  V30 3516 H 348.372 -4.85025 -6.16214 0
M  V30 3517 N 345.875 1.56104 -0.216619 0
M  V30 3518 C 347.291 1.58995 0.13886 0
M  V30 3519 C 347.491 1.23333 1.59346 0
M  V30 3520 O 346.547 0.966234 2.33281 0
M  V30 3521 C 347.86 3.00143 -0.182968 0
M  V30 3522 C 349.408 3.12751 -0.124807 0
M  V30 3523 C 349.883 4.56068 -0.420241 0
M  V30 3524 N 351.374 4.61723 -0.369634 0
M  V30 3525 C 352.109 5.70542 -0.571789 0
M  V30 3526 N 351.605 6.87744 -0.835453 0
M  V30 3527 N 353.398 5.59831 -0.504563 0
M  V30 3528 H 345.549 1.77562 -1.16557 0
M  V30 3529 H 347.812 0.825091 -0.466828 0
M  V30 3530 H 347.518 3.30871 -1.19237 0
M  V30 3531 H 347.392 3.73813 0.504367 0
M  V30 3532 H 349.779 2.81822 0.875223 0
M  V30 3533 H 349.86 2.41421 -0.845544 0
M  V30 3534 H 349.504 4.87713 -1.41769 0
M  V30 3535 H 349.434 5.25617 0.321631 0
M  V30 3536 H 351.925 3.77502 -0.173338 0
M  V30 3537 H 352.238 7.66587 -0.977938 0
M  V30 3538 H 350.583 6.895 -0.872592 0
M  V30 3539 H 353.774 4.67145 -0.298842 0
M  V30 3540 H 353.947 6.44573 -0.665519 0
M  V30 3541 N 347.353 -0.0568162 1.57498 0
M  V30 3542 C 348.263 -1.08346 2.08083 0
M  V30 3543 C 349.279 -1.41439 1.01346 0
M  V30 3544 O 350.455 -1.51316 1.32912 0
M  V30 3545 C 347.52 -2.37352 2.52715 0
M  V30 3546 C 346.581 -2.11093 3.73816 0
M  V30 3547 C 345.814 -3.33949 4.1631 0
M  V30 3548 O 346.037 -4.43622 3.58547 0
M  V30 3549 O 344.971 -3.21279 5.08983 0
M  V30 3550 H 348.797 -0.683667 2.95905 0
M  V30 3551 H 346.382 -0.271965 1.46904 0
M  V30 3552 H 348.264 -3.13246 2.81877 0
M  V30 3553 H 346.939 -2.76681 1.68016 0
M  V30 3554 H 345.846 -1.32856 3.49714 0
M  V30 3555 H 347.179 -1.76637 4.59413 0
M  V30 3556 N 348.832 -1.54138 -0.328536 0
M  V30 3557 C 349.762 -1.86167 -1.40939 0
M  V30 3558 C 350.743 -0.718044 -1.54202 0
M  V30 3559 O 351.928 -0.971328 -1.68163 0
M  V30 3560 C 349.058 -2.08461 -2.77779 0
M  V30 3561 C 348.012 -3.24299 -2.7931 0
M  V30 3562 C 347.338 -3.31955 -4.19178 0
M  V30 3563 C 348.638 -4.62065 -2.43502 0
M  V30 3564 H 350.332 -2.76689 -1.14383 0
M  V30 3565 H 347.878 -1.33132 -0.548806 0
M  V30 3566 H 349.831 -2.29453 -3.53454 0
M  V30 3567 H 348.555 -1.14684 -3.05802 0
M  V30 3568 H 347.214 -3.03187 -2.0609 0
M  V30 3569 H 346.862 -2.35745 -4.44335 0
M  V30 3570 H 346.562 -4.09805 -4.2111 0
M  V30 3571 H 348.086 -3.55175 -4.96672 0
M  V30 3572 H 349.5 -4.8297 -3.08889 0
M  V30 3573 H 347.897 -5.42429 -2.56693 0
M  V30 3574 H 348.967 -4.64652 -1.38659 0
M  V30 3575 N 350.31 0.590341 -1.46126 0
M  V30 3576 C 351.557 1.34882 -1.5104 0
M  V30 3577 C 351.885 1.93849 -0.159021 0
M  V30 3578 O 351.14 1.76544 0.844436 0
M  V30 3579 C 351.439 2.5032 -2.55097 0
M  V30 3580 C 351.105 2.09394 -3.99331 0
M  V30 3581 C 349.767 1.97947 -4.38601 0
M  V30 3582 C 352.119 1.77712 -4.89967 0
M  V30 3583 C 349.447 1.53065 -5.66381 0
M  V30 3584 C 351.799 1.34312 -6.18177 0
M  V30 3585 C 350.463 1.21436 -6.56361 0
M  V30 3586 H 349.733 0.493568 -0.552695 0
M  V30 3587 H 352.38 0.665539 -1.79563 0
M  V30 3588 H 350.685 3.24062 -2.20207 0
M  V30 3589 H 352.382 3.08541 -2.56132 0
M  V30 3590 H 348.972 2.19235 -3.68285 0
M  V30 3591 H 353.156 1.85445 -4.60352 0
M  V30 3592 H 348.412 1.41733 -5.94745 0
M  V30 3593 H 352.586 1.08849 -6.87841 0
M  V30 3594 H 350.213 0.864345 -7.5527 0
M  V30 3595 N 351.788 1.33704 0.83433 0
M  V30 3596 C 352.751 1.24244 1.92603 0
M  V30 3597 C 353.751 0.160383 1.59998 0
M  V30 3598 O 354.941 0.412228 1.69252 0
M  V30 3599 C 352.073 0.91555 3.28376 0
M  V30 3600 H 353.266 2.21287 2.02416 0
M  V30 3601 H 350.819 1.17827 1.02696 0
M  V30 3602 H 351.554 -0.0521886 3.24258 0
M  V30 3603 H 351.339 1.69811 3.53422 0
M  V30 3604 H 352.829 0.874231 4.08347 0
M  V30 3605 N 353.266 -1.05314 1.17247 0
M  V30 3606 C 354.677 -1.59753 0.96623 0
M  V30 3607 C 355.028 -1.9005 -0.487378 0
M  V30 3608 O 354.153 -1.68126 -1.36245 0
M  V30 3609 C 354.748 -2.90249 1.74759 0
M  V30 3610 C 353.307 -3.41352 1.58606 0
M  V30 3611 C 352.454 -2.15103 1.75002 0
M  V30 3612 H 355.405 -0.881406 1.31973 0
M  V30 3613 H 355.426 -3.60097 1.22925 0
M  V30 3614 H 354.938 -2.68166 2.8055 0
M  V30 3615 H 353.039 -3.68474 0.552985 0
M  V30 3616 H 353.152 -4.16019 2.37624 0
M  V30 3617 H 351.516 -2.25804 1.17833 0
M  V30 3618 H 352.299 -1.95491 2.82202 0
M  V30 3619 N 354.744 -0.972509 -1.24016 0
M  V30 3620 C 355.691 -0.505969 -2.25186 0
M  V30 3621 C 356.661 0.451009 -1.5986 0
M  V30 3622 O 357.846 0.360307 -1.87367 0
M  V30 3623 C 354.986 0.193089 -3.44559 0
M  V30 3624 C 354.099 -0.803222 -4.24467 0
M  V30 3625 C 353.234 -0.0797793 -5.3114 0
M  V30 3626 C 352.273 -1.06583 -6.02749 0
M  V30 3627 N 351.41 -0.372074 -7.01113 0
M  V30 3628 H 356.25 -1.37351 -2.64459 0
M  V30 3629 H 353.787 -0.688419 -1.29997 0
M  V30 3630 H 355.745 0.615125 -4.1264 0
M  V30 3631 H 354.375 1.02455 -3.06109 0
M  V30 3632 H 353.427 -1.34368 -3.55878 0
M  V30 3633 H 354.739 -1.55494 -4.73944 0
M  V30 3634 H 353.893 0.400015 -6.0538 0
M  V30 3635 H 352.632 0.704597 -4.82583 0
M  V30 3636 H 351.637 -1.55645 -5.27309 0
M  V30 3637 H 352.862 -1.85074 -6.53395 0
M  V30 3638 H 350.808 0.393238 -6.5482 0
M  V30 3639 H 350.725 -1.06258 -7.48495 0
M  V30 3640 H 351.993 0.0855932 -7.79453 0
M  V30 3641 N 356.222 1.38976 -0.743202 0
M  V30 3642 C 357.47 1.99948 -0.29417 0
M  V30 3643 C 357.791 1.59279 1.12495 0
M  V30 3644 O 357.061 0.844808 1.76748 0
M  V30 3645 H 355.641 0.739473 -0.105774 0
M  V30 3646 H 358.303 1.699 -0.954986 0
M  V30 3647 H 357.399 3.10142 -0.349056 0
M  V30 3648 N 357.7 0.491464 1.49741 0
M  V30 3649 C 358.663 -0.280906 2.27472 0
M  V30 3650 C 359.663 -0.902454 1.33088 0
M  V30 3651 O 360.853 -0.768465 1.56334 0
M  V30 3652 C 357.985 -1.40209 3.10732 0
M  V30 3653 H 359.178 0.401056 2.97206 0
M  V30 3654 H 356.731 0.246131 1.5435 0
M  V30 3655 H 357.466 -2.11849 2.45541 0
M  V30 3656 H 357.251 -0.961969 3.80117 0
M  V30 3657 H 358.741 -1.9464 3.69466 0
M  V30 3658 N 359.178 -1.55987 0.224894 0
M  V30 3659 C 360.455 -1.90232 -0.455083 0
M  V30 3660 C 360.835 -1.14269 -1.77499 0
M  V30 3661 O 360.183 -0.253079 -2.27094 0
M  V30 3662 C 360.393 -3.42993 -0.644758 0
M  V30 3663 C 361.741 -4.13821 -0.950669 0
M  V30 3664 O 362.765 -3.4861 -0.731423 0
M  V30 3665 O 361.624 -5.29128 -1.36695 0
M  V30 3666 H 358.718 -0.79108 -0.241084 0
M  V30 3667 H 361.264 -1.67581 0.267327 0
M  V30 3668 H 360.036 -3.90252 0.28613 0
M  V30 3669 H 359.659 -3.71434 -1.41853 0
M  V30 3670 N 360.656 0.0484629 -1.57525 0
M  V30 3671 C 361.904 0.741657 -1.88 0
M  V30 3672 C 362.225 1.76918 -0.820054 0
M  V30 3673 O 361.495 1.95335 0.148661 0
M  V30 3674 H 360.075 0.276908 -0.69378 0
M  V30 3675 H 362.737 0.019013 -1.94891 0
M  V30 3676 H 361.833 1.24336 -2.86264 0
M  V30 3677 N 362.134 1.5431 0.320358 0
M  V30 3678 C 363.55 1.45091 0.664889 0
M  V30 3679 C 363.75 0.626382 1.91517 0
M  V30 3680 O 362.806 0.126443 2.52183 0
M  V30 3681 C 364.119 2.88848 0.83591 0
M  V30 3682 C 365.667 2.9877 0.933046 0
M  V30 3683 C 366.142 4.43683 1.13621 0
M  V30 3684 N 367.633 4.47309 1.20287 0
M  V30 3685 C 368.368 5.56595 1.37801 0
M  V30 3686 N 367.864 6.75844 1.52338 0
M  V30 3687 N 369.657 5.44248 1.40535 0
M  V30 3688 H 361.808 2.06398 -0.501374 0
M  V30 3689 H 364.071 0.933963 -0.162534 0
M  V30 3690 H 363.777 3.51698 -0.0116092 0
M  V30 3691 H 363.651 3.35148 1.73078 0
M  V30 3692 H 366.038 2.36045 1.77107 0
M  V30 3693 H 366.119 2.55796 0.0145782 0
M  V30 3694 H 365.763 5.06995 0.303032 0
M  V30 3695 H 365.693 4.84269 2.0686 0
M  V30 3696 H 368.184 3.61388 1.10485 0
M  V30 3697 H 368.497 7.54892 1.65403 0
M  V30 3698 H 366.842 6.78746 1.4943 0
M  V30 3699 H 370.033 4.50038 1.28777 0
M  V30 3700 H 370.206 6.29473 1.53842 0
M  V30 3701 N 363.613 -0.582584 1.46437 0
M  V30 3702 C 364.841 -1.36682 1.55324 0
M  V30 3703 C 365.256 -1.87796 0.194409 0
M  V30 3704 O 364.613 -1.63623 -0.808318 0
M  V30 3705 C 364.664 -2.55426 2.55812 0
M  V30 3706 O 364.385 -2.0643 3.86417 0
M  V30 3707 C 365.886 -3.47976 2.74641 0
M  V30 3708 H 363.106 -0.417545 0.525259 0
M  V30 3709 H 365.65 -0.708219 1.91845 0
M  V30 3710 H 363.805 -3.17275 2.22295 0
M  V30 3711 H 364.219 -2.83762 4.41111 0
M  V30 3712 H 365.693 -4.27775 3.48874 0
M  V30 3713 H 366.17 -3.99919 1.81553 0
M  V30 3714 H 366.776 -2.91962 3.09255 0
M  V30 3715 N 365.091 -1.34144 -0.827227 0
M  V30 3716 C 366.338 -1.26258 -1.58319 0
M  V30 3717 C 366.666 0.168595 -1.93768 0
M  V30 3718 O 365.921 1.12877 -1.59866 0
M  V30 3719 C 366.22 -2.09464 -2.89585 0
M  V30 3720 C 365.886 -3.58521 -2.73448 0
M  V30 3721 C 364.548 -3.99155 -2.68754 0
M  V30 3722 C 366.9 -4.53189 -2.57428 0
M  V30 3723 C 364.228 -5.32656 -2.45957 0
M  V30 3724 C 366.58 -5.86864 -2.36163 0
M  V30 3725 C 365.244 -6.26667 -2.29879 0
M  V30 3726 H 364.514 -0.462013 -0.579332 0
M  V30 3727 H 367.161 -1.65845 -0.95748 0
M  V30 3728 H 365.466 -1.62692 -3.56425 0
M  V30 3729 H 367.163 -2.00712 -3.47154 0
M  V30 3730 H 363.753 -3.26264 -2.77939 0
M  V30 3731 H 367.937 -4.22696 -2.60081 0
M  V30 3732 H 363.193 -5.62519 -2.39546 0
M  V30 3733 H 367.367 -6.59813 -2.22754 0
M  V30 3734 H 364.994 -7.30049 -2.11975 0
M  V30 3735 N 366.569 1.04691 -1.17803 0
M  V30 3736 C 367.479 2.16057 -0.914151 0
M  V30 3737 C 368.495 1.73589 0.119503 0
M  V30 3738 O 369.671 2.01308 -0.0609468 0
M  V30 3739 C 366.736 3.4394 -0.436603 0
M  V30 3740 C 365.797 4.00825 -1.53746 0
M  V30 3741 C 365.03 5.22604 -1.0826 0
M  V30 3742 O 365.253 5.70367 0.0612244 0
M  V30 3743 O 364.187 5.7186 -1.87775 0
M  V30 3744 H 368.013 2.41169 -1.84584 0
M  V30 3745 H 365.598 1.1453 -0.959334 0
M  V30 3746 H 367.48 4.21024 -0.178057 0
M  V30 3747 H 366.155 3.20316 0.466869 0
M  V30 3748 H 365.062 3.25158 -1.84995 0
M  V30 3749 H 366.395 4.28778 -2.41683 0
M  V30 3750 N 368.047 0.979072 1.23499 0
M  V30 3751 C 368.994 0.517904 2.24914 0
M  V30 3752 C 369.964 -0.442525 1.60097 0
M  V30 3753 O 371.149 -0.350365 1.87556 0
M  V30 3754 C 368.289 -0.174813 3.44657 0
M  V30 3755 C 367.402 0.825721 4.24035 0
M  V30 3756 C 366.537 0.107946 5.3109 0
M  V30 3757 C 365.576 1.09778 6.02175 0
M  V30 3758 N 364.713 0.40925 7.00906 0
M  V30 3759 H 369.553 1.38751 2.63727 0
M  V30 3760 H 367.09 0.695303 1.2963 0
M  V30 3761 H 369.048 -0.593233 4.12961 0
M  V30 3762 H 367.678 -1.0083 3.06648 0
M  V30 3763 H 366.73 1.36253 3.55161 0
M  V30 3764 H 368.042 1.58005 4.73113 0
M  V30 3765 H 367.196 -0.367904 6.05583 0
M  V30 3766 H 365.935 -0.678994 4.8295 0
M  V30 3767 H 364.94 1.5844 5.26476 0
M  V30 3768 H 366.165 1.88536 6.52404 0
M  V30 3769 H 364.111 -0.358506 6.5502 0
M  V30 3770 H 364.028 1.10226 7.47921 0
M  V30 3771 H 365.296 -0.0442557 7.79487 0
M  V30 3772 N 369.525 -1.3858 0.750561 0
M  V30 3773 C 370.772 -2.00184 0.305373 0
M  V30 3774 C 371.1 -1.59575 -1.11203 0
M  V30 3775 O 370.355 -0.823236 -1.77542 0
M  V30 3776 C 370.654 -3.55455 0.372373 0
M  V30 3777 C 370.32 -4.15765 1.745 0
M  V30 3778 C 368.982 -4.31951 2.12065 0
M  V30 3779 C 371.334 -4.49067 2.64553 0
M  V30 3780 C 368.662 -4.78734 3.39162 0
M  V30 3781 C 371.014 -4.97265 3.91038 0
M  V30 3782 C 369.678 -5.11658 4.28676 0
M  V30 3783 H 368.948 -0.732526 0.111744 0
M  V30 3784 H 371.595 -1.65673 0.960451 0
M  V30 3785 H 369.9 -3.90084 -0.366272 0
M  V30 3786 H 371.597 -4.00999 0.00953918 0
M  V30 3787 H 368.187 -4.03579 1.44297 0
M  V30 3788 H 372.371 -4.36166 2.36796 0
M  V30 3789 H 367.627 -4.88062 3.68246 0
M  V30 3790 H 371.801 -5.22003 4.60962 0
M  V30 3791 H 369.428 -5.47668 5.27222 0
M  V30 3792 N 371.003 -0.499398 -1.49478 0
M  V30 3793 C 372.249 0.0457576 -2.02748 0
M  V30 3794 C 372.582 1.36793 -1.37846 0
M  V30 3795 O 371.857 1.87596 -0.513601 0
M  V30 3796 C 372.14 0.199986 -3.59544 0
M  V30 3797 C 371.993 -1.1452 -4.34977 0
M  V30 3798 C 373.312 0.94137 -4.29914 0
M  V30 3799 H 370.431 0.0151552 -0.736844 0
M  V30 3800 H 373.073 -0.650498 -1.78518 0
M  V30 3801 H 371.223 0.793007 -3.8032 0
M  V30 3802 H 372.895 -1.77697 -4.25701 0
M  V30 3803 H 371.138 -1.73488 -3.97598 0
M  V30 3804 H 371.809 -0.990607 -5.43039 0
M  V30 3805 H 374.285 0.43844 -4.13784 0
M  V30 3806 H 373.161 1.01812 -5.39375 0
M  V30 3807 H 373.422 1.98471 -3.95046 0
M  V30 3808 N 372.481 1.55866 -0.233164 0
M  V30 3809 C 373.444 2.1953 0.658715 0
M  V30 3810 C 374.444 1.16053 1.11303 0
M  V30 3811 O 375.634 1.41218 1.01996 0
M  V30 3812 C 372.766 2.82791 1.90373 0
M  V30 3813 H 373.959 2.99721 0.10347 0
M  V30 3814 H 371.512 1.56291 0.0164245 0
M  V30 3815 H 372.247 2.06501 2.50056 0
M  V30 3816 H 372.032 3.58578 1.58632 0
M  V30 3817 H 373.522 3.31556 2.53891 0
M  V30 3818 N 373.959 -0.0401083 1.57549 0
M  V30 3819 C 374.869 -1.06133 2.0922 0
M  V30 3820 C 375.885 -1.40356 1.0284 0
M  V30 3821 O 377.061 -1.49897 1.34509 0
M  V30 3822 C 374.126 -2.34658 2.55218 0
M  V30 3823 C 373.187 -2.07117 3.76033 0
M  V30 3824 C 372.42 -3.29514 4.19829 0
M  V30 3825 O 372.643 -4.39794 3.63232 0
M  V30 3826 O 371.577 -3.15863 5.12362 0
M  V30 3827 H 375.403 -0.652244 2.96613 0
M  V30 3828 H 372.988 -0.256368 1.47184 0
M  V30 3829 H 374.87 -3.10239 2.85184 0
M  V30 3830 H 373.545 -2.74883 1.70941 0
M  V30 3831 H 372.452 -1.29139 3.51104 0
M  V30 3832 H 373.785 -1.71754 4.61261 0
M  V30 3833 N 375.437 -1.54477 -0.31217 0
M  V30 3834 C 376.662 -1.77526 -1.07235 0
M  V30 3835 C 377.087 -0.527775 -1.80544 0
M  V30 3836 O 376.445 0.52121 -1.73646 0
M  V30 3837 C 376.493 -2.97535 -2.03728 0
M  V30 3838 O 375.597 -2.69878 -3.11833 0
M  V30 3839 H 374.938 -0.58792 -0.30862 0
M  V30 3840 H 377.468 -2.01532 -0.352993 0
M  V30 3841 H 377.478 -3.25198 -2.46395 0
M  V30 3842 H 376.153 -3.87996 -1.49774 0
M  V30 3843 H 374.73 -2.53199 -2.7376 0
M  V30 3844 N 376.915 0.57481 -1.46744 0
M  V30 3845 C 378.163 1.33009 -1.52161 0
M  V30 3846 C 378.484 1.94185 -0.178092 0
M  V30 3847 O 377.754 1.7899 0.796196 0
M  V30 3848 H 376.334 0.493873 -0.560445 0
M  V30 3849 H 378.996 0.672589 -1.82927 0
M  V30 3850 H 378.092 2.13273 -2.27862 0
M  V30 3851 N 378.394 1.34581 0.820102 0
M  V30 3852 C 379.642 1.26845 1.57336 0
M  V30 3853 C 379.963 -0.160667 1.94337 0
M  V30 3854 O 379.233 -1.09396 1.6251 0
M  V30 3855 H 377.813 0.466514 0.583415 0
M  V30 3856 H 380.475 1.68526 0.979027 0
M  V30 3857 H 379.571 1.87513 2.4949 0
M  V30 3858 N 379.872 -1.04064 1.18357 0
M  V30 3859 C 380.835 -2.10243 0.912707 0
M  V30 3860 C 381.835 -1.60477 -0.101928 0
M  V30 3861 O 383.025 -1.73703 0.131517 0
M  V30 3862 C 380.157 -3.38893 0.369387 0
M  V30 3863 H 381.35 -2.35706 1.85426 0
M  V30 3864 H 378.903 -1.20489 0.995594 0
M  V30 3865 H 379.638 -3.19094 -0.578776 0
M  V30 3866 H 379.423 -3.76331 1.1008 0
M  V30 3867 H 380.913 -4.17128 0.198575 0
M  V30 3868 N 381.35 -0.985608 -1.22978 0
M  V30 3869 C 382.26 -0.538548 -2.28335 0
M  V30 3870 C 383.276 0.409163 -1.69121 0
M  V30 3871 O 384.452 0.277797 -1.99475 0
M  V30 3872 C 381.517 0.146867 -3.46389 0
M  V30 3873 C 380.578 -0.842896 -4.20944 0
M  V30 3874 C 379.811 -0.190095 -5.33361 0
M  V30 3875 O 380.034 1.01767 -5.61248 0
M  V30 3876 O 378.968 -0.891289 -5.95264 0
M  V30 3877 H 382.794 -1.41487 -2.68729 0
M  V30 3878 H 380.379 -0.753495 -1.29007 0
M  V30 3879 H 382.261 0.531125 -4.1804 0
M  V30 3880 H 380.936 0.997871 -3.07935 0
M  V30 3881 H 379.843 -1.27795 -3.51595 0
M  V30 3882 H 381.176 -1.66287 -4.6326 0
M  V30 3883 N 382.828 1.3818 -0.7579 0
M  V30 3884 C 383.791 2.28764 -0.141286 0
M  V30 3885 C 384.791 1.47388 0.642907 0
M  V30 3886 O 385.981 1.67781 0.468536 0
M  V30 3887 C 383.113 3.31184 0.808069 0
M  V30 3888 H 384.306 2.848 -0.939633 0
M  V30 3889 H 381.859 1.47212 -0.525191 0
M  V30 3890 H 382.594 2.80247 1.63193 0
M  V30 3891 H 382.379 3.91314 0.248104 0
M  V30 3892 H 383.869 3.98909 1.23536 0
M  V30 3893 N 384.306 0.507319 1.49211 0
M  V30 3894 C 385.555 -0.0368315 2.01666 0
M  V30 3895 C 385.868 -1.37459 1.39156 0
M  V30 3896 O 387.074 -2.00579 1.82976 0
M  V30 3897 C 385.53 -0.116089 3.59713 0
M  V30 3898 C 385.138 1.2154 4.31198 0
M  V30 3899 C 386.882 -0.610268 4.2009 0
M  V30 3900 C 384.789 1.09796 5.81119 0
M  V30 3901 H 383.719 -0.0175376 0.753796 0
M  V30 3902 H 386.37 0.647691 1.71689 0
M  V30 3903 H 384.752 -0.8652 3.86433 0
M  V30 3904 H 385.926 1.9783 4.16173 0
M  V30 3905 H 384.241 1.64352 3.82593 0
M  V30 3906 H 386.838 -0.715742 5.29888 0
M  V30 3907 H 387.181 -1.61064 3.8388 0
M  V30 3908 H 387.714 0.0824916 3.97714 0
M  V30 3909 H 384.453 2.0728 6.21864 0
M  V30 3910 H 383.973 0.376058 5.9862 0
M  V30 3911 H 385.652 0.779281 6.4229 0
M  V30 3912 N 385.784 -1.5574 0.241426 0
M  V30 3913 C 387.03 -1.99846 -0.378555 0
M  V30 3914 C 387.385 -1.12665 -1.55963 0
M  V30 3915 O 386.678 -0.180966 -1.90743 0
M  V30 3916 C 386.872 -3.47308 -0.843317 0
M  V30 3917 C 386.701 -4.48756 0.291178 0
M  V30 3918 C 385.471 -4.9949 0.764077 0
M  V30 3919 C 387.669 -5.02039 1.11631 0
M  V30 3920 N 385.651 -5.84676 1.87156 0
M  V30 3921 C 387.022 -5.84343 2.07226 0
M  V30 3922 C 389.077 -4.84354 1.15349 0
M  V30 3923 C 387.78 -6.50851 3.06245 0
M  V30 3924 C 389.806 -5.51636 2.13195 0
M  V30 3925 C 389.168 -6.33724 3.07528 0
M  V30 3926 H 385.267 -0.774968 -0.104634 0
M  V30 3927 H 387.851 -1.91385 0.357751 0
M  V30 3928 H 386.022 -3.56178 -1.54893 0
M  V30 3929 H 387.754 -3.78299 -1.43779 0
M  V30 3930 H 384.509 -4.72311 0.349175 0
M  V30 3931 H 384.933 -6.31967 2.42789 0
M  V30 3932 H 389.575 -4.20525 0.438057 0
M  V30 3933 H 387.293 -7.1385 3.78739 0
M  V30 3934 H 390.879 -5.39909 2.16771 0
M  V30 3935 H 389.759 -6.84867 3.82003 0
M  V30 3936 N 387.262 0.0317525 -1.57568 0
M  V30 3937 C 388.492 0.733884 -1.93126 0
M  V30 3938 C 388.9 1.69563 -0.839352 0
M  V30 3939 O 388.243 1.82681 0.193175 0
M  V30 3940 C 388.305 1.54798 -3.24465 0
M  V30 3941 C 387.969 0.751304 -4.50782 0
M  V30 3942 C 388.966 0.0527632 -5.19873 0
M  V30 3943 C 386.651 0.706639 -4.97305 0
M  V30 3944 C 388.645 -0.679774 -6.33765 0
M  V30 3945 C 386.332 -0.0296449 -6.11093 0
M  V30 3946 C 387.33 -0.721614 -6.79177 0
M  V30 3947 O 387.018 -1.44595 -7.90789 0
M  V30 3948 H 386.75 0.211459 -0.642076 0
M  V30 3949 H 389.304 -0.00585615 -2.05399 0
M  V30 3950 H 387.534 2.33147 -3.08512 0
M  V30 3951 H 389.223 2.13247 -3.4537 0
M  V30 3952 H 389.989 0.0783188 -4.84937 0
M  V30 3953 H 385.868 1.23474 -4.44157 0
M  V30 3954 H 389.412 -1.22042 -6.86842 0
M  V30 3955 H 385.309 -0.0571331 -6.45475 0
M  V30 3956 H 386.077 -1.35935 -8.07133 0
M  V30 3957 N 388.74 1.54641 0.303973 0
M  V30 3958 C 390.151 1.64811 0.877163 0
M  V30 3959 C 390.502 0.554838 1.88191 0
M  V30 3960 O 389.627 -0.309033 2.14182 0
M  V30 3961 C 390.222 2.9876 1.59775 0
M  V30 3962 C 388.781 3.11061 2.11938 0
M  V30 3963 C 387.928 2.60479 0.951097 0
M  V30 3964 H 390.879 1.58493 0.0810486 0
M  V30 3965 H 390.9 2.90017 2.46314 0
M  V30 3966 H 390.412 3.7831 0.866226 0
M  V30 3967 H 388.513 2.36225 2.88146 0
M  V30 3968 H 388.626 4.17171 2.35595 0
M  V30 3969 H 386.99 2.16859 1.33583 0
M  V30 3970 H 387.773 3.42504 0.233581 0
M  V30 3971 N 390.218 -0.567019 1.47046 0
M  V30 3972 C 391.465 -1.32462 1.53167 0
M  V30 3973 C 391.793 -1.93571 0.189841 0
M  V30 3974 O 391.048 -1.77865 -0.816243 0
M  V30 3975 C 391.347 -2.4623 2.59047 0
M  V30 3976 C 391.013 -2.03014 4.02612 0
M  V30 3977 C 389.675 -1.90944 4.41694 0
M  V30 3978 C 392.027 -1.69895 4.92732 0
M  V30 3979 C 389.355 -1.44035 5.68745 0
M  V30 3980 C 391.707 -1.2446 6.20236 0
M  V30 3981 C 390.371 -1.10979 6.5821 0
M  V30 3982 H 389.641 -0.484713 0.560477 0
M  V30 3983 H 392.288 -0.636888 1.80599 0
M  V30 3984 H 390.593 -3.20517 2.25335 0
M  V30 3985 H 392.29 -3.04427 2.61008 0
M  V30 3986 H 388.88 -2.13348 3.71726 0
M  V30 3987 H 393.064 -1.78098 4.63244 0
M  V30 3988 H 388.32 -1.32254 5.96925 0
M  V30 3989 H 392.494 -0.978924 6.89485 0
M  V30 3990 H 390.121 -0.744078 7.5655 0
M  V30 3991 N 391.696 -1.35014 -0.812953 0
M  V30 3992 C 392.924 -1.31031 -1.6012 0
M  V30 3993 C 393.339 0.113558 -1.88458 0
M  V30 3994 O 392.696 1.06363 -1.48301 0
M  V30 3995 C 392.747 -2.10872 -2.93624 0
M  V30 3996 O 392.468 -3.47706 -2.66518 0
M  V30 3997 C 393.969 -2.14401 -3.88004 0
M  V30 3998 H 391.189 -0.45037 -0.497401 0
M  V30 3999 H 393.733 -1.77775 -1.01076 0
M  V30 4000 H 391.888 -1.67744 -3.492 0
M  V30 4001 H 392.302 -3.89097 -3.51715 0
M  V30 4002 H 393.776 -2.74669 -4.78812 0
M  V30 4003 H 394.253 -1.14105 -4.24119 0
M  V30 4004 H 394.859 -2.57662 -3.38364 0
M  V30 4005 N 393.175 1.03435 -1.18907 0
M  V30 4006 C 394.085 2.15075 -0.937015 0
M  V30 4007 C 395.101 1.73706 0.101085 0
M  V30 4008 O 396.277 2.01232 -0.0822948 0
M  V30 4009 C 393.342 3.43458 -0.473057 0
M  V30 4010 C 392.403 3.99172 -1.57989 0
M  V30 4011 C 391.636 5.21427 -1.13797 0
M  V30 4012 O 391.859 5.704 0.000725941 0
M  V30 4013 O 390.793 5.69837 -1.9383 0
M  V30 4014 H 394.619 2.39198 -1.87131 0
M  V30 4015 H 392.204 1.13506 -0.971427 0
M  V30 4016 H 394.086 4.20811 -0.222702 0
M  V30 4017 H 392.761 3.20793 0.432869 0
M  V30 4018 H 391.668 3.23178 -1.88433 0
M  V30 4019 H 393.001 4.2619 -2.46217 0
M  V30 4020 N 394.653 0.992116 1.22453 0
M  V30 4021 C 395.6 0.541731 2.24352 0
M  V30 4022 C 396.57 -0.425519 1.60557 0
M  V30 4023 O 397.755 -0.330453 1.87917 0
M  V30 4024 C 394.895 -0.138248 3.44823 0
M  V30 4025 C 394.008 0.870649 4.23136 0
M  V30 4026 C 393.143 0.164269 5.30946 0
M  V30 4027 C 392.182 1.16159 6.00977 0
M  V30 4028 N 391.319 0.483568 7.00433 0
M  V30 4029 H 396.159 1.41541 2.62241 0
M  V30 4030 H 393.696 0.709013 1.28885 0
M  V30 4031 H 395.654 -0.5494 4.13567 0
M  V30 4032 H 394.284 -0.975721 3.077 0
M  V30 4033 H 393.336 1.40013 3.53696 0
M  V30 4034 H 394.648 1.63014 4.7141 0
M  V30 4035 H 393.802 -0.303653 6.0594 0
M  V30 4036 H 392.541 -0.627733 4.83643 0
M  V30 4037 H 391.546 1.64015 5.24766 0
M  V30 4038 H 392.771 1.95445 6.50368 0
M  V30 4039 H 390.717 -0.289012 6.55363 0
M  V30 4040 H 390.634 1.18152 7.4671 0
M  V30 4041 H 391.902 0.0384219 7.79491 0
M  V30 4042 N 396.131 -1.37776 0.765217 0
M  V30 4043 C 397.542 -1.82521 0.392819 0
M  V30 4044 C 397.893 -1.63789 -1.08017 0
M  V30 4045 O 397.018 -1.14542 -1.83601 0
M  V30 4046 C 397.613 -3.31358 0.706214 0
M  V30 4047 C 396.172 -3.74406 0.386952 0
M  V30 4048 C 395.319 -2.60394 0.953422 0
M  V30 4049 H 398.27 -1.2634 0.960412 0
M  V30 4050 H 398.291 -3.80498 -0.0114706 0
M  V30 4051 H 397.803 -3.44959 1.77833 0
M  V30 4052 H 395.904 -3.66377 -0.678112 0
M  V30 4053 H 396.017 -4.70749 0.890636 0
M  V30 4054 H 394.381 -2.51878 0.378064 0
M  V30 4055 H 395.164 -2.76791 2.03081 0
M  V30 4056 N 397.609 -0.515225 -1.4894 0
M  V30 4057 C 398.855 0.016187 -2.03394 0
M  V30 4058 C 399.21 1.33377 -1.38666 0
M  V30 4059 O 398.503 1.84461 -0.518141 0
M  V30 4060 C 398.697 0.210595 -3.56779 0
M  V30 4061 C 398.526 -1.08659 -4.36375 0
M  V30 4062 C 397.296 -1.64237 -4.77864 0
M  V30 4063 C 399.494 -1.9935 -4.74093 0
M  V30 4064 N 397.476 -2.88398 -5.41941 0
M  V30 4065 C 398.847 -3.08088 -5.38035 0
M  V30 4066 C 400.902 -1.99856 -4.56029 0
M  V30 4067 C 399.605 -4.17377 -5.85823 0
M  V30 4068 C 401.631 -3.08129 -5.04787 0
M  V30 4069 C 400.993 -4.15586 -5.68742 0
M  V30 4070 H 397.092 -0.0352107 -0.781207 0
M  V30 4071 H 399.676 -0.693237 -1.8194 0
M  V30 4072 H 397.847 0.889088 -3.78087 0
M  V30 4073 H 399.579 0.740287 -3.97872 0
M  V30 4074 H 396.334 -1.18566 -4.58518 0
M  V30 4075 H 396.758 -3.51572 -5.78555 0
M  V30 4076 H 401.4 -1.18079 -4.05977 0
M  V30 4077 H 399.118 -4.99943 -6.34888 0
M  V30 4078 H 402.704 -3.09557 -4.92611 0
M  V30 4079 H 401.584 -4.97987 -6.05787 0
M  V30 4080 N 399.087 1.5561 -0.249682 0
M  V30 4081 C 400.02 2.17537 0.689408 0
M  V30 4082 C 400.998 1.12829 1.17083 0
M  V30 4083 O 402.182 1.41229 1.24846 0
M  V30 4084 C 399.309 2.77828 1.93725 0
M  V30 4085 C 398.355 3.95615 1.59346 0
M  V30 4086 S 399.188 5.30988 0.69367 0
M  V30 4087 C 400.344 5.94734 1.95046 0
M  V30 4088 H 400.577 2.96852 0.163142 0
M  V30 4089 H 398.11 1.54362 -0.0341166 0
M  V30 4090 H 400.068 3.13199 2.65361 0
M  V30 4091 H 398.729 1.98454 2.43465 0
M  V30 4092 H 397.922 4.364 2.52132 0
M  V30 4093 H 397.524 3.61535 0.957512 0
M  V30 4094 H 399.816 6.12419 2.89739 0
M  V30 4095 H 400.759 6.90109 1.58604 0
M  V30 4096 H 401.167 5.23832 2.10381 0
M  V30 4097 N 400.565 -0.0233959 1.57583 0
M  V30 4098 C 401.512 -1.02224 2.06927 0
M  V30 4099 C 402.482 -1.35575 0.959617 0
M  V30 4100 O 403.667 -1.45815 1.23055 0
M  V30 4101 C 400.807 -2.31636 2.5581 0
M  V30 4102 C 399.92 -2.04394 3.80588 0
M  V30 4103 C 399.055 -3.27717 4.18061 0
M  V30 4104 C 398.094 -2.96056 5.3574 0
M  V30 4105 N 397.231 -4.11847 5.68618 0
M  V30 4106 H 402.071 -0.594504 2.9201 0
M  V30 4107 H 399.608 -0.281921 1.44373 0
M  V30 4108 H 401.566 -3.07258 2.82221 0
M  V30 4109 H 400.196 -2.72122 1.73636 0
M  V30 4110 H 399.248 -1.19244 3.61227 0
M  V30 4111 H 400.56 -1.77042 4.66323 0
M  V30 4112 H 399.714 -4.11702 4.4563 0
M  V30 4113 H 398.453 -3.58188 3.30988 0
M  V30 4114 H 397.458 -2.10474 5.07918 0
M  V30 4115 H 398.683 -2.66857 6.24471 0
M  V30 4116 H 396.629 -4.42258 4.84504 0
M  V30 4117 H 396.546 -3.87938 6.48876 0
M  V30 4118 H 397.814 -4.96689 6.00766 0
M  V30 4119 N 402.043 -1.548 -0.295768 0
M  V30 4120 C 403.289 -1.74588 -1.03184 0
M  V30 4121 C 403.622 -0.532962 -1.86744 0
M  V30 4122 O 402.897 0.469872 -1.88739 0
M  V30 4123 C 403.18 -3.03791 -1.93347 0
M  V30 4124 C 403.033 -4.35392 -1.12933 0
M  V30 4125 C 404.352 -3.28892 -2.92435 0
M  V30 4126 H 401.471 -0.635221 -0.373715 0
M  V30 4127 H 404.113 -1.87519 -0.30606 0
M  V30 4128 H 402.263 -2.92898 -2.55232 0
M  V30 4129 H 403.935 -4.58211 -0.532943 0
M  V30 4130 H 402.178 -4.31642 -0.432168 0
M  V30 4131 H 402.849 -5.22074 -1.79284 0
M  V30 4132 H 405.325 -3.39429 -2.4068 0
M  V30 4133 H 404.201 -4.20603 -3.52682 0
M  V30 4134 H 404.462 -2.47437 -3.6637 0
M  V30 4135 N 403.521 0.559213 -1.47345 0
M  V30 4136 C 404.767 1.31614 -1.55079 0
M  V30 4137 C 405.122 1.91257 -0.209422 0
M  V30 4138 O 404.415 1.74796 0.784656 0
M  V30 4139 C 404.609 2.44853 -2.6035 0
M  V30 4140 C 404.438 1.96305 -4.04591 0
M  V30 4141 C 403.208 1.8024 -4.72061 0
M  V30 4142 C 405.406 1.50872 -4.91673 0
M  V30 4143 N 403.388 1.26011 -6.00828 0
M  V30 4144 C 404.759 1.08395 -6.10451 0
M  V30 4145 C 406.814 1.38905 -4.78132 0
M  V30 4146 C 405.517 0.551399 -7.17183 0
M  V30 4147 C 407.543 0.870518 -5.84958 0
M  V30 4148 C 406.905 0.455661 -7.02925 0
M  V30 4149 H 403.004 0.473712 -0.62219 0
M  V30 4150 H 405.588 0.634103 -1.84085 0
M  V30 4151 H 403.759 3.10589 -2.33215 0
M  V30 4152 H 405.491 3.11849 -2.57938 0
M  V30 4153 H 402.246 2.02895 -4.27937 0
M  V30 4154 H 402.67 1.00991 -6.69425 0
M  V30 4155 H 407.312 1.69591 -3.87297 0
M  V30 4156 H 405.03 0.232159 -8.07766 0
M  V30 4157 H 408.616 0.781507 -5.76527 0
M  V30 4158 H 407.496 0.0606414 -7.84177 0
M  V30 4159 N 404.999 1.35443 0.805782 0
M  V30 4160 C 406.227 1.31878 1.59423 0
M  V30 4161 C 406.642 -0.103562 1.88516 0
M  V30 4162 O 405.999 -1.05575 1.48863 0
M  V30 4163 C 406.05 2.12426 2.92502 0
M  V30 4164 O 405.771 3.49115 2.6467 0
M  V30 4165 C 407.272 2.16455 3.86862 0
M  V30 4166 H 404.492 0.453002 0.495005 0
M  V30 4167 H 407.036 1.78309 1.00131 0
M  V30 4168 H 405.191 1.69593 3.48306 0
M  V30 4169 H 405.605 3.90957 3.49647 0
M  V30 4170 H 407.079 2.77204 4.77349 0
M  V30 4171 H 407.556 1.16352 4.23508 0
M  V30 4172 H 408.162 2.59453 3.36993 0
M  V30 4173 N 406.477 -1.02803 1.19454 0
M  V30 4174 C 407.723 -1.76478 0.999171 0
M  V30 4175 C 408.056 -1.88456 -0.468828 0
M  V30 4176 O 407.331 -1.40198 -1.34814 0
M  V30 4177 C 407.614 -3.19044 1.66981 0
M  V30 4178 C 407.467 -3.14932 3.21151 0
M  V30 4179 C 408.786 -4.17456 1.39349 0
M  V30 4180 H 405.905 -0.640614 0.364393 0
M  V30 4181 H 408.547 -1.20005 1.47305 0
M  V30 4182 H 406.697 -3.67263 1.2669 0
M  V30 4183 H 408.369 -2.74605 3.70661 0
M  V30 4184 H 406.612 -2.52625 3.52652 0
M  V30 4185 H 407.283 -4.1566 3.63223 0
M  V30 4186 H 409.759 -3.77842 1.74283 0
M  V30 4187 H 408.635 -5.154 1.88823 0
M  V30 4188 H 408.896 -4.40949 0.318813 0
M  V30 4189 N 407.956 -0.998596 -1.21925 0
M  V30 4190 C 409.181 -0.696015 -1.95372 0
M  V30 4191 C 409.606 0.733826 -1.73195 0
M  V30 4192 O 408.964 1.50242 -1.01474 0
M  V30 4193 C 409.012 -1.01466 -3.4603 0
M  V30 4194 O 408.116 -0.116415 -4.12236 0
M  V30 4195 H 407.457 -0.259938 -0.611006 0
M  V30 4196 H 409.987 -1.33711 -1.54863 0
M  V30 4197 H 409.997 -0.958855 -3.96573 0
M  V30 4198 H 408.672 -2.05653 -3.61497 0
M  V30 4199 H 407.249 -0.228193 -3.72201 0
M  V30 4200 N 409.434 1.37368 -0.772513 0
M  V30 4201 C 410.845 1.8231 -0.402493 0
M  V30 4202 C 411.196 1.6436 1.07146 0
M  V30 4203 O 410.321 1.15514 1.82991 0
M  V30 4204 C 410.916 3.30979 -0.723776 0
M  V30 4205 C 409.475 3.74195 -0.406802 0
M  V30 4206 C 408.622 2.59885 -0.967218 0
M  V30 4207 H 411.573 1.25829 -0.967099 0
M  V30 4208 H 411.594 3.80499 -0.00870832 0
M  V30 4209 H 411.106 3.44011 -1.7966 0
M  V30 4210 H 409.207 3.66732 0.658673 0
M  V30 4211 H 409.32 4.7027 -0.915588 0
M  V30 4212 H 407.684 2.51674 -0.391416 0
M  V30 4213 H 408.467 2.7571 -2.04546 0
M  V30 4214 N 410.912 0.523116 1.48665 0
M  V30 4215 C 412.14 -0.0096312 2.06898 0
M  V30 4216 C 412.555 -1.28784 1.38059 0
M  V30 4217 O 411.912 -1.76453 0.465893 0
M  V30 4218 C 411.963 -0.244386 3.60673 0
M  V30 4219 O 411.684 0.983172 4.26925 0
M  V30 4220 C 413.185 -0.818289 4.35682 0
M  V30 4221 H 410.405 0.0304161 0.67031 0
M  V30 4222 H 412.949 0.726799 1.91149 0
M  V30 4223 H 411.104 -0.930847 3.76051 0
M  V30 4224 H 411.518 0.759653 5.1897 0
M  V30 4225 H 412.992 -0.93201 5.44075 0
M  V30 4226 H 413.469 -1.82153 3.99646 0
M  V30 4227 H 414.075 -0.168609 4.24966 0
M  V30 4228 N 412.39 -1.55475 0.257931 0
M  V30 4229 C 413.337 -2.21837 -0.636939 0
M  V30 4230 C 414.307 -1.18596 -1.16294 0
M  V30 4231 O 415.492 -1.47081 -1.21539 0
M  V30 4232 C 412.632 -2.9301 -1.82317 0
M  V30 4233 C 411.745 -4.10931 -1.33265 0
M  V30 4234 C 410.88 -4.69791 -2.47931 0
M  V30 4235 C 409.919 -5.7994 -1.95796 0
M  V30 4236 N 409.056 -6.32935 -3.0387 0
M  V30 4237 H 413.896 -2.9793 -0.0643591 0
M  V30 4238 H 411.433 -1.47086 -0.0200031 0
M  V30 4239 H 413.391 -3.3248 -2.52018 0
M  V30 4240 H 412.021 -2.1937 -2.36805 0
M  V30 4241 H 411.073 -3.76699 -0.52931 0
M  V30 4242 H 412.385 -4.90417 -0.910654 0
M  V30 4243 H 411.539 -5.11892 -3.25656 0
M  V30 4244 H 410.278 -3.89545 -2.93438 0
M  V30 4245 H 409.283 -5.37305 -1.16546 0
M  V30 4246 H 410.508 -6.62043 -1.51246 0
M  V30 4247 H 408.454 -5.55591 -3.48791 0
M  V30 4248 H 408.371 -7.07645 -2.66035 0
M  V30 4249 H 409.639 -6.79695 -3.81621 0
M  V30 4250 N 413.868 0.0150385 -1.57593 0
M  V30 4251 C 415.279 0.559832 -1.78109 0
M  V30 4252 C 415.63 1.74814 -0.890756 0
M  V30 4253 O 414.755 2.16216 -0.0892482 0
M  V30 4254 C 415.35 1.02238 -3.23006 0
M  V30 4255 C 413.909 1.51258 -3.44671 0
M  V30 4256 C 413.056 0.456955 -2.73509 0
M  V30 4257 H 416.007 -0.211169 -1.57289 0
M  V30 4258 H 416.028 1.88912 -3.30292 0
M  V30 4259 H 415.54 0.157302 -3.87781 0
M  V30 4260 H 413.641 2.39905 -2.8509 0
M  V30 4261 H 413.754 1.55042 -4.5332 0
M  V30 4262 H 412.118 0.915196 -2.37689 0
M  V30 4263 H 412.901 -0.398896 -3.40975 0
M  V30 4264 N 415.346 1.54954 0.287554 0
M  V30 4265 C 416.623 1.65569 1.04146 0
M  V30 4266 C 417.003 0.512672 2.0478 0
M  V30 4267 O 416.351 -0.489038 2.23205 0
M  V30 4268 C 416.561 3.04163 1.71131 0
M  V30 4269 C 417.909 3.61429 2.22832 0
M  V30 4270 O 418.933 3.06702 1.81141 0
M  V30 4271 O 417.792 4.57281 2.9926 0
M  V30 4272 H 414.886 0.671881 0.482188 0
M  V30 4273 H 417.432 1.67297 0.28457 0
M  V30 4274 H 416.204 3.78796 0.981303 0
M  V30 4275 H 415.827 3.06271 2.53543 0
M  V30 4276 N 416.824 -0.551391 1.4764 0
M  V30 4277 C 418.049 -1.33837 1.58437 0
M  V30 4278 C 418.474 -1.866 0.237063 0
M  V30 4279 O 417.832 -1.6328 -0.787994 0
M  V30 4280 C 417.88 -2.48014 2.61766 0
M  V30 4281 O 416.984 -3.50419 2.1744 0
M  V30 4282 H 416.325 -0.397299 0.532024 0
M  V30 4283 H 418.855 -0.665759 1.93465 0
M  V30 4284 H 418.865 -2.94503 2.82369 0
M  V30 4285 H 417.54 -2.08969 3.5959 0
M  V30 4286 H 416.117 -3.10196 2.06961 0
M  V30 4287 N 418.302 -1.35869 -0.798587 0
M  V30 4288 C 419.527 -1.32883 -1.59238 0
M  V30 4289 C 419.952 0.0894587 -1.87887 0
M  V30 4290 O 419.31 1.05869 -1.47178 0
M  V30 4291 C 419.358 -2.14892 -2.89575 0
M  V30 4292 O 418.462 -1.53512 -3.82763 0
M  V30 4293 H 417.803 -0.455236 -0.48338 0
M  V30 4294 H 420.333 -1.79024 -0.990539 0
M  V30 4295 H 420.343 -2.27139 -3.38928 0
M  V30 4296 H 419.018 -3.17998 -2.68049 0
M  V30 4297 H 417.595 -1.50153 -3.41334 0
M  V30 4298 N 419.78 1.02168 -1.19998 0
M  V30 4299 C 420.728 2.12717 -0.940967 0
M  V30 4300 C 421.722 1.69069 0.105841 0
M  V30 4301 O 422.928 1.79946 -0.0440583 0
M  V30 4302 H 419.303 0.695108 -0.28693 0
M  V30 4303 H 421.274 2.3175 -1.87975 0
M  V30 4304 C 420.023 3.44027 -0.504049 0
M  V30 4305 H 419.346 3.78036 -1.30112 0
M  V30 4306 H 420.786 4.22452 -0.361991 0
M  V30 4307 C 419.245 3.27678 0.782878 0
M  V30 4308 O 419.775 3.56949 1.84256 0
M  V30 4309 N 417.981 2.80943 0.742921 0
M  V30 4310 H 417.528 2.57322 -0.119687 0
M  V30 4311 H 417.486 2.70385 1.60435 0
M  V30 4312 N 421.258 1.00505 1.21394 0
M  V30 4313 C 422.168 0.574806 2.27449 0
M  V30 4314 C 423.184 -0.382206 1.6975 0
M  V30 4315 O 424.36 -0.246027 1.99892 0
M  V30 4316 C 421.425 -0.0917414 3.46579 0
M  V30 4317 C 420.486 0.909758 4.1955 0
M  V30 4318 C 419.719 0.274924 5.32991 0
M  V30 4319 O 419.942 -0.928254 5.62796 0
M  V30 4320 O 418.876 0.985877 5.93771 0
M  V30 4321 H 422.702 1.45744 2.66444 0
M  V30 4322 H 420.287 0.773923 1.27792 0
M  V30 4323 H 422.169 -0.464551 4.18832 0
M  V30 4324 H 420.844 -0.948755 3.09484 0
M  V30 4325 H 419.751 1.33372 3.49518 0
M  V30 4326 H 421.084 1.73636 4.60555 0
M  V30 4327 N 422.737 -1.36956 0.779787 0
M  V30 4328 C 423.983 -1.99787 0.348281 0
M  V30 4329 C 424.316 -1.61756 -1.07465 0
M  V30 4330 O 423.591 -0.867639 -1.74075 0
M  V30 4331 C 423.874 -3.56597 0.50104 0
M  V30 4332 C 423.727 -4.04513 1.96697 0
M  V30 4333 C 425.046 -4.40008 -0.0898097 0
M  V30 4334 H 422.165 -0.725796 0.128022 0
M  V30 4335 H 424.807 -1.62514 0.984331 0
M  V30 4336 H 422.957 -3.88479 -0.0404347 0
M  V30 4337 H 424.629 -3.83161 2.56876 0
M  V30 4338 H 422.872 -3.56408 2.47297 0
M  V30 4339 H 423.543 -5.1352 2.02486 0
M  V30 4340 H 426.019 -4.14431 0.372293 0
M  V30 4341 H 424.895 -5.4888 0.0471605 0
M  V30 4342 H 425.156 -4.26035 -1.18096 0
M  V30 4343 N 424.215 -0.530993 -1.48385 0
M  V30 4344 C 425.463 0.00273189 -2.021 0
M  V30 4345 C 425.784 1.34672 -1.41027 0
M  V30 4346 O 425.054 1.8724 -0.576012 0
M  V30 4347 H 423.634 0.00399774 -0.746989 0
M  V30 4348 H 426.296 -0.695054 -1.82085 0
M  V30 4349 H 425.392 0.11031 -3.11905 0
M  V30 4350 N 425.693 1.55336 -0.266172 0
M  V30 4351 C 426.918 2.04258 0.359661 0
M  V30 4352 C 427.343 1.14359 1.49344 0
M  V30 4353 O 426.701 0.140369 1.80756 0
M  V30 4354 C 426.749 3.50997 0.826635 0
M  V30 4355 O 425.853 3.64204 1.93466 0
M  V30 4356 H 425.194 0.659668 0.075727 0
M  V30 4357 H 427.724 2.00694 -0.39786 0
M  V30 4358 H 427.734 3.9219 1.12477 0
M  V30 4359 H 426.409 4.159 -0.00293032 0
M  V30 4360 H 424.986 3.34913 1.63974 0
M  V30 4361 N 427.171 -0.0066808 1.57599 0
M  V30 4362 C 428.101 -0.999296 2.11036 0
M  V30 4363 C 429.082 -1.36278 1.01795 0
M  V30 4364 O 430.267 -1.4477 1.29442 0
M  V30 4365 C 427.397 -2.29328 2.60818 0
M  V30 4366 C 426.351 -2.07159 3.74525 0
M  V30 4367 C 425.677 -3.42512 4.10596 0
M  V30 4368 C 426.977 -1.43959 5.02069 0
M  V30 4369 H 428.671 -0.554382 2.94223 0
M  V30 4370 H 426.217 -0.265221 1.41536 0
M  V30 4371 H 428.17 -2.99117 2.96828 0
M  V30 4372 H 426.894 -2.7592 1.74745 0
M  V30 4373 H 425.553 -1.39797 3.38899 0
M  V30 4374 H 425.201 -3.86795 3.21556 0
M  V30 4375 H 424.901 -3.28498 4.87199 0
M  V30 4376 H 426.425 -4.13628 4.4916 0
M  V30 4377 H 427.839 -2.03696 5.35893 0
M  V30 4378 H 426.236 -1.40452 5.83432 0
M  V30 4379 H 427.306 -0.407992 4.83181 0
M  V30 4380 N 428.649 -1.55105 -0.279332 0
M  V30 4381 C 429.897 -1.75066 -1.00977 0
M  V30 4382 C 430.218 -0.551276 -1.87045 0
M  V30 4383 O 429.488 0.433984 -1.91032 0
M  V30 4384 H 428.068 -0.645578 -0.375816 0
M  V30 4385 H 430.73 -1.92497 -0.305089 0
M  V30 4386 H 429.826 -2.64894 -1.65038 0
M  V30 4387 N 430.127 0.543554 -1.4793 0
M  V30 4388 C 431.352 1.32995 -1.59145 0
M  V30 4389 C 431.777 1.86472 -0.246956 0
M  V30 4390 O 431.135 1.63696 0.779324 0
M  V30 4391 C 431.183 2.46623 -2.63077 0
M  V30 4392 O 430.287 3.49261 -2.19295 0
M  V30 4393 H 429.628 0.394472 -0.534124 0
M  V30 4394 H 432.158 0.655489 -1.93816 0
M  V30 4395 H 432.168 2.93001 -2.83926 0
M  V30 4396 H 430.843 2.07059 -3.60693 0
M  V30 4397 H 429.42 3.09094 -2.08603 0
M  V30 4398 N 431.605 1.3629 0.791371 0
M  V30 4399 C 432.568 1.30309 1.88553 0
M  V30 4400 C 433.568 0.211204 1.59407 0
M  V30 4401 O 434.758 0.465865 1.67855 0
M  V30 4402 C 431.89 1.01956 3.25297 0
M  V30 4403 H 433.083 2.27614 1.95273 0
M  V30 4404 H 430.636 1.21035 0.988953 0
M  V30 4405 H 431.371 0.050998 3.2426 0
M  V30 4406 H 431.156 1.80968 3.4784 0
M  V30 4407 H 432.646 1.0037 4.05359 0
M  V30 4408 N 433.083 -1.0153 1.20538 0
M  V30 4409 C 434.331 -1.74803 1.01432 0
M  V30 4410 C 434.652 -1.8963 -0.454456 0
M  V30 4411 O 433.922 -1.43975 -1.32846 0
M  V30 4412 H 432.502 -0.647598 0.372324 0
M  V30 4413 H 435.164 -1.22402 1.5167 0
M  V30 4414 H 434.26 -2.75114 1.47373 0
M  V30 4415 N 434.561 -1.01147 -1.20859 0
M  V30 4416 C 435.786 -0.716698 -1.94623 0
M  V30 4417 C 436.211 0.715415 -1.73964 0
M  V30 4418 O 435.569 1.49157 -1.03062 0
M  V30 4419 C 435.617 -1.0513 -3.44935 0
M  V30 4420 O 434.721 -0.160131 -4.12089 0
M  V30 4421 H 434.062 -0.266404 -0.608214 0
M  V30 4422 H 436.592 -1.35346 -1.53436 0
M  V30 4423 H 436.602 -1.00086 -3.95533 0
M  V30 4424 H 435.277 -2.09475 -3.59295 0
M  V30 4425 H 433.854 -0.267657 -3.71938 0
M  V30 4426 N 436.039 1.36541 -0.78704 0
M  V30 4427 C 436.969 2.32659 -0.197992 0
M  V30 4428 C 437.95 1.56533 0.665697 0
M  V30 4429 O 439.135 1.84698 0.60001 0
M  V30 4430 C 436.265 3.40778 0.669901 0
M  V30 4431 C 435.219 4.27897 -0.0937039 0
M  V30 4432 C 434.545 5.27163 0.894629 0
M  V30 4433 C 435.845 5.06334 -1.28154 0
M  V30 4434 H 437.539 2.82171 -1.00099 0
M  V30 4435 H 435.085 1.35665 -0.482793 0
M  V30 4436 H 437.038 4.07008 1.09191 0
M  V30 4437 H 435.762 2.89827 1.50558 0
M  V30 4438 H 434.421 3.6322 -0.49666 0
M  V30 4439 H 434.069 4.72486 1.72527 0
M  V30 4440 H 433.769 5.86317 0.388149 0
M  V30 4441 H 435.293 5.96266 1.31525 0
M  V30 4442 H 436.707 5.65617 -0.93541 0
M  V30 4443 H 435.104 5.74888 -1.72115 0
M  V30 4444 H 436.174 4.38114 -2.07807 0
M  V30 4445 N 437.518 0.538854 1.48102 0
M  V30 4446 C 438.764 0.00801365 2.02798 0
M  V30 4447 C 439.097 -1.3309 1.41424 0
M  V30 4448 O 438.372 -1.86169 0.563158 0
M  V30 4449 C 438.655 -0.104589 3.59948 0
M  V30 4450 C 438.508 1.26012 4.31788 0
M  V30 4451 C 439.827 -0.827055 4.32259 0
M  V30 4452 H 436.946 0.00438624 0.736987 0
M  V30 4453 H 439.588 0.6976 1.7673 0
M  V30 4454 H 437.738 -0.691893 3.82289 0
M  V30 4455 H 439.41 1.88922 4.2084 0
M  V30 4456 H 437.653 1.83968 3.92859 0
M  V30 4457 H 438.324 1.13424 5.40221 0
M  V30 4458 H 440.8 -0.328578 4.14801 0
M  V30 4459 H 439.676 -0.87476 5.41885 0
M  V30 4460 H 439.937 -1.87927 4.0017 0
M  V30 4461 N 438.996 -1.55193 0.274407 0
M  V30 4462 C 440.244 -1.99187 -0.341902 0
M  V30 4463 C 440.565 -1.16422 -1.56431 0
M  V30 4464 O 439.835 -0.253573 -1.94252 0
M  V30 4465 H 438.415 -0.735721 -0.129317 0
M  V30 4466 H 441.077 -1.91168 0.379578 0
M  V30 4467 H 440.173 -3.05629 -0.632253 0
M  V30 4468 N 440.474 -0.00167713 -1.576 0
M  V30 4469 C 441.421 0.989195 -2.08527 0
M  V30 4470 C 442.391 1.34031 -0.981065 0
M  V30 4471 O 443.576 1.43839 -1.2536 0
M  V30 4472 C 440.716 2.27537 -2.59463 0
M  V30 4473 C 439.829 1.98314 -3.83791 0
M  V30 4474 C 438.964 3.21025 -4.23222 0
M  V30 4475 C 438.003 2.87495 -5.40382 0
M  V30 4476 N 437.14 4.02749 -5.75098 0
M  V30 4477 H 441.98 0.547973 -2.92919 0
M  V30 4478 H 439.517 0.258917 -1.44803 0
M  V30 4479 H 441.475 3.02729 -2.87073 0
M  V30 4480 H 440.105 2.69325 -1.77943 0
M  V30 4481 H 439.157 1.13482 -3.63078 0
M  V30 4482 H 440.469 1.69601 -4.69081 0
M  V30 4483 H 439.623 4.04561 -4.52123 0
M  V30 4484 H 438.362 3.52877 -3.36644 0
M  V30 4485 H 437.367 2.02367 -5.11202 0
M  V30 4486 H 438.592 2.56889 -6.28637 0
M  V30 4487 H 436.538 4.34494 -4.91478 0
M  V30 4488 H 436.455 3.77566 -6.54966 0
M  V30 4489 H 437.723 4.87068 -6.08592 0
M  V30 4490 N 441.952 1.55251 0.271103 0
M  V30 4491 C 443.363 1.66635 0.842007 0
M  V30 4492 C 443.714 0.594631 1.86972 0
M  V30 4493 O 442.839 -0.263532 2.14789 0
M  V30 4494 C 443.434 3.02082 1.53401 0
M  V30 4495 C 441.993 3.15487 2.05293 0
M  V30 4496 C 441.14 2.62438 0.895631 0
M  V30 4497 H 444.091 1.58629 0.0474117 0
M  V30 4498 H 444.112 2.95176 2.40107 0
M  V30 4499 H 443.624 3.80062 0.785786 0
M  V30 4500 H 441.725 2.42284 2.83071 0
M  V30 4501 H 441.838 4.22075 2.26693 0
M  V30 4502 H 440.202 2.19644 1.28953 0
M  V30 4503 H 440.985 3.42923 0.160878 0
M  V30 4504 N 443.43 -0.535701 1.48216 0
M  V30 4505 C 444.841 -1.11769 1.49548 0
M  V30 4506 C 445.192 -1.94442 0.26207 0
M  V30 4507 O 444.317 -2.06987 -0.631287 0
M  V30 4508 C 444.912 -2.03367 2.70975 0
M  V30 4509 C 443.471 -2.56795 2.75196 0
M  V30 4510 C 442.618 -1.33631 2.42977 0
M  V30 4511 H 445.569 -0.321232 1.55415 0
M  V30 4512 H 445.59 -2.87569 2.49167 0
M  V30 4513 H 445.102 -1.43169 3.60727 0
M  V30 4514 H 443.203 -3.20731 1.89638 0
M  V30 4515 H 443.316 -2.9632 3.76472 0
M  V30 4516 H 441.68 -1.6502 1.94012 0
M  V30 4517 H 442.463 -0.75194 3.34964 0
M  V30 4518 N 444.908 -1.36708 -0.784132 0
M  V30 4519 C 445.84 -1.27333 -1.90575 0
M  V30 4520 C 446.853 -0.191706 -1.61667 0
M  V30 4521 O 448.042 -0.446854 -1.72816 0
M  V30 4522 C 445.142 -0.943177 -3.25511 0
M  V30 4523 C 444.315 -2.12776 -3.82158 0
M  V30 4524 C 443.374 -1.76983 -4.95544 0
M  V30 4525 O 442.4 -2.49134 -5.11782 0
M  V30 4526 N 443.602 -0.706624 -5.76183 0
M  V30 4527 H 446.367 -2.23974 -1.99138 0
M  V30 4528 H 443.928 -1.30171 -0.962656 0
M  V30 4529 H 445.92 -0.684799 -3.98864 0
M  V30 4530 H 444.49 -0.0657333 -3.12531 0
M  V30 4531 H 443.71 -2.54863 -3.0073 0
M  V30 4532 H 444.998 -2.91904 -4.16737 0
M  V30 4533 H 444.396 -0.107643 -5.65598 0
M  V30 4534 H 442.953 -0.50808 -6.49817 0
M  V30 4535 N 446.386 1.0089 -1.21074 0
M  V30 4536 C 447.349 2.0775 -0.968129 0
M  V30 4537 C 448.349 1.6069 0.0593445 0
M  V30 4538 O 449.539 1.73293 -0.177525 0
M  V30 4539 C 446.671 3.37794 -0.459108 0
M  V30 4540 H 447.864 2.30707 -1.9161 0
M  V30 4541 H 445.417 1.17807 -1.02719 0
M  V30 4542 H 446.152 3.20516 0.49397 0
M  V30 4543 H 445.937 3.7328 -1.20019 0
M  V30 4544 H 447.427 4.16454 -0.309099 0
M  V30 4545 N 447.864 1.01787 1.20321 0
M  V30 4546 C 449.28 0.732951 1.41774 0
M  V30 4547 C 449.48 -0.686883 1.89431 0
M  V30 4548 O 448.536 -1.45446 2.06402 0
M  V30 4549 C 449.849 1.75973 2.43832 0
M  V30 4550 C 451.397 1.77802 2.57596 0
M  V30 4551 C 451.872 2.7941 3.62897 0
M  V30 4552 N 453.363 2.78157 3.70382 0
M  V30 4553 C 454.098 3.53434 4.51521 0
M  V30 4554 N 453.594 4.38392 5.36455 0
M  V30 4555 N 455.387 3.42026 4.46066 0
M  V30 4556 H 447.538 1.93447 0.877035 0
M  V30 4557 H 449.801 0.835712 0.447536 0
M  V30 4558 H 449.507 2.77699 2.15815 0
M  V30 4559 H 449.381 1.57292 3.4284 0
M  V30 4560 H 451.768 0.767602 2.84942 0
M  V30 4561 H 451.849 2.00557 1.58779 0
M  V30 4562 H 451.493 3.80616 3.36295 0
M  V30 4563 H 451.423 2.53916 4.61339 0
M  V30 4564 H 453.914 2.16531 3.09714 0
M  V30 4565 H 454.227 4.92596 5.95457 0
M  V30 4566 H 452.572 4.4247 5.35953 0
M  V30 4567 H 455.763 2.75075 3.78749 0
M  V30 4568 H 455.936 4.00946 5.09064 0
M  V30 4569 N 449.342 -1.36122 0.79427 0
M  V30 4570 C 450.252 -2.33769 0.197296 0
M  V30 4571 C 451.268 -1.61276 -0.653153 0
M  V30 4572 O 452.444 -1.9323 -0.5678 0
M  V30 4573 C 449.509 -3.40474 -0.654098 0
M  V30 4574 C 448.57 -4.28759 0.215411 0
M  V30 4575 C 447.803 -5.30368 -0.595443 0
M  V30 4576 O 448.026 -5.40211 -1.83107 0
M  V30 4577 O 446.96 -6.019 0.00721351 0
M  V30 4578 H 450.786 -2.86597 1.00478 0
M  V30 4579 H 448.371 -1.38676 0.555818 0
M  V30 4580 H 450.253 -4.05703 -1.13944 0
M  V30 4581 H 448.928 -2.89937 -1.43938 0
M  V30 4582 H 447.835 -3.66554 0.747615 0
M  V30 4583 H 449.168 -4.82661 0.964332 0
M  V30 4584 N 450.82 -0.546701 -1.47814 0
M  V30 4585 C 452.066 -0.0187684 -2.02791 0
M  V30 4586 C 452.399 1.32338 -1.42128 0
M  V30 4587 O 451.674 1.85867 -0.573023 0
M  V30 4588 C 451.957 0.0854985 -3.59998 0
M  V30 4589 C 451.81 -1.283 -4.31114 0
M  V30 4590 C 453.129 0.80412 -4.32691 0
M  V30 4591 H 450.248 -0.0082946 -0.736953 0
M  V30 4592 H 452.89 -0.706962 -1.76358 0
M  V30 4593 H 451.04 0.671609 -3.82651 0
M  V30 4594 H 452.712 -1.91151 -4.19832 0
M  V30 4595 H 450.955 -1.86049 -3.91878 0
M  V30 4596 H 451.626 -1.16287 -5.39612 0
M  V30 4597 H 454.102 0.306576 -4.14969 0
M  V30 4598 H 452.978 0.846011 -5.42341 0
M  V30 4599 H 453.239 1.85802 -4.01161 0
M  V30 4600 N 452.299 1.55045 -0.282633 0
M  V30 4601 C 453.524 2.04628 0.337977 0
M  V30 4602 C 453.949 1.15937 1.48123 0
M  V30 4603 O 453.307 0.159532 1.80597 0
M  V30 4604 C 453.355 3.51854 0.78936 0
M  V30 4605 O 452.459 3.66236 1.89592 0
M  V30 4606 H 451.8 0.660434 0.0687261 0
M  V30 4607 H 454.33 2.00261 -0.419124 0
M  V30 4608 H 454.34 3.93361 1.08311 0
M  V30 4609 H 453.015 4.15873 -0.0470419 0
M  V30 4610 H 451.592 3.36633 1.60413 0
M  V30 4611 N 453.777 0.010035 1.57597 0
M  V30 4612 C 455.025 -0.671371 1.90623 0
M  V30 4613 C 455.346 -1.73753 0.885151 0
M  V30 4614 O 454.616 -1.95752 -0.0760611 0
M  V30 4615 H 453.196 -0.250968 0.703579 0
M  V30 4616 H 455.858 0.0533325 1.94827 0
M  V30 4617 H 454.954 -1.13626 2.90681 0
M  V30 4618 N 455.255 -1.55392 -0.262866 0
M  V30 4619 C 456.666 -1.67079 -0.833158 0
M  V30 4620 C 457.017 -0.604539 -1.86654 0
M  V30 4621 O 456.142 0.252138 -2.14926 0
M  V30 4622 C 456.737 -3.02891 -1.51797 0
M  V30 4623 C 455.296 -3.16571 -2.03617 0
M  V30 4624 C 454.443 -2.62909 -0.881701 0
M  V30 4625 H 457.394 -1.58652 -0.0389986 0
M  V30 4626 H 457.415 -2.96445 -2.38538 0
M  V30 4627 H 456.927 -3.80473 -0.765619 0
M  V30 4628 H 455.028 -2.43782 -2.81782 0
M  V30 4629 H 455.141 -4.23271 -2.24452 0
M  V30 4630 H 453.505 -2.20324 -1.27786 0
M  V30 4631 H 454.288 -3.43003 -0.14269 0
M  V30 4632 N 456.733 0.527833 -1.48498 0
M  V30 4633 C 457.963 1.30633 -1.60058 0
M  V30 4634 C 458.371 1.87394 -0.260786 0
M  V30 4635 O 457.714 1.67227 0.760317 0
M  V30 4636 C 457.776 2.49361 -2.58958 0
M  V30 4637 C 457.44 2.13671 -4.03972 0
M  V30 4638 C 458.437 1.69217 -4.91591 0
M  V30 4639 C 456.122 2.24129 -4.49524 0
M  V30 4640 C 458.116 1.35689 -6.2279 0
M  V30 4641 C 455.803 1.90212 -5.80743 0
M  V30 4642 C 456.801 1.46063 -6.67199 0
M  V30 4643 O 456.489 1.12593 -7.95976 0
M  V30 4644 H 456.221 0.403444 -0.54241 0
M  V30 4645 H 458.775 0.643233 -1.95068 0
M  V30 4646 H 457.005 3.18659 -2.19073 0
M  V30 4647 H 458.694 3.11421 -2.6033 0
M  V30 4648 H 459.46 1.60607 -4.57636 0
M  V30 4649 H 455.339 2.57447 -3.82416 0
M  V30 4650 H 458.883 1.01157 -6.90227 0
M  V30 4651 H 454.78 1.98464 -6.14233 0
M  V30 4652 H 455.548 1.25972 -8.08748 0
M  V30 4653 N 458.211 1.37122 0.776871 0
M  V30 4654 C 459.159 1.32549 1.91138 0
M  V30 4655 C 460.153 0.215119 1.68029 0
M  V30 4656 O 461.359 0.382852 1.75881 0
M  V30 4657 H 457.734 0.412952 0.62847 0
M  V30 4658 H 459.705 2.28332 1.92112 0
M  V30 4659 C 458.454 1.14422 3.28333 0
M  V30 4660 H 457.777 1.99115 3.46689 0
M  V30 4661 H 459.217 1.15272 4.0803 0
M  V30 4662 C 457.676 -0.150434 3.36564 0
M  V30 4663 O 458.206 -1.13584 3.85307 0
M  V30 4664 N 456.412 -0.19939 2.89915 0
M  V30 4665 H 455.959 0.603142 2.5044 0
M  V30 4666 H 455.917 -1.06526 2.95803 0
M  V30 4667 N 459.689 -1.00246 1.21608 0
M  V30 4668 C 460.919 -1.77373 1.05935 0
M  V30 4669 C 461.327 -1.85059 -0.393686 0
M  V30 4670 O 460.67 -1.31289 -1.28487 0
M  V30 4671 C 460.732 -3.22705 1.58435 0
M  V30 4672 C 460.396 -3.38591 3.06929 0
M  V30 4673 C 461.393 -3.2667 4.04454 0
M  V30 4674 C 459.078 -3.6395 3.46187 0
M  V30 4675 C 461.072 -3.39877 5.39224 0
M  V30 4676 C 458.759 -3.768 4.81108 0
M  V30 4677 C 459.757 -3.6477 5.77436 0
M  V30 4678 O 459.445 -3.77206 7.09909 0
M  V30 4679 H 459.177 -0.56419 0.372378 0
M  V30 4680 H 461.731 -1.26971 1.61454 0
M  V30 4681 H 459.961 -3.74255 0.973147 0
M  V30 4682 H 461.65 -3.81515 1.38568 0
M  V30 4683 H 462.416 -3.06999 3.75468 0
M  V30 4684 H 458.295 -3.72395 2.71741 0
M  V30 4685 H 461.839 -3.30404 6.14393 0
M  V30 4686 H 457.736 -3.95975 5.09779 0
M  V30 4687 H 458.504 -3.94138 7.17355 0
M  V30 4688 N 461.167 -1.02423 -1.1978 0
M  V30 4689 C 462.416 -0.713265 -1.88667 0
M  V30 4690 C 462.729 0.7609 -1.80193 0
M  V30 4691 O 463.935 1.18473 -2.44288 0
M  V30 4692 C 462.391 -1.22545 -3.38394 0
M  V30 4693 C 461.999 -2.72706 -3.55437 0
M  V30 4694 C 463.743 -0.990257 -4.12788 0
M  V30 4695 C 461.65 -3.17367 -4.99031 0
M  V30 4696 H 460.58 -0.263105 -0.706606 0
M  V30 4697 H 463.231 -1.23792 -1.35454 0
M  V30 4698 H 461.613 -0.628732 -3.90977 0
M  V30 4699 H 462.787 -3.37993 -3.13205 0
M  V30 4700 H 461.102 -2.94453 -2.94425 0
M  V30 4701 H 463.699 -1.29926 -5.18675 0
M  V30 4702 H 464.042 0.0730761 -4.16236 0
M  V30 4703 H 464.575 -1.55074 -3.66329 0
M  V30 4704 H 461.314 -4.23009 -5.00743 0
M  V30 4705 H 460.834 -2.56805 -5.42044 0
M  V30 4706 H 462.513 -3.10441 -5.67658 0
M  V30 4707 N 462.645 1.35699 -0.801477 0
M  V30 4708 C 463.892 1.98913 -0.379459 0
M  V30 4709 C 464.22 1.63592 1.05204 0
M  V30 4710 O 463.475 0.888563 1.74365 0
M  V30 4711 C 463.774 3.53828 -0.504041 0
M  V30 4712 C 463.44 4.09002 -1.8981 0
M  V30 4713 C 462.102 4.23783 -2.27951 0
M  V30 4714 C 464.454 4.38939 -2.81038 0
M  V30 4715 C 461.782 4.65816 -3.56696 0
M  V30 4716 C 464.134 4.82409 -4.09224 0
M  V30 4717 C 462.798 4.95395 -4.4737 0
M  V30 4718 H 462.068 0.727874 -0.138854 0
M  V30 4719 H 464.715 1.61994 -1.02128 0
M  V30 4720 H 463.02 3.91175 0.221242 0
M  V30 4721 H 464.717 4.00687 -0.158361 0
M  V30 4722 H 461.307 3.97946 -1.59176 0
M  V30 4723 H 465.491 4.27077 -2.52821 0
M  V30 4724 H 460.747 4.74059 -3.86106 0
M  V30 4725 H 464.921 5.04535 -4.80018 0
M  V30 4726 H 462.548 5.27724 -5.47185 0
M  V30 4727 N 464.123 0.554532 1.47522 0
M  V30 4728 C 465.348 0.0322661 2.07375 0
M  V30 4729 C 465.773 -1.25079 1.40488 0
M  V30 4730 O 465.131 -1.74859 0.47896 0
M  V30 4731 C 465.179 -0.149397 3.6029 0
M  V30 4732 O 464.283 -1.21259 3.9417 0
M  V30 4733 H 463.624 0.0501228 0.662106 0
M  V30 4734 H 466.154 0.769452 1.8958 0
M  V30 4735 H 466.164 -0.364437 4.06369 0
M  V30 4736 H 464.839 0.787743 4.08372 0
M  V30 4737 H 463.416 -0.97825 3.5984 0
M  V30 4738 N 465.601 -1.54893 0.290851 0
M  V30 4739 C 466.878 -1.91991 -0.373989 0
M  V30 4740 C 467.258 -1.21694 -1.72493 0
M  V30 4741 O 466.606 -0.34917 -2.25816 0
M  V30 4742 C 466.816 -3.45419 -0.498703 0
M  V30 4743 C 468.164 -4.1748 -0.774298 0
M  V30 4744 O 469.188 -3.51398 -0.582908 0
M  V30 4745 O 468.047 -5.3445 -1.14129 0
M  V30 4746 H 465.141 -0.800593 -0.207315 0
M  V30 4747 H 467.687 -1.66297 0.338164 0
M  V30 4748 H 466.459 -3.88688 0.451392 0
M  V30 4749 H 466.082 -3.77117 -1.25972 0
M  V30 4750 N 467.08 -0.0183926 -1.57589 0
M  V30 4751 C 468.028 0.985111 -2.10709 0
M  V30 4752 C 469.022 1.34397 -1.0312 0
M  V30 4753 O 470.228 1.32746 -1.21567 0
M  V30 4754 H 466.603 0.335418 -0.673052 0
M  V30 4755 H 468.574 0.511689 -2.9398 0
M  V30 4756 C 467.323 2.26202 -2.64061 0
M  V30 4757 H 466.646 1.9946 -3.4649 0
M  V30 4758 H 468.086 2.94652 -3.04887 0
M  V30 4759 C 466.545 2.98444 -1.5631 0
M  V30 4760 O 467.075 3.90142 -0.956674 0
M  V30 4761 N 465.281 2.6059 -1.28612 0
M  V30 4762 H 464.828 1.86101 -1.78112 0
M  V30 4763 H 464.786 3.09238 -0.567406 0
M  V30 4764 N 468.558 1.5553 0.254621 0
M  V30 4765 C 469.488 1.9268 1.31897 0
M  V30 4766 C 470.469 0.790797 1.506 0
M  V30 4767 O 471.654 1.05045 1.63337 0
M  V30 4768 C 468.784 2.21477 2.67517 0
M  V30 4769 C 467.738 3.37256 2.63519 0
M  V30 4770 C 467.064 3.51576 4.02862 0
M  V30 4771 C 468.364 4.73157 2.21179 0
M  V30 4772 H 470.058 2.81832 1.01051 0
M  V30 4773 H 467.604 1.35599 0.484662 0
M  V30 4774 H 469.557 2.46055 3.42104 0
M  V30 4775 H 468.281 1.29144 2.99982 0
M  V30 4776 H 466.94 3.12675 1.9139 0
M  V30 4777 H 466.588 2.56676 4.32581 0
M  V30 4778 H 466.288 4.2943 4.01078 0
M  V30 4779 H 467.812 3.78467 4.79161 0
M  V30 4780 H 469.226 4.97158 2.85494 0
M  V30 4781 H 467.623 5.54058 2.30521 0
M  V30 4782 H 468.693 4.70739 1.16332 0
M  V30 4783 N 470.036 -0.519951 1.48776 0
M  V30 4784 C 471.447 -1.10177 1.50725 0
M  V30 4785 C 471.798 -1.94153 0.282678 0
M  V30 4786 O 470.923 -2.07645 -0.609298 0
M  V30 4787 C 471.518 -2.00482 2.73116 0
M  V30 4788 C 470.077 -2.53862 2.77905 0
M  V30 4789 C 469.224 -1.31047 2.44381 0
M  V30 4790 H 472.175 -0.30473 1.55747 0
M  V30 4791 H 472.196 -2.8491 2.52203 0
M  V30 4792 H 471.708 -1.39335 3.62225 0
M  V30 4793 H 469.809 -3.18702 1.93029 0
M  V30 4794 H 469.922 -2.9231 3.79594 0
M  V30 4795 H 468.286 -1.62953 1.95751 0
M  V30 4796 H 469.069 -0.71637 3.35743 0
M  V30 4797 N 471.514 -1.37532 -0.769588 0
M  V30 4798 C 472.424 -1.35668 -1.91393 0
M  V30 4799 C 473.44 -0.255954 -1.72107 0
M  V30 4800 O 474.616 -0.491704 -1.95305 0
M  V30 4801 C 471.681 -1.16481 -3.26547 0
M  V30 4802 C 470.742 -2.36212 -3.58472 0
M  V30 4803 C 469.975 -2.17932 -4.87177 0
M  V30 4804 O 470.198 -1.1647 -5.58382 0
M  V30 4805 O 469.132 -3.06167 -5.18214 0
M  V30 4806 H 472.958 -2.32055 -1.95918 0
M  V30 4807 H 470.543 -1.18284 -0.912641 0
M  V30 4808 H 472.425 -1.07778 -4.07384 0
M  V30 4809 H 471.1 -0.231687 -3.2287 0
M  V30 4810 H 470.007 -2.50488 -2.77861 0
M  V30 4811 H 471.34 -3.281 -3.66894 0
M  V30 4812 N 472.992 0.995999 -1.22138 0
M  V30 4813 C 474.403 1.54961 -1.04135 0
M  V30 4814 C 474.754 1.92159 0.396147 0
M  V30 4815 O 473.879 1.74435 1.28069 0
M  V30 4816 C 474.474 2.81581 -1.88408 0
M  V30 4817 C 473.033 3.33396 -1.74712 0
M  V30 4818 C 472.18 2.06509 -1.85066 0
M  V30 4819 H 475.131 0.817436 -1.36028 0
M  V30 4820 H 475.152 3.53822 -1.39966 0
M  V30 4821 H 474.664 2.54476 -2.93025 0
M  V30 4822 H 472.765 3.65416 -0.728159 0
M  V30 4823 H 472.878 4.04208 -2.57202 0
M  V30 4824 H 471.242 2.19925 -1.28472 0
M  V30 4825 H 472.025 1.81804 -2.91208 0
M  V30 4826 N 474.47 1.03057 1.19235 0
M  V30 4827 C 475.719 0.72326 1.88287 0
M  V30 4828 C 476.032 -0.751333 1.80594 0
M  V30 4829 O 477.238 -1.17176 2.44912 0
M  V30 4830 C 475.694 1.24338 3.3774 0
M  V30 4831 C 475.302 2.74587 3.53986 0
M  V30 4832 C 477.046 1.01213 4.12257 0
M  V30 4833 C 474.953 3.20009 4.97341 0
M  V30 4834 H 473.883 0.266848 0.705201 0
M  V30 4835 H 476.534 1.24509 1.34795 0
M  V30 4836 H 474.916 0.649457 3.90638 0
M  V30 4837 H 476.09 3.39649 3.11408 0
M  V30 4838 H 474.405 2.9601 2.9286 0
M  V30 4839 H 477.002 1.32675 5.17978 0
M  V30 4840 H 477.345 -0.051001 4.16269 0
M  V30 4841 H 477.878 1.57014 3.65501 0
M  V30 4842 H 474.617 4.25659 4.98493 0
M  V30 4843 H 474.137 2.59676 5.40674 0
M  V30 4844 H 475.816 3.13447 5.66003 0
M  V30 4845 N 475.948 -1.35272 0.808662 0
M  V30 4846 C 477.176 -2.02946 0.402537 0
M  V30 4847 C 477.591 -1.60937 -0.987147 0
M  V30 4848 O 476.948 -0.807917 -1.63643 0
M  V30 4849 C 476.999 -3.58317 0.47868 0
M  V30 4850 O 476.72 -3.98799 1.81358 0
M  V30 4851 C 478.221 -4.43251 0.0656281 0
M  V30 4852 H 475.441 -0.650831 0.163279 0
M  V30 4853 H 477.985 -1.72849 1.09286 0
M  V30 4854 H 476.14 -3.87055 -0.163415 0
M  V30 4855 H 476.554 -4.93451 1.77781 0
M  V30 4856 H 478.028 -5.51738 0.170017 0
M  V30 4857 H 478.505 -4.27913 -0.989278 0
M  V30 4858 H 479.111 -4.19813 0.68096 0
M  V30 4859 N 477.426 -0.562348 -1.47226 0
M  V30 4860 C 478.703 0.0256985 -1.95583 0
M  V30 4861 C 479.083 1.48032 -1.50498 0
M  V30 4862 O 478.431 2.15973 -0.746181 0
M  V30 4863 C 478.641 -0.125129 -3.48776 0
M  V30 4864 C 479.989 0.0175728 -4.24596 0
M  V30 4865 O 481.013 -0.0529341 -3.56161 0
M  V30 4866 O 479.872 0.170145 -5.46235 0
M  V30 4867 H 476.966 0.0612565 -0.824728 0
M  V30 4868 H 479.512 -0.629233 -1.57603 0
M  V30 4869 H 478.284 -1.13715 -3.74412 0
M  V30 4870 H 477.907 0.567178 -3.93534 0
M  V30 4871 N 478.904 1.54736 -0.299062 0
M  V30 4872 C 479.837 2.1962 0.619851 0
M  V30 4873 C 480.815 1.16496 1.13434 0
M  V30 4874 O 481.999 1.4513 1.2029 0
M  V30 4875 C 479.126 2.8385 1.84788 0
M  V30 4876 C 478.172 4.00484 1.46679 0
M  V30 4877 S 479.005 5.32926 0.524389 0
M  V30 4878 C 480.161 6.00638 1.76026 0
M  V30 4879 H 480.394 2.97221 0.0686177 0
M  V30 4880 H 477.927 1.54176 -0.0832085 0
M  V30 4881 H 479.885 3.21483 2.55263 0
M  V30 4882 H 478.546 2.06099 2.37028 0
M  V30 4883 H 477.739 4.44201 2.38121 0
M  V30 4884 H 477.341 3.64398 0.842008 0
M  V30 4885 H 479.633 6.21327 2.70109 0
M  V30 4886 H 480.576 6.94805 1.36569 0
M  V30 4887 H 480.984 5.3026 1.93609 0
M  V30 4888 N 480.382 0.0267497 1.57577 0
M  V30 4889 C 481.631 -0.651736 1.9088 0
M  V30 4890 C 481.944 -1.73427 0.904576 0
M  V30 4891 O 483.15 -2.46923 1.12877 0
M  V30 4892 C 481.606 -1.21048 3.38933 0
M  V30 4893 C 481.214 -0.161362 4.47709 0
M  V30 4894 C 482.958 -1.86562 3.81307 0
M  V30 4895 C 480.865 -0.731611 5.86857 0
M  V30 4896 H 479.795 -0.247198 0.712326 0
M  V30 4897 H 482.446 0.0916641 1.83271 0
M  V30 4898 H 480.828 -2.00542 3.41466 0
M  V30 4899 H 482.002 0.61094 4.56732 0
M  V30 4900 H 480.317 0.394877 4.14523 0
M  V30 4901 H 482.914 -2.30178 4.8262 0
M  V30 4902 H 483.257 -2.70735 3.16241 0
M  V30 4903 H 483.79 -1.13762 3.81186 0
M  V30 4904 H 480.529 0.0719329 6.55461 0
M  V30 4905 H 480.049 -1.47245 5.81445 0
M  V30 4906 H 481.728 -1.22208 6.35354 0
M  V30 4907 N 481.861 -1.55662 -0.24637 0
M  V30 4908 C 483.109 -1.77168 -0.972411 0
M  V30 4909 C 483.43 -0.590827 -1.85834 0
M  V30 4910 O 482.7 0.393365 -1.9191 0
M  V30 4911 H 481.28 -0.653405 -0.362038 0
M  V30 4912 H 483.942 -1.93101 -0.264189 0
M  V30 4913 H 483.038 -2.68335 -1.59382 0
M  V30 4914 N 483.339 0.512053 -1.4905 0
M  V30 4915 C 484.302 1.59704 -1.64399 0
M  V30 4916 C 485.302 1.52285 -0.516317 0
M  V30 4917 O 486.492 1.55635 -0.782527 0
M  V30 4918 C 483.624 2.9935 -1.63102 0
M  V30 4919 H 484.817 1.47428 -2.61161 0
M  V30 4920 H 482.37 0.735469 -1.37915 0
M  V30 4921 H 483.105 3.17116 -0.678836 0
M  V30 4922 H 482.89 3.06144 -2.44986 0
M  V30 4923 H 484.38 3.782 -1.77072 0
M  V30 4924 N 484.817 1.37938 0.762283 0
M  V30 4925 C 486.066 1.32989 1.51647 0
M  V30 4926 C 486.379 -0.0802922 1.95435 0
M  V30 4927 O 487.585 -0.252295 2.70325 0
M  V30 4928 C 486.041 2.33485 2.73885 0
M  V30 4929 C 485.649 3.80079 2.37157 0
M  V30 4930 C 487.393 2.37563 3.51801 0
M  V30 4931 C 485.3 4.72283 3.55954 0
M  V30 4932 H 484.23 0.494301 0.56937 0
M  V30 4933 H 486.881 1.63448 0.834083 0
M  V30 4934 H 485.263 1.96056 3.44061 0
M  V30 4935 H 486.437 4.26398 1.74704 0
M  V30 4936 H 484.752 3.79037 1.72395 0
M  V30 4937 H 487.349 3.0365 4.40114 0
M  V30 4938 H 487.692 1.39199 3.92338 0
M  V30 4939 H 488.225 2.73747 2.8863 0
M  V30 4940 H 484.964 5.7181 3.2049 0
M  V30 4941 H 484.484 4.30663 4.1748 0
M  V30 4942 H 486.163 4.89876 4.22647 0
M  V30 4943 N 486.295 -0.989507 1.22664 0
M  V30 4944 C 487.243 -2.10148 0.997035 0
M  V30 4945 C 488.237 -1.6929 -0.0609783 0
M  V30 4946 O 489.443 -1.79766 0.0917523 0
M  V30 4947 H 485.818 -0.687256 0.305259 0
M  V30 4948 H 487.789 -2.26685 1.94053 0
M  V30 4949 C 486.538 -3.4257 0.595085 0
M  V30 4950 H 485.861 -3.74453 1.40089 0
M  V30 4951 H 487.301 -4.21344 0.473869 0
M  V30 4952 C 485.76 -3.29638 -0.695725 0
M  V30 4953 O 486.29 -3.61709 -1.74727 0
M  V30 4954 N 484.496 -2.82814 -0.668173 0
M  V30 4955 H 484.043 -2.56914 0.18787 0
M  V30 4956 H 484.001 -2.74544 -1.5321 0
M  V30 4957 N 487.773 -1.03688 -1.18687 0
M  V30 4958 C 488.736 -0.629115 -2.20397 0
M  V30 4959 C 489.736 0.311495 -1.57754 0
M  V30 4960 O 490.926 0.0974107 -1.73927 0
M  V30 4961 C 488.058 0.0782231 -3.4081 0
M  V30 4962 H 489.251 -1.52915 -2.57987 0
M  V30 4963 H 486.804 -0.828988 -1.32505 0
M  V30 4964 H 487.539 0.992233 -3.08748 0
M  V30 4965 H 487.324 -0.597776 -3.87517 0
M  V30 4966 H 488.814 0.350156 -4.16129 0
M  V30 4967 N 489.251 1.34841 -0.815825 0
M  V30 4968 C 490.499 1.98107 -0.399744 0
M  V30 4969 C 490.82 1.65019 1.03894 0
M  V30 4970 O 490.09 0.937311 1.72021 0
M  V30 4971 H 488.67 0.732827 -0.144823 0
M  V30 4972 H 491.332 1.64599 -1.0437 0
M  V30 4973 H 490.428 3.07856 -0.512965 0
M  V30 4974 N 490.729 0.570148 1.46925 0
M  V30 4975 C 491.677 -0.183181 2.31878 0
M  V30 4976 C 492.671 -0.896721 1.43719 0
M  V30 4977 O 493.877 -0.816536 1.60414 0
M  V30 4978 H 490.252 -0.077944 0.74795 0
M  V30 4979 H 492.223 0.552312 2.93244 0
M  V30 4980 C 490.972 -1.19172 3.2664 0
M  V30 4981 H 490.295 -0.652088 3.94446 0
M  V30 4982 H 491.735 -1.68946 3.88887 0
M  V30 4983 C 490.194 -2.24627 2.51086 0
M  V30 4984 O 490.724 -3.31773 2.26472 0
M  V30 4985 N 488.93 -1.98898 2.11867 0
M  V30 4986 H 488.477 -1.11777 2.32086 0
M  V30 4987 H 488.435 -2.6967 1.61634 0
M  V30 4988 N 492.207 -1.54576 0.307264 0
M  V30 4989 C 493.618 -1.8579 -0.184121 0
M  V30 4990 C 493.969 -1.22914 -1.52927 0
M  V30 4991 O 493.094 -0.529126 -2.09831 0
M  V30 4992 C 493.689 -3.37081 -0.340862 0
M  V30 4993 C 492.248 -3.68304 -0.776465 0
M  V30 4994 C 491.395 -2.77076 0.111503 0
M  V30 4995 H 494.346 -1.49656 0.528078 0
M  V30 4996 H 494.367 -3.61922 -1.17443 0
M  V30 4997 H 493.879 -3.82815 0.638309 0
M  V30 4998 H 491.98 -3.28092 -1.76596 0
M  V30 4999 H 492.093 -4.75434 -0.591512 0
M  V30 5000 H 490.457 -2.51374 -0.410256 0
M  V30 5001 H 491.24 -3.25632 1.08714 0
M  V30 5002 N 493.685 -0.035106 -1.57561 0
M  V30 5003 C 494.933 0.64096 -1.91667 0
M  V30 5004 C 495.254 1.72323 -0.912681 0
M  V30 5005 O 494.524 1.95849 0.0449089 0
M  V30 5006 H 493.104 0.239743 -0.707483 0
M  V30 5007 H 495.766 -0.084321 -1.94718 0
M  V30 5008 H 494.862 1.08987 -2.92452 0
M  V30 5009 N 495.163 1.55791 0.238111 0
M  V30 5010 C 496.412 1.77234 0.962868 0
M  V30 5011 C 496.725 0.600661 1.86149 0
M  V30 5012 O 497.931 0.698315 2.62366 0
M  V30 5013 C 496.387 3.13808 1.76218 0
M  V30 5014 C 495.995 4.3865 0.910518 0
M  V30 5015 C 497.739 3.44585 2.47914 0
M  V30 5016 C 495.646 5.66252 1.70623 0
M  V30 5017 H 494.576 0.660731 0.36325 0
M  V30 5018 H 497.227 1.8221 0.217242 0
M  V30 5019 H 495.609 3.02963 2.55009 0
M  V30 5020 H 496.783 4.60507 0.164316 0
M  V30 5021 H 495.098 4.15271 0.30647 0
M  V30 5022 H 497.695 4.3714 3.07917 0
M  V30 5023 H 498.038 2.66314 3.19973 0
M  V30 5024 H 498.571 3.56685 1.76127 0
M  V30 5025 H 495.31 6.47369 1.02923 0
M  V30 5026 H 494.83 5.48483 2.42748 0
M  V30 5027 H 496.509 6.05829 2.27114 0
M  V30 5028 N 496.642 -0.504142 1.49319 0
M  V30 5029 C 497.605 -1.5883 1.65244 0
M  V30 5030 C 498.605 -1.52009 0.524386 0
M  V30 5031 O 499.795 -1.55218 0.79077 0
M  V30 5032 C 496.927 -2.98481 1.64687 0
M  V30 5033 H 498.12 -1.4604 2.61939 0
M  V30 5034 H 495.673 -0.728144 1.38303 0
M  V30 5035 H 496.408 -3.16751 0.695644 0
M  V30 5036 H 496.193 -3.0484 2.46607 0
M  V30 5037 H 497.683 -3.77256 1.79075 0
M  V30 5038 N 498.12 -1.38341 -0.754957 0
M  V30 5039 C 499.531 -1.30803 -1.3322 0
M  V30 5040 C 499.882 0.0368 -1.96165 0
M  V30 5041 O 499.007 0.938844 -1.94974 0
M  V30 5042 C 499.602 -2.3688 -2.42225 0
M  V30 5043 C 498.161 -2.32925 -2.95674 0
M  V30 5044 C 497.308 -2.19819 -1.69042 0
M  V30 5045 H 500.259 -1.48719 -0.553937 0
M  V30 5046 H 500.28 -2.02517 -3.22129 0
M  V30 5047 H 499.792 -3.34747 -1.96383 0
M  V30 5048 H 497.893 -1.38635 -3.45848 0
M  V30 5049 H 498.006 -3.27008 -3.50146 0
M  V30 5050 H 496.37 -1.66648 -1.92615 0
M  V30 5051 H 497.153 -3.19625 -1.25279 0
M  V30 5052 N 499.598 0.982988 -1.23187 0
M  V30 5053 C 500.528 2.09301 -1.03515 0
M  V30 5054 C 501.509 1.70035 0.0471136 0
M  V30 5055 O 502.694 1.93847 -0.117029 0
M  V30 5056 C 499.824 3.4167 -0.622791 0
M  V30 5057 C 498.778 3.94828 -1.65211 0
M  V30 5058 C 498.104 5.23362 -1.09527 0
M  V30 5059 C 499.404 4.2439 -3.04451 0
M  V30 5060 H 501.098 2.26016 -1.96359 0
M  V30 5061 H 498.644 1.08611 -0.945501 0
M  V30 5062 H 500.597 4.18746 -0.472233 0
M  V30 5063 H 499.321 3.24811 0.341329 0
M  V30 5064 H 497.98 3.19895 -1.79061 0
M  V30 5065 H 497.628 5.02852 -0.122211 0
M  V30 5066 H 497.328 5.59895 -1.783 0
M  V30 5067 H 498.852 6.03062 -0.956511 0
M  V30 5068 H 500.266 4.92225 -2.93917 0
M  V30 5069 H 498.663 4.72118 -3.70438 0
M  V30 5070 H 499.733 3.31765 -3.53638 0
M  V30 5071 N 501.076 1.04316 1.18135 0
M  V30 5072 C 502.323 0.74802 1.88178 0
M  V30 5073 C 502.651 -0.72441 1.80506 0
M  V30 5074 O 501.906 -1.54463 1.20165 0
M  V30 5075 C 502.205 1.16271 3.37958 0
M  V30 5076 C 501.871 2.63585 3.65833 0
M  V30 5077 C 500.533 3.03829 3.73151 0
M  V30 5078 C 502.885 3.58822 3.78016 0
M  V30 5079 C 500.213 4.38194 3.90132 0
M  V30 5080 C 502.565 4.92909 3.96514 0
M  V30 5081 C 501.229 5.3282 4.02068 0
M  V30 5082 H 500.499 0.27372 0.688592 0
M  V30 5083 H 503.146 1.30863 1.39811 0
M  V30 5084 H 501.451 0.520938 3.88321 0
M  V30 5085 H 503.148 0.911672 3.90499 0
M  V30 5086 H 499.738 2.31414 3.60757 0
M  V30 5087 H 503.922 3.28875 3.71692 0
M  V30 5088 H 499.178 4.68631 3.92677 0
M  V30 5089 H 503.352 5.66606 4.04883 0
M  V30 5090 H 500.979 6.36943 4.14979 0
M  V30 5091 N 502.554 -1.34406 0.822964 0
M  V30 5092 C 503.802 -1.97892 0.410245 0
M  V30 5093 C 504.123 -1.65567 -1.03017 0
M  V30 5094 O 503.393 -0.94642 -1.71522 0
M  V30 5095 H 501.973 -0.732049 0.148707 0
M  V30 5096 H 504.635 -1.64043 1.05242 0
M  V30 5097 H 503.731 -3.07579 0.529284 0
M  V30 5098 N 504.032 -0.577932 -1.46621 0
M  V30 5099 C 505.443 -0.150071 -1.86096 0
M  V30 5100 C 505.794 1.28563 -1.48209 0
M  V30 5101 O 504.919 1.97036 -0.894754 0
M  V30 5102 C 505.514 -0.265576 -3.37758 0
M  V30 5103 C 504.073 0.10738 -3.76247 0
M  V30 5104 C 503.22 -0.603711 -2.70649 0
M  V30 5105 H 506.171 -0.786438 -1.37844 0
M  V30 5106 H 506.192 0.510352 -3.77062 0
M  V30 5107 H 505.704 -1.3106 -3.65301 0
M  V30 5108 H 503.805 1.15272 -3.54321 0
M  V30 5109 H 503.918 -0.26561 -4.78363 0
M  V30 5110 H 502.282 -0.0444884 -2.54661 0
M  V30 5111 H 503.065 -1.65029 -3.01032 0
M  V30 5112 N 505.51 1.54411 -0.315457 0
M  V30 5113 C 506.473 2.22713 0.54142 0
M  V30 5114 C 507.473 1.2179 1.04995 0
M  V30 5115 O 508.663 1.46426 0.943667 0
M  V30 5116 C 505.795 2.92485 1.75116 0
M  V30 5117 H 506.988 2.99849 -0.0555508 0
M  V30 5118 H 504.541 1.56159 -0.0664453 0
M  V30 5119 H 505.276 2.19466 2.38758 0
M  V30 5120 H 505.061 3.66483 1.39401 0
M  V30 5121 H 506.551 3.44548 2.35959 0
M  V30 5122 N 506.988 0.0434614 1.5754 0
M  V30 5123 C 507.921 -0.968729 2.06618 0
M  V30 5124 C 508.899 -1.30868 0.965 0
M  V30 5125 O 510.083 -1.42288 1.23638 0
M  V30 5126 C 507.21 -2.28486 2.50023 0
M  V30 5127 C 506.256 -2.09851 3.71302 0
M  V30 5128 S 507.089 -1.38401 5.17306 0
M  V30 5129 C 508.245 -2.71354 5.64019 0
M  V30 5130 H 508.478 -0.551021 2.92149 0
M  V30 5131 H 506.011 -0.168607 1.53477 0
M  V30 5132 H 507.969 -3.04142 2.75695 0
M  V30 5133 H 506.63 -2.67387 1.64812 0
M  V30 5134 H 505.823 -3.07184 3.99567 0
M  V30 5135 H 505.425 -1.42336 3.45856 0
M  V30 5136 H 507.717 -3.67549 5.69134 0
M  V30 5137 H 508.66 -2.47734 6.6335 0
M  V30 5138 H 509.068 -2.77259 4.91719 0
M  V30 5139 N 508.466 -1.55915 -0.229846 0
M  V30 5140 C 509.696 -1.82352 -0.971152 0
M  V30 5141 C 510.104 -0.619231 -1.7878 0
M  V30 5142 O 509.447 0.421597 -1.78797 0
M  V30 5143 C 509.509 -3.02399 -1.9441 0
M  V30 5144 C 509.173 -4.37739 -1.31277 0
M  V30 5145 C 510.17 -5.15074 -0.706757 0
M  V30 5146 C 507.855 -4.84454 -1.32702 0
M  V30 5147 C 509.849 -6.37281 -0.123413 0
M  V30 5148 C 507.536 -6.06605 -0.739831 0
M  V30 5149 C 508.534 -6.82858 -0.139071 0
M  V30 5150 O 508.222 -8.027 0.439007 0
M  V30 5151 H 507.954 -0.61035 -0.290601 0
M  V30 5152 H 510.508 -2.03839 -0.252746 0
M  V30 5153 H 508.738 -2.76709 -2.70128 0
M  V30 5154 H 510.427 -3.15779 -2.55026 0
M  V30 5155 H 511.193 -4.80093 -0.688131 0
M  V30 5156 H 507.072 -4.25081 -1.78402 0
M  V30 5157 H 510.616 -6.96741 0.346124 0
M  V30 5158 H 506.513 -6.4106 -0.755841 0
M  V30 5159 H 507.281 -8.17824 0.332521 0
M  V30 5160 N 509.944 0.496216 -1.49584 0
M  V30 5161 C 510.854 1.62352 -1.69349 0
M  V30 5162 C 511.87 1.64184 -0.576147 0
M  V30 5163 O 513.046 1.82517 -0.85144 0
M  V30 5164 C 510.111 2.98698 -1.76013 0
M  V30 5165 C 509.172 3.07454 -2.99617 0
M  V30 5166 C 508.405 4.37296 -3.05953 0
M  V30 5167 O 508.628 5.2637 -2.19752 0
M  V30 5168 O 507.562 4.51124 -3.9846 0
M  V30 5169 H 511.388 1.48606 -2.64859 0
M  V30 5170 H 508.973 0.673022 -1.33382 0
M  V30 5171 H 510.855 3.79725 -1.82721 0
M  V30 5172 H 509.53 3.12696 -0.836828 0
M  V30 5173 H 508.437 2.25597 -2.98424 0
M  V30 5174 H 509.77 2.98385 -3.91443 0
M  V30 5175 N 511.423 1.38739 0.74761 0
M  V30 5176 C 512.672 1.3459 1.50228 0
M  V30 5177 C 512.985 -0.0595592 1.95509 0
M  V30 5178 O 514.191 -0.22361 2.70578 0
M  V30 5179 C 512.647 2.36377 2.71393 0
M  V30 5180 C 512.255 3.82573 2.33113 0
M  V30 5181 C 513.999 2.41281 3.49262 0
M  V30 5182 C 511.906 4.76032 3.50924 0
M  V30 5183 H 510.836 0.500312 0.564096 0
M  V30 5184 H 513.487 1.64324 0.8167 0
M  V30 5185 H 511.869 1.99694 3.41962 0
M  V30 5186 H 513.043 4.28227 1.70171 0
M  V30 5187 H 511.358 3.80844 1.68365 0
M  V30 5188 H 513.955 3.08301 4.36869 0
M  V30 5189 H 514.298 1.43353 3.9084 0
M  V30 5190 H 514.831 2.76793 2.85711 0
M  V30 5191 H 511.57 5.75177 3.14408 0
M  V30 5192 H 511.09 4.35066 4.12889 0
M  V30 5193 H 512.769 4.94331 4.17427 0
M  V30 5194 N 512.901 -0.976442 1.23707 0
M  V30 5195 C 514.129 -1.75341 1.09833 0
M  V30 5196 C 514.544 -1.8553 -0.349885 0
M  V30 5197 O 513.901 -1.33732 -1.24185 0
M  V30 5198 C 513.952 -3.17833 1.72233 0
M  V30 5199 O 513.673 -3.08167 3.11391 0
M  V30 5200 C 515.174 -4.11906 1.63853 0
M  V30 5201 H 512.394 -0.550137 0.384175 0
M  V30 5202 H 514.938 -1.2265 1.63638 0
M  V30 5203 H 513.093 -3.67538 1.22452 0
M  V30 5204 H 513.507 -3.97897 3.41729 0
M  V30 5205 H 514.981 -5.09579 2.12211 0
M  V30 5206 H 515.458 -4.35109 0.598092 0
M  V30 5207 H 516.064 -3.68107 2.13019 0
M  V30 5208 N 514.379 -1.04941 -1.1758 0
M  V30 5209 C 515.326 -0.648155 -2.21512 0
M  V30 5210 C 516.296 0.348431 -1.62404 0
M  V30 5211 O 517.481 0.240419 -1.89279 0
M  V30 5212 C 514.621 -0.0264291 -3.4509 0
M  V30 5213 C 513.734 -1.07154 -4.185 0
M  V30 5214 C 512.869 -0.417403 -5.29558 0
M  V30 5215 C 511.908 -1.447 -5.94751 0
M  V30 5216 N 511.045 -0.817203 -6.97328 0
M  V30 5217 H 515.885 -1.53891 -2.55189 0
M  V30 5218 H 513.422 -0.769699 -1.25356 0
M  V30 5219 H 515.38 0.351456 -4.15717 0
M  V30 5220 H 514.01 0.827802 -3.12005 0
M  V30 5221 H 513.062 -1.56728 -3.46613 0
M  V30 5222 H 514.374 -1.8532 -4.63096 0
M  V30 5223 H 513.528 0.0142061 -6.06698 0
M  V30 5224 H 512.267 0.396265 -4.86087 0
M  V30 5225 H 511.272 -1.88865 -5.16343 0
M  V30 5226 H 512.497 -2.26252 -6.40302 0
M  V30 5227 H 510.443 -0.0239995 -6.55996 0
M  V30 5228 H 510.36 -1.53644 -7.40223 0
M  V30 5229 H 511.628 -0.410283 -7.7842 0
M  V30 5230 N 515.857 1.33968 -0.830081 0
M  V30 5231 C 516.787 2.31911 -0.271911 0
M  V30 5232 C 517.768 1.58571 0.61556 0
M  V30 5233 O 518.953 1.86514 0.540946 0
M  V30 5234 C 516.083 3.42737 0.561146 0
M  V30 5235 C 515.037 4.27383 -0.229789 0
M  V30 5236 C 514.363 5.29742 0.726463 0
M  V30 5237 C 515.663 5.02 -1.44197 0
M  V30 5238 H 517.357 2.78844 -1.09025 0
M  V30 5239 H 514.903 1.34061 -0.52571 0
M  V30 5240 H 516.856 4.10276 0.961867 0
M  V30 5241 H 515.58 2.94471 1.41261 0
M  V30 5242 H 514.239 3.61456 -0.611964 0
M  V30 5243 H 513.887 4.77736 1.57408 0
M  V30 5244 H 513.587 5.87255 0.20142 0
M  V30 5245 H 515.111 6.00149 1.12489 0
M  V30 5246 H 516.525 5.62355 -1.11488 0
M  V30 5247 H 514.922 5.69122 -1.90317 0
M  V30 5248 H 515.992 4.31281 -2.2164 0
M  V30 5249 N 517.335 0.585699 1.46312 0
M  V30 5250 C 518.583 0.072278 2.01971 0
M  V30 5251 C 518.904 -1.29345 1.45928 0
M  V30 5252 O 518.174 -1.84973 0.645109 0
M  V30 5253 H 516.754 0.023729 0.746623 0
M  V30 5254 H 519.416 0.762155 1.7938 0
M  V30 5255 H 518.512 0.00552767 3.121 0
M  V30 5256 N 518.813 -1.54241 0.323641 0
M  V30 5257 C 519.743 -2.27289 -0.534993 0
M  V30 5258 C 520.724 -1.28087 -1.11927 0
M  V30 5259 O 521.909 -1.56899 -1.14439 0
M  V30 5260 C 519.039 -3.03075 -1.69596 0
M  V30 5261 C 517.993 -4.09614 -1.24098 0
M  V30 5262 C 517.319 -4.73242 -2.4889 0
M  V30 5263 C 518.619 -5.21087 -0.355789 0
M  V30 5264 H 520.313 -2.99308 0.0743257 0
M  V30 5265 H 517.859 -1.43952 0.0371874 0
M  V30 5266 H 519.812 -3.52907 -2.30293 0
M  V30 5267 H 518.536 -2.28673 -2.33187 0
M  V30 5268 H 517.195 -3.60666 -0.656945 0
M  V30 5269 H 516.843 -3.95455 -3.10845 0
M  V30 5270 H 516.543 -5.45209 -2.19138 0
M  V30 5271 H 518.067 -5.25848 -3.10348 0
M  V30 5272 H 519.481 -5.66675 -0.869042 0
M  V30 5273 H 517.878 -5.9991 -0.151045 0
M  V30 5274 H 518.948 -4.81005 0.613339 0
M  V30 5275 N 520.291 -0.0518155 -1.57515 0
M  V30 5276 C 521.254 0.907547 -2.10467 0
M  V30 5277 C 522.254 1.23947 -1.02439 0
M  V30 5278 O 523.444 1.17604 -1.2851 0
M  V30 5279 C 520.576 2.21723 -2.58944 0
M  V30 5280 H 521.769 0.44851 -2.96527 0
M  V30 5281 H 519.322 0.196598 -1.55059 0
M  V30 5282 H 520.057 2.72206 -1.76279 0
M  V30 5283 H 519.842 1.98935 -3.37886 0
M  V30 5284 H 521.332 2.90441 -3.00056 0
M  V30 5285 N 521.769 1.56035 0.221574 0
M  V30 5286 C 522.732 1.91584 1.2581 0
M  V30 5287 C 523.732 0.794425 1.39805 0
M  V30 5288 O 524.922 1.06217 1.38071 0
M  V30 5289 C 522.054 2.16663 2.63192 0
M  V30 5290 H 523.247 2.8429 0.954935 0
M  V30 5291 H 520.8 1.49316 0.461988 0
M  V30 5292 H 521.535 1.26508 2.98607 0
M  V30 5293 H 521.32 2.98358 2.5441 0
M  V30 5294 H 522.81 2.45262 3.37988 0
M  V30 5295 N 523.247 -0.488276 1.49845 0
M  V30 5296 C 524.475 -1.26527 1.63702 0
M  V30 5297 C 524.89 -1.8618 0.313447 0
M  V30 5298 O 524.247 -1.68432 -0.702624 0
M  V30 5299 C 524.298 -2.3864 2.71538 0
M  V30 5300 O 524.019 -1.81437 3.98763 0
M  V30 5301 C 525.52 -3.29805 2.96215 0
M  V30 5302 H 522.74 -0.383295 0.55075 0
M  V30 5303 H 525.284 -0.584779 1.95961 0
M  V30 5304 H 523.439 -3.02496 2.42023 0
M  V30 5305 H 523.853 -2.55135 4.58265 0
M  V30 5306 H 525.327 -4.04722 3.75372 0
M  V30 5307 H 525.804 -3.87563 2.06619 0
M  V30 5308 H 526.41 -2.71703 3.27196 0
M  V30 5309 N 524.725 -1.39134 -0.740242 0
M  V30 5310 C 525.673 -1.3757 -1.87556 0
M  V30 5311 C 526.667 -0.259593 -1.67399 0
M  V30 5312 O 527.873 -0.429349 -1.74804 0
M  V30 5313 H 524.248 -0.42947 -0.6173 0
M  V30 5314 H 526.219 -2.33345 -1.85991 0
M  V30 5315 C 524.968 -1.23087 -3.25184 0
M  V30 5316 H 524.291 -2.08237 -3.41288 0
M  V30 5317 H 525.731 -1.26049 -4.0483 0
M  V30 5318 C 524.19 0.0611471 -3.36845 0
M  V30 5319 O 524.72 1.03328 -3.88183 0
M  V30 5320 N 522.926 0.122454 -2.90342 0
M  V30 5321 H 522.473 -0.669329 -2.48752 0
M  V30 5322 H 522.431 0.986463 -2.98523 0
M  V30 5323 N 526.204 0.969867 -1.24223 0
M  V30 5324 C 527.167 2.04564 -1.03373 0
M  V30 5325 C 528.167 1.60798 0.00819206 0
M  V30 5326 O 529.357 1.72641 -0.232567 0
M  V30 5327 C 526.489 3.36163 -0.566343 0
M  V30 5328 H 527.682 2.24494 -1.98853 0
M  V30 5329 H 525.235 1.1448 -1.06415 0
M  V30 5330 H 525.97 3.21925 0.391751 0
M  V30 5331 H 525.755 3.69273 -1.31834 0
M  V30 5332 H 527.245 4.1526 -0.441435 0
M  V30 5333 N 527.682 1.05563 1.17022 0
M  V30 5334 C 528.63 0.653887 2.2322 0
M  V30 5335 C 529.624 -0.326642 1.66221 0
M  V30 5336 O 530.83 -0.192301 1.7897 0
M  V30 5337 H 527.205 0.193297 0.726733 0
M  V30 5338 H 529.176 1.5596 2.54399 0
M  V30 5339 C 527.925 0.0485434 3.47666 0
M  V30 5340 H 527.248 0.79413 3.91834 0
M  V30 5341 H 528.688 -0.195133 4.23551 0
M  V30 5342 C 527.147 -1.20583 3.14581 0
M  V30 5343 O 527.677 -2.29475 3.29703 0
M  V30 5344 N 525.883 -1.10493 2.68774 0
M  V30 5345 H 525.43 -0.218795 2.56669 0
M  V30 5346 H 525.388 -1.94507 2.47011 0
M  V30 5347 N 529.16 -1.33526 0.837174 0
M  V30 5348 C 530.437 -1.92369 0.354065 0
M  V30 5349 C 530.817 -1.76348 -1.16038 0
M  V30 5350 O 530.165 -1.15083 -1.97403 0
M  V30 5351 C 530.375 -3.39728 0.799101 0
M  V30 5352 C 531.723 -4.16877 0.806139 0
M  V30 5353 O 532.747 -3.48373 0.742597 0
M  V30 5354 O 531.606 -5.39166 0.892345 0
M  V30 5355 H 528.7 -0.820952 0.0998378 0
M  V30 5356 H 531.246 -1.42409 0.922913 0
M  V30 5357 H 530.018 -3.45254 1.84162 0
M  V30 5358 H 529.641 -3.97062 0.206731 0
M  V30 5359 N 530.638 -0.59345 -1.46 0
M  V30 5360 C 531.887 -0.0808084 -2.01538 0
M  V30 5361 C 532.2 1.29112 -1.46934 0
M  V30 5362 O 533.406 1.8957 -1.94359 0
M  V30 5363 C 531.862 -0.0938311 -3.59778 0
M  V30 5364 C 531.47 -1.46474 -4.23379 0
M  V30 5365 C 533.214 0.364306 -4.22934 0
M  V30 5366 C 531.121 -1.4349 -5.73729 0
M  V30 5367 H 530.051 -0.0264407 -0.753536 0
M  V30 5368 H 532.702 -0.746689 -1.67621 0
M  V30 5369 H 531.084 0.638427 -3.9082 0
M  V30 5370 H 532.258 -2.21758 -4.03931 0
M  V30 5371 H 530.573 -1.86379 -3.7236 0
M  V30 5372 H 533.17 0.405584 -5.3316 0
M  V30 5373 H 533.513 1.38409 -3.92618 0
M  V30 5374 H 534.046 -0.31423 -3.96557 0
M  V30 5375 H 530.785 -2.43184 -6.08722 0
M  V30 5376 H 530.305 -0.724431 -5.95409 0
M  V30 5377 H 531.984 -1.15243 -6.36654 0
M  V30 5378 N 532.116 1.54067 -0.331816 0
M  V30 5379 C 533.362 2.01713 0.261395 0
M  V30 5380 C 533.717 1.21566 1.49129 0
M  V30 5381 O 533.01 0.291867 1.89364 0
M  V30 5382 C 533.204 3.51634 0.639392 0
M  V30 5383 C 533.033 4.46295 -0.552321 0
M  V30 5384 C 531.803 4.94185 -1.05399 0
M  V30 5385 C 534.001 4.94677 -1.40711 0
M  V30 5386 N 531.983 5.7277 -2.20925 0
M  V30 5387 C 533.354 5.71267 -2.40943 0
M  V30 5388 C 535.409 4.76805 -1.43392 0
M  V30 5389 C 534.112 6.31889 -3.4367 0
M  V30 5390 C 536.138 5.38268 -2.44994 0
M  V30 5391 C 535.5 6.14716 -3.43952 0
M  V30 5392 H 531.599 0.77975 0.0592729 0
M  V30 5393 H 534.183 1.88974 -0.468726 0
M  V30 5394 H 532.354 3.64603 1.33863 0
M  V30 5395 H 534.086 3.86038 1.21478 0
M  V30 5396 H 530.841 4.69472 -0.623952 0
M  V30 5397 H 531.265 6.16737 -2.79222 0
M  V30 5398 H 535.907 4.17255 -0.682489 0
M  V30 5399 H 533.625 6.90554 -4.19715 0
M  V30 5400 H 537.211 5.26352 -2.4788 0
M  V30 5401 H 536.091 6.6143 -4.21283 0
M  V30 5402 N 533.594 0.0601682 1.57485 0
M  V30 5403 C 534.842 -0.610386 1.92662 0
M  V30 5404 C 535.163 -1.70849 0.939981 0
M  V30 5405 O 534.433 -1.95895 -0.0137455 0
M  V30 5406 H 533.013 -0.228457 0.711208 0
M  V30 5407 H 535.675 0.115288 1.94559 0
M  V30 5408 H 534.771 -1.0432 2.94149 0
M  V30 5409 N 535.072 -1.5615 -0.213296 0
M  V30 5410 C 536.318 -1.80718 -0.933402 0
M  V30 5411 C 536.673 -0.634441 -1.81639 0
M  V30 5412 O 535.966 0.371182 -1.8797 0
M  V30 5413 C 536.16 -3.08772 -1.79985 0
M  V30 5414 C 535.989 -4.38389 -1.00224 0
M  V30 5415 C 534.759 -5.00513 -0.693885 0
M  V30 5416 C 536.957 -5.13013 -0.363598 0
M  V30 5417 N 534.939 -6.13774 0.124266 0
M  V30 5418 C 536.31 -6.19186 0.31757 0
M  V30 5419 C 538.365 -4.97126 -0.277468 0
M  V30 5420 C 537.068 -7.11197 1.07664 0
M  V30 5421 C 539.094 -5.89544 0.468155 0
M  V30 5422 C 538.456 -6.95149 1.13784 0
M  V30 5423 H 534.555 -0.712833 -0.321549 0
M  V30 5424 H 537.139 -1.93633 -0.203588 0
M  V30 5425 H 535.31 -2.97126 -2.50142 0
M  V30 5426 H 537.042 -3.21499 -2.45806 0
M  V30 5427 H 533.797 -4.62619 -1.01391 0
M  V30 5428 H 534.221 -6.74981 0.522418 0
M  V30 5429 H 538.863 -4.15526 -0.78087 0
M  V30 5430 H 536.581 -7.92273 1.59153 0
M  V30 5431 H 540.167 -5.79327 0.535911 0
M  V30 5432 H 539.047 -7.65428 1.70557 0
M  V30 5433 N 536.55 0.480323 -1.50102 0
M  V30 5434 C 537.775 1.26126 -1.64642 0
M  V30 5435 C 538.2 1.85257 -0.325823 0
M  V30 5436 O 537.558 1.66854 0.709194 0
M  V30 5437 C 537.606 2.35243 -2.73301 0
M  V30 5438 O 536.71 3.39646 -2.33911 0
M  V30 5439 H 536.051 0.371463 -0.550374 0
M  V30 5440 H 538.581 0.572696 -1.96421 0
M  V30 5441 H 538.591 2.80695 -2.96098 0
M  V30 5442 H 537.266 1.91574 -3.6915 0
M  V30 5443 H 535.843 2.99969 -2.21525 0
M  V30 5444 N 538.028 1.39524 0.732853 0
M  V30 5445 C 538.975 1.38416 1.84688 0
M  V30 5446 C 539.945 0.243539 1.64305 0
M  V30 5447 O 541.13 0.438979 1.85681 0
M  V30 5448 C 538.27 1.23555 3.22224 0
M  V30 5449 C 537.383 2.47179 3.54298 0
M  V30 5450 C 536.518 2.2489 4.81246 0
M  V30 5451 C 535.557 3.44178 5.0617 0
M  V30 5452 N 534.694 3.21192 6.24323 0
M  V30 5453 H 539.534 2.33645 1.84971 0
M  V30 5454 H 537.071 1.16059 0.903804 0
M  V30 5455 H 539.029 1.12949 4.0162 0
M  V30 5456 H 537.659 0.31954 3.21215 0
M  V30 5457 H 536.711 2.68379 2.69587 0
M  V30 5458 H 538.023 3.36022 3.68633 0
M  V30 5459 H 537.177 2.11538 5.68627 0
M  V30 5460 H 535.916 1.33443 4.69089 0
M  V30 5461 H 534.921 3.58025 4.17251 0
M  V30 5462 H 536.146 4.36528 5.20212 0
M  V30 5463 H 534.092 2.32413 6.1345 0
M  V30 5464 H 534.009 4.03594 6.39256 0
M  V30 5465 H 535.277 3.1154 7.14537 0
M  V30 5466 N 539.506 -0.963266 1.24736 0
M  V30 5467 C 540.783 -1.68248 0.9976 0
M  V30 5468 C 541.163 -2.05599 -0.478776 0
M  V30 5469 O 540.511 -1.7626 -1.45412 0
M  V30 5470 C 540.721 -2.91118 1.92487 0
M  V30 5471 C 542.069 -3.63261 2.19833 0
M  V30 5472 O 543.093 -3.01184 1.90176 0
M  V30 5473 O 541.952 -4.75019 2.7022 0
M  V30 5474 H 539.046 -0.735744 0.377637 0
M  V30 5475 H 541.592 -1.01696 1.35853 0
M  V30 5476 H 540.364 -2.60242 2.92215 0
M  V30 5477 H 539.987 -3.65402 1.56738 0
M  V30 5478 N 540.985 -1.06182 -1.16461 0
M  V30 5479 C 542.231 -0.779015 -1.87241 0
M  V30 5480 C 542.564 0.692715 -1.81425 0
M  V30 5481 O 541.839 1.5074 -1.22913 0
M  V30 5482 C 542.122 -1.2728 -3.36856 0
M  V30 5483 C 541.975 -2.80821 -3.51368 0
M  V30 5484 C 543.294 -0.879799 -4.31216 0
M  V30 5485 H 540.413 -0.284464 -0.679889 0
M  V30 5486 H 543.055 -1.31755 -1.36896 0
M  V30 5487 H 541.205 -0.814673 -3.79862 0
M  V30 5488 H 542.877 -3.34833 -3.17308 0
M  V30 5489 H 541.12 -3.19606 -2.93316 0
M  V30 5490 H 541.791 -3.10435 -4.56436 0
M  V30 5491 H 544.267 -1.27436 -3.96105 0
M  V30 5492 H 543.143 -1.25278 -5.34412 0
M  V30 5493 H 543.404 0.215372 -4.41575 0
M  V30 5494 N 542.463 1.3308 -0.844243 0
M  V30 5495 C 543.395 2.27954 -0.238671 0
M  V30 5496 C 544.408 1.51978 0.583665 0
M  V30 5497 O 545.597 1.73731 0.409857 0
M  V30 5498 C 542.697 3.31963 0.682185 0
M  V30 5499 C 541.87 4.37281 -0.101998 0
M  V30 5500 C 540.929 5.20928 0.743022 0
M  V30 5501 O 539.955 5.68914 0.180285 0
M  V30 5502 N 541.157 5.42738 2.0595 0
M  V30 5503 H 543.922 2.8056 -1.05386 0
M  V30 5504 H 541.483 1.4583 -0.70322 0
M  V30 5505 H 543.475 3.84828 1.25259 0
M  V30 5506 H 542.045 2.79594 1.39808 0
M  V30 5507 H 541.265 3.84843 -0.853802 0
M  V30 5508 H 542.553 5.04746 -0.641015 0
M  V30 5509 H 541.951 5.05463 2.54016 0
M  V30 5510 H 540.508 5.98639 2.57827 0
M  V30 5511 N 543.941 0.601185 1.45683 0
M  V30 5512 C 545.188 0.0938811 2.02282 0
M  V30 5513 C 545.516 -1.27315 1.47041 0
M  V30 5514 O 544.771 -1.85193 0.632623 0
M  V30 5515 C 545.07 -0.00222425 3.574 0
M  V30 5516 C 544.736 1.29963 4.31764 0
M  V30 5517 C 543.398 1.65625 4.51798 0
M  V30 5518 C 545.75 2.1603 4.74321 0
M  V30 5519 C 543.078 2.87119 5.11644 0
M  V30 5520 C 545.43 3.36766 5.3551 0
M  V30 5521 C 544.094 3.72689 5.53768 0
M  V30 5522 H 543.364 0.0343535 0.740203 0
M  V30 5523 H 546.011 0.781522 1.74827 0
M  V30 5524 H 544.316 -0.773096 3.84097 0
M  V30 5525 H 546.013 -0.410794 3.9889 0
M  V30 5526 H 542.603 1.01204 4.1648 0
M  V30 5527 H 546.787 1.89778 4.58582 0
M  V30 5528 H 542.043 3.15065 5.2397 0
M  V30 5529 H 546.217 4.03713 5.67441 0
M  V30 5530 H 543.844 4.66918 5.99909 0
M  V30 5531 N 545.419 -1.53889 0.339982 0
M  V30 5532 C 546.649 -2.04973 -0.258738 0
M  V30 5533 C 547.057 -1.21485 -1.45045 0
M  V30 5534 O 546.4 -0.2422 -1.82096 0
M  V30 5535 C 546.462 -3.51783 -0.740853 0
M  V30 5536 C 546.126 -4.55802 0.330734 0
M  V30 5537 C 547.123 -5.06512 1.17226 0
M  V30 5538 C 544.808 -4.99966 0.483637 0
M  V30 5539 C 546.802 -5.99963 2.15227 0
M  V30 5540 C 544.489 -5.93229 1.46704 0
M  V30 5541 C 545.487 -6.43115 2.29981 0
M  V30 5542 O 545.175 -7.34545 3.26649 0
M  V30 5543 H 544.907 -0.673807 -0.0544037 0
M  V30 5544 H 547.461 -1.99492 0.489107 0
M  V30 5545 H 545.691 -3.54717 -1.53988 0
M  V30 5546 H 547.38 -3.85857 -1.25973 0
M  V30 5547 H 548.146 -4.73158 1.0652 0
M  V30 5548 H 544.025 -4.6074 -0.15471 0
M  V30 5549 H 547.569 -6.38825 2.80265 0
M  V30 5550 H 543.466 -6.25998 1.57468 0
M  V30 5551 H 544.234 -7.52468 3.22078 0
M  V30 5552 N 546.897 -0.0685191 -1.57451 0
M  V30 5553 C 548.146 0.600898 -1.92541 0
M  V30 5554 C 548.459 1.70967 -0.950239 0
M  V30 5555 O 549.665 2.43844 -1.19384 0
M  V30 5556 C 548.121 1.12019 -3.42023 0
M  V30 5557 C 547.729 0.0426028 -4.4798 0
M  V30 5558 C 549.473 1.76386 -3.86119 0
M  V30 5559 C 547.38 0.575759 -5.88591 0
M  V30 5560 H 546.31 0.228225 -0.71863 0
M  V30 5561 H 548.961 -0.140223 -1.82963 0
M  V30 5562 H 547.343 1.91418 -3.46663 0
M  V30 5563 H 548.517 -0.73182 -4.54952 0
M  V30 5564 H 546.832 -0.504642 -4.13331 0
M  V30 5565 H 549.429 2.17302 -4.88553 0
M  V30 5566 H 549.772 2.62255 -3.23308 0
M  V30 5567 H 550.305 1.03615 -3.84069 0
M  V30 5568 H 547.044 -0.245691 -6.55039 0
M  V30 5569 H 546.564 1.31778 -5.85145 0
M  V30 5570 H 548.243 1.0532 -6.3837 0
M  V30 5571 N 548.375 1.56261 0.205012 0
M  V30 5572 C 549.322 1.93754 1.25411 0
M  V30 5573 C 550.292 0.796826 1.45739 0
M  V30 5574 O 551.477 1.05414 1.59036 0
M  V30 5575 C 548.617 2.27383 2.59598 0
M  V30 5576 C 547.73 3.5447 2.46931 0
M  V30 5577 C 546.865 3.77468 3.73753 0
M  V30 5578 C 545.904 4.98014 3.55877 0
M  V30 5579 N 545.041 5.17316 4.74688 0
M  V30 5580 H 549.881 2.83203 0.92737 0
M  V30 5581 H 547.418 1.40158 0.446574 0
M  V30 5582 H 549.376 2.44895 3.37761 0
M  V30 5583 H 548.006 1.41088 2.90335 0
M  V30 5584 H 547.058 3.45061 1.60116 0
M  V30 5585 H 548.37 4.42789 2.29651 0
M  V30 5586 H 547.524 3.95165 4.60358 0
M  V30 5587 H 546.263 2.87461 3.93976 0
M  V30 5588 H 545.268 4.80249 2.67657 0
M  V30 5589 H 546.493 5.8952 3.37109 0
M  V30 5590 H 544.439 4.30255 4.95194 0
M  V30 5591 H 544.356 5.99796 4.60197 0
M  V30 5592 H 545.624 5.39463 5.62672 0
M  V30 5593 N 549.853 -0.472356 1.50355 0
M  V30 5594 C 550.816 -1.5529 1.68576 0
M  V30 5595 C 551.816 -1.50863 0.556511 0
M  V30 5596 O 553.006 -1.53505 0.823516 0
M  V30 5597 C 550.138 -2.94921 1.70981 0
M  V30 5598 H 551.331 -1.40451 2.64978 0
M  V30 5599 H 548.884 -0.698645 1.39816 0
M  V30 5600 H 549.619 -3.15204 0.762675 0
M  V30 5601 H 549.404 -2.99541 2.53017 0
M  V30 5602 H 550.894 -3.73372 1.87037 0
M  V30 5603 N 551.331 -1.39911 -0.725443 0
M  V30 5604 C 552.559 -1.40949 -1.51463 0
M  V30 5605 C 552.974 -0.0065242 -1.88799 0
M  V30 5606 O 552.331 0.967163 -1.54765 0
M  V30 5607 C 552.382 -2.29119 -2.79619 0
M  V30 5608 O 552.103 -3.63952 -2.43866 0
M  V30 5609 C 553.604 -2.38642 -3.73584 0
M  V30 5610 H 550.824 -0.481091 -0.467752 0
M  V30 5611 H 553.368 -1.83843 -0.895651 0
M  V30 5612 H 551.523 -1.89612 -3.37826 0
M  V30 5613 H 551.937 -4.10677 -3.26258 0
M  V30 5614 H 553.411 -3.04563 -4.60375 0
M  V30 5615 H 553.888 -1.40846 -4.16004 0
M  V30 5616 H 554.494 -2.78659 -3.21293 0
M  V30 5617 N 552.809 0.956637 -1.25245 0
M  V30 5618 C 554.037 1.73571 -1.12608 0
M  V30 5619 C 554.452 1.86063 0.320324 0
M  V30 5620 O 553.809 1.35691 1.22042 0
M  V30 5621 C 553.86 3.15053 -1.77268 0
M  V30 5622 O 553.581 3.03174 -3.16255 0
M  V30 5623 C 555.082 4.09248 -1.70386 0
M  V30 5624 H 552.302 0.543955 -0.392879 0
M  V30 5625 H 554.846 1.20031 -1.65568 0
M  V30 5626 H 553.001 3.65543 -1.28284 0
M  V30 5627 H 553.415 3.9241 -3.48015 0
M  V30 5628 H 554.889 5.06138 -2.20291 0
M  V30 5629 H 555.366 4.34102 -0.667239 0
M  V30 5630 H 555.972 3.64672 -2.18849 0
M  V30 5631 N 554.287 1.06798 1.15896 0
M  V30 5632 C 555.217 0.704677 2.22613 0
M  V30 5633 C 556.198 -0.305252 1.67339 0
M  V30 5634 O 557.383 -0.179247 1.93371 0
M  V30 5635 C 554.513 0.0957325 3.47168 0
M  V30 5636 C 553.467 1.0322 4.15367 0
M  V30 5637 C 552.793 0.286293 5.33933 0
M  V30 5638 C 554.093 2.36341 4.65768 0
M  V30 5639 H 555.787 1.59688 2.53259 0
M  V30 5640 H 553.333 0.769257 1.21731 0
M  V30 5641 H 555.286 -0.170333 4.21056 0
M  V30 5642 H 554.01 -0.831516 3.15838 0
M  V30 5643 H 552.669 1.28309 3.43413 0
M  V30 5644 H 552.317 -0.644237 4.98857 0
M  V30 5645 H 552.017 0.910436 5.80504 0
M  V30 5646 H 553.541 0.0278938 6.10594 0
M  V30 5647 H 554.955 2.1561 5.31211 0
M  V30 5648 H 553.352 2.94299 5.2298 0
M  V30 5649 H 554.422 2.99047 3.81705 0
M  V30 5650 N 555.766 -1.3263 0.851289 0
M  V30 5651 C 557.182 -1.50162 0.5407 0
M  V30 5652 C 557.382 -1.78788 -0.929369 0
M  V30 5653 O 556.438 -1.85545 -1.71258 0
M  V30 5654 C 557.751 -2.64803 1.42478 0
M  V30 5655 C 559.299 -2.78688 1.42485 0
M  V30 5656 C 559.774 -3.96405 2.29407 0
M  V30 5657 N 561.265 -4.0366 2.27184 0
M  V30 5658 C 562 -4.93971 2.9117 0
M  V30 5659 N 561.496 -5.89313 3.64256 0
M  V30 5660 N 563.289 -4.87066 2.80576 0
M  V30 5661 H 555.44 -1.12315 1.80275 0
M  V30 5662 H 557.703 -0.553266 0.769806 0
M  V30 5663 H 557.409 -2.50368 2.46999 0
M  V30 5664 H 557.283 -3.60506 1.10974 0
M  V30 5665 H 559.67 -2.92547 0.387304 0
M  V30 5666 H 559.751 -1.83708 1.78002 0
M  V30 5667 H 559.395 -3.83304 3.33228 0
M  V30 5668 H 559.325 -4.90654 1.91224 0
M  V30 5669 H 561.816 -3.35435 1.74045 0
M  V30 5670 H 562.129 -6.54913 4.10255 0
M  V30 5671 H 560.474 -5.8935 3.68364 0
M  V30 5672 H 563.665 -4.11552 2.23031 0
M  V30 5673 H 563.838 -5.57248 3.30725 0
M  V30 5674 N 557.244 -0.608902 -1.45362 0
M  V30 5675 C 558.174 0.0964526 -2.33301 0
M  V30 5676 C 559.155 0.857444 -1.46908 0
M  V30 5677 O 560.34 0.827735 -1.75676 0
M  V30 5678 C 557.47 1.09354 -3.29635 0
M  V30 5679 C 556.424 0.445676 -4.25673 0
M  V30 5680 C 555.75 1.5511 -5.11708 0
M  V30 5681 C 557.05 -0.633972 -5.18438 0
M  V30 5682 H 558.744 -0.637829 -2.92527 0
M  V30 5683 H 556.29 -0.308178 -1.40664 0
M  V30 5684 H 558.243 1.59556 -3.90025 0
M  V30 5685 H 556.967 1.85843 -2.6857 0
M  V30 5686 H 555.626 -0.0354897 -3.66583 0
M  V30 5687 H 555.274 2.30631 -4.4701 0
M  V30 5688 H 554.974 1.12311 -5.76767 0
M  V30 5689 H 556.498 2.05537 -5.74967 0
M  V30 5690 H 557.912 -0.215974 -5.72893 0
M  V30 5691 H 556.309 -0.983789 -5.91981 0
M  V30 5692 H 557.379 -1.51005 -4.60788 0
M  V30 5693 N 558.722 1.53707 -0.348139 0
M  V30 5694 C 559.95 2.05406 0.248224 0
M  V30 5695 C 560.365 1.22282 1.43849 0
M  V30 5696 O 559.722 0.259244 1.80649 0
M  V30 5697 C 559.773 3.55446 0.658793 0
M  V30 5698 O 559.494 4.35417 -0.484149 0
M  V30 5699 C 560.995 4.23335 1.31539 0
M  V30 5700 H 558.215 0.669344 0.0471075 0
M  V30 5701 H 560.759 1.98257 -0.501456 0
M  V30 5702 H 558.914 3.62803 1.35841 0
M  V30 5703 H 559.328 5.24268 -0.155949 0
M  V30 5704 H 560.802 5.29692 1.55338 0
M  V30 5705 H 561.279 3.75967 2.27036 0
M  V30 5706 H 561.885 4.20184 0.657683 0
M  V30 5707 N 560.2 0.0768682 1.57412 0
M  V30 5708 C 561.11 -0.903207 2.16516 0
M  V30 5709 C 562.126 -1.32341 1.12968 0
M  V30 5710 O 563.302 -1.39507 1.45258 0
M  V30 5711 C 560.367 -2.1508 2.71922 0
M  V30 5712 C 559.428 -1.78653 3.90361 0
M  V30 5713 C 558.661 -2.97465 4.43114 0
M  V30 5714 O 558.884 -4.11638 3.94854 0
M  V30 5715 O 557.818 -2.76987 5.3438 0
M  V30 5716 H 561.644 -0.430427 3.00634 0
M  V30 5717 H 559.229 -0.146485 1.4868 0
M  V30 5718 H 561.111 -2.8823 3.07411 0
M  V30 5719 H 559.786 -2.61446 1.9086 0
M  V30 5720 H 558.693 -1.0274 3.59716 0
M  V30 5721 H 560.026 -1.37066 4.7273 0
M  V30 5722 N 561.678 -1.56367 -0.196722 0
M  V30 5723 C 562.926 -1.80172 -0.915554 0
M  V30 5724 C 563.247 -0.649649 -1.8386 0
M  V30 5725 O 562.517 0.332111 -1.93064 0
M  V30 5726 H 561.097 -0.664592 -0.341067 0
M  V30 5727 H 563.759 -1.93844 -0.202622 0
M  V30 5728 H 562.855 -2.7327 -1.50764 0
M  V30 5729 N 563.156 0.464375 -1.50603 0
M  V30 5730 C 564.404 1.21356 -1.61608 0
M  V30 5731 C 564.725 1.92329 -0.321643 0
M  V30 5732 O 563.995 1.84403 0.661232 0
M  V30 5733 H 562.575 0.45094 -0.595535 0
M  V30 5734 H 565.237 0.535046 -1.87412 0
M  V30 5735 H 564.333 1.95783 -2.43054 0
M  V30 5736 N 564.634 1.40294 0.718013 0
M  V30 5737 C 565.882 1.38167 1.47494 0
M  V30 5738 C 566.203 -0.01607 1.94993 0
M  V30 5739 O 565.473 -0.970396 1.70177 0
M  V30 5740 H 564.053 0.508505 0.547203 0
M  V30 5741 H 566.715 1.75324 0.851322 0
M  V30 5742 H 565.811 2.05503 2.34894 0
M  V30 5743 N 566.112 -0.949982 1.2575 0
M  V30 5744 C 567.075 -2.02894 1.06615 0
M  V30 5745 C 568.075 -1.60791 0.0173905 0
M  V30 5746 O 569.265 -1.72249 0.260003 0
M  V30 5747 C 566.397 -3.35219 0.619751 0
M  V30 5748 H 567.59 -2.21302 2.02399 0
M  V30 5749 H 565.143 -1.12772 1.08223 0
M  V30 5750 H 565.878 -3.22508 -0.340486 0
M  V30 5751 H 565.663 -3.67129 1.37692 0
M  V30 5752 H 567.153 -4.14505 0.507443 0
M  V30 5753 N 567.59 -1.07411 -1.15328 0
M  V30 5754 C 568.836 -0.798831 -1.86404 0
M  V30 5755 C 569.169 0.673433 -1.8215 0
M  V30 5756 O 568.444 1.49428 -1.24505 0
M  V30 5757 C 568.727 -1.30846 -3.35487 0
M  V30 5758 C 568.58 -2.84532 -3.4837 0
M  V30 5759 C 569.899 -0.925486 -4.30259 0
M  V30 5760 H 567.018 -0.291659 -0.676834 0
M  V30 5761 H 569.66 -1.332 -1.35491 0
M  V30 5762 H 567.81 -0.854916 -3.78977 0
M  V30 5763 H 569.482 -3.3818 -3.13739 0
M  V30 5764 H 567.725 -3.22699 -2.8991 0
M  V30 5765 H 568.396 -3.15259 -4.53118 0
M  V30 5766 H 570.872 -1.3163 -3.94731 0
M  V30 5767 H 569.748 -1.3094 -5.33053 0
M  V30 5768 H 570.009 0.168525 -4.41779 0
M  V30 5769 N 569.068 1.32177 -0.85831 0
M  V30 5770 C 570.314 1.97417 -0.46417 0
M  V30 5771 C 570.647 1.67746 0.978514 0
M  V30 5772 O 569.922 0.967654 1.68721 0
M  V30 5773 C 570.205 3.53069 -0.708094 0
M  V30 5774 C 570.058 3.92357 -2.19946 0
M  V30 5775 C 571.377 4.39783 -0.166881 0
M  V30 5776 H 568.496 0.717097 -0.17012 0
M  V30 5777 H 571.138 1.56499 -1.07741 0
M  V30 5778 H 569.288 3.88054 -0.186128 0
M  V30 5779 H 570.96 3.67533 -2.78779 0
M  V30 5780 H 569.203 3.41384 -2.67656 0
M  V30 5781 H 569.874 5.00841 -2.32082 0
M  V30 5782 H 572.35 4.11556 -0.613285 0
M  V30 5783 H 571.226 5.47671 -0.367093 0
M  V30 5784 H 571.487 4.32196 0.930559 0
M  V30 5785 N 570.547 0.616602 1.45037 0
M  V30 5786 C 571.775 0.121968 2.0654 0
M  V30 5787 C 572.19 -1.19743 1.45969 0
M  V30 5788 O 571.547 -1.73133 0.577168 0
M  V30 5789 C 571.598 -0.0145171 3.61497 0
M  V30 5790 O 571.319 1.25269 4.19809 0
M  V30 5791 C 572.82 -0.539555 4.40004 0
M  V30 5792 H 570.04 0.0729837 0.667019 0
M  V30 5793 H 572.584 0.846891 1.8614 0
M  V30 5794 H 570.739 -0.689809 3.81209 0
M  V30 5795 H 571.153 1.08816 5.13088 0
M  V30 5796 H 572.627 -0.584112 5.48901 0
M  V30 5797 H 573.104 -1.56368 4.10421 0
M  V30 5798 H 573.71 0.101995 4.25178 0
M  V30 5799 N 572.025 -1.5352 0.356285 0
M  V30 5800 C 573.25 -2.06007 -0.239961 0
M  V30 5801 C 573.675 -1.22872 -1.42422 0
M  V30 5802 O 573.033 -0.245516 -1.7963 0
M  V30 5803 C 573.081 -3.5522 -0.620587 0
M  V30 5804 O 572.185 -3.74864 -1.71902 0
M  V30 5805 H 571.526 -0.662961 -0.0371377 0
M  V30 5806 H 574.056 -1.98033 0.514194 0
M  V30 5807 H 574.066 -3.98081 -0.894197 0
M  V30 5808 H 572.741 -4.15175 0.245407 0
M  V30 5809 H 571.318 -3.43904 -1.44169 0
M  V30 5810 N 573.503 -0.0852151 -1.57369 0
M  V30 5811 C 574.919 0.271436 -1.57275 0
M  V30 5812 C 575.119 1.69109 -1.09565 0
M  V30 5813 O 574.175 2.40549 -0.767611 0
M  V30 5814 C 575.488 0.0688638 -3.00621 0
M  V30 5815 C 577.036 0.137373 -3.12698 0
M  V30 5816 C 577.511 -0.0370832 -4.57985 0
M  V30 5817 N 579.002 0.0180794 -4.63196 0
M  V30 5818 C 579.737 -0.0922953 -5.73326 0
M  V30 5819 N 579.233 -0.256948 -6.92323 0
M  V30 5820 N 581.026 -0.0342702 -5.6209 0
M  V30 5821 H 573.177 -1.01288 -1.86693 0
M  V30 5822 H 575.44 -0.396138 -0.861266 0
M  V30 5823 H 575.146 -0.911277 -3.39689 0
M  V30 5824 H 575.02 0.815442 -3.6828 0
M  V30 5825 H 577.407 1.10801 -2.73509 0
M  V30 5826 H 577.488 -0.640532 -2.47651 0
M  V30 5827 H 577.132 -1.00455 -4.97867 0
M  V30 5828 H 577.062 0.760392 -5.21081 0
M  V30 5829 H 579.553 0.143202 -3.77629 0
M  V30 5830 H 579.866 -0.332949 -7.72082 0
M  V30 5831 H 578.211 -0.292487 -6.94384 0
M  V30 5832 H 581.402 0.0931605 -4.68007 0
M  V30 5833 H 581.575 -0.12374 -6.47882 0
M  V30 5834 N 574.981 1.5647 0.188427 0
M  V30 5835 C 575.944 1.9421 1.21718 0
M  V30 5836 C 576.944 0.823901 1.38089 0
M  V30 5837 O 578.134 1.09122 1.35787 0
M  V30 5838 C 575.266 2.22197 2.58537 0
M  V30 5839 H 576.459 2.86252 0.894418 0
M  V30 5840 H 574.012 1.50263 0.430211 0
M  V30 5841 H 574.747 1.32814 2.95856 0
M  V30 5842 H 574.532 3.03688 2.48025 0
M  V30 5843 H 576.022 2.52376 3.3271 0
M  V30 5844 N 576.459 -0.456382 1.50847 0
M  V30 5845 C 577.407 -1.57318 1.71329 0
M  V30 5846 C 578.401 -1.59187 0.579287 0
M  V30 5847 O 579.607 -1.6316 0.76018 0
M  V30 5848 H 575.982 -0.5223 0.541024 0
M  V30 5849 H 577.953 -1.3721 2.64983 0
M  V30 5850 C 576.702 -2.95142 1.83811 0
M  V30 5851 H 576.025 -2.94428 2.70467 0
M  V30 5852 H 577.465 -3.72702 2.02161 0
M  V30 5853 C 575.924 -3.31636 0.593224 0
M  V30 5854 O 576.454 -4.00852 -0.260898 0
M  V30 5855 N 574.66 -2.87205 0.442902 0
M  V30 5856 H 574.207 -2.31051 1.13901 0
M  V30 5857 H 574.165 -3.11986 -0.38884 0
M  V30 5858 N 577.937 -1.40673 -0.710563 0
M  V30 5859 C 579.186 -1.38525 -1.46607 0
M  V30 5860 C 579.499 0.0077024 -1.95598 0
M  V30 5861 O 580.705 0.151792 -2.71075 0
M  V30 5862 C 579.161 -2.43489 -2.6503 0
M  V30 5863 C 578.769 -3.88619 -2.22888 0
M  V30 5864 C 580.513 -2.50456 -3.42742 0
M  V30 5865 C 578.42 -4.85168 -3.3818 0
M  V30 5866 H 577.35 -0.515092 -0.550632 0
M  V30 5867 H 580.001 -1.66431 -0.772846 0
M  V30 5868 H 578.383 -2.0869 -3.36548 0
M  V30 5869 H 579.557 -4.32588 -1.58758 0
M  V30 5870 H 577.872 -3.85174 -1.58208 0
M  V30 5871 H 580.469 -3.19776 -4.28541 0
M  V30 5872 H 580.812 -1.53665 -3.86902 0
M  V30 5873 H 581.345 -2.84271 -2.78271 0
M  V30 5874 H 578.084 -5.8331 -2.99047 0
M  V30 5875 H 577.604 -4.4586 -4.01209 0
M  V30 5876 H 579.283 -5.05225 -4.04174 0
M  V30 5877 N 579.415 0.9433 -1.26252 0
M  V30 5878 C 580.378 2.02326 -1.07689 0
M  V30 5879 C 581.378 1.60779 -0.0259174 0
M  V30 5880 O 582.568 1.72108 -0.269134 0
M  V30 5881 C 579.7 3.34886 -0.63752 0
M  V30 5882 H 580.893 2.20225 -2.0357 0
M  V30 5883 H 578.446 1.12197 -1.08819 0
M  V30 5884 H 579.181 3.22684 0.323377 0
M  V30 5885 H 578.966 3.66393 -1.39637 0
M  V30 5886 H 580.456 4.14231 -0.529418 0
M  V30 5887 N 580.893 1.08022 1.14757 0
M  V30 5888 C 582.121 0.828847 1.89572 0
M  V30 5889 C 582.536 -0.618621 1.78377 0
M  V30 5890 O 581.893 -1.42482 1.1404 0
M  V30 5891 C 581.944 1.23677 3.39685 0
M  V30 5892 O 581.665 2.62746 3.50566 0
M  V30 5893 C 583.166 1.01569 4.31507 0
M  V30 5894 H 580.386 0.299196 0.600602 0
M  V30 5895 H 582.93 1.43846 1.45357 0
M  V30 5896 H 581.085 0.671347 3.81539 0
M  V30 5897 H 581.499 2.79573 4.43778 0
M  V30 5898 H 582.973 1.35055 5.35223 0
M  V30 5899 H 583.45 -0.0475433 4.39174 0
M  V30 5900 H 584.056 1.56636 3.95405 0
M  V30 5901 N 582.371 -1.3172 0.865308 0
M  V30 5902 C 583.617 -1.97168 0.474633 0
M  V30 5903 C 583.95 -1.68263 -0.969604 0
M  V30 5904 O 583.225 -0.976588 -1.68205 0
M  V30 5905 C 583.508 -3.52689 0.726808 0
M  V30 5906 C 583.361 -3.91185 2.22024 0
M  V30 5907 C 584.68 -4.39689 0.190201 0
M  V30 5908 H 581.799 -0.716185 0.17392 0
M  V30 5909 H 584.441 -1.55925 1.08569 0
M  V30 5910 H 582.591 -3.8795 0.206705 0
M  V30 5911 H 584.263 -3.66049 2.80724 0
M  V30 5912 H 582.506 -3.3996 2.69462 0
M  V30 5913 H 583.177 -4.99604 2.34735 0
M  V30 5914 H 585.653 -4.11225 0.635103 0
M  V30 5915 H 584.529 -5.47469 0.396132 0
M  V30 5916 H 584.79 -4.32683 -0.907625 0
M  V30 5917 N 583.85 -0.624285 -1.44708 0
M  V30 5918 C 585.099 -0.123539 -2.01321 0
M  V30 5919 C 585.412 1.25966 -1.49639 0
M  V30 5920 O 586.618 1.85405 -1.98336 0
M  V30 5921 C 585.074 -0.170124 -3.59498 0
M  V30 5922 C 584.682 -1.55421 -4.20176 0
M  V30 5923 C 586.426 0.274513 -4.23611 0
M  V30 5924 C 584.332 -1.55628 -5.70556 0
M  V30 5925 H 583.263 -0.0424183 -0.752806 0
M  V30 5926 H 585.913 -0.782076 -1.65999 0
M  V30 5927 H 584.296 0.555385 -3.92086 0
M  V30 5928 H 585.47 -2.30276 -3.99136 0
M  V30 5929 H 583.784 -1.94235 -3.68323 0
M  V30 5930 H 586.382 0.292402 -5.339 0
M  V30 5931 H 586.725 1.3005 -3.95465 0
M  V30 5932 H 587.258 -0.398275 -3.95801 0
M  V30 5933 H 583.997 -2.56041 -6.03426 0
M  V30 5934 H 583.517 -0.850563 -5.93739 0
M  V30 5935 H 585.196 -1.28721 -6.34066 0
M  V30 5936 N 585.328 1.53329 -0.364422 0
M  V30 5937 C 586.276 2.27212 0.497737 0
M  V30 5938 C 587.27 1.30146 1.08437 0
M  V30 5939 O 588.476 1.47778 1.0277 0
M  V30 5940 H 584.851 0.730329 0.179232 0
M  V30 5941 H 586.822 2.98037 -0.147182 0
M  V30 5942 C 585.571 3.07333 1.6261 0
M  V30 5943 H 584.894 3.81866 1.184 0
M  V30 5944 H 586.334 3.62209 2.20409 0
M  V30 5945 C 584.793 2.18102 2.56775 0
M  V30 5946 O 585.323 1.79104 3.59562 0
M  V30 5947 N 583.529 1.82759 2.25937 0
M  V30 5948 H 583.076 2.14671 1.42387 0
M  V30 5949 H 583.034 1.23342 2.89196 0
M  V30 5950 N 586.806 0.0935595 1.57322 0
M  V30 5951 C 588.083 -0.612692 1.85756 0
M  V30 5952 C 588.463 -1.86439 0.99013 0
M  V30 5953 O 587.811 -2.28416 0.0621362 0
M  V30 5954 C 588.021 -0.929547 3.36393 0
M  V30 5955 C 589.369 -1.29366 4.04413 0
M  V30 5956 O 590.393 -1.02061 3.41265 0
M  V30 5957 O 589.252 -1.80498 5.15832 0
M  V30 5958 H 586.346 -0.306444 0.768128 0
M  V30 5959 H 588.892 0.126141 1.69231 0
M  V30 5960 H 587.664 -0.0414766 3.91278 0
M  V30 5961 H 587.287 -1.72441 3.5826 0
M  V30 5962 N 588.284 -1.56567 -0.180126 0
M  V30 5963 C 589.531 -1.81492 -0.898167 0
M  V30 5964 C 589.859 -0.669225 -1.82624 0
M  V30 5965 O 589.114 0.344096 -1.92651 0
M  V30 5966 C 589.413 -3.1252 -1.73395 0
M  V30 5967 C 589.079 -4.40658 -0.955567 0
M  V30 5968 C 587.741 -4.75465 -0.740707 0
M  V30 5969 C 590.093 -5.19593 -0.408948 0
M  V30 5970 C 587.421 -5.86691 0.0320128 0
M  V30 5971 C 589.773 -6.31627 0.350638 0
M  V30 5972 C 588.437 -6.65007 0.576378 0
M  V30 5973 H 587.707 -0.664125 -0.328662 0
M  V30 5974 H 590.354 -1.908 -0.163616 0
M  V30 5975 H 588.659 -2.98515 -2.53763 0
M  V30 5976 H 590.356 -3.29013 -2.29241 0
M  V30 5977 H 586.946 -4.13352 -1.13306 0
M  V30 5978 H 591.13 -4.93104 -0.562307 0
M  V30 5979 H 586.386 -6.11016 0.216735 0
M  V30 5980 H 590.56 -6.92001 0.781497 0
M  V30 5981 H 588.187 -7.51033 1.17703 0
M  V30 5982 N 589.762 0.448376 -1.51087 0
M  V30 5983 C 590.99 1.22143 -1.66999 0
M  V30 5984 C 591.405 1.85283 -0.362699 0
M  V30 5985 O 590.762 1.70236 0.65772 0
M  V30 5986 C 590.813 2.31357 -2.7777 0
M  V30 5987 O 590.534 1.70801 -4.03434 0
M  V30 5988 C 592.035 3.21836 -3.04855 0
M  V30 5989 H 589.255 0.368558 -0.560719 0
M  V30 5990 H 591.799 0.532618 -1.97442 0
M  V30 5991 H 589.954 2.95973 -2.49958 0
M  V30 5992 H 590.368 2.42895 -4.64868 0
M  V30 5993 H 591.842 3.94627 -3.85971 0
M  V30 5994 H 592.319 3.81949 -2.16821 0
M  V30 5995 H 592.925 2.62933 -3.34285 0
M  V30 5996 N 591.24 1.41047 0.703093 0
M  V30 5997 C 592.15 1.44645 1.84703 0
M  V30 5998 C 593.166 0.337778 1.7069 0
M  V30 5999 O 594.342 0.584327 1.92737 0
M  V30 6000 C 591.407 1.31928 3.20618 0
M  V30 6001 C 590.468 2.53047 3.46794 0
M  V30 6002 C 589.701 2.40927 4.76224 0
M  V30 6003 O 589.924 1.42978 5.5219 0
M  V30 6004 O 588.858 3.30543 5.03016 0
M  V30 6005 H 592.684 2.41139 1.84624 0
M  V30 6006 H 590.269 1.22504 0.855167 0
M  V30 6007 H 592.151 1.27092 4.01778 0
M  V30 6008 H 590.826 0.385469 3.21397 0
M  V30 6009 H 589.733 2.6346 2.65593 0
M  V30 6010 H 591.066 3.45231 3.50822 0
M  V30 6011 N 592.718 -0.936591 1.26751 0
M  V30 6012 C 593.964 -1.68625 1.13741 0
M  V30 6013 C 594.319 -1.898 -0.315221 0
M  V30 6014 O 593.612 -1.47088 -1.22783 0
M  V30 6015 C 593.806 -3.06099 1.84494 0
M  V30 6016 C 593.635 -2.98338 3.36488 0
M  V30 6017 C 592.405 -3.01104 4.05789 0
M  V30 6018 C 594.603 -2.78128 4.32608 0
M  V30 6019 N 592.585 -2.8369 5.4442 0
M  V30 6020 C 593.956 -2.69329 5.58446 0
M  V30 6021 C 596.011 -2.62946 4.22804 0
M  V30 6022 C 594.714 -2.46899 6.75598 0
M  V30 6023 C 596.74 -2.41892 5.39669 0
M  V30 6024 C 596.102 -2.33829 6.64457 0
M  V30 6025 H 592.201 -0.624227 0.471025 0
M  V30 6026 H 594.785 -1.10798 1.601 0
M  V30 6027 H 592.956 -3.62057 1.40604 0
M  V30 6028 H 594.688 -3.69951 1.64067 0
M  V30 6029 H 591.443 -3.10992 3.57185 0
M  V30 6030 H 591.867 -2.78138 6.17226 0
M  V30 6031 H 596.509 -2.67944 3.27056 0
M  V30 6032 H 594.227 -2.40642 7.71438 0
M  V30 6033 H 597.813 -2.31043 5.33957 0
M  V30 6034 H 596.693 -2.17754 7.53361 0
M  V30 6035 N 594.196 -1.08629 -1.14182 0
M  V30 6036 C 595.443 -0.817345 -1.85272 0
M  V30 6037 C 595.771 0.656917 -1.83071 0
M  V30 6038 O 595.026 1.49897 -1.25815 0
M  V30 6039 C 595.325 -1.28734 -3.3341 0
M  V30 6040 C 594.991 -2.76981 -3.55798 0
M  V30 6041 C 593.653 -3.17469 -3.61617 0
M  V30 6042 C 596.005 -3.72605 -3.64438 0
M  V30 6043 C 593.333 -4.52371 -3.736 0
M  V30 6044 C 595.685 -5.07286 -3.77947 0
M  V30 6045 C 594.349 -5.47376 -3.82016 0
M  V30 6046 H 593.619 -0.299088 -0.677958 0
M  V30 6047 H 596.266 -1.35962 -1.34857 0
M  V30 6048 H 594.571 -0.664702 -3.8612 0
M  V30 6049 H 596.268 -1.05598 -3.86846 0
M  V30 6050 H 592.858 -2.44644 -3.51919 0
M  V30 6051 H 597.042 -3.42443 -3.5923 0
M  V30 6052 H 592.298 -4.82882 -3.75013 0
M  V30 6053 H 596.472 -5.81243 -3.83575 0
M  V30 6054 H 594.099 -6.51906 -3.91054 0
M  V30 6055 N 595.674 1.31259 -0.872281 0
M  V30 6056 C 596.624 2.26 -0.301295 0
M  V30 6057 C 597.608 1.50729 0.562991 0
M  V30 6058 O 598.8 1.72198 0.40949 0
M  V30 6059 C 595.929 3.39724 0.494227 0
M  V30 6060 C 595.015 4.22363 -0.383432 0
M  V30 6061 N 595.406 4.83724 -1.47799 0
M  V30 6062 C 593.704 4.45652 -0.176278 0
M  V30 6063 C 594.405 5.45523 -2.01939 0
M  V30 6064 N 593.381 5.27428 -1.31608 0
M  V30 6065 H 597.183 2.70981 -1.13782 0
M  V30 6066 H 594.697 1.45552 -0.720294 0
M  V30 6067 H 596.694 4.06626 0.919828 0
M  V30 6068 H 595.354 2.96286 1.32834 0
M  V30 6069 H 596.365 4.83313 -1.8609 0
M  V30 6070 H 593.042 4.12845 0.621698 0
M  V30 6071 H 594.432 6.04268 -2.93786 0
M  V30 6072 N 597.152 0.631951 1.44375 0
M  V30 6073 C 598.062 -0.073674 2.34484 0
M  V30 6074 C 599.078 -0.834825 1.52665 0
M  V30 6075 O 600.254 -0.786902 1.85391 0
M  V30 6076 C 597.319 -1.04247 3.30656 0
M  V30 6077 C 596.38 -0.280602 4.28382 0
M  V30 6078 C 595.613 -1.20325 5.19959 0
M  V30 6079 O 595.836 -2.44199 5.15484 0
M  V30 6080 O 594.77 -0.687128 5.97965 0
M  V30 6081 H 598.596 0.667477 2.96274 0
M  V30 6082 H 596.181 0.392144 1.44162 0
M  V30 6083 H 598.063 -1.59981 3.89851 0
M  V30 6084 H 596.738 -1.76422 2.71398 0
M  V30 6085 H 595.645 0.319804 3.72731 0
M  V30 6086 H 596.978 0.401144 4.90563 0
M  V30 6087 N 598.631 -1.53133 0.372548 0
M  V30 6088 C 600.047 -1.59585 0.02178 0
M  V30 6089 C 600.247 -1.38736 -1.46132 0
M  V30 6090 O 599.303 -1.19599 -2.22379 0
M  V30 6091 C 600.616 -2.9678 0.483959 0
M  V30 6092 C 602.164 -3.09909 0.438775 0
M  V30 6093 C 602.639 -4.49527 0.876876 0
M  V30 6094 N 604.13 -4.55663 0.832214 0
M  V30 6095 C 604.865 -5.61896 1.14281 0
M  V30 6096 N 604.361 -6.75852 1.52303 0
M  V30 6097 N 606.154 -5.51916 1.06515 0
M  V30 6098 H 598.305 -1.64936 1.33827 0
M  V30 6099 H 600.568 -0.773947 0.547458 0
M  V30 6100 H 600.274 -3.17198 1.51915 0
M  V30 6101 H 600.148 -3.7699 -0.125784 0
M  V30 6102 H 602.535 -2.89197 -0.587294 0
M  V30 6103 H 602.616 -2.31691 1.0841 0
M  V30 6104 H 602.26 -4.70979 1.90109 0
M  V30 6105 H 602.19 -5.26186 0.208727 0
M  V30 6106 H 604.681 -3.73844 0.552195 0
M  V30 6107 H 604.994 -7.52862 1.7441 0
M  V30 6108 H 603.339 -6.77226 1.56175 0
M  V30 6109 H 606.53 -4.6177 0.767235 0
M  V30 6110 H 606.703 -6.34609 1.31053 0
M  V30 6111 N 600.109 -0.101901 -1.5727 0
M  V30 6112 C 601.358 0.559922 -1.93772 0
M  V30 6113 C 601.671 1.68913 -0.98629 0
M  V30 6114 O 602.877 2.41256 -1.24529 0
M  V30 6115 C 601.333 1.04739 -3.44322 0
M  V30 6116 C 600.941 -0.05243 -4.47969 0
M  V30 6117 C 602.685 1.68157 -3.89774 0
M  V30 6118 C 600.592 0.450781 -5.8968 0
M  V30 6119 H 599.522 0.212931 -0.723309 0
M  V30 6120 H 602.173 -0.179001 -1.82625 0
M  V30 6121 H 600.555 1.84021 -3.50645 0
M  V30 6122 H 601.729 -0.828157 -4.53297 0
M  V30 6123 H 600.044 -0.592202 -4.12167 0
M  V30 6124 H 602.641 2.0689 -4.93052 0
M  V30 6125 H 602.984 2.55338 -3.28798 0
M  V30 6126 H 603.517 0.954453 -3.8618 0
M  V30 6127 H 600.256 -0.38458 -6.54371 0
M  V30 6128 H 599.776 1.19336 -5.87809 0
M  V30 6129 H 601.455 0.917555 -6.40461 0
M  V30 6130 N 601.587 1.56661 0.17182 0
M  V30 6131 C 602.497 1.99604 1.2327 0
M  V30 6132 C 603.513 0.907333 1.4847 0
M  V30 6133 O 604.689 1.21492 1.60629 0
M  V30 6134 C 601.754 2.34685 2.55194 0
M  V30 6135 C 600.815 3.57381 2.3786 0
M  V30 6136 C 600.048 3.90779 3.63494 0
M  V30 6137 O 600.271 3.25152 4.6865 0
M  V30 6138 O 599.205 4.84129 3.57634 0
M  V30 6139 H 603.031 2.90114 0.898192 0
M  V30 6140 H 600.616 1.44522 0.378647 0
M  V30 6141 H 602.498 2.5822 3.33017 0
M  V30 6142 H 601.173 1.47336 2.88225 0
M  V30 6143 H 600.08 3.39064 1.5807 0
M  V30 6144 H 601.413 4.45268 2.09754 0
M  V30 6145 N 603.065 -0.440357 1.51323 0
M  V30 6146 C 604.312 -1.19004 1.63842 0
M  V30 6147 C 604.64 -1.91266 0.35321 0
M  V30 6148 O 603.895 -1.84143 -0.662565 0
M  V30 6149 C 604.194 -2.2339 2.78984 0
M  V30 6150 C 603.86 -1.68162 4.18369 0
M  V30 6151 C 602.522 -1.52823 4.56288 0
M  V30 6152 C 604.874 -1.27524 5.05358 0
M  V30 6153 C 602.202 -0.953157 5.78906 0
M  V30 6154 C 604.554 -0.714474 6.28552 0
M  V30 6155 C 603.218 -0.547961 6.65247 0
M  V30 6156 H 602.488 -0.435468 0.59954 0
M  V30 6157 H 605.135 -0.481538 1.85347 0
M  V30 6158 H 603.44 -3.00267 2.51688 0
M  V30 6159 H 605.137 -2.81211 2.85869 0
M  V30 6160 H 601.727 -1.81077 3.8847 0
M  V30 6161 H 605.911 -1.38197 4.76671 0
M  V30 6162 H 601.167 -0.811882 6.05986 0
M  V30 6163 H 605.341 -0.391059 6.95301 0
M  V30 6164 H 602.968 -0.100222 7.60134 0
M  V30 6165 N 604.543 -1.41418 -0.695603 0
M  V30 6166 C 605.773 -1.43921 -1.48224 0
M  V30 6167 C 606.181 -0.0428855 -1.89151 0
M  V30 6168 O 605.524 0.948138 -1.5734 0
M  V30 6169 C 605.586 -2.28466 -2.77567 0
M  V30 6170 C 605.25 -3.76629 -2.58844 0
M  V30 6171 C 606.247 -4.6879 -2.24793 0
M  V30 6172 C 603.932 -4.2067 -2.74485 0
M  V30 6173 C 605.926 -6.02981 -2.06622 0
M  V30 6174 C 603.613 -5.54926 -2.55931 0
M  V30 6175 C 604.611 -6.45897 -2.2205 0
M  V30 6176 O 604.299 -7.77675 -2.03657 0
M  V30 6177 H 604.031 -0.492252 -0.463318 0
M  V30 6178 H 606.585 -1.86347 -0.863952 0
M  V30 6179 H 604.815 -1.80853 -3.41802 0
M  V30 6180 H 606.504 -2.2267 -3.39371 0
M  V30 6181 H 607.27 -4.36055 -2.12323 0
M  V30 6182 H 603.149 -3.50167 -2.9984 0
M  V30 6183 H 606.693 -6.73951 -1.80099 0
M  V30 6184 H 602.59 -5.8724 -2.67991 0
M  V30 6185 H 603.358 -7.88819 -2.1842 0
M  V30 6186 N 606.021 0.929856 -1.27246 0
M  V30 6187 C 607.437 1.20542 -1.04603 0
M  V30 6188 C 607.637 2.00276 0.221754 0
M  V30 6189 O 606.693 2.34835 0.927833 0
M  V30 6190 C 608.006 1.95566 -2.28417 0
M  V30 6191 C 609.554 2.08513 -2.33433 0
M  V30 6192 C 610.029 2.86943 -3.5697 0
M  V30 6193 N 611.52 2.94512 -3.57515 0
M  V30 6194 C 612.255 3.55656 -4.49774 0
M  V30 6195 N 611.751 4.18209 -5.52334 0
M  V30 6196 N 613.544 3.53038 -4.37402 0
M  V30 6197 H 605.695 0.397113 -2.08655 0
M  V30 6198 H 607.958 0.238277 -0.917566 0
M  V30 6199 H 607.664 1.44395 -3.20691 0
M  V30 6200 H 607.538 2.9619 -2.33563 0
M  V30 6201 H 609.925 2.58872 -1.41666 0
M  V30 6202 H 610.006 1.07117 -2.32292 0
M  V30 6203 H 609.65 2.37268 -4.49072 0
M  V30 6204 H 609.58 3.8862 -3.55362 0
M  V30 6205 H 612.071 2.50053 -2.83341 0
M  V30 6206 H 612.384 4.62796 -6.18902 0
M  V30 6207 H 610.729 4.16761 -5.56179 0
M  V30 6208 H 613.92 3.0337 -3.56489 0
M  V30 6209 H 614.093 4.004 -5.09493 0
M  V30 6210 N 607.499 1.09233 1.13605 0
M  V30 6211 C 608.462 0.733553 2.17144 0
M  V30 6212 C 609.462 -0.235873 1.59061 0
M  V30 6213 O 610.652 -0.0143167 1.74194 0
M  V30 6214 C 607.784 0.084471 3.40795 0
M  V30 6215 H 608.977 1.65049 2.50397 0
M  V30 6216 H 606.53 0.891264 1.28399 0
M  V30 6217 H 607.265 -0.843795 3.1313 0
M  V30 6218 H 607.05 0.781985 3.84223 0
M  V30 6219 H 608.54 -0.151216 4.17326 0
M  V30 6220 N 608.977 -1.30795 0.87923 0
M  V30 6221 C 609.924 -2.28282 0.339968 0
M  V30 6222 C 610.894 -1.56134 -0.566685 0
M  V30 6223 O 612.079 -1.84231 -0.496338 0
M  V30 6224 C 609.219 -3.42225 -0.444501 0
M  V30 6225 C 608.332 -4.29204 0.490717 0
M  V30 6226 C 607.467 -5.30302 -0.308784 0
M  V30 6227 C 606.506 -6.08929 0.622272 0
M  V30 6228 N 605.643 -7.01957 -0.14155 0
M  V30 6229 H 610.483 -2.73794 1.17647 0
M  V30 6230 H 608.02 -1.34682 0.591527 0
M  V30 6231 H 609.978 -4.07038 -0.915186 0
M  V30 6232 H 608.608 -2.97799 -1.24562 0
M  V30 6233 H 607.66 -3.6475 1.07988 0
M  V30 6234 H 608.972 -4.84045 1.20425 0
M  V30 6235 H 608.126 -6.00835 -0.841575 0
M  V30 6236 H 606.865 -4.7614 -1.05556 0
M  V30 6237 H 605.87 -5.37278 1.16674 0
M  V30 6238 H 607.095 -6.65178 1.36804 0
M  V30 6239 H 605.041 -6.50192 -0.870966 0
M  V30 6240 H 604.958 -7.54261 0.51246 0
M  V30 6241 H 606.226 -7.76741 -0.655271 0
M  V30 6242 N 610.455 -0.639598 -1.44038 0
M  V30 6243 C 611.703 -0.147188 -2.01563 0
M  V30 6244 C 612.024 1.2384 -1.50628 0
M  V30 6245 O 611.294 1.82452 -0.713316 0
M  V30 6246 H 609.874 -0.0514231 -0.745228 0
M  V30 6247 H 612.536 -0.828205 -1.76428 0
M  V30 6248 H 611.632 -0.121358 -3.11864 0
M  V30 6249 N 611.933 1.52934 -0.380664 0
M  V30 6250 C 612.843 2.29921 0.466192 0
M  V30 6251 C 613.859 1.36488 1.07922 0
M  V30 6252 O 615.035 1.69553 1.0869 0
M  V30 6253 C 612.1 3.08468 1.58266 0
M  V30 6254 C 611.161 4.17595 0.995627 0
M  V30 6255 C 610.394 4.92387 2.05889 0
M  V30 6256 O 610.617 4.67184 3.27254 0
M  V30 6257 O 609.551 5.77949 1.68102 0
M  V30 6258 H 613.377 3.03274 -0.160735 0
M  V30 6259 H 610.962 1.48698 -0.144617 0
M  V30 6260 H 612.844 3.57469 2.23145 0
M  V30 6261 H 611.519 2.37937 2.19471 0
M  V30 6262 H 610.426 3.72811 0.310332 0
M  V30 6263 H 611.759 4.90336 0.427918 0
M  V30 6264 N 613.412 0.11024 1.57214 0
M  V30 6265 C 614.659 -0.54987 1.94891 0
M  V30 6266 C 614.987 -1.67243 0.992984 0
M  V30 6267 O 614.242 -1.95694 0.0152703 0
M  V30 6268 C 614.541 -1.13102 3.39032 0
M  V30 6269 C 614.207 -0.130713 4.5071 0
M  V30 6270 C 612.869 0.14437 4.80983 0
M  V30 6271 C 615.221 0.551472 5.18274 0
M  V30 6272 C 612.549 1.10807 5.76141 0
M  V30 6273 C 614.901 1.50375 6.14467 0
M  V30 6274 C 613.565 1.78691 6.43138 0
M  V30 6275 H 612.835 -0.201212 0.713158 0
M  V30 6276 H 615.482 0.189288 1.90562 0
M  V30 6277 H 613.787 -1.94675 3.40013 0
M  V30 6278 H 615.484 -1.64973 3.65493 0
M  V30 6279 H 612.074 -0.355301 4.27125 0
M  V30 6280 H 616.258 0.35211 4.95049 0
M  V30 6281 H 611.514 1.3343 5.96663 0
M  V30 6282 H 615.688 2.03808 6.65909 0
M  V30 6283 H 613.315 2.53522 7.1668 0
M  V30 6284 N 614.89 -1.56749 -0.16351 0
M  V30 6285 C 616.301 -1.72039 -0.725216 0
M  V30 6286 C 616.652 -0.72202 -1.82432 0
M  V30 6287 O 615.777 0.114942 -2.16095 0
M  V30 6288 C 616.372 -3.11932 -1.32227 0
M  V30 6289 C 614.931 -3.28879 -1.83072 0
M  V30 6290 C 614.078 -2.67984 -0.712716 0
M  V30 6291 H 617.029 -1.58579 0.0619772 0
M  V30 6292 H 617.05 -3.11015 -2.19202 0
M  V30 6293 H 616.562 -3.84572 -0.522103 0
M  V30 6294 H 614.663 -2.61209 -2.65708 0
M  V30 6295 H 614.776 -4.36688 -1.97079 0
M  V30 6296 H 613.14 -2.28005 -1.13515 0
M  V30 6297 H 613.923 -3.43216 0.0757361 0
M  V30 6298 N 616.368 0.432326 -1.51554 0
M  V30 6299 C 617.298 1.53242 -1.76179 0
M  V30 6300 C 618.279 1.58717 -0.611801 0
M  V30 6301 O 619.464 1.74364 -0.855033 0
M  V30 6302 C 616.594 2.91278 -1.89141 0
M  V30 6303 C 615.548 3.00663 -3.04608 0
M  V30 6304 C 614.874 4.40728 -3.02759 0
M  V30 6305 C 616.174 2.74281 -4.44485 0
M  V30 6306 H 617.868 1.32886 -2.68294 0
M  V30 6307 H 615.414 0.637841 -1.29103 0
M  V30 6308 H 617.367 3.68203 -2.04951 0
M  V30 6309 H 616.091 3.12877 -0.936785 0
M  V30 6310 H 614.75 2.26179 -2.88511 0
M  V30 6311 H 614.398 4.59301 -2.05065 0
M  V30 6312 H 614.098 4.47936 -3.80299 0
M  V30 6313 H 615.622 5.19619 -3.20669 0
M  V30 6314 H 617.036 3.40936 -4.60907 0
M  V30 6315 H 615.433 2.92893 -5.23769 0
M  V30 6316 H 616.503 1.69856 -4.54177 0
M  V30 6317 N 617.846 1.41785 0.688094 0
M  V30 6318 C 618.794 1.44436 1.82321 0
M  V30 6319 C 619.788 0.321544 1.6632 0
M  V30 6320 O 620.994 0.493931 1.73091 0
M  V30 6321 H 617.369 0.452084 0.600936 0
M  V30 6322 H 619.34 2.40087 1.77202 0
M  V30 6323 C 618.089 1.35071 3.20392 0
M  V30 6324 H 617.412 2.2076 3.33324 0
M  V30 6325 H 618.852 1.40988 3.99873 0
M  V30 6326 C 617.311 0.0639127 3.36839 0
M  V30 6327 O 617.841 -0.888495 3.91751 0
M  V30 6328 N 616.047 -0.0146114 2.90596 0
M  V30 6329 H 615.594 0.761191 2.46097 0
M  V30 6330 H 615.552 -0.874988 3.01979 0
M  V30 6331 N 619.324 -0.923095 1.27737 0
M  V30 6332 C 620.572 -1.66797 1.14119 0
M  V30 6333 C 620.893 -1.92479 -0.312541 0
M  V30 6334 O 620.163 -1.53432 -1.218 0
M  V30 6335 H 618.743 -0.618196 0.419336 0
M  V30 6336 H 621.405 -1.10815 1.60331 0
M  V30 6337 H 620.501 -2.63424 1.67374 0
M  V30 6338 N 620.802 -1.09834 -1.13024 0
M  V30 6339 C 622.213 -0.855651 -1.65938 0
M  V30 6340 C 622.564 0.615159 -1.86307 0
M  V30 6341 O 621.689 1.47335 -1.58497 0
M  V30 6342 C 622.284 -1.5467 -3.01434 0
M  V30 6343 C 620.843 -1.35088 -3.51323 0
M  V30 6344 C 619.99 -1.6001 -2.26478 0
M  V30 6345 H 622.941 -1.25691 -0.968889 0
M  V30 6346 H 622.962 -0.982179 -3.67605 0
M  V30 6347 H 622.474 -2.61715 -2.86578 0
M  V30 6348 H 620.575 -0.30179 -3.71376 0
M  V30 6349 H 620.688 -2.0886 -4.31178 0
M  V30 6350 H 619.052 -1.02246 -2.33276 0
M  V30 6351 H 619.835 -2.68293 -2.14182 0
M  V30 6352 N 622.28 1.30327 -0.886154 0
M  V30 6353 C 623.526 1.96388 -0.505941 0
M  V30 6354 C 623.859 1.69784 0.942712 0
M  V30 6355 O 623.134 1.00322 1.6663 0
M  V30 6356 C 623.417 3.51488 -0.782826 0
M  V30 6357 C 623.27 3.87603 -2.28219 0
M  V30 6358 C 624.589 4.39331 -0.260128 0
M  V30 6359 H 621.708 0.713327 -0.185292 0
M  V30 6360 H 624.35 1.54178 -1.11036 0
M  V30 6361 H 622.5 3.87572 -0.268399 0
M  V30 6362 H 624.172 3.61537 -2.86512 0
M  V30 6363 H 622.415 3.3563 -2.74837 0
M  V30 6364 H 623.086 4.95806 -2.42653 0
M  V30 6365 H 625.562 4.10162 -0.700444 0
M  V30 6366 H 624.438 5.46769 -0.483179 0
M  V30 6367 H 624.699 4.34072 0.838674 0
M  V30 6368 N 623.758 0.647228 1.43697 0
M  V30 6369 C 624.668 -0.0487997 2.34549 0
M  V30 6370 C 625.684 -0.818586 1.53542 0
M  V30 6371 O 626.86 -0.767195 1.86215 0
M  V30 6372 C 623.925 -1.00734 3.31743 0
M  V30 6373 C 622.986 -0.23515 4.28655 0
M  V30 6374 C 622.219 -1.14803 5.21206 0
M  V30 6375 O 622.442 -2.38717 5.18045 0
M  V30 6376 O 621.376 -0.623667 5.9866 0
M  V30 6377 H 625.202 0.698863 2.9555 0
M  V30 6378 H 622.787 0.407412 1.43738 0
M  V30 6379 H 624.669 -1.55837 3.91526 0
M  V30 6380 H 623.344 -1.73534 2.73254 0
M  V30 6381 H 622.251 0.359319 3.7237 0
M  V30 6382 H 623.584 0.453152 4.9011 0
M  V30 6383 N 625.236 -1.5273 0.388769 0
M  V30 6384 C 626.485 -2.00757 -0.194833 0
M  V30 6385 C 626.798 -1.27951 -1.47946 0
M  V30 6386 O 628.004 -1.66686 -2.14308 0
M  V30 6387 C 626.46 -3.57695 -0.397762 0
M  V30 6388 C 626.068 -4.394 0.873583 0
M  V30 6389 C 627.812 -4.14012 -0.937759 0
M  V30 6390 C 625.719 -5.87938 0.638962 0
M  V30 6391 H 624.649 -0.750101 -0.0765845 0
M  V30 6392 H 627.3 -1.76239 0.511086 0
M  V30 6393 H 625.682 -3.7846 -1.16552 0
M  V30 6394 H 626.856 -4.30403 1.64591 0
M  V30 6395 H 625.171 -3.94301 1.33849 0
M  V30 6396 H 627.768 -5.22645 -1.12899 0
M  V30 6397 H 628.111 -3.7007 -1.90666 0
M  V30 6398 H 628.644 -3.97137 -0.229588 0
M  V30 6399 H 625.383 -6.36202 1.57885 0
M  V30 6400 H 624.903 -5.99726 -0.094443 0
M  V30 6401 H 626.582 -6.46423 0.273299 0
M  V30 6402 N 626.714 -0.118576 -1.57153 0
M  V30 6403 C 628.13 0.238014 -1.57815 0
M  V30 6404 C 628.33 1.66747 -1.13127 0
M  V30 6405 O 627.386 2.38867 -0.818462 0
M  V30 6406 C 628.699 0.00508207 -3.007 0
M  V30 6407 C 630.247 0.0710139 -3.12919 0
M  V30 6408 C 630.722 -0.13422 -4.57803 0
M  V30 6409 N 632.213 -0.0801755 -4.63131 0
M  V30 6410 C 632.948 -0.213885 -5.73001 0
M  V30 6411 N 632.444 -0.403742 -6.91623 0
M  V30 6412 N 634.237 -0.15349 -5.6189 0
M  V30 6413 H 626.388 -1.05226 -1.84503 0
M  V30 6414 H 628.651 -0.414318 -0.852669 0
M  V30 6415 H 628.357 -0.983125 -3.3768 0
M  V30 6416 H 628.231 0.73714 -3.69927 0
M  V30 6417 H 630.618 1.04975 -2.75798 0
M  V30 6418 H 630.699 -0.692918 -2.46236 0
M  V30 6419 H 630.343 -1.10992 -4.95624 0
M  V30 6420 H 630.273 0.649692 -5.22577 0
M  V30 6421 H 632.764 0.0630689 -3.77847 0
M  V30 6422 H 633.077 -0.496645 -7.71202 0
M  V30 6423 H 631.422 -0.43971 -6.93608 0
M  V30 6424 H 634.613 -0.00613174 -4.681 0
M  V30 6425 H 634.786 -0.261138 -6.47474 0
M  V30 6426 N 628.193 1.56834 0.155195 0
M  V30 6427 C 629.433 1.84701 0.875488 0
M  V30 6428 C 629.797 0.701747 1.78716 0
M  V30 6429 O 630.998 0.861263 2.54629 0
M  V30 6430 C 629.269 3.1773 1.63654 0
M  V30 6431 S 630.828 3.67128 2.40338 0
M  V30 6432 H 627.646 0.647856 0.292923 0
M  V30 6433 H 630.248 1.95026 0.136024 0
M  V30 6434 H 628.952 3.99059 0.958117 0
M  V30 6435 H 628.483 3.10388 2.41708 0
M  V30 6436 H 630.498 3.35739 3.65368 0
M  V30 6437 N 629.671 -0.424282 1.51781 0
M  V30 6438 C 630.911 -1.18194 1.66762 0
M  V30 6439 C 631.275 -1.88164 0.381857 0
M  V30 6440 O 632.476 -2.65692 0.407586 0
M  V30 6441 C 630.747 -2.16173 2.84612 0
M  V30 6442 S 632.306 -3.0025 3.19993 0
M  V30 6443 H 629.124 -0.400626 0.587384 0
M  V30 6444 H 631.726 -0.471499 1.89729 0
M  V30 6445 H 630.43 -1.6343 3.76455 0
M  V30 6446 H 629.961 -2.91778 2.63873 0
M  V30 6447 H 631.976 -4.1796 2.67439 0
M  V30 6448 N 631.149 -1.42148 -0.680565 0
M  V30 6449 C 632.397 -1.42029 -1.43779 0
M  V30 6450 C 632.718 -0.0356347 -1.94967 0
M  V30 6451 O 631.988 0.924936 -1.7269 0
M  V30 6452 H 630.568 -0.522835 -0.533529 0
M  V30 6453 H 633.23 -1.7752 -0.804538 0
M  V30 6454 H 632.326 -2.11658 -2.29363 0
M  V30 6455 N 632.627 0.916307 -1.28225 0
M  V30 6456 C 633.557 2.0352 -1.14464 0
M  V30 6457 C 634.538 1.70045 -0.0430844 0
M  V30 6458 O 635.723 1.92954 -0.219619 0
M  V30 6459 C 632.853 3.37889 -0.803027 0
M  V30 6460 C 631.807 3.85516 -1.85908 0
M  V30 6461 C 631.133 5.1682 -1.37116 0
M  V30 6462 C 632.433 4.07655 -3.26519 0
M  V30 6463 H 634.127 2.1529 -2.08064 0
M  V30 6464 H 631.673 1.03446 -1.00174 0
M  V30 6465 H 633.626 4.15654 -0.693537 0
M  V30 6466 H 632.35 3.26164 0.168674 0
M  V30 6467 H 631.009 3.09953 -1.95767 0
M  V30 6468 H 630.657 5.01497 -0.38859 0
M  V30 6469 H 630.357 5.49657 -2.07728 0
M  V30 6470 H 631.881 5.97143 -1.27484 0
M  V30 6471 H 633.295 4.75953 -3.19596 0
M  V30 6472 H 631.692 4.51818 -3.94943 0
M  V30 6473 H 632.762 3.12553 -3.70727 0
M  V30 6474 N 634.105 1.10431 1.1244 0
M  V30 6475 C 635.382 0.758797 1.80282 0
M  V30 6476 C 635.762 -0.754727 1.97147 0
M  V30 6477 O 635.11 -1.68094 1.54779 0
M  V30 6478 C 635.32 1.50982 3.14651 0
M  V30 6479 C 636.668 1.68232 3.8985 0
M  V30 6480 O 637.692 1.47319 3.24308 0
M  V30 6481 O 636.551 2.02905 5.07437 0
M  V30 6482 H 633.645 0.273756 0.780376 0
M  V30 6483 H 636.191 1.20713 1.19275 0
M  V30 6484 H 634.963 2.53989 2.97666 0
M  V30 6485 H 634.586 1.05435 3.83366 0
M  V30 6486 N 635.583 -1.29855 0.893053 0
M  V30 6487 C 636.515 -2.26911 0.32311 0
M  V30 6488 C 637.528 -1.54039 -0.526858 0
M  V30 6489 O 638.717 -1.75132 -0.345095 0
M  V30 6490 C 635.817 -3.34266 -0.558509 0
M  V30 6491 C 634.99 -4.36601 0.264222 0
M  V30 6492 C 634.049 -5.23326 -0.549171 0
M  V30 6493 O 633.075 -5.69192 0.0309883 0
M  V30 6494 N 634.277 -5.50008 -1.85664 0
M  V30 6495 H 637.042 -2.76455 1.15726 0
M  V30 6496 H 634.603 -1.4312 0.756859 0
M  V30 6497 H 636.595 -3.89211 -1.1089 0
M  V30 6498 H 635.165 -2.8459 -1.29334 0
M  V30 6499 H 634.385 -3.81409 0.996046 0
M  V30 6500 H 635.673 -5.02019 0.827906 0
M  V30 6501 H 635.071 -5.14542 -2.35081 0
M  V30 6502 H 633.628 -6.07796 -2.35431 0
M  V30 6503 N 637.061 -0.65484 -1.43351 0
M  V30 6504 C 638.024 0.0263562 -2.29185 0
M  V30 6505 C 639.024 0.748951 -1.42293 0
M  V30 6506 O 640.214 0.589957 -1.63906 0
M  V30 6507 C 637.346 1.04806 -3.2439 0
M  V30 6508 H 638.539 -0.728883 -2.90908 0
M  V30 6509 H 636.092 -0.416149 -1.50658 0
M  V30 6510 H 636.827 1.83247 -2.67565 0
M  V30 6511 H 636.612 0.533554 -3.88453 0
M  V30 6512 H 638.102 1.52372 -3.88809 0
M  V30 6513 N 638.539 1.52521 -0.396863 0
M  V30 6514 C 639.502 2.2527 0.422604 0
M  V30 6515 C 640.502 1.27184 0.983913 0
M  V30 6516 O 641.692 1.51222 0.864723 0
M  V30 6517 C 638.824 3.01356 1.59365 0
M  V30 6518 H 640.017 2.99133 -0.214416 0
M  V30 6519 H 637.57 1.55587 -0.149128 0
M  V30 6520 H 638.305 2.31813 2.26789 0
M  V30 6521 H 638.09 3.73357 1.19779 0
M  V30 6522 H 639.58 3.56571 2.17363 0
M  V30 6523 N 640.017 0.126909 1.57088 0
M  V30 6524 C 641.294 -0.573152 1.87014 0
M  V30 6525 C 641.674 -1.84297 1.02945 0
M  V30 6526 O 641.022 -2.28232 0.110573 0
M  V30 6527 C 641.232 -0.857984 3.38289 0
M  V30 6528 C 642.58 -1.20759 4.07066 0
M  V30 6529 O 643.604 -0.947992 3.43353 0
M  V30 6530 O 642.463 -1.69516 5.19545 0
M  V30 6531 H 639.557 -0.290082 0.774456 0
M  V30 6532 H 642.103 0.162008 1.68925 0
M  V30 6533 H 640.875 0.0415286 3.91278 0
M  V30 6534 H 640.498 -1.64803 3.61837 0
M  V30 6535 N 641.495 -1.56914 -0.146875 0
M  V30 6536 C 642.741 -1.83628 -0.860741 0
M  V30 6537 C 643.074 -0.708528 -1.80813 0
M  V30 6538 O 642.349 0.287838 -1.92358 0
M  V30 6539 C 642.632 -3.20836 -1.63511 0
M  V30 6540 C 642.485 -4.44174 -0.709199 0
M  V30 6541 C 643.804 -3.55268 -2.59756 0
M  V30 6542 H 640.923 -0.667949 -0.311468 0
M  V30 6543 H 643.565 -1.89582 -0.125936 0
M  V30 6544 H 641.715 -3.15891 -2.26153 0
M  V30 6545 H 643.387 -4.61205 -0.0937781 0
M  V30 6546 H 641.63 -4.33796 -0.0187856 0
M  V30 6547 H 642.301 -5.36785 -1.28707 0
M  V30 6548 H 644.777 -3.60824 -2.07232 0
M  V30 6549 H 643.653 -4.52303 -3.10987 0
M  V30 6550 H 643.914 -2.81231 -3.41118 0
M  V30 6551 N 642.974 0.416227 -1.52004 0
M  V30 6552 C 643.921 1.50666 -1.74838 0
M  V30 6553 C 644.891 1.55245 -0.590599 0
M  V30 6554 O 646.076 1.71928 -0.827374 0
M  V30 6555 C 643.216 2.88185 -1.89851 0
M  V30 6556 C 642.329 2.92971 -3.17478 0
M  V30 6557 C 641.464 4.21745 -3.22962 0
M  V30 6558 C 640.503 4.20478 -4.4482 0
M  V30 6559 N 639.64 5.40811 -4.47736 0
M  V30 6560 H 644.48 1.30498 -2.67907 0
M  V30 6561 H 642.017 0.633568 -1.32757 0
M  V30 6562 H 643.975 3.68007 -1.96537 0
M  V30 6563 H 642.605 3.06865 -1.00169 0
M  V30 6564 H 641.657 2.05684 -3.19997 0
M  V30 6565 H 642.969 2.87899 -4.07328 0
M  V30 6566 H 642.123 5.09954 -3.28682 0
M  V30 6567 H 640.862 4.29503 -2.31038 0
M  V30 6568 H 639.867 3.30659 -4.39254 0
M  V30 6569 H 641.092 4.14366 -5.38031 0
M  V30 6570 H 639.038 5.4925 -3.58692 0
M  V30 6571 H 638.955 5.37705 -5.31422 0
M  V30 6572 H 640.223 6.30993 -4.57676 0
M  V30 6573 N 644.452 1.42507 0.673017 0
M  V30 6574 C 645.698 1.43284 1.43519 0
M  V30 6575 C 646.031 0.049668 1.94136 0
M  V30 6576 O 645.306 -0.926369 1.71022 0
M  V30 6577 C 645.589 2.45874 2.63093 0
M  V30 6578 C 645.442 3.93388 2.18096 0
M  V30 6579 C 646.761 2.45431 3.6531 0
M  V30 6580 H 643.88 0.521752 0.520522 0
M  V30 6581 H 646.522 1.73932 0.764701 0
M  V30 6582 H 644.672 2.19869 3.20296 0
M  V30 6583 H 646.344 4.30379 1.66046 0
M  V30 6584 H 644.587 4.07169 1.49652 0
M  V30 6585 H 645.258 4.60752 3.03993 0
M  V30 6586 H 647.734 2.68561 3.17827 0
M  V30 6587 H 646.61 3.19189 4.46553 0
M  V30 6588 H 646.871 1.48092 4.16559 0
M  V30 6589 N 645.93 -0.909495 1.28709 0
M  V30 6590 C 647.341 -1.47419 1.14563 0
M  V30 6591 C 647.692 -1.94432 -0.262832 0
M  V30 6592 O 646.817 -1.82842 -1.15748 0
M  V30 6593 C 647.412 -2.67933 2.07358 0
M  V30 6594 C 645.971 -3.20568 1.97264 0
M  V30 6595 C 645.118 -1.93269 1.98852 0
M  V30 6596 H 648.069 -0.721787 1.41336 0
M  V30 6597 H 648.09 -3.43339 1.64007 0
M  V30 6598 H 647.602 -2.33685 3.09859 0
M  V30 6599 H 645.703 -3.59531 0.978157 0
M  V30 6600 H 645.816 -3.85529 2.84436 0
M  V30 6601 H 644.18 -2.10553 1.43317 0
M  V30 6602 H 644.963 -1.61312 3.0304 0
M  V30 6603 N 647.408 -1.11026 -1.11852 0
M  V30 6604 C 648.633 -0.879064 -1.87849 0
M  V30 6605 C 649.058 0.565406 -1.79401 0
M  V30 6606 O 648.416 1.39886 -1.15333 0
M  V30 6607 C 648.464 -1.33985 -3.34784 0
M  V30 6608 O 647.568 -0.508803 -4.09249 0
M  V30 6609 H 646.909 -0.316992 -0.583448 0
M  V30 6610 H 649.439 -1.47863 -1.41413 0
M  V30 6611 H 649.449 -1.33248 -3.85628 0
M  V30 6612 H 648.124 -2.39172 -3.40249 0
M  V30 6613 H 646.701 -0.581913 -3.68332 0
M  V30 6614 N 648.886 1.2938 -0.899927 0
M  V30 6615 C 650.132 1.9584 -0.526742 0
M  V30 6616 C 650.465 1.70774 0.924651 0
M  V30 6617 O 649.74 1.02084 1.65557 0
M  V30 6618 C 650.023 3.50638 -0.820062 0
M  V30 6619 C 649.876 3.85161 -2.32317 0
M  V30 6620 C 651.195 4.3903 -0.30671 0
M  V30 6621 H 648.314 0.711322 -0.192848 0
M  V30 6622 H 650.956 1.52992 -1.12665 0
M  V30 6623 H 649.106 3.87265 -0.309491 0
M  V30 6624 H 650.778 3.58477 -2.9033 0
M  V30 6625 H 649.021 3.32696 -2.78381 0
M  V30 6626 H 649.692 4.93204 -2.47898 0
M  V30 6627 H 652.168 4.09396 -0.743908 0
M  V30 6628 H 651.044 5.46226 -0.541144 0
M  V30 6629 H 651.305 4.34937 0.792588 0
M  V30 6630 N 650.364 0.662433 1.43002 0
M  V30 6631 C 651.612 0.179237 2.01304 0
M  V30 6632 C 651.933 -1.21428 1.52579 0
M  V30 6633 O 651.203 -1.81294 0.742252 0
M  V30 6634 H 649.783 0.0632725 0.744316 0
M  V30 6635 H 652.445 0.856169 1.75088 0
M  V30 6636 H 651.541 0.170957 3.11631 0
M  V30 6637 N 651.842 -1.52309 0.404946 0
M  V30 6638 C 653.253 -1.86585 -0.0655926 0
M  V30 6639 C 653.604 -1.3239 -1.44801 0
M  V30 6640 O 652.729 -0.6615 -2.06042 0
M  V30 6641 C 653.324 -3.38566 -0.125801 0
M  V30 6642 C 651.883 -3.72497 -0.540666 0
M  V30 6643 C 651.03 -2.75806 0.287487 0
M  V30 6644 H 653.981 -1.45995 0.622185 0
M  V30 6645 H 654.002 -3.68658 -0.941888 0
M  V30 6646 H 653.514 -3.77981 0.880473 0
M  V30 6647 H 651.615 -3.38659 -1.55373 0
M  V30 6648 H 651.728 -4.78234 -0.287956 0
M  V30 6649 H 650.092 -2.53474 -0.249561 0
M  V30 6650 H 650.875 -3.18059 1.29203 0
M  V30 6651 N 653.32 -0.135238 -1.57019 0
M  V30 6652 C 654.731 0.387521 -1.82634 0
M  V30 6653 C 655.082 1.65528 -1.05332 0
M  V30 6654 O 654.207 2.14381 -0.294926 0
M  V30 6655 C 654.802 0.709852 -3.3128 0
M  V30 6656 C 653.361 1.17718 -3.57518 0
M  V30 6657 C 652.508 0.194183 -2.76619 0
M  V30 6658 H 655.459 -0.360126 -1.5456 0
M  V30 6659 H 655.48 1.5657 -3.46794 0
M  V30 6660 H 654.992 -0.213024 -3.87515 0
M  V30 6661 H 653.093 2.1164 -3.06658 0
M  V30 6662 H 653.206 1.11128 -4.66034 0
M  V30 6663 H 651.57 0.684478 -2.4533 0
M  V30 6664 H 652.353 -0.722076 -3.3562 0
M  V30 6665 N 654.798 1.5699 0.138552 0
M  V30 6666 C 656.026 1.87976 0.864437 0
M  V30 6667 C 656.441 0.724372 1.74351 0
M  V30 6668 O 655.798 -0.305575 1.79924 0
M  V30 6669 C 655.849 3.18276 1.71414 0
M  V30 6670 O 655.57 4.29365 0.870487 0
M  V30 6671 C 657.071 3.62834 2.54688 0
M  V30 6672 H 654.291 0.622878 0.249528 0
M  V30 6673 H 656.835 2.04094 0.128805 0
M  V30 6674 H 654.99 3.03886 2.40274 0
M  V30 6675 H 655.404 5.03924 1.45466 0
M  V30 6676 H 656.878 4.5682 3.0987 0
M  V30 6677 H 657.355 2.88533 3.31127 0
M  V30 6678 H 657.961 3.79946 1.91105 0
M  V30 6679 N 656.276 -0.40816 1.52223 0
M  V30 6680 C 657.525 -1.15212 1.65557 0
M  V30 6681 C 657.838 -1.9163 0.392096 0
M  V30 6682 O 659.044 -2.68458 0.405256 0
M  V30 6683 C 657.5 -2.09691 2.92502 0
M  V30 6684 C 657.108 -1.38785 4.25961 0
M  V30 6685 C 658.852 -2.8434 3.152 0
M  V30 6686 C 656.759 -2.31919 5.44029 0
M  V30 6687 H 655.689 -0.433776 0.616729 0
M  V30 6688 H 658.34 -0.4165 1.78711 0
M  V30 6689 H 656.722 -2.8681 2.7305 0
M  V30 6690 H 657.896 -0.670248 4.55899 0
M  V30 6691 H 656.211 -0.761741 4.09373 0
M  V30 6692 H 658.808 -3.54166 4.00587 0
M  V30 6693 H 659.151 -3.47344 2.29473 0
M  V30 6694 H 659.684 -2.14321 3.35129 0
M  V30 6695 H 656.423 -1.7356 6.32105 0
M  V30 6696 H 655.943 -3.0165 5.18428 0
M  V30 6697 H 657.622 -2.92424 5.77146 0
M  V30 6698 N 657.755 -1.42862 -0.66545 0
M  V30 6699 C 658.98 -1.47456 -1.45848 0
M  V30 6700 C 659.405 -0.0900312 -1.87884 0
M  V30 6701 O 658.763 0.913587 -1.56599 0
M  V30 6702 C 658.811 -2.41514 -2.67774 0
M  V30 6703 O 657.915 -1.89296 -3.66389 0
M  V30 6704 H 657.256 -0.499236 -0.437789 0
M  V30 6705 H 659.786 -1.8765 -0.815394 0
M  V30 6706 H 659.796 -2.58409 -3.15735 0
M  V30 6707 H 658.471 -3.42099 -2.36519 0
M  V30 6708 H 657.048 -1.82003 -3.25468 0
M  V30 6709 N 659.233 0.902656 -1.29189 0
M  V30 6710 C 660.196 1.98797 -1.14071 0
M  V30 6711 C 661.196 1.60615 -0.0770549 0
M  V30 6712 O 662.386 1.71165 -0.323753 0
M  V30 6713 C 659.518 3.32688 -0.743739 0
M  V30 6714 H 660.711 2.13637 -2.10473 0
M  V30 6715 H 658.264 1.08678 -1.12334 0
M  V30 6716 H 658.999 3.23549 0.220554 0
M  V30 6717 H 658.784 3.61765 -1.51223 0
M  V30 6718 H 660.274 4.12337 -0.660935 0
M  V30 6719 N 660.711 1.11618 1.11262 0
M  V30 6720 C 661.939 0.888739 1.8684 0
M  V30 6721 C 662.354 -0.561558 1.80255 0
M  V30 6722 O 661.711 -1.38782 1.18515 0
M  V30 6723 C 661.762 1.34422 3.35579 0
M  V30 6724 O 661.483 2.73766 3.42029 0
M  V30 6725 C 662.984 1.15246 4.28058 0
M  V30 6726 H 660.204 0.318152 0.590779 0
M  V30 6727 H 662.748 1.48398 1.40707 0
M  V30 6728 H 660.903 0.79239 3.7921 0
M  V30 6729 H 661.317 2.9355 4.34659 0
M  V30 6730 H 662.791 1.52015 5.30656 0
M  V30 6731 H 663.268 0.0922007 4.39103 0
M  V30 6732 H 663.874 1.69136 3.90222 0
M  V30 6733 N 662.189 -1.289 0.906776 0
M  V30 6734 C 663.605 -1.47733 0.603902 0
M  V30 6735 C 663.805 -1.82568 -0.852702 0
M  V30 6736 O 662.861 -1.92642 -1.63234 0
M  V30 6737 C 664.174 -2.58522 1.53581 0
M  V30 6738 C 665.722 -2.72394 1.54177 0
M  V30 6739 C 666.197 -3.86318 2.46013 0
M  V30 6740 N 667.688 -3.93661 2.441 0
M  V30 6741 C 668.423 -4.81177 3.11859 0
M  V30 6742 N 667.919 -5.73333 3.88923 0
M  V30 6743 N 669.712 -4.74728 3.00981 0
M  V30 6744 H 661.863 -1.04567 1.84877 0
M  V30 6745 H 664.126 -0.520118 0.792579 0
M  V30 6746 H 663.832 -2.39667 2.57396 0
M  V30 6747 H 663.706 -3.55475 1.26165 0
M  V30 6748 H 666.093 -2.90641 0.511034 0
M  V30 6749 H 666.174 -1.75993 1.85634 0
M  V30 6750 H 665.818 -3.68826 3.49185 0
M  V30 6751 H 665.748 -4.82102 2.11862 0
M  V30 6752 H 668.239 -3.27751 1.88115 0
M  V30 6753 H 668.552 -6.36923 4.37663 0
M  V30 6754 H 666.897 -5.73196 3.93029 0
M  V30 6755 H 670.088 -4.01722 2.40286 0
M  V30 6756 H 670.261 -5.42719 3.54062 0
M  V30 6757 N 663.667 -0.670007 -1.42649 0
M  V30 6758 C 665.078 -0.268118 -1.84765 0
M  V30 6759 C 665.429 1.18877 -1.56086 0
M  V30 6760 O 664.554 1.90947 -1.01825 0
M  V30 6761 C 665.149 -0.47984 -3.35385 0
M  V30 6762 C 663.708 -0.132116 -3.76168 0
M  V30 6763 C 662.855 -0.774611 -2.66261 0
M  V30 6764 H 665.806 -0.872509 -1.32563 0
M  V30 6765 H 665.827 0.269522 -3.79544 0
M  V30 6766 H 665.339 -1.54026 -3.56227 0
M  V30 6767 H 663.44 0.92505 -3.60934 0
M  V30 6768 H 663.553 -0.569294 -4.75706 0
M  V30 6769 H 661.917 -0.206353 -2.53863 0
M  V30 6770 H 662.7 -1.83839 -2.89928 0
M  V30 6771 N 665.145 1.52092 -0.413018 0
M  V30 6772 C 666.561 1.59471 -0.0640836 0
M  V30 6773 C 666.761 1.42562 1.42402 0
M  V30 6774 O 665.817 1.25453 2.19129 0
M  V30 6775 C 667.13 2.95392 -0.562474 0
M  V30 6776 C 668.678 3.08637 -0.520788 0
M  V30 6777 C 669.153 4.47044 -0.995752 0
M  V30 6778 N 670.644 4.53296 -0.952732 0
M  V30 6779 C 671.379 5.58669 -1.29138 0
M  V30 6780 N 670.875 6.71576 -1.70168 0
M  V30 6781 N 672.668 5.48898 -1.2111 0
M  V30 6782 H 664.819 1.6133 -1.38153 0
M  V30 6783 H 667.082 0.75916 -0.567785 0
M  V30 6784 H 666.788 3.13059 -1.60271 0
M  V30 6785 H 666.662 3.77191 0.0257875 0
M  V30 6786 H 669.049 2.90652 0.510412 0
M  V30 6787 H 669.13 2.28735 -1.14515 0
M  V30 6788 H 668.774 4.65773 -2.0253 0
M  V30 6789 H 668.704 5.25448 -0.348162 0
M  V30 6790 H 671.195 3.72248 -0.651119 0
M  V30 6791 H 671.508 7.47973 -1.9431 0
M  V30 6792 H 669.853 6.72847 -1.74075 0
M  V30 6793 H 673.044 4.59573 -0.889396 0
M  V30 6794 H 673.217 6.30912 -1.47833 0
M  V30 6795 N 666.623 0.143563 1.56945 0
M  V30 6796 C 668.034 -0.37783 1.82837 0
M  V30 6797 C 668.385 -1.64967 1.06209 0
M  V30 6798 O 667.51 -2.14221 0.306291 0
M  V30 6799 C 668.105 -0.692274 3.31652 0
M  V30 6800 C 666.664 -1.1582 3.58138 0
M  V30 6801 C 665.811 -0.17951 2.76718 0
M  V30 6802 H 668.762 0.368317 1.54367 0
M  V30 6803 H 668.783 -1.54729 3.47619 0
M  V30 6804 H 668.295 0.233572 3.87397 0
M  V30 6805 H 666.396 -2.10011 3.07776 0
M  V30 6806 H 666.509 -1.08655 4.66616 0
M  V30 6807 H 664.873 -0.671458 2.4569 0
M  V30 6808 H 665.656 0.739865 3.35233 0
M  V30 6809 N 668.101 -1.57061 -0.130224 0
M  V30 6810 C 669.378 -1.75205 -0.869631 0
M  V30 6811 C 669.758 -0.716063 -1.98584 0
M  V30 6812 O 669.106 0.262032 -2.26993 0
M  V30 6813 C 669.316 -3.19835 -1.39666 0
M  V30 6814 C 670.664 -3.82011 -1.85345 0
M  V30 6815 O 671.688 -3.23368 -1.49371 0
M  V30 6816 O 670.547 -4.85064 -2.51744 0
M  V30 6817 H 667.641 -0.716977 -0.412157 0
M  V30 6818 H 670.187 -1.69311 -0.11484 0
M  V30 6819 H 668.959 -3.86745 -0.595288 0
M  V30 6820 H 668.582 -3.30222 -2.21448 0
M  V30 6821 N 669.579 0.400081 -1.52437 0
M  V30 6822 C 670.529 1.48734 -1.72807 0
M  V30 6823 C 671.513 1.50004 -0.582032 0
M  V30 6824 O 672.705 1.55828 -0.839449 0
M  V30 6825 C 669.834 2.86568 -1.89034 0
M  V30 6826 C 668.92 2.8991 -3.09537 0
M  V30 6827 N 669.311 2.62937 -4.32086 0
M  V30 6828 C 667.609 3.21078 -3.09556 0
M  V30 6829 C 668.31 2.73079 -5.13617 0
M  V30 6830 N 667.286 3.06342 -4.49061 0
M  V30 6831 H 671.088 1.26689 -2.65193 0
M  V30 6832 H 668.602 0.607902 -1.50593 0
M  V30 6833 H 670.599 3.64834 -2.01746 0
M  V30 6834 H 669.259 3.09604 -0.978547 0
M  V30 6835 H 670.27 2.37163 -4.60406 0
M  V30 6836 H 666.947 3.49651 -2.28146 0
M  V30 6837 H 668.337 2.55863 -6.21276 0
M  V30 6838 N 671.057 1.43213 0.657864 0
M  V30 6839 C 672.468 1.39669 1.23893 0
M  V30 6840 C 672.819 0.0984217 1.95953 0
M  V30 6841 O 671.944 -0.8023 2.00978 0
M  V30 6842 C 672.539 2.53004 2.25332 0
M  V30 6843 C 671.098 2.5274 2.78926 0
M  V30 6844 C 670.245 2.30941 1.53497 0
M  V30 6845 H 673.196 1.52181 0.450172 0
M  V30 6846 H 673.217 2.24226 3.07413 0
M  V30 6847 H 672.729 3.4748 1.72856 0
M  V30 6848 H 670.83 1.6213 3.35477 0
M  V30 6849 H 670.943 3.50352 3.26787 0
M  V30 6850 H 669.307 1.7952 1.80678 0
M  V30 6851 H 670.09 3.27496 1.02963 0
M  V30 6852 N 672.536 -0.895792 1.29666 0
M  V30 6853 C 673.813 -1.62723 1.08538 0
M  V30 6854 C 674.193 -2.07848 -0.369119 0
M  V30 6855 O 673.541 -1.8372 -1.35864 0
M  V30 6856 C 673.751 -2.80505 2.07648 0
M  V30 6857 C 675.099 -3.51098 2.3878 0
M  V30 6858 O 676.123 -2.90679 2.05874 0
M  V30 6859 O 674.982 -4.60028 2.9502 0
M  V30 6860 H 672.076 -0.714692 0.416106 0
M  V30 6861 H 674.622 -0.943517 1.41053 0
M  V30 6862 H 673.394 -2.44386 3.05599 0
M  V30 6863 H 673.017 -3.5658 1.75887 0
M  V30 6864 N 674.014 -1.12206 -1.10668 0
M  V30 6865 C 675.26 -0.887096 -1.83036 0
M  V30 6866 C 675.615 0.580887 -1.83422 0
M  V30 6867 O 674.908 1.42379 -1.28213 0
M  V30 6868 C 675.102 -1.39276 -3.29146 0
M  V30 6869 C 674.931 -2.90837 -3.42992 0
M  V30 6870 C 673.701 -3.59047 -3.55546 0
M  V30 6871 C 675.899 -3.8885 -3.36601 0
M  V30 6872 N 673.881 -4.98747 -3.57945 0
M  V30 6873 C 675.252 -5.14666 -3.45716 0
M  V30 6874 C 677.307 -3.81296 -3.20184 0
M  V30 6875 C 676.01 -6.33814 -3.40106 0
M  V30 6876 C 678.036 -4.99965 -3.15895 0
M  V30 6877 C 677.398 -6.24637 -3.25589 0
M  V30 6878 H 673.497 -0.377857 -0.684652 0
M  V30 6879 H 676.081 -1.42791 -1.32358 0
M  V30 6880 H 674.252 -0.879026 -3.78322 0
M  V30 6881 H 675.984 -1.10011 -3.89461 0
M  V30 6882 H 672.739 -3.09533 -3.5845 0
M  V30 6883 H 673.163 -5.71606 -3.62762 0
M  V30 6884 H 677.805 -2.85806 -3.11569 0
M  V30 6885 H 675.523 -7.29574 -3.47487 0
M  V30 6886 H 679.109 -4.95847 -3.04347 0
M  V30 6887 H 677.989 -7.14921 -3.22269 0
M  V30 6888 N 675.492 1.28418 -0.913599 0
M  V30 6889 C 676.769 1.89977 -0.465619 0
M  V30 6890 C 677.149 1.82813 1.05559 0
M  V30 6891 O 676.497 1.26397 1.90358 0
M  V30 6892 C 676.707 3.34492 -0.995813 0
M  V30 6893 C 678.055 4.11468 -1.04782 0
M  V30 6894 O 679.079 3.43451 -0.944445 0
M  V30 6895 O 677.938 5.33046 -1.20518 0
M  V30 6896 H 675.032 0.813734 -0.147532 0
M  V30 6897 H 677.578 1.36786 -1.00437 0
M  V30 6898 H 676.35 3.33929 -2.03978 0
M  V30 6899 H 675.973 3.95181 -0.437878 0
M  V30 6900 N 676.97 0.677563 1.42291 0
M  V30 6901 C 678.216 0.201272 2.01799 0
M  V30 6902 C 678.549 -1.19004 1.53465 0
M  V30 6903 O 677.824 -1.79953 0.738039 0
M  V30 6904 C 678.107 0.238968 3.59306 0
M  V30 6905 C 677.96 1.66594 4.17812 0
M  V30 6906 C 679.279 -0.411287 4.38174 0
M  V30 6907 H 676.398 0.0746114 0.733214 0
M  V30 6908 H 679.04 0.862872 1.69276 0
M  V30 6909 H 677.19 -0.324368 3.87144 0
M  V30 6910 H 678.862 2.28173 4.00917 0
M  V30 6911 H 677.105 2.20576 3.73536 0
M  V30 6912 H 677.776 1.64398 5.26951 0
M  V30 6913 H 680.252 0.0682804 4.16044 0
M  V30 6914 H 679.128 -0.354286 5.47755 0
M  V30 6915 H 679.389 -1.4893 4.1626 0
M  V30 6916 N 678.448 -1.51871 0.421078 0
M  V30 6917 C 679.411 -2.25914 -0.386712 0
M  V30 6918 C 680.411 -1.28733 -0.963555 0
M  V30 6919 O 681.601 -1.52579 -0.840556 0
M  V30 6920 C 678.733 -3.03853 -1.54551 0
M  V30 6921 H 679.926 -2.98754 0.261978 0
M  V30 6922 H 677.479 -1.5533 0.173862 0
M  V30 6923 H 678.214 -2.35392 -2.23072 0
M  V30 6924 H 677.999 -3.75215 -1.13824 0
M  V30 6925 H 679.489 -3.59984 -2.11663 0
M  V30 6926 N 679.926 -0.151884 -1.56866 0
M  V30 6927 C 681.175 0.497992 -1.95456 0
M  V30 6928 C 681.488 1.6569 -1.03953 0
M  V30 6929 O 682.694 2.37173 -1.32142 0
M  V30 6930 C 681.15 0.93732 -3.4748 0
M  V30 6931 C 680.758 -0.194921 -4.47576 0
M  V30 6932 C 682.502 1.55671 -3.94926 0
M  V30 6933 C 680.409 0.26295 -5.90815 0
M  V30 6934 H 679.339 0.189811 -0.729717 0
M  V30 6935 H 681.99 -0.237011 -1.81963 0
M  V30 6936 H 680.372 1.72773 -3.56322 0
M  V30 6937 H 681.546 -0.971951 -4.50433 0
M  V30 6938 H 679.861 -0.72303 -4.10075 0
M  V30 6939 H 682.458 1.91099 -4.99385 0
M  V30 6940 H 682.801 2.44748 -3.36755 0
M  V30 6941 H 683.334 0.831109 -3.89021 0
M  V30 6942 H 680.073 -0.592568 -6.52816 0
M  V30 6943 H 679.593 1.00575 -5.91308 0
M  V30 6944 H 681.272 0.713333 -6.43056 0
M  V30 6945 N 681.404 1.57128 0.121893 0
M  V30 6946 C 682.65 1.85853 0.826451 0
M  V30 6947 C 683.005 0.739262 1.77631 0
M  V30 6948 O 682.298 -0.260959 1.89815 0
M  V30 6949 C 682.492 3.1874 1.61677 0
M  V30 6950 C 682.321 4.43487 0.744944 0
M  V30 6951 C 681.091 5.03707 0.400891 0
M  V30 6952 C 683.289 5.1426 0.0638779 0
M  V30 6953 N 681.271 6.12006 -0.481902 0
M  V30 6954 C 682.642 6.16281 -0.678033 0
M  V30 6955 C 684.697 4.97898 -0.0128424 0
M  V30 6956 C 683.4 7.0371 -1.48946 0
M  V30 6957 C 685.426 5.85812 -0.81108 0
M  V30 6958 C 684.788 6.87333 -1.54119 0
M  V30 6959 H 680.887 0.730367 0.279442 0
M  V30 6960 H 683.471 1.9449 0.0903486 0
M  V30 6961 H 681.642 3.11204 2.32393 0
M  V30 6962 H 683.374 3.35283 2.26644 0
M  V30 6963 H 680.129 4.67744 0.742469 0
M  V30 6964 H 680.553 6.70787 -0.915063 0
M  V30 6965 H 685.195 4.19372 0.537278 0
M  V30 6966 H 682.913 7.81646 -2.05074 0
M  V30 6967 H 686.499 5.75217 -0.872764 0
M  V30 6968 H 685.379 7.54182 -2.14893 0
M  V30 6969 N 682.882 -0.391992 1.52647 0
M  V30 6970 C 683.812 -1.48517 1.8018 0
M  V30 6971 C 684.793 -1.57039 0.653667 0
M  V30 6972 O 685.978 -1.72036 0.900962 0
M  V30 6973 C 683.108 -2.86161 1.96797 0
M  V30 6974 C 682.062 -2.92481 3.12472 0
M  V30 6975 C 681.388 -4.32546 3.14338 0
M  V30 6976 C 682.688 -2.624 4.51601 0
M  V30 6977 H 684.382 -1.25726 2.71723 0
M  V30 6978 H 681.928 -0.603387 1.30749 0
M  V30 6979 H 683.881 -3.62639 2.14641 0
M  V30 6980 H 682.605 -3.10283 1.01941 0
M  V30 6981 H 681.264 -2.18451 2.94406 0
M  V30 6982 H 680.912 -4.53703 2.1717 0
M  V30 6983 H 680.612 -4.37695 3.92042 0
M  V30 6984 H 682.136 -5.10934 3.34333 0
M  V30 6985 H 683.55 -3.28596 4.69785 0
M  V30 6986 H 681.947 -2.78903 5.3135 0
M  V30 6987 H 683.017 -1.57754 4.58521 0
M  V30 6988 N 684.36 -1.4356 -0.65026 0
M  V30 6989 C 685.308 -1.49219 -1.78427 0
M  V30 6990 C 686.302 -0.365528 -1.65409 0
M  V30 6991 O 687.508 -0.539649 -1.7172 0
M  V30 6992 H 683.883 -0.467858 -0.588738 0
M  V30 6993 H 685.854 -2.44701 -1.70774 0
M  V30 6994 C 684.603 -1.43519 -3.16698 0
M  V30 6995 H 683.926 -2.2952 -3.27354 0
M  V30 6996 H 685.366 -1.5154 -3.95995 0
M  V30 6997 C 683.825 -0.153197 -3.36552 0
M  V30 6998 O 684.355 0.784317 -3.93969 0
M  V30 6999 N 682.561 -0.0624402 -2.90533 0
M  V30 7000 H 682.108 -0.826172 -2.43992 0
M  V30 7001 H 682.066 0.794616 -3.04193 0
M  V30 7002 N 685.838 0.888903 -1.30139 0
M  V30 7003 C 687.084 1.6428 -1.18912 0
M  V30 7004 C 687.417 1.92499 0.256477 0
M  V30 7005 O 686.692 1.54312 1.18397 0
M  V30 7006 C 686.975 2.9851 -2.01405 0
M  V30 7007 C 686.828 2.77288 -3.54163 0
M  V30 7008 C 688.147 3.99383 -1.84882 0
M  V30 7009 H 685.266 0.596148 -0.433333 0
M  V30 7010 H 687.908 1.0289 -1.5973 0
M  V30 7011 H 686.058 3.50907 -1.66722 0
M  V30 7012 H 687.73 2.31709 -3.98884 0
M  V30 7013 H 685.973 2.11867 -3.78543 0
M  V30 7014 H 686.644 3.72717 -4.07168 0
M  V30 7015 H 689.12 3.56132 -2.15196 0
M  V30 7016 H 687.996 4.91222 -2.44934 0
M  V30 7017 H 688.257 4.34674 -0.806902 0
M  V30 7018 N 687.317 1.12792 1.10072 0
M  V30 7019 C 688.247 0.821688 2.18565 0
M  V30 7020 C 689.228 -0.21612 1.68721 0
M  V30 7021 O 690.413 -0.0764932 1.94049 0
M  V30 7022 C 687.543 0.279624 3.46172 0
M  V30 7023 C 686.497 1.25092 4.09312 0
M  V30 7024 C 685.823 0.568916 5.31665 0
M  V30 7025 C 687.123 2.60699 4.52585 0
M  V30 7026 H 688.817 1.72888 2.44438 0
M  V30 7027 H 686.363 0.832702 1.17482 0
M  V30 7028 H 688.316 0.053099 4.21367 0
M  V30 7029 H 687.04 -0.662929 3.19801 0
M  V30 7030 H 685.699 1.46332 3.36129 0
M  V30 7031 H 685.347 -0.378898 5.01571 0
M  V30 7032 H 685.047 1.21687 5.74862 0
M  V30 7033 H 686.571 0.351517 6.09587 0
M  V30 7034 H 687.985 2.43465 5.19035 0
M  V30 7035 H 686.382 3.21608 5.06644 0
M  V30 7036 H 687.452 3.1886 3.65317 0
M  V30 7037 N 688.795 -1.27931 0.920396 0
M  V30 7038 C 690.043 -1.94304 0.555906 0
M  V30 7039 C 690.364 -1.72753 -0.904519 0
M  V30 7040 O 689.634 -1.07104 -1.64029 0
M  V30 7041 H 688.214 -0.719001 0.202599 0
M  V30 7042 H 690.876 -1.55785 1.1712 0
M  V30 7043 H 689.972 -3.02806 0.755981 0
M  V30 7044 N 690.273 -0.685099 -1.4193 0
M  V30 7045 C 691.519 -0.211971 -2.01689 0
M  V30 7046 C 691.852 1.18189 -1.54094 0
M  V30 7047 O 691.127 1.79559 -0.747572 0
M  V30 7048 C 691.41 -0.258019 -3.59174 0
M  V30 7049 C 691.263 -1.68807 -4.16922 0
M  V30 7050 C 692.582 0.388044 -4.38386 0
M  V30 7051 H 689.701 -0.0784987 -0.732808 0
M  V30 7052 H 692.343 -0.871837 -1.68816 0
M  V30 7053 H 690.493 0.303832 -3.8731 0
M  V30 7054 H 692.165 -2.30296 -3.99702 0
M  V30 7055 H 690.408 -2.22553 -3.72361 0
M  V30 7056 H 691.079 -1.6719 -5.26072 0
M  V30 7057 H 693.555 -0.0903432 -4.16002 0
M  V30 7058 H 692.431 0.325232 -5.47936 0
M  V30 7059 H 692.692 1.4672 -4.17044 0
M  V30 7060 N 691.751 1.51645 -0.429126 0
M  V30 7061 C 693.162 1.86665 0.0359003 0
M  V30 7062 C 693.513 1.34677 1.42676 0
M  V30 7063 O 692.638 0.694195 2.04963 0
M  V30 7064 C 693.233 3.38724 0.0719221 0
M  V30 7065 C 691.792 3.7331 0.481336 0
M  V30 7066 C 690.939 2.75313 -0.331329 0
M  V30 7067 H 693.89 1.44987 -0.645333 0
M  V30 7068 H 693.911 3.7011 0.883118 0
M  V30 7069 H 693.423 3.76532 -0.940495 0
M  V30 7070 H 691.524 3.41088 1.49966 0
M  V30 7071 H 691.637 4.78631 0.211837 0
M  V30 7072 H 690.001 2.53839 0.209204 0
M  V30 7073 H 690.784 3.15963 -1.34247 0
M  V30 7074 N 693.229 0.160201 1.56784 0
M  V30 7075 C 694.477 -0.486625 1.96154 0
M  V30 7076 C 694.798 -1.64525 1.04673 0
M  V30 7077 O 694.068 -1.95586 0.110864 0
M  V30 7078 H 692.648 -0.182764 0.724297 0
M  V30 7079 H 695.31 0.238787 1.93432 0
M  V30 7080 H 694.406 -0.854025 3.00188 0
M  V30 7081 N 694.707 -1.5719 -0.113559 0
M  V30 7082 C 695.935 -1.89328 -0.834422 0
M  V30 7083 C 696.35 -0.752018 -1.73177 0
M  V30 7084 O 695.707 0.276912 -1.80387 0
M  V30 7085 C 695.758 -3.20962 -1.66329 0
M  V30 7086 O 695.479 -4.30695 -0.802069 0
M  V30 7087 C 696.98 -3.6684 -2.48884 0
M  V30 7088 H 694.2 -0.626769 -0.239587 0
M  V30 7089 H 696.744 -2.04273 -0.0963195 0
M  V30 7090 H 694.899 -3.0767 -2.35409 0
M  V30 7091 H 695.313 -5.06175 -1.37431 0
M  V30 7092 H 696.787 -4.61692 -3.02563 0
M  V30 7093 H 697.264 -2.93765 -3.26495 0
M  V30 7094 H 697.87 -3.82938 -1.85036 0
M  V30 7095 N 696.185 0.383891 -1.52853 0
M  V30 7096 C 697.596 0.961591 -1.60032 0
M  V30 7097 C 697.947 1.90819 -0.456333 0
M  V30 7098 O 697.072 2.12288 0.419873 0
M  V30 7099 C 697.667 1.75078 -2.90057 0
M  V30 7100 C 696.226 2.2781 -2.99632 0
M  V30 7101 C 695.373 1.08512 -2.55187 0
M  V30 7102 H 698.324 0.163269 -1.57858 0
M  V30 7103 H 698.345 2.61046 -2.7683 0
M  V30 7104 H 697.857 1.06157 -3.73299 0
M  V30 7105 H 695.958 3.00028 -2.20939 0
M  V30 7106 H 696.071 2.56947 -4.0437 0
M  V30 7107 H 694.435 1.44667 -2.09627 0
M  V30 7108 H 695.218 0.41118 -3.40829 0
M  V30 7109 N 697.663 1.43903 0.642637 0
M  V30 7110 C 698.911 1.45791 1.39962 0
M  V30 7111 C 699.232 0.0873144 1.94804 0
M  V30 7112 O 698.502 -0.878825 1.75081 0
M  V30 7113 H 697.082 0.536797 0.519479 0
M  V30 7114 H 699.744 1.7959 0.757189 0
M  V30 7115 H 698.84 2.17665 2.2367 0
M  V30 7116 N 699.141 -0.881989 1.30609 0
M  V30 7117 C 700.074 -1.99066 1.11571 0
M  V30 7118 C 701.052 -1.62584 0.022516 0
M  V30 7119 O 702.236 -1.87671 0.176644 0
M  V30 7120 C 699.363 -3.3134 0.702237 0
M  V30 7121 C 698.409 -3.86807 1.79673 0
M  V30 7122 S 699.242 -4.13735 3.39976 0
M  V30 7123 C 700.398 -5.49024 3.00538 0
M  V30 7124 H 700.631 -2.1491 2.05429 0
M  V30 7125 H 698.164 -1.03074 1.14957 0
M  V30 7126 H 700.122 -4.07796 0.470415 0
M  V30 7127 H 698.783 -3.13349 -0.217034 0
M  V30 7128 H 697.976 -4.82397 1.45977 0
M  V30 7129 H 697.578 -3.17102 1.98298 0
M  V30 7130 H 699.87 -6.30208 2.48684 0
M  V30 7131 H 700.813 -5.8766 3.95046 0
M  V30 7132 H 701.221 -5.11726 2.3832 0
M  V30 7133 N 700.619 -1.13374 -1.09472 0
M  V30 7134 C 701.866 -0.89519 -1.81639 0
M  V30 7135 C 702.194 0.57868 -1.85692 0
M  V30 7136 O 701.449 1.44426 -1.32059 0
M  V30 7137 C 701.748 -1.42759 -3.2765 0
M  V30 7138 C 701.414 -2.91822 -3.43731 0
M  V30 7139 C 700.076 -3.32521 -3.47827 0
M  V30 7140 C 702.428 -3.87727 -3.48307 0
M  V30 7141 C 699.756 -4.6781 -3.54078 0
M  V30 7142 C 702.108 -5.22859 -3.56091 0
M  V30 7143 C 700.772 -5.63086 -3.58456 0
M  V30 7144 H 700.042 -0.327573 -0.664663 0
M  V30 7145 H 702.689 -1.4156 -1.28969 0
M  V30 7146 H 700.994 -0.827871 -3.82954 0
M  V30 7147 H 702.691 -1.2191 -3.8202 0
M  V30 7148 H 699.281 -2.5935 -3.41226 0
M  V30 7149 H 703.465 -3.57371 -3.44383 0
M  V30 7150 H 698.721 -4.98353 -3.54195 0
M  V30 7151 H 702.895 -5.96989 -3.58577 0
M  V30 7152 H 700.522 -6.67905 -3.63052 0
M  V30 7153 N 702.098 1.27442 -0.927168 0
M  V30 7154 C 703.008 2.30599 -0.431448 0
M  V30 7155 C 704.024 1.67028 0.48761 0
M  V30 7156 O 705.2 1.97962 0.370546 0
M  V30 7157 C 702.265 3.45327 0.308292 0
M  V30 7158 C 701.326 4.24418 -0.645615 0
M  V30 7159 C 700.559 5.33667 0.0589164 0
M  V30 7160 O 700.782 5.5589 1.27838 0
M  V30 7161 O 699.716 5.98774 -0.612638 0
M  V30 7162 H 703.542 2.75036 -1.28797 0
M  V30 7163 H 701.127 1.32382 -0.692495 0
M  V30 7164 H 703.009 4.15107 0.725555 0
M  V30 7165 H 701.684 3.02945 1.14043 0
M  V30 7166 H 700.591 3.57174 -1.11255 0
M  V30 7167 H 701.924 4.70512 -1.44496 0
M  V30 7168 N 703.576 0.692616 1.41565 0
M  V30 7169 C 704.823 0.222335 2.01276 0
M  V30 7170 C 705.151 -1.17706 1.5484 0
M  V30 7171 O 704.406 -1.80795 0.749118 0
M  V30 7172 C 704.705 0.225073 3.56691 0
M  V30 7173 C 704.371 1.57158 4.22625 0
M  V30 7174 C 703.033 1.94022 4.40351 0
M  V30 7175 C 705.385 2.45758 4.59622 0
M  V30 7176 C 702.713 3.19076 4.92349 0
M  V30 7177 C 705.065 3.70141 5.13009 0
M  V30 7178 C 703.729 4.07152 5.28946 0
M  V30 7179 H 702.999 0.0813581 0.73652 0
M  V30 7180 H 705.646 0.891123 1.69503 0
M  V30 7181 H 703.951 -0.527259 3.88236 0
M  V30 7182 H 705.648 -0.156283 4.00695 0
M  V30 7183 H 702.238 1.27486 4.09201 0
M  V30 7184 H 706.422 2.18558 4.45585 0
M  V30 7185 H 701.678 3.4775 5.02872 0
M  V30 7186 H 705.852 4.38983 5.40617 0
M  V30 7187 H 703.479 5.04125 5.69001 0
M  V30 7188 N 705.054 -1.51416 0.437162 0
M  V30 7189 C 706.284 -2.06204 -0.127859 0
M  V30 7190 C 706.692 -1.30463 -1.37026 0
M  V30 7191 O 706.035 -0.357516 -1.80187 0
M  V30 7192 C 706.097 -3.55783 -0.515632 0
M  V30 7193 C 705.761 -4.52776 0.619937 0
M  V30 7194 C 706.758 -4.98031 1.49201 0
M  V30 7195 C 704.443 -4.95878 0.800618 0
M  V30 7196 C 706.437 -5.85061 2.52947 0
M  V30 7197 C 704.124 -5.82699 1.84135 0
M  V30 7198 C 705.122 -6.27188 2.70416 0
M  V30 7199 O 704.81 -7.12284 3.72702 0
M  V30 7200 H 704.542 -0.675903 -0.011442 0
M  V30 7201 H 707.096 -1.95977 0.614986 0
M  V30 7202 H 705.326 -3.63793 -1.31118 0
M  V30 7203 H 707.015 -3.93087 -1.01179 0
M  V30 7204 H 707.781 -4.65426 1.36395 0
M  V30 7205 H 703.66 -4.60792 0.138617 0
M  V30 7206 H 707.204 -6.19708 3.20325 0
M  V30 7207 H 703.101 -6.14717 1.9696 0
M  V30 7208 H 703.869 -7.30462 3.69281 0
M  V30 7209 N 706.532 -0.168513 -1.56696 0
M  V30 7210 C 707.948 0.187686 -1.58493 0
M  V30 7211 C 708.148 1.63063 -1.18375 0
M  V30 7212 O 707.204 2.36142 -0.894042 0
M  V30 7213 C 708.517 -0.0905858 -3.00564 0
M  V30 7214 C 710.065 -0.028575 -3.12987 0
M  V30 7215 C 710.54 -0.279799 -4.57145 0
M  V30 7216 N 712.031 -0.227476 -4.62641 0
M  V30 7217 C 712.766 -0.396073 -5.7203 0
M  V30 7218 N 712.262 -0.623572 -6.89988 0
M  V30 7219 N 714.055 -0.332173 -5.61118 0
M  V30 7220 H 706.206 -1.11042 -1.81062 0
M  V30 7221 H 708.469 -0.441235 -0.839056 0
M  V30 7222 H 708.175 -1.09006 -3.34381 0
M  V30 7223 H 708.049 0.619078 -3.72085 0
M  V30 7224 H 710.436 0.961471 -2.78998 0
M  V30 7225 H 710.517 -0.770905 -2.43907 0
M  V30 7226 H 710.161 -1.26704 -4.91842 0
M  V30 7227 H 710.091 0.48311 -5.24379 0
M  V30 7228 H 712.582 -0.0571723 -3.77857 0
M  V30 7229 H 712.895 -0.741745 -7.69232 0
M  V30 7230 H 711.24 -0.660153 -6.91858 0
M  V30 7231 H 714.431 -0.155051 -4.67843 0
M  V30 7232 H 714.604 -0.466994 -6.46315 0
M  V30 7233 N 708.01 1.57248 0.105221 0
M  V30 7234 C 708.92 2.04653 1.14693 0
M  V30 7235 C 709.936 0.969488 1.44489 0
M  V30 7236 O 711.112 1.28196 1.55331 0
M  V30 7237 C 708.177 2.45297 2.45011 0
M  V30 7238 C 707.238 3.67148 2.22489 0
M  V30 7239 C 706.471 4.05844 3.46592 0
M  V30 7240 O 706.694 3.44736 4.54437 0
M  V30 7241 O 705.628 4.98862 3.36779 0
M  V30 7242 H 709.454 2.93663 0.774336 0
M  V30 7243 H 707.039 1.45998 0.31701 0
M  V30 7244 H 708.921 2.72112 3.21766 0
M  V30 7245 H 707.596 1.59429 2.81717 0
M  V30 7246 H 706.503 3.45463 1.43547 0
M  V30 7247 H 707.836 4.53764 1.9068 0
M  V30 7248 N 709.488 -0.375779 1.53054 0
M  V30 7249 C 710.421 -1.48187 1.7354 0
M  V30 7250 C 711.399 -1.5177 0.583495 0
M  V30 7251 O 712.583 -1.69976 0.81488 0
M  V30 7252 C 709.71 -2.86598 1.80497 0
M  V30 7253 C 708.756 -3.00784 3.02376 0
M  V30 7254 S 709.589 -2.70601 4.62099 0
M  V30 7255 C 710.745 -4.11181 4.71891 0
M  V30 7256 H 710.978 -1.30587 2.67085 0
M  V30 7257 H 708.511 -0.569485 1.43514 0
M  V30 7258 H 710.469 -3.66353 1.85192 0
M  V30 7259 H 709.13 -3.01514 0.880217 0
M  V30 7260 H 708.323 -4.02128 3.03824 0
M  V30 7261 H 707.925 -2.28939 2.95742 0
M  V30 7262 H 710.217 -5.0529 4.51319 0
M  V30 7263 H 711.16 -4.14742 5.73929 0
M  V30 7264 H 711.568 -3.97706 4.00612 0
M  V30 7265 N 710.966 -1.44241 -0.634997 0
M  V30 7266 C 711.876 -1.53293 -1.77591 0
M  V30 7267 C 712.892 -0.418831 -1.68884 0
M  V30 7268 O 714.068 -0.675619 -1.8973 0
M  V30 7269 C 711.133 -1.47075 -3.13958 0
M  V30 7270 C 710.194 -2.69304 -3.34326 0
M  V30 7271 C 709.427 -2.63374 -4.64187 0
M  V30 7272 O 709.65 -1.69161 -5.44739 0
M  V30 7273 O 708.584 -3.54166 -4.86673 0
M  V30 7274 H 712.41 -2.49673 -1.72908 0
M  V30 7275 H 709.995 -1.26445 -0.795745 0
M  V30 7276 H 711.877 -1.46117 -3.95257 0
M  V30 7277 H 710.552 -0.538373 -3.19192 0
M  V30 7278 H 709.459 -2.75831 -2.52721 0
M  V30 7279 H 710.792 -3.61576 -3.33951 0
M  V30 7280 N 712.444 0.87505 -1.31075 0
M  V30 7281 C 713.376 1.98773 -1.14114 0
M  V30 7282 C 714.389 1.62595 -0.0816119 0
M  V30 7283 O 715.578 1.75449 -0.32861 0
M  V30 7284 C 712.678 3.31159 -0.720224 0
M  V30 7285 C 711.851 3.9571 -1.86366 0
M  V30 7286 C 710.91 5.06407 -1.42965 0
M  V30 7287 O 709.936 5.27501 -2.13848 0
M  V30 7288 N 711.138 5.79649 -0.314194 0
M  V30 7289 H 713.903 2.1387 -2.09951 0
M  V30 7290 H 711.464 1.04873 -1.23342 0
M  V30 7291 H 713.456 4.0259 -0.412687 0
M  V30 7292 H 712.026 3.12257 0.146396 0
M  V30 7293 H 711.246 3.17324 -2.33879 0
M  V30 7294 H 712.534 4.35576 -2.62966 0
M  V30 7295 H 711.932 5.65025 0.276228 0
M  V30 7296 H 710.489 6.51766 -0.0661641 0
M  V30 7297 N 713.922 1.13953 1.08869 0
M  V30 7298 C 715.168 0.916103 1.81602 0
M  V30 7299 C 715.523 -0.551633 1.84322 0
M  V30 7300 O 714.816 -1.40322 1.30462 0
M  V30 7301 C 715.01 1.44495 3.26888 0
M  V30 7302 C 714.839 2.96257 3.38322 0
M  V30 7303 C 713.609 3.64658 3.49789 0
M  V30 7304 C 715.807 3.94156 3.30372 0
M  V30 7305 N 713.789 5.04379 3.49965 0
M  V30 7306 C 715.16 5.20101 3.37484 0
M  V30 7307 C 717.215 3.86342 3.14077 0
M  V30 7308 C 715.918 6.39145 3.29979 0
M  V30 7309 C 717.944 5.04927 3.07901 0
M  V30 7310 C 717.306 6.29738 3.1561 0
M  V30 7311 H 713.405 0.388701 0.678554 0
M  V30 7312 H 715.989 1.44879 1.3007 0
M  V30 7313 H 714.16 0.939102 3.76876 0
M  V30 7314 H 715.892 1.16193 3.87661 0
M  V30 7315 H 712.647 3.15196 3.5348 0
M  V30 7316 H 713.071 5.77305 3.53622 0
M  V30 7317 H 717.713 2.90726 3.06982 0
M  V30 7318 H 715.431 7.3501 3.35836 0
M  V30 7319 H 719.017 5.00626 2.9642 0
M  V30 7320 H 717.897 7.19958 3.10854 0
M  V30 7321 N 715.4 -1.26948 0.933913 0
M  V30 7322 C 716.333 -2.24977 0.382169 0
M  V30 7323 C 717.311 -1.53893 -0.524949 0
M  V30 7324 O 718.495 -1.82699 -0.464048 0
M  V30 7325 C 715.622 -3.35676 -0.451615 0
M  V30 7326 C 714.668 -4.24686 0.392947 0
M  V30 7327 S 715.501 -5.03898 1.81237 0
M  V30 7328 C 716.657 -6.18078 0.986443 0
M  V30 7329 H 716.89 -2.71429 1.21299 0
M  V30 7330 H 714.423 -1.35701 0.736523 0
M  V30 7331 H 716.381 -3.99901 -0.926797 0
M  V30 7332 H 715.042 -2.8785 -1.25703 0
M  V30 7333 H 714.235 -5.03402 -0.245533 0
M  V30 7334 H 713.837 -3.65288 0.802537 0
M  V30 7335 H 716.129 -6.77125 0.225321 0
M  V30 7336 H 717.072 -6.86216 1.74682 0
M  V30 7337 H 717.48 -5.62047 0.525711 0
M  V30 7338 N 716.879 -0.700114 -1.41195 0
M  V30 7339 C 718.295 -0.372114 -1.55201 0
M  V30 7340 C 718.495 1.12053 -1.6747 0
M  V30 7341 O 717.551 1.90642 -1.65566 0
M  V30 7342 C 718.864 -1.12462 -2.78878 0
M  V30 7343 C 720.412 -1.10941 -2.92679 0
M  V30 7344 C 720.887 -1.84376 -4.19249 0
M  V30 7345 N 722.378 -1.81368 -4.26216 0
M  V30 7346 C 723.113 -2.35024 -5.23021 0
M  V30 7347 N 722.609 -2.9717 -6.25829 0
M  V30 7348 N 724.402 -2.25254 -5.14992 0
M  V30 7349 H 716.553 -1.66816 -1.31477 0
M  V30 7350 H 718.816 -0.704223 -0.634644 0
M  V30 7351 H 718.522 -2.17937 -2.76037 0
M  V30 7352 H 718.396 -0.706152 -3.70531 0
M  V30 7353 H 720.783 -0.062911 -2.95033 0
M  V30 7354 H 720.864 -1.56698 -2.02187 0
M  V30 7355 H 720.508 -2.89008 -4.17656 0
M  V30 7356 H 720.438 -1.3605 -5.08722 0
M  V30 7357 H 722.929 -1.36062 -3.52556 0
M  V30 7358 H 723.242 -3.35668 -6.96094 0
M  V30 7359 H 721.587 -3.01249 -6.26318 0
M  V30 7360 H 724.778 -1.76372 -4.33602 0
M  V30 7361 H 724.951 -2.67373 -5.90268 0
M  V30 7362 N 718.357 1.51182 -0.445186 0
M  V30 7363 C 719.582 2.07056 0.119445 0
M  V30 7364 C 720.007 1.30966 1.35016 0
M  V30 7365 O 719.365 0.349827 1.77893 0
M  V30 7366 C 719.413 3.58234 0.412428 0
M  V30 7367 O 718.517 3.84249 1.49754 0
M  V30 7368 H 717.858 0.663998 -0.00157797 0
M  V30 7369 H 720.388 1.94699 -0.628779 0
M  V30 7370 H 720.398 4.02617 0.660583 0
M  V30 7371 H 719.073 4.13038 -0.487049 0
M  V30 7372 H 717.65 3.51724 1.23873 0
M  V30 7373 N 719.835 0.176821 1.56605 0
M  V30 7374 C 720.785 -0.763718 2.14829 0
M  V30 7375 C 721.769 -1.18903 1.08401 0
M  V30 7376 O 722.961 -1.15048 1.3451 0
M  V30 7377 C 720.09 -1.99069 2.7969 0
M  V30 7378 C 719.176 -1.58711 3.93283 0
M  V30 7379 N 719.567 -0.893423 4.97847 0
M  V30 7380 C 717.865 -1.87774 4.04545 0
M  V30 7381 C 718.566 -0.693866 5.77547 0
M  V30 7382 N 717.542 -1.23699 5.29339 0
M  V30 7383 H 721.344 -0.224811 2.93039 0
M  V30 7384 H 718.858 -0.0236563 1.62383 0
M  V30 7385 H 720.855 -2.67478 3.19783 0
M  V30 7386 H 719.515 -2.53449 2.02962 0
M  V30 7387 H 720.526 -0.550868 5.14962 0
M  V30 7388 H 717.203 -2.43793 3.38927 0
M  V30 7389 H 718.593 -0.144899 6.71744 0
M  V30 7390 N 721.313 -1.57302 -0.09688 0
M  V30 7391 C 722.543 -1.89926 -0.813114 0
M  V30 7392 C 722.951 -0.76852 -1.72888 0
M  V30 7393 O 722.294 0.268549 -1.81726 0
M  V30 7394 C 722.356 -3.17787 -1.68082 0
M  V30 7395 C 722.02 -4.4729 -0.937061 0
M  V30 7396 C 723.017 -5.1921 -0.267687 0
M  V30 7397 C 720.702 -4.93957 -0.911671 0
M  V30 7398 C 722.696 -6.36034 0.417129 0
M  V30 7399 C 720.383 -6.10693 -0.223068 0
M  V30 7400 C 721.381 -6.8158 0.440155 0
M  V30 7401 O 721.069 -7.96092 1.11772 0
M  V30 7402 H 720.801 -0.632783 -0.237828 0
M  V30 7403 H 723.355 -2.05248 -0.0790818 0
M  V30 7404 H 721.585 -2.98607 -2.45705 0
M  V30 7405 H 723.274 -3.36257 -2.27346 0
M  V30 7406 H 724.04 -4.84198 -0.278774 0
M  V30 7407 H 719.919 -4.38671 -1.41734 0
M  V30 7408 H 723.463 -6.91301 0.93537 0
M  V30 7409 H 719.36 -6.45159 -0.209821 0
M  V30 7410 H 720.128 -8.12064 1.02443 0
M  V30 7411 N 722.791 0.367657 -1.53252 0
M  V30 7412 C 723.739 1.47061 -1.8021 0
M  V30 7413 C 724.733 1.55539 -0.671112 0
M  V30 7414 O 725.939 1.58451 -0.854014 0
M  V30 7415 H 722.314 0.489868 -0.570555 0
M  V30 7416 H 724.285 1.21527 -2.72532 0
M  V30 7417 C 723.034 2.83924 -2.00706 0
M  V30 7418 H 722.357 2.78158 -2.87172 0
M  V30 7419 H 723.797 3.60281 -2.23547 0
M  V30 7420 C 722.256 3.27613 -0.785568 0
M  V30 7421 O 722.786 4.01691 0.0267459 0
M  V30 7422 N 720.992 2.84134 -0.609597 0
M  V30 7423 H 720.539 2.24017 -1.27178 0
M  V30 7424 H 720.497 3.13723 0.206281 0
M  V30 7425 N 724.269 1.44576 0.627338 0
M  V30 7426 C 725.217 1.52039 1.76031 0
M  V30 7427 C 726.211 0.391796 1.64807 0
M  V30 7428 O 727.417 0.5669 1.7084 0
M  V30 7429 H 723.792 0.477165 0.581221 0
M  V30 7430 H 725.763 2.47387 1.6686 0
M  V30 7431 C 724.512 1.48539 3.14375 0
M  V30 7432 H 723.835 2.34699 3.23661 0
M  V30 7433 H 725.275 1.57821 3.93534 0
M  V30 7434 C 723.734 0.20672 3.36265 0
M  V30 7435 O 724.264 -0.72154 3.95167 0
M  V30 7436 N 722.47 0.108654 2.90397 0
M  V30 7437 H 722.017 0.864884 2.42647 0
M  V30 7438 H 721.975 -0.746121 3.05418 0
M  V30 7439 N 725.747 -0.868086 1.31537 0
M  V30 7440 C 727.024 -1.60384 1.11965 0
M  V30 7441 C 727.404 -2.08584 -0.324949 0
M  V30 7442 O 726.752 -1.86561 -1.31937 0
M  V30 7443 C 726.962 -2.76038 2.13551 0
M  V30 7444 C 728.31 -3.45954 2.46173 0
M  V30 7445 O 729.334 -2.86247 2.11993 0
M  V30 7446 O 728.193 -4.53666 3.04711 0
M  V30 7447 H 725.287 -0.705705 0.431172 0
M  V30 7448 H 727.833 -0.913385 1.43022 0
M  V30 7449 H 726.605 -2.37849 3.10714 0
M  V30 7450 H 726.228 -3.52769 1.83411 0
M  V30 7451 N 727.225 -1.14528 -1.08264 0
M  V30 7452 C 728.502 -0.825185 -1.77342 0
M  V30 7453 C 728.882 0.681037 -1.99813 0
M  V30 7454 O 728.23 1.62234 -1.60912 0
M  V30 7455 C 728.44 -1.62556 -3.08831 0
M  V30 7456 C 729.788 -1.82585 -3.83338 0
M  V30 7457 O 730.812 -1.59254 -3.18617 0
M  V30 7458 O 729.671 -2.21598 -4.99556 0
M  V30 7459 H 726.765 -0.302531 -0.769678 0
M  V30 7460 H 729.311 -1.25056 -1.14713 0
M  V30 7461 H 728.083 -2.64862 -2.88035 0
M  V30 7462 H 727.706 -1.1959 -3.79189 0
M  V30 7463 N 728.703 1.26451 -0.940633 0
M  V30 7464 C 729.666 2.24651 -0.454378 0
M  V30 7465 C 730.666 1.54826 0.434222 0
M  V30 7466 O 731.856 1.72628 0.233477 0
M  V30 7467 C 728.988 3.39148 0.345192 0
M  V30 7468 H 730.181 2.69182 -1.32217 0
M  V30 7469 H 727.734 1.38596 -0.722547 0
M  V30 7470 H 728.469 3.00018 1.23125 0
M  V30 7471 H 728.254 3.9101 -0.292107 0
M  V30 7472 H 729.744 4.12103 0.675341 0
M  V30 7473 N 730.181 0.707592 1.40822 0
M  V30 7474 C 731.409 0.253073 2.05346 0
M  V30 7475 C 731.824 -1.10218 1.53289 0
M  V30 7476 O 731.181 -1.69112 0.686105 0
M  V30 7477 C 731.232 0.215411 3.60858 0
M  V30 7478 O 730.953 1.51714 4.10992 0
M  V30 7479 C 732.454 -0.258636 4.42545 0
M  V30 7480 H 729.674 0.115256 0.661027 0
M  V30 7481 H 732.218 0.963555 1.80377 0
M  V30 7482 H 730.373 -0.445978 3.84824 0
M  V30 7483 H 730.787 1.41226 5.05129 0
M  V30 7484 H 732.261 -0.233849 5.51504 0
M  V30 7485 H 732.738 -1.2995 4.19535 0
M  V30 7486 H 733.344 0.372186 4.23668 0
M  V30 7487 N 731.66 -1.50943 0.453197 0
M  V30 7488 C 732.907 -2.02212 -0.107922 0
M  V30 7489 C 733.235 -1.33639 -1.41318 0
M  V30 7490 O 732.49 -0.445154 -1.9057 0
M  V30 7491 C 732.789 -3.55603 -0.357944 0
M  V30 7492 C 732.455 -4.42556 0.863427 0
M  V30 7493 C 731.117 -4.6604 1.19834 0
M  V30 7494 C 733.469 -4.93468 1.67747 0
M  V30 7495 C 730.797 -5.37681 2.34768 0
M  V30 7496 C 733.149 -5.6637 2.81793 0
M  V30 7497 C 731.813 -5.88113 3.1572 0
M  V30 7498 H 731.083 -0.739947 -0.0394916 0
M  V30 7499 H 733.73 -1.81738 0.60363 0
M  V30 7500 H 732.035 -3.74495 -1.15156 0
M  V30 7501 H 733.732 -3.92821 -0.805781 0
M  V30 7502 H 730.322 -4.24485 0.592478 0
M  V30 7503 H 734.506 -4.75194 1.43192 0
M  V30 7504 H 729.762 -5.52727 2.61348 0
M  V30 7505 H 733.936 -6.04806 3.45229 0
M  V30 7506 H 731.563 -6.43404 4.04889 0
M  V30 7507 N 733.138 -0.185124 -1.56509 0
M  V30 7508 C 734.554 0.170865 -1.58683 0
M  V30 7509 C 734.754 1.61799 -1.20098 0
M  V30 7510 O 733.81 2.35181 -0.919038 0
M  V30 7511 C 735.123 -0.122459 -3.00451 0
M  V30 7512 C 736.671 -0.0617699 -3.12939 0
M  V30 7513 C 737.146 -0.328269 -4.56822 0
M  V30 7514 N 738.637 -0.276533 -4.62374 0
M  V30 7515 C 739.372 -0.456722 -5.71578 0
M  V30 7516 N 738.868 -0.69672 -6.89288 0
M  V30 7517 N 740.661 -0.391669 -5.60734 0
M  V30 7518 H 732.812 -1.12956 -1.79874 0
M  V30 7519 H 735.075 -0.45011 -0.834329 0
M  V30 7520 H 734.781 -1.12546 -3.33206 0
M  V30 7521 H 734.655 0.579578 -3.72721 0
M  V30 7522 H 737.042 0.931826 -2.80002 0
M  V30 7523 H 737.123 -0.796732 -2.43076 0
M  V30 7524 H 736.767 -1.31914 -4.9047 0
M  V30 7525 H 736.697 0.427465 -5.24862 0
M  V30 7526 H 739.188 -0.0972458 -3.77775 0
M  V30 7527 H 739.501 -0.823291 -7.68402 0
M  V30 7528 H 737.846 -0.733497 -6.91119 0
M  V30 7529 H 741.037 -0.204663 -4.67652 0
M  V30 7530 H 741.21 -0.535518 -6.45783 0
M  V30 7531 N 734.616 1.57351 0.0885366 0
M  V30 7532 C 736.027 1.75303 0.642308 0
M  V30 7533 C 736.378 0.808238 1.78779 0
M  V30 7534 O 735.503 -0.01171 2.16397 0
M  V30 7535 C 736.098 3.17885 1.17194 0
M  V30 7536 C 734.657 3.37239 1.67172 0
M  V30 7537 C 733.804 2.7108 0.584045 0
M  V30 7538 H 736.755 1.58103 -0.137567 0
M  V30 7539 H 736.776 3.2112 2.04114 0
M  V30 7540 H 736.288 3.86625 0.338024 0
M  V30 7541 H 734.389 2.73588 2.52943 0
M  V30 7542 H 734.502 4.45594 1.76019 0
M  V30 7543 H 732.866 2.33161 1.02508 0
M  V30 7544 H 733.649 3.42464 -0.239403 0
M  V30 7545 N 736.094 -0.359525 1.53444 0
M  V30 7546 C 737.004 -1.46445 1.83278 0
M  V30 7547 C 738.02 -1.5833 0.721629 0
M  V30 7548 O 739.196 -1.7411 1.01231 0
M  V30 7549 C 736.261 -2.81638 2.02191 0
M  V30 7550 C 735.322 -2.7923 3.26082 0
M  V30 7551 C 734.555 -4.07974 3.44082 0
M  V30 7552 O 734.778 -5.04447 2.66251 0
M  V30 7553 O 733.712 -4.13417 4.37458 0
M  V30 7554 H 737.538 -1.24156 2.77162 0
M  V30 7555 H 735.123 -0.550201 1.389 0
M  V30 7556 H 737.005 -3.61732 2.16167 0
M  V30 7557 H 735.68 -3.03892 1.11496 0
M  V30 7558 H 734.587 -1.97813 3.17523 0
M  V30 7559 H 735.92 -2.6193 4.16718 0
M  V30 7560 N 737.572 -1.44907 -0.619662 0
M  V30 7561 C 738.818 -1.49504 -1.37914 0
M  V30 7562 C 739.173 -0.130158 -1.91959 0
M  V30 7563 O 738.466 0.856263 -1.71402 0
M  V30 7564 C 738.66 -2.50002 -2.55409 0
M  V30 7565 C 738.489 -3.96128 -2.12867 0
M  V30 7566 C 737.259 -4.64204 -1.99606 0
M  V30 7567 C 739.457 -4.85014 -1.71074 0
M  V30 7568 N 737.439 -5.95104 -1.50748 0
M  V30 7569 C 738.81 -6.05447 -1.33544 0
M  V30 7570 C 740.865 -4.71979 -1.58557 0
M  V30 7571 C 739.568 -7.1429 -0.847484 0
M  V30 7572 C 741.594 -5.80858 -1.11165 0
M  V30 7573 C 740.956 -7.00439 -0.745932 0
M  V30 7574 H 737.055 -0.60207 -0.499034 0
M  V30 7575 H 739.639 -1.81305 -0.70968 0
M  V30 7576 H 737.81 -2.20172 -3.19967 0
M  V30 7577 H 739.542 -2.44823 -3.22248 0
M  V30 7578 H 736.297 -4.19182 -2.20417 0
M  V30 7579 H 736.721 -6.64676 -1.28585 0
M  V30 7580 H 741.363 -3.79953 -1.85461 0
M  V30 7581 H 739.081 -8.06116 -0.565974 0
M  V30 7582 H 742.667 -5.72803 -1.01923 0
M  V30 7583 H 741.547 -7.83255 -0.384848 0
M  V30 7584 N 739.05 0.861098 -1.31996 0
M  V30 7585 C 740.275 1.65264 -1.2531 0
M  V30 7586 C 740.7 1.87265 0.177007 0
M  V30 7587 O 740.058 1.4208 1.12619 0
M  V30 7588 C 740.106 2.99284 -2.0115 0
M  V30 7589 O 739.21 3.89508 -1.3549 0
M  V30 7590 H 738.551 0.50409 -0.432192 0
M  V30 7591 H 741.081 1.07297 -1.74208 0
M  V30 7592 H 741.091 3.49154 -2.11081 0
M  V30 7593 H 739.766 2.82591 -3.05148 0
M  V30 7594 H 738.343 3.47966 -1.34066 0
M  V30 7595 N 740.528 1.15101 1.07655 0
M  V30 7596 C 741.475 0.844958 2.14777 0
M  V30 7597 C 742.445 -0.200798 1.64882 0
M  V30 7598 O 743.63 -0.0690278 1.90675 0
M  V30 7599 C 740.77 0.337018 3.4345 0
M  V30 7600 C 739.883 1.44398 4.07153 0
M  V30 7601 C 739.018 0.892487 5.23649 0
M  V30 7602 C 738.057 1.9766 5.79307 0
M  V30 7603 N 737.194 1.44171 6.87138 0
M  V30 7604 H 742.034 1.76242 2.40297 0
M  V30 7605 H 739.571 0.879435 1.17917 0
M  V30 7606 H 741.529 0.024256 4.17193 0
M  V30 7607 H 740.159 -0.543531 3.18191 0
M  V30 7608 H 739.211 1.87299 3.31094 0
M  V30 7609 H 740.523 2.26262 4.4453 0
M  V30 7610 H 739.677 0.532083 6.04362 0
M  V30 7611 H 738.416 0.0429854 4.87681 0
M  V30 7612 H 737.421 2.34586 4.97242 0
M  V30 7613 H 738.646 2.82982 6.17331 0
M  V30 7614 H 736.592 0.614518 6.53115 0
M  V30 7615 H 736.509 2.19665 7.23383 0
M  V30 7616 H 737.777 1.10945 7.71564 0
M  V30 7617 N 742.006 -1.2595 0.947325 0
M  V30 7618 C 743.254 -1.93081 0.596996 0
M  V30 7619 C 743.575 -1.74632 -0.867672 0
M  V30 7620 O 742.845 -1.1056 -1.6172 0
M  V30 7621 H 741.425 -0.714542 0.217805 0
M  V30 7622 H 744.087 -1.53265 1.20398 0
M  V30 7623 H 743.183 -3.01134 0.82004 0
M  V30 7624 N 743.484 -0.715051 -1.40445 0
M  V30 7625 C 744.73 -0.263528 -2.01686 0
M  V30 7626 C 745.085 1.13052 -1.55683 0
M  V30 7627 O 744.378 1.75588 -0.766762 0
M  V30 7628 C 744.572 -0.281791 -3.56287 0
M  V30 7629 C 744.401 -1.67607 -4.17298 0
M  V30 7630 C 743.171 -2.2836 -4.50755 0
M  V30 7631 C 745.369 -2.62621 -4.42193 0
M  V30 7632 N 743.351 -3.6015 -4.97157 0
M  V30 7633 C 744.722 -3.79116 -4.90582 0
M  V30 7634 C 746.777 -2.60639 -4.24231 0
M  V30 7635 C 745.48 -4.93937 -5.22895 0
M  V30 7636 C 747.506 -3.74587 -4.57644 0
M  V30 7637 C 746.868 -4.89815 -5.06222 0
M  V30 7638 H 742.967 -0.142252 -0.768953 0
M  V30 7639 H 745.551 -0.936732 -1.70685 0
M  V30 7640 H 743.722 0.360975 -3.86719 0
M  V30 7641 H 745.454 0.186393 -4.04271 0
M  V30 7642 H 742.209 -1.80463 -4.3787 0
M  V30 7643 H 742.633 -4.27757 -5.24741 0
M  V30 7644 H 747.275 -1.72759 -3.85894 0
M  V30 7645 H 744.993 -5.82462 -5.60146 0
M  V30 7646 H 748.579 -3.74328 -4.45387 0
M  V30 7647 H 747.459 -5.76525 -5.3159 0
M  V30 7648 N 744.962 1.50701 -0.461195 0
M  V30 7649 C 745.925 2.2686 0.326679 0
M  V30 7650 C 746.925 1.31243 0.929085 0
M  V30 7651 O 748.115 1.54754 0.799807 0
M  V30 7652 C 745.247 3.07844 1.46441 0
M  V30 7653 H 746.44 2.97954 -0.341095 0
M  V30 7654 H 743.993 1.54814 -0.214984 0
M  V30 7655 H 744.728 2.41223 2.16753 0
M  V30 7656 H 744.513 3.78101 1.03836 0
M  V30 7657 H 746.003 3.65469 2.02044 0
M  V30 7658 N 746.441 0.193421 1.56409 0
M  V30 7659 C 747.688 -0.445789 1.97532 0
M  V30 7660 C 748.016 -1.61744 1.08024 0
M  V30 7661 O 747.271 -1.95338 0.118982 0
M  V30 7662 C 747.57 -0.949718 3.44551 0
M  V30 7663 C 747.236 0.108383 4.5077 0
M  V30 7664 C 745.898 0.399126 4.79542 0
M  V30 7665 C 748.25 0.825423 5.14622 0
M  V30 7666 C 745.578 1.41192 5.69457 0
M  V30 7667 C 747.93 1.82735 6.05632 0
M  V30 7668 C 746.594 2.12531 6.32761 0
M  V30 7669 H 745.864 -0.163126 0.722822 0
M  V30 7670 H 748.511 0.290035 1.89291 0
M  V30 7671 H 746.816 -1.76378 3.49854 0
M  V30 7672 H 748.513 -1.45367 3.73724 0
M  V30 7673 H 745.103 -0.128392 4.28408 0
M  V30 7674 H 749.287 0.61403 4.92487 0
M  V30 7675 H 744.543 1.6487 5.88751 0
M  V30 7676 H 748.717 2.3882 6.5417 0
M  V30 7677 H 746.344 2.91155 7.02234 0
M  V30 7678 N 747.919 -1.57396 -0.0801906 0
M  V30 7679 C 749.167 -1.86467 -0.779384 0
M  V30 7680 C 749.488 -0.784243 -1.78535 0
M  V30 7681 O 748.758 0.187986 -1.94996 0
M  V30 7682 H 747.338 -0.68806 -0.29083 0
M  V30 7683 H 750 -1.94813 -0.0582749 0
M  V30 7684 H 749.096 -2.83701 -1.30078 0
M  V30 7685 N 749.397 0.351382 -1.53633 0
M  V30 7686 C 750.808 0.927429 -1.62036 0
M  V30 7687 C 751.159 1.89809 -0.496706 0
M  V30 7688 O 750.284 2.1313 0.374749 0
M  V30 7689 C 750.879 1.68886 -2.93706 0
M  V30 7690 C 749.438 2.21404 -3.04397 0
M  V30 7691 C 748.585 1.03075 -2.57431 0
M  V30 7692 H 751.536 0.129748 -1.58169 0
M  V30 7693 H 751.557 2.55116 -2.82305 0
M  V30 7694 H 751.069 0.982149 -3.75467 0
M  V30 7695 H 749.17 2.95274 -2.27253 0
M  V30 7696 H 749.283 2.48312 -4.09729 0
M  V30 7697 H 747.647 1.40188 -2.12649 0
M  V30 7698 H 748.43 0.338793 -3.41624 0
M  V30 7699 N 750.875 1.45233 0.611969 0
M  V30 7700 C 752.152 1.39495 1.37115 0
M  V30 7701 C 752.532 0.0633303 2.11005 0
M  V30 7702 O 751.88 -0.954617 2.07604 0
M  V30 7703 C 752.09 2.60579 2.32163 0
M  V30 7704 C 753.438 3.05477 2.94905 0
M  V30 7705 O 754.462 2.60921 2.42485 0
M  V30 7706 O 753.321 3.82787 3.90047 0
M  V30 7707 H 750.415 0.55335 0.614599 0
M  V30 7708 H 752.961 1.57355 0.635423 0
M  V30 7709 H 751.733 3.49085 1.76793 0
M  V30 7710 H 751.356 2.45031 3.13122 0
M  V30 7711 N 752.353 -0.854086 1.3245 0
M  V30 7712 C 753.764 -1.42427 1.20712 0
M  V30 7713 C 754.115 -1.95371 -0.18013 0
M  V30 7714 O 753.24 -1.87587 -1.07889 0
M  V30 7715 C 753.835 -2.58897 2.18536 0
M  V30 7716 C 752.394 -3.11913 2.10683 0
M  V30 7717 C 751.541 -1.84661 2.06871 0
M  V30 7718 H 754.492 -0.661192 1.4427 0
M  V30 7719 H 754.513 -3.36074 1.78422 0
M  V30 7720 H 754.025 -2.20333 3.19492 0
M  V30 7721 H 752.126 -3.55059 1.12977 0
M  V30 7722 H 752.239 -3.73119 3.00532 0
M  V30 7723 H 750.603 -2.04285 1.52118 0
M  V30 7724 H 751.386 -1.48314 3.09609 0
M  V30 7725 N 753.831 -1.1567 -1.07043 0
M  V30 7726 C 755.061 -0.956083 -1.83146 0
M  V30 7727 C 755.469 0.498969 -1.82502 0
M  V30 7728 O 754.812 1.35791 -1.23719 0
M  V30 7729 C 754.874 -1.39704 -3.31245 0
M  V30 7730 C 754.538 -2.87045 -3.55604 0
M  V30 7731 C 755.535 -3.85092 -3.49285 0
M  V30 7732 C 753.22 -3.24787 -3.8317 0
M  V30 7733 C 755.214 -5.18885 -3.70185 0
M  V30 7734 C 752.901 -4.58751 -4.03721 0
M  V30 7735 C 753.899 -5.55609 -3.97224 0
M  V30 7736 O 753.587 -6.87154 -4.17223 0
M  V30 7737 H 753.319 -0.339473 -0.58458 0
M  V30 7738 H 755.873 -1.53922 -1.36005 0
M  V30 7739 H 754.103 -0.757326 -3.79212 0
M  V30 7740 H 755.792 -1.16503 -3.88821 0
M  V30 7741 H 756.558 -3.5728 -3.27988 0
M  V30 7742 H 752.437 -2.49979 -3.87339 0
M  V30 7743 H 755.981 -5.94473 -3.6503 0
M  V30 7744 H 751.878 -4.86277 -4.24505 0
M  V30 7745 H 752.646 -6.93618 -4.34553 0
M  V30 7746 N 755.309 1.25446 -0.953992 0
M  V30 7747 C 756.537 1.97215 -0.625595 0
M  V30 7748 C 756.952 1.70911 0.802168 0
M  V30 7749 O 756.309 0.984782 1.5365 0
M  V30 7750 C 756.36 3.50777 -0.873943 0
M  V30 7751 O 756.081 3.76173 -2.24556 0
M  V30 7752 C 757.582 4.39776 -0.557845 0
M  V30 7753 H 754.802 0.628652 -0.2346 0
M  V30 7754 H 757.346 1.59632 -1.27819 0
M  V30 7755 H 755.501 3.86474 -0.267765 0
M  V30 7756 H 755.915 4.70636 -2.31522 0
M  V30 7757 H 757.389 5.46431 -0.782157 0
M  V30 7758 H 757.866 4.36257 0.507573 0
M  V30 7759 H 758.472 4.09644 -1.14332 0
M  V30 7760 N 756.787 0.722489 1.40064 0
M  V30 7761 C 758.064 0.191829 1.94657 0
M  V30 7762 C 758.444 -1.30389 1.66018 0
M  V30 7763 O 757.792 -2.06342 0.981588 0
M  V30 7764 C 758.002 0.511978 3.45224 0
M  V30 7765 C 759.35 0.454426 4.22161 0
M  V30 7766 O 760.374 0.448438 3.53366 0
M  V30 7767 O 759.233 0.437986 5.44742 0
M  V30 7768 H 756.327 0.0307821 0.826427 0
M  V30 7769 H 758.873 0.800493 1.49634 0
M  V30 7770 H 757.645 1.54622 3.59455 0
M  V30 7771 H 757.268 -0.126296 3.97399 0
M  V30 7772 N 758.265 -1.50454 0.469181 0
M  V30 7773 C 759.213 -2.30101 -0.340033 0
M  V30 7774 C 760.207 -1.37306 -0.992135 0
M  V30 7775 O 761.413 -1.54506 -0.923458 0
M  V30 7776 H 757.788 -0.740941 -0.128495 0
M  V30 7777 H 759.759 -2.96315 0.352144 0
M  V30 7778 C 758.508 -3.17804 -1.41052 0
M  V30 7779 H 757.831 -3.89115 -0.918124 0
M  V30 7780 H 759.271 -3.76533 -1.94934 0
M  V30 7781 C 757.73 -2.35272 -2.4114 0
M  V30 7782 O 758.26 -2.03448 -3.4637 0
M  V30 7783 N 756.466 -1.97889 -2.1281 0
M  V30 7784 H 756.013 -2.2397 -1.27261 0
M  V30 7785 H 755.971 -1.42971 -2.80012 0
M  V30 7786 N 759.743 -0.201713 -1.56304 0
M  V30 7787 C 761.02 0.483273 -1.89536 0
M  V30 7788 C 761.4 1.79176 -1.11621 0
M  V30 7789 O 760.748 2.27445 -0.219339 0
M  V30 7790 C 760.958 0.695604 -3.41998 0
M  V30 7791 C 762.306 1.012 -4.12364 0
M  V30 7792 O 763.33 0.783094 -3.47485 0
M  V30 7793 O 762.189 1.44534 -5.27041 0
M  V30 7794 H 759.283 0.252801 -0.787414 0
M  V30 7795 H 761.829 -0.24242 -1.6796 0
M  V30 7796 H 760.601 -0.228165 -3.90634 0
M  V30 7797 H 760.224 1.47351 -3.69288 0
M  V30 7798 N 761.222 1.57436 0.0718424 0
M  V30 7799 C 762.471 1.86431 0.769826 0
M  V30 7800 C 762.784 0.794355 1.78744 0
M  V30 7801 O 763.99 0.972148 2.53499 0
M  V30 7802 C 762.446 3.307 1.42006 0
M  V30 7803 C 762.054 4.45824 0.441017 0
M  V30 7804 C 763.798 3.68894 2.10041 0
M  V30 7805 C 761.705 5.81134 1.09717 0
M  V30 7806 H 760.635 0.695474 0.291259 0
M  V30 7807 H 763.286 1.83485 0.0231224 0
M  V30 7808 H 761.668 3.28257 2.21502 0
M  V30 7809 H 762.842 4.59659 -0.32413 0
M  V30 7810 H 761.157 4.16181 -0.134886 0
M  V30 7811 H 763.754 4.67281 2.59908 0
M  V30 7812 H 764.097 2.98692 2.89981 0
M  V30 7813 H 764.63 3.73326 1.37376 0
M  V30 7814 H 761.369 6.54628 0.338095 0
M  V30 7815 H 760.889 5.711 1.83317 0
M  V30 7816 H 762.568 6.26468 1.617 0
M  V30 7817 N 762.7 -0.34323 1.53817 0
M  V30 7818 C 763.946 -1.08504 1.71332 0
M  V30 7819 C 764.279 -1.88294 0.475285 0
M  V30 7820 O 763.554 -1.87205 -0.527688 0
M  V30 7821 C 763.837 -2.02597 2.97702 0
M  V30 7822 C 763.69 -1.26268 4.31713 0
M  V30 7823 C 765.009 -3.0241 3.19744 0
M  V30 7824 H 762.128 -0.393072 0.623429 0
M  V30 7825 H 764.77 -0.363579 1.86489 0
M  V30 7826 H 762.92 -2.64118 2.8491 0
M  V30 7827 H 764.592 -0.673594 4.56356 0
M  V30 7828 H 762.835 -0.564696 4.30109 0
M  V30 7829 H 763.506 -1.95253 5.16314 0
M  V30 7830 H 765.982 -2.51004 3.31868 0
M  V30 7831 H 764.858 -3.65449 4.09558 0
M  V30 7832 H 765.119 -3.73806 2.36054 0
M  V30 7833 N 764.178 -1.45556 -0.604258 0
M  V30 7834 C 765.406 -1.53278 -1.38973 0
M  V30 7835 C 765.821 -0.166509 -1.88064 0
M  V30 7836 O 765.178 0.832519 -1.62405 0
M  V30 7837 C 765.229 -2.51992 -2.59195 0
M  V30 7838 O 764.95 -3.8331 -2.12143 0
M  V30 7839 C 766.451 -2.69445 -3.52015 0
M  V30 7840 H 763.671 -0.519003 -0.425297 0
M  V30 7841 H 766.215 -1.90773 -0.736621 0
M  V30 7842 H 764.37 -2.17561 -3.2054 0
M  V30 7843 H 764.784 -4.3685 -2.90279 0
M  V30 7844 H 766.258 -3.42485 -4.32907 0
M  V30 7845 H 766.735 -1.75596 -4.0257 0
M  V30 7846 H 767.341 -3.04886 -2.9652 0
M  V30 7847 N 765.656 0.84705 -1.32902 0
M  V30 7848 C 766.604 1.97765 -1.22441 0
M  V30 7849 C 767.598 1.68919 -0.127546 0
M  V30 7850 O 768.804 1.77633 -0.290973 0
M  V30 7851 H 765.179 0.649072 -0.379748 0
M  V30 7852 H 767.15 2.03713 -2.18044 0
M  V30 7853 C 765.899 3.33834 -0.972125 0
M  V30 7854 H 765.222 3.56564 -1.80837 0
M  V30 7855 H 766.662 4.13467 -0.939209 0
M  V30 7856 C 765.121 3.35328 0.325059 0
M  V30 7857 O 765.651 3.78887 1.33445 0
M  V30 7858 N 763.857 2.88488 0.349718 0
M  V30 7859 H 763.404 2.53234 -0.472236 0
M  V30 7860 H 763.362 2.8987 1.21748 0
M  V30 7861 N 767.134 1.16236 1.06428 0
M  V30 7862 C 768.081 0.86769 2.13869 0
M  V30 7863 C 769.051 -0.183298 1.65086 0
M  V30 7864 O 770.236 -0.0488002 1.90738 0
M  V30 7865 C 767.376 0.373427 3.43074 0
M  V30 7866 C 766.489 1.48708 4.05598 0
M  V30 7867 C 765.624 0.947977 5.22673 0
M  V30 7868 C 764.663 2.03793 5.77178 0
M  V30 7869 N 763.8 1.51451 6.85571 0
M  V30 7870 H 768.64 1.78781 2.38414 0
M  V30 7871 H 766.177 0.891892 1.16977 0
M  V30 7872 H 768.135 0.0685035 4.17144 0
M  V30 7873 H 766.765 -0.509752 3.1875 0
M  V30 7874 H 765.817 1.908 3.29089 0
M  V30 7875 H 767.129 2.30964 4.42105 0
M  V30 7876 H 766.283 0.596154 6.03764 0
M  V30 7877 H 765.022 0.0947081 4.87608 0
M  V30 7878 H 764.027 2.39847 4.94726 0
M  V30 7879 H 765.252 2.89514 6.14295 0
M  V30 7880 H 763.198 0.683755 6.52427 0
M  V30 7881 H 763.115 2.27325 7.21013 0
M  V30 7882 H 764.383 1.19123 7.70344 0
M  V30 7883 N 768.612 -1.24939 0.960631 0
M  V30 7884 C 769.545 -2.24116 0.429804 0
M  V30 7885 C 770.523 -1.54972 -0.492188 0
M  V30 7886 O 771.707 -1.83642 -0.42519 0
M  V30 7887 C 768.834 -3.36558 -0.380312 0
M  V30 7888 C 767.88 -4.23757 0.482941 0
M  V30 7889 S 768.713 -4.9994 1.91885 0
M  V30 7890 C 769.869 -6.15846 1.11732 0
M  V30 7891 H 770.102 -2.68795 1.27029 0
M  V30 7892 H 767.635 -1.34108 0.765141 0
M  V30 7893 H 769.593 -4.01777 -0.841764 0
M  V30 7894 H 768.254 -2.90451 -1.19569 0
M  V30 7895 H 767.447 -5.03809 -0.138699 0
M  V30 7896 H 767.049 -3.63504 0.879839 0
M  V30 7897 H 769.341 -6.76495 0.368898 0
M  V30 7898 H 770.284 -6.82356 1.89198 0
M  V30 7899 H 770.692 -5.60805 0.644812 0
M  V30 7900 N 770.09 -0.729906 -1.39679 0
M  V30 7901 C 771.506 -0.404951 -1.54377 0
M  V30 7902 C 771.706 1.08476 -1.6981 0
M  V30 7903 O 770.762 1.87087 -1.69572 0
M  V30 7904 C 772.075 -1.18352 -2.76429 0
M  V30 7905 C 773.623 -1.17124 -2.9026 0
M  V30 7906 C 774.098 -1.93227 -4.15244 0
M  V30 7907 N 775.589 -1.90368 -4.22273 0
M  V30 7908 C 776.324 -2.46065 -5.17918 0
M  V30 7909 N 775.82 -3.10378 -6.19385 0
M  V30 7910 N 777.613 -2.36127 -5.10099 0
M  V30 7911 H 769.764 -1.69567 -1.27909 0
M  V30 7912 H 772.027 -0.717527 -0.619564 0
M  V30 7913 H 771.733 -2.23743 -2.71352 0
M  V30 7914 H 771.607 -0.784589 -3.6895 0
M  V30 7915 H 773.994 -0.125478 -2.94833 0
M  V30 7916 H 774.075 -1.60951 -1.98817 0
M  V30 7917 H 773.719 -2.97802 -4.11432 0
M  V30 7918 H 773.649 -1.4681 -5.05722 0
M  V30 7919 H 776.14 -1.4351 -3.4959 0
M  V30 7920 H 776.453 -3.50358 -6.88817 0
M  V30 7921 H 774.798 -3.14467 -6.19787 0
M  V30 7922 H 777.989 -1.85529 -4.29763 0
M  V30 7923 H 778.162 -2.79833 -5.84463 0
M  V30 7924 N 771.568 1.50203 -0.477153 0
M  V30 7925 C 772.531 2.27194 0.302599 0
M  V30 7926 C 773.531 1.32221 0.915112 0
M  V30 7927 O 774.721 1.55593 0.783348 0
M  V30 7928 C 771.853 3.0938 1.43167 0
M  V30 7929 H 773.046 2.97575 -0.372678 0
M  V30 7930 H 770.599 1.54578 -0.231392 0
M  V30 7931 H 771.334 2.43509 2.14182 0
M  V30 7932 H 771.119 3.79181 0.998197 0
M  V30 7933 H 772.609 3.67592 1.98157 0
M  V30 7934 N 773.046 0.209999 1.56195 0
M  V30 7935 C 774.274 -0.429996 2.02382 0
M  V30 7936 C 774.689 -1.54159 1.08998 0
M  V30 7937 O 774.046 -1.82239 0.0974856 0
M  V30 7938 C 774.097 -0.972433 3.48175 0
M  V30 7939 O 773.818 0.0948231 4.37997 0
M  V30 7940 C 775.319 -1.68683 4.09952 0
M  V30 7941 H 772.539 -0.106475 0.662498 0
M  V30 7942 H 775.083 0.323072 2.01932 0
M  V30 7943 H 773.238 -1.67582 3.49278 0
M  V30 7944 H 773.652 -0.31113 5.23576 0
M  V30 7945 H 775.126 -2.01851 5.13771 0
M  V30 7946 H 775.603 -2.59587 3.54276 0
M  V30 7947 H 776.209 -1.02893 4.12666 0
M  V30 7948 N 774.524 -1.57472 -0.0634922 0
M  V30 7949 C 775.754 -1.91608 -0.772645 0
M  V30 7950 C 776.162 -0.805019 -1.71219 0
M  V30 7951 O 775.505 0.229941 -1.82255 0
M  V30 7952 C 775.567 -3.21281 -1.61304 0
M  V30 7953 C 775.231 -4.49177 -0.841973 0
M  V30 7954 C 776.228 -5.19661 -0.157494 0
M  V30 7955 C 773.913 -4.9578 -0.80669 0
M  V30 7956 C 775.907 -6.35006 0.551948 0
M  V30 7957 C 773.594 -6.11028 -0.0934812 0
M  V30 7958 C 774.592 -6.80493 0.58463 0
M  V30 7959 O 774.28 -7.93542 1.28633 0
M  V30 7960 H 774.012 -0.637685 -0.224352 0
M  V30 7961 H 776.566 -2.05369 -0.0355279 0
M  V30 7962 H 774.796 -3.03752 -2.39315 0
M  V30 7963 H 776.485 -3.41003 -2.20162 0
M  V30 7964 H 777.251 -4.84681 -0.176006 0
M  V30 7965 H 773.13 -4.41579 -1.32397 0
M  V30 7966 H 776.674 -6.89161 1.0818 0
M  V30 7967 H 772.571 -6.45459 -0.0729258 0
M  V30 7968 H 773.339 -8.09708 1.19646 0
M  V30 7969 N 776.003 0.335068 -1.53997 0
M  V30 7970 C 777.252 1.07182 -1.70865 0
M  V30 7971 C 777.565 1.89541 -0.483078 0
M  V30 7972 O 778.771 2.66219 -0.532879 0
M  V30 7973 C 777.227 1.95497 -3.02174 0
M  V30 7974 C 776.835 1.18304 -4.32097 0
M  V30 7975 C 778.579 2.68978 -3.28407 0
M  V30 7976 C 776.486 2.05699 -5.54474 0
M  V30 7977 H 775.416 0.403857 -0.636722 0
M  V30 7978 H 778.067 0.33076 -1.80494 0
M  V30 7979 H 776.449 2.73456 -2.86423 0
M  V30 7980 H 777.623 0.451969 -4.58578 0
M  V30 7981 H 775.938 0.565556 -4.12541 0
M  V30 7982 H 778.535 3.34651 -4.17029 0
M  V30 7983 H 778.878 3.36 -2.45784 0
M  V30 7984 H 779.411 1.98087 -3.44973 0
M  V30 7985 H 776.15 1.43204 -6.39666 0
M  V30 7986 H 775.67 2.76572 -5.32229 0
M  V30 7987 H 777.349 2.64554 -5.90441 0
M  V30 7988 N 777.481 1.45874 0.596531 0
M  V30 7989 C 778.391 1.57947 1.73464 0
M  V30 7990 C 779.407 0.463461 1.67714 0
M  V30 7991 O 780.583 0.725685 1.87872 0
M  V30 7992 C 777.648 1.55348 3.09948 0
M  V30 7993 C 776.709 2.78074 3.27068 0
M  V30 7994 C 775.942 2.75589 4.57041 0
M  V30 7995 O 776.165 1.83545 5.40063 0
M  V30 7996 O 775.099 3.66945 4.77111 0
M  V30 7997 H 778.925 2.54169 1.66228 0
M  V30 7998 H 776.51 1.2851 0.76194 0
M  V30 7999 H 778.392 1.56545 3.91244 0
M  V30 8000 H 777.067 0.622811 3.17652 0
M  V30 8001 H 775.974 2.82435 2.45319 0
M  V30 8002 H 777.307 3.70303 3.24248 0
M  V30 8003 N 778.959 -0.83999 1.33349 0
M  V30 8004 C 780.207 -1.59202 1.24496 0
M  V30 8005 C 780.528 -1.94077 -0.189499 0
M  V30 8006 O 779.798 -1.60868 -1.11796 0
M  V30 8007 H 778.378 -0.590276 0.457802 0
M  V30 8008 H 781.04 -1.00394 1.67054 0
M  V30 8009 H 780.136 -2.52247 1.83788 0
M  V30 8010 N 780.437 -1.16799 -1.0581 0
M  V30 8011 C 781.683 -0.953935 -1.78963 0
M  V30 8012 C 782.016 0.516638 -1.87202 0
M  V30 8013 O 781.291 1.38338 -1.36721 0
M  V30 8014 C 781.574 -1.58808 -3.23191 0
M  V30 8015 C 781.427 -3.13032 -3.23003 0
M  V30 8016 C 782.746 -1.2868 -4.20867 0
M  V30 8017 H 779.865 -0.347972 -0.64968 0
M  V30 8018 H 782.507 -1.44204 -1.23715 0
M  V30 8019 H 780.657 -1.17303 -3.70368 0
M  V30 8020 H 782.329 -3.63553 -2.83949 0
M  V30 8021 H 780.572 -3.46108 -2.61518 0
M  V30 8022 H 781.243 -3.52527 -4.24769 0
M  V30 8023 H 783.719 -1.6461 -3.82155 0
M  V30 8024 H 782.595 -1.75645 -5.20038 0
M  V30 8025 H 782.856 -0.206491 -4.41618 0
M  V30 8026 N 781.915 1.24427 -0.967243 0
M  V30 8027 C 783.326 1.74349 -0.667785 0
M  V30 8028 C 783.677 1.78403 0.816509 0
M  V30 8029 O 782.802 1.41315 1.63887 0
M  V30 8030 C 783.397 3.16628 -1.20548 0
M  V30 8031 C 781.956 3.64059 -0.955934 0
M  V30 8032 C 781.103 2.42715 -1.34106 0
M  V30 8033 H 784.054 1.10136 -1.14262 0
M  V30 8034 H 784.075 3.76183 -0.571547 0
M  V30 8035 H 783.587 3.13646 -2.28578 0
M  V30 8036 H 781.688 3.72441 0.108858 0
M  V30 8037 H 781.801 4.51549 -1.60126 0
M  V30 8038 H 780.165 2.43114 -0.759452 0
M  V30 8039 H 780.948 2.42414 -2.43085 0
M  V30 8040 N 783.393 0.737304 1.3929 0
M  V30 8041 C 784.621 0.296573 2.04763 0
M  V30 8042 C 785.036 -1.06941 1.55592 0
M  V30 8043 O 784.393 -1.67619 0.721822 0
M  V30 8044 C 784.444 0.291906 3.6032 0
M  V30 8045 O 784.165 1.60397 4.07682 0
M  V30 8046 C 785.666 -0.164708 4.42994 0
M  V30 8047 H 782.886 0.129251 0.658434 0
M  V30 8048 H 785.43 1.0016 1.78293 0
M  V30 8049 H 783.585 -0.364251 3.85684 0
M  V30 8050 H 783.999 1.51909 5.0202 0
M  V30 8051 H 785.473 -0.116814 5.51876 0
M  V30 8052 H 785.95 -1.21022 4.22197 0
M  V30 8053 H 786.556 0.461968 4.22784 0
M  V30 8054 N 784.871 -1.49948 0.485112 0
M  V30 8055 C 786.099 -2.06806 -0.0622824 0
M  V30 8056 C 786.514 -1.34736 -1.32256 0
M  V30 8057 O 785.871 -0.420836 -1.77582 0
M  V30 8058 C 785.922 -3.59934 -0.336096 0
M  V30 8059 O 785.643 -4.29289 0.874203 0
M  V30 8060 C 787.144 -4.33459 -0.928903 0
M  V30 8061 H 784.364 -0.670867 0.0133472 0
M  V30 8062 H 786.908 -1.92937 0.677917 0
M  V30 8063 H 785.063 -3.7356 -1.02625 0
M  V30 8064 H 785.477 -5.20735 0.627332 0
M  V30 8065 H 786.951 -5.41527 -1.07017 0
M  V30 8066 H 787.428 -3.94881 -1.92265 0
M  V30 8067 H 788.034 -4.24399 -0.276705 0
M  V30 8068 N 786.349 -0.21828 -1.56081 0
M  V30 8069 C 787.259 0.704602 -2.23769 0
M  V30 8070 C 788.275 1.21633 -1.24425 0
M  V30 8071 O 789.451 1.25862 -1.57228 0
M  V30 8072 C 786.516 1.89725 -2.90182 0
M  V30 8073 C 785.577 1.42782 -4.0486 0
M  V30 8074 C 784.81 2.56361 -4.68097 0
M  V30 8075 O 785.033 3.74417 -4.30312 0
M  V30 8076 O 783.967 2.2775 -5.57148 0
M  V30 8077 H 787.793 0.158007 -3.03289 0
M  V30 8078 H 785.378 0.0120279 -1.49395 0
M  V30 8079 H 787.26 2.59382 -3.32113 0
M  V30 8080 H 785.935 2.432 -2.13624 0
M  V30 8081 H 784.842 0.699359 -3.67505 0
M  V30 8082 H 786.175 0.939474 -4.83151 0
M  V30 8083 N 787.827 1.57504 0.0551401 0
M  V30 8084 C 788.775 2.05884 1.08233 0
M  V30 8085 C 789.769 0.967383 1.39061 0
M  V30 8086 O 790.975 1.15242 1.38273 0
M  V30 8087 H 787.35 0.656673 0.366449 0
M  V30 8088 H 789.321 2.91273 0.648269 0
M  V30 8089 C 788.07 2.53221 2.38273 0
M  V30 8090 H 787.393 3.36809 2.15406 0
M  V30 8091 H 788.833 2.9081 3.08554 0
M  V30 8092 C 787.292 1.42218 3.05411 0
M  V30 8093 O 787.822 0.773638 3.9418 0
M  V30 8094 N 786.028 1.16316 2.66306 0
M  V30 8095 H 785.575 1.69237 1.94207 0
M  V30 8096 H 785.533 0.422534 3.11548 0
M  V30 8097 N 789.305 -0.326896 1.54172 0
M  V30 8098 C 790.551 -1.06304 1.7341 0
M  V30 8099 C 790.906 -1.85791 0.499935 0
M  V30 8100 O 790.199 -1.84753 -0.507625 0
M  V30 8101 C 790.393 -2.0208 2.94785 0
M  V30 8102 C 790.222 -1.32009 4.29888 0
M  V30 8103 C 788.992 -1.05798 4.941 0
M  V30 8104 C 791.19 -0.737721 5.08982 0
M  V30 8105 N 789.172 -0.324836 6.1304 0
M  V30 8106 C 790.543 -0.136006 6.19851 0
M  V30 8107 C 792.598 -0.640206 4.93767 0
M  V30 8108 C 791.301 0.553757 7.17165 0
M  V30 8109 C 793.327 0.0358492 5.91389 0
M  V30 8110 C 792.689 0.626522 7.01608 0
M  V30 8111 H 788.788 -0.372808 0.687414 0
M  V30 8112 H 791.372 -0.34462 1.91626 0
M  V30 8113 H 789.543 -2.71197 2.78041 0
M  V30 8114 H 791.275 -2.68655 3.02666 0
M  V30 8115 H 788.03 -1.34945 4.53968 0
M  V30 8116 H 788.454 0.0274982 6.76994 0
M  V30 8117 H 793.096 -1.0826 4.08705 0
M  V30 8118 H 790.814 1.00799 8.01789 0
M  V30 8119 H 794.4 0.110895 5.81694 0
M  V30 8120 H 793.28 1.14135 7.7585 0
M  V30 8121 N 790.784 -1.46188 -0.588786 0
M  V30 8122 C 792.061 -1.41659 -1.34878 0
M  V30 8123 C 792.441 -0.0968913 -2.10878 0
M  V30 8124 O 791.789 0.921468 -2.09096 0
M  V30 8125 C 791.999 -2.6424 -2.27988 0
M  V30 8126 C 793.347 -3.1013 -2.90008 0
M  V30 8127 O 794.371 -2.64745 -2.38303 0
M  V30 8128 O 793.23 -3.88944 -3.83908 0
M  V30 8129 H 790.324 -0.563058 -0.605718 0
M  V30 8130 H 792.87 -1.58346 -0.610309 0
M  V30 8131 H 791.642 -3.51853 -1.71217 0
M  V30 8132 H 791.265 -2.49982 -3.09184 0
M  V30 8133 N 792.262 0.832906 -1.33792 0
M  V30 8134 C 793.49 1.62048 -1.28639 0
M  V30 8135 C 793.905 1.88269 0.141522 0
M  V30 8136 O 793.262 1.46706 1.08553 0
M  V30 8137 C 793.313 2.96722 -2.0649 0
M  V30 8138 O 793.034 2.7165 -3.43712 0
M  V30 8139 C 794.535 3.91144 -2.08617 0
M  V30 8140 H 791.755 0.504032 -0.442937 0
M  V30 8141 H 794.299 1.03704 -1.76255 0
M  V30 8142 H 792.454 3.51652 -1.62541 0
M  V30 8143 H 792.868 3.57453 -3.83833 0
M  V30 8144 H 794.342 4.82837 -2.67531 0
M  V30 8145 H 794.819 4.25766 -1.07796 0
M  V30 8146 H 795.425 3.42152 -2.52611 0
M  V30 8147 N 793.74 1.17359 1.05189 0
M  V30 8148 C 794.703 0.892604 2.11105 0
M  V30 8149 C 795.703 -0.117236 1.60372 0
M  V30 8150 O 796.893 0.114936 1.7382 0
M  V30 8151 C 794.025 0.337032 3.3923 0
M  V30 8152 H 795.218 1.83169 2.37464 0
M  V30 8153 H 792.771 0.984051 1.21434 0
M  V30 8154 H 793.506 -0.609198 3.18527 0
M  V30 8155 H 793.291 1.06484 3.77364 0
M  V30 8156 H 794.781 0.158763 4.17298 0
M  V30 8157 N 795.218 -1.23913 0.973828 0
M  V30 8158 C 796.634 -1.44325 0.681363 0
M  V30 8159 C 796.834 -1.86832 -0.754728 0
M  V30 8160 O 795.89 -2.01024 -1.52793 0
M  V30 8161 C 797.203 -2.50017 1.67069 0
M  V30 8162 C 798.751 -2.63838 1.68399 0
M  V30 8163 C 799.226 -3.72734 2.66145 0
M  V30 8164 N 800.717 -3.80169 2.64624 0
M  V30 8165 C 801.452 -4.6397 3.36927 0
M  V30 8166 N 800.948 -5.51911 4.18767 0
M  V30 8167 N 802.741 -4.58106 3.25722 0
M  V30 8168 H 794.892 -0.946204 1.9016 0
M  V30 8169 H 797.155 -0.477374 0.819035 0
M  V30 8170 H 796.861 -2.25686 2.69738 0
M  V30 8171 H 796.735 -3.48287 1.4483 0
M  V30 8172 H 799.122 -2.87524 0.664379 0
M  V30 8173 H 799.203 -1.65906 1.94702 0
M  V30 8174 H 798.847 -3.49797 3.68245 0
M  V30 8175 H 798.777 -4.70193 2.3712 0
M  V30 8176 H 801.268 -3.17319 2.05224 0
M  V30 8177 H 801.581 -6.12828 4.70809 0
M  V30 8178 H 799.926 -5.51556 4.2286 0
M  V30 8179 H 803.117 -3.8842 2.61242 0
M  V30 8180 H 803.29 -5.23188 3.82333 0
M  V30 8181 N 796.696 -0.74468 -1.38897 0
M  V30 8182 C 797.659 -0.11945 -2.28889 0
M  V30 8183 C 798.659 0.656942 -1.46768 0
M  V30 8184 O 799.849 0.484525 -1.67326 0
M  V30 8185 C 796.981 0.839635 -3.30398 0
M  V30 8186 H 798.174 -0.912414 -2.85683 0
M  V30 8187 H 795.727 -0.511119 -1.47707 0
M  V30 8188 H 796.462 1.6586 -2.78677 0
M  V30 8189 H 796.247 0.285432 -3.9106 0
M  V30 8190 H 797.737 1.27337 -3.97712 0
M  V30 8191 N 798.174 1.49689 -0.493057 0
M  V30 8192 C 799.59 1.58907 -0.148526 0
M  V30 8193 C 799.79 1.4991 1.34645 0
M  V30 8194 O 798.846 1.36893 2.12171 0
M  V30 8195 C 800.159 2.91996 -0.718265 0
M  V30 8196 C 801.707 3.05443 -0.683658 0
M  V30 8197 C 802.182 4.41138 -1.23132 0
M  V30 8198 N 803.673 4.47608 -1.19167 0
M  V30 8199 C 804.408 5.51038 -1.5857 0
M  V30 8200 N 803.904 6.61612 -2.05528 0
M  V30 8201 N 805.697 5.41706 -1.50036 0
M  V30 8202 H 797.848 1.5378 -1.46511 0
M  V30 8203 H 800.111 0.727996 -0.607228 0
M  V30 8204 H 799.817 3.04123 -1.7664 0
M  V30 8205 H 799.691 3.76798 -0.17419 0
M  V30 8206 H 802.078 2.92949 0.355626 0
M  V30 8207 H 802.159 2.22344 -1.26479 0
M  V30 8208 H 801.803 4.54382 -2.26935 0
M  V30 8209 H 801.733 5.22864 -0.626201 0
M  V30 8210 H 804.224 3.68274 -0.847524 0
M  V30 8211 H 804.537 7.36622 -2.33685 0
M  V30 8212 H 802.882 6.62674 -2.09497 0
M  V30 8213 H 806.073 4.54212 -1.13176 0
M  V30 8214 H 806.246 6.22188 -1.81068 0
M  V30 8215 N 799.652 0.226554 1.55963 0
M  V30 8216 C 800.882 -0.407915 2.02533 0
M  V30 8217 C 801.29 -1.53539 1.10554 0
M  V30 8218 O 800.633 -1.8338 0.108409 0
M  V30 8219 C 800.695 -0.996081 3.45425 0
M  V30 8220 C 800.359 -0.00341651 4.57 0
M  V30 8221 C 801.356 0.798782 5.13727 0
M  V30 8222 C 799.041 0.116786 5.02164 0
M  V30 8223 C 801.035 1.70784 6.14094 0
M  V30 8224 C 798.722 1.02937 6.02368 0
M  V30 8225 C 799.72 1.82344 6.5821 0
M  V30 8226 O 799.408 2.72067 7.56462 0
M  V30 8227 H 799.14 -0.103524 0.668026 0
M  V30 8228 H 801.694 0.341937 2.02534 0
M  V30 8229 H 799.924 -1.79512 3.42509 0
M  V30 8230 H 801.613 -1.53848 3.75614 0
M  V30 8231 H 802.379 0.716393 4.7968 0
M  V30 8232 H 798.258 -0.491172 4.58376 0
M  V30 8233 H 801.802 2.32807 6.57607 0
M  V30 8234 H 797.699 1.11276 6.35836 0
M  V30 8235 H 798.467 2.66199 7.74003 0
M  V30 8236 N 801.13 -1.57531 -0.0467866 0
M  V30 8237 C 802.078 -2.06455 -1.0714 0
M  V30 8238 C 803.072 -0.974744 -1.38546 0
M  V30 8239 O 804.278 -1.15974 -1.37659 0
M  V30 8240 H 800.653 -0.658607 -0.362962 0
M  V30 8241 H 802.624 -2.91613 -0.632813 0
M  V30 8242 C 801.373 -2.54481 -2.36927 0
M  V30 8243 H 800.696 -3.37946 -2.13617 0
M  V30 8244 H 802.136 -2.92442 -3.07007 0
M  V30 8245 C 800.595 -1.43836 -3.04652 0
M  V30 8246 O 801.125 -0.794531 -3.93764 0
M  V30 8247 N 799.331 -1.17727 -2.65686 0
M  V30 8248 H 798.878 -1.70265 -1.93307 0
M  V30 8249 H 798.836 -0.439051 -3.11319 0
M  V30 8250 N 802.608 0.318715 -1.54344 0
M  V30 8251 C 803.54 1.41364 -1.80413 0
M  V30 8252 C 804.553 1.47627 -0.686294 0
M  V30 8253 O 805.742 1.50264 -0.963486 0
M  V30 8254 C 802.842 2.79867 -1.91123 0
M  V30 8255 C 802.015 2.96749 -3.21339 0
M  V30 8256 C 801.074 4.15642 -3.22689 0
M  V30 8257 O 800.1 4.08571 -3.96306 0
M  V30 8258 N 801.302 5.25416 -2.46817 0
M  V30 8259 H 804.067 1.19363 -2.74905 0
M  V30 8260 H 801.628 0.508722 -1.537 0
M  V30 8261 H 803.62 3.57619 -1.89448 0
M  V30 8262 H 802.19 2.94896 -1.03706 0
M  V30 8263 H 801.41 2.06257 -3.35934 0
M  V30 8264 H 802.698 3.04927 -4.07304 0
M  V30 8265 H 802.096 5.34037 -1.86605 0
M  V30 8266 H 800.653 6.01569 -2.50915 0
M  V30 8267 N 804.086 1.46499 0.581025 0
M  V30 8268 C 805.335 1.51162 1.3354 0
M  V30 8269 C 805.648 0.168433 1.94873 0
M  V30 8270 O 806.854 0.092883 2.71341 0
M  V30 8271 C 805.31 2.66362 2.42032 0
M  V30 8272 C 804.918 4.07109 1.86994 0
M  V30 8273 C 806.662 2.80297 3.188 0
M  V30 8274 C 804.569 5.13645 2.93125 0
M  V30 8275 H 803.499 0.562576 0.502021 0
M  V30 8276 H 806.15 1.72713 0.619863 0
M  V30 8277 H 804.532 2.38143 3.16392 0
M  V30 8278 H 805.706 4.45125 1.19166 0
M  V30 8279 H 804.021 3.97854 1.22887 0
M  V30 8280 H 806.618 3.5706 3.9801 0
M  V30 8281 H 806.961 1.87875 3.71495 0
M  V30 8282 H 807.494 3.0817 2.51547 0
M  V30 8283 H 804.233 6.07866 2.45315 0
M  V30 8284 H 803.753 4.80172 3.59437 0
M  V30 8285 H 805.432 5.39562 3.57046 0
M  V30 8286 N 805.565 -0.825799 1.34232 0
M  V30 8287 C 806.842 -1.56741 1.17011 0
M  V30 8288 C 807.222 -2.09512 -0.258425 0
M  V30 8289 O 806.57 -1.90664 -1.25935 0
M  V30 8290 C 806.78 -2.69104 2.22225 0
M  V30 8291 C 808.128 -3.37947 2.57055 0
M  V30 8292 O 809.152 -2.79358 2.20992 0
M  V30 8293 O 808.011 -4.43743 3.1899 0
M  V30 8294 H 805.105 -0.69163 0.453405 0
M  V30 8295 H 807.651 -0.867422 1.45856 0
M  V30 8296 H 806.423 -2.27844 3.18124 0
M  V30 8297 H 806.046 -3.46756 1.94541 0
M  V30 8298 N 807.043 -1.17915 -1.04565 0
M  V30 8299 C 808.454 -0.976383 -1.59134 0
M  V30 8300 C 808.805 0.475267 -1.90357 0
M  V30 8301 O 807.93 1.35172 -1.6899 0
M  V30 8302 C 808.525 -1.76604 -2.89131 0
M  V30 8303 C 807.084 -1.60777 -3.40335 0
M  V30 8304 C 806.231 -1.76369 -2.13985 0
M  V30 8305 H 809.182 -1.32532 -0.872985 0
M  V30 8306 H 809.203 -1.25215 -3.59307 0
M  V30 8307 H 808.715 -2.82252 -2.66375 0
M  V30 8308 H 806.816 -0.576436 -3.68114 0
M  V30 8309 H 806.929 -2.40268 -4.14497 0
M  V30 8310 H 805.293 -1.19268 -2.25049 0
M  V30 8311 H 806.076 -2.83441 -1.9369 0
M  V30 8312 N 808.521 1.23394 -0.980386 0
M  V30 8313 C 809.471 2.22634 -0.491747 0
M  V30 8314 C 810.455 1.54958 0.433222 0
M  V30 8315 O 811.647 1.75049 0.262078 0
M  V30 8316 C 808.776 3.4269 0.204531 0
M  V30 8317 C 807.862 4.17594 -0.740007 0
M  V30 8318 N 808.253 4.69458 -1.88263 0
M  V30 8319 C 806.551 4.42554 -0.553335 0
M  V30 8320 C 807.252 5.26446 -2.47446 0
M  V30 8321 N 806.228 5.14377 -1.75834 0
M  V30 8322 H 810.03 2.60363 -1.36339 0
M  V30 8323 H 807.544 1.38924 -0.841059 0
M  V30 8324 H 809.541 4.12959 0.571901 0
M  V30 8325 H 808.201 3.06477 1.07246 0
M  V30 8326 H 809.212 4.65803 -2.26381 0
M  V30 8327 H 805.889 4.16629 0.269573 0
M  V30 8328 H 807.279 5.77195 -3.43941 0
M  V30 8329 N 809.999 0.752036 1.385 0
M  V30 8330 C 811.415 0.42946 1.53713 0
M  V30 8331 C 811.615 -1.0576 1.71514 0
M  V30 8332 O 810.671 -1.84366 1.72527 0
M  V30 8333 C 811.984 1.22735 2.74511 0
M  V30 8334 C 813.532 1.21727 2.8836 0
M  V30 8335 C 814.007 1.99809 4.12117 0
M  V30 8336 N 815.498 1.97062 4.19191 0
M  V30 8337 C 816.233 2.54274 5.13938 0
M  V30 8338 N 815.729 3.20193 6.14368 0
M  V30 8339 N 817.522 2.44212 5.06277 0
M  V30 8340 H 809.673 1.71581 1.25195 0
M  V30 8341 H 811.936 0.727293 0.60807 0
M  V30 8342 H 811.642 2.28032 2.67758 0
M  V30 8343 H 811.516 0.843186 3.67655 0
M  V30 8344 H 813.903 0.172367 2.94596 0
M  V30 8345 H 813.984 1.64094 1.96232 0
M  V30 8346 H 813.628 3.0431 4.06642 0
M  V30 8347 H 813.558 1.54837 5.03322 0
M  V30 8348 H 816.049 1.49054 3.47263 0
M  V30 8349 H 816.362 3.61272 6.83156 0
M  V30 8350 H 814.707 3.24287 6.14705 0
M  V30 8351 H 817.898 1.92343 4.26757 0
M  V30 8352 H 818.071 2.89096 5.79937 0
M  V30 8353 N 811.477 -1.49425 0.500989 0
M  V30 8354 C 812.723 -2.02753 -0.0436 0
M  V30 8355 C 813.056 -1.37991 -1.36646 0
M  V30 8356 O 812.331 -0.515597 -1.87542 0
M  V30 8357 C 812.614 -3.59565 -0.19616 0
M  V30 8358 C 812.467 -4.34855 1.14982 0
M  V30 8359 C 813.786 -4.30014 -0.936795 0
M  V30 8360 H 810.905 -0.73686 -0.0143711 0
M  V30 8361 H 813.547 -1.78448 0.652397 0
M  V30 8362 H 811.697 -3.80405 -0.788959 0
M  V30 8363 H 813.369 -4.25512 1.7815 0
M  V30 8364 H 811.612 -3.97414 1.73911 0
M  V30 8365 H 812.283 -5.42933 0.996385 0
M  V30 8366 H 814.759 -4.1383 -0.434036 0
M  V30 8367 H 813.635 -5.39483 -1.01238 0
M  V30 8368 H 813.896 -3.95257 -1.9805 0
M  V30 8369 N 812.955 -0.234822 -1.55841 0
M  V30 8370 C 814.202 0.39326 -1.98645 0
M  V30 8371 C 814.53 1.58823 -1.12274 0
M  V30 8372 O 813.785 1.94954 -0.170731 0
M  V30 8373 C 814.084 0.858032 -3.46947 0
M  V30 8374 C 813.75 -0.227858 -4.50324 0
M  V30 8375 C 812.412 -0.526128 -4.78315 0
M  V30 8376 C 814.764 -0.961576 -5.12253 0
M  V30 8377 C 812.092 -1.5624 -5.65514 0
M  V30 8378 C 814.444 -1.98728 -6.00575 0
M  V30 8379 C 813.108 -2.29233 -6.26904 0
M  V30 8380 H 812.378 0.143904 -0.726892 0
M  V30 8381 H 815.025 -0.34012 -1.88455 0
M  V30 8382 H 813.33 1.67041 -3.54408 0
M  V30 8383 H 815.027 1.35407 -3.77447 0
M  V30 8384 H 811.617 0.0147624 -4.28597 0
M  V30 8385 H 815.801 -0.744388 -4.90686 0
M  V30 8386 H 811.057 -1.80422 -5.84173 0
M  V30 8387 H 815.231 -2.5608 -6.47608 0
M  V30 8388 H 812.858 -3.09671 -6.94268 0
M  V30 8389 N 814.433 1.57553 0.0384317 0
M  V30 8390 C 815.661 1.93093 0.743141 0
M  V30 8391 C 816.076 0.833787 1.69391 0
M  V30 8392 O 815.433 -0.190532 1.81503 0
M  V30 8393 C 815.484 3.28533 1.50826 0
M  V30 8394 O 815.205 4.34032 0.595665 0
M  V30 8395 C 816.706 3.78297 2.31098 0
M  V30 8396 H 813.926 0.637486 0.20941 0
M  V30 8397 H 816.47 2.045 -0.00125154 0
M  V30 8398 H 814.625 3.18552 2.20462 0
M  V30 8399 H 815.039 5.12155 1.13124 0
M  V30 8400 H 816.513 4.75602 2.80191 0
M  V30 8401 H 816.99 3.09008 3.12107 0
M  V30 8402 H 817.596 3.91331 1.66555 0
M  V30 8403 N 815.911 -0.310526 1.54511 0
M  V30 8404 C 816.859 -1.40272 1.85544 0
M  V30 8405 C 817.853 -1.52941 0.728377 0
M  V30 8406 O 819.059 -1.55172 0.912234 0
M  V30 8407 H 815.434 -0.468355 0.588343 0
M  V30 8408 H 817.405 -1.11329 2.76855 0
M  V30 8409 C 816.154 -2.76279 2.11105 0
M  V30 8410 H 815.477 -2.67308 2.97298 0
M  V30 8411 H 816.917 -3.51736 2.36765 0
M  V30 8412 C 815.376 -3.24472 0.906618 0
M  V30 8413 O 815.906 -4.01514 0.122358 0
M  V30 8414 N 814.112 -2.81676 0.714632 0
M  V30 8415 H 813.659 -2.19143 1.35404 0
M  V30 8416 H 813.617 -3.14272 -0.089703 0
M  V30 8417 N 817.389 -1.46805 -0.573248 0
M  V30 8418 C 818.637 -1.52302 -1.32847 0
M  V30 8419 C 818.958 -0.180159 -1.94166 0
M  V30 8420 O 818.228 0.794291 -1.79075 0
M  V30 8421 H 816.808 -0.56097 -0.493276 0
M  V30 8422 H 819.47 -1.82998 -0.670642 0
M  V30 8423 H 818.566 -2.28089 -2.13031 0
M  V30 8424 N 818.867 0.818669 -1.34668 0
M  V30 8425 C 820.114 1.57512 -1.27264 0
M  V30 8426 C 820.442 1.93871 0.156254 0
M  V30 8427 O 819.697 1.60582 1.11857 0
M  V30 8428 C 819.996 2.88245 -2.11304 0
M  V30 8429 C 819.662 2.71159 -3.60255 0
M  V30 8430 C 818.324 2.66207 -4.00858 0
M  V30 8431 C 820.676 2.54538 -4.54819 0
M  V30 8432 C 818.004 2.4256 -5.34211 0
M  V30 8433 C 820.356 2.32421 -5.88356 0
M  V30 8434 C 819.02 2.25884 -6.28118 0
M  V30 8435 H 818.29 0.576378 -0.465692 0
M  V30 8436 H 820.937 0.9469 -1.66451 0
M  V30 8437 H 819.242 3.55381 -1.64958 0
M  V30 8438 H 820.939 3.45869 -2.02919 0
M  V30 8439 H 817.529 2.75856 -3.28027 0
M  V30 8440 H 821.713 2.57384 -4.24343 0
M  V30 8441 H 816.969 2.35959 -5.64033 0
M  V30 8442 H 821.143 2.18548 -6.61218 0
M  V30 8443 H 818.77 2.07322 -7.31383 0
M  V30 8444 N 820.346 1.18468 1.03938 0
M  V30 8445 C 821.279 0.856251 2.11527 0
M  V30 8446 C 822.257 -0.182323 1.61575 0
M  V30 8447 O 823.441 -0.061 1.88401 0
M  V30 8448 C 820.568 0.279562 3.37544 0
M  V30 8449 C 819.614 1.29552 4.06348 0
M  V30 8450 S 820.447 2.85191 4.5324 0
M  V30 8451 C 821.603 2.29037 5.82489 0
M  V30 8452 H 821.836 1.76742 2.39059 0
M  V30 8453 H 819.369 1.01068 1.16725 0
M  V30 8454 H 821.327 -0.0466579 4.10473 0
M  V30 8455 H 819.988 -0.60975 3.08125 0
M  V30 8456 H 819.181 0.840922 4.96935 0
M  V30 8457 H 818.783 1.56804 3.39541 0
M  V30 8458 H 821.075 1.67376 6.565 0
M  V30 8459 H 822.018 3.17929 6.32714 0
M  V30 8460 H 822.426 1.72009 5.37655 0
M  V30 8461 N 821.824 -1.22873 0.986916 0
M  V30 8462 C 823.101 -1.86939 0.575589 0
M  V30 8463 C 823.481 -1.88656 -0.947205 0
M  V30 8464 O 822.829 -1.3728 -1.82665 0
M  V30 8465 C 823.039 -3.28117 1.18914 0
M  V30 8466 C 824.387 -4.04659 1.28593 0
M  V30 8467 O 825.411 -3.3736 1.14308 0
M  V30 8468 O 824.27 -5.25112 1.51391 0
M  V30 8469 H 821.364 -0.803748 0.194724 0
M  V30 8470 H 823.91 -1.30698 1.08241 0
M  V30 8471 H 822.682 -3.21468 2.231 0
M  V30 8472 H 822.305 -3.91956 0.667535 0
M  V30 8473 N 823.302 -0.75937 -1.38099 0
M  V30 8474 C 824.249 -0.135508 -2.30402 0
M  V30 8475 C 825.219 0.703356 -1.50473 0
M  V30 8476 O 826.404 0.658287 -1.79084 0
M  V30 8477 C 823.544 0.747228 -3.36913 0
M  V30 8478 C 822.657 -0.106893 -4.31868 0
M  V30 8479 C 821.792 0.779388 -5.25451 0
M  V30 8480 C 820.831 -0.0780179 -6.1205 0
M  V30 8481 N 819.968 0.765545 -6.97914 0
M  V30 8482 H 824.808 -0.9282 -2.83176 0
M  V30 8483 H 822.345 -0.46935 -1.39411 0
M  V30 8484 H 824.303 1.27371 -3.97281 0
M  V30 8485 H 822.933 1.50565 -2.85535 0
M  V30 8486 H 821.985 -0.751063 -3.72912 0
M  V30 8487 H 823.297 -0.768798 -4.9284 0
M  V30 8488 H 822.451 1.37282 -5.90964 0
M  V30 8489 H 821.19 1.47501 -4.6486 0
M  V30 8490 H 820.195 -0.684078 -5.45528 0
M  V30 8491 H 821.42 -0.770786 -6.74712 0
M  V30 8492 H 819.366 1.44601 -6.39864 0
M  V30 8493 H 819.283 0.160666 -7.55829 0
M  V30 8494 H 820.551 1.34377 -7.6783 0
M  V30 8495 N 824.78 1.49157 -0.508906 0
M  V30 8496 C 825.71 2.32109 0.254469 0
M  V30 8497 C 826.691 1.40754 0.955111 0
M  V30 8498 O 827.876 1.69658 0.944983 0
M  V30 8499 C 825.006 3.21458 1.3146 0
M  V30 8500 C 823.96 4.2167 0.733368 0
M  V30 8501 C 823.286 5.00009 1.8946 0
M  V30 8502 C 824.586 5.21544 -0.280875 0
M  V30 8503 H 826.28 2.9618 -0.43795 0
M  V30 8504 H 823.826 1.4243 -0.212062 0
M  V30 8505 H 825.779 3.78305 1.85643 0
M  V30 8506 H 824.503 2.55346 2.03632 0
M  V30 8507 H 823.162 3.65979 0.213231 0
M  V30 8508 H 822.81 4.30338 2.60419 0
M  V30 8509 H 822.51 5.67821 1.51173 0
M  V30 8510 H 824.034 5.59702 2.44061 0
M  V30 8511 H 825.448 5.73039 0.173095 0
M  V30 8512 H 823.845 5.97291 -0.580006 0
M  V30 8513 H 824.915 4.69969 -1.19404 0
M  V30 8514 N 826.258 0.243083 1.55714 0
M  V30 8515 C 827.188 -0.652336 2.24203 0
M  V30 8516 C 828.169 -1.1843 1.221 0
M  V30 8517 O 829.354 -1.22435 1.50743 0
M  V30 8518 C 826.484 -1.85111 2.93856 0
M  V30 8519 C 825.438 -1.45208 4.02615 0
M  V30 8520 C 824.764 -2.73137 4.59674 0
M  V30 8521 C 826.064 -0.625988 5.18535 0
M  V30 8522 H 827.758 -0.0812504 2.9929 0
M  V30 8523 H 825.304 -0.0376388 1.43951 0
M  V30 8524 H 827.257 -2.48314 3.40468 0
M  V30 8525 H 825.981 -2.44751 2.16251 0
M  V30 8526 H 824.64 -0.843406 3.56766 0
M  V30 8527 H 824.288 -3.30967 3.78774 0
M  V30 8528 H 823.988 -2.47163 5.33089 0
M  V30 8529 H 825.512 -3.37245 5.09017 0
M  V30 8530 H 826.926 -1.16223 5.61396 0
M  V30 8531 H 825.323 -0.462465 5.98315 0
M  V30 8532 H 826.393 0.362652 4.83542 0
M  V30 8533 N 827.736 -1.57571 -0.0300757 0
M  V30 8534 C 829.147 -1.77567 -0.576802 0
M  V30 8535 C 829.498 -0.874034 -1.75656 0
M  V30 8536 O 828.623 -0.0686124 -2.16291 0
M  V30 8537 C 829.218 -3.22016 -1.05315 0
M  V30 8538 C 827.777 -3.43212 -1.5454 0
M  V30 8539 C 826.924 -2.73061 -0.483033 0
M  V30 8540 H 829.875 -1.57483 0.196151 0
M  V30 8541 H 829.896 -3.28474 -1.92055 0
M  V30 8542 H 829.408 -3.87613 -0.194298 0
M  V30 8543 H 827.509 -2.82788 -2.42615 0
M  V30 8544 H 827.622 -4.5182 -1.5936 0
M  V30 8545 H 825.986 -2.36805 -0.937835 0
M  V30 8546 H 826.769 -3.4134 0.366341 0
M  V30 8547 O 829.253 0.172939 -1.60571 0
M  V30 8548 H 829.944 0.809747 -1.75962 0
M  V30 END ATOM
M  V30 BEGIN BOND
M  V30 END BOND
M  V30 END CTAB
M  END
$$$$
