drugbank_target|Q7SIA5 Carboxylesterase (DB08717)
 OpenBabel12092120523D

  0  0  0     0  0            999 V3000
M  V30 BEGIN CTAB
M  V30 COUNTS 4998 5071 0 0 0
M  V30 BEGIN ATOM
M  V30 1 H -0.908 1.98254 -0.117106 0
M  V30 2 N 0 1.576 0 0
M  V30 3 C 0.963 2.07369 0.976253 0
M  V30 4 C 1.963 0.98309 1.27248 0
M  V30 5 O 3.153 1.24574 1.21766 0
M  V30 6 C 0.285 2.51514 2.30116 0
M  V30 7 H 1.478 2.94892 0.545759 0
M  V30 8 H -0.969 1.54328 0.247471 0
M  V30 9 H -0.234 1.67234 2.77855 0
M  V30 10 H -0.449 3.31163 2.09937 0
M  V30 11 H 1.041 2.90345 3.00149 0
M  V30 12 N 1.4781 -0.272755 1.55222 0
M  V30 13 C 2.8891 -0.84378 1.66545 0
M  V30 14 C 3.2401 -1.87035 0.592641 0
M  V30 15 O 2.3651 -2.14761 -0.265818 0
M  V30 16 C 2.9601 -1.53723 3.01918 0
M  V30 17 C 1.5191 -2.05628 3.15268 0
M  V30 18 C 0.6661 -0.898424 2.62343 0
M  V30 19 H 3.6171 -0.0490998 1.58624 0
M  V30 20 H 3.6381 -2.40421 2.94921 0
M  V30 21 H 3.1501 -0.78983 3.79978 0
M  V30 22 H 1.2511 -2.83329 2.41983 0
M  V30 23 H 1.3641 -2.27142 4.21833 0
M  V30 24 H -0.2719 -1.29186 2.19506 0
M  V30 25 H 0.5111 -0.164528 3.42906 0
M  V30 26 N 2.9562 -1.48159 -0.537278 0
M  V30 27 C 4.3672 -1.49429 -1.11928 0
M  V30 28 C 4.7182 -0.26 -1.9447 0
M  V30 29 O 3.8432 0.633489 -2.0692 0
M  V30 30 C 4.4382 -2.70758 -2.03656 0
M  V30 31 C 2.9972 -2.74923 -2.57088 0
M  V30 32 C 2.1442 -2.42835 -1.3389 0
M  V30 33 H 5.0952 -1.55381 -0.322886 0
M  V30 34 H 5.1162 -2.48861 -2.87834 0
M  V30 35 H 4.6282 -3.60575 -1.43553 0
M  V30 36 H 2.7292 -1.89296 -3.20933 0
M  V30 37 H 2.8422 -3.76157 -2.9672 0
M  V30 38 H 1.2062 -1.93836 -1.65226 0
M  V30 39 H 1.9892 -3.34884 -0.755504 0
M  V30 40 N 4.4343 0.785586 -1.36625 0
M  V30 41 C 5.8453 1.36101 -1.27803 0
M  V30 42 C 6.1963 1.96035 0.0804875 0
M  V30 43 O 5.3213 1.92834 0.982042 0
M  V30 44 C 5.9163 2.47442 -2.31426 0
M  V30 45 C 4.4753 3.00789 -2.26281 0
M  V30 46 C 3.6223 1.73896 -2.15999 0
M  V30 47 H 6.5733 0.586928 -1.47448 0
M  V30 48 H 6.5943 3.2656 -1.95291 0
M  V30 49 H 6.1063 2.03791 -3.30289 0
M  V30 50 H 4.2073 3.48851 -1.30896 0
M  V30 51 H 4.3203 3.57343 -3.19128 0
M  V30 52 H 2.6843 1.9628 -1.62316 0
M  V30 53 H 3.4673 1.32368 -3.16755 0
M  V30 54 N 5.9124 1.20967 1.01018 0
M  V30 55 C 7.1584 1.02526 1.74975 0
M  V30 56 C 7.4914 -0.4408 1.89131 0
M  V30 57 O 6.7664 -1.32718 1.42184 0
M  V30 58 C 7.0494 1.71699 3.1653 0
M  V30 59 C 6.9024 3.25791 3.10129 0
M  V30 60 C 8.2214 1.45531 4.15342 0
M  V30 61 H 5.3404 0.373863 0.635134 0
M  V30 62 H 7.9824 1.49071 1.17805 0
M  V30 63 H 6.1324 1.32128 3.65341 0
M  V30 64 H 7.8044 3.74697 2.69072 0
M  V30 65 H 6.0474 3.56363 2.47362 0
M  V30 66 H 6.7184 3.69353 4.10222 0
M  V30 67 H 9.1944 1.79872 3.75213 0
M  V30 68 H 8.0704 1.96453 5.1254 0
M  V30 69 H 8.3314 0.384237 4.40427 0
M  V30 70 N 7.3905 -1.2043 1.01659 0
M  V30 71 C 8.8015 -1.71517 0.737482 0
M  V30 72 C 9.1525 -1.81547 -0.743973 0
M  V30 73 O 8.2775 -1.47803 -1.58061 0
M  V30 74 C 8.8725 -3.11515 1.33206 0
M  V30 75 C 7.4315 -3.59912 1.10183 0
M  V30 76 C 6.5785 -2.37116 1.43776 0
M  V30 77 H 9.5295 -1.05444 1.18606 0
M  V30 78 H 9.5505 -3.73575 0.722636 0
M  V30 79 H 9.0625 -3.04182 2.41028 0
M  V30 80 H 7.1635 -3.72577 0.0412756 0
M  V30 81 H 7.2765 -4.44731 1.78188 0
M  V30 82 H 5.6405 -2.39857 0.856778 0
M  V30 83 H 6.4235 -2.32424 2.52654 0
M  V30 84 N 8.8686 -0.792821 -1.36206 0
M  V30 85 C 9.8156 -0.191653 -2.30003 0
M  V30 86 C 10.7856 0.666453 -1.52143 0
M  V30 87 O 11.9706 0.61442 -1.80636 0
M  V30 88 C 9.1106 0.664848 -3.38635 0
M  V30 89 C 8.2236 -0.212175 -4.31479 0
M  V30 90 C 7.3586 0.651022 -5.27196 0
M  V30 91 C 6.3976 -0.227247 -6.11678 0
M  V30 92 N 5.5346 0.595127 -6.99573 0
M  V30 93 H 10.3746 -0.996978 -2.80828 0
M  V30 94 H 7.9116 -0.503206 -1.38225 0
M  V30 95 H 9.8696 1.17645 -4.00269 0
M  V30 96 H 8.4996 1.43557 -2.89122 0
M  V30 97 H 7.5516 -0.841777 -3.70969 0
M  V30 98 H 8.8636 -0.888751 -4.90818 0
M  V30 99 H 8.0176 1.2283 -5.94136 0
M  V30 100 H 6.7566 1.36121 -4.68319 0
M  V30 101 H 5.7616 -0.816904 -5.43697 0
M  V30 102 H 6.9866 -0.93509 -6.72631 0
M  V30 103 H 4.9326 1.28955 -6.432 0
M  V30 104 H 4.8496 -0.0236952 -7.55996 0
M  V30 105 H 6.1176 1.15613 -7.70879 0
M  V30 106 N 10.3467 1.47872 -0.545128 0
M  V30 107 C 11.5747 2.06889 -0.021084 0
M  V30 108 C 11.9897 1.39955 1.2672 0
M  V30 109 O 11.3467 0.492036 1.75742 0
M  V30 110 C 11.3977 3.60996 0.190817 0
M  V30 111 O 11.1187 4.25419 -1.04644 0
M  V30 112 C 12.6197 4.36849 0.753521 0
M  V30 113 H 9.8397 0.669785 -0.0403635 0
M  V30 114 H 12.3837 1.90049 -0.755095 0
M  V30 115 H 10.5387 3.77391 0.87492 0
M  V30 116 H 10.9527 5.17785 -0.836611 0
M  V30 117 H 12.4267 5.45399 0.851139 0
M  V30 118 H 12.9037 4.02306 1.762 0
M  V30 119 H 13.5097 4.25169 0.105503 0
M  V30 120 N 11.8248 0.280983 1.55075 0
M  V30 121 C 13.2358 -0.215629 1.85451 0
M  V30 122 C 13.5868 -1.54991 1.203 0
M  V30 123 O 12.7118 -2.10699 0.493435 0
M  V30 124 C 13.3068 -0.398026 3.36454 0
M  V30 125 C 11.8658 -0.838866 3.66933 0
M  V30 126 C 11.0128 0.064458 2.77225 0
M  V30 127 H 13.9638 0.502601 1.50531 0
M  V30 128 H 13.9848 -1.23569 3.59876 0
M  V30 129 H 13.4968 0.573241 3.83843 0
M  V30 130 H 11.5978 -1.8214 3.25048 0
M  V30 131 H 11.7108 -0.672123 4.74362 0
M  V30 132 H 10.0748 -0.452863 2.50642 0
M  V30 133 H 10.8578 1.03172 3.2743 0
M  V30 134 N 13.3029 -1.57598 0.00835791 0
M  V30 135 C 14.2659 -2.07884 -0.965242 0
M  V30 136 C 15.2659 -0.989825 -1.26725 0
M  V30 137 O 16.4559 -1.25218 -1.21104 0
M  V30 138 C 13.5879 -2.52731 -2.28779 0
M  V30 139 H 14.7809 -2.95178 -0.530112 0
M  V30 140 H 12.3339 -1.54458 -0.239283 0
M  V30 141 H 13.0689 -1.68705 -2.76964 0
M  V30 142 H 12.8539 -3.32272 -2.08177 0
M  V30 143 H 14.3439 -2.91933 -2.98605 0
M  V30 144 N 14.781 0.264519 -1.55364 0
M  V30 145 C 16.029 0.993021 -1.76021 0
M  V30 146 C 16.35 1.86511 -0.569099 0
M  V30 147 O 15.62 1.91438 0.415735 0
M  V30 148 H 14.2 0.369639 -0.649135 0
M  V30 149 H 16.862 0.286707 -1.9278 0
M  V30 150 H 15.958 1.62502 -2.66457 0
M  V30 151 N 16.2591 1.48442 0.529413 0
M  V30 152 C 17.6701 1.5002 1.11134 0
M  V30 153 C 18.0211 0.27031 1.94329 0
M  V30 154 O 17.1461 -0.622507 2.07253 0
M  V30 155 C 17.7411 2.71834 2.02217 0
M  V30 156 C 16.3001 2.76283 2.55627 0
M  V30 157 C 15.4471 2.43542 1.326 0
M  V30 158 H 18.3981 1.5555 0.314641 0
M  V30 159 H 18.4191 2.50384 2.8651 0
M  V30 160 H 17.9311 3.61331 1.41639 0
M  V30 161 H 16.0321 1.90995 3.19924 0
M  V30 162 H 16.1451 3.77725 2.94721 0
M  V30 163 H 14.5091 1.94709 1.64196 0
M  V30 164 H 15.2921 3.3528 0.737734 0
M  V30 165 N 17.7372 -0.778329 1.37039 0
M  V30 166 C 18.6672 -1.90546 1.34962 0
M  V30 167 C 19.6482 -1.68681 0.219274 0
M  V30 168 O 20.8332 -1.89634 0.418624 0
M  V30 169 C 17.9632 -3.27734 1.14925 0
M  V30 170 C 16.9172 -3.64147 2.24902 0
M  V30 171 C 16.2432 -4.99806 1.89996 0
M  V30 172 C 17.5432 -3.71579 3.67051 0
M  V30 173 H 19.2372 -1.92541 2.29277 0
M  V30 174 H 16.7832 -0.924948 1.10366 0
M  V30 175 H 18.7362 -4.06215 1.12104 0
M  V30 176 H 17.4602 -3.26154 0.170631 0
M  V30 177 H 16.1192 -2.8797 2.26868 0
M  V30 178 H 15.7672 -4.94759 0.906796 0
M  V30 179 H 15.4672 -5.25139 2.63634 0
M  V30 180 H 16.9912 -5.80694 1.88749 0
M  V30 181 H 18.4052 -4.40227 3.67251 0
M  V30 182 H 16.8022 -4.08405 4.39688 0
M  V30 183 H 17.8722 -2.72404 4.01154 0
M  V30 184 N 19.2153 -1.21501 -1.00376 0
M  V30 185 C 20.4433 -1.059 -1.77744 0
M  V30 186 C 20.8583 0.391125 -1.84704 0
M  V30 187 O 20.2153 1.27133 -1.30933 0
M  V30 188 C 20.2663 -1.65111 -3.21591 0
M  V30 189 O 19.9873 -3.0445 -3.15027 0
M  V30 190 C 21.4883 -1.54637 -4.15454 0
M  V30 191 H 18.7083 -0.371825 -0.558558 0
M  V30 192 H 21.2523 -1.60865 -1.26264 0
M  V30 193 H 19.4073 -1.14235 -3.70175 0
M  V30 194 H 19.8213 -3.3278 -4.0541 0
M  V30 195 H 21.2953 -2.00808 -5.14179 0
M  V30 196 H 21.7723 -0.501022 -4.36333 0
M  V30 197 H 22.3783 -2.04767 -3.72761 0
M  V30 198 N 20.6934 1.19889 -1.02296 0
M  V30 199 C 21.6234 2.25141 -0.619174 0
M  V30 200 C 22.6044 1.66051 0.368915 0
M  V30 201 O 23.7894 1.92546 0.252941 0
M  V30 202 C 20.9194 3.4728 0.0368783 0
M  V30 203 C 19.8734 4.19005 -0.872865 0
M  V30 204 C 19.1994 5.34637 -0.0822402 0
M  V30 205 C 20.4994 4.74452 -2.18387 0
M  V30 206 H 22.1934 2.59171 -1.49903 0
M  V30 207 H 19.7394 1.24579 -0.722222 0
M  V30 208 H 21.6924 4.20098 0.330958 0
M  V30 209 H 20.4164 3.12433 0.95149 0
M  V30 210 H 19.0754 3.48061 -1.15105 0
M  V30 211 H 18.7234 4.96034 0.83422 0
M  V30 212 H 18.4234 5.83557 -0.688149 0
M  V30 213 H 19.9474 6.10255 0.205238 0
M  V30 214 H 21.3614 5.39055 -1.95172 0
M  V30 215 H 19.7584 5.33834 -2.74119 0
M  V30 216 H 20.8284 3.92844 -2.84257 0
M  V30 217 N 22.1715 0.800033 1.35784 0
M  V30 218 C 23.3965 0.388511 2.03729 0
M  V30 219 C 23.8215 -0.990481 1.5991 0
M  V30 220 O 23.1795 -1.64013 0.772612 0
M  V30 221 C 23.2275 0.4726 3.5749 0
M  V30 222 O 22.3315 -0.51646 4.09153 0
M  V30 223 H 21.6725 0.163271 0.643614 0
M  V30 224 H 24.2025 1.0841 1.73518 0
M  V30 225 H 24.2125 0.34003 4.06581 0
M  V30 226 H 22.8875 1.47848 3.88734 0
M  V30 227 H 21.4645 -0.344673 3.71304 0
M  V30 228 N 23.6496 -1.47581 0.552962 0
M  V30 229 C 24.8976 -2.02082 0.0272703 0
M  V30 230 C 25.2186 -1.4301 -1.32563 0
M  V30 231 O 24.4886 -0.603745 -1.86365 0
M  V30 232 H 23.0686 -0.746966 0.00709182 0
M  V30 233 H 25.7306 -1.81033 0.722008 0
M  V30 234 H 24.8266 -3.12034 -0.0639951 0
M  V30 235 N 25.1277 -0.289203 -1.54924 0
M  V30 236 C 26.0597 0.625583 -2.20497 0
M  V30 237 C 27.0727 1.10667 -1.19402 0
M  V30 238 O 28.2617 1.02615 -1.46056 0
M  V30 239 C 25.3617 1.86702 -2.82835 0
M  V30 240 C 24.5347 1.5304 -4.09753 0
M  V30 241 C 23.5937 2.62576 -4.56005 0
M  V30 242 O 22.6197 2.28167 -5.21468 0
M  V30 243 N 23.8217 3.92901 -4.27328 0
M  V30 244 H 26.5867 0.0642801 -2.99631 0
M  V30 245 H 24.1477 -0.110896 -1.6152 0
M  V30 246 H 26.1397 2.59304 -3.10715 0
M  V30 247 H 24.7097 2.33702 -2.07611 0
M  V30 248 H 23.9297 0.637564 -3.8901 0
M  V30 249 H 25.2177 1.28072 -4.92418 0
M  V30 250 H 24.6157 4.23671 -3.74859 0
M  V30 251 H 23.1727 4.61837 -4.59946 0
M  V30 252 N 26.6058 1.57591 -0.0167156 0
M  V30 253 C 27.8538 1.90906 0.663285 0
M  V30 254 C 28.1748 0.892509 1.73376 0
M  V30 255 O 27.4448 -0.0677623 1.95783 0
M  V30 256 H 26.0248 0.704637 0.247983 0
M  V30 257 H 28.6868 1.94803 -0.0615909 0
M  V30 258 H 27.7828 2.9116 1.12393 0
M  V30 259 N 28.0839 -0.256276 1.55502 0
M  V30 260 C 29.3089 -1.00766 1.81276 0
M  V30 261 C 29.7339 -1.78524 0.59252 0
M  V30 262 O 29.0919 -1.75413 -0.45827 0
M  V30 263 C 29.1399 -1.92869 3.04687 0
M  V30 264 O 28.2439 -3.019 2.80945 0
M  V30 265 H 27.5849 -0.287224 0.598664 0
M  V30 266 H 30.1149 -0.280109 2.02674 0
M  V30 267 H 30.1249 -2.34511 3.33869 0
M  V30 268 H 28.7999 -1.35689 3.93143 0
M  V30 269 H 27.3769 -2.64454 2.62904 0
M  V30 270 N 29.562 -1.4872 -0.521534 0
M  V30 271 C 30.809 -1.57168 -1.27689 0
M  V30 272 C 31.137 -0.249275 -1.92896 0
M  V30 273 O 30.392 0.761162 -1.80291 0
M  V30 274 C 30.691 -2.66497 -2.38148 0
M  V30 275 C 30.357 -4.08664 -1.90538 0
M  V30 276 C 29.019 -4.47357 -1.77271 0
M  V30 277 C 31.371 -4.97724 -1.54663 0
M  V30 278 C 28.699 -5.72905 -1.26478 0
M  V30 279 C 31.051 -6.2377 -1.05329 0
M  V30 280 C 29.715 -6.61311 -0.906861 0
M  V30 281 H 28.985 -0.575117 -0.467249 0
M  V30 282 H 31.632 -1.82472 -0.581051 0
M  V30 283 H 29.937 -2.35085 -3.13437 0
M  V30 284 H 31.634 -2.70246 -2.96257 0
M  V30 285 H 28.224 -3.78111 -2.01816 0
M  V30 286 H 32.408 -4.68501 -1.63768 0
M  V30 287 H 27.664 -6.00709 -1.13835 0
M  V30 288 H 31.838 -6.9217 -0.76644 0
M  V30 289 H 29.465 -7.5848 -0.511083 0
M  V30 290 N 31.0401 0.771051 -1.3745 0
M  V30 291 C 32.2871 1.52963 -1.32697 0
M  V30 292 C 32.6151 1.94299 0.0883274 0
M  V30 293 O 31.8701 1.64397 1.0617 0
M  V30 294 C 32.1691 2.80676 -2.2126 0
M  V30 295 C 31.8351 2.58389 -3.69521 0
M  V30 296 C 30.4971 2.52019 -4.09927 0
M  V30 297 C 32.8491 2.38469 -4.63446 0
M  V30 298 C 30.1771 2.23721 -5.42371 0
M  V30 299 C 32.5291 2.11694 -5.96128 0
M  V30 300 C 31.1931 2.03769 -6.35637 0
M  V30 301 H 30.4631 0.559732 -0.485573 0
M  V30 302 H 33.1101 0.888083 -1.69662 0
M  V30 303 H 31.4151 3.49392 -1.77291 0
M  V30 304 H 33.1121 3.38557 -2.14895 0
M  V30 305 H 29.7021 2.6421 -3.37478 0
M  V30 306 H 33.8861 2.4238 -4.33089 0
M  V30 307 H 29.1421 2.16081 -5.71943 0
M  V30 308 H 33.3161 1.9528 -6.6846 0
M  V30 309 H 30.9431 1.81606 -7.38189 0
M  V30 310 N 32.5182 1.22032 0.997298 0
M  V30 311 C 33.7642 1.04376 1.73878 0
M  V30 312 C 34.0972 -0.420716 1.89588 0
M  V30 313 O 33.3722 -1.31202 1.43583 0
M  V30 314 C 33.6552 1.75047 3.14691 0
M  V30 315 C 33.5082 3.29062 3.06656 0
M  V30 316 C 34.8272 1.49928 4.13775 0
M  V30 317 H 31.9462 0.380578 0.631133 0
M  V30 318 H 34.5882 1.50312 1.16217 0
M  V30 319 H 32.7382 1.35996 3.63919 0
M  V30 320 H 34.4102 3.7753 2.65083 0
M  V30 321 H 32.6532 3.58967 2.43568 0
M  V30 322 H 33.3242 3.73683 4.06282 0
M  V30 323 H 35.8002 1.83842 3.73285 0
M  V30 324 H 34.6762 2.01878 5.10428 0
M  V30 325 H 34.9372 0.430929 4.39995 0
M  V30 326 N 33.9963 -1.19345 1.0293 0
M  V30 327 C 35.2443 -1.88665 0.724574 0
M  V30 328 C 35.5653 -1.80036 -0.749144 0
M  V30 329 O 34.8353 -1.2111 -1.53978 0
M  V30 330 H 33.4153 -0.698406 0.265025 0
M  V30 331 H 36.0773 -1.44885 1.30362 0
M  V30 332 H 35.1733 -2.94987 1.01926 0
M  V30 333 N 35.4744 -0.807222 -1.35358 0
M  V30 334 C 36.7224 -0.387122 -1.98358 0
M  V30 335 C 37.0434 1.04942 -1.64354 0
M  V30 336 O 36.3134 1.72615 -0.926339 0
M  V30 337 H 34.8934 -0.140154 -0.733734 0
M  V30 338 H 37.5554 -1.0332 -1.6526 0
M  V30 339 H 36.6514 -0.493352 -3.08176 0
M  V30 340 N 36.9525 1.47285 -0.560781 0
M  V30 341 C 38.3685 1.58065 -0.22081 0
M  V30 342 C 38.5685 1.55892 1.27671 0
M  V30 343 O 37.6245 1.46422 2.0571 0
M  V30 344 C 38.9375 2.88418 -0.850625 0
M  V30 345 C 40.4855 3.02009 -0.822184 0
M  V30 346 C 40.9605 4.35066 -1.43113 0
M  V30 347 N 42.4515 4.41711 -1.39448 0
M  V30 348 C 43.1865 5.43237 -1.83525 0
M  V30 349 N 42.6825 6.51555 -2.35474 0
M  V30 350 N 44.4755 5.34304 -1.74574 0
M  V30 351 H 36.6265 1.46941 -1.53369 0
M  V30 352 H 38.8895 0.699558 -0.639783 0
M  V30 353 H 38.5955 2.95755 -1.9032 0
M  V30 354 H 38.4695 3.75612 -0.345773 0
M  V30 355 H 40.8565 2.94266 0.221714 0
M  V30 356 H 40.9375 2.16347 -1.36483 0
M  V30 357 H 40.5815 4.43565 -2.47412 0
M  V30 358 H 40.5115 5.19465 -0.863899 0
M  V30 359 H 43.0025 3.64027 -1.01452 0
M  V30 360 H 43.3155 7.25203 -2.67021 0
M  V30 361 H 41.6605 6.52435 -2.39487 0
M  V30 362 H 44.8515 4.48581 -1.33763 0
M  V30 363 H 45.0245 6.13288 -2.09242 0
M  V30 364 N 38.4306 0.297415 1.54768 0
M  V30 365 C 39.7076 -0.365847 1.92148 0
M  V30 366 C 40.0876 -1.71975 1.22424 0
M  V30 367 O 39.4356 -2.25666 0.358739 0
M  V30 368 C 39.6456 -0.484056 3.45627 0
M  V30 369 C 40.9936 -0.756594 4.17805 0
M  V30 370 O 42.0176 -0.568007 3.51642 0
M  V30 371 O 40.8766 -1.11863 5.34929 0
M  V30 372 H 37.9706 -0.203919 0.801465 0
M  V30 373 H 40.5166 0.34521 1.66152 0
M  V30 374 H 39.2886 0.467865 3.88493 0
M  V30 375 H 38.9116 -1.24372 3.77647 0
M  V30 376 N 39.9087 -1.5758 0.0250728 0
M  V30 377 C 41.1547 -1.91917 -0.655413 0
M  V30 378 C 41.4877 -0.901433 -1.72011 0
M  V30 379 O 40.7627 0.0764069 -1.9435 0
M  V30 380 C 41.0457 -3.36751 -1.27558 0
M  V30 381 C 40.8987 -4.49258 -0.220719 0
M  V30 382 C 42.2177 -3.81469 -2.19475 0
M  V30 383 H 39.3367 -0.697925 -0.23679 0
M  V30 384 H 41.9787 -1.89825 0.0815036 0
M  V30 385 H 40.1287 -3.38664 -1.90365 0
M  V30 386 H 41.8007 -4.59478 0.409601 0
M  V30 387 H 40.0437 -4.31415 0.454264 0
M  V30 388 H 40.7147 -5.47618 -0.694175 0
M  V30 389 H 43.1907 -3.81266 -1.66659 0
M  V30 390 H 42.0667 -4.83512 -2.59822 0
M  V30 391 H 42.3277 -3.16744 -3.08424 0
M  V30 392 N 41.3868 0.248026 -1.55636 0
M  V30 393 C 42.6148 0.993808 -1.81469 0
M  V30 394 C 43.0298 1.78991 -0.60064 0
M  V30 395 O 42.3868 1.77345 0.430682 0
M  V30 396 C 42.4378 1.93258 -3.05506 0
M  V30 397 O 42.1588 1.16869 -4.22224 0
M  V30 398 C 43.6598 2.79444 -3.4413 0
M  V30 399 H 40.8798 0.292486 -0.603898 0
M  V30 400 H 43.4238 0.271253 -2.02693 0
M  V30 401 H 41.5788 2.60943 -2.86335 0
M  V30 402 H 41.9928 1.80359 -4.92515 0
M  V30 403 H 43.4668 3.41066 -4.34026 0
M  V30 404 H 43.9438 3.50499 -2.64665 0
M  V30 405 H 44.5498 2.17214 -3.65648 0
M  V30 406 N 42.8649 1.48995 0.513639 0
M  V30 407 C 44.0899 1.61792 1.29762 0
M  V30 408 C 44.5149 0.284475 1.85936 0
M  V30 409 O 43.8729 -0.746185 1.65232 0
M  V30 410 C 43.9209 2.67993 2.41272 0
M  V30 411 O 43.0249 2.26287 3.44772 0
M  V30 412 H 42.3659 0.541963 0.38363 0
M  V30 413 H 44.8959 1.95097 0.616307 0
M  V30 414 H 44.9059 2.89772 2.87221 0
M  V30 415 H 43.5809 3.64791 1.9975 0
M  V30 416 H 42.1579 2.14788 3.04829 0
M  V30 417 N 44.343 -0.763751 1.37857 0
M  V30 418 C 45.253 -1.90817 1.36478 0
M  V30 419 C 46.269 -1.71997 0.263248 0
M  V30 420 O 47.445 -1.95095 0.499979 0
M  V30 421 C 44.51 -3.2605 1.17864 0
M  V30 422 C 43.571 -3.57467 2.3773 0
M  V30 423 C 42.804 -4.86249 2.19995 0
M  V30 424 O 43.027 -5.57884 1.18836 0
M  V30 425 O 41.961 -5.16911 3.08361 0
M  V30 426 H 45.787 -1.94933 2.32884 0
M  V30 427 H 43.372 -0.907619 1.1867 0
M  V30 428 H 45.254 -4.06924 1.09504 0
M  V30 429 H 43.929 -3.22769 0.245372 0
M  V30 430 H 42.836 -2.76796 2.51664 0
M  V30 431 H 44.169 -3.655 3.29652 0
M  V30 432 N 45.8211 -1.22559 -0.990812 0
M  V30 433 C 47.0491 -1.07779 -1.76611 0
M  V30 434 C 47.4641 0.371513 -1.85109 0
M  V30 435 O 46.8211 1.25737 -1.32274 0
M  V30 436 C 46.8721 -1.68512 -3.19822 0
M  V30 437 O 46.5931 -3.07774 -3.1178 0
M  V30 438 C 48.0941 -1.59035 -4.13791 0
M  V30 439 H 45.3141 -0.377729 -0.554583 0
M  V30 440 H 47.8581 -1.62195 -1.24551 0
M  V30 441 H 46.0131 -1.18154 -3.68942 0
M  V30 442 H 46.4271 -3.37062 -4.01858 0
M  V30 443 H 47.9011 -2.0625 -5.1202 0
M  V30 444 H 48.3781 -0.547273 -4.35777 0
M  V30 445 H 48.9841 -2.08709 -3.70568 0
M  V30 446 N 47.2992 1.18797 -1.03562 0
M  V30 447 C 48.2292 2.24472 -0.643019 0
M  V30 448 C 49.2102 1.66433 0.351283 0
M  V30 449 O 50.3952 1.92803 0.232505 0
M  V30 450 C 47.5252 3.473 4.24935e-05 0
M  V30 451 C 46.4792 4.18055 -0.917257 0
M  V30 452 C 45.8052 5.34519 -0.138941 0
M  V30 453 C 47.1052 4.72109 -2.23407 0
M  V30 454 H 48.7992 2.57566 -1.52643 0
M  V30 455 H 46.3452 1.23806 -0.735394 0
M  V30 456 H 48.2982 4.20426 0.286383 0
M  V30 457 H 47.0222 3.13424 0.918299 0
M  V30 458 H 45.6812 3.46821 -1.1879 0
M  V30 459 H 45.3292 4.96891 0.781562 0
M  V30 460 H 45.0292 5.82794 -0.750005 0
M  V30 461 H 46.5532 6.10438 0.1405 0
M  V30 462 H 47.9672 5.36955 -2.00879 0
M  V30 463 H 46.3642 5.30897 -2.79765 0
M  V30 464 H 47.4342 3.89807 -2.88407 0
M  V30 465 N 48.7773 0.814389 1.34928 0
M  V30 466 C 50.0023 0.410097 2.03305 0
M  V30 467 C 50.4273 -0.973464 1.60951 0
M  V30 468 O 49.7853 -1.63185 0.789964 0
M  V30 469 C 49.8333 0.51049 3.56968 0
M  V30 470 O 48.9373 -0.473035 4.09678 0
M  V30 471 H 48.2783 0.170088 0.641846 0
M  V30 472 H 50.8083 1.10244 1.72358 0
M  V30 473 H 50.8183 0.383135 4.06197 0
M  V30 474 H 49.4933 1.51963 3.87144 0
M  V30 475 H 48.0703 -0.305272 3.71648 0
M  V30 476 N 50.2554 -1.46986 0.568584 0
M  V30 477 C 51.1854 -2.32946 -0.160753 0
M  V30 478 C 52.1664 -1.44487 -0.897631 0
M  V30 479 O 53.3514 -1.73327 -0.875867 0
M  V30 480 C 50.4814 -3.26494 -1.18403 0
M  V30 481 C 49.4354 -4.24282 -0.562895 0
M  V30 482 C 48.7614 -5.07236 -1.69163 0
M  V30 483 C 50.0614 -5.19989 0.490761 0
M  V30 484 H 51.7554 -2.94175 0.556916 0
M  V30 485 H 49.3014 -1.4146 0.26927 0
M  V30 486 H 51.2544 -3.85477 -1.70251 0
M  V30 487 H 49.9784 -2.63343 -1.93179 0
M  V30 488 H 48.6374 -3.66541 -0.0656164 0
M  V30 489 H 48.2854 -4.4048 -2.42871 0
M  V30 490 H 47.9854 -5.7345 -1.28174 0
M  V30 491 H 49.5094 -5.6908 -2.21314 0
M  V30 492 H 50.9234 -5.73271 0.0579047 0
M  V30 493 H 49.3204 -5.94469 0.820165 0
M  V30 494 H 50.3904 -4.64777 1.3824 0
M  V30 495 N 51.7335 -0.305618 -1.54608 0
M  V30 496 C 52.9585 0.307562 -2.05107 0
M  V30 497 C 53.3835 1.46385 -1.18123 0
M  V30 498 O 52.7415 1.8034 -0.186324 0
M  V30 499 C 52.7895 0.73704 -3.52987 0
M  V30 500 O 51.8935 1.84134 -3.6901 0
M  V30 501 H 51.2345 0.0589143 -0.661381 0
M  V30 502 H 53.7645 -0.448807 -1.99617 0
M  V30 503 H 53.7745 1.02459 -3.94925 0
M  V30 504 H 52.4495 -0.108773 -4.15758 0
M  V30 505 H 51.0265 1.55398 -3.38978 0
M  V30 506 N 53.2116 1.57565 -0.0334293 0
M  V30 507 C 54.6226 1.79746 0.504798 0
M  V30 508 C 54.9736 0.944091 1.71992 0
M  V30 509 O 54.0986 0.155694 2.15839 0
M  V30 510 C 54.6936 3.25997 0.922567 0
M  V30 511 C 53.2526 3.49159 1.40588 0
M  V30 512 C 52.3996 2.74785 0.372633 0
M  V30 513 H 55.3506 1.56565 -0.259436 0
M  V30 514 H 55.3716 3.35945 1.78666 0
M  V30 515 H 54.8836 3.88081 0.0379825 0
M  V30 516 H 52.9846 2.92332 2.31025 0
M  V30 517 H 53.0976 4.57873 1.41028 0
M  V30 518 H 51.4616 2.40391 0.841672 0
M  V30 519 H 52.2446 3.39587 -0.503559 0
M  V30 520 N 54.6897 -0.239769 1.55765 0
M  V30 521 C 55.6367 -1.29696 1.90913 0
M  V30 522 C 56.6067 -1.47478 0.764164 0
M  V30 523 O 57.7917 -1.61345 1.01845 0
M  V30 524 C 54.9317 -2.64598 2.21544 0
M  V30 525 C 54.0447 -2.54765 3.48882 0
M  V30 526 C 53.1797 -3.82069 3.69049 0
M  V30 527 C 52.2187 -3.66883 4.89963 0
M  V30 528 N 51.3557 -4.86094 5.06614 0
M  V30 529 H 56.1957 -0.990224 2.81067 0
M  V30 530 H 53.7327 -0.477684 1.39128 0
M  V30 531 H 55.6907 -3.43132 2.3731 0
M  V30 532 H 54.3207 -2.93405 1.34585 0
M  V30 533 H 53.3727 -1.67763 3.41409 0
M  V30 534 H 54.6847 -2.39457 4.37563 0
M  V30 535 H 53.8387 -4.69046 3.84812 0
M  V30 536 H 52.5777 -4.00282 2.78614 0
M  V30 537 H 51.5827 -2.78289 4.74168 0
M  V30 538 H 52.8077 -3.50157 5.81865 0
M  V30 539 H 50.7537 -5.04655 4.19117 0
M  V30 540 H 50.6707 -4.73443 5.89396 0
M  V30 541 H 51.9387 -5.74549 5.26795 0
M  V30 542 N 56.1678 -1.49265 -0.50573 0
M  V30 543 C 57.3978 -1.61979 -1.28243 0
M  V30 544 C 57.8058 -0.288576 -1.86986 0
M  V30 545 O 57.1488 0.735408 -1.68337 0
M  V30 546 C 57.2108 -2.62632 -2.45489 0
M  V30 547 C 56.8748 -4.071 -2.07651 0
M  V30 548 C 57.8718 -4.94049 -1.61901 0
M  V30 549 C 55.5568 -4.52801 -2.17431 0
M  V30 550 C 57.5508 -6.24736 -1.26428 0
M  V30 551 C 55.2378 -5.83503 -1.8157 0
M  V30 552 C 56.2358 -6.69294 -1.36142 0
M  V30 553 O 55.9238 -7.9756 -1.00764 0
M  V30 554 H 55.6558 -0.54834 -0.395347 0
M  V30 555 H 58.2098 -1.96002 -0.614204 0
M  V30 556 H 56.4398 -2.2378 -3.15372 0
M  V30 557 H 58.1288 -2.64925 -3.07522 0
M  V30 558 H 58.8948 -4.5997 -1.53795 0
M  V30 559 H 54.7738 -3.86196 -2.51742 0
M  V30 560 H 58.3178 -6.91652 -0.908992 0
M  V30 561 H 54.2148 -6.17112 -1.89324 0
M  V30 562 H 54.9828 -8.10529 -1.13952 0
M  V30 563 N 57.6459 0.756429 -1.3826 0
M  V30 564 C 58.9229 1.50584 -1.24835 0
M  V30 565 C 59.3029 2.10556 0.151485 0
M  V30 566 O 58.6509 1.96825 1.1607 0
M  V30 567 C 58.8609 2.57448 -2.3563 0
M  V30 568 C 60.2089 3.24429 -2.73917 0
M  V30 569 O 61.2329 2.67751 -2.34921 0
M  V30 570 O 60.0919 4.26937 -3.41156 0
M  V30 571 H 57.1859 0.667664 -0.48801 0
M  V30 572 H 59.7319 0.792083 -1.5008 0
M  V30 573 H 58.5039 2.11362 -3.29305 0
M  V30 574 H 58.1269 3.36408 -2.11933 0
M  V30 575 N 59.124 1.23083 0.984299 0
M  V30 576 C 60.087 1.00979 2.05757 0
M  V30 577 C 61.087 -0.0269573 1.60777 0
M  V30 578 O 62.277 0.212403 1.729 0
M  V30 579 C 59.409 0.527072 3.36801 0
M  V30 580 H 60.602 1.9622 2.26799 0
M  V30 581 H 58.155 1.05072 1.15714 0
M  V30 582 H 58.89 -0.429294 3.21446 0
M  V30 583 H 58.675 1.27515 3.70786 0
M  V30 584 H 60.165 0.392942 4.15747 0
M  V30 585 N 60.6021 -1.18246 1.0419 0
M  V30 586 C 61.5521 -2.19843 0.604392 0
M  V30 587 C 62.5361 -1.56962 -0.353814 0
M  V30 588 O 63.7281 -1.76156 -0.17267 0
M  V30 589 C 60.8571 -3.43287 -0.0298975 0
M  V30 590 C 59.9431 -4.13288 0.951531 0
M  V30 591 N 60.3341 -4.59271 2.11906 0
M  V30 592 C 58.6321 -4.39165 0.7778 0
M  V30 593 C 59.3331 -5.13173 2.73912 0
M  V30 594 N 58.3091 -5.04763 2.01779 0
M  V30 595 H 62.1111 -2.53089 1.4941 0
M  V30 596 H 59.6251 -1.34465 0.910658 0
M  V30 597 H 61.6221 -4.15334 -0.361037 0
M  V30 598 H 60.2821 -3.11537 -0.915127 0
M  V30 599 H 61.2931 -4.5368 2.49789 0
M  V30 600 H 57.9701 -4.17461 -0.0572331 0
M  V30 601 H 59.3601 -5.58947 3.72864 0
M  V30 602 N 62.0802 -0.821533 -1.34494 0
M  V30 603 C 63.3282 -0.408139 -1.97936 0
M  V30 604 C 63.6492 1.03193 -1.65457 0
M  V30 605 O 62.9192 1.71622 -0.944595 0
M  V30 606 H 61.4992 -0.147928 -0.732206 0
M  V30 607 H 64.1612 -1.05067 -1.64155 0
M  V30 608 H 63.2572 -0.52601 -3.07635 0
M  V30 609 N 63.5583 1.46682 -0.576371 0
M  V30 610 C 64.7863 2.06798 -0.0649635 0
M  V30 611 C 65.2013 1.42612 1.23723 0
M  V30 612 O 64.5583 0.529203 1.74659 0
M  V30 613 C 64.6093 3.6132 0.114202 0
M  V30 614 O 64.3303 4.23104 -1.13644 0
M  V30 615 C 65.8313 4.38349 0.66069 0
M  V30 616 H 63.0513 0.668778 -0.0545616 0
M  V30 617 H 65.5953 1.88404 -0.795237 0
M  V30 618 H 63.7503 3.79162 0.794673 0
M  V30 619 H 64.1643 5.15894 -0.946253 0
M  V30 620 H 65.6383 5.47081 0.73526 0
M  V30 621 H 66.1153 4.05953 1.67627 0
M  V30 622 H 66.7213 4.25297 0.0152951 0
M  V30 623 N 65.0364 0.313813 1.54444 0
M  V30 624 C 66.2824 -0.292108 2.00685 0
M  V30 625 C 66.6154 -1.52548 1.20177 0
M  V30 626 O 65.8904 -1.92452 0.281531 0
M  V30 627 C 66.1734 -0.635968 3.5444 0
M  V30 628 C 66.0264 0.607437 4.4568 0
M  V30 629 C 67.3454 -1.45747 4.15266 0
M  V30 630 H 64.4644 -0.104697 0.729526 0
M  V30 631 H 67.1064 0.428457 1.85106 0
M  V30 632 H 65.2564 -1.24986 3.67846 0
M  V30 633 H 66.9284 1.24581 4.44159 0
M  V30 634 H 65.1714 1.23822 4.15753 0
M  V30 635 H 65.8424 0.322515 5.51057 0
M  V30 636 H 68.3184 -0.938645 4.05375 0
M  V30 637 H 67.1944 -1.66683 5.2298 0
M  V30 638 H 67.4554 -2.45063 3.67963 0
M  V30 639 N 66.5145 -1.57545 0.0417849 0
M  V30 640 C 67.7425 -1.96624 -0.643928 0
M  V30 641 C 68.1575 -0.918897 -1.64929 0
M  V30 642 O 67.5145 0.0979323 -1.82237 0
M  V30 643 C 67.5655 -3.35781 -1.33914 0
M  V30 644 O 67.2865 -4.365 -0.374048 0
M  V30 645 C 68.7875 -3.89566 -2.1155 0
M  V30 646 H 66.0075 -0.647316 -0.176702 0
M  V30 647 H 68.5515 -2.04229 0.105304 0
M  V30 648 H 66.7065 -3.29357 -2.03968 0
M  V30 649 H 67.1205 -5.17248 -0.869179 0
M  V30 650 H 68.5945 -4.89242 -2.55628 0
M  V30 651 H 69.0715 -3.24488 -2.9598 0
M  V30 652 H 69.6775 -3.99298 -1.46427 0
M  V30 653 N 67.9926 0.231505 -1.5589 0
M  V30 654 C 69.2386 0.95877 -1.78705 0
M  V30 655 C 69.5716 1.8438 -0.609725 0
M  V30 656 O 68.8466 1.90521 0.391426 0
M  V30 657 C 69.1296 1.8062 -3.11526 0
M  V30 658 C 68.9826 0.948328 -4.39689 0
M  V30 659 C 70.3016 2.78585 -3.40703 0
M  V30 660 H 67.4206 0.347129 -0.650131 0
M  V30 661 H 70.0626 0.228259 -1.88624 0
M  V30 662 H 68.2126 2.42902 -3.03201 0
M  V30 663 H 69.8846 0.343016 -4.60023 0
M  V30 664 H 68.1276 0.253314 -4.3306 0
M  V30 665 H 68.7986 1.57543 -5.29041 0
M  V30 666 H 71.2746 2.26439 -3.49091 0
M  V30 667 H 70.1506 3.34988 -4.34826 0
M  V30 668 H 70.4116 3.55825 -2.62375 0
M  V30 669 N 69.4707 1.49531 0.497807 0
M  V30 670 C 70.7477 1.49682 1.25915 0
M  V30 671 C 71.1277 0.226339 2.09883 0
M  V30 672 O 70.4757 -0.791189 2.14365 0
M  V30 673 C 70.6857 2.77755 2.11313 0
M  V30 674 C 72.0337 3.27371 2.70395 0
M  V30 675 O 73.0577 2.78894 2.21578 0
M  V30 676 O 71.9167 4.11808 3.59272 0
M  V30 677 H 69.0107 0.599228 0.56996 0
M  V30 678 H 71.5567 1.61798 0.511816 0
M  V30 679 H 70.3287 3.61713 1.49264 0
M  V30 680 H 69.9517 2.68515 2.93233 0
M  V30 681 N 70.9488 -0.749086 1.3866 0
M  V30 682 C 71.8808 -1.87273 1.32142 0
M  V30 683 C 72.8938 -1.61127 0.232787 0
M  V30 684 O 74.0828 -1.71623 0.49069 0
M  V30 685 C 71.1828 -3.23005 1.02571 0
M  V30 686 C 70.3558 -3.7662 2.22433 0
M  V30 687 C 69.4148 -4.90879 1.89537 0
M  V30 688 O 68.4408 -5.05276 2.62078 0
M  V30 689 N 69.6428 -5.74198 0.853031 0
M  V30 690 H 72.4078 -1.93373 2.28969 0
M  V30 691 H 69.9688 -0.929216 1.32579 0
M  V30 692 H 71.9608 -3.96992 0.786085 0
M  V30 693 H 70.5308 -3.12262 0.145249 0
M  V30 694 H 69.7508 -2.94147 2.62434 0
M  V30 695 H 71.0388 -4.09173 3.02415 0
M  V30 696 H 70.4368 -5.6514 0.25155 0
M  V30 697 H 68.9938 -6.48313 0.67329 0
M  V30 698 N 72.4269 -1.23603 -0.977757 0
M  V30 699 C 73.3599 -0.962772 -2.06896 0
M  V30 700 C 74.3379 0.0998743 -1.62293 0
M  V30 701 O 75.5219 -0.0349421 -1.88468 0
M  V30 702 C 72.6489 -0.45095 -3.35685 0
M  V30 703 C 71.6949 -1.50061 -3.99229 0
M  V30 704 S 72.5279 -3.07884 -4.38142 0
M  V30 705 C 73.6839 -2.58378 -5.7008 0
M  V30 706 H 73.9169 -1.88677 -2.29757 0
M  V30 707 H 71.4499 -1.06876 -1.11431 0
M  V30 708 H 73.4079 -0.162261 -4.10179 0
M  V30 709 H 72.0689 0.452179 -3.10828 0
M  V30 710 H 71.2619 -1.09269 -4.92013 0
M  V30 711 H 70.8639 -1.73878 -3.31123 0
M  V30 712 H 73.1559 -2.00563 -6.47133 0
M  V30 713 H 74.0989 -3.49711 -6.15717 0
M  V30 714 H 74.5069 -1.99143 -5.28207 0
M  V30 715 N 73.905 1.17692 -1.04816 0
M  V30 716 C 75.135 1.91508 -0.775128 0
M  V30 717 C 75.543 1.76844 0.67253 0
M  V30 718 O 74.886 1.10057 1.47082 0
M  V30 719 C 74.948 3.43167 -1.0713 0
M  V30 720 C 74.612 3.81612 -2.51438 0
M  V30 721 C 75.609 3.84772 -3.49638 0
M  V30 722 C 73.294 4.12687 -2.86348 0
M  V30 723 C 75.288 4.18469 -4.80794 0
M  V30 724 C 72.975 4.46053 -4.17708 0
M  V30 725 C 73.973 4.48921 -5.14741 0
M  V30 726 O 73.661 4.81504 -6.43746 0
M  V30 727 H 73.393 0.614575 -0.281555 0
M  V30 728 H 75.947 1.50206 -1.40098 0
M  V30 729 H 74.177 3.84745 -0.388342 0
M  V30 730 H 75.866 3.98239 -0.784883 0
M  V30 731 H 76.632 3.60893 -3.24008 0
M  V30 732 H 72.511 4.09627 -2.11486 0
M  V30 733 H 76.055 4.20623 -5.56527 0
M  V30 734 H 71.952 4.69393 -4.43103 0
M  V30 735 H 72.72 4.99377 -6.4851 0
M  V30 736 N 75.3831 0.828654 1.34056 0
M  V30 737 C 76.6291 0.42008 1.98402 0
M  V30 738 C 76.9621 -1.01564 1.65525 0
M  V30 739 O 76.2371 -1.70834 0.929831 0
M  V30 740 C 76.5201 0.62927 3.54559 0
M  V30 741 C 76.3731 2.11152 3.97159 0
M  V30 742 C 77.6921 0.0688756 4.40046 0
M  V30 743 H 74.8111 0.154104 0.720709 0
M  V30 744 H 77.4531 1.04228 1.5886 0
M  V30 745 H 75.6031 0.0996418 3.88372 0
M  V30 746 H 77.2751 2.70522 3.73651 0
M  V30 747 H 75.5181 2.59985 3.47261 0
M  V30 748 H 76.1891 2.20868 5.05887 0
M  V30 749 H 78.6651 0.521458 4.1282 0
M  V30 750 H 77.5411 0.245006 5.48353 0
M  V30 751 H 77.8021 -1.0266 4.30015 0
M  V30 752 N 76.8612 -1.46375 0.584142 0
M  V30 753 C 78.2772 -1.57694 0.245929 0
M  V30 754 C 78.4772 -1.57903 -1.25175 0
M  V30 755 O 77.5332 -1.49676 -2.03355 0
M  V30 756 C 78.8462 -2.87028 0.896402 0
M  V30 757 C 80.3942 -3.00662 0.870127 0
M  V30 758 C 80.8692 -4.32734 1.50017 0
M  V30 759 N 82.3602 -4.39436 1.46458 0
M  V30 760 C 83.0952 -5.40248 1.92144 0
M  V30 761 N 82.5912 -6.47726 2.4581 0
M  V30 762 N 84.3842 -5.31459 1.83052 0
M  V30 763 H 76.5352 -1.44483 1.55687 0
M  V30 764 H 78.7982 -0.689291 0.650831 0
M  V30 765 H 78.5042 -2.9269 1.95002 0
M  V30 766 H 78.3782 -3.75014 0.405486 0
M  V30 767 H 80.7652 -2.94581 -0.174871 0
M  V30 768 H 80.8462 -2.14148 1.39908 0
M  V30 769 H 80.4902 -4.39573 2.54437 0
M  V30 770 H 80.4202 -5.18025 0.946432 0
M  V30 771 H 82.9112 -3.62367 1.07231 0
M  V30 772 H 83.2242 -7.20863 2.78525 0
M  V30 773 H 81.5692 -6.48542 2.49836 0
M  V30 774 H 84.7602 -4.46396 1.40883 0
M  V30 775 H 84.9332 -6.09881 2.18973 0
M  V30 776 N 78.3393 -0.321999 -1.54275 0
M  V30 777 C 79.5693 0.282642 -2.04658 0
M  V30 778 C 79.9773 1.46453 -1.19784 0
M  V30 779 O 79.3203 1.82367 -0.220932 0
M  V30 780 C 79.3823 0.781857 -3.50895 0
M  V30 781 C 79.0463 -0.277517 -4.56157 0
M  V30 782 C 80.0433 -1.11307 -5.07845 0
M  V30 783 C 77.7283 -0.425256 -5.00497 0
M  V30 784 C 79.7223 -2.08211 -6.02434 0
M  V30 785 C 77.4093 -1.39771 -5.94901 0
M  V30 786 C 78.4073 -2.2246 -6.45756 0
M  V30 787 O 78.0953 -3.18054 -7.38307 0
M  V30 788 H 77.8273 0.0622636 -0.673126 0
M  V30 789 H 80.3813 -0.465792 -2.00049 0
M  V30 790 H 78.6113 1.58118 -3.52896 0
M  V30 791 H 80.3003 1.30467 -3.84361 0
M  V30 792 H 81.0663 -1.00991 -4.74369 0
M  V30 793 H 76.9453 0.20847 -4.60528 0
M  V30 794 H 80.4893 -2.72791 -6.42052 0
M  V30 795 H 76.3863 -1.50152 -6.27794 0
M  V30 796 H 77.1543 -3.13275 -7.56175 0
M  V30 797 N 79.8174 1.5752 -0.0501392 0
M  V30 798 C 80.7494 2.08413 0.95376 0
M  V30 799 C 81.7624 1.01175 1.27544 0
M  V30 800 O 82.9514 1.28744 1.23641 0
M  V30 801 C 80.0514 2.51138 2.27559 0
M  V30 802 C 79.2244 3.817 2.13598 0
M  V30 803 C 78.2834 4.10749 3.28895 0
M  V30 804 O 77.3094 4.80685 3.04845 0
M  V30 805 N 78.5114 3.62579 4.5334 0
M  V30 806 H 81.2764 2.95165 0.519383 0
M  V30 807 H 78.8374 1.61327 0.136127 0
M  V30 808 H 80.8294 2.67648 3.03557 0
M  V30 809 H 79.3994 1.6964 2.62567 0
M  V30 810 H 78.6194 3.74782 1.22197 0
M  V30 811 H 79.9074 4.67201 2.01496 0
M  V30 812 H 79.3054 3.06039 4.75769 0
M  V30 813 H 77.8624 3.84329 5.26436 0
M  V30 814 N 81.2955 -0.223234 1.56011 0
M  V30 815 C 82.5445 -0.945912 1.78144 0
M  V30 816 C 82.8575 -1.85567 0.618396 0
M  V30 817 O 84.0635 -2.61688 0.723318 0
M  V30 818 C 82.5195 -1.73216 3.15475 0
M  V30 819 C 82.1275 -0.868619 4.39499 0
M  V30 820 C 83.8715 -2.44615 3.46935 0
M  V30 821 C 81.7785 -1.65212 5.67855 0
M  V30 822 H 80.7085 -0.356929 0.664167 0
M  V30 823 H 83.3595 -0.199845 1.82409 0
M  V30 824 H 81.7415 -2.52107 3.05382 0
M  V30 825 H 82.9155 -0.120366 4.60643 0
M  V30 826 H 81.2305 -0.26683 4.15544 0
M  V30 827 H 83.8275 -3.03732 4.40058 0
M  V30 828 H 84.1705 -3.17417 2.69355 0
M  V30 829 H 84.7035 -1.72715 3.58349 0
M  V30 830 H 81.4425 -0.967407 6.48322 0
M  V30 831 H 80.9625 -2.37503 5.50774 0
M  V30 832 H 82.6415 -2.21322 6.07968 0
M  V30 833 N 82.7736 -1.49793 -0.48987 0
M  V30 834 C 84.1846 -1.52914 -1.07118 0
M  V30 835 C 84.5356 -0.321738 -1.93544 0
M  V30 836 O 83.6606 0.567338 -2.08831 0
M  V30 837 C 84.2556 -2.771 -1.94938 0
M  V30 838 C 82.8146 -2.82963 -2.48212 0
M  V30 839 C 81.9616 -2.46972 -1.26096 0
M  V30 840 H 84.9126 -1.56329 -0.273289 0
M  V30 841 H 84.9336 -2.57892 -2.79771 0
M  V30 842 H 84.4456 -3.64959 -1.32009 0
M  V30 843 H 82.5466 -1.99411 -3.14748 0
M  V30 844 H 82.6596 -3.85406 -2.84603 0
M  V30 845 H 81.0236 -1.98994 -1.58976 0
M  V30 846 H 81.8066 -3.37118 -0.648581 0
M  V30 847 N 84.2517 0.741722 -1.39055 0
M  V30 848 C 85.1837 1.8657 -1.33133 0
M  V30 849 C 86.1967 1.61001 -0.241329 0
M  V30 850 O 87.3857 1.7136 -0.499784 0
M  V30 851 C 84.4857 3.22457 -1.04283 0
M  V30 852 C 83.6587 3.75435 -2.24427 0
M  V30 853 C 82.7177 4.89867 -1.92138 0
M  V30 854 O 81.7437 5.03879 -2.64754 0
M  V30 855 N 82.9457 5.73738 -0.88347 0
M  V30 856 H 85.7107 1.92156 -2.29991 0
M  V30 857 H 83.2717 0.922172 -1.3307 0
M  V30 858 H 85.2637 3.9657 -0.807128 0
M  V30 859 H 83.8337 3.12181 -0.161807 0
M  V30 860 H 83.0537 2.92751 -2.6399 0
M  V30 861 H 84.3417 4.07563 -3.04581 0
M  V30 862 H 83.7397 5.64999 -0.281517 0
M  V30 863 H 82.2967 6.47947 -0.707662 0
M  V30 864 N 85.7298 1.2412 0.971189 0
M  V30 865 C 87.1458 1.00584 1.23916 0
M  V30 866 C 87.3458 -0.287481 1.99439 0
M  V30 867 O 86.4018 -1.00454 2.31658 0
M  V30 868 C 87.7148 2.21864 2.0297 0
M  V30 869 C 89.2628 2.26452 2.16076 0
M  V30 870 C 89.7378 3.47343 2.98524 0
M  V30 871 N 91.2288 3.47639 3.06107 0
M  V30 872 C 91.9638 4.37837 3.70251 0
M  V30 873 N 91.4598 5.38286 4.36142 0
M  V30 874 N 93.2528 4.25558 3.67228 0
M  V30 875 H 85.4038 2.07236 0.465499 0
M  V30 876 H 87.6668 0.909236 0.268315 0
M  V30 877 H 87.3728 3.15771 1.54861 0
M  V30 878 H 87.2468 2.23698 3.03709 0
M  V30 879 H 89.6338 1.33078 2.6339 0
M  V30 880 H 89.7148 2.28645 1.14696 0
M  V30 881 H 89.3588 4.41029 2.51905 0
M  V30 882 H 89.2888 3.42393 4.00093 0
M  V30 883 H 91.7798 2.74966 2.59233 0
M  V30 884 H 92.0928 6.03352 4.82894 0
M  V30 885 H 90.4378 5.42176 4.34822 0
M  V30 886 H 93.6288 3.46322 3.14927 0
M  V30 887 H 93.8018 4.96054 4.16935 0
M  V30 888 N 87.2079 -1.17134 1.05439 0
M  V30 889 C 88.1709 -2.19439 0.661764 0
M  V30 890 C 89.1709 -1.58199 -0.288042 0
M  V30 891 O 90.3609 -1.74053 -0.0715803 0
M  V30 892 C 87.4929 -3.40889 -0.0276209 0
M  V30 893 H 88.6859 -2.55688 1.56728 0
M  V30 894 H 86.2389 -1.31259 0.848567 0
M  V30 895 H 86.9739 -3.10187 -0.94629 0
M  V30 896 H 86.7589 -3.86586 0.655238 0
M  V30 897 H 88.2489 -4.16603 -0.288342 0
M  V30 898 N 88.686 -0.835752 -1.33615 0
M  V30 899 C 89.633 -0.26473 -2.29277 0
M  V30 900 C 90.603 0.617712 -1.54187 0
M  V30 901 O 91.788 0.556641 -1.825 0
M  V30 902 C 88.928 0.556777 -3.40579 0
M  V30 903 C 88.041 -0.349339 -4.30585 0
M  V30 904 C 87.176 0.482969 -5.29 0
M  V30 905 C 86.215 -0.421732 -6.10645 0
M  V30 906 N 85.352 0.372262 -7.01112 0
M  V30 907 H 90.192 -1.08582 -2.77514 0
M  V30 908 H 87.729 -0.546927 -1.36554 0
M  V30 909 H 89.687 1.04852 -4.03809 0
M  V30 910 H 88.317 1.34286 -2.93542 0
M  V30 911 H 87.369 -0.959372 -3.68104 0
M  V30 912 H 88.681 -1.04445 -4.87742 0
M  V30 913 H 87.835 1.03866 -5.97743 0
M  V30 914 H 86.574 1.21153 -4.72412 0
M  V30 915 H 85.579 -0.989464 -5.40823 0
M  V30 916 H 86.804 -1.14861 -6.69316 0
M  V30 917 H 84.75 1.08426 -6.46977 0
M  V30 918 H 84.667 -0.264198 -7.55538 0
M  V30 919 H 85.935 0.910293 -7.74167 0
M  V30 920 N 90.1641 1.46063 -0.591896 0
M  V30 921 C 91.5801 1.57561 -0.254288 0
M  V30 922 C 91.7801 1.58565 1.24336 0
M  V30 923 O 90.8361 1.50753 2.02558 0
M  V30 924 C 92.1491 2.86549 -0.911611 0
M  V30 925 C 93.6971 3.00197 -0.886059 0
M  V30 926 C 94.1721 4.31933 -1.5231 0
M  V30 927 N 95.6631 4.38654 -1.48786 0
M  V30 928 C 96.3981 5.39222 -1.95006 0
M  V30 929 N 95.8941 6.46414 -2.49241 0
M  V30 930 N 97.6871 5.3048 -1.85868 0
M  V30 931 H 89.8381 1.43655 -1.56451 0
M  V30 932 H 92.1011 0.68583 -0.654478 0
M  V30 933 H 91.8071 2.91651 -1.96551 0
M  V30 934 H 91.6811 3.74794 -0.425368 0
M  V30 935 H 94.0681 2.9467 0.159246 0
M  V30 936 H 94.1491 2.13403 -1.41041 0
M  V30 937 H 93.7931 4.38217 -2.56765 0
M  V30 938 H 93.7231 5.17516 -0.973891 0
M  V30 939 H 96.2141 3.61793 -1.09151 0
M  V30 940 H 96.5271 7.19376 -2.82344 0
M  V30 941 H 94.8721 6.47208 -2.53272 0
M  V30 942 H 98.0631 4.45643 -1.43248 0
M  V30 943 H 98.2361 6.08711 -2.22204 0
M  V30 944 N 91.6422 0.330177 1.54103 0
M  V30 945 C 92.8722 -0.271784 2.04805 0
M  V30 946 C 93.2802 -1.45816 1.20559 0
M  V30 947 O 92.6232 -1.82247 0.2306 0
M  V30 948 C 92.6852 -0.763238 3.51305 0
M  V30 949 C 92.3492 0.301705 4.56003 0
M  V30 950 C 93.3462 1.13999 5.07248 0
M  V30 951 C 91.0312 0.451793 5.00264 0
M  V30 952 C 93.0252 2.11402 6.01322 0
M  V30 953 C 90.7122 1.42924 5.94151 0
M  V30 954 C 91.7102 2.25882 6.44567 0
M  V30 955 O 91.3982 3.21965 7.3661 0
M  V30 956 H 91.1302 -0.058693 0.673447 0
M  V30 957 H 93.6842 0.476395 1.99799 0
M  V30 958 H 91.9142 -1.56244 3.5373 0
M  V30 959 H 93.6032 -1.28427 3.85047 0
M  V30 960 H 94.3692 1.03505 4.73827 0
M  V30 961 H 90.2482 -0.184044 4.60632 0
M  V30 962 H 93.7922 2.76192 6.40596 0
M  V30 963 H 89.6892 1.53479 6.26988 0
M  V30 964 H 90.4572 3.17281 7.54503 0
M  V30 965 N 93.1203 -1.57491 0.0584922 0
M  V30 966 C 94.5313 -1.80526 -0.476138 0
M  V30 967 C 94.8823 -0.971334 -1.70469 0
M  V30 968 O 94.0073 -0.190012 -2.15564 0
M  V30 969 C 94.6023 -3.27424 -0.870587 0
M  V30 970 C 93.1613 -3.51351 -1.35015 0
M  V30 971 C 92.3083 -2.75343 -0.32887 0
M  V30 972 H 95.2593 -1.56133 0.284312 0
M  V30 973 H 95.2803 -3.38745 -1.73299 0
M  V30 974 H 94.7923 -3.88093 0.0237627 0
M  V30 975 H 92.8933 -2.95971 -2.26345 0
M  V30 976 H 93.0063 -4.60059 -1.33726 0
M  V30 977 H 91.3703 -2.417 -0.803321 0
M  V30 978 H 92.1533 -3.38743 0.557521 0
M  V30 979 N 94.5984 0.214957 -1.56127 0
M  V30 980 C 95.8474 0.936451 -1.78643 0
M  V30 981 C 96.1604 1.85237 -0.628229 0
M  V30 982 O 97.3664 2.613 -0.737186 0
M  V30 983 C 95.8224 1.7154 -3.16389 0
M  V30 984 C 95.4304 0.845299 -4.39953 0
M  V30 985 C 97.1744 2.42772 -3.48227 0
M  V30 986 C 95.0814 1.62198 -5.68723 0
M  V30 987 H 94.0114 0.353401 -0.666051 0
M  V30 988 H 96.6624 0.190169 -1.82512 0
M  V30 989 H 95.0444 2.50484 -3.06715 0
M  V30 990 H 96.2184 0.0959353 -4.607 0
M  V30 991 H 94.5334 0.244789 -4.1568 0
M  V30 992 H 97.1304 3.01394 -4.41663 0
M  V30 993 H 97.4734 3.15984 -2.71035 0
M  V30 994 H 98.0064 1.70813 -3.5926 0
M  V30 995 H 94.7454 0.933011 -6.48826 0
M  V30 996 H 94.2654 2.34579 -5.52026 0
M  V30 997 H 95.9444 2.18095 -6.09133 0
M  V30 998 N 96.0765 1.50051 0.48192 0
M  V30 999 C 97.3045 1.64237 1.25832 0
M  V30 1000 C 97.7195 0.321336 1.86045 0
M  V30 1001 O 97.0765 -0.695478 1.68729 0
M  V30 1002 C 97.1275 2.72548 2.37487 0
M  V30 1003 O 96.8485 3.99529 1.79745 0
M  V30 1004 C 98.3495 2.9761 3.28547 0
M  V30 1005 H 95.5695 0.55237 0.380957 0
M  V30 1006 H 98.1135 1.96207 0.576467 0
M  V30 1007 H 96.2685 2.43303 3.01467 0
M  V30 1008 H 96.6825 4.59342 2.5319 0
M  V30 1009 H 98.1565 3.77084 4.03127 0
M  V30 1010 H 98.6335 2.0826 3.86684 0
M  V30 1011 H 99.2395 3.28345 2.70314 0
M  V30 1012 N 97.5546 -0.734337 1.39446 0
M  V30 1013 C 98.4846 -1.86155 1.40955 0
M  V30 1014 C 99.4656 -1.67898 0.272827 0
M  V30 1015 O 100.651 -1.88207 0.478743 0
M  V30 1016 C 97.7806 -3.23912 1.25294 0
M  V30 1017 C 96.7346 -3.56808 2.36373 0
M  V30 1018 C 96.0606 -4.93508 2.058 0
M  V30 1019 C 97.3606 -3.59713 3.78687 0
M  V30 1020 H 99.0546 -1.8515 2.35287 0
M  V30 1021 H 96.6006 -0.889367 1.13253 0
M  V30 1022 H 98.5536 -4.02443 1.2497 0
M  V30 1023 H 97.2776 -3.25446 0.274308 0
M  V30 1024 H 95.9366 -2.80606 2.35914 0
M  V30 1025 H 95.5846 -4.91623 1.06374 0
M  V30 1026 H 95.2846 -5.16486 2.80208 0
M  V30 1027 H 96.8086 -5.74396 2.07128 0
M  V30 1028 H 98.2226 -4.2832 3.81071 0
M  V30 1029 H 96.6196 -3.94209 4.52459 0
M  V30 1030 H 97.6896 -2.59504 4.09617 0
M  V30 1031 N 99.0327 -1.24633 -0.964593 0
M  V30 1032 C 100.282 -1.08188 -1.7023 0
M  V30 1033 C 100.595 0.37873 -1.91898 0
M  V30 1034 O 101.801 0.663427 -2.6327 0
M  V30 1035 C 100.257 -1.88773 -3.06419 0
M  V30 1036 C 99.8647 -3.39263 -2.92582 0
M  V30 1037 C 101.609 -1.80867 -3.84041 0
M  V30 1038 C 99.5157 -4.1218 -4.24101 0
M  V30 1039 H 98.4457 -0.401245 -0.638372 0
M  V30 1040 H 101.097 -1.48742 -1.07462 0
M  V30 1041 H 99.4787 -1.41035 -3.70034 0
M  V30 1042 H 100.653 -3.94603 -2.37961 0
M  V30 1043 H 98.9677 -3.48154 -2.28424 0
M  V30 1044 H 101.565 -2.32646 -4.81435 0
M  V30 1045 H 101.908 -0.774543 -4.09031 0
M  V30 1046 H 102.441 -2.26301 -3.27159 0
M  V30 1047 H 99.1797 -5.15965 -4.04303 0
M  V30 1048 H 98.6997 -3.61626 -4.78526 0
M  V30 1049 H 100.379 -4.19349 -4.92702 0
M  V30 1050 N 100.511 1.16574 -1.06058 0
M  V30 1051 C 101.461 2.18854 -0.63929 0
M  V30 1052 C 102.445 1.57505 0.328798 0
M  V30 1053 O 103.637 1.76408 0.144623 0
M  V30 1054 C 100.766 3.43291 -0.0247203 0
M  V30 1055 C 99.8518 4.11722 -1.01716 0
M  V30 1056 N 100.243 4.55841 -2.19186 0
M  V30 1057 C 98.5408 4.37872 -0.847569 0
M  V30 1058 C 99.2418 5.08751 -2.82042 0
M  V30 1059 N 98.2178 5.01489 -2.09784 0
M  V30 1060 H 102.02 2.5068 -1.53417 0
M  V30 1061 H 99.5338 1.32999 -0.931935 0
M  V30 1062 H 101.531 4.15856 0.294915 0
M  V30 1063 H 100.191 3.12954 0.865448 0
M  V30 1064 H 101.202 4.49649 -2.56975 0
M  V30 1065 H 97.8788 4.17499 -0.00918848 0
M  V30 1066 H 99.2688 5.52944 -3.81709 0
M  V30 1067 N 101.989 0.842826 1.3317 0
M  V30 1068 C 103.237 0.439577 1.97262 0
M  V30 1069 C 103.558 -1.00548 1.67078 0
M  V30 1070 O 102.828 -1.70098 0.971779 0
M  V30 1071 H 101.408 0.159558 0.72976 0
M  V30 1072 H 104.07 1.07665 1.62463 0
M  V30 1073 H 103.166 0.574886 3.0676 0
M  V30 1074 N 103.467 -1.45747 0.599634 0
M  V30 1075 C 104.707 -2.04181 0.0946309 0
M  V30 1076 C 105.071 -1.45895 -1.24815 0
M  V30 1077 O 106.272 -1.95633 -1.8434 0
M  V30 1078 C 104.543 -3.57368 0.047581 0
M  V30 1079 S 106.102 -4.36997 -0.397387 0
M  V30 1080 H 102.92 -0.70953 0.0456954 0
M  V30 1081 H 105.522 -1.78564 0.795946 0
M  V30 1082 H 104.226 -3.97303 1.02852 0
M  V30 1083 H 103.757 -3.87549 -0.675977 0
M  V30 1084 H 105.772 -4.68012 -1.64862 0
M  V30 1085 N 104.945 -0.338344 -1.53925 0
M  V30 1086 C 106.185 0.260168 -2.02737 0
M  V30 1087 C 106.549 1.48181 -1.22092 0
M  V30 1088 O 107.75 2.15416 -1.60777 0
M  V30 1089 C 106.021 0.571627 -3.52799 0
M  V30 1090 S 107.58 1.14769 -4.23525 0
M  V30 1091 H 104.398 0.077791 -0.706732 0
M  V30 1092 H 107 -0.474899 -1.89644 0
M  V30 1093 H 105.704 -0.325392 -4.09108 0
M  V30 1094 H 105.235 1.3365 -3.70002 0
M  V30 1095 H 107.25 2.43372 -4.32417 0
M  V30 1096 N 106.423 1.57458 -0.0668435 0
M  V30 1097 C 107.353 2.15468 0.899764 0
M  V30 1098 C 108.334 1.08042 1.31381 0
M  V30 1099 O 109.519 1.36054 1.38574 0
M  V30 1100 C 106.649 2.71232 2.16911 0
M  V30 1101 C 105.603 3.83781 1.89463 0
M  V30 1102 C 104.929 4.26127 3.22986 0
M  V30 1103 C 106.229 5.08238 1.20381 0
M  V30 1104 H 107.923 2.96488 0.416529 0
M  V30 1105 H 105.469 1.4262 0.198908 0
M  V30 1106 H 107.422 3.10458 2.84945 0
M  V30 1107 H 106.146 1.87426 2.67468 0
M  V30 1108 H 104.805 3.45051 1.23836 0
M  V30 1109 H 104.453 3.39249 3.71374 0
M  V30 1110 H 104.153 5.01993 3.05413 0
M  V30 1111 H 105.677 4.67966 3.92225 0
M  V30 1112 H 107.091 5.44811 1.78475 0
M  V30 1113 H 105.488 5.89349 1.13083 0
M  V30 1114 H 106.558 4.84558 0.182153 0
M  V30 1115 N 107.901 -0.206675 1.56239 0
M  V30 1116 C 109.129 -0.945345 1.8404 0
M  V30 1117 C 109.544 -1.77336 0.647885 0
M  V30 1118 O 108.901 -1.78425 -0.383511 0
M  V30 1119 C 108.952 -1.8509 3.10522 0
M  V30 1120 O 108.673 -1.05634 4.25174 0
M  V30 1121 C 110.174 -2.70222 3.51418 0
M  V30 1122 H 107.394 -0.276372 0.61144 0
M  V30 1123 H 109.938 -0.217417 2.03341 0
M  V30 1124 H 108.093 -2.53259 2.93153 0
M  V30 1125 H 108.507 -1.67238 4.97124 0
M  V30 1126 H 109.981 -3.29438 4.42916 0
M  V30 1127 H 110.458 -3.43358 2.73864 0
M  V30 1128 H 111.064 -2.07443 3.71278 0
M  V30 1129 N 109.379 -1.50304 -0.473955 0
M  V30 1130 C 110.627 -1.60832 -1.22382 0
M  V30 1131 C 110.948 -0.30939 -1.9253 0
M  V30 1132 O 110.218 0.67296 -1.83978 0
M  V30 1133 H 108.798 -0.592652 -0.454723 0
M  V30 1134 H 111.46 -1.87068 -0.546968 0
M  V30 1135 H 110.556 -2.41803 -1.97327 0
M  V30 1136 N 110.857 0.726932 -1.39834 0
M  V30 1137 C 111.79 1.8501 -1.33592 0
M  V30 1138 C 112.768 1.61262 -0.208191 0
M  V30 1139 O 113.952 1.84422 -0.389981 0
M  V30 1140 C 111.079 3.21143 -1.07633 0
M  V30 1141 C 110.125 3.63737 -2.22705 0
M  V30 1142 S 110.958 3.72167 -3.85035 0
M  V30 1143 C 112.114 5.11077 -3.61318 0
M  V30 1144 H 112.347 1.90022 -2.28646 0
M  V30 1145 H 109.88 0.892595 -1.25985 0
M  V30 1146 H 111.838 3.99747 -0.933415 0
M  V30 1147 H 110.499 3.13776 -0.142526 0
M  V30 1148 H 109.692 4.62551 -2.00155 0
M  V30 1149 H 109.294 2.9236 -2.33242 0
M  V30 1150 H 111.586 5.97656 -3.19083 0
M  V30 1151 H 112.529 5.38658 -4.59623 0
M  V30 1152 H 112.937 4.81135 -2.95245 0
M  V30 1153 N 112.336 1.25143 0.95797 0
M  V30 1154 C 113.564 1.12424 1.73691 0
M  V30 1155 C 113.979 -0.322304 1.86029 0
M  V30 1156 O 113.336 -1.22186 1.35561 0
M  V30 1157 C 113.387 1.76933 3.15241 0
M  V30 1158 O 113.108 3.15932 3.03511 0
M  V30 1159 C 114.609 1.6995 4.09429 0
M  V30 1160 H 111.829 0.3923 0.544373 0
M  V30 1161 H 114.373 1.6544 1.20207 0
M  V30 1162 H 112.528 1.27895 3.6568 0
M  V30 1163 H 112.942 3.47598 3.9278 0
M  V30 1164 H 114.416 2.19753 5.06372 0
M  V30 1165 H 114.893 0.662619 4.34173 0
M  V30 1166 H 115.499 2.18461 3.64904 0
M  V30 1167 N 113.814 -1.1601 1.06675 0
M  V30 1168 C 115.06 -1.87145 0.796766 0
M  V30 1169 C 115.415 -1.8037 -0.669658 0
M  V30 1170 O 114.708 -1.21116 -1.48463 0
M  V30 1171 C 114.902 -3.35547 1.23057 0
M  V30 1172 C 114.731 -3.56769 2.73762 0
M  V30 1173 C 113.501 -3.72635 3.41279 0
M  V30 1174 C 115.699 -3.55166 3.7197 0
M  V30 1175 N 113.681 -3.81845 4.80695 0
M  V30 1176 C 115.052 -3.70406 4.97191 0
M  V30 1177 C 117.107 -3.384 3.65226 0
M  V30 1178 C 115.81 -3.70615 6.16471 0
M  V30 1179 C 117.836 -3.39904 4.83962 0
M  V30 1180 C 117.198 -3.55667 6.08013 0
M  V30 1181 H 113.297 -0.702267 0.344014 0
M  V30 1182 H 115.881 -1.39165 1.36166 0
M  V30 1183 H 114.052 -3.82159 0.693456 0
M  V30 1184 H 115.784 -3.94363 0.908844 0
M  V30 1185 H 112.539 -3.73121 2.91681 0
M  V30 1186 H 112.963 -3.90209 5.53232 0
M  V30 1187 H 117.605 -3.25138 2.70269 0
M  V30 1188 H 115.323 -3.82658 7.11757 0
M  V30 1189 H 118.909 -3.28169 4.80413 0
M  V30 1190 H 117.789 -3.56755 6.98352 0
M  V30 1191 N 115.292 -0.849877 -1.32721 0
M  V30 1192 C 116.202 -0.293791 -2.32753 0
M  V30 1193 C 117.218 0.585906 -1.63839 0
M  V30 1194 O 118.394 0.487413 -1.95413 0
M  V30 1195 C 115.459 0.512752 -3.42887 0
M  V30 1196 C 114.52 -0.39252 -4.27502 0
M  V30 1197 C 113.753 0.375625 -5.32377 0
M  V30 1198 O 113.976 1.60613 -5.4732 0
M  V30 1199 O 112.91 -0.256094 -6.01355 0
M  V30 1200 H 116.736 -1.12242 -2.82197 0
M  V30 1201 H 114.321 -0.612685 -1.36259 0
M  V30 1202 H 116.203 0.970704 -4.10067 0
M  V30 1203 H 114.878 1.31826 -2.95641 0
M  V30 1204 H 113.785 -0.898547 -3.63149 0
M  V30 1205 H 115.118 -1.16309 -4.7826 0
M  V30 1206 N 116.77 1.45427 -0.607355 0
M  V30 1207 C 117.998 2.06614 -0.108814 0
M  V30 1208 C 118.413 1.45204 1.2067 0
M  V30 1209 O 117.77 0.566132 1.73497 0
M  V30 1210 C 117.821 3.61481 0.0375347 0
M  V30 1211 O 117.542 4.20598 -1.22593 0
M  V30 1212 C 119.043 4.39652 0.567561 0
M  V30 1213 H 116.263 0.66747 -0.0687351 0
M  V30 1214 H 118.807 1.86675 -0.835022 0
M  V30 1215 H 116.962 3.80762 0.714068 0
M  V30 1216 H 117.376 5.1377 -1.05547 0
M  V30 1217 H 118.85 5.48518 0.61905 0
M  V30 1218 H 119.327 4.09417 1.58978 0
M  V30 1219 H 119.933 4.25234 -0.0749202 0
M  V30 1220 N 118.248 0.346503 1.53744 0
M  V30 1221 C 119.476 -0.25041 2.05379 0
M  V30 1222 C 119.891 -1.43979 1.22129 0
M  V30 1223 O 119.248 -1.80677 0.257321 0
M  V30 1224 C 119.299 -0.662575 3.55376 0
M  V30 1225 O 119.02 0.479515 4.35468 0
M  V30 1226 C 120.521 -1.31989 4.23195 0
M  V30 1227 H 117.741 -0.0478198 0.669294 0
M  V30 1228 H 120.285 0.499346 1.9831 0
M  V30 1229 H 118.44 -1.36227 3.62658 0
M  V30 1230 H 118.854 0.15037 5.24284 0
M  V30 1231 H 120.328 -1.55902 5.29527 0
M  V30 1232 H 120.805 -2.27436 3.75725 0
M  V30 1233 H 121.411 -0.662154 4.20114 0
M  V30 1234 N 119.726 -1.57421 0.075193 0
M  V30 1235 C 121.137 -1.81021 -0.456964 0
M  V30 1236 C 121.488 -0.98936 -1.69429 0
M  V30 1237 O 120.613 -0.212865 -2.15351 0
M  V30 1238 C 121.208 -3.28329 -0.83581 0
M  V30 1239 C 119.767 -3.52764 -1.31281 0
M  V30 1240 C 118.914 -2.75676 -0.299648 0
M  V30 1241 H 121.865 -1.55822 0.300856 0
M  V30 1242 H 121.886 -3.40564 -1.69696 0
M  V30 1243 H 121.398 -3.88046 0.0649238 0
M  V30 1244 H 119.499 -2.98355 -2.23193 0
M  V30 1245 H 119.612 -4.61451 -1.28839 0
M  V30 1246 H 117.976 -2.42538 -0.777641 0
M  V30 1247 H 118.759 -3.38132 0.593417 0
M  V30 1248 N 121.204 0.198386 -1.56346 0
M  V30 1249 C 122.481 0.944982 -1.71258 0
M  V30 1250 C 122.861 2.0151 -0.629048 0
M  V30 1251 O 122.209 2.25639 0.360473 0
M  V30 1252 C 122.419 1.5344 -3.1346 0
M  V30 1253 C 123.767 2.01778 -3.73591 0
M  V30 1254 O 124.791 1.63288 -3.16568 0
M  V30 1255 O 123.65 2.72594 -4.73661 0
M  V30 1256 H 120.744 0.442939 -0.69838 0
M  V30 1257 H 123.29 0.188342 -1.68652 0
M  V30 1258 H 122.062 0.762869 -3.83792 0
M  V30 1259 H 121.685 2.35596 -3.20282 0
M  V30 1260 N 122.682 1.50554 0.465978 0
M  V30 1261 C 123.93 1.61479 1.21528 0
M  V30 1262 C 124.251 0.319596 1.92363 0
M  V30 1263 O 123.521 -0.663194 1.84333 0
M  V30 1264 H 122.101 0.595055 0.451573 0
M  V30 1265 H 124.763 1.87355 0.53704 0
M  V30 1266 H 123.859 2.42846 1.96042 0
M  V30 1267 N 124.16 -0.719506 1.40217 0
M  V30 1268 C 125.576 -1.02707 1.22161 0
M  V30 1269 C 125.776 -2.0128 0.0940557 0
M  V30 1270 O 124.832 -2.46452 -0.549318 0
M  V30 1271 C 126.145 -1.57454 2.56181 0
M  V30 1272 C 127.693 -1.69458 2.63159 0
M  V30 1273 C 128.168 -2.27611 3.97438 0
M  V30 1274 N 129.659 -2.35002 3.99159 0
M  V30 1275 C 130.394 -2.80972 4.99842 0
M  V30 1276 N 129.89 -3.26723 6.10921 0
M  V30 1277 N 131.683 -2.80321 4.87213 0
M  V30 1278 H 123.834 -0.0660492 2.12297 0
M  V30 1279 H 126.097 -0.0919077 0.943534 0
M  V30 1280 H 125.803 -0.924873 3.39321 0
M  V30 1281 H 125.677 -2.56036 2.76993 0
M  V30 1282 H 128.064 -2.33543 1.80393 0
M  V30 1283 H 128.145 -0.694867 2.46181 0
M  V30 1284 H 127.789 -1.6415 4.80643 0
M  V30 1285 H 127.719 -3.2829 4.11744 0
M  V30 1286 H 130.21 -2.02685 3.18947 0
M  V30 1287 H 130.523 -3.60355 6.8364 0
M  V30 1288 H 128.868 -3.24692 6.14492 0
M  V30 1289 H 132.059 -2.43912 3.9953 0
M  V30 1290 H 132.232 -3.15831 5.65822 0
M  V30 1291 N 125.638 -1.25649 -0.95132 0
M  V30 1292 C 126.571 -1.00644 -2.04807 0
M  V30 1293 C 127.549 0.0654271 -1.62468 0
M  V30 1294 O 128.733 -0.074911 -1.88351 0
M  V30 1295 C 125.86 -0.522052 -3.34653 0
M  V30 1296 C 124.906 -1.58495 -3.95957 0
M  V30 1297 S 125.739 -3.17108 -4.31512 0
M  V30 1298 C 126.895 -2.70412 -5.64471 0
M  V30 1299 H 127.128 -1.93508 -2.25703 0
M  V30 1300 H 124.661 -1.09216 -1.09139 0
M  V30 1301 H 126.619 -0.24923 -4.09743 0
M  V30 1302 H 125.28 0.386146 -3.11717 0
M  V30 1303 H 124.473 -1.1968 -4.89584 0
M  V30 1304 H 124.075 -1.80862 -3.2736 0
M  V30 1305 H 126.367 -2.14245 -6.42733 0
M  V30 1306 H 127.31 -3.62693 -6.08161 0
M  V30 1307 H 127.718 -2.10302 -5.23864 0
M  V30 1308 N 127.117 1.15442 -1.07289 0
M  V30 1309 C 128.365 1.85845 -0.794096 0
M  V30 1310 C 128.686 1.82692 0.681809 0
M  V30 1311 O 127.956 1.26741 1.49377 0
M  V30 1312 H 126.536 0.688089 -0.290763 0
M  V30 1313 H 129.198 1.39947 -1.3565 0
M  V30 1314 H 128.294 2.91001 -1.12804 0
M  V30 1315 N 128.595 0.856903 1.32268 0
M  V30 1316 C 129.841 0.471355 1.97863 0
M  V30 1317 C 130.196 -0.962896 1.66572 0
M  V30 1318 O 129.489 -1.66686 0.944797 0
M  V30 1319 C 129.683 0.649919 3.51441 0
M  V30 1320 C 129.512 2.09997 3.97657 0
M  V30 1321 C 128.282 2.73893 4.2463 0
M  V30 1322 C 130.48 3.07081 4.1256 0
M  V30 1323 N 128.462 4.09786 4.57109 0
M  V30 1324 C 129.833 4.27968 4.48602 0
M  V30 1325 C 131.888 3.03247 3.949 0
M  V30 1326 C 130.591 5.45521 4.68827 0
M  V30 1327 C 132.617 4.20046 4.16311 0
M  V30 1328 C 131.979 5.39692 4.52672 0
M  V30 1329 H 128.078 0.221263 0.750044 0
M  V30 1330 H 130.662 1.10876 1.60045 0
M  V30 1331 H 128.833 0.0421938 3.88377 0
M  V30 1332 H 130.565 0.234044 4.04023 0
M  V30 1333 H 127.32 2.24918 4.16784 0
M  V30 1334 H 127.744 4.7989 4.7753 0
M  V30 1335 H 132.386 2.11863 3.65888 0
M  V30 1336 H 130.104 6.37434 4.96693 0
M  V30 1337 H 133.69 4.18517 4.04147 0
M  V30 1338 H 132.57 6.28566 4.68907 0
M  V30 1339 N 130.073 -1.45103 0.615059 0
M  V30 1340 C 131.35 -1.95549 0.0448276 0
M  V30 1341 C 131.73 -1.55737 -1.4251 0
M  V30 1342 O 131.078 -0.823556 -2.13143 0
M  V30 1343 C 131.288 -3.48098 0.250785 0
M  V30 1344 C 132.636 -4.24384 0.135509 0
M  V30 1345 O 133.66 -3.55738 0.181299 0
M  V30 1346 O 132.519 -5.46493 0.0268878 0
M  V30 1347 H 129.613 -0.8264 -0.0314845 0
M  V30 1348 H 132.159 -1.55232 0.685642 0
M  V30 1349 H 130.931 -3.7007 1.27139 0
M  V30 1350 H 130.554 -3.95323 -0.424937 0
M  V30 1351 N 131.551 -0.354651 -1.53558 0
M  V30 1352 C 132.461 0.50515 -2.29097 0
M  V30 1353 C 133.477 1.10223 -1.34636 0
M  V30 1354 O 134.653 1.11553 -1.67684 0
M  V30 1355 C 131.718 1.63479 -3.05738 0
M  V30 1356 C 130.779 1.06636 -4.15845 0
M  V30 1357 C 130.012 2.14217 -4.88822 0
M  V30 1358 O 130.235 3.35137 -4.61562 0
M  V30 1359 O 129.169 1.77887 -5.75013 0
M  V30 1360 H 132.995 -0.109237 -3.03503 0
M  V30 1361 H 130.58 -0.119357 -1.48922 0
M  V30 1362 H 132.462 2.2918 -3.5363 0
M  V30 1363 H 131.137 2.23478 -2.34178 0
M  V30 1364 H 130.044 0.373565 -3.7223 0
M  V30 1365 H 131.377 0.511081 -4.89539 0
M  V30 1366 N 133.029 1.57378 -0.0835403 0
M  V30 1367 C 134.259 1.97975 0.590713 0
M  V30 1368 C 134.667 0.961083 1.62972 0
M  V30 1369 O 134.01 -0.0590879 1.83605 0
M  V30 1370 C 134.072 3.34915 1.3066 0
M  V30 1371 C 133.736 4.55069 0.419698 0
M  V30 1372 C 134.733 5.18868 -0.32749 0
M  V30 1373 C 132.418 5.0114 0.341137 0
M  V30 1374 C 134.412 6.27098 -1.14134 0
M  V30 1375 C 132.099 6.0924 -0.476374 0
M  V30 1376 C 133.097 6.72083 -1.21627 0
M  V30 1377 O 132.785 7.781 -2.02028 0
M  V30 1378 H 132.517 0.655818 0.163947 0
M  V30 1379 H 135.071 2.04807 -0.156021 0
M  V30 1380 H 133.301 3.24733 2.09966 0
M  V30 1381 H 134.99 3.60037 1.87424 0
M  V30 1382 H 135.756 4.84211 -0.276459 0
M  V30 1383 H 131.635 4.51996 0.90668 0
M  V30 1384 H 135.179 6.7608 -1.71935 0
M  V30 1385 H 131.076 6.43329 -0.528927 0
M  V30 1386 H 131.844 7.95034 -1.94586 0
M  V30 1387 N 134.507 -0.190092 1.56449 0
M  V30 1388 C 135.754 -0.909705 1.80916 0
M  V30 1389 C 136.082 -1.83047 0.657583 0
M  V30 1390 O 135.337 -1.92428 -0.356356 0
M  V30 1391 C 135.636 -1.75382 3.1141 0
M  V30 1392 C 135.302 -0.983606 4.40041 0
M  V30 1393 C 133.964 -0.770967 4.74984 0
M  V30 1394 C 136.316 -0.442024 5.19322 0
M  V30 1395 C 133.644 -0.0053448 5.867 0
M  V30 1396 C 135.996 0.310412 6.31838 0
M  V30 1397 C 134.66 0.534023 6.6536 0
M  V30 1398 H 133.93 -0.332885 0.662019 0
M  V30 1399 H 136.577 -0.175762 1.90692 0
M  V30 1400 H 134.882 -2.55659 2.96893 0
M  V30 1401 H 136.579 -2.31331 3.27547 0
M  V30 1402 H 133.169 -1.15936 4.12622 0
M  V30 1403 H 137.353 -0.593693 4.92736 0
M  V30 1404 H 132.609 0.177825 6.11141 0
M  V30 1405 H 136.783 0.737419 6.92485 0
M  V30 1406 H 134.41 1.12918 7.51767 0
M  V30 1407 N 135.985 -1.50799 -0.457987 0
M  V30 1408 C 136.915 -1.73553 -1.5621 0
M  V30 1409 C 137.896 -0.584774 -1.59732 0
M  V30 1410 O 139.081 -0.825314 -1.7579 0
M  V30 1411 C 136.211 -1.84169 -2.94447 0
M  V30 1412 C 135.165 -2.99461 -3.0579 0
M  V30 1413 C 134.491 -2.95235 -4.45803 0
M  V30 1414 C 135.791 -4.39766 -2.81786 0
M  V30 1415 H 137.485 -2.66 -1.37421 0
M  V30 1416 H 135.031 -1.28002 -0.659662 0
M  V30 1417 H 136.984 -1.98672 -3.71628 0
M  V30 1418 H 135.708 -0.883545 -3.14422 0
M  V30 1419 H 134.367 -2.8463 -2.31044 0
M  V30 1420 H 134.015 -1.97239 -4.62715 0
M  V30 1421 H 133.715 -3.72642 -4.54326 0
M  V30 1422 H 135.239 -3.11803 -5.24987 0
M  V30 1423 H 136.653 -4.55054 -3.4871 0
M  V30 1424 H 135.05 -5.18722 -3.0174 0
M  V30 1425 H 136.12 -4.51229 -1.7754 0
M  V30 1426 N 137.463 0.71206 -1.40597 0
M  V30 1427 C 138.879 1.02058 -1.22704 0
M  V30 1428 C 139.079 2.01228 -0.104729 0
M  V30 1429 O 138.135 2.4674 0.53624 0
M  V30 1430 C 139.448 1.56094 -2.57012 0
M  V30 1431 C 140.996 1.6806 -2.64054 0
M  V30 1432 C 141.471 2.25501 -3.9864 0
M  V30 1433 N 142.962 2.32882 -4.004 0
M  V30 1434 C 143.697 2.78317 -5.01325 0
M  V30 1435 N 143.193 3.23478 -6.12645 0
M  V30 1436 N 144.986 2.77733 -4.88693 0
M  V30 1437 H 137.137 0.0547896 -2.12329 0
M  V30 1438 H 139.4 0.0869027 -0.944008 0
M  V30 1439 H 139.106 0.906865 -3.39807 0
M  V30 1440 H 138.98 2.54564 -2.78347 0
M  V30 1441 H 141.367 2.32583 -1.81629 0
M  V30 1442 H 141.448 0.681802 -2.46546 0
M  V30 1443 H 141.092 1.61598 -4.81506 0
M  V30 1444 H 141.022 3.26102 -4.13479 0
M  V30 1445 H 143.513 2.00991 -3.20017 0
M  V30 1446 H 143.826 3.56725 -6.85542 0
M  V30 1447 H 142.171 3.21429 -6.16205 0
M  V30 1448 H 145.362 2.4179 -4.00818 0
M  V30 1449 H 145.535 3.12826 -5.67489 0
M  V30 1450 N 138.941 1.26152 0.944643 0
M  V30 1451 C 139.888 1.07408 2.04285 0
M  V30 1452 C 140.858 -0.0198413 1.66088 0
M  V30 1453 O 142.043 0.139264 1.90291 0
M  V30 1454 C 139.183 0.70945 3.37729 0
M  V30 1455 C 138.296 1.87926 3.88983 0
M  V30 1456 C 137.431 1.45807 5.10797 0
M  V30 1457 C 136.47 2.5964 5.54305 0
M  V30 1458 N 135.607 2.18226 6.67324 0
M  V30 1459 H 140.447 2.01389 2.1965 0
M  V30 1460 H 137.984 1.00275 1.07626 0
M  V30 1461 H 139.942 0.478948 4.14442 0
M  V30 1462 H 138.572 -0.193389 3.2222 0
M  V30 1463 H 137.624 2.22279 3.08701 0
M  V30 1464 H 138.936 2.73377 4.17213 0
M  V30 1465 H 138.09 1.18781 5.94959 0
M  V30 1466 H 136.829 0.574414 4.84305 0
M  V30 1467 H 135.834 2.87399 4.68702 0
M  V30 1468 H 137.059 3.48599 5.828 0
M  V30 1469 H 135.005 1.3229 6.42523 0
M  V30 1470 H 134.922 2.97221 6.95123 0
M  V30 1471 H 136.19 1.94403 7.54869 0
M  V30 1472 N 140.419 -1.14872 1.07899 0
M  V30 1473 C 141.667 -1.85422 0.803941 0
M  V30 1474 C 141.988 -1.83051 -0.67211 0
M  V30 1475 O 141.258 -1.27532 -1.48703 0
M  V30 1476 H 139.838 -0.686537 0.294408 0
M  V30 1477 H 142.5 -1.39226 1.3639 0
M  V30 1478 H 141.596 -2.90399 1.14346 0
M  V30 1479 N 141.898 -0.863906 -1.31812 0
M  V30 1480 C 143.128 -0.485406 -2.00817 0
M  V30 1481 C 143.536 0.925007 -1.65046 0
M  V30 1482 O 142.879 1.61653 -0.872574 0
M  V30 1483 C 142.941 -0.555589 -3.55181 0
M  V30 1484 C 142.605 -1.92654 -4.14407 0
M  V30 1485 C 143.602 -2.89324 -4.31958 0
M  V30 1486 C 141.287 -2.2262 -4.50273 0
M  V30 1487 C 143.281 -4.14108 -4.84555 0
M  V30 1488 C 140.968 -3.47654 -5.02573 0
M  V30 1489 C 141.966 -4.43214 -5.19664 0
M  V30 1490 O 141.654 -5.66033 -5.70843 0
M  V30 1491 H 141.386 -0.188224 -0.649267 0
M  V30 1492 H 143.94 -1.16514 -1.69156 0
M  V30 1493 H 142.17 0.181037 -3.86276 0
M  V30 1494 H 143.859 -0.19138 -4.05449 0
M  V30 1495 H 144.625 -2.6748 -4.04573 0
M  V30 1496 H 140.504 -1.4902 -4.3625 0
M  V30 1497 H 144.048 -4.88703 -4.9781 0
M  V30 1498 H 139.945 -3.69345 -5.29391 0
M  V30 1499 H 140.713 -5.6812 -5.89222 0
M  V30 1500 N 143.376 1.44774 -0.622745 0
M  V30 1501 C 144.601 2.06999 -0.128968 0
M  V30 1502 C 145.026 1.4617 1.1839 0
M  V30 1503 O 144.384 0.560007 1.72434 0
M  V30 1504 C 144.432 3.60595 -0.0188351 0
M  V30 1505 O 143.536 3.99398 1.02739 0
M  V30 1506 H 142.877 0.659047 -0.0809544 0
M  V30 1507 H 145.407 1.85784 -0.85705 0
M  V30 1508 H 145.417 4.07627 0.174476 0
M  V30 1509 H 144.092 4.04252 -0.977384 0
M  V30 1510 H 142.669 3.64011 0.809326 0
M  V30 1511 N 144.854 0.36279 1.53368 0
M  V30 1512 C 146.082 -0.228613 2.05633 0
M  V30 1513 C 146.497 -1.42676 1.23649 0
M  V30 1514 O 145.854 -1.80394 0.27647 0
M  V30 1515 C 145.905 -0.624845 3.56059 0
M  V30 1516 O 145.626 0.525675 4.34935 0
M  V30 1517 C 147.127 -1.27493 4.24571 0
M  V30 1518 H 144.347 -0.0407183 0.669763 0
M  V30 1519 H 146.891 0.520352 1.97769 0
M  V30 1520 H 145.046 -1.32373 3.64083 0
M  V30 1521 H 145.46 0.205969 5.24095 0
M  V30 1522 H 146.934 -1.50277 5.31151 0
M  V30 1523 H 147.411 -2.23439 3.78116 0
M  V30 1524 H 148.017 -0.617558 4.20792 0
M  V30 1525 N 146.332 -1.57332 0.0918853 0
M  V30 1526 C 147.562 -1.98286 -0.580205 0
M  V30 1527 C 147.97 -0.969713 -1.6246 0
M  V30 1528 O 147.313 0.0493501 -1.83634 0
M  V30 1529 C 147.375 -3.35603 -1.28882 0
M  V30 1530 C 147.039 -4.55285 -0.395559 0
M  V30 1531 C 148.036 -5.18687 0.355002 0
M  V30 1532 C 145.721 -5.01314 -0.314556 0
M  V30 1533 C 147.715 -6.26484 1.17458 0
M  V30 1534 C 145.402 -6.08979 0.508677 0
M  V30 1535 C 146.4 -6.71429 1.2519 0
M  V30 1536 O 146.088 -7.77018 2.06151 0
M  V30 1537 H 145.82 -0.656678 -0.160466 0
M  V30 1538 H 148.374 -2.04721 0.16688 0
M  V30 1539 H 146.604 -3.25842 -2.08241 0
M  V30 1540 H 148.293 -3.61026 -1.85512 0
M  V30 1541 H 149.059 -4.84058 0.302134 0
M  V30 1542 H 144.938 -4.5247 -0.882697 0
M  V30 1543 H 148.482 -6.75159 1.75518 0
M  V30 1544 H 144.379 -6.4304 0.563037 0
M  V30 1545 H 145.147 -7.93991 1.98799 0
M  V30 1546 N 147.81 0.181792 -1.56548 0
M  V30 1547 C 149.056 0.901431 -1.81665 0
M  V30 1548 C 149.389 1.82347 -0.668075 0
M  V30 1549 O 148.664 1.91669 0.330615 0
M  V30 1550 C 148.947 1.70618 -3.17115 0
M  V30 1551 C 148.8 0.807964 -4.42484 0
M  V30 1552 C 150.119 2.67605 -3.49393 0
M  V30 1553 H 147.238 0.32627 -0.660846 0
M  V30 1554 H 149.88 0.168134 -1.89255 0
M  V30 1555 H 148.03 2.33133 -3.10775 0
M  V30 1556 H 149.702 0.19649 -4.60881 0
M  V30 1557 H 147.945 0.115411 -4.33646 0
M  V30 1558 H 148.616 1.40632 -5.33785 0
M  V30 1559 H 151.092 2.15218 -3.56118 0
M  V30 1560 H 149.968 3.20985 -4.45264 0
M  V30 1561 H 150.229 3.47298 -2.73563 0
M  V30 1562 N 149.288 1.51039 0.449983 0
M  V30 1563 C 150.537 1.62317 1.19733 0
M  V30 1564 C 150.85 0.339101 1.92638 0
M  V30 1565 O 152.056 0.331069 2.69474 0
M  V30 1566 C 150.512 2.86608 2.17678 0
M  V30 1567 C 150.12 4.21972 1.50479 0
M  V30 1568 C 151.864 3.07239 2.92924 0
M  V30 1569 C 149.771 5.37426 2.46834 0
M  V30 1570 H 148.701 0.604532 0.450619 0
M  V30 1571 H 151.352 1.77494 0.465625 0
M  V30 1572 H 149.734 2.65037 2.94231 0
M  V30 1573 H 150.908 4.53878 0.795716 0
M  V30 1574 H 149.223 4.07117 0.874344 0
M  V30 1575 H 151.82 3.90668 3.65079 0
M  V30 1576 H 152.163 2.19807 3.5354 0
M  V30 1577 H 152.696 3.29091 2.23481 0
M  V30 1578 H 149.435 6.27079 1.90926 0
M  V30 1579 H 148.955 5.09912 3.15832 0
M  V30 1580 H 150.634 5.68862 3.08228 0
M  V30 1581 N 150.766 -0.704594 1.40972 0
M  V30 1582 C 152.043 -1.45847 1.30338 0
M  V30 1583 C 152.423 -2.10973 -0.0732344 0
M  V30 1584 O 151.771 -2.00997 -1.08685 0
M  V30 1585 C 151.981 -2.48525 2.45023 0
M  V30 1586 C 153.329 -3.1404 2.8577 0
M  V30 1587 O 154.353 -2.58848 2.44696 0
M  V30 1588 O 153.212 -4.13981 3.56766 0
M  V30 1589 H 150.306 -0.649092 0.512454 0
M  V30 1590 H 152.852 -0.735836 1.52917 0
M  V30 1591 H 151.624 -1.98994 3.36923 0
M  V30 1592 H 151.247 -3.2831 2.24272 0
M  V30 1593 N 152.244 -1.26651 -0.937939 0
M  V30 1594 C 153.176 -1.04283 -2.04102 0
M  V30 1595 C 154.189 -0.00221014 -1.628 0
M  V30 1596 O 155.378 -0.242645 -1.76843 0
M  V30 1597 C 152.478 -0.557846 -3.34277 0
M  V30 1598 C 151.651 -1.66843 -4.04329 0
M  V30 1599 C 150.71 -1.18095 -5.12777 0
M  V30 1600 O 149.736 -1.87865 -5.37304 0
M  V30 1601 N 150.938 -0.0311006 -5.80492 0
M  V30 1602 H 153.703 -1.9927 -2.23856 0
M  V30 1603 H 151.264 -1.1808 -1.10764 0
M  V30 1604 H 153.256 -0.215836 -4.04124 0
M  V30 1605 H 151.826 0.298523 -3.11171 0
M  V30 1606 H 151.046 -2.18123 -3.28353 0
M  V30 1607 H 152.334 -2.41408 -4.47883 0
M  V30 1608 H 151.732 0.551486 -5.63005 0
M  V30 1609 H 150.289 0.251809 -6.51313 0
M  V30 1610 N 153.722 1.14298 -1.08507 0
M  V30 1611 C 154.947 1.8976 -0.837001 0
M  V30 1612 C 155.372 1.78097 0.605228 0
M  V30 1613 O 154.73 1.12188 1.4242 0
M  V30 1614 C 154.778 3.37685 -1.26495 0
M  V30 1615 O 153.882 4.10281 -0.417514 0
M  V30 1616 H 153.223 0.590365 -0.303917 0
M  V30 1617 H 155.753 1.44672 -1.44676 0
M  V30 1618 H 155.763 3.88501 -1.24625 0
M  V30 1619 H 154.438 3.45492 -2.31534 0
M  V30 1620 H 153.015 3.69536 -0.499722 0
M  V30 1621 N 155.201 0.870884 1.31352 0
M  V30 1622 C 156.449 0.48132 1.96285 0
M  V30 1623 C 156.77 -0.969813 1.69173 0
M  V30 1624 O 156.04 -1.67998 1.00764 0
M  V30 1625 H 154.62 0.175002 0.726212 0
M  V30 1626 H 157.282 1.11087 1.60143 0
M  V30 1627 H 156.378 0.639825 3.05471 0
M  V30 1628 N 156.679 -1.44442 0.630414 0
M  V30 1629 C 158.095 -1.56832 0.295973 0
M  V30 1630 C 158.295 -1.61806 -1.20088 0
M  V30 1631 O 157.351 -1.5607 -1.9849 0
M  V30 1632 C 158.664 -2.84031 0.987264 0
M  V30 1633 C 160.212 -2.97742 0.96534 0
M  V30 1634 C 160.687 -4.27743 1.63708 0
M  V30 1635 N 162.178 -4.34555 1.60364 0
M  V30 1636 C 162.913 -5.33862 2.09234 0
M  V30 1637 N 162.409 -6.39578 2.66292 0
M  V30 1638 N 164.202 -5.25366 1.99867 0
M  V30 1639 H 156.353 -1.39457 1.60205 0
M  V30 1640 H 158.616 -0.668237 0.672431 0
M  V30 1641 H 158.322 -2.86338 2.04215 0
M  V30 1642 H 158.196 -3.73534 0.524588 0
M  V30 1643 H 160.583 -2.94989 -0.0810639 0
M  V30 1644 H 160.664 -2.09589 1.4665 0
M  V30 1645 H 160.308 -4.31255 2.68293 0
M  V30 1646 H 160.238 -5.14752 1.11076 0
M  V30 1647 H 162.729 -3.58772 1.18705 0
M  V30 1648 H 163.042 -7.11637 3.01317 0
M  V30 1649 H 161.387 -6.40265 2.70343 0
M  V30 1650 H 164.578 -4.41688 1.55013 0
M  V30 1651 H 164.751 -6.02606 2.38265 0
M  V30 1652 N 158.157 -0.370918 -1.53173 0
M  V30 1653 C 159.405 0.216673 -2.00935 0
M  V30 1654 C 159.726 1.48845 -1.25977 0
M  V30 1655 O 158.996 1.92286 -0.374551 0
M  V30 1656 H 157.576 0.0830565 -0.742368 0
M  V30 1657 H 160.238 -0.49838 -1.8842 0
M  V30 1658 H 159.334 0.439893 -3.08984 0
M  V30 1659 N 159.635 1.57281 -0.100228 0
M  V30 1660 C 161.051 1.57527 0.256416 0
M  V30 1661 C 161.251 1.11173 1.68056 0
M  V30 1662 O 160.307 0.79053 2.39806 0
M  V30 1663 C 161.62 3.00673 0.0401747 0
M  V30 1664 C 163.168 3.12815 0.107528 0
M  V30 1665 C 163.643 4.57929 -0.0807834 0
M  V30 1666 N 165.134 4.63193 -0.0261207 0
M  V30 1667 C 165.869 5.73212 -0.146999 0
M  V30 1668 N 165.365 6.92047 -0.322999 0
M  V30 1669 N 167.158 5.62031 -0.0879044 0
M  V30 1670 H 159.309 1.85718 -1.03065 0
M  V30 1671 H 161.572 0.857446 -0.404339 0
M  V30 1672 H 161.278 3.38804 -0.943649 0
M  V30 1673 H 161.152 3.69042 0.780262 0
M  V30 1674 H 163.539 2.74554 1.08186 0
M  V30 1675 H 163.62 2.47028 -0.664134 0
M  V30 1676 H 163.264 4.96886 -1.05201 0
M  V30 1677 H 163.194 5.21783 0.710635 0
M  V30 1678 H 165.685 3.77748 0.107161 0
M  V30 1679 H 165.998 7.7173 -0.406608 0
M  V30 1680 H 164.343 6.94074 -0.358733 0
M  V30 1681 H 167.534 4.68075 0.048498 0
M  V30 1682 H 167.707 6.47734 -0.185557 0
M  V30 1683 N 161.113 -0.173488 1.56642 0
M  V30 1684 C 162.338 -0.910149 1.86363 0
M  V30 1685 C 162.763 -1.75132 0.686318 0
M  V30 1686 O 162.121 -1.77595 -0.364643 0
M  V30 1687 C 162.169 -1.76447 3.14482 0
M  V30 1688 O 161.273 -2.86584 2.96553 0
M  V30 1689 H 160.614 -0.255086 0.613047 0
M  V30 1690 H 163.144 -0.172283 2.03873 0
M  V30 1691 H 163.154 -2.16483 3.45831 0
M  V30 1692 H 161.829 -1.14658 3.99783 0
M  V30 1693 H 160.406 -2.50146 2.76553 0
M  V30 1694 N 162.591 -1.51276 -0.441967 0
M  V30 1695 C 163.554 -1.7167 -1.51862 0
M  V30 1696 C 164.554 -0.586793 -1.49711 0
M  V30 1697 O 165.744 -0.854276 -1.51815 0
M  V30 1698 C 162.876 -1.76889 -2.91416 0
M  V30 1699 H 164.069 -2.67754 -1.35084 0
M  V30 1700 H 161.622 -1.41196 -0.670333 0
M  V30 1701 H 162.357 -0.826026 -3.13604 0
M  V30 1702 H 162.142 -2.59001 -2.94382 0
M  V30 1703 H 163.632 -1.94522 -3.69528 0
M  V30 1704 N 164.069 0.697108 -1.41344 0
M  V30 1705 C 165.297 1.48593 -1.43972 0
M  V30 1706 C 165.712 1.88747 -0.0445612 0
M  V30 1707 O 165.069 1.56682 0.935785 0
M  V30 1708 C 165.12 2.74946 -2.34706 0
M  V30 1709 O 164.841 2.36484 -3.68791 0
M  V30 1710 C 166.342 3.687 -2.46121 0
M  V30 1711 H 163.562 0.457964 -0.490418 0
M  V30 1712 H 166.106 0.858429 -1.8561 0
M  V30 1713 H 164.261 3.33937 -1.9638 0
M  V30 1714 H 164.675 3.17918 -4.17167 0
M  V30 1715 H 166.149 4.54145 -3.13777 0
M  V30 1716 H 166.626 4.13081 -1.49199 0
M  V30 1717 H 167.232 3.15613 -2.85076 0
M  V30 1718 N 165.547 1.27147 0.931209 0
M  V30 1719 C 166.824 1.0401 1.65654 0
M  V30 1720 C 167.204 -0.426297 2.06751 0
M  V30 1721 O 166.552 -1.40879 1.79904 0
M  V30 1722 C 166.762 1.99834 2.86125 0
M  V30 1723 C 168.11 2.29007 3.57549 0
M  V30 1724 O 169.134 1.97779 2.96246 0
M  V30 1725 O 167.993 2.82222 4.67989 0
M  V30 1726 H 165.087 0.396239 0.725895 0
M  V30 1727 H 167.633 1.38397 0.982056 0
M  V30 1728 H 166.405 2.98744 2.52721 0
M  V30 1729 H 166.028 1.65987 3.61295 0
M  V30 1730 N 167.025 -1.13721 1.09112 0
M  V30 1731 C 168.274 -1.84275 0.82009 0
M  V30 1732 C 168.587 -1.84253 -0.656509 0
M  V30 1733 O 169.793 -2.50668 -1.04296 0
M  V30 1734 C 168.249 -3.30825 1.41714 0
M  V30 1735 C 167.857 -3.39244 2.92605 0
M  V30 1736 C 169.601 -4.06443 1.22492 0
M  V30 1737 C 167.508 -4.80047 3.45411 0
M  V30 1738 H 166.438 -0.690387 0.30312 0
M  V30 1739 H 169.089 -1.28146 1.31343 0
M  V30 1740 H 167.471 -3.86737 0.851498 0
M  V30 1741 H 168.645 -2.93344 3.55367 0
M  V30 1742 H 166.96 -2.77088 3.10823 0
M  V30 1743 H 169.557 -5.10387 1.59402 0
M  V30 1744 H 169.9 -4.15972 0.165299 0
M  V30 1745 H 170.433 -3.56852 1.75788 0
M  V30 1746 H 167.172 -4.75709 4.50978 0
M  V30 1747 H 166.692 -5.26455 2.87411 0
M  V30 1748 H 168.371 -5.48957 3.42425 0
M  V30 1749 N 168.503 -0.877838 -1.30888 0
M  V30 1750 C 169.728 -0.506629 -2.01117 0
M  V30 1751 C 170.153 0.895564 -1.65412 0
M  V30 1752 O 169.511 1.5923 -0.866922 0
M  V30 1753 C 169.559 -0.680223 -3.54126 0
M  V30 1754 O 168.663 0.277033 -4.11468 0
M  V30 1755 H 168.004 -0.200518 -0.633 0
M  V30 1756 H 170.534 -1.18342 -1.66902 0
M  V30 1757 H 170.544 -0.5765 -4.03907 0
M  V30 1758 H 169.219 -1.70261 -3.79452 0
M  V30 1759 H 167.796 0.127606 -3.72682 0
M  V30 1760 N 169.982 1.44106 -0.638065 0
M  V30 1761 C 170.945 2.29138 0.0531013 0
M  V30 1762 C 171.945 1.41409 0.765506 0
M  V30 1763 O 173.135 1.63206 0.609046 0
M  V30 1764 C 170.267 3.23144 1.08584 0
M  V30 1765 H 171.46 2.91739 -0.694883 0
M  V30 1766 H 169.013 1.51134 -0.398538 0
M  V30 1767 H 169.748 2.65408 1.86357 0
M  V30 1768 H 169.533 3.87804 0.578852 0
M  V30 1769 H 171.023 3.87004 1.56899 0
M  V30 1770 N 171.46 0.379036 1.52974 0
M  V30 1771 C 172.709 -0.207612 2.00629 0
M  V30 1772 C 173.022 -1.48758 1.27006 0
M  V30 1773 O 174.228 -2.15365 1.65318 0
M  V30 1774 C 172.684 -0.42053 3.57435 0
M  V30 1775 C 172.292 0.845587 4.39948 0
M  V30 1776 C 174.036 -0.964102 4.13407 0
M  V30 1777 C 171.943 0.601513 5.88333 0
M  V30 1778 H 170.873 -0.0813591 0.749598 0
M  V30 1779 H 173.524 0.499853 1.76561 0
M  V30 1780 H 171.906 -1.18959 3.7771 0
M  V30 1781 H 173.08 1.61848 4.31442 0
M  V30 1782 H 171.395 1.31336 3.95145 0
M  V30 1783 H 173.992 -1.16225 5.21916 0
M  V30 1784 H 174.335 -1.93019 3.68849 0
M  V30 1785 H 174.868 -0.25487 3.96983 0
M  V30 1786 H 171.607 1.53831 6.37194 0
M  V30 1787 H 171.127 -0.132628 5.99653 0
M  V30 1788 H 172.806 0.232134 6.46583 0
M  V30 1789 N 172.938 -1.57226 0.108567 0
M  V30 1790 C 173.886 -2.16002 -0.862885 0
M  V30 1791 C 174.88 -1.10644 -1.28274 0
M  V30 1792 O 176.086 -1.28966 -1.2557 0
M  V30 1793 H 172.461 -0.691148 -0.296342 0
M  V30 1794 H 174.432 -2.96427 -0.342575 0
M  V30 1795 C 173.181 -2.76576 -2.10716 0
M  V30 1796 H 172.504 -3.5734 -1.793 0
M  V30 1797 H 173.944 -3.21253 -2.76717 0
M  V30 1798 C 172.403 -1.73137 -2.89007 0
M  V30 1799 O 172.933 -1.17842 -3.84026 0
M  V30 1800 N 171.139 -1.43317 -2.52801 0
M  V30 1801 H 170.686 -1.88473 -1.75601 0
M  V30 1802 H 170.644 -0.743485 -3.05483 0
M  V30 1803 N 174.416 0.165178 -1.56732 0
M  V30 1804 C 175.379 1.18822 -1.95995 0
M  V30 1805 C 176.379 1.3685 -0.84431 0
M  V30 1806 O 177.569 1.34152 -1.11126 0
M  V30 1807 C 174.701 2.5521 -2.26011 0
M  V30 1808 H 175.894 0.851825 -2.87548 0
M  V30 1809 H 173.447 0.407857 -1.50885 0
M  V30 1810 H 174.182 2.93852 -1.37191 0
M  V30 1811 H 173.967 2.43489 -3.07336 0
M  V30 1812 H 175.457 3.28927 -2.57288 0
M  V30 1813 N 175.894 1.51508 0.433938 0
M  V30 1814 C 177.14 1.64588 1.18484 0
M  V30 1815 C 177.473 0.362666 1.90784 0
M  V30 1816 O 176.748 -0.637892 1.83742 0
M  V30 1817 C 177.031 2.85149 2.19913 0
M  V30 1818 C 176.884 4.23456 1.51674 0
M  V30 1819 C 178.203 3.01227 3.20858 0
M  V30 1820 H 175.322 0.598994 0.429389 0
M  V30 1821 H 177.964 1.84002 0.473647 0
M  V30 1822 H 176.114 2.68729 2.80566 0
M  V30 1823 H 177.786 4.51552 0.943322 0
M  V30 1824 H 176.029 4.25998 0.819035 0
M  V30 1825 H 176.7 5.03812 2.2556 0
M  V30 1826 H 179.176 3.16382 2.70263 0
M  V30 1827 H 178.052 3.87141 3.89118 0
M  V30 1828 H 178.313 2.13447 3.8716 0
M  V30 1829 N 177.372 -0.689602 1.41712 0
M  V30 1830 C 178.319 -1.80345 1.44029 0
M  V30 1831 C 179.289 -1.63478 0.293948 0
M  V30 1832 O 180.474 -1.84244 0.495869 0
M  V30 1833 C 177.614 -3.18272 1.33405 0
M  V30 1834 C 176.727 -3.46529 2.57956 0
M  V30 1835 C 175.862 -4.74103 2.39582 0
M  V30 1836 C 174.901 -4.95347 3.5958 0
M  V30 1837 N 174.038 -6.14151 3.40239 0
M  V30 1838 H 178.878 -1.77698 2.39222 0
M  V30 1839 H 176.415 -0.867688 1.18784 0
M  V30 1840 H 178.373 -3.97956 1.25246 0
M  V30 1841 H 177.003 -3.2008 0.418164 0
M  V30 1842 H 176.055 -2.61207 2.76542 0
M  V30 1843 H 177.367 -3.58126 3.47199 0
M  V30 1844 H 176.521 -5.61853 2.28924 0
M  V30 1845 H 175.26 -4.64763 1.47805 0
M  V30 1846 H 174.265 -4.06044 3.70686 0
M  V30 1847 H 175.49 -5.06542 4.52318 0
M  V30 1848 H 173.436 -6.06013 2.51167 0
M  V30 1849 H 173.353 -6.26543 4.23061 0
M  V30 1850 H 174.621 -7.04619 3.33365 0
M  V30 1851 N 178.85 -1.27639 -0.924453 0
M  V30 1852 C 179.78 -1.13166 -2.04244 0
M  V30 1853 C 180.761 -0.032256 -1.70069 0
M  V30 1854 O 181.946 -0.207328 -1.9309 0
M  V30 1855 C 179.076 -0.781496 -3.38393 0
M  V30 1856 C 178.03 -1.83449 -3.86692 0
M  V30 1857 C 177.356 -1.33822 -5.17683 0
M  V30 1858 C 178.656 -3.23917 -4.09726 0
M  V30 1859 H 180.35 -2.06689 -2.1661 0
M  V30 1860 H 177.896 -0.995136 -1.04082 0
M  V30 1861 H 179.849 -0.667057 -4.16087 0
M  V30 1862 H 178.573 0.189439 -3.2605 0
M  V30 1863 H 177.232 -1.93789 -3.11193 0
M  V30 1864 H 176.88 -0.35665 -5.01734 0
M  V30 1865 H 176.58 -2.04224 -5.50968 0
M  V30 1866 H 178.104 -1.23679 -5.97943 0
M  V30 1867 H 179.518 -3.16559 -4.77978 0
M  V30 1868 H 177.915 -3.92059 -4.54324 0
M  V30 1869 H 178.985 -3.68729 -3.14908 0
M  V30 1870 N 180.328 1.1314 -1.09713 0
M  V30 1871 C 181.576 1.84119 -0.833338 0
M  V30 1872 C 181.897 1.84097 0.642904 0
M  V30 1873 O 181.167 1.29881 1.46655 0
M  V30 1874 H 179.747 0.681766 -0.305293 0
M  V30 1875 H 182.409 1.37038 -1.38588 0
M  V30 1876 H 181.505 2.88543 -1.18951 0
M  V30 1877 N 181.806 0.884767 1.30421 0
M  V30 1878 C 182.753 0.349642 2.28136 0
M  V30 1879 C 183.723 -0.560061 1.56373 0
M  V30 1880 O 184.908 -0.488524 1.8444 0
M  V30 1881 C 182.048 -0.42999 3.42411 0
M  V30 1882 C 181.161 0.508907 4.28992 0
M  V30 1883 C 180.296 -0.286301 5.30428 0
M  V30 1884 C 179.335 0.648079 6.08659 0
M  V30 1885 N 178.472 -0.111792 7.02011 0
M  V30 1886 H 183.312 1.18807 2.73293 0
M  V30 1887 H 180.849 0.597231 1.3443 0
M  V30 1888 H 182.807 -0.897923 4.07423 0
M  V30 1889 H 181.437 -1.23299 2.98324 0
M  V30 1890 H 180.489 1.09533 3.64289 0
M  V30 1891 H 181.801 1.22475 4.8353 0
M  V30 1892 H 180.955 -0.816098 6.01186 0
M  V30 1893 H 179.694 -1.03536 4.76583 0
M  V30 1894 H 178.699 1.18951 5.36778 0
M  V30 1895 H 179.924 1.39623 6.64592 0
M  V30 1896 H 177.87 -0.843395 6.50556 0
M  V30 1897 H 177.787 0.544429 7.54037 0
M  V30 1898 H 179.055 -0.622339 7.77012 0
M  V30 1899 N 183.284 -1.43765 0.645699 0
M  V30 1900 C 184.247 -2.29163 -0.0409488 0
M  V30 1901 C 185.247 -1.41813 -0.757996 0
M  V30 1902 O 186.437 -1.63527 -0.600382 0
M  V30 1903 C 183.569 -3.23716 -1.06869 0
M  V30 1904 H 184.762 -2.91366 0.710345 0
M  V30 1905 H 182.315 -1.5092 0.406547 0
M  V30 1906 H 183.05 -2.66393 -1.84947 0
M  V30 1907 H 182.835 -3.88105 -0.558277 0
M  V30 1908 H 184.325 -3.87831 -1.54845 0
M  V30 1909 N 184.763 -0.387143 -1.52771 0
M  V30 1910 C 186.174 0.0873634 -1.86495 0
M  V30 1911 C 186.525 1.46336 -1.30691 0
M  V30 1912 O 185.65 2.068 -0.637409 0
M  V30 1913 C 186.245 0.165305 -3.38396 0
M  V30 1914 C 184.804 0.584101 -3.7184 0
M  V30 1915 C 183.951 -0.255279 -2.76122 0
M  V30 1916 H 186.902 -0.605104 -1.46711 0
M  V30 1917 H 186.923 0.984848 -3.67534 0
M  V30 1918 H 186.435 -0.836301 -3.78982 0
M  V30 1919 H 184.536 1.59315 -3.36823 0
M  V30 1920 H 184.649 0.343749 -4.77865 0
M  V30 1921 H 183.013 0.279126 -2.53166 0
M  V30 1922 H 183.796 -1.25482 -3.19545 0
M  V30 1923 N 186.241 1.57166 -0.116904 0
M  V30 1924 C 187.204 2.14039 0.819742 0
M  V30 1925 C 188.204 1.07477 1.19605 0
M  V30 1926 O 189.394 1.33263 1.1219 0
M  V30 1927 C 186.526 2.67891 2.10826 0
M  V30 1928 H 187.719 2.98128 0.325511 0
M  V30 1929 H 185.272 1.55739 0.132312 0
M  V30 1930 H 186.007 1.87384 2.64685 0
M  V30 1931 H 185.792 3.45823 1.84793 0
M  V30 1932 H 187.282 3.11809 2.77785 0
M  V30 1933 N 187.719 -0.156864 1.56817 0
M  V30 1934 C 188.944 -0.890331 1.87318 0
M  V30 1935 C 189.369 -1.74394 0.704855 0
M  V30 1936 O 188.727 -1.77972 -0.345786 0
M  V30 1937 C 188.775 -1.73102 3.16336 0
M  V30 1938 O 187.879 -2.83422 2.99576 0
M  V30 1939 H 187.22 -0.24857 0.615718 0
M  V30 1940 H 189.75 -0.150649 2.04045 0
M  V30 1941 H 189.76 -2.12803 3.48107 0
M  V30 1942 H 188.435 -1.10412 4.00976 0
M  V30 1943 H 187.012 -2.47199 2.7919 0
M  V30 1944 N 189.197 -1.51736 -0.425897 0
M  V30 1945 C 190.422 -1.69082 -1.20108 0
M  V30 1946 C 190.847 -0.392398 -1.83962 0
M  V30 1947 O 190.205 0.64858 -1.69302 0
M  V30 1948 C 190.253 -2.81604 -2.25237 0
M  V30 1949 O 189.357 -2.46004 -3.30992 0
M  V30 1950 H 188.698 -0.563408 -0.35138 0
M  V30 1951 H 191.228 -1.98358 -0.501512 0
M  V30 1952 H 191.238 -3.06025 -2.69838 0
M  V30 1953 H 189.913 -3.75817 -1.78142 0
M  V30 1954 H 188.49 -2.32195 -2.91787 0
M  V30 1955 N 190.675 0.682077 -1.42076 0
M  V30 1956 C 191.605 1.80796 -1.47767 0
M  V30 1957 C 192.586 1.6677 -0.334954 0
M  V30 1958 O 193.771 1.863 -0.548264 0
M  V30 1959 C 190.901 3.19038 -1.37229 0
M  V30 1960 C 189.855 3.47789 -2.49453 0
M  V30 1961 C 189.181 4.8553 -2.23975 0
M  V30 1962 C 190.481 3.45411 -3.91776 0
M  V30 1963 H 192.175 1.7629 -2.41997 0
M  V30 1964 H 189.721 0.846721 -1.16476 0
M  V30 1965 H 191.674 3.97528 -1.39821 0
M  V30 1966 H 190.398 3.24204 -0.394907 0
M  V30 1967 H 189.057 2.71657 -2.46166 0
M  V30 1968 H 188.705 4.87337 -1.24547 0
M  V30 1969 H 188.405 5.0573 -2.99184 0
M  V30 1970 H 189.929 5.66312 -2.28304 0
M  V30 1971 H 191.343 4.13882 -3.96705 0
M  V30 1972 H 189.74 3.77145 -4.66778 0
M  V30 1973 H 190.81 2.44122 -4.18966 0
M  V30 1974 N 192.153 1.28127 0.917671 0
M  V30 1975 C 193.564 1.13622 1.48145 0
M  V30 1976 C 193.915 -0.275207 1.9426 0
M  V30 1977 O 193.04 -1.1691 1.82102 0
M  V30 1978 C 193.635 2.05648 2.69248 0
M  V30 1979 C 192.194 1.95219 3.21818 0
M  V30 1980 C 191.341 1.97618 1.94532 0
M  V30 1981 H 194.292 1.40874 0.730772 0
M  V30 1982 H 194.313 1.61818 3.44377 0
M  V30 1983 H 193.825 3.08365 2.35653 0
M  V30 1984 H 191.926 0.955244 3.60147 0
M  V30 1985 H 192.039 2.81976 3.87333 0
M  V30 1986 H 190.403 1.41973 2.11461 0
M  V30 1987 H 191.186 3.02007 1.63238 0
M  V30 1988 N 193.631 -1.12557 1.10312 0
M  V30 1989 C 194.908 -1.80363 0.756878 0
M  V30 1990 C 195.288 -1.97067 -0.756824 0
M  V30 1991 O 194.636 -1.54601 -1.68259 0
M  V30 1992 C 194.846 -3.14812 1.50647 0
M  V30 1993 C 196.194 -3.90029 1.67817 0
M  V30 1994 O 197.218 -3.24464 1.46974 0
M  V30 1995 O 196.077 -5.07652 2.02365 0
M  V30 1996 H 193.171 -0.780667 0.272926 0
M  V30 1997 H 195.717 -1.19404 1.20586 0
M  V30 1998 H 194.489 -2.97936 2.53672 0
M  V30 1999 H 194.112 -3.83478 1.05026 0
M  V30 2000 N 195.109 -0.891671 -1.2995 0
M  V30 2001 C 196.039 -0.379797 -2.30391 0
M  V30 2002 C 197.02 0.540919 -1.6127 0
M  V30 2003 O 198.205 0.453352 -1.88834 0
M  V30 2004 C 195.335 0.400654 -3.44981 0
M  V30 2005 C 194.289 -0.428905 -4.25846 0
M  V30 2006 C 193.615 0.478557 -5.32554 0
M  V30 2007 C 194.915 -1.67458 -4.94727 0
M  V30 2008 H 196.609 -1.21914 -2.73454 0
M  V30 2009 H 194.155 -0.587675 -1.31462 0
M  V30 2010 H 196.108 0.769434 -4.14316 0
M  V30 2011 H 194.832 1.27371 -3.0074 0
M  V30 2012 H 193.491 -0.779911 -3.58208 0
M  V30 2013 H 193.139 1.34951 -4.84559 0
M  V30 2014 H 192.839 -0.0727433 -5.87555 0
M  V30 2015 H 194.363 0.843705 -6.04743 0
M  V30 2016 H 195.777 -1.376 -5.56542 0
M  V30 2017 H 194.174 -2.16659 -5.59624 0
M  V30 2018 H 195.244 -2.41518 -4.20473 0
M  V30 2019 N 196.587 1.43421 -0.653314 0
M  V30 2020 C 197.834 2.01812 -0.166745 0
M  V30 2021 C 198.162 1.51535 1.21931 0
M  V30 2022 O 197.417 0.698975 1.82792 0
M  V30 2023 C 197.716 3.57176 -0.126623 0
M  V30 2024 C 197.382 4.26798 -1.45444 0
M  V30 2025 C 196.044 4.45534 -1.81805 0
M  V30 2026 C 198.396 4.66225 -2.32989 0
M  V30 2027 C 195.724 5.00961 -3.05377 0
M  V30 2028 C 198.076 5.23021 -3.55853 0
M  V30 2029 C 196.74 5.39973 -3.9241 0
M  V30 2030 H 196.01 0.738484 -0.0610162 0
M  V30 2031 H 198.657 1.71896 -0.84404 0
M  V30 2032 H 196.962 3.86634 0.634123 0
M  V30 2033 H 198.659 4.00112 0.266723 0
M  V30 2034 H 195.249 4.12561 -1.16153 0
M  V30 2035 H 199.433 4.51443 -2.06187 0
M  V30 2036 H 194.689 5.12271 -3.3375 0
M  V30 2037 H 198.863 5.52518 -4.23907 0
M  V30 2038 H 196.49 5.82687 -4.88242 0
M  V30 2039 N 198.065 0.39524 1.52563 0
M  V30 2040 C 199.028 -0.425001 2.25225 0
M  V30 2041 C 200.028 -0.985266 1.27079 0
M  V30 2042 O 201.218 -0.866332 1.5113 0
M  V30 2043 C 198.35 -1.59686 3.01186 0
M  V30 2044 H 199.543 0.211233 2.99155 0
M  V30 2045 H 197.096 0.147472 1.55603 0
M  V30 2046 H 197.831 -2.27035 2.31572 0
M  V30 2047 H 197.616 -1.20176 3.73229 0
M  V30 2048 H 199.106 -2.17743 3.5634 0
M  V30 2049 N 199.544 -1.57102 0.125237 0
M  V30 2050 C 200.507 -2.14471 -0.80838 0
M  V30 2051 C 201.507 -1.0811 -1.19033 0
M  V30 2052 O 202.697 -1.33856 -1.11482 0
M  V30 2053 C 199.829 -2.69005 -2.09402 0
M  V30 2054 H 201.022 -2.98297 -0.309696 0
M  V30 2055 H 198.575 -1.55807 -0.124051 0
M  V30 2056 H 199.31 -1.88785 -2.63687 0
M  V30 2057 H 199.095 -3.46799 -1.82957 0
M  V30 2058 H 200.585 -3.13278 -2.76128 0
M  V30 2059 N 201.022 0.148545 -1.56898 0
M  V30 2060 C 202.27 0.859717 -1.82902 0
M  V30 2061 C 202.591 1.81775 -0.70588 0
M  V30 2062 O 201.861 1.93994 0.272586 0
M  V30 2063 H 200.441 0.320469 -0.674766 0
M  V30 2064 H 203.103 0.142918 -1.94375 0
M  V30 2065 H 202.199 1.4229 -2.77777 0
M  V30 2066 N 202.5 1.5196 0.417844 0
M  V30 2067 C 203.45 1.7106 1.5074 0
M  V30 2068 C 204.434 0.564487 1.50673 0
M  V30 2069 O 205.626 0.821206 1.56797 0
M  V30 2070 C 202.755 1.85677 2.88754 0
M  V30 2071 C 201.841 3.06133 2.93502 0
M  V30 2072 N 202.232 4.28987 2.67962 0
M  V30 2073 C 200.53 3.05787 3.24669 0
M  V30 2074 C 201.231 5.10395 2.79055 0
M  V30 2075 N 200.207 4.45455 3.11561 0
M  V30 2076 H 204.009 2.63696 1.29775 0
M  V30 2077 H 201.523 1.49873 0.625436 0
M  V30 2078 H 203.52 1.97475 3.67164 0
M  V30 2079 H 202.18 0.942348 3.10725 0
M  V30 2080 H 203.191 4.57607 2.4252 0
M  V30 2081 H 199.868 2.2405 3.52289 0
M  V30 2082 H 201.258 6.18247 2.63097 0
M  V30 2083 N 203.978 -0.674533 1.42435 0
M  V30 2084 C 204.888 -1.81751 1.48337 0
M  V30 2085 C 205.904 -1.69975 0.372099 0
M  V30 2086 O 207.08 -1.91521 0.62304 0
M  V30 2087 C 204.145 -3.17895 1.38361 0
M  V30 2088 C 203.206 -3.41625 2.59982 0
M  V30 2089 C 202.439 -4.71274 2.50473 0
M  V30 2090 O 202.662 -5.49197 1.54075 0
M  V30 2091 O 201.596 -4.96254 3.4061 0
M  V30 2092 H 205.422 -1.79728 2.44809 0
M  V30 2093 H 203.007 -0.830312 1.24202 0
M  V30 2094 H 204.889 -3.99136 1.35161 0
M  V30 2095 H 203.564 -3.20555 0.450144 0
M  V30 2096 H 202.471 -2.60231 2.68757 0
M  V30 2097 H 203.804 -3.43796 3.52229 0
M  V30 2098 N 205.456 -1.28612 -0.910864 0
M  V30 2099 C 206.419 -1.12803 -1.9952 0
M  V30 2100 C 207.419 -0.0668264 -1.60661 0
M  V30 2101 O 208.609 -0.312847 -1.71368 0
M  V30 2102 C 205.741 -0.72254 -3.33155 0
M  V30 2103 H 206.934 -2.09109 -2.14973 0
M  V30 2104 H 204.487 -1.11639 -1.09391 0
M  V30 2105 H 205.222 0.241152 -3.23402 0
M  V30 2106 H 205.007 -1.48916 -3.62721 0
M  V30 2107 H 206.497 -0.634666 -4.12749 0
M  V30 2108 N 206.934 1.1197 -1.10907 0
M  V30 2109 C 207.897 2.16031 -0.765707 0
M  V30 2110 C 208.897 1.59393 0.212235 0
M  V30 2111 O 210.087 1.74196 -0.0115441 0
M  V30 2112 C 207.219 3.40632 -0.135053 0
M  V30 2113 H 208.412 2.47919 -1.68748 0
M  V30 2114 H 205.965 1.27061 -0.910226 0
M  V30 2115 H 206.7 3.14348 0.797218 0
M  V30 2116 H 206.485 3.8302 -0.838937 0
M  V30 2117 H 207.975 4.17505 0.0892469 0
M  V30 2118 N 208.412 0.89855 1.29475 0
M  V30 2119 C 209.658 0.534065 1.96263 0
M  V30 2120 C 210.013 -0.909415 1.69551 0
M  V30 2121 O 209.306 -1.63596 0.997349 0
M  V30 2122 C 209.5 0.761398 3.49195 0
M  V30 2123 C 209.329 2.22542 3.90775 0
M  V30 2124 C 208.099 2.87264 4.15701 0
M  V30 2125 C 210.297 3.20051 4.02581 0
M  V30 2126 N 208.279 4.24121 4.4384 0
M  V30 2127 C 209.65 4.42023 4.34759 0
M  V30 2128 C 211.705 3.15657 3.85052 0
M  V30 2129 C 210.408 5.60161 4.51235 0
M  V30 2130 C 212.434 4.33078 4.02737 0
M  V30 2131 C 211.796 5.5382 4.35273 0
M  V30 2132 H 207.895 0.245013 0.742625 0
M  V30 2133 H 210.479 1.15912 1.56437 0
M  V30 2134 H 208.65 0.165732 3.88046 0
M  V30 2135 H 210.382 0.362462 4.03074 0
M  V30 2136 H 207.137 2.38064 4.09417 0
M  V30 2137 H 207.561 4.94839 4.6202 0
M  V30 2138 H 212.203 2.23396 3.58962 0
M  V30 2139 H 209.921 6.52913 4.76162 0
M  V30 2140 H 213.507 4.31163 3.90628 0
M  V30 2141 H 212.387 6.43166 4.48672 0
M  V30 2142 N 209.89 -1.43072 0.660911 0
M  V30 2143 C 210.853 -2.29194 -0.0166406 0
M  V30 2144 C 211.853 -1.42609 -0.742912 0
M  V30 2145 O 213.043 -1.64155 -0.583004 0
M  V30 2146 C 210.175 -3.24831 -1.0343 0
M  V30 2147 H 211.368 -2.90596 0.741208 0
M  V30 2148 H 208.921 -1.5048 0.422532 0
M  V30 2149 H 209.656 -2.68339 -1.82111 0
M  V30 2150 H 209.441 -3.88676 -0.517082 0
M  V30 2151 H 210.931 -3.89451 -1.50723 0
M  V30 2152 N 211.368 -0.403325 -1.52352 0
M  V30 2153 C 212.617 0.175668 -2.00934 0
M  V30 2154 C 212.93 1.46718 -1.29356 0
M  V30 2155 O 214.136 2.12708 -1.68724 0
M  V30 2156 C 212.592 0.363612 -3.58058 0
M  V30 2157 C 212.2 -0.915472 -4.38547 0
M  V30 2158 C 213.944 0.89821 -4.14888 0
M  V30 2159 C 211.851 -0.695035 -5.87302 0
M  V30 2160 H 210.781 0.0694234 -0.750797 0
M  V30 2161 H 213.432 -0.527879 -1.75743 0
M  V30 2162 H 211.814 1.12935 -3.79555 0
M  V30 2163 H 212.988 -1.68691 -4.28812 0
M  V30 2164 H 211.303 -1.37606 -3.93006 0
M  V30 2165 H 213.9 1.07907 -5.23699 0
M  V30 2166 H 214.243 1.87126 -3.71873 0
M  V30 2167 H 214.776 0.191681 -3.97338 0
M  V30 2168 H 211.515 -1.63948 -6.34666 0
M  V30 2169 H 211.035 0.0372116 -5.99788 0
M  V30 2170 H 212.714 -0.33497 -6.46132 0
M  V30 2171 N 212.846 1.57033 -0.133567 0
M  V30 2172 C 214.093 1.95686 0.520877 0
M  V30 2173 C 214.421 1.0177 1.6575 0
M  V30 2174 O 213.676 0.0443195 1.9565 0
M  V30 2175 C 213.975 3.40674 1.08057 0
M  V30 2176 C 213.641 4.50855 0.0637899 0
M  V30 2177 C 212.303 4.80716 -0.215757 0
M  V30 2178 C 214.655 5.17398 -0.62835 0
M  V30 2179 C 211.983 5.74433 -1.19348 0
M  V30 2180 C 214.335 6.12167 -1.5948 0
M  V30 2181 C 212.999 6.40414 -1.88218 0
M  V30 2182 H 212.269 0.716067 0.190602 0
M  V30 2183 H 214.916 1.9026 -0.217556 0
M  V30 2184 H 213.221 3.42865 1.89606 0
M  V30 2185 H 214.918 3.67902 1.59529 0
M  V30 2186 H 211.508 4.27605 0.291855 0
M  V30 2187 H 215.692 4.94472 -0.425562 0
M  V30 2188 H 210.948 5.94616 -1.42272 0
M  V30 2189 H 215.122 6.6281 -2.13671 0
M  V30 2190 H 212.749 7.12838 -2.64133 0
M  V30 2191 N 214.325 -0.140222 1.56975 0
M  V30 2192 C 215.741 -0.493088 1.51792 0
M  V30 2193 C 215.941 -1.83013 0.843116 0
M  V30 2194 O 214.997 -2.49041 0.416493 0
M  V30 2195 C 216.31 -0.497144 2.96562 0
M  V30 2196 C 217.858 -0.582186 3.07538 0
M  V30 2197 C 218.333 -0.616838 4.53827 0
M  V30 2198 N 219.824 -0.678873 4.58198 0
M  V30 2199 C 220.559 -0.726782 5.68775 0
M  V30 2200 N 220.055 -0.733623 6.88905 0
M  V30 2201 N 221.848 -0.768179 5.56826 0
M  V30 2202 H 213.999 0.736108 1.99237 0
M  V30 2203 H 216.262 0.269182 0.90898 0
M  V30 2204 H 215.968 0.417217 3.49217 0
M  V30 2205 H 215.842 -1.33263 3.52875 0
M  V30 2206 H 218.229 -1.48697 2.54899 0
M  V30 2207 H 218.31 0.280581 2.54257 0
M  V30 2208 H 217.954 0.283812 5.07106 0
M  V30 2209 H 217.884 -1.49619 5.04898 0
M  V30 2210 H 220.375 -0.68061 3.7172 0
M  V30 2211 H 220.688 -0.772215 7.68932 0
M  V30 2212 H 219.033 -0.701389 6.91452 0
M  V30 2213 H 222.224 -0.760051 4.61888 0
M  V30 2214 H 222.397 -0.80205 6.43017 0
M  V30 2215 N 215.803 -1.52179 -0.40978 0
M  V30 2216 C 217.05 -1.66206 -1.15679 0
M  V30 2217 C 217.378 -0.391674 -1.90516 0
M  V30 2218 O 216.633 0.62533 -1.8544 0
M  V30 2219 C 216.932 -2.83428 -2.17723 0
M  V30 2220 C 216.598 -4.21672 -1.59699 0
M  V30 2221 C 215.26 -4.59274 -1.43599 0
M  V30 2222 C 217.612 -5.07825 -1.17317 0
M  V30 2223 C 214.94 -5.80709 -0.836328 0
M  V30 2224 C 217.292 -6.29864 -0.587691 0
M  V30 2225 C 215.956 -6.66216 -0.413818 0
M  V30 2226 H 215.226 -0.608192 -0.423301 0
M  V30 2227 H 217.873 -1.86279 -0.444097 0
M  V30 2228 H 216.178 -2.57687 -2.95135 0
M  V30 2229 H 217.875 -2.91477 -2.75394 0
M  V30 2230 H 214.465 -3.9204 -1.73213 0
M  V30 2231 H 218.649 -4.79359 -1.28565 0
M  V30 2232 H 213.905 -6.07498 -0.689626 0
M  V30 2233 H 218.079 -6.95948 -0.250894 0
M  V30 2234 H 215.706 -7.60182 0.0529471 0
M  V30 2235 N 217.281 0.66697 -1.42791 0
M  V30 2236 C 218.529 1.42417 -1.43394 0
M  V30 2237 C 218.85 1.94925 -0.0542373 0
M  V30 2238 O 218.12 1.73564 0.908415 0
M  V30 2239 H 216.7 0.528515 -0.527902 0
M  V30 2240 H 219.362 0.787562 -1.78279 0
M  V30 2241 H 218.458 2.27333 -2.13837 0
M  V30 2242 N 218.759 1.29093 0.90403 0
M  V30 2243 C 220.17 1.15186 1.46932 0
M  V30 2244 C 220.521 -0.254587 1.94541 0
M  V30 2245 O 219.646 -1.14972 1.83332 0
M  V30 2246 C 220.241 2.08492 2.67051 0
M  V30 2247 C 218.8 1.98621 3.19729 0
M  V30 2248 C 217.947 1.9967 1.92425 0
M  V30 2249 H 220.898 1.41641 0.715789 0
M  V30 2250 H 220.919 1.65461 3.42641 0
M  V30 2251 H 220.431 3.10847 2.3237 0
M  V30 2252 H 218.532 0.993389 3.59114 0
M  V30 2253 H 218.645 2.86068 3.8432 0
M  V30 2254 H 217.009 1.44208 2.09943 0
M  V30 2255 H 217.792 3.03721 1.60026 0
M  V30 2256 N 220.237 -1.11381 1.11499 0
M  V30 2257 C 221.653 -1.35143 0.849031 0
M  V30 2258 C 221.853 -1.94515 -0.525938 0
M  V30 2259 O 220.909 -2.1785 -1.27662 0
M  V30 2260 C 222.222 -2.28249 1.95762 0
M  V30 2261 C 223.77 -2.41812 1.98736 0
M  V30 2262 C 224.245 -3.3824 3.088 0
M  V30 2263 N 225.736 -3.45803 3.08179 0
M  V30 2264 C 226.471 -4.20358 3.89982 0
M  V30 2265 N 225.967 -4.97884 4.8175 0
M  V30 2266 N 227.76 -4.15877 3.78157 0
M  V30 2267 H 219.911 -0.712062 2.00109 0
M  V30 2268 H 222.174 -0.376025 0.870235 0
M  V30 2269 H 221.88 -1.91817 2.94787 0
M  V30 2270 H 221.754 -3.28473 1.85433 0
M  V30 2271 H 224.141 -2.77518 1.00338 0
M  V30 2272 H 224.222 -1.41437 2.13141 0
M  V30 2273 H 223.866 -3.03261 4.07425 0
M  V30 2274 H 223.796 -4.38471 2.91635 0
M  V30 2275 H 226.287 -2.90506 2.41691 0
M  V30 2276 H 226.6 -5.52142 5.40702 0
M  V30 2277 H 224.945 -4.97043 4.85771 0
M  V30 2278 H 228.136 -3.544 3.05808 0
M  V30 2279 H 228.309 -4.73723 4.42143 0
M  V30 2280 N 221.715 -0.905404 -1.28997 0
M  V30 2281 C 222.945 -0.549049 -1.99171 0
M  V30 2282 C 223.353 0.87203 -1.67906 0
M  V30 2283 O 222.696 1.58796 -0.923561 0
M  V30 2284 C 222.758 -0.668306 -3.53234 0
M  V30 2285 C 222.422 -2.0574 -4.08069 0
M  V30 2286 C 223.419 -3.0292 -4.22534 0
M  V30 2287 C 221.104 -2.36833 -4.42962 0
M  V30 2288 C 223.098 -4.29314 -4.71135 0
M  V30 2289 C 220.785 -3.63467 -4.91258 0
M  V30 2290 C 221.783 -4.59522 -5.053 0
M  V30 2291 O 221.471 -5.83907 -5.52546 0
M  V30 2292 H 221.203 -0.208784 -0.64295 0
M  V30 2293 H 223.757 -1.21836 -1.65363 0
M  V30 2294 H 221.987 0.0580547 -3.86656 0
M  V30 2295 H 223.676 -0.320273 -4.04634 0
M  V30 2296 H 224.442 -2.80216 -3.95859 0
M  V30 2297 H 220.321 -1.62824 -4.31288 0
M  V30 2298 H 223.865 -5.04293 -4.8201 0
M  V30 2299 H 219.762 -3.86 -5.17372 0
M  V30 2300 H 220.53 -5.86578 -5.70849 0
M  V30 2301 N 223.193 1.4272 -0.668489 0
M  V30 2302 C 224.604 1.84793 -0.266151 0
M  V30 2303 C 224.955 1.55959 1.19043 0
M  V30 2304 O 224.08 1.01622 1.91055 0
M  V30 2305 C 224.675 3.35436 -0.476271 0
M  V30 2306 C 223.234 3.76182 -0.128113 0
M  V30 2307 C 222.381 2.66344 -0.771777 0
M  V30 2308 H 225.332 1.32656 -0.871098 0
M  V30 2309 H 225.353 3.79515 0.273561 0
M  V30 2310 H 224.865 3.5639 -1.53647 0
M  V30 2311 H 222.966 3.60836 0.928891 0
M  V30 2312 H 223.079 4.75766 -0.564231 0
M  V30 2313 H 221.443 2.53885 -0.203652 0
M  V30 2314 H 222.226 2.90123 -1.83531 0
M  V30 2315 N 224.671 0.411399 1.52136 0
M  V30 2316 C 225.948 -0.222308 1.94333 0
M  V30 2317 C 226.328 -1.6242 1.34844 0
M  V30 2318 O 225.676 -2.22384 0.525145 0
M  V30 2319 C 225.886 -0.226345 3.48265 0
M  V30 2320 C 227.234 -0.444592 4.22266 0
M  V30 2321 O 228.258 -0.305602 3.54887 0
M  V30 2322 O 227.117 -0.718749 5.41753 0
M  V30 2323 H 224.211 -0.143907 0.814383 0
M  V30 2324 H 226.757 0.467506 1.63133 0
M  V30 2325 H 225.529 0.75475 3.83952 0
M  V30 2326 H 225.152 -0.960163 3.85832 0
M  V30 2327 N 226.149 -1.5696 0.141893 0
M  V30 2328 C 227.112 -2.15316 -0.785587 0
M  V30 2329 C 228.112 -1.09366 -1.1788 0
M  V30 2330 O 229.302 -1.35031 -1.10056 0
M  V30 2331 C 226.434 -2.71211 -2.06537 0
M  V30 2332 H 227.627 -2.98608 -0.278041 0
M  V30 2333 H 225.18 -1.5593 -0.107519 0
M  V30 2334 H 225.915 -1.91571 -2.6167 0
M  V30 2335 H 225.7 -3.4872 -1.79268 0
M  V30 2336 H 227.19 -3.16189 -2.72789 0
M  V30 2337 N 227.627 0.131896 -1.57047 0
M  V30 2338 C 228.874 0.841932 -1.84168 0
M  V30 2339 C 229.202 1.8048 -0.725066 0
M  V30 2340 O 228.457 1.93618 0.284692 0
M  V30 2341 C 228.756 1.63703 -3.17704 0
M  V30 2342 C 228.422 0.81961 -4.43388 0
M  V30 2343 C 227.084 0.594148 -4.77518 0
M  V30 2344 C 229.436 0.248977 -5.20605 0
M  V30 2345 C 226.764 -0.212409 -5.86315 0
M  V30 2346 C 229.116 -0.544701 -6.30251 0
M  V30 2347 C 227.78 -0.780599 -6.6292 0
M  V30 2348 H 227.05 0.308085 -0.673917 0
M  V30 2349 H 229.697 0.104867 -1.91213 0
M  V30 2350 H 228.002 2.44464 -3.06177 0
M  V30 2351 H 229.699 2.19015 -3.35907 0
M  V30 2352 H 226.289 1.00542 -4.16641 0
M  V30 2353 H 230.473 0.410408 -4.946 0
M  V30 2354 H 225.729 -0.404524 -6.1006 0
M  V30 2355 H 229.903 -0.993922 -6.89271 0
M  V30 2356 H 227.53 -1.40742 -7.47058 0
M  V30 2357 N 229.106 1.52395 0.401703 0
M  V30 2358 C 230.053 1.76268 1.48991 0
M  V30 2359 C 231.023 0.605386 1.54675 0
M  V30 2360 O 232.208 0.843742 1.7113 0
M  V30 2361 C 229.348 1.92592 2.86361 0
M  V30 2362 C 228.461 3.20259 2.89928 0
M  V30 2363 C 227.596 3.26972 4.18644 0
M  V30 2364 C 226.635 4.48812 4.16214 0
M  V30 2365 N 225.772 4.52877 5.36514 0
M  V30 2366 H 230.612 2.6914 1.27935 0
M  V30 2367 H 228.149 1.33355 0.620871 0
M  V30 2368 H 230.107 2.0004 3.66115 0
M  V30 2369 H 228.737 1.03093 3.05895 0
M  V30 2370 H 227.789 3.21945 2.02621 0
M  V30 2371 H 229.101 4.10056 2.83999 0
M  V30 2372 H 228.255 3.33533 5.06794 0
M  V30 2373 H 226.994 2.35126 4.27278 0
M  V30 2374 H 225.999 4.4239 3.26453 0
M  V30 2375 H 227.224 5.41961 4.09213 0
M  V30 2376 H 225.17 3.63917 5.45802 0
M  V30 2377 H 225.087 5.36529 5.32609 0
M  V30 2378 H 226.355 4.63676 6.26597 0
M  V30 2379 N 230.584 -0.659388 1.43143 0
M  V30 2380 C 231.861 -1.41627 1.34912 0
M  V30 2381 C 232.241 -2.11099 -0.00607785 0
M  V30 2382 O 231.589 -2.04353 -1.02236 0
M  V30 2383 C 231.799 -2.40604 2.52805 0
M  V30 2384 C 233.147 -3.04789 2.95616 0
M  V30 2385 O 234.171 -2.50932 2.52807 0
M  V30 2386 O 233.03 -4.02421 3.69756 0
M  V30 2387 H 230.124 -0.63246 0.532844 0
M  V30 2388 H 232.67 -0.686814 1.5518 0
M  V30 2389 H 231.442 -1.88174 3.43083 0
M  V30 2390 H 231.065 -3.21009 2.34604 0
M  V30 2391 N 232.062 -1.29571 -0.897171 0
M  V30 2392 C 233.29 -1.20583 -1.68129 0
M  V30 2393 C 233.705 0.233181 -1.87354 0
M  V30 2394 O 233.062 1.15579 -1.41236 0
M  V30 2395 C 233.113 -1.91772 -3.06441 0
M  V30 2396 O 232.834 -3.30053 -2.88091 0
M  V30 2397 C 234.335 -1.89291 -4.00854 0
M  V30 2398 H 231.555 -0.417826 -0.525036 0
M  V30 2399 H 234.099 -1.70987 -1.12177 0
M  V30 2400 H 232.254 -1.45196 -3.59161 0
M  V30 2401 H 232.668 -3.65942 -3.75748 0
M  V30 2402 H 234.142 -2.43662 -4.95311 0
M  V30 2403 H 234.619 -0.869014 -4.30517 0
M  V30 2404 H 235.225 -2.35622 -3.54066 0
M  V30 2405 N 233.54 1.10788 -1.12088 0
M  V30 2406 C 234.472 2.16816 -0.743213 0
M  V30 2407 C 235.485 1.6119 0.228412 0
M  V30 2408 O 236.674 1.78497 0.0102931 0
M  V30 2409 C 233.774 3.38809 -0.0787313 0
M  V30 2410 C 232.947 4.23885 -1.0789 0
M  V30 2411 C 232.006 5.24334 -0.442713 0
M  V30 2412 O 231.032 5.58497 -1.09864 0
M  V30 2413 N 232.234 5.75079 0.791457 0
M  V30 2414 H 234.999 2.49825 -1.65552 0
M  V30 2415 H 232.56 1.26373 -1.012 0
M  V30 2416 H 234.552 4.03107 0.358766 0
M  V30 2417 H 233.122 3.03805 0.736275 0
M  V30 2418 H 232.342 3.55939 -1.69414 0
M  V30 2419 H 233.63 4.77562 -1.75533 0
M  V30 2420 H 233.028 5.49517 1.3434 0
M  V30 2421 H 231.585 6.4118 1.17183 0
M  V30 2422 N 235.018 0.912232 1.28515 0
M  V30 2423 C 236.265 0.544599 1.95039 0
M  V30 2424 C 236.593 -0.911435 1.71823 0
M  V30 2425 O 235.848 -1.66317 1.03137 0
M  V30 2426 C 236.147 0.798392 3.48368 0
M  V30 2427 C 235.813 2.23374 3.91682 0
M  V30 2428 C 234.475 2.62617 4.03219 0
M  V30 2429 C 236.827 3.16786 4.13879 0
M  V30 2430 C 234.155 3.94429 4.3433 0
M  V30 2431 C 236.507 4.48161 4.46469 0
M  V30 2432 C 235.171 4.8726 4.56217 0
M  V30 2433 H 234.441 0.199283 0.7137 0
M  V30 2434 H 237.088 1.15327 1.52879 0
M  V30 2435 H 235.393 0.106908 3.91654 0
M  V30 2436 H 237.09 0.493141 3.97956 0
M  V30 2437 H 233.68 1.91922 3.83228 0
M  V30 2438 H 237.864 2.87677 4.0442 0
M  V30 2439 H 233.12 4.24426 4.40082 0
M  V30 2440 H 237.294 5.20559 4.62592 0
M  V30 2441 H 234.921 5.89431 4.80078 0
M  V30 2442 N 236.496 -1.42363 0.676048 0
M  V30 2443 C 237.907 -1.84649 0.275948 0
M  V30 2444 C 238.258 -1.56588 -1.18214 0
M  V30 2445 O 237.383 -1.02634 -1.90513 0
M  V30 2446 C 237.978 -3.35178 0.494053 0
M  V30 2447 C 236.537 -3.76109 0.148061 0
M  V30 2448 C 235.684 -2.65931 0.785891 0
M  V30 2449 H 238.635 -1.32192 0.878121 0
M  V30 2450 H 238.656 -3.79655 -0.25343 0
M  V30 2451 H 238.168 -3.55571 1.55535 0
M  V30 2452 H 236.269 -3.61323 -0.909742 0
M  V30 2453 H 236.382 -4.7546 0.589454 0
M  V30 2454 H 234.746 -2.53773 0.217113 0
M  V30 2455 H 235.529 -2.89146 1.85067 0
M  V30 2456 N 237.974 -0.419461 -1.51915 0
M  V30 2457 C 239.22 0.153166 -2.02221 0
M  V30 2458 C 239.553 1.43907 -1.30401 0
M  V30 2459 O 238.828 1.90055 -0.413438 0
M  V30 2460 C 239.111 0.390291 -3.57979 0
M  V30 2461 C 238.964 -0.913014 -4.40436 0
M  V30 2462 C 240.283 1.16794 -4.2432 0
M  V30 2463 H 237.402 0.0541924 -0.735005 0
M  V30 2464 H 240.044 -0.554955 -1.81715 0
M  V30 2465 H 238.194 0.993491 -3.75582 0
M  V30 2466 H 239.866 -1.54882 -4.34522 0
M  V30 2467 H 238.109 -1.52168 -4.06236 0
M  V30 2468 H 238.78 -0.701361 -5.47526 0
M  V30 2469 H 241.256 0.657161 -4.10878 0
M  V30 2470 H 240.132 1.3026 -5.3322 0
M  V30 2471 H 240.393 2.19132 -3.83971 0
M  V30 2472 N 239.452 1.56882 -0.150215 0
M  V30 2473 C 240.384 2.14057 0.819286 0
M  V30 2474 C 241.397 1.09082 1.20851 0
M  V30 2475 O 242.586 1.36347 1.15203 0
M  V30 2476 C 239.686 2.65102 2.11127 0
M  V30 2477 C 238.859 3.94511 1.88891 0
M  V30 2478 C 237.918 4.30834 3.02107 0
M  V30 2479 O 236.944 4.99099 2.73659 0
M  V30 2480 N 238.146 3.90676 4.29363 0
M  V30 2481 H 240.911 2.97871 0.330618 0
M  V30 2482 H 238.472 1.61866 0.0332538 0
M  V30 2483 H 240.464 2.86411 2.85921 0
M  V30 2484 H 239.034 1.85994 2.51247 0
M  V30 2485 H 238.254 3.81795 0.981152 0
M  V30 2486 H 239.542 4.7907 1.71376 0
M  V30 2487 H 238.94 3.35677 4.55343 0
M  V30 2488 H 237.497 4.1703 5.00928 0
M  V30 2489 N 240.93 -0.123565 1.57115 0
M  V30 2490 C 241.893 -1.13583 1.99076 0
M  V30 2491 C 242.893 -1.34564 0.880296 0
M  V30 2492 O 244.083 -1.31158 1.14644 0
M  V30 2493 C 241.215 -2.49128 2.32698 0
M  V30 2494 H 242.408 -0.775287 2.89706 0
M  V30 2495 H 239.961 -0.36771 1.51913 0
M  V30 2496 H 240.696 -2.90111 1.44934 0
M  V30 2497 H 240.481 -2.35255 3.13684 0
M  V30 2498 H 241.971 -3.2199 2.65918 0
M  V30 2499 N 242.408 -1.52605 -0.393616 0
M  V30 2500 C 243.34 -1.73303 -1.49995 0
M  V30 2501 C 244.353 -0.613473 -1.50799 0
M  V30 2502 O 245.542 -0.889049 -1.54784 0
M  V30 2503 C 242.642 -1.77245 -2.88855 0
M  V30 2504 C 241.815 -3.06483 -3.12069 0
M  V30 2505 C 240.874 -3.02033 -4.30886 0
M  V30 2506 O 239.9 -3.75907 -4.27414 0
M  V30 2507 N 241.102 -2.20897 -5.36828 0
M  V30 2508 H 243.867 -2.68756 -1.32629 0
M  V30 2509 H 241.428 -1.51036 -0.583083 0
M  V30 2510 H 243.42 -1.7178 -3.66434 0
M  V30 2511 H 241.99 -0.891993 -2.99603 0
M  V30 2512 H 241.21 -3.25474 -2.22396 0
M  V30 2513 H 242.498 -3.91947 -3.2443 0
M  V30 2514 H 241.896 -1.60336 -5.42502 0
M  V30 2515 H 240.453 -2.21275 -6.13091 0
M  V30 2516 N 243.887 0.651787 -1.4349 0
M  V30 2517 C 244.85 1.74647 -1.48429 0
M  V30 2518 C 245.85 1.56513 -0.368817 0
M  V30 2519 O 247.04 1.62385 -0.630623 0
M  V30 2520 C 244.172 3.13533 -1.33827 0
M  V30 2521 H 245.365 1.71649 -2.4592 0
M  V30 2522 H 242.918 0.863573 -1.30277 0
M  V30 2523 H 243.653 3.22142 -0.37349 0
M  V30 2524 H 243.438 3.28101 -2.14691 0
M  V30 2525 H 244.928 3.93356 -1.40218 0
M  V30 2526 N 245.365 1.30045 0.890287 0
M  V30 2527 C 246.275 1.17885 2.02831 0
M  V30 2528 C 247.291 0.0999609 1.73713 0
M  V30 2529 O 248.467 0.313867 1.98939 0
M  V30 2530 C 245.532 0.866079 3.35708 0
M  V30 2531 C 244.593 2.02979 3.78283 0
M  V30 2532 C 243.826 1.73184 5.0482 0
M  V30 2533 O 244.049 0.657237 5.66601 0
M  V30 2534 O 242.983 2.58267 5.43674 0
M  V30 2535 H 246.809 2.13474 2.16015 0
M  V30 2536 H 244.394 1.09587 1.01543 0
M  V30 2537 H 246.276 0.706623 4.15433 0
M  V30 2538 H 244.951 -0.0599443 3.23644 0
M  V30 2539 H 243.858 2.24454 2.99285 0
M  V30 2540 H 245.191 2.93734 3.94944 0
M  V30 2541 N 246.843 -1.10192 1.12674 0
M  V30 2542 C 247.773 -2.18652 0.819362 0
M  V30 2543 C 248.754 -1.68698 -0.217915 0
M  V30 2544 O 249.939 -1.94041 -0.0785581 0
M  V30 2545 C 247.069 -3.46202 0.27594 0
M  V30 2546 C 246.023 -4.09444 1.24656 0
M  V30 2547 C 245.349 -5.31725 0.563258 0
M  V30 2548 C 246.649 -4.52863 2.60217 0
M  V30 2549 H 248.343 -2.44622 1.72628 0
M  V30 2550 H 245.889 -1.17571 0.831451 0
M  V30 2551 H 247.842 -4.21372 0.0486149 0
M  V30 2552 H 246.566 -3.1973 -0.666331 0
M  V30 2553 H 245.225 -3.36284 1.45974 0
M  V30 2554 H 244.873 -5.0153 -0.384235 0
M  V30 2555 H 244.573 -5.74991 1.21075 0
M  V30 2556 H 246.097 -6.09624 0.34503 0
M  V30 2557 H 247.511 -5.19294 2.42913 0
M  V30 2558 H 245.908 -5.06986 3.21068 0
M  V30 2559 H 246.978 -3.65656 3.18471 0
M  V30 2560 N 248.321 -0.919034 -1.28029 0
M  V30 2561 C 249.567 -0.565221 -1.95389 0
M  V30 2562 C 249.922 0.882325 -1.70976 0
M  V30 2563 O 249.215 1.61988 -1.02325 0
M  V30 2564 C 249.409 -0.816855 -3.4794 0
M  V30 2565 C 249.238 -2.28731 -3.87185 0
M  V30 2566 C 248.008 -2.93841 -4.11079 0
M  V30 2567 C 250.206 -3.26415 -3.97439 0
M  V30 2568 N 248.188 -4.31129 -4.37037 0
M  V30 2569 C 249.559 -4.48884 -4.27672 0
M  V30 2570 C 251.614 -3.21742 -3.79982 0
M  V30 2571 C 250.317 -5.67268 -4.42266 0
M  V30 2572 C 252.343 -4.39431 -3.95796 0
M  V30 2573 C 251.705 -5.60675 -4.26407 0
M  V30 2574 H 247.804 -0.256797 -0.738633 0
M  V30 2575 H 250.388 -1.18386 -1.54573 0
M  V30 2576 H 248.559 -0.227445 -3.87733 0
M  V30 2577 H 250.291 -0.426542 -4.02446 0
M  V30 2578 H 247.046 -2.44547 -4.05578 0
M  V30 2579 H 247.47 -5.02127 -4.5409 0
M  V30 2580 H 252.112 -2.29079 -3.55363 0
M  V30 2581 H 249.83 -6.60406 -4.65714 0
M  V30 2582 H 253.416 -4.37323 -3.83719 0
M  V30 2583 H 252.296 -6.50223 -4.38383 0
M  V30 2584 N 249.799 1.42003 -0.683588 0
M  V30 2585 C 250.731 2.29183 0.0283068 0
M  V30 2586 C 251.744 1.4415 0.756611 0
M  V30 2587 O 252.933 1.67779 0.609306 0
M  V30 2588 C 250.033 3.21765 1.06398 0
M  V30 2589 C 249.206 4.35496 0.407723 0
M  V30 2590 C 248.265 5.08737 1.34437 0
M  V30 2591 O 247.291 5.62948 0.841318 0
M  V30 2592 N 248.493 5.15075 2.67728 0
M  V30 2593 H 251.258 2.9092 -0.720105 0
M  V30 2594 H 248.819 1.53025 -0.528682 0
M  V30 2595 H 250.811 3.6763 1.69204 0
M  V30 2596 H 249.381 2.61418 1.71404 0
M  V30 2597 H 248.601 3.92165 -0.400012 0
M  V30 2598 H 249.889 5.08776 -0.0490956 0
M  V30 2599 H 249.287 4.72457 3.11129 0
M  V30 2600 H 247.844 5.64556 3.2576 0
M  V30 2601 N 251.277 0.427512 1.51691 0
M  V30 2602 C 252.209 -0.424521 2.25234 0
M  V30 2603 C 253.222 -0.994671 1.2888 0
M  V30 2604 O 254.411 -0.890483 1.54702 0
M  V30 2605 C 251.511 -1.60479 2.98496 0
M  V30 2606 C 250.684 -1.15527 4.21868 0
M  V30 2607 C 249.743 -2.20454 4.77793 0
M  V30 2608 O 248.769 -1.8029 5.39893 0
M  V30 2609 N 249.971 -3.52831 4.60967 0
M  V30 2610 H 252.736 0.205749 2.98993 0
M  V30 2611 H 250.297 0.255867 1.59865 0
M  V30 2612 H 252.289 -2.30276 3.32799 0
M  V30 2613 H 250.859 -2.14061 2.27809 0
M  V30 2614 H 250.079 -0.284736 3.9317 0
M  V30 2615 H 251.367 -0.832173 5.01949 0
M  V30 2616 H 250.765 -3.88201 4.11481 0
M  V30 2617 H 249.322 -4.18551 4.99658 0
M  V30 2618 N 252.755 -1.56801 0.158532 0
M  V30 2619 C 253.688 -2.13148 -0.815065 0
M  V30 2620 C 254.666 -1.0581 -1.23462 0
M  V30 2621 O 255.85 -1.3371 -1.32868 0
M  V30 2622 C 252.977 -2.6606 -2.09594 0
M  V30 2623 C 252.023 -3.85651 -1.82141 0
M  V30 2624 S 252.856 -5.26041 -1.00207 0
M  V30 2625 C 254.012 -5.8235 -2.29389 0
M  V30 2626 H 254.245 -2.95396 -0.335937 0
M  V30 2627 H 251.778 -1.54299 -0.0559391 0
M  V30 2628 H 253.736 -2.97195 -2.8317 0
M  V30 2629 H 252.397 -1.83921 -2.54621 0
M  V30 2630 H 251.59 -4.20958 -2.77147 0
M  V30 2631 H 251.192 -3.55338 -1.16667 0
M  V30 2632 H 253.484 -5.94485 -3.24952 0
M  V30 2633 H 254.427 -6.79688 -1.9857 0
M  V30 2634 H 254.835 -5.10675 -2.40564 0
M  V30 2635 N 254.233 0.115231 -1.57178 0
M  V30 2636 C 255.479 0.82357 -1.85325 0
M  V30 2637 C 255.812 1.79349 -0.744814 0
M  V30 2638 O 255.087 1.92899 0.249024 0
M  V30 2639 C 255.37 1.57014 -3.24066 0
M  V30 2640 C 255.223 0.619565 -4.45513 0
M  V30 2641 C 256.542 2.52545 -3.60429 0
M  V30 2642 H 253.661 0.297948 -0.674089 0
M  V30 2643 H 256.303 0.0877138 -1.89797 0
M  V30 2644 H 254.453 2.19742 -3.20383 0
M  V30 2645 H 256.125 0.000837639 -4.613 0
M  V30 2646 H 254.368 -0.0686174 -4.33746 0
M  V30 2647 H 255.039 1.17866 -5.3927 0
M  V30 2648 H 257.515 1.9992 -3.64926 0
M  V30 2649 H 256.391 3.01811 -4.58477 0
M  V30 2650 H 256.652 3.35383 -2.88047 0
M  V30 2651 N 255.711 1.52812 0.385517 0
M  V30 2652 C 257.122 1.5993 0.963293 0
M  V30 2653 C 257.473 0.454302 1.90868 0
M  V30 2654 O 256.598 -0.422132 2.12243 0
M  V30 2655 C 257.193 2.89871 1.75387 0
M  V30 2656 C 255.752 2.99389 2.28129 0
M  V30 2657 C 254.899 2.55071 1.08783 0
M  V30 2658 H 257.85 1.5784 0.164948 0
M  V30 2659 H 257.871 2.76553 2.61341 0
M  V30 2660 H 257.383 3.73186 1.06554 0
M  V30 2661 H 255.484 2.20619 3.00263 0
M  V30 2662 H 255.597 4.04096 2.57377 0
M  V30 2663 H 253.961 2.09473 1.4489 0
M  V30 2664 H 254.744 3.40785 0.414807 0
M  V30 2665 N 257.189 -0.644168 1.43834 0
M  V30 2666 C 258.466 -1.40188 1.36406 0
M  V30 2667 C 258.846 -2.11094 0.0163124 0
M  V30 2668 O 258.194 -2.05426 -1.00062 0
M  V30 2669 C 258.404 -2.3791 2.55343 0
M  V30 2670 C 259.752 -3.01637 2.98832 0
M  V30 2671 O 260.776 -2.48237 2.55455 0
M  V30 2672 O 259.635 -3.98477 3.74003 0
M  V30 2673 H 256.729 -0.626773 0.539523 0
M  V30 2674 H 259.275 -0.670317 1.559 0
M  V30 2675 H 258.047 -1.84525 3.4506 0
M  V30 2676 H 257.67 -3.18503 2.37995 0
M  V30 2677 N 258.668 -1.30515 -0.883378 0
M  V30 2678 C 259.914 -1.20617 -1.63778 0
M  V30 2679 C 260.269 0.236469 -1.90941 0
M  V30 2680 O 259.562 1.16596 -1.52039 0
M  V30 2681 C 259.756 -1.96994 -2.98209 0
M  V30 2682 C 259.585 -3.48537 -2.84169 0
M  V30 2683 C 258.355 -4.17893 -2.84067 0
M  V30 2684 C 260.553 -4.43738 -2.60001 0
M  V30 2685 N 258.535 -5.55685 -2.60936 0
M  V30 2686 C 259.906 -5.69105 -2.46007 0
M  V30 2687 C 261.961 -4.33316 -2.45239 0
M  V30 2688 C 260.664 -6.8523 -2.18752 0
M  V30 2689 C 262.69 -5.4921 -2.19369 0
M  V30 2690 C 262.052 -6.73558 -2.06153 0
M  V30 2691 H 258.151 -0.496434 -0.604216 0
M  V30 2692 H 260.735 -1.64544 -1.04083 0
M  V30 2693 H 258.906 -1.55455 -3.55933 0
M  V30 2694 H 260.638 -1.79225 -3.62851 0
M  V30 2695 H 257.393 -3.69739 -2.95956 0
M  V30 2696 H 257.817 -6.28199 -2.52378 0
M  V30 2697 H 262.459 -3.37856 -2.54191 0
M  V30 2698 H 260.177 -7.80729 -2.08537 0
M  V30 2699 H 263.763 -5.43054 -2.08766 0
M  V30 2700 H 262.643 -7.61721 -1.86416 0
M  V30 2701 N 260.146 1.09593 -1.13257 0
M  V30 2702 C 261.076 2.18214 -0.830946 0
M  V30 2703 C 262.057 1.68812 0.208966 0
M  V30 2704 O 263.242 1.9408 0.0682666 0
M  V30 2705 C 260.372 3.46051 -0.294296 0
M  V30 2706 C 259.326 4.08778 -1.26826 0
M  V30 2707 C 258.652 5.31419 -0.591449 0
M  V30 2708 C 259.952 4.51476 -2.62615 0
M  V30 2709 H 261.646 2.43703 -1.73923 0
M  V30 2710 H 259.192 1.17128 -0.837675 0
M  V30 2711 H 261.145 4.2134 -0.0709606 0
M  V30 2712 H 259.869 3.20079 0.649366 0
M  V30 2713 H 258.528 3.35505 -1.47756 0
M  V30 2714 H 258.176 5.01727 0.357633 0
M  V30 2715 H 257.876 5.74341 -1.24123 0
M  V30 2716 H 259.4 6.09433 -0.377355 0
M  V30 2717 H 260.814 5.17999 -2.45663 0
M  V30 2718 H 259.211 5.05277 -3.23752 0
M  V30 2719 H 260.281 3.63962 -3.20406 0
M  V30 2720 N 261.624 0.925811 1.2754 0
M  V30 2721 C 262.872 0.564138 1.94067 0
M  V30 2722 C 263.193 -0.897188 1.73134 0
M  V30 2723 O 262.463 -1.63573 1.07799 0
M  V30 2724 H 261.043 0.205645 0.718136 0
M  V30 2725 H 263.705 1.1778 1.55287 0
M  V30 2726 H 262.801 0.76881 3.02483 0
M  V30 2727 N 263.102 -1.41638 0.69111 0
M  V30 2728 C 264.327 -2.06148 0.227583 0
M  V30 2729 C 264.752 -1.51652 -1.11281 0
M  V30 2730 O 264.11 -0.64164 -1.69566 0
M  V30 2731 C 264.158 -3.60095 0.190858 0
M  V30 2732 O 263.262 -4.03845 -0.835664 0
M  V30 2733 H 262.603 -0.654434 0.112306 0
M  V30 2734 H 265.133 -1.81484 0.944714 0
M  V30 2735 H 265.143 -4.07995 0.020207 0
M  V30 2736 H 263.818 -3.99129 1.16915 0
M  V30 2737 H 262.395 -3.67458 -0.63473 0
M  V30 2738 N 264.58 -0.43555 -1.51462 0
M  V30 2739 C 265.513 0.421989 -2.24264 0
M  V30 2740 C 266.491 1.02619 -1.26127 0
M  V30 2741 O 267.675 1.069 -1.55257 0
M  V30 2742 C 264.802 1.588 -2.99166 0
M  V30 2743 C 263.848 1.10465 -4.11946 0
M  V30 2744 S 264.681 0.048146 -5.35478 0
M  V30 2745 C 265.837 1.21887 -6.13917 0
M  V30 2746 H 266.07 -0.196102 -2.96653 0
M  V30 2747 H 263.603 -0.220054 -1.52824 0
M  V30 2748 H 265.561 2.25647 -3.42919 0
M  V30 2749 H 264.222 2.1775 -2.26371 0
M  V30 2750 H 263.415 1.97654 -4.63626 0
M  V30 2751 H 263.017 0.51445 -3.70445 0
M  V30 2752 H 265.309 2.13756 -6.42895 0
M  V30 2753 H 266.252 0.742076 -7.04201 0
M  V30 2754 H 266.66 1.45663 -5.45383 0
M  V30 2755 N 266.058 1.56714 -0.166846 0
M  V30 2756 C 267.469 1.83378 0.350646 0
M  V30 2757 C 267.82 1.08646 1.63372 0
M  V30 2758 O 266.945 0.338058 2.13743 0
M  V30 2759 C 267.54 3.32643 0.642963 0
M  V30 2760 C 266.099 3.59818 1.10491 0
M  V30 2761 C 265.246 2.76954 0.138411 0
M  V30 2762 H 268.197 1.53803 -0.391193 0
M  V30 2763 H 268.218 3.49878 1.49551 0
M  V30 2764 H 267.73 3.87007 -0.291055 0
M  V30 2765 H 265.831 3.1086 2.05418 0
M  V30 2766 H 265.944 4.68178 1.01716 0
M  V30 2767 H 264.308 2.4666 0.634911 0
M  V30 2768 H 265.091 3.34097 -0.789549 0
M  V30 2769 N 267.536 -0.106894 1.57237 0
M  V30 2770 C 268.764 -0.826389 1.8968 0
M  V30 2771 C 269.179 -1.72856 0.759353 0
M  V30 2772 O 268.536 -1.80503 -0.269263 0
M  V30 2773 C 268.587 -1.64967 3.21665 0
M  V30 2774 O 268.308 -0.783804 4.31031 0
M  V30 2775 C 269.809 -2.47326 3.67892 0
M  V30 2776 H 267.029 -0.236927 0.627779 0
M  V30 2777 H 269.573 -0.0876593 2.04312 0
M  V30 2778 H 267.728 -2.34103 3.08666 0
M  V30 2779 H 268.142 -1.35284 5.06753 0
M  V30 2780 H 269.616 -3.00604 4.6297 0
M  V30 2781 H 270.093 -3.25247 2.95146 0
M  V30 2782 H 270.699 -1.83411 3.83719 0
M  V30 2783 N 269.014 -1.53014 -0.377408 0
M  V30 2784 C 270.425 -1.60438 -0.954798 0
M  V30 2785 C 270.776 -0.464418 -1.90624 0
M  V30 2786 O 269.901 0.41087 -2.12464 0
M  V30 2787 C 270.496 -2.90797 -1.73847 0
M  V30 2788 C 269.055 -3.00595 -2.26538 0
M  V30 2789 C 268.202 -2.55645 -1.07429 0
M  V30 2790 H 271.153 -1.57926 -0.156575 0
M  V30 2791 H 271.174 -2.77935 -2.5987 0
M  V30 2792 H 270.686 -3.73746 -1.04574 0
M  V30 2793 H 268.787 -2.22208 -2.99089 0
M  V30 2794 H 268.9 -4.05456 -2.5523 0
M  V30 2795 H 267.264 -2.10239 -1.43777 0
M  V30 2796 H 268.047 -3.41 -0.396728 0
M  V30 2797 N 270.492 0.636531 -1.44174 0
M  V30 2798 C 271.44 1.76995 -1.50915 0
M  V30 2799 C 272.434 1.65053 -0.381295 0
M  V30 2800 O 273.64 1.71197 -0.55601 0
M  V30 2801 H 270.015 0.584247 -0.473455 0
M  V30 2802 H 271.986 1.68432 -2.4632 0
M  V30 2803 C 270.735 3.15314 -1.46534 0
M  V30 2804 H 270.058 3.25149 -2.32633 0
M  V30 2805 H 271.498 3.9453 -1.55312 0
M  V30 2806 C 269.957 3.3639 -0.185305 0
M  V30 2807 O 270.487 3.94699 0.746688 0
M  V30 2808 N 268.693 2.9046 -0.0901606 0
M  V30 2809 H 268.24 2.43193 -0.849416 0
M  V30 2810 H 268.198 3.04937 0.765553 0
M  V30 2811 N 271.97 1.30982 0.876444 0
M  V30 2812 C 273.381 1.18277 1.44456 0
M  V30 2813 C 273.732 -0.213265 1.95037 0
M  V30 2814 O 272.857 -1.11057 1.85729 0
M  V30 2815 C 273.452 2.1411 2.62569 0
M  V30 2816 C 272.011 2.05358 3.15444 0
M  V30 2817 C 271.158 2.03706 1.88146 0
M  V30 2818 H 274.109 1.43127 0.685584 0
M  V30 2819 H 274.13 1.72692 3.39054 0
M  V30 2820 H 273.642 3.15706 2.25724 0
M  V30 2821 H 271.743 1.06934 3.56926 0
M  V30 2822 H 271.856 2.94156 3.78166 0
M  V30 2823 H 270.22 1.48629 2.06837 0
M  V30 2824 H 271.003 3.07047 1.53547 0
M  V30 2825 N 273.449 -1.08991 1.13837 0
M  V30 2826 C 274.677 -1.85011 0.926202 0
M  V30 2827 C 275.092 -1.8135 -0.525127 0
M  V30 2828 O 274.449 -1.21287 -1.36366 0
M  V30 2829 C 274.5 -3.32802 1.41155 0
M  V30 2830 O 274.221 -3.36444 2.80601 0
M  V30 2831 C 275.722 -4.25649 1.23847 0
M  V30 2832 H 272.942 -0.584249 0.32999 0
M  V30 2833 H 275.486 -1.37688 1.51202 0
M  V30 2834 H 273.641 -3.77536 0.868631 0
M  V30 2835 H 274.055 -4.28657 3.02248 0
M  V30 2836 H 275.529 -5.27485 1.62675 0
M  V30 2837 H 276.006 -4.38828 0.18065 0
M  V30 2838 H 276.612 -3.86735 1.76964 0
M  V30 2839 N 274.927 -0.932562 -1.27047 0
M  V30 2840 C 276.173 -0.576412 -1.94436 0
M  V30 2841 C 276.506 0.880891 -1.73072 0
M  V30 2842 O 275.781 1.62905 -1.06264 0
M  V30 2843 C 276.064 -0.909031 -3.48437 0
M  V30 2844 C 275.917 -2.42044 -3.79123 0
M  V30 2845 C 277.236 -0.418341 -4.38107 0
M  V30 2846 H 274.355 -0.210888 -0.706184 0
M  V30 2847 H 276.997 -1.16522 -1.50075 0
M  V30 2848 H 275.147 -0.407947 -3.86352 0
M  V30 2849 H 276.819 -2.99359 -3.50973 0
M  V30 2850 H 275.062 -2.86758 -3.25503 0
M  V30 2851 H 275.733 -2.6037 -4.86736 0
M  V30 2852 H 278.209 -0.847856 -4.0737 0
M  V30 2853 H 277.085 -0.679981 -5.44672 0
M  V30 2854 H 277.346 0.681642 -4.36814 0
M  V30 2855 N 276.405 1.4127 -0.698611 0
M  V30 2856 C 277.368 2.29158 -0.044132 0
M  V30 2857 C 278.368 1.44529 0.704841 0
M  V30 2858 O 279.558 1.65643 0.539276 0
M  V30 2859 C 276.69 3.27459 0.947809 0
M  V30 2860 H 277.883 2.88529 -0.817994 0
M  V30 2861 H 275.436 1.49307 -0.46228 0
M  V30 2862 H 276.171 2.73073 1.74933 0
M  V30 2863 H 275.956 3.8991 0.41385 0
M  V30 2864 H 277.446 3.93311 1.40344 0
M  V30 2865 N 277.883 0.443576 1.51229 0
M  V30 2866 C 278.831 -0.37904 2.29491 0
M  V30 2867 C 279.825 -1.0153 1.35603 0
M  V30 2868 O 281.031 -0.94955 1.52917 0
M  V30 2869 H 277.406 -0.141053 0.738653 0
M  V30 2870 H 279.377 0.301799 2.9687 0
M  V30 2871 C 278.126 -1.46426 3.15364 0
M  V30 2872 H 277.449 -0.984037 3.87501 0
M  V30 2873 H 278.889 -2.01297 3.7317 0
M  V30 2874 C 277.348 -2.45099 2.31146 0
M  V30 2875 O 277.878 -3.49773 1.9754 0
M  V30 2876 N 276.084 -2.16139 1.94249 0
M  V30 2877 H 275.631 -1.31044 2.21777 0
M  V30 2878 H 275.589 -2.82398 1.38198 0
M  V30 2879 N 279.361 -1.56624 0.175154 0
M  V30 2880 C 280.291 -2.21155 -0.749195 0
M  V30 2881 C 281.272 -1.16836 -1.23626 0
M  V30 2882 O 282.457 -1.45277 -1.28873 0
M  V30 2883 C 279.587 -2.8553 -1.97711 0
M  V30 2884 C 278.541 -3.95921 -1.62575 0
M  V30 2885 C 277.867 -4.47365 -2.92864 0
M  V30 2886 C 279.167 -5.15323 -0.850838 0
M  V30 2887 H 280.861 -2.98653 -0.211295 0
M  V30 2888 H 278.407 -1.43651 -0.100188 0
M  V30 2889 H 280.36 -3.2935 -2.62881 0
M  V30 2890 H 279.084 -2.05406 -2.53921 0
M  V30 2891 H 277.743 -3.52762 -0.997719 0
M  V30 2892 H 277.391 -3.64027 -3.47122 0
M  V30 2893 H 277.091 -5.21839 -2.70106 0
M  V30 2894 H 278.615 -4.93873 -3.59056 0
M  V30 2895 H 280.029 -5.55812 -1.40521 0
M  V30 2896 H 278.426 -5.95739 -0.722154 0
M  V30 2897 H 279.496 -4.84661 0.152082 0
M  V30 2898 N 280.839 0.0985539 -1.57292 0
M  V30 2899 C 282.064 0.820196 -1.90493 0
M  V30 2900 C 282.489 1.71658 -0.769094 0
M  V30 2901 O 281.847 1.79133 0.279495 0
M  V30 2902 C 281.895 1.61242 -3.22542 0
M  V30 2903 O 280.999 2.72108 -3.09888 0
M  V30 2904 H 280.34 0.225547 -0.62452 0
M  V30 2905 H 282.87 0.0748159 -2.04463 0
M  V30 2906 H 282.88 1.99737 -3.55766 0
M  V30 2907 H 281.555 0.954535 -4.04798 0
M  V30 2908 H 280.132 2.36667 -2.88172 0
M  V30 2909 N 282.317 1.53212 0.369288 0
M  V30 2910 C 283.264 1.79388 1.45219 0
M  V30 2911 C 284.234 0.638059 1.53356 0
M  V30 2912 O 285.419 0.879852 1.69302 0
M  V30 2913 C 282.559 1.98623 2.82211 0
M  V30 2914 C 281.672 3.26337 2.8307 0
M  V30 2915 C 280.807 3.35779 4.11614 0
M  V30 2916 C 279.846 4.5754 4.06601 0
M  V30 2917 N 278.983 4.64155 5.26787 0
M  V30 2918 H 283.823 2.71794 1.22198 0
M  V30 2919 H 281.36 1.34642 0.592444 0
M  V30 2920 H 283.318 2.07761 3.61789 0
M  V30 2921 H 281.948 1.09558 3.03639 0
M  V30 2922 H 281 3.26171 1.95747 0
M  V30 2923 H 282.312 4.15988 2.75237 0
M  V30 2924 H 281.466 3.44208 4.99606 0
M  V30 2925 H 280.205 2.44137 4.22195 0
M  V30 2926 H 279.21 4.49215 3.16996 0
M  V30 2927 H 280.435 5.50519 3.97625 0
M  V30 2928 H 278.381 3.75413 5.3796 0
M  V30 2929 H 278.298 5.47706 5.21109 0
M  V30 2930 H 279.566 4.76863 6.16621 0
M  V30 2931 N 283.795 -0.628877 1.44509 0
M  V30 2932 C 284.725 -1.75187 1.54376 0
M  V30 2933 C 285.706 -1.65411 0.396618 0
M  V30 2934 O 286.891 -1.84137 0.617031 0
M  V30 2935 C 284.021 -3.13725 1.48976 0
M  V30 2936 C 282.975 -3.38291 2.62189 0
M  V30 2937 C 282.301 -4.76883 2.41841 0
M  V30 2938 C 283.601 -3.30632 4.04326 0
M  V30 2939 H 285.295 -1.67187 2.48373 0
M  V30 2940 H 282.841 -0.802909 1.19538 0
M  V30 2941 H 284.794 -3.92064 1.54478 0
M  V30 2942 H 283.518 -3.22515 0.514961 0
M  V30 2943 H 282.177 -2.62334 2.56079 0
M  V30 2944 H 281.825 -4.82378 1.42548 0
M  V30 2945 H 281.525 -4.94278 3.17747 0
M  V30 2946 H 283.049 -5.57449 2.49165 0
M  V30 2947 H 284.463 -3.98873 4.11793 0
M  V30 2948 H 282.86 -3.59561 4.80454 0
M  V30 2949 H 283.93 -2.28404 4.27738 0
M  V30 2950 N 285.273 -1.31445 -0.869486 0
M  V30 2951 C 286.236 -1.19094 -1.9583 0
M  V30 2952 C 287.236 -0.117906 -1.60367 0
M  V30 2953 O 288.426 -0.367208 -1.70286 0
M  V30 2954 C 285.558 -0.828165 -3.30688 0
M  V30 2955 H 286.751 -2.15842 -2.08212 0
M  V30 2956 H 284.304 -1.15063 -1.05784 0
M  V30 2957 H 285.039 0.138142 -3.24006 0
M  V30 2958 H 284.824 -1.6038 -3.578 0
M  V30 2959 H 286.314 -0.765658 -4.10521 0
M  V30 2960 N 286.751 1.08385 -1.14413 0
M  V30 2961 C 288 1.80153 -0.907076 0
M  V30 2962 C 288.313 1.87176 0.567851 0
M  V30 2963 O 289.519 2.55359 0.922172 0
M  V30 2964 C 287.975 3.23687 -1.57336 0
M  V30 2965 C 287.583 3.24897 -3.08457 0
M  V30 2966 C 289.327 4.00136 -1.41744 0
M  V30 2967 C 287.234 4.6302 -3.67921 0
M  V30 2968 H 286.164 0.675139 -0.335714 0
M  V30 2969 H 288.815 1.21733 -1.37307 0
M  V30 2970 H 287.197 3.82234 -1.03505 0
M  V30 2971 H 288.371 2.76055 -3.68958 0
M  V30 2972 H 286.686 2.61943 -3.2369 0
M  V30 2973 H 289.283 5.02201 -1.83572 0
M  V30 2974 H 289.626 4.14709 -0.363576 0
M  V30 2975 H 290.159 3.48058 -1.92614 0
M  V30 2976 H 286.898 4.5365 -4.73161 0
M  V30 2977 H 286.418 5.12143 -3.12201 0
M  V30 2978 H 288.097 5.31994 -3.68227 0
M  V30 2979 N 288.23 0.939286 1.26551 0
M  V30 2980 C 289.177 0.446088 2.26448 0
M  V30 2981 C 290.147 -0.493234 1.58608 0
M  V30 2982 O 291.332 -0.409857 1.86346 0
M  V30 2983 C 288.472 -0.284375 3.43926 0
M  V30 2984 C 287.585 0.690399 4.26448 0
M  V30 2985 C 286.72 -0.0610712 5.31165 0
M  V30 2986 C 285.759 0.905649 6.05363 0
M  V30 2987 N 284.896 0.186055 7.01853 0
M  V30 2988 H 289.736 1.30291 2.68008 0
M  V30 2989 H 287.273 0.65371 1.31776 0
M  V30 2990 H 289.231 -0.724313 4.10864 0
M  V30 2991 H 287.861 -1.10535 3.03285 0
M  V30 2992 H 286.913 1.24885 3.59316 0
M  V30 2993 H 288.225 1.42873 4.779 0
M  V30 2994 H 287.379 -0.56038 6.04106 0
M  V30 2995 H 286.118 -0.832297 4.80546 0
M  V30 2996 H 285.123 1.4161 5.3125 0
M  V30 2997 H 286.348 1.67685 6.58072 0
M  V30 2998 H 284.294 -0.566714 6.53548 0
M  V30 2999 H 284.211 0.863752 7.51049 0
M  V30 3000 H 285.479 -0.292221 7.78952 0
M  V30 3001 N 289.708 -1.40897 0.706093 0
M  V30 3002 C 290.638 -2.33418 0.0620085 0
M  V30 3003 C 291.619 -1.52385 -0.755827 0
M  V30 3004 O 292.804 -1.80886 -0.706674 0
M  V30 3005 C 289.934 -3.36293 -0.867445 0
M  V30 3006 C 288.888 -4.27716 -0.155932 0
M  V30 3007 C 288.214 -5.2105 -1.20046 0
M  V30 3008 C 289.514 -5.12944 0.984149 0
M  V30 3009 H 291.208 -2.87527 0.83477 0
M  V30 3010 H 288.754 -1.38249 0.402875 0
M  V30 3011 H 290.707 -3.99949 -1.32735 0
M  V30 3012 H 289.431 -2.80556 -1.67199 0
M  V30 3013 H 288.09 -3.65498 0.284047 0
M  V30 3014 H 287.738 -4.61624 -1.99781 0
M  V30 3015 H 287.438 -5.83056 -0.729328 0
M  V30 3016 H 288.962 -5.87584 -1.66066 0
M  V30 3017 H 290.376 -5.70109 0.604048 0
M  V30 3018 H 288.773 -5.83945 1.38304 0
M  V30 3019 H 289.843 -4.49485 1.81911 0
M  V30 3020 N 291.186 -0.45159 -1.50991 0
M  V30 3021 C 292.463 0.170707 -1.94854 0
M  V30 3022 C 292.843 1.58788 -1.39103 0
M  V30 3023 O 292.191 2.20913 -0.583921 0
M  V30 3024 C 292.401 0.133929 -3.48743 0
M  V30 3025 C 293.749 0.33248 -4.23296 0
M  V30 3026 O 294.773 0.211403 -3.55572 0
M  V30 3027 O 293.632 0.57486 -5.43468 0
M  V30 3028 H 290.726 0.122264 -0.817912 0
M  V30 3029 H 293.272 -0.510594 -1.61836 0
M  V30 3030 H 292.044 -0.856283 -3.81816 0
M  V30 3031 H 291.667 0.857529 -3.88242 0
M  V30 3032 N 292.664 1.56529 -0.183458 0
M  V30 3033 C 293.912 1.96855 0.457452 0
M  V30 3034 C 294.233 1.07104 1.62953 0
M  V30 3035 O 293.503 0.139887 1.954 0
M  V30 3036 H 292.083 0.72693 0.171992 0
M  V30 3037 H 294.745 1.93056 -0.267476 0
M  V30 3038 H 293.841 3.01423 0.809368 0
M  V30 3039 N 294.142 -0.090211 1.57342 0
M  V30 3040 C 295.37 -0.806224 1.90546 0
M  V30 3041 C 295.785 -1.72041 0.777644 0
M  V30 3042 O 295.142 -1.80778 -0.250103 0
M  V30 3043 C 295.193 -1.61546 3.23396 0
M  V30 3044 O 294.914 -0.738043 4.31839 0
M  V30 3045 C 296.415 -2.4341 3.70495 0
M  V30 3046 H 293.635 -0.230256 0.630257 0
M  V30 3047 H 296.179 -0.0659843 2.04394 0
M  V30 3048 H 294.334 -2.30816 3.11131 0
M  V30 3049 H 294.748 -1.29901 5.08159 0
M  V30 3050 H 296.222 -2.95676 4.66133 0
M  V30 3051 H 296.699 -3.22098 2.98579 0
M  V30 3052 H 297.305 -1.79331 3.85643 0
M  V30 3053 N 295.62 -1.53406 -0.361157 0
M  V30 3054 C 296.866 -1.70054 -1.10496 0
M  V30 3055 C 297.199 -0.453278 -1.88836 0
M  V30 3056 O 296.474 0.5495 -1.86576 0
M  V30 3057 C 296.757 -2.95317 -2.06058 0
M  V30 3058 C 296.61 -4.3021 -1.31298 0
M  V30 3059 C 297.929 -3.16193 -3.06121 0
M  V30 3060 H 295.048 -0.618799 -0.400321 0
M  V30 3061 H 297.69 -1.86052 -0.385318 0
M  V30 3062 H 295.84 -2.81809 -2.67425 0
M  V30 3063 H 297.512 -4.55538 -0.726807 0
M  V30 3064 H 295.755 -4.29421 -0.614853 0
M  V30 3065 H 296.426 -5.14 -2.01265 0
M  V30 3066 H 298.902 -3.28916 -2.5486 0
M  V30 3067 H 297.778 -4.05266 -3.70204 0
M  V30 3068 H 298.039 -2.31676 -3.76535 0
M  V30 3069 N 297.098 0.621204 -1.44841 0
M  V30 3070 C 298.028 1.74366 -1.55303 0
M  V30 3071 C 299.009 1.65199 -0.405385 0
M  V30 3072 O 300.194 1.83807 -0.626787 0
M  V30 3073 C 297.324 3.12931 -1.50637 0
M  V30 3074 C 296.278 3.36896 -2.63979 0
M  V30 3075 C 295.604 4.75594 -2.44366 0
M  V30 3076 C 296.904 3.28483 -4.06074 0
M  V30 3077 H 298.598 1.65867 -2.49256 0
M  V30 3078 H 296.144 0.796558 -1.19962 0
M  V30 3079 H 298.097 3.9124 -1.56555 0
M  V30 3080 H 296.821 3.22237 -0.532057 0
M  V30 3081 H 295.48 2.60972 -2.57467 0
M  V30 3082 H 295.128 4.81616 -1.45105 0
M  V30 3083 H 294.828 4.92586 -3.20364 0
M  V30 3084 H 296.352 5.5612 -2.52117 0
M  V30 3085 H 297.766 3.96684 -4.13902 0
M  V30 3086 H 296.163 3.57008 -4.82354 0
M  V30 3087 H 297.233 2.26133 -4.28943 0
M  V30 3088 N 298.576 1.31904 0.862503 0
M  V30 3089 C 299.506 1.22782 1.98612 0
M  V30 3090 C 300.487 0.113362 1.69722 0
M  V30 3091 O 301.672 0.299218 1.91881 0
M  V30 3092 C 298.802 0.942058 3.34279 0
M  V30 3093 C 297.756 2.0169 3.77499 0
M  V30 3094 C 297.082 1.58369 5.10709 0
M  V30 3095 C 298.382 3.43096 3.93805 0
M  V30 3096 H 300.076 2.16788 2.06502 0
M  V30 3097 H 297.622 1.04366 0.992154 0
M  V30 3098 H 299.575 0.864818 4.1243 0
M  V30 3099 H 298.299 -0.0336603 3.26583 0
M  V30 3100 H 296.958 2.08416 3.01593 0
M  V30 3101 H 296.606 0.595628 4.99461 0
M  V30 3102 H 296.306 2.30279 5.40597 0
M  V30 3103 H 297.83 1.52067 5.91361 0
M  V30 3104 H 299.244 3.39003 4.62331 0
M  V30 3105 H 297.641 4.13288 4.35101 0
M  V30 3106 H 298.711 3.83334 2.96957 0
M  V30 3107 N 300.054 -1.07777 1.14986 0
M  V30 3108 C 301.279 -1.84558 0.946213 0
M  V30 3109 C 301.704 -1.81323 -0.500362 0
M  V30 3110 O 301.062 -1.20301 -1.35637 0
M  V30 3111 C 301.11 -3.29736 1.45968 0
M  V30 3112 O 300.214 -4.07149 0.65601 0
M  V30 3113 H 299.555 -0.571641 0.33782 0
M  V30 3114 H 302.085 -1.35991 1.52865 0
M  V30 3115 H 302.095 -3.80574 1.47063 0
M  V30 3116 H 300.77 -3.31406 2.51283 0
M  V30 3117 H 299.347 -3.65994 0.714322 0
M  V30 3118 N 301.532 -0.945985 -1.26051 0
M  V30 3119 C 302.482 -0.430164 -2.23905 0
M  V30 3120 C 303.466 0.47579 -1.53704 0
M  V30 3121 O 304.658 0.310252 -1.7426 0
M  V30 3122 C 301.787 0.298957 -3.41996 0
M  V30 3123 C 300.873 -0.624566 -4.19476 0
M  V30 3124 N 301.264 -1.75245 -4.74471 0
M  V30 3125 C 299.562 -0.431082 -4.43912 0
M  V30 3126 C 300.263 -2.32834 -5.3307 0
M  V30 3127 N 299.239 -1.61583 -5.1903 0
M  V30 3128 H 303.041 -1.29107 -2.64024 0
M  V30 3129 H 300.555 -0.802428 -1.41191 0
M  V30 3130 H 302.552 0.685565 -4.11225 0
M  V30 3131 H 301.212 1.15657 -3.03403 0
M  V30 3132 H 302.223 -2.13449 -4.71868 0
M  V30 3133 H 298.9 0.384364 -4.15727 0
M  V30 3134 H 300.29 -3.27893 -5.86461 0
M  V30 3135 N 303.011 1.40521 -0.713556 0
M  V30 3136 C 304.236 2.05759 -0.26035 0
M  V30 3137 C 304.661 1.53403 1.08854 0
M  V30 3138 O 304.019 0.668535 1.68524 0
M  V30 3139 C 304.067 3.59745 -0.248122 0
M  V30 3140 O 303.171 4.05123 0.77131 0
M  V30 3141 H 302.512 0.652564 -0.122703 0
M  V30 3142 H 305.042 1.79958 -0.973467 0
M  V30 3143 H 305.052 4.07911 -0.0851129 0
M  V30 3144 H 303.727 3.97218 -1.2325 0
M  V30 3145 H 302.304 3.68422 0.57619 0
M  V30 3146 N 304.489 0.459591 1.5075 0
M  V30 3147 C 305.421 -0.37665 2.26084 0
M  V30 3148 C 306.434 -0.967109 1.30961 0
M  V30 3149 O 307.623 -0.857468 1.56556 0
M  V30 3150 C 304.723 -1.54112 3.01832 0
M  V30 3151 C 303.896 -1.06553 4.24223 0
M  V30 3152 C 302.955 -2.1027 4.82362 0
M  V30 3153 O 301.981 -1.68798 5.43595 0
M  V30 3154 N 303.183 -3.42974 4.68347 0
M  V30 3155 H 305.948 0.269124 2.98489 0
M  V30 3156 H 303.509 0.28972 1.59287 0
M  V30 3157 H 305.501 -2.23165 3.37608 0
M  V30 3158 H 304.071 -2.0918 2.32298 0
M  V30 3159 H 303.291 -0.201274 3.93686 0
M  V30 3160 H 304.579 -0.725516 5.03601 0
M  V30 3161 H 303.977 -3.79385 4.19623 0
M  V30 3162 H 302.534 -4.07858 5.08424 0
M  V30 3163 N 305.967 -1.56429 0.191757 0
M  V30 3164 C 307.192 -2.02309 -0.456706 0
M  V30 3165 C 307.617 -1.07103 -1.5463 0
M  V30 3166 O 306.975 -0.0539677 -1.8122 0
M  V30 3167 C 307.023 -3.46654 -0.993159 0
M  V30 3168 O 306.127 -3.54559 -2.10622 0
M  V30 3169 H 305.468 -0.655303 -0.107114 0
M  V30 3170 H 307.998 -2.02364 0.301653 0
M  V30 3171 H 308.008 -3.86377 -1.31061 0
M  V30 3172 H 306.683 -4.1544 -0.195504 0
M  V30 3173 H 305.26 -3.26708 -1.79767 0
M  V30 3174 N 307.445 0.0818655 -1.57387 0
M  V30 3175 C 308.693 0.781368 -1.86384 0
M  V30 3176 C 309.014 1.78618 -0.782342 0
M  V30 3177 O 308.284 1.94976 0.190061 0
M  V30 3178 H 306.864 0.291562 -0.687751 0
M  V30 3179 H 309.526 0.060348 -1.94807 0
M  V30 3180 H 308.622 1.3038 -2.83562 0
M  V30 3181 N 308.923 1.53595 0.353017 0
M  V30 3182 C 310.172 1.69603 1.09168 0
M  V30 3183 C 310.485 0.460925 1.90092 0
M  V30 3184 O 311.691 0.501774 2.66823 0
M  V30 3185 C 310.147 2.99872 1.9901 0
M  V30 3186 C 309.755 4.30687 1.23339 0
M  V30 3187 C 311.499 3.25246 2.72792 0
M  V30 3188 C 309.406 5.52036 2.12156 0
M  V30 3189 H 308.336 0.631966 0.411261 0
M  V30 3190 H 310.987 1.80096 0.351802 0
M  V30 3191 H 309.369 2.83212 2.7678 0
M  V30 3192 H 310.543 4.58019 0.505456 0
M  V30 3193 H 308.858 4.11853 0.613663 0
M  V30 3194 H 311.455 4.13095 3.39495 0
M  V30 3195 H 311.798 2.41846 3.38846 0
M  V30 3196 H 312.331 3.42638 2.021 0
M  V30 3197 H 309.07 6.37951 1.50659 0
M  V30 3198 H 308.59 5.28966 2.82764 0
M  V30 3199 H 310.269 5.87313 2.71427 0
M  V30 3200 N 310.401 -0.613514 1.45168 0
M  V30 3201 C 311.631 -1.39743 1.52169 0
M  V30 3202 C 312.039 -1.88596 0.151086 0
M  V30 3203 O 311.382 -1.6251 -0.856521 0
M  V30 3204 C 311.444 -2.64035 2.43979 0
M  V30 3205 C 311.108 -2.36861 3.90827 0
M  V30 3206 C 312.105 -1.97591 4.80889 0
M  V30 3207 C 309.79 -2.49956 4.35692 0
M  V30 3208 C 311.784 -1.71768 6.1382 0
M  V30 3209 C 309.471 -2.23747 5.68665 0
M  V30 3210 C 310.469 -1.84714 6.57548 0
M  V30 3211 O 310.157 -1.58809 7.88058 0
M  V30 3212 H 309.889 -0.434382 0.517966 0
M  V30 3213 H 312.443 -0.75587 1.90986 0
M  V30 3214 H 310.673 -3.3089 2.00122 0
M  V30 3215 H 312.362 -3.26069 2.41731 0
M  V30 3216 H 313.128 -1.87015 4.47493 0
M  V30 3217 H 309.007 -2.79305 3.66756 0
M  V30 3218 H 312.551 -1.41227 6.83155 0
M  V30 3219 H 308.448 -2.33938 6.01617 0
M  V30 3220 H 309.216 -1.7291 8.00028 0
M  V30 3221 N 311.879 -1.3236 -0.855495 0
M  V30 3222 C 313.29 -1.2056 -1.42556 0
M  V30 3223 C 313.641 0.182209 -1.95352 0
M  V30 3224 O 312.766 1.08088 -1.87472 0
M  V30 3225 C 313.361 -2.1826 -2.59129 0
M  V30 3226 C 311.92 -2.10351 -3.12137 0
M  V30 3227 C 311.067 -2.06674 -1.84882 0
M  V30 3228 H 314.018 -1.442 -0.662727 0
M  V30 3229 H 314.039 -1.78064 -3.36264 0
M  V30 3230 H 313.551 -3.19257 -2.20673 0
M  V30 3231 H 311.652 -1.12599 -3.55179 0
M  V30 3232 H 311.765 -3.00135 -3.73438 0
M  V30 3233 H 310.129 -1.51901 -2.04446 0
M  V30 3234 H 310.912 -3.09451 -1.48643 0
M  V30 3235 N 313.357 1.07166 -1.15556 0
M  V30 3236 C 314.604 1.79798 -0.931604 0
M  V30 3237 C 314.932 1.8682 0.54115 0
M  V30 3238 O 314.187 1.34942 1.41736 0
M  V30 3239 C 314.486 3.24707 -1.49332 0
M  V30 3240 C 314.152 3.37781 -2.98688 0
M  V30 3241 C 312.814 3.41057 -3.39461 0
M  V30 3242 C 315.166 3.40424 -3.94665 0
M  V30 3243 C 312.494 3.4458 -4.74849 0
M  V30 3244 C 314.846 3.45485 -5.29927 0
M  V30 3245 C 313.51 3.47039 -5.70193 0
M  V30 3246 H 312.78 0.657928 -0.340898 0
M  V30 3247 H 315.427 1.26091 -1.44129 0
M  V30 3248 H 313.732 3.81208 -0.904859 0
M  V30 3249 H 315.429 3.79486 -1.29582 0
M  V30 3250 H 312.019 3.35932 -2.66172 0
M  V30 3251 H 316.203 3.37113 -3.64237 0
M  V30 3252 H 311.459 3.44083 -5.05388 0
M  V30 3253 H 315.633 3.46476 -6.04092 0
M  V30 3254 H 313.26 3.49522 -6.75084 0
M  V30 3255 N 314.835 0.952656 1.25548 0
M  V30 3256 C 315.767 0.428609 2.25157 0
M  V30 3257 C 316.78 -0.454428 1.56329 0
M  V30 3258 O 317.969 -0.263023 1.76552 0
M  V30 3259 C 315.069 -0.401972 3.36508 0
M  V30 3260 C 314.242 0.467601 4.34893 0
M  V30 3261 C 313.301 -0.30445 5.25319 0
M  V30 3262 O 312.327 0.296473 5.68427 0
M  V30 3263 N 313.529 -1.59805 5.5807 0
M  V30 3264 H 316.294 1.28497 2.70756 0
M  V30 3265 H 313.855 0.822798 1.39433 0
M  V30 3266 H 315.847 -0.926134 3.9396 0
M  V30 3267 H 314.417 -1.15918 2.90313 0
M  V30 3268 H 313.637 1.17288 3.76347 0
M  V30 3269 H 314.925 1.06119 4.97611 0
M  V30 3270 H 314.323 -2.10823 5.24948 0
M  V30 3271 H 312.88 -2.06822 6.18116 0
M  V30 3272 N 316.313 -1.40141 0.720998 0
M  V30 3273 C 317.541 -2.05096 0.272656 0
M  V30 3274 C 317.956 -1.54334 -1.0875 0
M  V30 3275 O 317.313 -0.702211 -1.6845 0
M  V30 3276 C 317.364 -3.60636 0.249835 0
M  V30 3277 O 317.085 -4.09526 1.55629 0
M  V30 3278 C 318.586 -4.42772 -0.216396 0
M  V30 3279 H 315.806 -0.659897 0.121558 0
M  V30 3280 H 318.35 -1.79449 0.980723 0
M  V30 3281 H 316.505 -3.85232 -0.409237 0
M  V30 3282 H 316.919 -5.03758 1.4604 0
M  V30 3283 H 318.393 -5.51702 -0.181212 0
M  V30 3284 H 318.87 -4.20756 -1.25941 0
M  V30 3285 H 319.476 -4.23294 0.412596 0
M  V30 3286 N 317.792 -0.46758 -1.50504 0
M  V30 3287 C 318.755 0.317059 -2.26996 0
M  V30 3288 C 319.755 0.923513 -1.31635 0
M  V30 3289 O 320.945 0.793239 -1.55091 0
M  V30 3290 C 318.077 1.45134 -3.08462 0
M  V30 3291 H 319.27 -0.353723 -2.97807 0
M  V30 3292 H 316.823 -0.221545 -1.54722 0
M  V30 3293 H 317.558 2.15728 -2.4214 0
M  V30 3294 H 317.343 1.02232 -3.78538 0
M  V30 3295 H 318.833 2.00493 -3.66323 0
M  V30 3296 N 319.27 1.56325 -0.20005 0
M  V30 3297 C 320.233 2.18084 0.705132 0
M  V30 3298 C 321.233 1.13666 1.1374 0
M  V30 3299 O 322.423 1.39023 1.04968 0
M  V30 3300 C 319.555 2.78689 1.96329 0
M  V30 3301 H 320.748 2.99435 0.167023 0
M  V30 3302 H 318.301 1.56221 0.0495725 0
M  V30 3303 H 319.036 2.0115 2.5438 0
M  V30 3304 H 318.821 3.55133 1.66202 0
M  V30 3305 H 320.311 3.26096 2.60866 0
M  V30 3306 N 320.748 -0.0735177 1.57428 0
M  V30 3307 C 321.681 -1.11932 1.98863 0
M  V30 3308 C 322.659 -1.37666 0.865266 0
M  V30 3309 O 323.843 -1.51068 1.12742 0
M  V30 3310 C 320.97 -2.46403 2.32386 0
M  V30 3311 C 320.016 -2.36815 3.54713 0
M  V30 3312 S 320.849 -1.76392 5.05614 0
M  V30 3313 C 322.005 -3.12444 5.42337 0
M  V30 3314 H 322.238 -0.766212 2.87257 0
M  V30 3315 H 319.771 -0.281987 1.51803 0
M  V30 3316 H 321.729 -3.23755 2.52375 0
M  V30 3317 H 320.39 -2.78876 1.44524 0
M  V30 3318 H 319.583 -3.35977 3.7568 0
M  V30 3319 H 319.185 -1.67598 3.34345 0
M  V30 3320 H 321.477 -4.08753 5.40303 0
M  V30 3321 H 322.42 -2.96258 6.43146 0
M  V30 3322 H 322.828 -3.1297 4.69798 0
M  V30 3323 N 322.226 -1.5378 -0.344866 0
M  V30 3324 C 323.174 -1.82373 -1.4437 0
M  V30 3325 C 324.168 -0.694128 -1.54526 0
M  V30 3326 O 325.374 -0.877442 -1.57165 0
M  V30 3327 H 321.749 -0.577765 -0.481344 0
M  V30 3328 H 323.72 -2.74306 -1.17468 0
M  V30 3329 C 322.469 -2.04898 -2.80913 0
M  V30 3330 H 321.792 -2.9127 -2.73865 0
M  V30 3331 H 323.232 -2.28871 -3.56923 0
M  V30 3332 C 321.691 -0.834116 -3.26411 0
M  V30 3333 O 322.221 -0.0328885 -4.01687 0
M  V30 3334 N 320.427 -0.65171 -2.83198 0
M  V30 3335 H 319.974 -1.30489 -2.22104 0
M  V30 3336 H 319.932 0.159686 -3.13994 0
M  V30 3337 N 323.704 0.605807 -1.45491 0
M  V30 3338 C 325.115 1.18777 -1.44045 0
M  V30 3339 C 325.466 1.95471 -0.169001 0
M  V30 3340 O 324.591 2.0374 0.729324 0
M  V30 3341 C 325.186 2.16064 -2.60963 0
M  V30 3342 C 323.745 2.69633 -2.62631 0
M  V30 3343 C 322.892 1.45072 -2.36325 0
M  V30 3344 H 325.843 0.395017 -1.53705 0
M  V30 3345 H 325.864 2.9913 -2.35163 0
M  V30 3346 H 325.376 1.60217 -3.53486 0
M  V30 3347 H 323.477 3.29414 -1.74119 0
M  V30 3348 H 323.59 3.13944 -3.61906 0
M  V30 3349 H 321.954 1.74089 -1.85917 0
M  V30 3350 H 322.737 0.910899 -3.30995 0
M  V30 3351 N 325.182 1.32811 0.848464 0
M  V30 3352 C 326.129 1.22265 1.95755 0
M  V30 3353 C 327.099 0.103413 1.65778 0
M  V30 3354 O 328.284 0.280033 1.88734 0
M  V30 3355 C 325.424 0.958014 3.31536 0
M  V30 3356 C 324.537 2.16262 3.73971 0
M  V30 3357 C 323.672 1.83295 4.98575 0
M  V30 3358 C 322.711 3.00041 5.33518 0
M  V30 3359 N 321.848 2.67125 6.49299 0
M  V30 3360 H 326.688 2.17128 2.04107 0
M  V30 3361 H 324.225 1.07982 0.998913 0
M  V30 3362 H 326.183 0.785052 4.09747 0
M  V30 3363 H 324.813 0.046159 3.22767 0
M  V30 3364 H 323.865 2.44565 2.91362 0
M  V30 3365 H 325.177 3.03572 3.95785 0
M  V30 3366 H 324.331 1.62586 5.84509 0
M  V30 3367 H 323.07 0.932078 4.7871 0
M  V30 3368 H 322.075 3.21374 4.46093 0
M  V30 3369 H 323.3 3.90869 5.55336 0
M  V30 3370 H 321.246 1.79586 6.3094 0
M  V30 3371 H 321.163 3.47965 6.71161 0
M  V30 3372 H 322.431 2.49861 7.3837 0
M  V30 3373 N 326.66 -1.06551 1.16123 0
M  V30 3374 C 327.908 -1.78947 0.939267 0
M  V30 3375 C 328.229 -1.87532 -0.534476 0
M  V30 3376 O 327.499 -1.38211 -1.38833 0
M  V30 3377 H 326.079 -0.662807 0.344523 0
M  V30 3378 H 328.741 -1.28725 1.46342 0
M  V30 3379 H 327.837 -2.81117 1.35572 0
M  V30 3380 N 328.138 -0.959301 -1.25041 0
M  V30 3381 C 329.387 -0.612254 -1.92183 0
M  V30 3382 C 329.7 0.855347 -1.75907 0
M  V30 3383 O 330.906 1.31256 -2.37664 0
M  V30 3384 C 329.362 -1.04435 -3.44414 0
M  V30 3385 C 328.97 -2.53482 -3.69393 0
M  V30 3386 C 330.714 -0.770055 -4.17457 0
M  V30 3387 C 328.621 -2.90468 -5.15153 0
M  V30 3388 H 327.551 -0.225279 -0.719559 0
M  V30 3389 H 330.202 -1.16438 -1.41825 0
M  V30 3390 H 328.584 -0.4206 -3.9376 0
M  V30 3391 H 329.758 -3.20916 -3.30681 0
M  V30 3392 H 328.073 -2.78432 -3.0962 0
M  V30 3393 H 330.67 -1.02249 -5.24832 0
M  V30 3394 H 331.013 0.293611 -4.15263 0
M  V30 3395 H 331.546 -1.35437 -3.74034 0
M  V30 3396 H 328.285 -3.95871 -5.22462 0
M  V30 3397 H 327.805 -2.27711 -5.54894 0
M  V30 3398 H 329.484 -2.79914 -5.83315 0
M  V30 3399 N 329.616 1.39756 -0.72842 0
M  V30 3400 C 330.844 2.04948 -0.283528 0
M  V30 3401 C 331.259 1.54908 1.0793 0
M  V30 3402 O 330.616 0.711135 1.68075 0
M  V30 3403 C 330.667 3.60498 -0.268957 0
M  V30 3404 O 330.388 4.08695 -1.57798 0
M  V30 3405 C 331.889 4.4288 0.192912 0
M  V30 3406 H 329.109 0.659243 -0.125056 0
M  V30 3407 H 331.653 1.78927 -0.990226 0
M  V30 3408 H 329.808 3.85444 0.388801 0
M  V30 3409 H 330.222 5.02977 -1.48709 0
M  V30 3410 H 331.696 5.51791 0.151952 0
M  V30 3411 H 332.173 4.21418 1.23708 0
M  V30 3412 H 332.779 4.23069 -0.435039 0
M  V30 3413 N 331.094 0.475555 1.50254 0
M  V30 3414 C 332.057 -0.305016 2.27161 0
M  V30 3415 C 333.057 -0.916519 1.32123 0
M  V30 3416 O 334.247 -0.785003 1.5551 0
M  V30 3417 C 331.379 -1.43496 3.09227 0
M  V30 3418 H 332.572 0.369511 2.97615 0
M  V30 3419 H 330.125 0.229747 1.54602 0
M  V30 3420 H 330.86 -2.14441 2.43281 0
M  V30 3421 H 330.645 -1.00223 3.79075 0
M  V30 3422 H 332.135 -1.98548 3.67381 0
M  V30 3423 N 332.573 -1.56217 0.208337 0
M  V30 3424 C 333.822 -1.97124 -0.427204 0
M  V30 3425 C 334.135 -1.09859 -1.61835 0
M  V30 3426 O 335.341 -1.40606 -2.32255 0
M  V30 3427 C 333.797 -3.50633 -0.811442 0
M  V30 3428 C 333.405 -4.46582 0.35615 0
M  V30 3429 C 335.149 -4.00282 -1.41332 0
M  V30 3430 C 333.056 -5.91379 -0.0497852 0
M  V30 3431 H 331.986 -0.736086 -0.163381 0
M  V30 3432 H 334.637 -1.8099 0.302456 0
M  V30 3433 H 333.019 -3.62319 -1.59815 0
M  V30 3434 H 334.193 -4.46636 1.1337 0
M  V30 3435 H 332.508 -4.07202 0.870396 0
M  V30 3436 H 335.105 -5.0595 -1.72972 0
M  V30 3437 H 335.448 -3.45359 -2.32449 0
M  V30 3438 H 335.981 -3.91764 -0.690323 0
M  V30 3439 H 332.72 -6.50255 0.827529 0
M  V30 3440 H 332.24 -5.94549 -0.791926 0
M  V30 3441 H 333.919 -6.45209 -0.481042 0
M  V30 3442 N 334.051 0.0651679 -1.57465 0
M  V30 3443 C 335.297 0.764193 -1.87851 0
M  V30 3444 C 335.63 1.76889 -0.801495 0
M  V30 3445 O 334.905 1.93594 0.187528 0
M  V30 3446 C 335.188 1.46625 -3.28897 0
M  V30 3447 C 335.041 0.477515 -4.47258 0
M  V30 3448 C 336.36 2.4095 -3.68281 0
M  V30 3449 H 333.479 0.276351 -0.683227 0
M  V30 3450 H 336.121 0.0272868 -1.8998 0
M  V30 3451 H 334.271 2.09438 -3.27212 0
M  V30 3452 H 335.943 -0.145922 -4.61069 0
M  V30 3453 H 334.186 -0.206576 -4.33308 0
M  V30 3454 H 334.857 1.0065 -5.42746 0
M  V30 3455 H 337.333 1.88209 -3.71102 0
M  V30 3456 H 336.209 2.87072 -4.67847 0
M  V30 3457 H 336.47 3.26049 -2.98571 0
M  V30 3458 N 335.529 1.53961 0.336706 0
M  V30 3459 C 336.754 1.75797 1.10046 0
M  V30 3460 C 337.179 0.498985 1.81361 0
M  V30 3461 O 336.537 -0.548769 1.72795 0
M  V30 3462 C 336.585 2.94257 2.08436 0
M  V30 3463 O 335.689 2.64883 3.16087 0
M  V30 3464 H 335.03 0.582936 0.317934 0
M  V30 3465 H 337.56 2.00945 0.38501 0
M  V30 3466 H 337.57 3.21237 2.51537 0
M  V30 3467 H 336.245 3.85564 1.55927 0
M  V30 3468 H 334.822 2.48812 2.77753 0
M  V30 3469 N 337.007 -0.598083 1.45811 0
M  V30 3470 C 338.253 -1.35882 1.50545 0
M  V30 3471 C 338.586 -1.93616 0.150445 0
M  V30 3472 O 337.861 -1.75604 -0.83628 0
M  V30 3473 C 338.144 -2.49966 2.59208 0
M  V30 3474 C 337.997 -1.97367 4.04186 0
M  V30 3475 C 339.316 -3.52068 2.64076 0
M  V30 3476 H 336.435 -0.492717 0.548087 0
M  V30 3477 H 339.077 -0.673319 1.77669 0
M  V30 3478 H 337.227 -3.08443 2.3621 0
M  V30 3479 H 338.899 -1.43466 4.38423 0
M  V30 3480 H 337.142 -1.283 4.14393 0
M  V30 3481 H 337.813 -2.79649 4.75921 0
M  V30 3482 H 340.289 -3.03448 2.84708 0
M  V30 3483 H 339.165 -4.2937 3.41954 0
M  V30 3484 H 339.426 -4.08304 1.69531 0
M  V30 3485 N 338.485 -1.33259 -0.841409 0
M  V30 3486 C 339.395 -1.25332 -1.98316 0
M  V30 3487 C 340.411 -0.164364 -1.73222 0
M  V30 3488 O 341.587 -0.387486 -1.97637 0
M  V30 3489 C 338.652 -0.990078 -3.32262 0
M  V30 3490 C 337.713 -2.16879 -3.70489 0
M  V30 3491 C 336.946 -1.91801 -4.98044 0
M  V30 3492 O 337.169 -0.867075 -5.63771 0
M  V30 3493 O 336.103 -2.78267 -5.33714 0
M  V30 3494 H 339.929 -2.21344 -2.07944 0
M  V30 3495 H 337.514 -1.1328 -0.974058 0
M  V30 3496 H 339.396 -0.860321 -4.12524 0
M  V30 3497 H 338.071 -0.0602155 -3.23644 0
M  V30 3498 H 336.978 -2.35407 -2.90748 0
M  V30 3499 H 338.311 -3.0819 -3.8377 0
M  V30 3500 N 339.963 1.05934 -1.16686 0
M  V30 3501 C 341.374 1.60263 -0.957745 0
M  V30 3502 C 341.725 1.89789 0.49745 0
M  V30 3503 O 340.85 1.67401 1.37135 0
M  V30 3504 C 341.445 2.91172 -1.73218 0
M  V30 3505 C 340.004 3.42188 -1.56794 0
M  V30 3506 C 339.151 2.16028 -1.73859 0
M  V30 3507 H 342.102 0.888392 -1.31504 0
M  V30 3508 H 342.123 3.60744 -1.21014 0
M  V30 3509 H 341.635 2.6965 -2.79124 0
M  V30 3510 H 339.736 3.68762 -0.533437 0
M  V30 3511 H 339.849 4.17273 -2.35414 0
M  V30 3512 H 338.213 2.26426 -1.16633 0
M  V30 3513 H 338.996 1.96985 -2.81161 0
M  V30 3514 N 341.441 0.965919 1.2453 0
M  V30 3515 C 342.689 0.625593 1.92174 0
M  V30 3516 C 343.01 -0.841652 1.75901 0
M  V30 3517 O 342.28 -1.60061 1.12948 0
M  V30 3518 H 340.86 0.228388 0.71123 0
M  V30 3519 H 343.522 1.2266 1.51461 0
M  V30 3520 H 342.618 0.864653 2.99884 0
M  V30 3521 N 342.919 -1.39368 0.735821 0
M  V30 3522 C 343.829 -2.34395 0.0979693 0
M  V30 3523 C 344.845 -1.58361 -0.720968 0
M  V30 3524 O 346.021 -1.90648 -0.649245 0
M  V30 3525 C 343.086 -3.37393 -0.797916 0
M  V30 3526 C 342.147 -4.29287 0.0333662 0
M  V30 3527 C 341.38 -5.27365 -0.819854 0
M  V30 3528 O 341.603 -5.31959 -2.05855 0
M  V30 3529 O 340.537 -6.01389 -0.248079 0
M  V30 3530 H 344.363 -2.90601 0.882315 0
M  V30 3531 H 341.948 -1.40909 0.4965 0
M  V30 3532 H 343.83 -4.00505 -1.31048 0
M  V30 3533 H 342.505 -2.83571 -1.56106 0
M  V30 3534 H 341.412 -3.69395 0.591475 0
M  V30 3535 H 342.745 -4.86317 0.758752 0
M  V30 3536 N 344.397 -0.483516 -1.5 0
M  V30 3537 C 345.637 0.0657469 -2.04294 0
M  V30 3538 C 346.001 1.35869 -1.35659 0
M  V30 3539 O 347.202 1.99111 -1.80578 0
M  V30 3540 C 345.473 0.232758 -3.56641 0
M  V30 3541 S 347.032 0.738788 -4.32536 0
M  V30 3542 H 343.85 0.0100755 -0.710929 0
M  V30 3543 H 346.452 -0.653494 -1.84254 0
M  V30 3544 H 345.156 -0.713847 -4.04144 0
M  V30 3545 H 344.687 0.977751 -3.81056 0
M  V30 3546 H 346.702 2.01048 -4.53645 0
M  V30 3547 N 345.875 1.56104 -0.216619 0
M  V30 3548 C 347.286 1.844 0.292128 0
M  V30 3549 C 347.637 1.13788 1.59833 0
M  V30 3550 O 346.762 0.405888 2.12559 0
M  V30 3551 C 347.357 3.3452 0.53681 0
M  V30 3552 C 345.916 3.63151 0.989876 0
M  V30 3553 C 345.063 2.77255 0.0502302 0
M  V30 3554 H 348.014 1.52481 -0.439926 0
M  V30 3555 H 348.035 3.54459 1.38345 0
M  V30 3556 H 347.547 3.85885 -0.414031 0
M  V30 3557 H 345.648 3.17238 1.95425 0
M  V30 3558 H 345.761 4.71177 0.867698 0
M  V30 3559 H 344.125 2.48555 0.556117 0
M  V30 3560 H 344.908 3.31416 -0.89544 0
M  V30 3561 N 347.353 -0.0568162 1.57498 0
M  V30 3562 C 348.3 -1.06591 2.04712 0
M  V30 3563 C 349.27 -1.3758 0.930644 0
M  V30 3564 O 350.455 -1.48392 1.19935 0
M  V30 3565 C 347.595 -2.3701 2.50839 0
M  V30 3566 C 346.708 -2.12421 3.76167 0
M  V30 3567 C 345.843 -3.36511 4.11015 0
M  V30 3568 C 344.882 -3.07353 5.2934 0
M  V30 3569 N 344.019 -4.23816 5.59754 0
M  V30 3570 H 348.859 -0.65631 2.90683 0
M  V30 3571 H 346.396 -0.312481 1.43743 0
M  V30 3572 H 348.354 -3.13175 2.7564 0
M  V30 3573 H 346.984 -2.75744 1.67825 0
M  V30 3574 H 346.036 -1.2688 3.58616 0
M  V30 3575 H 347.348 -1.86894 4.62463 0
M  V30 3576 H 346.502 -4.21062 4.36797 0
M  V30 3577 H 345.241 -3.65128 3.23315 0
M  V30 3578 H 344.246 -2.212 5.03339 0
M  V30 3579 H 345.471 -2.80043 6.1867 0
M  V30 3580 H 343.417 -4.52436 4.75014 0
M  V30 3581 H 343.334 -4.01614 6.40501 0
M  V30 3582 H 344.602 -5.0932 5.90096 0
M  V30 3583 N 348.832 -1.54138 -0.328536 0
M  V30 3584 C 350.243 -1.63395 -0.903272 0
M  V30 3585 C 350.594 -0.524828 -1.8905 0
M  V30 3586 O 349.719 0.343068 -2.13663 0
M  V30 3587 C 350.314 -2.9618 -1.64507 0
M  V30 3588 C 348.873 -3.0765 -2.1686 0
M  V30 3589 C 348.02 -2.58933 -0.992416 0
M  V30 3590 H 350.971 -1.58344 -0.106253 0
M  V30 3591 H 350.992 -2.86061 -2.50897 0
M  V30 3592 H 350.504 -3.76884 -0.926302 0
M  V30 3593 H 348.605 -2.31611 -2.91868 0
M  V30 3594 H 348.718 -4.1337 -2.42202 0
M  V30 3595 H 347.082 -2.14706 -1.37016 0
M  V30 3596 H 347.865 -3.42089 -0.288041 0
M  V30 3597 N 350.31 0.590341 -1.46126 0
M  V30 3598 C 351.22 1.72793 -1.58681 0
M  V30 3599 C 352.236 1.67516 -0.470566 0
M  V30 3600 O 353.412 1.87562 -0.733642 0
M  V30 3601 C 350.477 3.09287 -1.5666 0
M  V30 3602 C 349.538 3.25886 -2.79458 0
M  V30 3603 C 348.771 4.55869 -2.77524 0
M  V30 3604 O 348.994 5.3928 -1.85832 0
M  V30 3605 O 347.928 4.75552 -3.68964 0
M  V30 3606 H 351.754 1.65149 -2.54872 0
M  V30 3607 H 349.339 0.756486 -1.28832 0
M  V30 3608 H 351.221 3.90577 -1.58202 0
M  V30 3609 H 349.896 3.17385 -0.636271 0
M  V30 3610 H 348.803 2.44119 -2.83472 0
M  V30 3611 H 350.136 3.22675 -3.71674 0
M  V30 3612 N 351.788 1.33704 0.83433 0
M  V30 3613 C 353.065 1.16011 1.57483 0
M  V30 3614 C 353.445 -0.27176 2.09343 0
M  V30 3615 O 352.793 -1.27146 1.89858 0
M  V30 3616 C 353.003 2.20507 2.70514 0
M  V30 3617 C 354.351 2.54898 3.39577 0
M  V30 3618 O 355.375 2.19209 2.80759 0
M  V30 3619 O 354.234 3.16158 4.45765 0
M  V30 3620 H 351.328 0.448992 0.694503 0
M  V30 3621 H 353.874 1.453 0.876691 0
M  V30 3622 H 352.646 3.16667 2.29865 0
M  V30 3623 H 352.269 1.92329 3.47987 0
M  V30 3624 N 353.266 -1.05314 1.17247 0
M  V30 3625 C 354.512 -1.78557 0.961513 0
M  V30 3626 C 354.845 -1.87419 -0.508697 0
M  V30 3627 O 354.12 -1.37307 -1.37757 0
M  V30 3628 C 354.403 -3.22514 1.60176 0
M  V30 3629 C 354.256 -3.21673 3.14399 0
M  V30 3630 C 355.575 -4.20318 1.30463 0
M  V30 3631 H 352.694 -0.6482 0.350723 0
M  V30 3632 H 355.336 -1.23102 1.44727 0
M  V30 3633 H 353.486 -3.69867 1.18871 0
M  V30 3634 H 355.158 -2.82405 3.64753 0
M  V30 3635 H 353.401 -2.60048 3.47214 0
M  V30 3636 H 354.072 -4.23271 3.54324 0
M  V30 3637 H 356.548 -3.81454 1.66229 0
M  V30 3638 H 355.424 -5.19289 1.77848 0
M  V30 3639 H 355.685 -4.41526 0.22521 0
M  V30 3640 N 354.744 -0.972509 -1.24016 0
M  V30 3641 C 355.691 -0.505969 -2.25186 0
M  V30 3642 C 356.661 0.451009 -1.5986 0
M  V30 3643 O 357.846 0.360307 -1.87367 0
M  V30 3644 C 354.986 0.193089 -3.44559 0
M  V30 3645 C 354.099 -0.803222 -4.24467 0
M  V30 3646 C 353.234 -0.0797793 -5.3114 0
M  V30 3647 C 352.273 -1.06583 -6.02749 0
M  V30 3648 N 351.41 -0.372074 -7.01113 0
M  V30 3649 H 356.25 -1.37351 -2.64459 0
M  V30 3650 H 353.787 -0.688419 -1.29997 0
M  V30 3651 H 355.745 0.615125 -4.1264 0
M  V30 3652 H 354.375 1.02455 -3.06109 0
M  V30 3653 H 353.427 -1.34368 -3.55878 0
M  V30 3654 H 354.739 -1.55494 -4.73944 0
M  V30 3655 H 353.893 0.400015 -6.0538 0
M  V30 3656 H 352.632 0.704597 -4.82583 0
M  V30 3657 H 351.637 -1.55645 -5.27309 0
M  V30 3658 H 352.862 -1.85074 -6.53395 0
M  V30 3659 H 350.808 0.393238 -6.5482 0
M  V30 3660 H 350.725 -1.06258 -7.48495 0
M  V30 3661 H 351.993 0.0855932 -7.79453 0
M  V30 3662 N 356.222 1.38976 -0.743202 0
M  V30 3663 C 357.633 1.83123 -0.363732 0
M  V30 3664 C 357.984 1.6205 1.10609 0
M  V30 3665 O 357.109 1.11606 1.854 0
M  V30 3666 C 357.704 3.32439 -0.653408 0
M  V30 3667 C 356.263 3.74974 -0.327338 0
M  V30 3668 C 355.41 2.61878 -0.911875 0
M  V30 3669 H 358.361 1.27852 -0.940191 0
M  V30 3670 H 358.382 3.80432 0.0720031 0
M  V30 3671 H 357.894 3.47745 -1.72323 0
M  V30 3672 H 355.995 3.65252 0.736314 0
M  V30 3673 H 356.108 4.72106 -0.815631 0
M  V30 3674 H 354.472 2.52448 -0.337944 0
M  V30 3675 H 355.255 2.79987 -1.98651 0
M  V30 3676 N 357.7 0.491464 1.49741 0
M  V30 3677 C 358.63 -0.28154 2.31796 0
M  V30 3678 C 359.611 -0.971473 1.3963 0
M  V30 3679 O 360.796 -0.964719 1.68543 0
M  V30 3680 C 357.926 -1.35203 3.19902 0
M  V30 3681 C 356.88 -0.782529 4.20786 0
M  V30 3682 C 356.206 -1.95283 4.97764 0
M  V30 3683 C 357.506 0.21999 5.21837 0
M  V30 3684 H 359.2 0.403355 2.96671 0
M  V30 3685 H 356.746 0.195425 1.42668 0
M  V30 3686 H 358.699 -1.90045 3.76113 0
M  V30 3687 H 357.423 -2.06598 2.52953 0
M  V30 3688 H 356.082 -0.255928 3.65706 0
M  V30 3689 H 355.73 -2.65423 4.2727 0
M  V30 3690 H 355.43 -1.57789 5.66018 0
M  V30 3691 H 356.954 -2.50577 5.56816 0
M  V30 3692 H 358.368 -0.23996 5.72798 0
M  V30 3693 H 356.765 0.51026 5.97927 0
M  V30 3694 H 357.835 1.13911 4.7133 0
M  V30 3695 N 359.178 -1.55987 0.224894 0
M  V30 3696 C 360.406 -2.02784 -0.410665 0
M  V30 3697 C 360.821 -1.10464 -1.53112 0
M  V30 3698 O 360.178 -0.114871 -1.82138 0
M  V30 3699 C 360.229 -3.49087 -0.939165 0
M  V30 3700 O 359.95 -4.37887 0.136614 0
M  V30 3701 C 361.451 -4.11543 -1.64763 0
M  V30 3702 H 358.671 -0.663484 -0.100148 0
M  V30 3703 H 361.215 -2.01614 0.342326 0
M  V30 3704 H 359.37 -3.50861 -1.64242 0
M  V30 3705 H 359.784 -5.23849 -0.261155 0
M  V30 3706 H 361.258 -5.15673 -1.96939 0
M  V30 3707 H 361.735 -3.56736 -2.56195 0
M  V30 3708 H 362.341 -4.13629 -0.989503 0
M  V30 3709 N 360.656 0.0484629 -1.57525 0
M  V30 3710 C 361.881 0.759177 -1.93006 0
M  V30 3711 C 362.306 1.69125 -0.823317 0
M  V30 3712 O 361.664 1.79931 0.222364 0
M  V30 3713 C 361.712 1.50899 -3.27509 0
M  V30 3714 O 360.816 2.62112 -3.18388 0
M  V30 3715 H 360.157 0.205564 -0.631379 0
M  V30 3716 H 362.687 0.00972959 -2.04598 0
M  V30 3717 H 362.697 1.88317 -3.6194 0
M  V30 3718 H 361.372 0.825269 -4.0763 0
M  V30 3719 H 359.949 2.27379 -2.95556 0
M  V30 3720 N 362.134 1.5431 0.320358 0
M  V30 3721 C 363.383 1.7188 1.05546 0
M  V30 3722 C 363.696 0.501143 1.89071 0
M  V30 3723 O 364.902 0.558258 2.65699 0
M  V30 3724 C 363.358 3.04025 1.92605 0
M  V30 3725 C 362.966 4.33207 1.14176 0
M  V30 3726 C 364.71 3.30959 2.65832 0
M  V30 3727 C 362.617 5.56412 2.00399 0
M  V30 3728 H 361.547 0.640547 0.397763 0
M  V30 3729 H 364.198 1.80802 0.313522 0
M  V30 3730 H 362.58 2.89019 2.7071 0
M  V30 3731 H 363.754 4.58989 0.40819 0
M  V30 3732 H 362.069 4.13062 0.526165 0
M  V30 3733 H 364.666 4.20203 3.30656 0
M  V30 3734 H 365.009 2.48979 3.33639 0
M  V30 3735 H 365.542 3.46847 1.94787 0
M  V30 3736 H 362.281 6.41004 1.37094 0
M  V30 3737 H 361.801 5.34844 2.7148 0
M  V30 3738 H 363.48 5.92938 2.58908 0
M  V30 3739 N 363.613 -0.582584 1.46437 0
M  V30 3740 C 365.024 -1.1647 1.45916 0
M  V30 3741 C 365.375 -1.95177 0.200077 0
M  V30 3742 O 364.5 -2.04874 -0.696819 0
M  V30 3743 C 365.095 -2.11885 2.64367 0
M  V30 3744 C 363.654 -2.65421 2.66887 0
M  V30 3745 C 362.801 -1.41294 2.38603 0
M  V30 3746 H 365.752 -0.370514 1.54314 0
M  V30 3747 H 365.773 -2.9535 2.39892 0
M  V30 3748 H 365.285 -1.54573 3.5599 0
M  V30 3749 H 363.386 -3.26602 1.79338 0
M  V30 3750 H 363.499 -3.08147 3.66854 0
M  V30 3751 H 361.863 -1.71109 1.88663 0
M  V30 3752 H 362.646 -0.858125 3.32402 0
M  V30 3753 N 365.091 -1.34144 -0.827227 0
M  V30 3754 C 366.337 -1.26446 -1.58554 0
M  V30 3755 C 366.67 0.1664 -1.93486 0
M  V30 3756 O 365.945 1.1107 -1.59667 0
M  V30 3757 C 366.228 -2.15111 -2.8879 0
M  V30 3758 C 366.081 -3.66712 -2.60465 0
M  V30 3759 C 367.4 -2.03311 -3.90324 0
M  V30 3760 H 364.519 -0.46067 -0.575284 0
M  V30 3761 H 367.161 -1.64356 -0.953269 0
M  V30 3762 H 365.311 -1.8291 -3.42748 0
M  V30 3763 H 366.983 -4.09259 -2.1285 0
M  V30 3764 H 365.226 -3.88014 -1.93978 0
M  V30 3765 H 365.897 -4.24112 -3.53317 0
M  V30 3766 H 368.373 -2.31574 -3.45706 0
M  V30 3767 H 367.249 -2.67582 -4.79261 0
M  V30 3768 H 367.51 -1.00879 -4.30437 0
M  V30 3769 N 366.569 1.04691 -1.17803 0
M  V30 3770 C 367.499 2.14494 -0.92275 0
M  V30 3771 C 368.48 1.69546 0.137179 0
M  V30 3772 O 369.665 1.94195 -0.0141108 0
M  V30 3773 C 366.795 3.44491 -0.440803 0
M  V30 3774 C 365.749 4.03031 -1.4405 0
M  V30 3775 C 365.075 5.28432 -0.81631 0
M  V30 3776 C 366.375 4.39932 -2.81527 0
M  V30 3777 H 368.069 2.36107 -1.84103 0
M  V30 3778 H 365.615 1.1347 -0.886599 0
M  V30 3779 H 367.568 4.2066 -0.249602 0
M  V30 3780 H 366.292 3.22546 0.513025 0
M  V30 3781 H 364.951 3.28937 -1.61853 0
M  V30 3782 H 364.599 5.02792 0.144511 0
M  V30 3783 H 364.299 5.68559 -1.48371 0
M  V30 3784 H 365.823 6.07284 -0.635496 0
M  V30 3785 H 367.237 5.07113 -2.67412 0
M  V30 3786 H 365.634 4.9109 -3.44892 0
M  V30 3787 H 366.704 3.50045 -3.35554 0
M  V30 3788 N 368.047 0.979072 1.23499 0
M  V30 3789 C 369.293 0.648178 1.92163 0
M  V30 3790 C 369.626 -0.816049 1.76222 0
M  V30 3791 O 368.901 -1.58849 1.12237 0
M  V30 3792 C 369.184 1.03773 3.44824 0
M  V30 3793 C 369.037 2.55948 3.69879 0
M  V30 3794 C 370.356 0.580653 4.36253 0
M  V30 3795 H 367.475 0.236952 0.69787 0
M  V30 3796 H 370.117 1.22012 1.45647 0
M  V30 3797 H 368.267 0.551058 3.84572 0
M  V30 3798 H 369.939 3.12179 3.3962 0
M  V30 3799 H 368.182 2.98641 3.14636 0
M  V30 3800 H 368.853 2.78255 4.76737 0
M  V30 3801 H 371.329 0.998465 4.03943 0
M  V30 3802 H 370.205 0.881663 5.41773 0
M  V30 3803 H 370.466 -0.519052 4.39042 0
M  V30 3804 N 369.525 -1.3858 0.750561 0
M  V30 3805 C 370.771 -2.00481 0.305825 0
M  V30 3806 C 371.104 -1.5944 -1.10872 0
M  V30 3807 O 370.379 -0.83052 -1.75877 0
M  V30 3808 C 370.662 -3.5758 0.425287 0
M  V30 3809 C 370.515 -4.08594 1.88072 0
M  V30 3810 C 371.834 -4.39719 -0.183122 0
M  V30 3811 H 368.953 -0.728348 0.112598 0
M  V30 3812 H 371.595 -1.64566 0.949638 0
M  V30 3813 H 369.745 -3.88306 -0.122828 0
M  V30 3814 H 371.417 -3.88523 2.48691 0
M  V30 3815 H 369.66 -3.61574 2.39681 0
M  V30 3816 H 370.331 -5.177 1.91548 0
M  V30 3817 H 372.807 -4.15128 0.284303 0
M  V30 3818 H 371.683 -5.48856 -0.0692757 0
M  V30 3819 H 371.944 -4.23434 -1.27106 0
M  V30 3820 N 371.003 -0.499398 -1.49478 0
M  V30 3821 C 372.25 0.0456899 -2.02448 0
M  V30 3822 C 372.578 1.37142 -1.37921 0
M  V30 3823 O 371.833 1.89111 -0.503544 0
M  V30 3824 C 372.132 0.248424 -3.56536 0
M  V30 3825 C 371.798 -0.999107 -4.39692 0
M  V30 3826 C 370.46 -1.34108 -4.62135 0
M  V30 3827 C 372.812 -1.82842 -4.88076 0
M  V30 3828 C 370.14 -2.51191 -5.30208 0
M  V30 3829 C 372.492 -2.99076 -5.57437 0
M  V30 3830 C 371.156 -3.33655 -5.78127 0
M  V30 3831 H 370.426 0.0167191 -0.740811 0
M  V30 3832 H 373.073 -0.65923 -1.79795 0
M  V30 3833 H 371.378 1.03586 -3.77859 0
M  V30 3834 H 373.075 0.684605 -3.95113 0
M  V30 3835 H 369.665 -0.722729 -4.22463 0
M  V30 3836 H 373.849 -1.57737 -4.70566 0
M  V30 3837 H 369.105 -2.78221 -5.44429 0
M  V30 3838 H 373.279 -3.63664 -5.93904 0
M  V30 3839 H 370.906 -4.24483 -6.30649 0
M  V30 3840 N 372.481 1.55866 -0.233164 0
M  V30 3841 C 373.729 1.9821 0.394593 0
M  V30 3842 C 374.05 1.12234 1.59463 0
M  V30 3843 O 373.32 0.201981 1.94856 0
M  V30 3844 H 371.9 0.732034 0.148778 0
M  V30 3845 H 374.562 1.92107 -0.32876 0
M  V30 3846 H 373.658 3.03845 0.713063 0
M  V30 3847 N 373.959 -0.0401083 1.57549 0
M  V30 3848 C 375.236 -0.767917 1.79896 0
M  V30 3849 C 375.616 -1.9416 0.82856 0
M  V30 3850 O 374.964 -2.2812 -0.131671 0
M  V30 3851 C 375.174 -1.2113 3.27305 0
M  V30 3852 C 376.522 -1.63175 3.91994 0
M  V30 3853 O 377.546 -1.30616 3.31388 0
M  V30 3854 O 376.405 -2.23565 4.98679 0
M  V30 3855 H 373.499 -0.370441 0.739393 0
M  V30 3856 H 376.045 -0.017737 1.69691 0
M  V30 3857 H 374.817 -0.372937 3.89519 0
M  V30 3858 H 374.44 -2.02183 3.42356 0
M  V30 3859 N 375.437 -1.54477 -0.31217 0
M  V30 3860 C 376.387 -1.81037 -1.38598 0
M  V30 3861 C 377.371 -0.666941 -1.46426 0
M  V30 3862 O 378.563 -0.927269 -1.50767 0
M  V30 3863 C 375.692 -2.05127 -2.75277 0
M  V30 3864 C 374.778 -3.25624 -2.71716 0
M  V30 3865 N 375.169 -4.46428 -2.37773 0
M  V30 3866 C 373.467 -3.27427 -3.02833 0
M  V30 3867 C 374.168 -5.28406 -2.43232 0
M  V30 3868 N 373.144 -4.6586 -2.80135 0
M  V30 3869 H 376.946 -2.7201 -1.11301 0
M  V30 3870 H 374.46 -1.53826 -0.520705 0
M  V30 3871 H 376.457 -2.22299 -3.52688 0
M  V30 3872 H 375.117 -1.15416 -3.03495 0
M  V30 3873 H 376.128 -4.73227 -2.1042 0
M  V30 3874 H 372.805 -2.47786 -3.36018 0
M  V30 3875 H 374.195 -6.34903 -2.19882 0
M  V30 3876 N 376.915 0.57481 -1.46744 0
M  V30 3877 C 378.164 1.32898 -1.51727 0
M  V30 3878 C 378.477 1.948 -0.176692 0
M  V30 3879 O 379.683 2.71299 -0.104385 0
M  V30 3880 C 378.139 2.40901 -2.67385 0
M  V30 3881 C 377.747 1.85266 -4.07898 0
M  V30 3882 C 379.491 3.17609 -2.81646 0
M  V30 3883 C 377.398 2.90945 -5.14883 0
M  V30 3884 H 376.328 0.499631 -0.564699 0
M  V30 3885 H 378.979 0.612536 -1.72975 0
M  V30 3886 H 377.361 3.15379 -2.39483 0
M  V30 3887 H 378.535 1.17278 -4.45626 0
M  V30 3888 H 376.85 1.21199 -3.98371 0
M  V30 3889 H 379.447 3.96493 -3.58744 0
M  V30 3890 H 379.79 3.70696 -1.89448 0
M  V30 3891 H 380.323 2.50239 -3.09233 0
M  V30 3892 H 377.062 2.42736 -6.089 0
M  V30 3893 H 376.582 3.57398 -4.81691 0
M  V30 3894 H 378.261 3.54755 -5.41071 0
M  V30 3895 N 378.394 1.34581 0.820102 0
M  V30 3896 C 379.304 1.28471 1.96297 0
M  V30 3897 C 380.32 0.191902 1.72939 0
M  V30 3898 O 381.496 0.418879 1.96996 0
M  V30 3899 C 378.561 1.04281 3.30645 0
M  V30 3900 C 377.622 2.22745 3.66992 0
M  V30 3901 C 376.855 1.997 4.9493 0
M  V30 3902 O 377.078 0.956656 5.6232 0
M  V30 3903 O 376.012 2.86723 5.2922 0
M  V30 3904 H 379.838 2.24624 2.04396 0
M  V30 3905 H 377.423 1.14816 0.955913 0
M  V30 3906 H 379.305 0.925841 4.11104 0
M  V30 3907 H 377.98 0.111697 3.23507 0
M  V30 3908 H 376.887 2.40003 2.86966 0
M  V30 3909 H 378.22 3.14257 3.78819 0
M  V30 3910 N 379.872 -1.04064 1.18357 0
M  V30 3911 C 380.782 -2.15569 0.925596 0
M  V30 3912 C 381.798 -1.7365 -0.110295 0
M  V30 3913 O 382.974 -2.01273 0.0716218 0
M  V30 3914 C 380.039 -3.43704 0.454836 0
M  V30 3915 C 379.1 -4.00004 1.55869 0
M  V30 3916 C 378.333 -5.22023 1.1103 0
M  V30 3917 O 378.556 -5.70392 -0.0309756 0
M  V30 3918 O 377.49 -5.70856 1.90805 0
M  V30 3919 H 381.316 -2.40187 1.8586 0
M  V30 3920 H 378.901 -1.1402 0.965394 0
M  V30 3921 H 380.783 -4.20923 0.200382 0
M  V30 3922 H 379.458 -3.20559 -0.449876 0
M  V30 3923 H 378.365 -3.24172 1.86716 0
M  V30 3924 H 379.698 -4.2749 2.43953 0
M  V30 3925 N 381.35 -0.985608 -1.22978 0
M  V30 3926 C 382.597 -0.657386 -1.91532 0
M  V30 3927 C 382.925 0.809707 -1.76845 0
M  V30 3928 O 382.18 1.60021 -1.12658 0
M  V30 3929 C 382.479 -1.00014 -3.43121 0
M  V30 3930 C 382.145 -2.4583 -3.77993 0
M  V30 3931 C 380.807 -2.85679 -3.87222 0
M  V30 3932 C 383.159 -3.40378 -3.94705 0
M  V30 3933 C 380.487 -4.19081 -4.10595 0
M  V30 3934 C 382.839 -4.73429 -4.1958 0
M  V30 3935 C 381.503 -5.1303 -4.27032 0
M  V30 3936 H 380.773 -0.240555 -0.700867 0
M  V30 3937 H 383.42 -1.24044 -1.45895 0
M  V30 3938 H 381.725 -0.335072 -3.90365 0
M  V30 3939 H 383.422 -0.724322 -3.94404 0
M  V30 3940 H 380.012 -2.13939 -3.71387 0
M  V30 3941 H 384.196 -3.10766 -3.8696 0
M  V30 3942 H 379.452 -4.49362 -4.14589 0
M  V30 3943 H 383.626 -5.46644 -4.31455 0
M  V30 3944 H 381.253 -6.16418 -4.44896 0
M  V30 3945 N 382.828 1.3818 -0.7579 0
M  V30 3946 C 384.239 1.82726 -0.383134 0
M  V30 3947 C 384.59 1.63214 1.08884 0
M  V30 3948 O 383.715 1.13566 1.84205 0
M  V30 3949 C 384.31 3.31728 -0.688631 0
M  V30 3950 C 382.869 3.74606 -0.367091 0
M  V30 3951 C 382.016 2.60896 -0.939599 0
M  V30 3952 H 384.967 1.26847 -0.953699 0
M  V30 3953 H 384.988 3.80487 0.0316492 0
M  V30 3954 H 384.5 3.45898 -1.76001 0
M  V30 3955 H 382.601 3.66013 0.697532 0
M  V30 3956 H 382.714 4.71215 -0.865658 0
M  V30 3957 H 381.078 2.52075 -0.3647 0
M  V30 3958 H 381.861 2.77864 -2.0161 0
M  V30 3959 N 384.306 0.507319 1.49211 0
M  V30 3960 C 385.722 0.163682 1.58758 0
M  V30 3961 C 385.922 -1.33208 1.51188 0
M  V30 3962 O 384.978 -2.10855 1.38911 0
M  V30 3963 C 386.291 0.746095 2.91297 0
M  V30 3964 C 387.839 0.712773 3.04776 0
M  V30 3965 C 388.314 1.27336 4.39943 0
M  V30 3966 N 389.805 1.23433 4.46451 0
M  V30 3967 C 390.54 1.63821 5.495 0
M  V30 3968 N 390.036 2.11832 6.5962 0
M  V30 3969 N 391.829 1.55198 5.4025 0
M  V30 3970 H 383.98 1.47972 1.52375 0
M  V30 3971 H 386.243 0.614147 0.722168 0
M  V30 3972 H 385.949 1.79534 3.02424 0
M  V30 3973 H 385.823 0.210137 3.76614 0
M  V30 3974 H 388.21 -0.327656 2.93275 0
M  V30 3975 H 388.291 1.28595 2.21127 0
M  V30 3976 H 387.935 2.3126 4.52196 0
M  V30 3977 H 387.865 0.676066 5.22242 0
M  V30 3978 H 390.356 0.882627 3.67448 0
M  V30 3979 H 390.669 2.40703 7.34358 0
M  V30 3980 H 389.014 2.1581 6.60644 0
M  V30 3981 H 392.205 1.17505 4.53112 0
M  V30 3982 H 392.378 1.86997 6.20432 0
M  V30 3983 N 385.784 -1.5574 0.241426 0
M  V30 3984 C 387.03 -1.99846 -0.378555 0
M  V30 3985 C 387.385 -1.12665 -1.55963 0
M  V30 3986 O 386.678 -0.180966 -1.90743 0
M  V30 3987 C 386.872 -3.47308 -0.843317 0
M  V30 3988 C 386.701 -4.48756 0.291178 0
M  V30 3989 C 385.471 -4.9949 0.764077 0
M  V30 3990 C 387.669 -5.02039 1.11631 0
M  V30 3991 N 385.651 -5.84676 1.87156 0
M  V30 3992 C 387.022 -5.84343 2.07226 0
M  V30 3993 C 389.077 -4.84354 1.15349 0
M  V30 3994 C 387.78 -6.50851 3.06245 0
M  V30 3995 C 389.806 -5.51636 2.13195 0
M  V30 3996 C 389.168 -6.33724 3.07528 0
M  V30 3997 H 385.267 -0.774968 -0.104634 0
M  V30 3998 H 387.851 -1.91385 0.357751 0
M  V30 3999 H 386.022 -3.56178 -1.54893 0
M  V30 4000 H 387.754 -3.78299 -1.43779 0
M  V30 4001 H 384.509 -4.72311 0.349175 0
M  V30 4002 H 384.933 -6.31967 2.42789 0
M  V30 4003 H 389.575 -4.20525 0.438057 0
M  V30 4004 H 387.293 -7.1385 3.78739 0
M  V30 4005 H 390.879 -5.39909 2.16771 0
M  V30 4006 H 389.759 -6.84867 3.82003 0
M  V30 4007 N 387.262 0.0317525 -1.57568 0
M  V30 4008 C 388.225 1.01783 -2.0536 0
M  V30 4009 C 389.225 1.29203 -0.957253 0
M  V30 4010 O 390.415 1.24251 -1.22095 0
M  V30 4011 C 387.547 2.35137 -2.46827 0
M  V30 4012 H 388.74 0.605062 -2.93733 0
M  V30 4013 H 386.293 0.278514 -1.53799 0
M  V30 4014 H 387.028 2.81168 -1.61602 0
M  V30 4015 H 386.813 2.16566 -3.26866 0
M  V30 4016 H 388.303 3.05938 -2.84239 0
M  V30 4017 N 388.74 1.54641 0.303973 0
M  V30 4018 C 390.151 1.64811 0.877163 0
M  V30 4019 C 390.502 0.554838 1.88191 0
M  V30 4020 O 389.627 -0.309033 2.14182 0
M  V30 4021 C 390.222 2.9876 1.59775 0
M  V30 4022 C 388.781 3.11061 2.11938 0
M  V30 4023 C 387.928 2.60479 0.951097 0
M  V30 4024 H 390.879 1.58493 0.0810486 0
M  V30 4025 H 390.9 2.90017 2.46314 0
M  V30 4026 H 390.412 3.7831 0.866226 0
M  V30 4027 H 388.513 2.36225 2.88146 0
M  V30 4028 H 388.626 4.17171 2.35595 0
M  V30 4029 H 386.99 2.16859 1.33583 0
M  V30 4030 H 387.773 3.42504 0.233581 0
M  V30 4031 N 390.218 -0.567019 1.47046 0
M  V30 4032 C 391.634 -0.891975 1.32348 0
M  V30 4033 C 391.834 -1.99154 0.306616 0
M  V30 4034 O 390.89 -2.50883 -0.28532 0
M  V30 4035 C 392.203 -1.29449 2.7141 0
M  V30 4036 C 393.751 -1.40646 2.79621 0
M  V30 4037 C 394.226 -1.84257 4.19301 0
M  V30 4038 N 395.717 -1.91424 4.21795 0
M  V30 4039 C 396.452 -2.26476 5.26779 0
M  V30 4040 N 395.948 -2.60211 6.42077 0
M  V30 4041 N 397.741 -2.27166 5.14152 0
M  V30 4042 H 389.892 0.159074 2.11803 0
M  V30 4043 H 392.155 0.00849752 0.947962 0
M  V30 4044 H 391.861 -0.560448 3.47206 0
M  V30 4045 H 391.735 -2.25273 3.02542 0
M  V30 4046 H 394.122 -2.13133 2.04104 0
M  V30 4047 H 394.203 -0.430339 2.52154 0
M  V30 4048 H 393.847 -1.12343 4.95319 0
M  V30 4049 H 393.777 -2.82855 4.44185 0
M  V30 4050 H 396.268 -1.6778 3.38612 0
M  V30 4051 H 396.581 -2.85956 7.17948 0
M  V30 4052 H 394.926 -2.57813 6.45413 0
M  V30 4053 H 398.117 -2.00244 4.23107 0
M  V30 4054 H 398.29 -2.54154 5.96079 0
M  V30 4055 N 391.696 -1.35014 -0.812953 0
M  V30 4056 C 392.626 -1.30069 -1.93919 0
M  V30 4057 C 393.607 -0.176275 -1.69184 0
M  V30 4058 O 394.792 -0.370227 -1.90638 0
M  V30 4059 C 391.922 -1.06547 -3.30552 0
M  V30 4060 C 390.876 -2.15561 -3.69753 0
M  V30 4061 C 390.202 -1.77214 -5.04479 0
M  V30 4062 C 391.502 -3.57476 -3.808 0
M  V30 4063 H 393.196 -2.24303 -1.98314 0
M  V30 4064 H 390.742 -1.07977 -0.952736 0
M  V30 4065 H 392.695 -1.01729 -4.08937 0
M  V30 4066 H 391.419 -0.0875719 -3.26483 0
M  V30 4067 H 390.078 -2.19466 -2.9365 0
M  V30 4068 H 389.726 -0.780589 -4.96906 0
M  V30 4069 H 389.426 -2.50184 -5.31678 0
M  V30 4070 H 390.95 -1.7391 -5.8531 0
M  V30 4071 H 392.364 -3.55929 -4.4943 0
M  V30 4072 H 390.761 -4.29152 -4.19462 0
M  V30 4073 H 391.831 -3.94091 -2.82525 0
M  V30 4074 N 393.175 1.03435 -1.18907 0
M  V30 4075 C 394.122 2.11591 -0.921837 0
M  V30 4076 C 395.092 1.65499 0.141226 0
M  V30 4077 O 396.277 1.908 0.000242829 0
M  V30 4078 C 393.417 3.42012 -0.460616 0
M  V30 4079 C 392.53 4.01682 -1.58982 0
M  V30 4080 C 391.665 5.20091 -1.08069 0
M  V30 4081 C 390.704 5.71805 -2.18416 0
M  V30 4082 N 389.841 6.81494 -1.68849 0
M  V30 4083 H 394.681 2.33787 -1.8479 0
M  V30 4084 H 392.218 1.1467 -0.921373 0
M  V30 4085 H 394.176 4.16834 -0.174642 0
M  V30 4086 H 392.806 3.19944 0.428467 0
M  V30 4087 H 391.858 3.24127 -1.99113 0
M  V30 4088 H 393.17 4.36084 -2.4214 0
M  V30 4089 H 392.324 6.02051 -0.749615 0
M  V30 4090 H 391.063 4.87209 -0.218771 0
M  V30 4091 H 390.068 4.88461 -2.5236 0
M  V30 4092 H 391.293 6.06728 -3.05054 0
M  V30 4093 H 389.239 6.50475 -0.849572 0
M  V30 4094 H 389.156 7.14994 -2.45601 0
M  V30 4095 H 390.424 7.67063 -1.38689 0
M  V30 4096 N 394.653 0.992116 1.22453 0
M  V30 4097 C 395.616 0.546883 2.2258 0
M  V30 4098 C 396.616 -0.369829 1.56489 0
M  V30 4099 O 397.806 -0.161896 1.73446 0
M  V30 4100 C 394.938 -0.204659 3.40285 0
M  V30 4101 H 396.131 1.43234 2.63484 0
M  V30 4102 H 393.684 0.779239 1.3549 0
M  V30 4103 H 394.419 -1.10614 3.04853 0
M  V30 4104 H 394.204 0.45354 3.89468 0
M  V30 4105 H 395.694 -0.504358 4.14543 0
M  V30 4106 N 396.131 -1.37776 0.765217 0
M  V30 4107 C 397.371 -2.01691 0.331669 0
M  V30 4108 C 397.735 -1.59432 -1.06983 0
M  V30 4109 O 398.936 -2.15761 -1.60314 0
M  V30 4110 C 397.207 -3.54385 0.463261 0
M  V30 4111 S 398.766 -4.38652 0.114011 0
M  V30 4112 H 395.584 -0.699387 0.127979 0
M  V30 4113 H 398.186 -1.68084 0.998396 0
M  V30 4114 H 396.89 -3.82629 1.48401 0
M  V30 4115 H 396.421 -3.92783 -0.220246 0
M  V30 4116 H 398.436 -4.84021 -1.09261 0
M  V30 4117 N 397.609 -0.515225 -1.4894 0
M  V30 4118 C 398.559 0.275113 -2.26334 0
M  V30 4119 C 399.543 0.923007 -1.31793 0
M  V30 4120 O 400.735 0.828254 -1.56426 0
M  V30 4121 C 397.864 1.33041 -3.16473 0
M  V30 4122 C 396.95 0.688051 -4.18481 0
M  V30 4123 N 397.341 -0.217638 -5.05332 0
M  V30 4124 C 395.639 0.94699 -4.3583 0
M  V30 4125 C 396.34 -0.58676 -5.78733 0
M  V30 4126 N 395.316 0.0486966 -5.43578 0
M  V30 4127 H 399.118 -0.421876 -2.90856 0
M  V30 4128 H 396.632 -0.332249 -1.58965 0
M  V30 4129 H 398.629 1.9102 -3.70563 0
M  V30 4130 H 397.289 2.02894 -2.53504 0
M  V30 4131 H 398.3 -0.589343 -5.14536 0
M  V30 4132 H 394.977 1.63719 -3.8406 0
M  V30 4133 H 396.367 -1.32855 -6.58634 0
M  V30 4134 N 399.087 1.5561 -0.249682 0
M  V30 4135 C 400.05 2.20217 0.635394 0
M  V30 4136 C 401.05 1.17227 1.10066 0
M  V30 4137 O 402.24 1.42292 1.00492 0
M  V30 4138 C 399.372 2.84794 1.87363 0
M  V30 4139 H 400.565 2.99814 0.0716752 0
M  V30 4140 H 398.118 1.563 -0.000153234 0
M  V30 4141 H 398.853 2.09142 2.47851 0
M  V30 4142 H 398.638 3.60241 1.5482 0
M  V30 4143 H 400.128 3.3423 2.5036 0
M  V30 4144 N 400.565 -0.0233959 1.57583 0
M  V30 4145 C 401.812 -0.713063 1.8953 0
M  V30 4146 C 402.14 -1.75056 0.847673 0
M  V30 4147 O 401.395 -1.95119 -0.150636 0
M  V30 4148 C 401.694 -1.41428 3.28227 0
M  V30 4149 C 401.36 -0.512222 4.47981 0
M  V30 4150 C 400.022 -0.263785 4.80476 0
M  V30 4151 C 402.374 0.110248 5.21083 0
M  V30 4152 C 399.702 0.615804 5.83459 0
M  V30 4153 C 402.054 0.977573 6.25001 0
M  V30 4154 C 400.718 1.23542 6.55968 0
M  V30 4155 H 399.988 -0.260928 0.69354 0
M  V30 4156 H 402.635 0.0271047 1.91481 0
M  V30 4157 H 400.94 -2.22791 3.22291 0
M  V30 4158 H 402.637 -1.95355 3.50196 0
M  V30 4159 H 399.227 -0.716013 4.22577 0
M  V30 4160 H 403.411 -0.0687137 4.96252 0
M  V30 4161 H 398.667 0.82382 6.05824 0
M  V30 4162 H 402.841 1.46638 6.80786 0
M  V30 4163 H 400.468 1.91871 7.35588 0
M  V30 4164 N 402.043 -1.548 -0.295768 0
M  V30 4165 C 403.292 -1.73538 -1.02798 0
M  V30 4166 C 403.605 -0.531159 -1.8825 0
M  V30 4167 O 404.811 -0.600458 -2.64777 0
M  V30 4168 C 403.267 -3.07051 -1.87744 0
M  V30 4169 C 402.875 -4.34968 -1.07269 0
M  V30 4170 C 404.619 -3.35146 -2.60533 0
M  V30 4171 C 402.526 -5.5953 -1.91521 0
M  V30 4172 H 401.456 -0.646794 -0.387522 0
M  V30 4173 H 404.107 -1.81278 -0.284718 0
M  V30 4174 H 402.489 -2.93289 -2.66078 0
M  V30 4175 H 403.663 -4.5958 -0.335117 0
M  V30 4176 H 401.978 -4.13847 -0.460384 0
M  V30 4177 H 404.575 -4.2541 -3.23929 0
M  V30 4178 H 404.918 -2.54255 -3.29636 0
M  V30 4179 H 405.451 -3.49902 -1.89244 0
M  V30 4180 H 402.19 -6.43103 -1.26878 0
M  V30 4181 H 401.71 -5.39096 -2.62937 0
M  V30 4182 H 403.389 -5.96982 -2.49442 0
M  V30 4183 N 403.521 0.559213 -1.47345 0
M  V30 4184 C 404.798 1.31997 -1.44348 0
M  V30 4185 C 405.178 2.1064 -0.139358 0
M  V30 4186 O 404.526 2.1091 0.879153 0
M  V30 4187 C 404.736 2.22618 -2.68779 0
M  V30 4188 C 406.084 2.83701 -3.1591 0
M  V30 4189 O 407.108 2.32921 -2.69493 0
M  V30 4190 O 405.967 3.75993 -3.966 0
M  V30 4191 H 403.061 0.594251 -0.575147 0
M  V30 4192 H 405.607 0.578282 -1.59543 0
M  V30 4193 H 404.379 1.64093 -3.55231 0
M  V30 4194 H 404.002 3.04085 -2.5616 0
M  V30 4195 N 404.999 1.35443 0.805782 0
M  V30 4196 C 405.962 1.28301 1.89925 0
M  V30 4197 C 406.962 0.194285 1.59622 0
M  V30 4198 O 408.152 0.448036 1.6834 0
M  V30 4199 C 405.284 0.984997 3.2636 0
M  V30 4200 H 406.477 2.2553 1.97677 0
M  V30 4201 H 404.03 1.19979 1.00173 0
M  V30 4202 H 404.765 0.016603 3.24296 0
M  V30 4203 H 404.55 1.77269 3.4974 0
M  V30 4204 H 406.04 0.960651 4.064 0
M  V30 4205 N 406.477 -1.02803 1.19454 0
M  V30 4206 C 407.407 -2.12999 0.956758 0
M  V30 4207 C 408.388 -1.69743 -0.110188 0
M  V30 4208 O 409.573 -1.94148 0.0450038 0
M  V30 4209 C 406.703 -3.43746 0.495553 0
M  V30 4210 C 405.657 -4.00688 1.50443 0
M  V30 4211 C 404.983 -5.27067 0.900275 0
M  V30 4212 C 406.283 -4.35397 2.8849 0
M  V30 4213 H 407.977 -2.33148 1.87836 0
M  V30 4214 H 405.523 -1.12045 0.904539 0
M  V30 4215 H 407.476 -4.2021 0.316493 0
M  V30 4216 H 406.2 -3.23321 -0.461646 0
M  V30 4217 H 404.859 -3.2632 1.67065 0
M  V30 4218 H 404.507 -5.02959 -0.064503 0
M  V30 4219 H 404.207 -5.66127 1.57397 0
M  V30 4220 H 405.731 -6.06196 0.73203 0
M  V30 4221 H 407.145 -5.02795 2.75446 0
M  V30 4222 H 405.542 -4.85541 3.52661 0
M  V30 4223 H 406.612 -3.44662 3.41081 0
M  V30 4224 N 407.956 -0.998596 -1.21925 0
M  V30 4225 C 408.904 -0.546641 -2.26085 0
M  V30 4226 C 409.898 0.405576 -1.64473 0
M  V30 4227 O 411.104 0.277471 -1.77849 0
M  V30 4228 H 407.479 -0.158403 -0.735127 0
M  V30 4229 H 409.45 -1.43645 -2.61551 0
M  V30 4230 C 408.199 0.117388 -3.47502 0
M  V30 4231 H 407.522 -0.606277 -3.95176 0
M  V30 4232 H 408.962 0.396993 -4.22137 0
M  V30 4233 C 407.421 1.35455 -3.0847 0
M  V30 4234 O 407.951 2.44944 -3.18379 0
M  V30 4235 N 406.157 1.23191 -2.63196 0
M  V30 4236 H 405.704 0.341006 -2.55333 0
M  V30 4237 H 405.662 2.06071 -2.37449 0
M  V30 4238 N 409.434 1.37368 -0.772513 0
M  V30 4239 C 410.397 2.28601 -0.165541 0
M  V30 4240 C 411.397 1.48062 0.627238 0
M  V30 4241 O 412.587 1.68268 0.450715 0
M  V30 4242 C 409.719 3.32023 0.772897 0
M  V30 4243 H 410.912 2.83787 -0.969787 0
M  V30 4244 H 408.465 1.46647 -0.540775 0
M  V30 4245 H 409.2 2.81962 1.60212 0
M  V30 4246 H 408.985 3.91555 0.206585 0
M  V30 4247 H 410.475 4.00197 1.19298 0
M  V30 4248 N 410.912 0.523116 1.48665 0
M  V30 4249 C 411.875 -0.232592 2.28017 0
M  V30 4250 C 412.875 -0.874021 1.34972 0
M  V30 4251 O 414.065 -0.735132 1.57929 0
M  V30 4252 C 411.197 -1.33586 3.13636 0
M  V30 4253 H 412.39 0.464008 2.96289 0
M  V30 4254 H 409.943 0.278816 1.53793 0
M  V30 4255 H 410.678 -2.06593 2.4998 0
M  V30 4256 H 410.463 -0.881125 3.82071 0
M  V30 4257 H 411.953 -1.86759 3.73511 0
M  V30 4258 N 412.39 -1.55475 0.257931 0
M  V30 4259 C 413.638 -1.98813 -0.363009 0
M  V30 4260 C 413.959 -1.14757 -1.57657 0
M  V30 4261 O 413.229 -0.232956 -1.9451 0
M  V30 4262 H 411.809 -0.734308 -0.137113 0
M  V30 4263 H 414.471 -1.9156 0.359281 0
M  V30 4264 H 413.567 -3.04941 -0.664634 0
M  V30 4265 N 413.868 0.0150385 -1.57593 0
M  V30 4266 C 415.116 0.701613 -1.8953 0
M  V30 4267 C 415.437 1.75139 -0.857396 0
M  V30 4268 O 414.707 1.95607 0.107194 0
M  V30 4269 H 413.287 0.26213 -0.699498 0
M  V30 4270 H 415.949 -0.0223304 -1.94887 0
M  V30 4271 H 415.045 1.18236 -2.88837 0
M  V30 4272 N 415.346 1.54954 0.287554 0
M  V30 4273 C 416.293 1.86834 1.35505 0
M  V30 4274 C 417.263 0.718452 1.49758 0
M  V30 4275 O 418.448 0.968358 1.644 0
M  V30 4276 C 415.588 2.13303 2.71286 0
M  V30 4277 C 414.701 3.40883 2.65373 0
M  V30 4278 C 413.836 3.57125 3.93236 0
M  V30 4279 C 412.875 4.78449 3.81776 0
M  V30 4280 N 412.012 4.91426 5.01443 0
M  V30 4281 H 416.852 2.77889 1.07619 0
M  V30 4282 H 414.389 1.37593 0.520241 0
M  V30 4283 H 416.347 2.26646 3.50267 0
M  V30 4284 H 414.977 1.25499 2.97405 0
M  V30 4285 H 414.029 3.36088 1.78182 0
M  V30 4286 H 415.341 4.29993 2.52799 0
M  V30 4287 H 414.495 3.70207 4.80658 0
M  V30 4288 H 413.234 2.66173 4.0866 0
M  V30 4289 H 412.239 4.65386 2.92738 0
M  V30 4290 H 413.464 5.70822 3.67884 0
M  V30 4291 H 411.41 4.03401 5.17304 0
M  V30 4292 H 411.327 5.74559 4.91343 0
M  V30 4293 H 412.595 5.08879 5.90477 0
M  V30 4294 N 416.824 -0.551391 1.4764 0
M  V30 4295 C 418.072 -1.30572 1.54258 0
M  V30 4296 C 418.393 -1.93877 0.208963 0
M  V30 4297 O 417.663 -1.80234 -0.767619 0
M  V30 4298 H 416.243 -0.484894 0.568231 0
M  V30 4299 H 418.905 -0.643402 1.83974 0
M  V30 4300 H 418.001 -2.09621 2.31226 0
M  V30 4301 N 418.302 -1.35869 -0.798587 0
M  V30 4302 C 419.234 -1.25305 -1.91915 0
M  V30 4303 C 420.247 -0.174548 -1.61862 0
M  V30 4304 O 421.436 -0.428499 -1.73281 0
M  V30 4305 C 418.536 -0.9086 -3.26493 0
M  V30 4306 C 417.709 -2.08711 -3.84394 0
M  V30 4307 C 416.768 -1.71717 -4.97393 0
M  V30 4308 O 415.794 -2.43692 -5.14396 0
M  V30 4309 N 416.996 -0.645473 -5.769 0
M  V30 4310 H 419.761 -2.21849 -2.01502 0
M  V30 4311 H 417.322 -1.29143 -0.976408 0
M  V30 4312 H 419.314 -0.642455 -3.99568 0
M  V30 4313 H 417.884 -0.0325815 -3.12583 0
M  V30 4314 H 417.104 -2.51659 -3.03416 0
M  V30 4315 H 418.392 -2.87468 -4.19809 0
M  V30 4316 H 417.79 -0.047648 -5.6568 0
M  V30 4317 H 416.347 -0.43913 -6.50319 0
M  V30 4318 N 419.78 1.02168 -1.19998 0
M  V30 4319 C 420.71 2.12488 -0.96804 0
M  V30 4320 C 421.691 1.69799 0.101185 0
M  V30 4321 O 422.876 1.94121 -0.0552993 0
M  V30 4322 C 420.006 3.43479 -0.513776 0
M  V30 4323 C 418.96 3.99884 -1.52566 0
M  V30 4324 C 418.286 5.26582 -0.928214 0
M  V30 4325 C 419.586 4.33861 -2.90795 0
M  V30 4326 H 421.28 2.32149 -1.89069 0
M  V30 4327 H 418.826 1.11564 -0.910468 0
M  V30 4328 H 420.779 4.20036 -0.338774 0
M  V30 4329 H 419.503 3.23561 0.444493 0
M  V30 4330 H 418.162 3.25429 -1.68794 0
M  V30 4331 H 417.81 5.02986 0.0378289 0
M  V30 4332 H 417.51 5.65284 -1.60397 0
M  V30 4333 H 419.034 6.05799 -0.764167 0
M  V30 4334 H 420.448 5.01327 -2.78109 0
M  V30 4335 H 418.845 4.83664 -3.55231 0
M  V30 4336 H 419.915 3.42848 -3.42904 0
M  V30 4337 N 421.258 1.00505 1.21394 0
M  V30 4338 C 422.191 0.51032 2.22421 0
M  V30 4339 C 423.169 -0.436 1.56645 0
M  V30 4340 O 424.353 -0.358709 1.85055 0
M  V30 4341 C 421.48 -0.258733 3.3771 0
M  V30 4342 C 420.526 0.635395 4.2174 0
M  V30 4343 S 421.359 2.09783 4.92698 0
M  V30 4344 C 422.515 1.33862 6.11418 0
M  V30 4345 H 422.748 1.36637 2.64041 0
M  V30 4346 H 420.281 0.812991 1.31262 0
M  V30 4347 H 422.239 -0.696372 4.0455 0
M  V30 4348 H 420.9 -1.0902 2.94573 0
M  V30 4349 H 420.093 0.0430189 5.03982 0
M  V30 4350 H 419.695 1.01031 3.60095 0
M  V30 4351 H 421.987 0.612541 6.74725 0
M  V30 4352 H 422.93 2.13675 6.75092 0
M  V30 4353 H 423.338 0.846568 5.58116 0
M  V30 4354 N 422.737 -1.36956 0.779787 0
M  V30 4355 C 423.962 -2.04283 0.358224 0
M  V30 4356 C 424.387 -1.58422 -1.01411 0
M  V30 4357 O 423.745 -0.748179 -1.65142 0
M  V30 4358 C 423.793 -3.58152 0.419479 0
M  V30 4359 O 422.897 -4.08342 -0.577142 0
M  V30 4360 H 422.238 -0.645967 0.153698 0
M  V30 4361 H 424.768 -1.75108 1.05822 0
M  V30 4362 H 424.778 -4.07041 0.279636 0
M  V30 4363 H 423.453 -3.90886 1.42061 0
M  V30 4364 H 422.03 -3.70751 -0.399755 0
M  V30 4365 N 424.215 -0.530993 -1.48385 0
M  V30 4366 C 425.145 0.219985 -2.32461 0
M  V30 4367 C 426.126 0.934111 -1.42156 0
M  V30 4368 O 427.311 0.919694 -1.71042 0
M  V30 4369 C 424.441 1.26674 -3.23375 0
M  V30 4370 C 423.395 0.67069 -4.22712 0
M  V30 4371 C 422.721 1.82017 -5.02766 0
M  V30 4372 C 424.021 -0.358268 -5.2107 0
M  V30 4373 H 425.715 -0.48187 -2.95497 0
M  V30 4374 H 423.261 -0.233182 -1.42099 0
M  V30 4375 H 425.214 1.80006 -3.81019 0
M  V30 4376 H 423.938 1.99818 -2.58341 0
M  V30 4377 H 422.597 0.158878 -3.66256 0
M  V30 4378 H 422.245 2.54002 -4.34157 0
M  V30 4379 H 421.945 1.42727 -5.70003 0
M  V30 4380 H 423.469 2.35725 -5.63264 0
M  V30 4381 H 424.883 0.0880081 -5.73232 0
M  V30 4382 H 423.28 -0.66861 -5.96364 0
M  V30 4383 H 424.35 -1.26367 -4.68145 0
M  V30 4384 N 425.693 1.55336 -0.266172 0
M  V30 4385 C 427.104 1.85236 0.233315 0
M  V30 4386 C 427.455 1.18816 1.56132 0
M  V30 4387 O 426.58 0.473307 2.11161 0
M  V30 4388 C 427.175 3.36059 0.430113 0
M  V30 4389 C 425.734 3.66116 0.873842 0
M  V30 4390 C 424.881 2.77274 -0.0380016 0
M  V30 4391 H 427.832 1.51004 -0.488214 0
M  V30 4392 H 427.853 3.58681 1.26998 0
M  V30 4393 H 427.365 3.84373 -0.536588 0
M  V30 4394 H 425.466 3.23295 1.85233 0
M  V30 4395 H 425.579 4.73699 0.717358 0
M  V30 4396 H 423.943 2.50198 0.476759 0
M  V30 4397 H 424.726 3.284 -1.00042 0
M  V30 4398 N 427.171 -0.0066808 1.57599 0
M  V30 4399 C 428.134 -0.985035 2.06953 0
M  V30 4400 C 429.134 -1.27663 0.977687 0
M  V30 4401 O 430.324 -1.22293 1.24057 0
M  V30 4402 C 427.456 -2.3118 2.50536 0
M  V30 4403 H 428.649 -0.558255 2.94658 0
M  V30 4404 H 426.202 -0.254011 1.54222 0
M  V30 4405 H 426.937 -2.78561 1.66054 0
M  V30 4406 H 426.722 -2.11338 3.3027 0
M  V30 4407 H 428.212 -3.01377 2.8907 0
M  V30 4408 N 428.649 -1.55105 -0.279332 0
M  V30 4409 C 429.579 -1.90557 -1.34945 0
M  V30 4410 C 430.56 -0.766738 -1.51839 0
M  V30 4411 O 431.745 -1.02434 -1.64988 0
M  V30 4412 C 428.875 -2.17193 -2.71006 0
M  V30 4413 C 427.829 -3.33021 -2.68851 0
M  V30 4414 C 427.155 -3.45123 -4.08405 0
M  V30 4415 C 428.455 -4.69578 -2.28678 0
M  V30 4416 H 430.149 -2.80188 -1.05522 0
M  V30 4417 H 427.695 -1.34811 -0.506173 0
M  V30 4418 H 429.648 -2.40581 -3.45975 0
M  V30 4419 H 428.372 -1.24355 -3.01999 0
M  V30 4420 H 427.031 -3.0959 -1.9634 0
M  V30 4421 H 426.679 -2.49762 -4.3661 0
M  V30 4422 H 426.379 -4.22995 -4.07859 0
M  V30 4423 H 427.903 -3.70796 -4.85121 0
M  V30 4424 H 429.317 -4.92553 -2.93368 0
M  V30 4425 H 427.714 -5.5032 -2.39306 0
M  V30 4426 H 428.784 -4.68828 -1.23807 0
M  V30 4427 N 430.127 0.543554 -1.4793 0
M  V30 4428 C 431.375 1.29752 -1.54948 0
M  V30 4429 C 431.696 1.93764 -0.219242 0
M  V30 4430 O 430.966 1.80639 0.75805 0
M  V30 4431 H 429.546 0.481874 -0.570795 0
M  V30 4432 H 432.208 0.633636 -1.84312 0
M  V30 4433 H 431.304 2.08392 -2.32334 0
M  V30 4434 N 431.605 1.3629 0.791371 0
M  V30 4435 C 432.851 1.30605 1.55146 0
M  V30 4436 C 433.184 -0.115042 1.93859 0
M  V30 4437 O 432.459 -1.06798 1.62556 0
M  V30 4438 C 432.742 2.22692 2.82985 0
M  V30 4439 C 432.595 3.73489 2.50651 0
M  V30 4440 C 433.914 2.13588 3.84796 0
M  V30 4441 H 431.033 0.475761 0.562868 0
M  V30 4442 H 433.675 1.66825 0.909358 0
M  V30 4443 H 431.825 1.91933 3.37778 0
M  V30 4444 H 433.497 4.14758 2.01924 0
M  V30 4445 H 431.74 3.93021 1.83622 0
M  V30 4446 H 432.411 4.3333 3.41949 0
M  V30 4447 H 434.887 2.40659 3.39445 0
M  V30 4448 H 433.763 2.80195 4.71998 0
M  V30 4449 H 434.024 1.12256 4.27611 0
M  V30 4450 N 433.083 -1.0153 1.20538 0
M  V30 4451 C 434.033 -2.08482 0.922991 0
M  V30 4452 C 435.017 -1.60469 -0.117702 0
M  V30 4453 O 436.209 -1.76772 0.0898465 0
M  V30 4454 C 433.338 -3.39952 0.478312 0
M  V30 4455 C 432.424 -3.94662 1.5525 0
M  V30 4456 N 432.815 -4.22866 2.77521 0
M  V30 4457 C 431.113 -4.22825 1.41897 0
M  V30 4458 C 431.814 -4.67002 3.4682 0
M  V30 4459 N 430.79 -4.69356 2.74237 0
M  V30 4460 H 434.592 -2.28199 1.85209 0
M  V30 4461 H 432.106 -1.19512 1.09957 0
M  V30 4462 H 434.103 -4.16105 0.257408 0
M  V30 4463 H 432.763 -3.21648 -0.444148 0
M  V30 4464 H 433.774 -4.11732 3.1416 0
M  V30 4465 H 430.451 -4.13714 0.561015 0
M  V30 4466 H 431.841 -4.97632 4.51455 0
M  V30 4467 N 434.561 -1.01147 -1.20859 0
M  V30 4468 C 435.809 -0.696486 -1.89719 0
M  V30 4469 C 436.13 0.775788 -1.78904 0
M  V30 4470 O 435.4 1.55759 -1.18811 0
M  V30 4471 H 433.98 -0.254628 -0.702263 0
M  V30 4472 H 436.642 -1.28197 -1.46804 0
M  V30 4473 H 435.738 -0.975357 -2.96468 0
M  V30 4474 N 436.039 1.36541 -0.78704 0
M  V30 4475 C 436.987 2.31965 -0.171724 0
M  V30 4476 C 437.981 1.55689 0.667631 0
M  V30 4477 O 439.187 1.70969 0.562981 0
M  V30 4478 H 435.562 0.751101 -0.0367545 0
M  V30 4479 H 437.533 2.81428 -0.992017 0
M  V30 4480 C 436.282 3.40968 0.680904 0
M  V30 4481 H 435.605 3.99775 0.0443961 0
M  V30 4482 H 437.045 4.10063 1.07815 0
M  V30 4483 C 435.504 2.82338 1.83813 0
M  V30 4484 O 436.034 2.74311 2.93456 0
M  V30 4485 N 434.24 2.39661 1.6435 0
M  V30 4486 H 433.787 2.46389 0.751668 0
M  V30 4487 H 433.745 2.00779 2.4194 0
M  V30 4488 N 437.518 0.538854 1.48102 0
M  V30 4489 C 438.743 0.0102694 2.07397 0
M  V30 4490 C 439.168 -1.26562 1.39153 0
M  V30 4491 O 438.526 -1.75357 0.460387 0
M  V30 4492 C 438.574 -0.187602 3.60112 0
M  V30 4493 O 437.678 -1.25432 3.92862 0
M  V30 4494 H 437.019 0.0430975 0.6626 0
M  V30 4495 H 439.549 0.749301 1.90385 0
M  V30 4496 H 439.559 -0.407517 4.0596 0
M  V30 4497 H 438.234 0.744386 4.09184 0
M  V30 4498 H 436.811 -1.01636 3.58782 0
M  V30 4499 N 438.996 -1.55193 0.274407 0
M  V30 4500 C 439.946 -2.19184 -0.627882 0
M  V30 4501 C 440.93 -1.15625 -1.11892 0
M  V30 4502 O 442.122 -1.41441 -1.06411 0
M  V30 4503 C 439.251 -2.91591 -1.81189 0
M  V30 4504 C 438.337 -4.02438 -1.33807 0
M  V30 4505 N 438.728 -5.0246 -0.580349 0
M  V30 4506 C 437.026 -4.15496 -1.62109 0
M  V30 4507 C 437.727 -5.80756 -0.331344 0
M  V30 4508 N 436.703 -5.36038 -0.903556 0
M  V30 4509 H 440.505 -2.93871 -0.0411216 0
M  V30 4510 H 438.019 -1.62213 0.0779348 0
M  V30 4511 H 440.016 -3.35883 -2.46957 0
M  V30 4512 H 438.676 -2.18414 -2.40261 0
M  V30 4513 H 439.687 -5.17399 -0.227762 0
M  V30 4514 H 436.364 -3.53509 -2.22121 0
M  V30 4515 H 437.754 -6.71335 0.275454 0
M  V30 4516 N 440.474 -0.00167713 -1.576 0
M  V30 4517 C 441.407 1.02317 -2.03977 0
M  V30 4518 C 442.385 1.33381 -0.929963 0
M  V30 4519 O 443.569 1.45517 -1.19822 0
M  V30 4520 C 440.696 2.35035 -2.43878 0
M  V30 4521 C 439.742 2.19621 -3.65607 0
M  V30 4522 S 440.575 1.52068 -5.13455 0
M  V30 4523 C 441.731 2.86212 -5.56627 0
M  V30 4524 H 441.964 0.628285 -2.90585 0
M  V30 4525 H 439.497 0.209239 -1.52976 0
M  V30 4526 H 441.455 3.11345 -2.67534 0
M  V30 4527 H 440.116 2.71663 -1.57665 0
M  V30 4528 H 439.309 3.1767 -3.91282 0
M  V30 4529 H 438.911 1.51455 -3.41961 0
M  V30 4530 H 441.203 3.82509 -5.59189 0
M  V30 4531 H 442.146 2.65235 -6.56549 0
M  V30 4532 H 442.554 2.90199 -4.84195 0
M  V30 4533 N 441.952 1.55251 0.271103 0
M  V30 4534 C 442.885 1.83191 1.36075 0
M  V30 4535 C 443.863 0.685091 1.47463 0
M  V30 4536 O 445.047 0.928292 1.64058 0
M  V30 4537 C 442.174 1.99521 2.73696 0
M  V30 4538 C 441.22 3.22081 2.79582 0
M  V30 4539 S 442.053 4.79388 2.38636 0
M  V30 4540 C 443.209 4.98693 3.78228 0
M  V30 4541 H 443.442 2.75327 1.12171 0
M  V30 4542 H 440.975 1.47046 0.470833 0
M  V30 4543 H 442.933 2.09613 3.52948 0
M  V30 4544 H 441.594 1.0827 2.9485 0
M  V30 4545 H 440.787 3.304 3.80594 0
M  V30 4546 H 440.389 3.10589 2.08352 0
M  V30 4547 H 442.681 4.84551 4.73515 0
M  V30 4548 H 443.624 6.00738 3.7486 0
M  V30 4549 H 444.032 4.26665 3.69618 0
M  V30 4550 N 443.43 -0.535701 1.48216 0
M  V30 4551 C 444.363 -1.65726 1.56876 0
M  V30 4552 C 445.341 -1.57094 0.419542 0
M  V30 4553 O 446.525 -1.77648 0.630352 0
M  V30 4554 C 443.652 -3.04096 1.49142 0
M  V30 4555 C 442.698 -3.31105 2.68834 0
M  V30 4556 S 443.531 -3.18001 4.30854 0
M  V30 4557 C 444.687 -4.58828 4.25709 0
M  V30 4558 H 444.92 -1.58129 2.51759 0
M  V30 4559 H 442.453 -0.718218 1.36678 0
M  V30 4560 H 444.411 -3.839 1.45366 0
M  V30 4561 H 443.072 -3.09139 0.556067 0
M  V30 4562 H 442.265 -4.32033 2.59545 0
M  V30 4563 H 441.867 -2.58961 2.69843 0
M  V30 4564 H 444.159 -5.5023 3.95289 0
M  V30 4565 H 445.102 -4.73172 5.26796 0
M  V30 4566 H 445.51 -4.37883 3.56257 0
M  V30 4567 N 444.908 -1.36708 -0.784132 0
M  V30 4568 C 445.84 -1.27333 -1.90575 0
M  V30 4569 C 446.853 -0.191706 -1.61667 0
M  V30 4570 O 448.042 -0.446854 -1.72816 0
M  V30 4571 C 445.142 -0.943177 -3.25511 0
M  V30 4572 C 444.315 -2.12776 -3.82158 0
M  V30 4573 C 443.374 -1.76983 -4.95544 0
M  V30 4574 O 442.4 -2.49134 -5.11782 0
M  V30 4575 N 443.602 -0.706624 -5.76183 0
M  V30 4576 H 446.367 -2.23974 -1.99138 0
M  V30 4577 H 443.928 -1.30171 -0.962656 0
M  V30 4578 H 445.92 -0.684799 -3.98864 0
M  V30 4579 H 444.49 -0.0657333 -3.12531 0
M  V30 4580 H 443.71 -2.54863 -3.0073 0
M  V30 4581 H 444.998 -2.91904 -4.16737 0
M  V30 4582 H 444.396 -0.107643 -5.65598 0
M  V30 4583 H 442.953 -0.50808 -6.49817 0
M  V30 4584 N 446.386 1.0089 -1.21074 0
M  V30 4585 C 447.663 1.71834 -0.934469 0
M  V30 4586 C 448.043 2.0368 0.554753 0
M  V30 4587 O 447.391 1.70742 1.51854 0
M  V30 4588 C 447.601 2.98061 -1.8155 0
M  V30 4589 C 448.949 3.7117 -2.06199 0
M  V30 4590 O 449.973 3.08034 -1.78867 0
M  V30 4591 O 448.832 4.84721 -2.52404 0
M  V30 4592 H 445.926 0.749253 -0.35007 0
M  V30 4593 H 448.472 1.06668 -1.31985 0
M  V30 4594 H 447.244 2.70908 -2.82355 0
M  V30 4595 H 446.867 3.70968 -1.43068 0
M  V30 4596 N 447.864 1.01787 1.20321 0
M  V30 4597 C 449.28 0.732951 1.41774 0
M  V30 4598 C 449.48 -0.686883 1.89431 0
M  V30 4599 O 448.536 -1.45446 2.06402 0
M  V30 4600 C 449.849 1.75973 2.43832 0
M  V30 4601 C 451.397 1.77802 2.57596 0
M  V30 4602 C 451.872 2.7941 3.62897 0
M  V30 4603 N 453.363 2.78157 3.70382 0
M  V30 4604 C 454.098 3.53434 4.51521 0
M  V30 4605 N 453.594 4.38392 5.36455 0
M  V30 4606 N 455.387 3.42026 4.46066 0
M  V30 4607 H 447.538 1.93447 0.877035 0
M  V30 4608 H 449.801 0.835712 0.447536 0
M  V30 4609 H 449.507 2.77699 2.15815 0
M  V30 4610 H 449.381 1.57292 3.4284 0
M  V30 4611 H 451.768 0.767602 2.84942 0
M  V30 4612 H 451.849 2.00557 1.58779 0
M  V30 4613 H 451.493 3.80616 3.36295 0
M  V30 4614 H 451.423 2.53916 4.61339 0
M  V30 4615 H 453.914 2.16531 3.09714 0
M  V30 4616 H 454.227 4.92596 5.95457 0
M  V30 4617 H 452.572 4.4247 5.35953 0
M  V30 4618 H 455.763 2.75075 3.78749 0
M  V30 4619 H 455.936 4.00946 5.09064 0
M  V30 4620 N 449.342 -1.36122 0.79427 0
M  V30 4621 C 450.29 -2.31871 0.184023 0
M  V30 4622 C 451.284 -1.56041 -0.659365 0
M  V30 4623 O 452.49 -1.71266 -0.553906 0
M  V30 4624 H 448.865 -0.750896 0.0407373 0
M  V30 4625 H 450.836 -2.80898 1.00693 0
M  V30 4626 C 449.585 -3.41324 -0.662813 0
M  V30 4627 H 448.908 -3.99793 -0.0231944 0
M  V30 4628 H 450.348 -4.10629 -1.05639 0
M  V30 4629 C 448.807 -2.83308 -1.82313 0
M  V30 4630 O 449.337 -2.75863 -2.91997 0
M  V30 4631 N 447.543 -2.40529 -1.63077 0
M  V30 4632 H 447.09 -2.46785 -0.738591 0
M  V30 4633 H 447.048 -2.02059 -2.40872 0
M  V30 4634 N 450.82 -0.546701 -1.47814 0
M  V30 4635 C 451.768 0.220048 -2.31557 0
M  V30 4636 C 452.762 0.919472 -1.42275 0
M  V30 4637 O 453.968 0.841953 -1.59095 0
M  V30 4638 H 450.343 0.0898334 -0.746615 0
M  V30 4639 H 452.314 -0.505589 -2.94086 0
M  V30 4640 C 451.063 1.24353 -3.24702 0
M  V30 4641 H 450.386 0.714758 -3.93359 0
M  V30 4642 H 451.826 1.75112 -3.8615 0
M  V30 4643 C 450.285 2.28593 -2.47481 0
M  V30 4644 O 450.815 3.35334 -2.21165 0
M  V30 4645 N 449.021 2.02244 -2.08676 0
M  V30 4646 H 448.568 1.15455 -2.30278 0
M  V30 4647 H 448.526 2.72207 -1.57323 0
M  V30 4648 N 452.299 1.55045 -0.282633 0
M  V30 4649 C 453.229 2.2579 0.595066 0
M  V30 4650 C 454.21 1.25074 1.15284 0
M  V30 4651 O 455.395 1.5381 1.18559 0
M  V30 4652 C 452.525 2.98472 1.77572 0
M  V30 4653 C 451.479 4.0618 1.34914 0
M  V30 4654 C 450.805 4.66477 2.6135 0
M  V30 4655 C 452.105 5.1996 0.493821 0
M  V30 4656 H 453.799 2.994 0.00505653 0
M  V30 4657 H 451.345 1.44 0.000992001 0
M  V30 4658 H 453.298 3.46677 2.39568 0
M  V30 4659 H 452.022 2.2241 2.39168 0
M  V30 4660 H 450.681 3.58797 0.752338 0
M  V30 4661 H 450.329 3.87074 3.2122 0
M  V30 4662 H 450.029 5.39207 2.33516 0
M  V30 4663 H 451.553 5.17435 3.24181 0
M  V30 4664 H 452.967 5.64172 1.01898 0
M  V30 4665 H 451.364 5.99299 0.310047 0
M  V30 4666 H 452.434 4.82462 -0.485593 0
M  V30 4667 N 453.777 0.010035 1.57597 0
M  V30 4668 C 454.709 -1.00649 2.05918 0
M  V30 4669 C 455.722 -1.30077 0.978964 0
M  V30 4670 O 456.911 -1.26878 1.25556 0
M  V30 4671 C 454.011 -2.33876 2.45265 0
M  V30 4672 C 453.184 -2.23242 3.7614 0
M  V30 4673 C 452.243 -3.39242 4.02245 0
M  V30 4674 O 451.269 -3.1698 4.72771 0
M  V30 4675 N 452.471 -4.6242 3.50924 0
M  V30 4676 H 455.236 -0.594333 2.93748 0
M  V30 4677 H 452.797 -0.17714 1.60928 0
M  V30 4678 H 454.789 -3.1027 2.59836 0
M  V30 4679 H 453.359 -2.66799 1.62902 0
M  V30 4680 H 452.579 -1.31696 3.71551 0
M  V30 4681 H 453.867 -2.13321 4.61922 0
M  V30 4682 H 453.265 -4.83404 2.93832 0
M  V30 4683 H 451.822 -5.36046 3.70807 0
M  V30 4684 N 455.255 -1.55392 -0.262866 0
M  V30 4685 C 456.501 -1.76737 -0.99458 0
M  V30 4686 C 456.834 -0.572453 -1.85571 0
M  V30 4687 O 456.109 0.429732 -1.89693 0
M  V30 4688 C 456.392 -3.07824 -1.8686 0
M  V30 4689 C 456.245 -4.3769 -1.03672 0
M  V30 4690 C 457.564 -3.35021 -2.85393 0
M  V30 4691 H 454.683 -0.643005 -0.360157 0
M  V30 4692 H 457.325 -1.88126 -0.266216 0
M  V30 4693 H 455.475 -2.98245 -2.48962 0
M  V30 4694 H 457.147 -4.59238 -0.43563 0
M  V30 4695 H 455.39 -4.32461 -0.340513 0
M  V30 4696 H 456.061 -5.25759 -1.6817 0
M  V30 4697 H 458.537 -3.44458 -2.33426 0
M  V30 4698 H 457.413 -4.27989 -3.43681 0
M  V30 4699 H 457.674 -2.55153 -3.61039 0
M  V30 4700 N 456.733 0.527833 -1.48498 0
M  V30 4701 C 457.696 1.61439 -1.62696 0
M  V30 4702 C 458.696 1.52824 -0.500136 0
M  V30 4703 O 459.886 1.56456 -0.765976 0
M  V30 4704 C 457.018 3.01063 -1.59918 0
M  V30 4705 H 458.211 1.50189 -2.59583 0
M  V30 4706 H 455.764 0.750055 -1.37127 0
M  V30 4707 H 456.499 3.17818 -0.645163 0
M  V30 4708 H 456.284 3.08725 -2.41726 0
M  V30 4709 H 457.774 3.80057 -1.73051 0
M  V30 4710 N 458.211 1.37122 0.776871 0
M  V30 4711 C 459.488 1.22586 1.52421 0
M  V30 4712 C 459.868 -0.182726 2.10308 0
M  V30 4713 O 459.216 -1.18979 1.9508 0
M  V30 4714 C 459.426 2.31782 2.60918 0
M  V30 4715 C 460.774 2.69071 3.2846 0
M  V30 4716 O 461.798 2.3092 2.71209 0
M  V30 4717 O 460.657 3.3478 4.31954 0
M  V30 4718 H 457.751 0.478045 0.674835 0
M  V30 4719 H 460.297 1.48888 0.814275 0
M  V30 4720 H 459.069 3.26131 2.16227 0
M  V30 4721 H 458.692 2.06916 3.39517 0
M  V30 4722 N 459.689 -1.00246 1.21608 0
M  V30 4723 C 460.619 -2.10921 1.00172 0
M  V30 4724 C 461.6 -1.69938 -0.0741587 0
M  V30 4725 O 462.785 -1.94009 0.0861753 0
M  V30 4726 C 459.915 -3.42618 0.568355 0
M  V30 4727 C 458.869 -3.97407 1.58909 0
M  V30 4728 C 458.195 -5.25038 1.01187 0
M  V30 4729 C 459.495 -4.2918 2.97661 0
M  V30 4730 H 461.189 -2.29112 1.92739 0
M  V30 4731 H 458.735 -1.10101 0.928102 0
M  V30 4732 H 460.688 -4.19444 0.405555 0
M  V30 4733 H 459.412 -3.24227 -0.392961 0
M  V30 4734 H 458.071 -3.22703 1.73949 0
M  V30 4735 H 457.719 -5.02982 0.0421965 0
M  V30 4736 H 457.419 -5.62661 1.6937 0
M  V30 4737 H 458.943 -6.04507 0.860448 0
M  V30 4738 H 460.357 -4.96839 2.86049 0
M  V30 4739 H 458.754 -4.77952 3.6288 0
M  V30 4740 H 459.824 -3.3735 3.48315 0
M  V30 4741 N 461.167 -1.02423 -1.1978 0
M  V30 4742 C 462.416 -0.713265 -1.88667 0
M  V30 4743 C 462.729 0.7609 -1.80193 0
M  V30 4744 O 463.935 1.18473 -2.44288 0
M  V30 4745 C 462.391 -1.22545 -3.38394 0
M  V30 4746 C 461.999 -2.72706 -3.55437 0
M  V30 4747 C 463.743 -0.990257 -4.12788 0
M  V30 4748 C 461.65 -3.17367 -4.99031 0
M  V30 4749 H 460.58 -0.263105 -0.706606 0
M  V30 4750 H 463.231 -1.23792 -1.35454 0
M  V30 4751 H 461.613 -0.628732 -3.90977 0
M  V30 4752 H 462.787 -3.37993 -3.13205 0
M  V30 4753 H 461.102 -2.94453 -2.94425 0
M  V30 4754 H 463.699 -1.29926 -5.18675 0
M  V30 4755 H 464.042 0.0730761 -4.16236 0
M  V30 4756 H 464.575 -1.55074 -3.66329 0
M  V30 4757 H 461.314 -4.23009 -5.00743 0
M  V30 4758 H 460.834 -2.56805 -5.42044 0
M  V30 4759 H 462.513 -3.10441 -5.67658 0
M  V30 4760 N 462.645 1.35699 -0.801477 0
M  V30 4761 C 463.575 2.32436 -0.222658 0
M  V30 4762 C 464.556 1.5723 0.649057 0
M  V30 4763 O 465.741 1.85324 0.580387 0
M  V30 4764 C 462.871 3.41469 0.633719 0
M  V30 4765 C 461.825 4.27774 -0.139083 0
M  V30 4766 C 461.151 5.28082 0.838666 0
M  V30 4767 C 462.451 5.04946 -1.33517 0
M  V30 4768 H 464.145 2.81094 -1.03086 0
M  V30 4769 H 461.691 1.35146 -0.497155 0
M  V30 4770 H 463.644 4.08143 1.04868 0
M  V30 4771 H 462.368 2.91408 1.47475 0
M  V30 4772 H 461.027 3.62673 -0.535156 0
M  V30 4773 H 460.675 4.7429 1.67506 0
M  V30 4774 H 460.375 5.86695 0.32594 0
M  V30 4775 H 461.899 5.97628 1.25194 0
M  V30 4776 H 463.313 5.64593 -0.995349 0
M  V30 4777 H 461.71 5.7303 -1.78202 0
M  V30 4778 H 462.78 4.35886 -2.12442 0
M  V30 4779 N 464.123 0.554532 1.47522 0
M  V30 4780 C 465.4 -0.0360704 1.95567 0
M  V30 4781 C 465.78 -1.48828 1.49711 0
M  V30 4782 O 465.128 -2.16366 0.734717 0
M  V30 4783 C 465.338 0.106631 3.48837 0
M  V30 4784 C 466.686 -0.0400899 4.24581 0
M  V30 4785 O 467.71 0.0340453 3.56184 0
M  V30 4786 O 466.569 -0.199111 5.46137 0
M  V30 4787 H 463.663 -0.0656294 0.824392 0
M  V30 4788 H 466.209 0.620867 1.57935 0
M  V30 4789 H 464.981 1.11727 3.7501 0
M  V30 4790 H 464.604 -0.58804 3.93227 0
M  V30 4791 N 465.601 -1.54893 0.290851 0
M  V30 4792 C 466.847 -2.00949 -0.314784 0
M  V30 4793 C 467.202 -1.1757 -1.52299 0
M  V30 4794 O 466.495 -0.241558 -1.90071 0
M  V30 4795 C 466.689 -3.49815 -0.732397 0
M  V30 4796 C 466.518 -4.47603 0.433799 0
M  V30 4797 C 465.288 -4.96806 0.922599 0
M  V30 4798 C 467.486 -4.98233 1.27546 0
M  V30 4799 N 465.468 -5.78426 2.05662 0
M  V30 4800 C 466.839 -5.77455 2.25712 0
M  V30 4801 C 468.894 -4.80439 1.307 0
M  V30 4802 C 467.597 -6.40778 3.26796 0
M  V30 4803 C 469.623 -5.44574 2.30637 0
M  V30 4804 C 468.985 -6.23619 3.27533 0
M  V30 4805 H 465.084 -0.777905 -0.0799257 0
M  V30 4806 H 467.668 -1.9015 0.418458 0
M  V30 4807 H 465.839 -3.60925 -1.43483 0
M  V30 4808 H 467.571 -3.82681 -1.31671 0
M  V30 4809 H 464.326 -4.70961 0.49926 0
M  V30 4810 H 464.75 -6.23923 2.62772 0
M  V30 4811 H 469.392 -4.18918 0.571622 0
M  V30 4812 H 467.11 -7.01439 4.01258 0
M  V30 4813 H 470.696 -5.32739 2.33838 0
M  V30 4814 H 469.576 -6.72367 4.03599 0
M  V30 4815 N 467.08 -0.0183926 -1.57589 0
M  V30 4816 C 468.329 0.66185 -1.90532 0
M  V30 4817 C 468.642 1.73904 -0.895366 0
M  V30 4818 O 469.848 2.47518 -1.11566 0
M  V30 4819 C 468.304 1.22844 -3.38286 0
M  V30 4820 C 467.912 0.185103 -4.47617 0
M  V30 4821 C 469.656 1.88581 -3.80312 0
M  V30 4822 C 467.563 0.762723 -5.86461 0
M  V30 4823 H 466.493 0.250972 -0.711006 0
M  V30 4824 H 469.144 -0.0819435 -1.83317 0
M  V30 4825 H 467.526 2.0235 -3.40398 0
M  V30 4826 H 468.7 -0.58671 -4.5705 0
M  V30 4827 H 467.015 -0.372889 -4.14727 0
M  V30 4828 H 469.612 2.32735 -4.81392 0
M  V30 4829 H 469.955 2.72408 -3.14801 0
M  V30 4830 H 470.488 1.15782 -3.80578 0
M  V30 4831 H 467.227 -0.0371713 -6.55489 0
M  V30 4832 H 466.747 1.50327 -5.80656 0
M  V30 4833 H 468.426 1.25576 -6.34697 0
M  V30 4834 N 468.558 1.5553 0.254621 0
M  V30 4835 C 469.806 1.7665 0.981793 0
M  V30 4836 C 470.127 0.580963 1.86145 0
M  V30 4837 O 469.397 -0.403537 1.91699 0
M  V30 4838 H 467.977 0.651475 0.365498 0
M  V30 4839 H 470.639 1.92958 0.274426 0
M  V30 4840 H 469.735 2.67486 1.60802 0
M  V30 4841 N 470.036 -0.519951 1.48776 0
M  V30 4842 C 471.452 -0.849418 1.35119 0
M  V30 4843 C 471.652 -1.98077 0.36982 0
M  V30 4844 O 470.708 -2.51664 -0.205359 0
M  V30 4845 C 472.021 -1.20748 2.75391 0
M  V30 4846 C 473.569 -1.31679 2.83954 0
M  V30 4847 C 474.044 -1.70824 4.24951 0
M  V30 4848 N 475.535 -1.77908 4.27672 0
M  V30 4849 C 476.27 -2.09603 5.33717 0
M  V30 4850 N 475.766 -2.39652 6.5003 0
M  V30 4851 N 477.559 -2.10694 5.21119 0
M  V30 4852 H 469.71 0.226377 2.1119 0
M  V30 4853 H 471.973 0.0386519 0.947212 0
M  V30 4854 H 471.679 -0.449703 3.48813 0
M  V30 4855 H 471.553 -2.15534 3.09556 0
M  V30 4856 H 473.94 -2.06532 2.10781 0
M  V30 4857 H 474.021 -0.3499 2.53396 0
M  V30 4858 H 473.665 -0.965282 4.98643 0
M  V30 4859 H 473.595 -2.6858 4.52959 0
M  V30 4860 H 476.086 -1.56923 3.43779 0
M  V30 4861 H 476.399 -2.6297 7.26682 0
M  V30 4862 H 474.744 -2.37149 6.53288 0
M  V30 4863 H 477.935 -1.86682 4.29264 0
M  V30 4864 H 478.108 -2.35062 6.03863 0
M  V30 4865 N 471.514 -1.37532 -0.769588 0
M  V30 4866 C 472.462 -1.33561 -1.90432 0
M  V30 4867 C 473.456 -0.224027 -1.67912 0
M  V30 4868 O 474.662 -0.392174 -1.75676 0
M  V30 4869 H 471.037 -0.416279 -0.626271 0
M  V30 4870 H 473.008 -2.29348 -1.90899 0
M  V30 4871 C 471.757 -1.16162 -3.27722 0
M  V30 4872 H 471.08 -2.00951 -3.45628 0
M  V30 4873 H 472.52 -1.17434 -4.07413 0
M  V30 4874 C 470.979 0.132583 -3.36639 0
M  V30 4875 O 471.509 1.11539 -3.85904 0
M  V30 4876 N 469.715 0.184013 -2.90017 0
M  V30 4877 H 469.262 -0.616415 -2.50116 0
M  V30 4878 H 469.22 1.04956 -2.96364 0
M  V30 4879 N 472.992 0.995999 -1.22138 0
M  V30 4880 C 474.22 1.77066 -1.07029 0
M  V30 4881 C 474.635 1.8495 0.379357 0
M  V30 4882 O 473.992 1.3174 1.26297 0
M  V30 4883 C 474.043 3.20533 -1.67155 0
M  V30 4884 O 473.764 3.13082 -3.06449 0
M  V30 4885 C 475.265 4.14461 -1.5728 0
M  V30 4886 H 472.485 0.556179 -0.375374 0
M  V30 4887 H 475.029 1.25238 -1.61666 0
M  V30 4888 H 473.184 3.6944 -1.16589 0
M  V30 4889 H 473.598 4.03283 -3.35355 0
M  V30 4890 H 475.072 5.1289 -2.04078 0
M  V30 4891 H 475.549 4.36005 -0.528795 0
M  V30 4892 H 476.155 3.71449 -2.07136 0
M  V30 4893 N 474.47 1.03057 1.19235 0
M  V30 4894 C 475.433 0.617418 2.20727 0
M  V30 4895 C 476.433 -0.319856 1.57587 0
M  V30 4896 O 477.623 -0.106633 1.73873 0
M  V30 4897 C 474.755 -0.096296 3.40764 0
M  V30 4898 H 475.948 1.51544 2.58794 0
M  V30 4899 H 473.501 0.821949 1.32942 0
M  V30 4900 H 474.236 -1.00859 3.08217 0
M  V30 4901 H 474.021 0.577217 3.87828 0
M  V30 4902 H 475.511 -0.372219 4.15938 0
M  V30 4903 N 475.948 -1.35272 0.808662 0
M  V30 4904 C 476.895 -2.29764 0.218482 0
M  V30 4905 C 477.865 -1.52911 -0.648652 0
M  V30 4906 O 479.05 -1.81341 -0.593297 0
M  V30 4907 C 476.19 -3.39388 -0.625282 0
M  V30 4908 C 475.303 -4.31202 0.262516 0
M  V30 4909 C 474.438 -5.27919 -0.589451 0
M  V30 4910 C 473.477 -6.11371 0.298617 0
M  V30 4911 N 472.614 -7.0022 -0.513443 0
M  V30 4912 H 477.454 -2.79645 1.02968 0
M  V30 4913 H 474.991 -1.37629 0.519303 0
M  V30 4914 H 476.949 -4.01615 -1.12966 0
M  V30 4915 H 475.579 -2.90777 -1.40173 0
M  V30 4916 H 474.631 -3.69962 0.885013 0
M  V30 4917 H 475.943 -4.89748 0.945971 0
M  V30 4918 H 475.097 -5.95529 -1.15888 0
M  V30 4919 H 473.836 -4.69875 -1.30647 0
M  V30 4920 H 472.841 -5.42707 0.880301 0
M  V30 4921 H 474.066 -6.71494 1.01352 0
M  V30 4922 H 472.012 -6.44662 -1.21439 0
M  V30 4923 H 471.929 -7.55917 0.111922 0
M  V30 4924 H 473.197 -7.72175 -1.06608 0
M  V30 4925 N 477.426 -0.562348 -1.47226 0
M  V30 4926 C 478.837 -0.130325 -1.86245 0
M  V30 4927 C 479.188 1.30128 -1.46838 0
M  V30 4928 O 478.313 1.97974 -0.873805 0
M  V30 4929 C 478.908 -0.229738 -3.3802 0
M  V30 4930 C 477.467 0.14728 -3.76112 0
M  V30 4931 C 476.614 -0.574971 -2.71274 0
M  V30 4932 H 479.565 -0.771773 -1.3867 0
M  V30 4933 H 479.586 0.550316 -3.76499 0
M  V30 4934 H 479.098 -1.27178 -3.66671 0
M  V30 4935 H 477.199 1.19023 -3.53078 0
M  V30 4936 H 477.312 -0.214858 -4.78618 0
M  V30 4937 H 475.676 -0.0174756 -2.54694 0
M  V30 4938 H 476.459 -1.61827 -3.02766 0
M  V30 4939 N 478.904 1.54736 -0.299062 0
M  V30 4940 C 479.867 2.22127 0.565012 0
M  V30 4941 C 480.867 1.20669 1.06281 0
M  V30 4942 O 482.057 1.45417 0.959145 0
M  V30 4943 C 479.189 2.90611 1.78208 0
M  V30 4944 H 480.382 2.99891 -0.0237448 0
M  V30 4945 H 477.935 1.5622 -0.0498788 0
M  V30 4946 H 478.67 2.16921 2.41072 0
M  V30 4947 H 478.455 3.64984 1.43281 0
M  V30 4948 H 479.945 3.42026 2.396 0
M  V30 4949 N 480.382 0.0267497 1.57577 0
M  V30 4950 C 481.332 -0.965003 2.06571 0
M  V30 4951 C 482.316 -1.28694 0.965746 0
M  V30 4952 O 483.508 -1.27345 1.22932 0
M  V30 4953 C 480.637 -2.24821 2.59443 0
M  V30 4954 C 479.723 -1.95474 3.76365 0
M  V30 4955 N 480.114 -1.36387 4.87065 0
M  V30 4956 C 478.412 -2.25478 3.84806 0
M  V30 4957 C 479.113 -1.24119 5.68304 0
M  V30 4958 N 478.089 -1.7359 5.15138 0
M  V30 4959 H 481.891 -0.503095 2.89562 0
M  V30 4960 H 479.405 -0.178322 1.61418 0
M  V30 4961 H 481.402 -2.9674 2.92833 0
M  V30 4962 H 480.062 -2.7164 1.77881 0
M  V30 4963 H 481.073 -1.03919 5.07367 0
M  V30 4964 H 477.75 -2.74987 3.14147 0
M  V30 4965 H 479.14 -0.784504 6.67304 0
M  V30 4966 N 481.861 -1.55662 -0.24637 0
M  V30 4967 C 483.109 -1.77168 -0.972411 0
M  V30 4968 C 483.43 -0.590827 -1.85834 0
M  V30 4969 O 482.7 0.393365 -1.9191 0
M  V30 4970 H 481.28 -0.653405 -0.362038 0
M  V30 4971 H 483.942 -1.93101 -0.264189 0
M  V30 4972 H 483.038 -2.68335 -1.59382 0
M  V30 4973 N 483.339 0.512053 -1.4905 0
M  V30 4974 C 484.755 0.84224 -1.35567 0
M  V30 4975 C 484.955 1.97878 -0.380319 0
M  V30 4976 O 484.011 2.51769 0.19201 0
M  V30 4977 C 485.324 1.19286 -2.76028 0
M  V30 4978 C 486.872 1.30171 -2.84648 0
M  V30 4979 C 487.347 1.68568 -4.25851 0
M  V30 4980 N 488.838 1.75638 -4.28609 0
M  V30 4981 C 489.573 2.06769 -5.34821 0
M  V30 4982 N 489.069 2.36201 -6.51292 0
M  V30 4983 N 490.862 2.07927 -5.22229 0
M  V30 4984 H 483.013 -0.237574 -2.11067 0
M  V30 4985 H 485.276 -0.0436747 -0.946993 0
M  V30 4986 H 484.982 0.431199 -3.49047 0
M  V30 4987 H 484.856 2.13889 -3.10695 0
M  V30 4988 H 487.243 2.05411 -2.11873 0
M  V30 4989 H 487.324 0.336457 -2.53578 0
M  V30 4990 H 486.968 0.938824 -4.99148 0
M  V30 4991 H 486.898 2.66174 -4.54377 0
M  V30 4992 H 489.389 1.55097 -3.44606 0
M  V30 4993 H 489.702 2.59112 -7.28066 0
M  V30 4994 H 488.047 2.33681 -6.54536 0
M  V30 4995 H 491.238 1.84403 -4.30248 0
M  V30 4996 H 491.411 2.31856 -6.05101 0
M  V30 4997 O 484.856 1.47522 0.657231 0
M  V30 4998 H 485.547 1.42634 1.31055 0
M  V30 END ATOM
M  V30 BEGIN BOND
M  V30 END BOND
M  V30 END CTAB
M  END
$$$$
