drugbank_target|Q7SIB1 CCA-adding enzyme (DB02431)
 OpenBabel12092120243D

  0  0  0     0  0            999 V3000
M  V30 BEGIN CTAB
M  V30 COUNTS 6433 6505 0 0 0
M  V30 BEGIN ATOM
M  V30 1 H -0.908 1.98254 -0.117106 0
M  V30 2 N 0 1.576 0 0
M  V30 3 C 0.933 2.03868 1.02534 0
M  V30 4 C 1.911 0.928543 1.3348 0
M  V30 5 O 3.095 1.19667 1.45644 0
M  V30 6 C 0.222 2.43627 2.35294 0
M  V30 7 C -0.732 3.65373 2.2001 0
M  V30 8 S 0.101 5.13292 1.52614 0
M  V30 9 C 1.257 5.56322 2.86805 0
M  V30 10 H 1.49 2.90518 0.631377 0
M  V30 11 H -0.977 1.52953 0.210867 0
M  V30 12 H 0.981 2.67203 3.11629 0
M  V30 13 H -0.358 1.57376 2.7183 0
M  V30 14 H -1.165 3.90944 3.18086 0
M  V30 15 H -1.563 3.418 1.51819 0
M  V30 16 H 0.729 5.58782 3.83104 0
M  V30 17 H 1.672 6.56266 2.65933 0
M  V30 18 H 2.08 4.83886 2.90714 0
M  V30 19 N 1.4781 -0.272755 1.55222 0
M  V30 20 C 2.4251 -1.33716 1.88119 0
M  V30 21 C 3.3951 -1.49066 0.73271 0
M  V30 22 O 4.5801 -1.63469 0.984002 0
M  V30 23 C 1.7201 -2.69238 2.15882 0
M  V30 24 C 0.8331 -2.62108 3.43399 0
M  V30 25 C -0.0319 -3.89811 3.60861 0
M  V30 26 C -0.9929 -3.77193 4.8207 0
M  V30 27 N -1.8559 -4.9673 4.96189 0
M  V30 28 H 2.9841 -1.04962 2.78903 0
M  V30 29 H 0.5211 -0.507088 1.38083 0
M  V30 30 H 2.4791 -3.48089 2.29978 0
M  V30 31 H 1.1091 -2.96194 1.28331 0
M  V30 32 H 0.1611 -1.74967 3.37773 0
M  V30 33 H 1.4731 -2.48685 4.32386 0
M  V30 34 H 0.6271 -4.77103 3.74777 0
M  V30 35 H -0.6339 -4.06102 2.7006 0
M  V30 36 H -1.6289 -2.88284 4.68159 0
M  V30 37 H -0.4039 -3.62421 5.74307 0
M  V30 38 H -2.4579 -5.13431 4.08319 0
M  V30 39 H -2.5409 -4.85839 5.79221 0
M  V30 40 H -1.2729 -5.85594 5.1449 0
M  V30 41 N 2.9562 -1.48159 -0.537278 0
M  V30 42 C 4.3672 -1.49429 -1.11928 0
M  V30 43 C 4.7182 -0.26 -1.9447 0
M  V30 44 O 3.8432 0.633489 -2.0692 0
M  V30 45 C 4.4382 -2.70758 -2.03656 0
M  V30 46 C 2.9972 -2.74923 -2.57088 0
M  V30 47 C 2.1442 -2.42835 -1.3389 0
M  V30 48 H 5.0952 -1.55381 -0.322886 0
M  V30 49 H 5.1162 -2.48861 -2.87834 0
M  V30 50 H 4.6282 -3.60575 -1.43553 0
M  V30 51 H 2.7292 -1.89296 -3.20933 0
M  V30 52 H 2.8422 -3.76157 -2.9672 0
M  V30 53 H 1.2062 -1.93836 -1.65226 0
M  V30 54 H 1.9892 -3.34884 -0.755504 0
M  V30 55 N 4.4343 0.785586 -1.36625 0
M  V30 56 C 5.8453 1.36101 -1.27803 0
M  V30 57 C 6.1963 1.96035 0.0804875 0
M  V30 58 O 5.3213 1.92834 0.982042 0
M  V30 59 C 5.9163 2.47442 -2.31426 0
M  V30 60 C 4.4753 3.00789 -2.26281 0
M  V30 61 C 3.6223 1.73896 -2.15999 0
M  V30 62 H 6.5733 0.586928 -1.47448 0
M  V30 63 H 6.5943 3.2656 -1.95291 0
M  V30 64 H 6.1063 2.03791 -3.30289 0
M  V30 65 H 4.2073 3.48851 -1.30896 0
M  V30 66 H 4.3203 3.57343 -3.19128 0
M  V30 67 H 2.6843 1.9628 -1.62316 0
M  V30 68 H 3.4673 1.32368 -3.16755 0
M  V30 69 N 5.9124 1.20967 1.01018 0
M  V30 70 C 7.1594 1.02374 1.74716 0
M  V30 71 C 7.4874 -0.443375 1.89379 0
M  V30 72 O 6.7424 -1.34535 1.42123 0
M  V30 73 C 7.0414 1.65997 3.16512 0
M  V30 74 C 6.7074 3.15831 3.2181 0
M  V30 75 C 5.3694 3.56719 3.22963 0
M  V30 76 C 7.7214 4.11816 3.19464 0
M  V30 77 C 5.0494 4.92107 3.19449 0
M  V30 78 C 7.4014 5.47158 3.17491 0
M  V30 79 C 6.0654 5.87451 3.16951 0
M  V30 80 H 5.3354 0.374614 0.639332 0
M  V30 81 H 7.9824 1.50485 1.18434 0
M  V30 82 H 6.2874 1.10166 3.75993 0
M  V30 83 H 7.9844 1.49119 3.72242 0
M  V30 84 H 4.5744 2.83263 3.21652 0
M  V30 85 H 8.7584 3.81257 3.17737 0
M  V30 86 H 4.0144 5.22579 3.17366 0
M  V30 87 H 8.1884 6.21274 3.14629 0
M  V30 88 H 5.8154 6.92329 3.13983 0
M  V30 89 N 7.3905 -1.2043 1.01659 0
M  V30 90 C 8.3225 -2.22626 0.544988 0
M  V30 91 C 9.3355 -1.58479 -0.372609 0
M  V30 92 O 10.5245 -1.77679 -0.170958 0
M  V30 93 C 7.6245 -3.38141 -0.22663 0
M  V30 94 C 6.7975 -4.31877 0.692876 0
M  V30 95 C 5.8565 -5.26191 -0.0311616 0
M  V30 96 O 4.8825 -5.6612 0.591343 0
M  V30 97 N 6.0845 -5.65618 -1.30601 0
M  V30 98 H 8.8495 -2.63716 1.42388 0
M  V30 99 H 6.4105 -1.34971 0.894116 0
M  V30 100 H 8.4025 -3.98239 -0.72024 0
M  V30 101 H 6.9725 -2.95943 -1.00681 0
M  V30 102 H 6.1925 -3.69746 1.36679 0
M  V30 103 H 7.4805 -4.91426 1.31824 0
M  V30 104 H 6.8785 -5.3519 -1.83269 0
M  V30 105 H 5.4355 -6.28025 -1.74435 0
M  V30 106 N 8.8686 -0.792821 -1.36206 0
M  V30 107 C 9.7786 -0.194808 -2.3379 0
M  V30 108 C 10.7946 0.654869 -1.61206 0
M  V30 109 O 11.9706 0.569856 -1.9317 0
M  V30 110 C 9.0356 0.657721 -3.40404 0
M  V30 111 C 8.0966 -0.210849 -4.28782 0
M  V30 112 C 7.3296 0.601086 -5.30304 0
M  V30 113 O 7.5526 1.83682 -5.40016 0
M  V30 114 O 6.4866 -0.000808277 -6.019 0
M  V30 115 H 10.3126 -1.00172 -2.86704 0
M  V30 116 H 7.8976 -0.554341 -1.38735 0
M  V30 117 H 9.7796 1.14375 -4.05581 0
M  V30 118 H 8.4546 1.44247 -2.89784 0
M  V30 119 H 7.3616 -0.743714 -3.66633 0
M  V30 120 H 8.6946 -0.959195 -4.82763 0
M  V30 121 N 10.3467 1.47872 -0.545128 0
M  V30 122 C 11.3097 2.28337 0.198717 0
M  V30 123 C 12.3097 1.36255 0.853888 0
M  V30 124 O 13.4997 1.59003 0.711606 0
M  V30 125 C 10.6317 3.15585 1.28915 0
M  V30 126 H 11.8247 2.95567 -0.507941 0
M  V30 127 H 9.3777 1.53362 -0.301616 0
M  V30 128 H 10.1127 2.53019 2.02859 0
M  V30 129 H 9.8977 3.83337 0.824309 0
M  V30 130 H 11.3877 3.76243 1.81194 0
M  V30 131 N 11.8248 0.280983 1.55075 0
M  V30 132 C 12.7548 -0.597469 2.25727 0
M  V30 133 C 13.7358 -1.15417 1.24952 0
M  V30 134 O 14.9208 -1.18722 1.53684 0
M  V30 135 C 12.0508 -1.7789 2.98283 0
M  V30 136 C 11.0048 -1.35347 4.06036 0
M  V30 137 C 10.3308 -2.61846 4.66198 0
M  V30 138 C 11.6308 -0.499354 5.19907 0
M  V30 139 H 13.3248 -0.00824265 2.99399 0
M  V30 140 H 10.8708 -0.0025244 1.44 0
M  V30 141 H 12.8238 -2.39937 3.46422 0
M  V30 142 H 11.5478 -2.39405 2.22155 0
M  V30 143 H 10.2068 -0.756156 3.58717 0
M  V30 144 H 9.8548 -3.21632 3.86732 0
M  V30 145 H 9.5548 -2.3409 5.38958 0
M  V30 146 H 11.0788 -3.24732 5.1709 0
M  V30 147 H 12.4928 -1.02498 5.64063 0
M  V30 148 H 10.8898 -0.316424 5.99265 0
M  V30 149 H 11.9598 0.480459 4.82514 0
M  V30 150 N 13.3029 -1.57598 0.00835791 0
M  V30 151 C 14.5509 -1.90551 -0.6734 0
M  V30 152 C 14.8719 -0.883301 -1.73847 0
M  V30 153 O 14.1419 0.0781442 -1.95744 0
M  V30 154 H 12.7219 -0.703312 -0.251717 0
M  V30 155 H 15.3839 -1.94833 0.0512592 0
M  V30 156 H 14.4799 -2.9056 -1.13935 0
M  V30 157 N 14.781 0.264519 -1.55364 0
M  V30 158 C 16.03 0.992812 -1.75574 0
M  V30 159 C 16.343 1.87142 -0.568979 0
M  V30 160 O 17.549 2.63513 -0.653682 0
M  V30 161 C 16.005 1.81519 -3.10771 0
M  V30 162 C 15.613 0.984839 -4.37041 0
M  V30 163 C 17.357 2.53727 -3.40327 0
M  V30 164 C 15.264 1.80209 -5.63275 0
M  V30 165 H 14.194 0.374412 -0.65447 0
M  V30 166 H 16.845 0.248138 -1.81815 0
M  V30 167 H 15.227 2.60115 -2.98591 0
M  V30 168 H 16.401 0.242455 -4.60162 0
M  V30 169 H 14.716 0.37691 -4.14691 0
M  V30 170 H 17.313 3.15292 -4.3185 0
M  V30 171 H 17.656 3.24447 -2.60845 0
M  V30 172 H 18.189 1.82156 -3.53644 0
M  V30 173 H 14.928 1.13896 -6.45529 0
M  V30 174 H 14.448 2.52022 -5.44284 0
M  V30 175 H 16.127 2.37364 -6.01887 0
M  V30 176 N 16.2591 1.48442 0.529413 0
M  V30 177 C 17.5081 1.55742 1.28169 0
M  V30 178 C 17.8211 0.236511 1.94165 0
M  V30 179 O 19.0271 0.187761 2.7085 0
M  V30 180 C 17.4831 2.74667 2.32564 0
M  V30 181 C 17.0911 4.13402 1.72636 0
M  V30 182 C 18.8351 2.9128 3.08798 0
M  V30 183 C 16.7421 5.23587 2.74975 0
M  V30 184 H 15.6721 0.579796 0.48203 0
M  V30 185 H 18.3231 1.74776 0.559056 0
M  V30 186 H 16.7051 2.49067 3.07866 0
M  V30 187 H 17.8791 4.49022 1.03519 0
M  V30 188 H 16.1941 4.0191 1.08892 0
M  V30 189 H 18.7911 3.70767 3.85274 0
M  V30 190 H 19.1341 2.00757 3.64695 0
M  V30 191 H 19.6671 3.16782 2.40611 0
M  V30 192 H 16.4061 6.16076 2.23897 0
M  V30 193 H 15.9261 4.92454 3.42417 0
M  V30 194 H 17.6051 5.51724 3.37949 0
M  V30 195 N 17.7372 -0.778329 1.37039 0
M  V30 196 C 18.6692 -1.90034 1.2814 0
M  V30 197 C 19.6822 -1.61585 0.198558 0
M  V30 198 O 20.8712 -1.72625 0.454175 0
M  V30 199 C 17.9712 -3.25108 0.956968 0
M  V30 200 C 17.1442 -3.81253 2.14394 0
M  V30 201 C 16.2032 -4.94789 1.79082 0
M  V30 202 O 15.2292 -5.10721 2.51301 0
M  V30 203 N 16.4312 -5.75878 0.731043 0
M  V30 204 H 19.1962 -1.98186 2.24816 0
M  V30 205 H 16.7572 -0.957129 1.30578 0
M  V30 206 H 18.7492 -3.9857 0.701701 0
M  V30 207 H 17.3192 -3.125 0.0789812 0
M  V30 208 H 16.5392 -2.99647 2.56135 0
M  V30 209 H 17.8272 -4.15495 2.93668 0
M  V30 210 H 17.2252 -5.65547 0.131618 0
M  V30 211 H 15.7822 -6.49596 0.535622 0
M  V30 212 N 19.2153 -1.21501 -1.00376 0
M  V30 213 C 20.1473 -0.933174 -2.09343 0
M  V30 214 C 21.1603 0.0840896 -1.62583 0
M  V30 215 O 22.3493 -0.148563 -1.77881 0
M  V30 216 C 19.4493 -0.379869 -3.36764 0
M  V30 217 C 18.6223 -1.45176 -4.12605 0
M  V30 218 C 17.6813 -0.907476 -5.18316 0
M  V30 219 O 16.7073 -1.5912 -5.46507 0
M  V30 220 N 17.9093 0.276649 -5.7984 0
M  V30 221 H 20.6743 -1.87124 -2.34104 0
M  V30 222 H 18.2353 -1.12043 -1.16867 0
M  V30 223 H 20.2273 -0.00131488 -4.047 0
M  V30 224 H 18.7973 0.463048 -3.09151 0
M  V30 225 H 18.0173 -2.00411 -3.39454 0
M  V30 226 H 19.3053 -2.17328 -4.6005 0
M  V30 227 H 18.7033 0.849147 -5.59291 0
M  V30 228 H 17.2603 0.596702 -6.49063 0
M  V30 229 N 20.6934 1.19889 -1.02296 0
M  V30 230 C 21.6234 2.25141 -0.619174 0
M  V30 231 C 22.6044 1.66051 0.368915 0
M  V30 232 O 23.7894 1.92546 0.252941 0
M  V30 233 C 20.9194 3.4728 0.0368783 0
M  V30 234 C 19.8734 4.19005 -0.872865 0
M  V30 235 C 19.1994 5.34637 -0.0822402 0
M  V30 236 C 20.4994 4.74452 -2.18387 0
M  V30 237 H 22.1934 2.59171 -1.49903 0
M  V30 238 H 19.7394 1.24579 -0.722222 0
M  V30 239 H 21.6924 4.20098 0.330958 0
M  V30 240 H 20.4164 3.12433 0.95149 0
M  V30 241 H 19.0754 3.48061 -1.15105 0
M  V30 242 H 18.7234 4.96034 0.83422 0
M  V30 243 H 18.4234 5.83557 -0.688149 0
M  V30 244 H 19.9474 6.10255 0.205238 0
M  V30 245 H 21.3614 5.39055 -1.95172 0
M  V30 246 H 19.7584 5.33834 -2.74119 0
M  V30 247 H 20.8284 3.92844 -2.84257 0
M  V30 248 N 22.1715 0.800033 1.35784 0
M  V30 249 C 23.1185 0.203848 2.29898 0
M  V30 250 C 24.0885 -0.658375 1.52495 0
M  V30 251 O 25.2735 -0.604832 1.8096 0
M  V30 252 C 22.4135 -0.64688 3.38983 0
M  V30 253 C 21.5265 0.235054 4.3136 0
M  V30 254 C 20.6615 -0.623054 5.27533 0
M  V30 255 C 19.7005 0.259682 6.11549 0
M  V30 256 N 18.8375 -0.558019 6.99879 0
M  V30 257 H 23.6775 1.01186 2.80295 0
M  V30 258 H 21.2145 0.51053 1.37957 0
M  V30 259 H 23.1725 -1.15521 4.00887 0
M  V30 260 H 21.8025 -1.42021 2.89879 0
M  V30 261 H 20.8545 0.861438 3.70518 0
M  V30 262 H 22.1665 0.914768 4.9034 0
M  V30 263 H 21.3205 -1.19678 5.94779 0
M  V30 264 H 20.0595 -1.33636 4.69034 0
M  V30 265 H 19.0645 0.845726 5.43256 0
M  V30 266 H 20.2895 0.970748 6.72126 0
M  V30 267 H 18.2355 -1.25542 6.43875 0
M  V30 268 H 18.1525 0.0637872 7.55973 0
M  V30 269 H 19.4205 -1.11523 7.71481 0
M  V30 270 N 23.6496 -1.47581 0.552962 0
M  V30 271 C 24.5816 -2.27997 -0.234533 0
M  V30 272 C 25.5946 -1.36753 -0.883321 0
M  V30 273 O 26.7836 -1.61612 -0.757889 0
M  V30 274 C 23.8836 -3.10879 -1.34935 0
M  V30 275 C 23.0566 -4.30056 -0.798158 0
M  V30 276 C 22.1156 -4.94567 -1.79694 0
M  V30 277 O 21.1416 -5.53087 -1.34474 0
M  V30 278 N 22.3436 -4.88878 -3.13015 0
M  V30 279 H 25.1086 -2.96222 0.455255 0
M  V30 280 H 22.6696 -1.57163 0.388761 0
M  V30 281 H 24.6616 -3.50903 -2.01616 0
M  V30 282 H 23.2316 -2.44924 -1.94244 0
M  V30 283 H 22.4516 -3.94174 0.0453079 0
M  V30 284 H 23.7396 -5.07152 -0.409173 0
M  V30 285 H 23.1376 -4.42526 -3.52402 0
M  V30 286 H 21.6946 -5.32934 -3.75266 0
M  V30 287 N 25.1277 -0.289203 -1.54924 0
M  V30 288 C 26.0777 0.606939 -2.19773 0
M  V30 289 C 27.0617 1.10783 -1.16687 0
M  V30 290 O 28.2537 1.05057 -1.4245 0
M  V30 291 C 25.3827 1.78398 -2.93307 0
M  V30 292 C 24.4687 1.29961 -4.03697 0
M  V30 293 N 24.8597 0.532377 -5.0299 0
M  V30 294 C 23.1577 1.58136 -4.17024 0
M  V30 295 C 23.8587 0.275912 -5.81045 0
M  V30 296 N 22.8347 0.852365 -5.36876 0
M  V30 297 H 26.6367 0.0130779 -2.93897 0
M  V30 298 H 24.1507 -0.09341 -1.62131 0
M  V30 299 H 26.1477 2.43741 -3.38225 0
M  V30 300 H 24.8077 2.38166 -2.20697 0
M  V30 301 H 25.8187 0.17838 -5.17593 0
M  V30 302 H 22.4957 2.18738 -3.55612 0
M  V30 303 H 23.8857 -0.339502 -6.71042 0
M  V30 304 N 26.6058 1.57591 -0.0167156 0
M  V30 305 C 27.8538 1.90906 0.663285 0
M  V30 306 C 28.1748 0.892509 1.73376 0
M  V30 307 O 27.4448 -0.0677623 1.95783 0
M  V30 308 H 26.0248 0.704637 0.247983 0
M  V30 309 H 28.6868 1.94803 -0.0615909 0
M  V30 310 H 27.7828 2.9116 1.12393 0
M  V30 311 N 28.0839 -0.256276 1.55502 0
M  V30 312 C 29.3139 -1.00196 1.80677 0
M  V30 313 C 29.7219 -1.79805 0.588797 0
M  V30 314 O 29.0649 -1.78055 -0.451883 0
M  V30 315 C 29.1269 -1.99515 2.99055 0
M  V30 316 C 28.7909 -1.38688 4.35448 0
M  V30 317 C 29.7879 -0.794079 5.138 0
M  V30 318 C 27.4729 -1.40906 4.82132 0
M  V30 319 C 29.4669 -0.231562 6.36979 0
M  V30 320 C 27.1539 -0.842684 6.05262 0
M  V30 321 C 28.1519 -0.254953 6.82524 0
M  V30 322 O 27.8399 0.3027 8.0333 0
M  V30 323 H 27.5719 -0.300919 0.60533 0
M  V30 324 H 30.1259 -0.287307 2.03381 0
M  V30 325 H 28.3559 -2.74785 2.72084 0
M  V30 326 H 30.0449 -2.60349 3.11405 0
M  V30 327 H 30.8109 -0.769519 4.78856 0
M  V30 328 H 26.6899 -1.85591 4.21992 0
M  V30 329 H 30.2339 0.227816 6.97228 0
M  V30 330 H 26.1309 -0.86454 6.39684 0
M  V30 331 H 26.8989 0.193662 8.18271 0
M  V30 332 N 29.562 -1.4872 -0.521534 0
M  V30 333 C 30.839 -1.4766 -1.2828 0
M  V30 334 C 31.219 -0.19292 -2.10217 0
M  V30 335 O 30.567 0.825193 -2.13079 0
M  V30 336 C 30.777 -2.74358 -2.15705 0
M  V30 337 C 32.125 -3.23028 -2.75569 0
M  V30 338 O 33.149 -2.75333 -2.25987 0
M  V30 339 O 32.008 -4.0604 -3.65778 0
M  V30 340 H 29.102 -0.590085 -0.579421 0
M  V30 341 H 31.648 -1.60963 -0.537492 0
M  V30 342 H 30.42 -3.59292 -1.54999 0
M  V30 343 H 30.043 -2.63816 -2.97467 0
M  V30 344 N 31.0401 0.771051 -1.3745 0
M  V30 345 C 32.0031 1.86598 -1.33093 0
M  V30 346 C 33.0031 1.59076 -0.234845 0
M  V30 347 O 34.1931 1.67145 -0.490732 0
M  V30 348 C 31.3251 3.23747 -1.06773 0
M  V30 349 H 32.5181 1.91873 -2.30488 0
M  V30 350 H 30.0711 0.970876 -1.2249 0
M  V30 351 H 30.8061 3.24148 -0.099129 0
M  V30 352 H 30.5911 3.45115 -1.86112 0
M  V30 353 H 32.0811 4.03824 -1.06377 0
M  V30 354 N 32.5182 1.22032 0.997298 0
M  V30 355 C 33.7482 1.06686 1.76923 0
M  V30 356 C 34.1562 -0.385838 1.85224 0
M  V30 357 O 33.4992 -1.27929 1.31833 0
M  V30 358 C 33.5612 1.59802 3.22031 0
M  V30 359 C 33.2252 3.08362 3.37286 0
M  V30 360 C 34.2222 4.05835 3.24952 0
M  V30 361 C 31.9072 3.47727 3.6248 0
M  V30 362 C 33.9012 5.4066 3.37588 0
M  V30 363 C 31.5882 4.82701 3.74757 0
M  V30 364 C 32.5862 5.78977 3.62319 0
M  V30 365 O 32.2742 7.11502 3.74193 0
M  V30 366 H 32.0062 0.374767 0.562606 0
M  V30 367 H 34.5602 1.61991 1.26286 0
M  V30 368 H 32.7902 0.989003 3.73839 0
M  V30 369 H 34.4792 1.40184 3.80924 0
M  V30 370 H 35.2452 3.76766 3.05405 0
M  V30 371 H 31.1242 2.73317 3.7124 0
M  V30 372 H 34.6682 6.15788 3.27796 0
M  V30 373 H 30.5652 5.11453 3.9381 0
M  V30 374 H 31.3332 7.19019 3.91093 0
M  V30 375 N 33.9963 -1.19345 1.0293 0
M  V30 376 C 35.2433 -1.89038 0.726008 0
M  V30 377 C 35.5713 -1.79649 -0.745427 0
M  V30 378 O 34.8263 -1.18354 -1.55855 0
M  V30 379 C 35.1253 -3.39292 1.12319 0
M  V30 380 C 34.7913 -3.68885 2.59297 0
M  V30 381 C 33.4533 -3.76671 2.99453 0
M  V30 382 C 35.8053 -3.82178 3.54386 0
M  V30 383 C 33.1333 -3.9522 4.33611 0
M  V30 384 C 35.4853 -4.0224 4.88248 0
M  V30 385 C 34.1493 -4.08259 5.28092 0
M  V30 386 H 33.4193 -0.691739 0.265665 0
M  V30 387 H 36.0663 -1.41328 1.29223 0
M  V30 388 H 34.3713 -3.88903 0.475584 0
M  V30 389 H 36.0683 -3.91536 0.866037 0
M  V30 390 H 32.6583 -3.63433 2.27189 0
M  V30 391 H 36.8423 -3.75505 3.24514 0
M  V30 392 H 32.0983 -3.98119 4.64016 0
M  V30 393 H 36.2723 -4.11468 5.61843 0
M  V30 394 H 33.8993 -4.22384 6.32057 0
M  V30 395 N 35.4744 -0.807222 -1.35358 0
M  V30 396 C 36.7204 -0.388463 -1.99045 0
M  V30 397 C 37.0534 1.04184 -1.63888 0
M  V30 398 O 36.3284 1.72292 -0.902535 0
M  V30 399 C 36.6114 -0.572783 -3.55515 0
M  V30 400 C 36.4644 -2.04807 -4.00468 0
M  V30 401 C 37.7834 0.00114064 -4.401 0
M  V30 402 H 34.9024 -0.142619 -0.723069 0
M  V30 403 H 37.5444 -1.01687 -1.60498 0
M  V30 404 H 35.6944 -0.0378425 -3.88482 0
M  V30 405 H 37.3664 -2.64544 -3.77908 0
M  V30 406 H 35.6094 -2.54427 -3.51353 0
M  V30 407 H 36.2804 -2.12792 -5.09337 0
M  V30 408 H 38.7564 -0.455716 -4.13597 0
M  V30 409 H 37.6324 -0.157737 -5.48673 0
M  V30 410 H 37.8934 1.09488 -4.28328 0
M  V30 411 N 36.9525 1.47285 -0.560781 0
M  V30 412 C 38.2005 2.02064 -0.0379868 0
M  V30 413 C 38.5215 1.43711 1.31803 0
M  V30 414 O 37.7915 0.61362 1.86042 0
M  V30 415 H 36.3715 0.746918 -0.0110531 0
M  V30 416 H 39.0335 1.80648 -0.731598 0
M  V30 417 H 38.1295 3.12064 0.0474463 0
M  V30 418 N 38.4306 0.297415 1.54768 0
M  V30 419 C 39.6786 -0.312295 1.99673 0
M  V30 420 C 39.9996 -1.54686 1.18732 0
M  V30 421 O 39.2696 -1.93854 0.282382 0
M  V30 422 H 37.8496 -0.118381 0.73756 0
M  V30 423 H 40.5116 0.407915 1.90583 0
M  V30 424 H 39.6076 -0.586813 3.06534 0
M  V30 425 N 39.9087 -1.5758 0.0250728 0
M  V30 426 C 40.8717 -2.08896 -0.943139 0
M  V30 427 C 41.8717 -1.00321 -1.25668 0
M  V30 428 O 43.0617 -1.26495 -1.19769 0
M  V30 429 C 40.1937 -2.55143 -2.26086 0
M  V30 430 H 41.3867 -2.95723 -0.498775 0
M  V30 431 H 38.9397 -1.54703 -0.222888 0
M  V30 432 H 39.6747 -1.71633 -2.75159 0
M  V30 433 H 39.4597 -3.34461 -2.04641 0
M  V30 434 H 40.9497 -2.95083 -2.95492 0
M  V30 435 N 41.3868 0.248026 -1.55636 0
M  V30 436 C 42.6328 0.97767 -1.77678 0
M  V30 437 C 42.9658 1.85016 -0.590135 0
M  V30 438 O 42.2408 1.90095 0.411611 0
M  V30 439 C 42.5238 1.83914 -3.09593 0
M  V30 440 C 42.3768 0.99491 -4.38659 0
M  V30 441 C 43.6958 2.82183 -3.37729 0
M  V30 442 H 40.8148 0.354005 -0.646413 0
M  V30 443 H 43.4568 0.248253 -1.88371 0
M  V30 444 H 41.6068 2.46104 -3.00608 0
M  V30 445 H 43.2788 0.391789 -4.59633 0
M  V30 446 H 41.5218 0.299231 -4.32767 0
M  V30 447 H 42.1928 1.63145 -5.2734 0
M  V30 448 H 44.6688 2.30129 -3.4667 0
M  V30 449 H 43.5448 3.39582 -4.31249 0
M  V30 450 H 43.8058 3.58588 -2.58586 0
M  V30 451 N 42.8649 1.48995 0.513639 0
M  V30 452 C 44.2809 1.35478 0.843682 0
M  V30 453 C 44.4809 0.378213 1.97919 0
M  V30 454 O 43.5369 -0.194689 2.51748 0
M  V30 455 C 44.8499 2.75901 1.1958 0
M  V30 456 C 46.3979 2.84509 1.30474 0
M  V30 457 C 46.8729 4.25671 1.69021 0
M  V30 458 N 48.3639 4.28422 1.76094 0
M  V30 459 C 49.0989 5.34601 2.07338 0
M  V30 460 N 48.5949 6.5104 2.36894 0
M  V30 461 N 50.3879 5.22007 2.08483 0
M  V30 462 H 42.5389 2.11092 -0.235328 0
M  V30 463 H 44.8019 0.947039 -0.0426669 0
M  V30 464 H 44.5079 3.49001 0.434913 0
M  V30 465 H 44.3819 3.10467 2.1422 0
M  V30 466 H 46.7689 2.11655 2.05637 0
M  V30 467 H 46.8499 2.53542 0.339155 0
M  V30 468 H 46.4939 4.99048 0.944135 0
M  V30 469 H 46.4239 4.54094 2.66658 0
M  V30 470 H 48.9149 3.44441 1.55464 0
M  V30 471 H 49.2279 7.2779 2.59887 0
M  V30 472 H 47.5729 6.54287 2.34378 0
M  V30 473 H 50.7639 4.30051 1.84861 0
M  V30 474 H 50.9369 6.04854 2.325 0
M  V30 475 N 44.343 -0.763751 1.37857 0
M  V30 476 C 45.62 -1.51244 1.24035 0
M  V30 477 C 46 -2.10472 -0.162649 0
M  V30 478 O 45.348 -1.96206 -1.17112 0
M  V30 479 C 45.558 -2.58694 2.34261 0
M  V30 480 C 46.906 -3.25878 2.72193 0
M  V30 481 O 47.93 -2.68993 2.33497 0
M  V30 482 O 46.789 -4.2874 3.38887 0
M  V30 483 H 43.883 -0.670243 0.484462 0
M  V30 484 H 46.429 -0.800031 1.49658 0
M  V30 485 H 45.201 -2.13105 3.2818 0
M  V30 486 H 44.824 -3.37527 2.10146 0
M  V30 487 N 45.8211 -1.22559 -0.990812 0
M  V30 488 C 46.7511 -1.0218 -2.09956 0
M  V30 489 C 47.7321 0.0579394 -1.70001 0
M  V30 490 O 48.9171 -0.104684 -1.93918 0
M  V30 491 C 46.0471 -0.601023 -3.4206 0
M  V30 492 C 45.0011 -1.62694 -3.95872 0
M  V30 493 C 44.3271 -1.06193 -5.24049 0
M  V30 494 C 45.6271 -3.01743 -4.2632 0
M  V30 495 H 47.3211 -1.94916 -2.27262 0
M  V30 496 H 44.8671 -0.938566 -1.09211 0
M  V30 497 H 46.8201 -0.445561 -4.19038 0
M  V30 498 H 45.5441 0.362005 -3.24588 0
M  V30 499 H 44.2031 -1.77021 -3.21028 0
M  V30 500 H 43.8511 -0.0901903 -5.02919 0
M  V30 501 H 43.5511 -1.74732 -5.61019 0
M  V30 502 H 45.0751 -0.918092 -6.03658 0
M  V30 503 H 46.4891 -2.90777 -4.94087 0
M  V30 504 H 44.8861 -3.67425 -4.74467 0
M  V30 505 H 45.9561 -3.51518 -3.34011 0
M  V30 506 N 47.2992 1.18797 -1.03562 0
M  V30 507 C 48.2292 2.24472 -0.643019 0
M  V30 508 C 49.2102 1.66433 0.351283 0
M  V30 509 O 50.3952 1.92803 0.232505 0
M  V30 510 C 47.5252 3.473 4.24935e-05 0
M  V30 511 C 46.4792 4.18055 -0.917257 0
M  V30 512 C 45.8052 5.34519 -0.138941 0
M  V30 513 C 47.1052 4.72109 -2.23407 0
M  V30 514 H 48.7992 2.57566 -1.52643 0
M  V30 515 H 46.3452 1.23806 -0.735394 0
M  V30 516 H 48.2982 4.20426 0.286383 0
M  V30 517 H 47.0222 3.13424 0.918299 0
M  V30 518 H 45.6812 3.46821 -1.1879 0
M  V30 519 H 45.3292 4.96891 0.781562 0
M  V30 520 H 45.0292 5.82794 -0.750005 0
M  V30 521 H 46.5532 6.10438 0.1405 0
M  V30 522 H 47.9672 5.36955 -2.00879 0
M  V30 523 H 46.3642 5.30897 -2.79765 0
M  V30 524 H 47.4342 3.89807 -2.88407 0
M  V30 525 N 48.7773 0.814389 1.34928 0
M  V30 526 C 49.7073 0.244827 2.32213 0
M  V30 527 C 50.6883 -0.634024 1.57842 0
M  V30 528 O 51.8733 -0.562676 1.8587 0
M  V30 529 C 49.0033 -0.601106 3.42058 0
M  V30 530 C 47.9573 0.179896 4.27622 0
M  V30 531 C 47.2833 -0.788237 5.28858 0
M  V30 532 C 48.5833 1.38329 5.03649 0
M  V30 533 H 50.2773 1.05763 2.80097 0
M  V30 534 H 47.8233 0.510029 1.34665 0
M  V30 535 H 49.7763 -1.00968 4.09125 0
M  V30 536 H 48.5003 -1.44688 2.92802 0
M  V30 537 H 47.1593 0.569739 3.62146 0
M  V30 538 H 46.8073 -1.62973 4.75866 0
M  V30 539 H 46.5073 -0.269942 5.8698 0
M  V30 540 H 48.0313 -1.19485 5.98795 0
M  V30 541 H 49.4453 1.04918 5.63618 0
M  V30 542 H 47.8423 1.83662 5.71304 0
M  V30 543 H 48.9123 2.16592 4.33839 0
M  V30 544 N 50.2554 -1.46986 0.568584 0
M  V30 545 C 51.5034 -2.02041 0.0487022 0
M  V30 546 C 51.8244 -1.44408 -1.31039 0
M  V30 547 O 51.0944 -0.623477 -1.85714 0
M  V30 548 H 49.6744 -0.746849 0.015014 0
M  V30 549 H 52.3364 -1.80257 0.741168 0
M  V30 550 H 51.4324 -3.12085 -0.0308961 0
M  V30 551 N 51.7335 -0.305618 -1.54608 0
M  V30 552 C 53.1495 0.0476228 -1.59529 0
M  V30 553 C 53.3495 1.52025 -1.32252 0
M  V30 554 O 52.4055 2.27368 -1.09818 0
M  V30 555 C 53.7185 -0.354471 -2.98603 0
M  V30 556 C 55.2665 -0.303622 -3.11524 0
M  V30 557 C 55.7415 -0.680608 -4.52915 0
M  V30 558 N 57.2325 -0.63332 -4.5885 0
M  V30 559 C 57.9675 -0.897432 -5.66334 0
M  V30 560 N 57.4635 -1.22775 -6.81834 0
M  V30 561 N 59.2565 -0.824186 -5.56025 0
M  V30 562 H 51.4075 -1.2653 -1.70599 0
M  V30 563 H 53.6705 -0.513291 -0.797017 0
M  V30 564 H 53.3765 -1.3798 -3.23503 0
M  V30 565 H 53.2505 0.289568 -3.76087 0
M  V30 566 H 55.6375 0.712472 -2.8637 0
M  V30 567 H 55.7185 -0.982348 -2.36185 0
M  V30 568 H 55.3625 -1.69453 -4.78799 0
M  V30 569 H 55.2925 0.0202385 -5.26596 0
M  V30 570 H 57.7835 -0.389138 -3.75891 0
M  V30 571 H 58.0965 -1.41513 -7.59733 0
M  V30 572 H 56.4415 -1.26583 -6.83375 0
M  V30 573 H 59.6325 -0.565748 -4.64669 0
M  V30 574 H 59.8055 -1.03338 -6.39707 0
M  V30 575 N 53.2116 1.57565 -0.0334293 0
M  V30 576 C 54.6226 1.79746 0.504798 0
M  V30 577 C 54.9736 0.944091 1.71992 0
M  V30 578 O 54.0986 0.155694 2.15839 0
M  V30 579 C 54.6936 3.25997 0.922567 0
M  V30 580 C 53.2526 3.49159 1.40588 0
M  V30 581 C 52.3996 2.74785 0.372633 0
M  V30 582 H 55.3506 1.56565 -0.259436 0
M  V30 583 H 55.3716 3.35945 1.78666 0
M  V30 584 H 54.8836 3.88081 0.0379825 0
M  V30 585 H 52.9846 2.92332 2.31025 0
M  V30 586 H 53.0976 4.57873 1.41028 0
M  V30 587 H 51.4616 2.40391 0.841672 0
M  V30 588 H 52.2446 3.39587 -0.503559 0
M  V30 589 N 54.6897 -0.239769 1.55765 0
M  V30 590 C 55.9387 -0.964754 1.77131 0
M  V30 591 C 56.2517 -1.86213 0.59868 0
M  V30 592 O 57.4577 -2.6244 0.695522 0
M  V30 593 C 55.9137 -1.76552 3.1362 0
M  V30 594 C 55.5217 -0.915185 4.38553 0
M  V30 595 C 57.2657 -2.48281 3.44321 0
M  V30 596 C 55.1727 -1.71225 5.66071 0
M  V30 597 H 54.1027 -0.363953 0.660344 0
M  V30 598 H 56.7537 -0.219181 1.82186 0
M  V30 599 H 55.1357 -2.55331 3.02691 0
M  V30 600 H 56.3097 -0.169217 4.60489 0
M  V30 601 H 54.6247 -0.310889 4.15238 0
M  V30 602 H 57.2217 -3.08382 4.36812 0
M  V30 603 H 57.5647 -3.20256 2.65973 0
M  V30 604 H 58.0977 -1.76507 3.56497 0
M  V30 605 H 54.8367 -1.03612 6.4726 0
M  V30 606 H 54.3567 -2.43331 5.48224 0
M  V30 607 H 56.0357 -2.27758 6.05587 0
M  V30 608 N 56.1678 -1.49265 -0.50573 0
M  V30 609 C 57.4158 -1.582 -1.25766 0
M  V30 610 C 57.7368 -0.268482 -1.93143 0
M  V30 611 O 57.0068 0.711833 -1.8251 0
M  V30 612 H 55.5868 -0.582873 -0.467191 0
M  V30 613 H 58.2488 -1.85865 -0.586525 0
M  V30 614 H 57.3448 -2.37563 -2.02412 0
M  V30 615 N 57.6459 0.756429 -1.3826 0
M  V30 616 C 58.9229 1.50584 -1.24835 0
M  V30 617 C 59.3029 2.10556 0.151485 0
M  V30 618 O 58.6509 1.96825 1.1607 0
M  V30 619 C 58.8609 2.57448 -2.3563 0
M  V30 620 C 60.2089 3.24429 -2.73917 0
M  V30 621 O 61.2329 2.67751 -2.34921 0
M  V30 622 O 60.0919 4.26937 -3.41156 0
M  V30 623 H 57.1859 0.667664 -0.48801 0
M  V30 624 H 59.7319 0.792083 -1.5008 0
M  V30 625 H 58.5039 2.11362 -3.29305 0
M  V30 626 H 58.1269 3.36408 -2.11933 0
M  V30 627 N 59.124 1.23083 0.984299 0
M  V30 628 C 60.37 1.06214 1.72761 0
M  V30 629 C 60.703 -0.400584 1.90024 0
M  V30 630 O 59.978 -1.29672 1.44967 0
M  V30 631 C 60.261 1.78375 3.12817 0
M  V30 632 C 60.114 3.32296 3.03149 0
M  V30 633 C 61.433 1.54309 4.12161 0
M  V30 634 H 58.552 0.387251 0.627061 0
M  V30 635 H 61.194 1.51536 1.14616 0
M  V30 636 H 59.344 1.39848 3.62457 0
M  V30 637 H 61.016 3.8032 2.61064 0
M  V30 638 H 59.259 3.6153 2.39747 0
M  V30 639 H 59.93 3.77972 4.02295 0
M  V30 640 H 62.406 1.87791 3.71314 0
M  V30 641 H 61.282 2.07281 5.08258 0
M  V30 642 H 61.543 0.477572 4.39513 0
M  V30 643 N 60.6021 -1.18246 1.0419 0
M  V30 644 C 61.8791 -1.84121 0.660208 0
M  V30 645 C 62.2591 -1.92778 -0.860221 0
M  V30 646 O 61.6071 -1.45464 -1.76217 0
M  V30 647 C 61.8171 -3.22355 1.33747 0
M  V30 648 C 63.1651 -3.98376 1.46906 0
M  V30 649 O 64.1891 -3.31799 1.29568 0
M  V30 650 O 63.0481 -5.17665 1.75171 0
M  V30 651 H 60.1421 -0.794036 0.231161 0
M  V30 652 H 62.6881 -1.25628 1.14087 0
M  V30 653 H 61.4601 -3.10964 2.37522 0
M  V30 654 H 61.0831 -3.88506 0.845515 0
M  V30 655 N 62.0802 -0.821533 -1.34494 0
M  V30 656 C 63.3292 -0.405355 -1.97585 0
M  V30 657 C 63.6422 1.03677 -1.65863 0
M  V30 658 O 64.8482 1.55679 -2.22433 0
M  V30 659 C 63.3042 -0.673861 -3.53535 0
M  V30 660 C 62.9122 -2.12951 -3.94152 0
M  V30 661 C 64.6562 -0.32378 -4.23263 0
M  V30 662 C 62.5632 -2.34298 -5.43009 0
M  V30 663 H 61.4932 -0.147836 -0.739365 0
M  V30 664 H 64.1442 -1.00769 -1.53355 0
M  V30 665 H 62.5262 -0.00137554 -3.96 0
M  V30 666 H 63.7002 -2.84104 -3.62797 0
M  V30 667 H 62.0152 -2.44089 -3.37356 0
M  V30 668 H 64.6122 -0.461126 -5.32708 0
M  V30 669 H 64.9552 0.731586 -4.09821 0
M  V30 670 H 65.4882 -0.950786 -3.8627 0
M  V30 671 H 62.2272 -3.38335 -5.61435 0
M  V30 672 H 61.7472 -1.67687 -5.75883 0
M  V30 673 H 63.4262 -2.16588 -6.09671 0
M  V30 674 N 63.5583 1.46682 -0.576371 0
M  V30 675 C 64.5213 2.28707 0.150239 0
M  V30 676 C 65.5213 1.38035 0.824794 0
M  V30 677 O 66.7113 1.60476 0.677719 0
M  V30 678 C 63.8433 3.18248 1.22192 0
M  V30 679 H 65.0363 2.94423 -0.570521 0
M  V30 680 H 62.5893 1.52688 -0.334078 0
M  V30 681 H 63.3243 2.57265 1.97447 0
M  V30 682 H 63.1093 3.85 0.742812 0
M  V30 683 H 64.5993 3.80001 1.73172 0
M  V30 684 N 65.0364 0.313813 1.54444 0
M  V30 685 C 66.2644 -0.293918 2.04802 0
M  V30 686 C 66.6794 -1.46537 1.19047 0
M  V30 687 O 66.0364 -1.81182 0.218939 0
M  V30 688 C 66.0874 -0.737806 3.53891 0
M  V30 689 O 65.8084 0.387038 4.36387 0
M  V30 690 C 67.3094 -1.40936 4.203 0
M  V30 691 H 64.5294 -0.0620057 0.668129 0
M  V30 692 H 67.0734 0.457169 1.99324 0
M  V30 693 H 65.2284 -1.43889 3.59687 0
M  V30 694 H 65.6424 0.0391274 5.24485 0
M  V30 695 H 67.1164 -1.67099 5.26101 0
M  V30 696 H 67.5934 -2.35355 3.70816 0
M  V30 697 H 68.1994 -0.751117 4.18615 0
M  V30 698 N 66.5145 -1.57545 0.0417849 0
M  V30 699 C 67.7395 -1.97035 -0.647455 0
M  V30 700 C 68.1645 -0.918775 -1.64135 0
M  V30 701 O 67.5225 0.119006 -1.80909 0
M  V30 702 C 67.5705 -3.35609 -1.31905 0
M  V30 703 O 66.6745 -3.3287 -2.43457 0
M  V30 704 H 66.0155 -0.64211 -0.169086 0
M  V30 705 H 68.5455 -2.04318 0.107399 0
M  V30 706 H 68.5555 -3.72126 -1.67291 0
M  V30 707 H 67.2305 -4.11685 -0.590586 0
M  V30 708 H 65.8075 -3.08087 -2.10088 0
M  V30 709 N 67.9926 0.231505 -1.5589 0
M  V30 710 C 68.9556 1.27028 -1.90779 0
M  V30 711 C 69.9556 1.40308 -0.785507 0
M  V30 712 O 71.1456 1.38744 -1.05336 0
M  V30 713 C 68.2776 2.64566 -2.14983 0
M  V30 714 H 69.4706 0.973017 -2.83677 0
M  V30 715 H 67.0236 0.471486 -1.49019 0
M  V30 716 H 67.7586 2.99406 -1.24604 0
M  V30 717 H 67.5436 2.56305 -2.96732 0
M  V30 718 H 69.0336 3.39543 -2.43105 0
M  V30 719 N 69.4707 1.49531 0.497807 0
M  V30 720 C 70.4007 1.6935 1.60757 0
M  V30 721 C 71.3817 0.542218 1.61227 0
M  V30 722 O 72.5667 0.778417 1.77917 0
M  V30 723 C 69.6967 1.76298 2.99226 0
M  V30 724 C 68.6507 2.91248 3.13622 0
M  V30 725 C 67.9767 2.83312 4.53474 0
M  V30 726 C 69.2767 4.3214 2.93346 0
M  V30 727 H 70.9707 2.62263 1.44425 0
M  V30 728 H 68.5167 1.26208 0.693367 0
M  V30 729 H 70.4697 1.88749 3.76765 0
M  V30 730 H 69.1937 0.799871 3.16654 0
M  V30 731 H 67.8527 2.78404 2.38509 0
M  V30 732 H 67.5007 1.84902 4.67782 0
M  V30 733 H 67.2007 3.60465 4.64046 0
M  V30 734 H 68.7247 2.97775 5.33069 0
M  V30 735 H 70.1387 4.45649 3.60652 0
M  V30 736 H 68.5357 5.1054 3.15387 0
M  V30 737 H 69.6057 4.46363 1.89441 0
M  V30 738 N 70.9488 -0.749086 1.3866 0
M  V30 739 C 72.3598 -1.32664 1.31366 0
M  V30 740 C 72.7108 -1.96179 -0.028484 0
M  V30 741 O 71.8358 -1.9537 -0.93057 0
M  V30 742 C 72.4308 -2.41219 2.37905 0
M  V30 743 C 70.9898 -2.94684 2.34176 0
M  V30 744 C 70.1368 -1.68108 2.20533 0
M  V30 745 H 73.0878 -0.547628 1.48952 0
M  V30 746 H 73.1088 -3.21268 2.0388 0
M  V30 747 H 72.6208 -1.94962 3.35576 0
M  V30 748 H 70.7218 -3.45258 1.401 0
M  V30 749 H 70.8348 -3.48757 3.2849 0
M  V30 750 H 69.1988 -1.91907 1.67463 0
M  V30 751 H 69.9818 -1.23923 3.20153 0
M  V30 752 N 72.4269 -1.23603 -0.977757 0
M  V30 753 C 73.3369 -1.03632 -2.1047 0
M  V30 754 C 74.3529 0.0199435 -1.73989 0
M  V30 755 O 75.5289 -0.176076 -2.00629 0
M  V30 756 C 72.5939 -0.63276 -3.40877 0
M  V30 757 C 71.6549 -1.76437 -3.91367 0
M  V30 758 C 70.8879 -1.37997 -5.15551 0
M  V30 759 O 71.1109 -0.265357 -5.69782 0
M  V30 760 O 70.0449 -2.20201 -5.60174 0
M  V30 761 H 73.8709 -1.98086 -2.30208 0
M  V30 762 H 71.4559 -1.02332 -1.08851 0
M  V30 763 H 73.3379 -0.418761 -4.19314 0
M  V30 764 H 72.0129 0.282754 -3.22463 0
M  V30 765 H 70.9199 -2.03304 -3.14036 0
M  V30 766 H 72.2529 -2.6583 -4.14241 0
M  V30 767 N 73.905 1.17692 -1.04816 0
M  V30 768 C 75.182 1.83768 -0.669963 0
M  V30 769 C 75.562 1.93232 0.849986 0
M  V30 770 O 74.91 1.46397 1.75443 0
M  V30 771 C 75.12 3.21641 -1.35455 0
M  V30 772 C 76.468 3.97592 -1.49017 0
M  V30 773 O 77.492 3.31107 -1.31326 0
M  V30 774 O 76.351 5.16729 -1.77914 0
M  V30 775 H 73.445 0.792799 -0.235368 0
M  V30 776 H 75.991 1.25021 -1.14751 0
M  V30 777 H 74.763 3.097 -2.39168 0
M  V30 778 H 74.386 3.88052 -0.866107 0
M  V30 779 N 75.3831 0.828654 1.34056 0
M  V30 780 C 76.6291 0.42008 1.98402 0
M  V30 781 C 76.9621 -1.01564 1.65525 0
M  V30 782 O 76.2371 -1.70834 0.929831 0
M  V30 783 C 76.5201 0.62927 3.54559 0
M  V30 784 C 76.3731 2.11152 3.97159 0
M  V30 785 C 77.6921 0.0688756 4.40046 0
M  V30 786 H 74.8111 0.154104 0.720709 0
M  V30 787 H 77.4531 1.04228 1.5886 0
M  V30 788 H 75.6031 0.0996418 3.88372 0
M  V30 789 H 77.2751 2.70522 3.73651 0
M  V30 790 H 75.5181 2.59985 3.47261 0
M  V30 791 H 76.1891 2.20868 5.05887 0
M  V30 792 H 78.6651 0.521458 4.1282 0
M  V30 793 H 77.5411 0.245006 5.48353 0
M  V30 794 H 77.8021 -1.0266 4.30015 0
M  V30 795 N 76.8612 -1.46375 0.584142 0
M  V30 796 C 77.7942 -2.27351 -0.196676 0
M  V30 797 C 78.7722 -1.35715 -0.895561 0
M  V30 798 O 79.9562 -1.65126 -0.90916 0
M  V30 799 C 77.0832 -3.13486 -1.28235 0
M  V30 800 C 76.1292 -4.20896 -0.689145 0
M  V30 801 S 76.9622 -5.33299 0.48507 0
M  V30 802 C 78.1182 -6.23 -0.601767 0
M  V30 803 H 78.3512 -2.93228 0.490395 0
M  V30 804 H 75.8842 -1.49875 0.371071 0
M  V30 805 H 77.8422 -3.63676 -1.90395 0
M  V30 806 H 76.5032 -2.4692 -1.94138 0
M  V30 807 H 75.6962 -4.80997 -1.50527 0
M  V30 808 H 75.2982 -3.73726 -0.143181 0
M  V30 809 H 77.5902 -6.60979 -1.48705 0
M  V30 810 H 78.5332 -7.0809 -0.0374799 0
M  V30 811 H 78.9412 -5.57173 -0.906557 0
M  V30 812 N 78.3393 -0.321999 -1.54275 0
M  V30 813 C 79.3023 0.531975 -2.22941 0
M  V30 814 C 80.3023 1.04478 -1.22234 0
M  V30 815 O 81.4923 0.937452 -1.46825 0
M  V30 816 C 78.6243 1.73874 -2.93224 0
M  V30 817 H 79.8173 -0.0682612 -2.99822 0
M  V30 818 H 77.3703 -0.0730644 -1.56129 0
M  V30 819 H 78.1053 2.37825 -2.20476 0
M  V30 820 H 77.8903 1.37847 -3.6707 0
M  V30 821 H 79.3803 2.34496 -3.45545 0
M  V30 822 N 79.8174 1.5752 -0.0501392 0
M  V30 823 C 81.0664 1.91827 0.623328 0
M  V30 824 C 81.3794 0.930222 1.72065 0
M  V30 825 O 82.5854 1.1653 2.4522 0
M  V30 826 C 81.0414 3.40692 1.16003 0
M  V30 827 C 80.6494 4.479 0.0948811 0
M  V30 828 C 82.3934 3.84034 1.80881 0
M  V30 829 C 80.3004 5.87879 0.644411 0
M  V30 830 H 79.2304 0.715918 0.236596 0
M  V30 831 H 81.8814 1.83115 -0.118861 0
M  V30 832 H 80.2634 3.44405 1.9545 0
M  V30 833 H 81.4374 4.55775 -0.678675 0
M  V30 834 H 79.7524 4.13892 -0.45637 0
M  V30 835 H 82.3494 4.85984 2.22988 0
M  V30 836 H 82.6924 3.20225 2.6601 0
M  V30 837 H 83.2254 3.82833 1.0809 0
M  V30 838 H 79.9644 6.55282 -0.169229 0
M  V30 839 H 79.4844 5.83567 1.38598 0
M  V30 840 H 81.1634 6.37098 1.12763 0
M  V30 841 N 81.2955 -0.223234 1.56011 0
M  V30 842 C 82.5425 -0.947875 1.78946 0
M  V30 843 C 82.8705 -1.844 0.618608 0
M  V30 844 O 82.1255 -1.91629 -0.397093 0
M  V30 845 C 82.4245 -1.81948 3.0762 0
M  V30 846 C 82.0905 -1.07672 4.37856 0
M  V30 847 C 80.7525 -0.871544 4.73242 0
M  V30 848 C 83.1045 -0.552081 5.18268 0
M  V30 849 C 80.4325 -0.129791 5.86556 0
M  V30 850 C 82.7845 0.17632 6.32354 0
M  V30 851 C 81.4485 0.39277 6.66343 0
M  V30 852 H 80.7185 -0.346852 0.654809 0
M  V30 853 H 83.3655 -0.216171 1.90276 0
M  V30 854 H 81.6705 -2.61899 2.91404 0
M  V30 855 H 83.3675 -2.38227 3.22566 0
M  V30 856 H 79.9575 -1.24662 4.1007 0
M  V30 857 H 84.1415 -0.698076 4.91366 0
M  V30 858 H 79.3975 0.048153 6.11381 0
M  V30 859 H 83.5715 0.590367 6.93893 0
M  V30 860 H 81.1985 0.969466 7.53993 0
M  V30 861 N 82.7736 -1.49793 -0.48987 0
M  V30 862 C 84.1846 -1.52914 -1.07118 0
M  V30 863 C 84.5356 -0.321738 -1.93544 0
M  V30 864 O 83.6606 0.567338 -2.08831 0
M  V30 865 C 84.2556 -2.771 -1.94938 0
M  V30 866 C 82.8146 -2.82963 -2.48212 0
M  V30 867 C 81.9616 -2.46972 -1.26096 0
M  V30 868 H 84.9126 -1.56329 -0.273289 0
M  V30 869 H 84.9336 -2.57892 -2.79771 0
M  V30 870 H 84.4456 -3.64959 -1.32009 0
M  V30 871 H 82.5466 -1.99411 -3.14748 0
M  V30 872 H 82.6596 -3.85406 -2.84603 0
M  V30 873 H 81.0236 -1.98994 -1.58976 0
M  V30 874 H 81.8066 -3.37118 -0.648581 0
M  V30 875 N 84.2517 0.741722 -1.39055 0
M  V30 876 C 85.1987 1.85566 -1.37237 0
M  V30 877 C 86.1687 1.64457 -0.233072 0
M  V30 878 O 87.3537 1.85957 -0.427147 0
M  V30 879 C 84.4937 3.23004 -1.215 0
M  V30 880 C 83.6067 3.55864 -2.44918 0
M  V30 881 C 82.7417 4.82669 -2.21821 0
M  V30 882 C 81.7807 5.08351 -3.40948 0
M  V30 883 N 80.9177 6.26356 -3.17211 0
M  V30 884 H 85.7577 1.86455 -2.32462 0
M  V30 885 H 83.2947 0.911176 -1.15482 0
M  V30 886 H 85.2527 4.02331 -1.10389 0
M  V30 887 H 83.8827 3.21411 -0.29908 0
M  V30 888 H 82.9347 2.7129 -2.66657 0
M  V30 889 H 84.2467 3.70765 -3.33668 0
M  V30 890 H 83.4007 5.69962 -2.07914 0
M  V30 891 H 82.1397 4.69929 -1.30454 0
M  V30 892 H 81.1447 4.19522 -3.55361 0
M  V30 893 H 82.3697 5.22981 -4.33207 0
M  V30 894 H 80.3157 6.14917 -2.28502 0
M  V30 895 H 80.2327 6.41813 -3.99515 0
M  V30 896 H 81.5007 7.16506 -3.06984 0
M  V30 897 N 85.7298 1.2412 0.971189 0
M  V30 898 C 86.9578 1.10575 1.74874 0
M  V30 899 C 87.3728 -0.342017 1.85676 0
M  V30 900 O 86.7298 -1.23617 1.34258 0
M  V30 901 C 86.7808 1.73579 3.171 0
M  V30 902 O 86.5018 3.12695 3.06844 0
M  V30 903 C 88.0028 1.65598 4.11208 0
M  V30 904 H 85.2228 0.386504 0.548503 0
M  V30 905 H 87.7668 1.64156 1.21955 0
M  V30 906 H 85.9218 1.24009 3.67016 0
M  V30 907 H 86.3358 3.43412 3.96445 0
M  V30 908 H 87.8098 2.1437 5.08674 0
M  V30 909 H 88.2868 0.616532 4.34851 0
M  V30 910 H 88.8928 2.14578 3.67201 0
M  V30 911 N 87.2079 -1.17134 1.05439 0
M  V30 912 C 88.4569 -1.86791 0.761049 0
M  V30 913 C 88.7699 -1.82072 -0.714795 0
M  V30 914 O 89.9759 -2.47223 -1.12218 0
M  V30 915 C 88.4319 -3.35166 1.31117 0
M  V30 916 C 88.0399 -3.48381 2.81664 0
M  V30 917 C 89.7839 -4.10134 1.09499 0
M  V30 918 C 87.6909 -4.90793 3.29964 0
M  V30 919 H 86.6209 -0.699681 0.281002 0
M  V30 920 H 89.2719 -1.3226 1.27199 0
M  V30 921 H 87.6539 -3.8925 0.72803 0
M  V30 922 H 88.8279 -3.04502 3.45855 0
M  V30 923 H 87.1429 -2.86836 3.01851 0
M  V30 924 H 89.7399 -5.152 1.43084 0
M  V30 925 H 90.0829 -4.16287 0.0328772 0
M  V30 926 H 90.6159 -3.62264 1.64346 0
M  V30 927 H 87.3549 -4.89816 4.35616 0
M  V30 928 H 86.8749 -5.35333 2.70516 0
M  V30 929 H 88.5539 -5.59573 3.24787 0
M  V30 930 N 88.686 -0.835752 -1.33615 0
M  V30 931 C 89.963 -0.352017 -1.92406 0
M  V30 932 C 90.343 1.16225 -1.76224 0
M  V30 933 O 89.691 1.97526 -1.14873 0
M  V30 934 C 89.901 -0.795485 -3.39813 0
M  V30 935 C 91.249 -0.801703 -4.16963 0
M  V30 936 O 92.273 -0.738889 -3.48452 0
M  V30 937 O 91.132 -0.886607 -5.3926 0
M  V30 938 H 88.226 -0.0989641 -0.821057 0
M  V30 939 H 90.772 -0.921397 -1.42507 0
M  V30 940 H 89.544 -1.83795 -3.45449 0
M  V30 941 H 89.167 -0.202505 -3.97084 0
M  V30 942 N 90.1641 1.46063 -0.591896 0
M  V30 943 C 91.4101 2.02638 -0.0811191 0
M  V30 944 C 91.7431 1.4613 1.27905 0
M  V30 945 O 91.0181 0.629908 1.84017 0
M  V30 946 C 91.3011 3.60091 -0.0252436 0
M  V30 947 C 91.1541 4.26965 -1.41496 0
M  V30 948 C 92.4731 4.3496 0.670685 0
M  V30 949 H 89.5921 0.73635 -0.0309524 0
M  V30 950 H 92.2341 1.741 -0.760859 0
M  V30 951 H 90.3841 3.84535 0.553624 0
M  V30 952 H 92.0561 4.13756 -2.0397 0
M  V30 953 H 90.2991 3.85971 -1.98011 0
M  V30 954 H 90.9701 5.35781 -1.32825 0
M  V30 955 H 93.4461 4.15716 0.178825 0
M  V30 956 H 92.3221 5.44686 0.678837 0
M  V30 957 H 92.5831 4.06685 1.73379 0
M  V30 958 N 91.6422 0.330177 1.54103 0
M  V30 959 C 92.8902 -0.269871 2.0029 0
M  V30 960 C 93.2112 -1.52133 1.21986 0
M  V30 961 O 92.4812 -1.93212 0.323438 0
M  V30 962 H 91.0612 -0.10271 0.739905 0
M  V30 963 H 93.7232 0.448249 1.89675 0
M  V30 964 H 92.8192 -0.52166 3.07709 0
M  V30 965 N 93.1203 -1.57491 0.0584922 0
M  V30 966 C 94.3453 -1.97711 -0.62652 0
M  V30 967 C 94.7703 -0.936132 -1.63151 0
M  V30 968 O 94.1283 0.099811 -1.81025 0
M  V30 969 C 94.1763 -3.36989 -1.28338 0
M  V30 970 O 93.2803 -3.35433 -2.39913 0
M  V30 971 H 92.6213 -0.643868 -0.162266 0
M  V30 972 H 95.1513 -2.04193 0.129064 0
M  V30 973 H 95.1613 -3.73879 -1.63335 0
M  V30 974 H 93.8363 -4.12289 -0.546889 0
M  V30 975 H 92.4133 -3.10298 -2.06809 0
M  V30 976 N 94.5984 0.214957 -1.56127 0
M  V30 977 C 95.5454 1.26642 -1.92952 0
M  V30 978 C 96.5154 1.46244 -0.78753 0
M  V30 979 O 97.7004 1.59704 -1.04399 0
M  V30 980 C 94.8404 2.6104 -2.25726 0
M  V30 981 C 93.9534 2.49183 -3.52891 0
M  V30 982 C 93.0884 3.76149 -3.7508 0
M  V30 983 C 92.1274 3.59041 -4.95738 0
M  V30 984 N 91.2644 4.77972 -5.14283 0
M  V30 985 H 96.1044 0.945384 -2.82607 0
M  V30 986 H 93.6414 0.455489 -1.3987 0
M  V30 987 H 95.5994 3.39313 -2.42739 0
M  V30 988 H 94.2294 2.91227 -1.39236 0
M  V30 989 H 93.2814 1.6231 -3.44034 0
M  V30 990 H 94.5934 2.32466 -4.41318 0
M  V30 991 H 93.7474 4.62865 -3.92226 0
M  V30 992 H 92.4864 3.95799 -2.84947 0
M  V30 993 H 91.4914 2.7071 -4.78535 0
M  V30 994 H 92.7164 3.40856 -5.87362 0
M  V30 995 H 90.6624 4.97923 -4.27093 0
M  V30 996 H 90.5794 4.64006 -5.96853 0
M  V30 997 H 91.8474 5.66096 -5.35869 0
M  V30 998 N 96.0765 1.50051 0.48192 0
M  V30 999 C 97.0265 1.64512 1.5786 0
M  V30 1000 C 98.0105 0.500073 1.52932 0
M  V30 1001 O 99.2025 0.753964 1.60139 0
M  V30 1002 C 96.3315 1.73263 2.9637 0
M  V30 1003 C 95.4175 2.93409 3.06222 0
M  V30 1004 N 95.8085 4.17236 2.85915 0
M  V30 1005 C 94.1065 2.91742 3.37346 0
M  V30 1006 C 94.8075 4.981 3.00451 0
M  V30 1007 N 93.7835 4.3184 3.30174 0
M  V30 1008 H 97.5855 2.57955 1.40842 0
M  V30 1009 H 95.0995 1.47086 0.688439 0
M  V30 1010 H 97.0965 1.81724 3.75209 0
M  V30 1011 H 95.7565 0.809711 3.14442 0
M  V30 1012 H 96.7675 4.46909 2.6171 0
M  V30 1013 H 93.4445 2.08907 3.61475 0
M  V30 1014 H 94.8345 6.06532 2.89082 0
M  V30 1015 N 97.5546 -0.734337 1.39446 0
M  V30 1016 C 98.8026 -1.49096 1.36436 0
M  V30 1017 C 99.1236 -1.94961 -0.0388255 0
M  V30 1018 O 98.3936 -1.69033 -0.990191 0
M  V30 1019 H 96.9736 -0.5531 0.502085 0
M  V30 1020 H 99.6356 -0.871725 1.74319 0
M  V30 1021 H 98.7316 -2.37276 2.02747 0
M  V30 1022 N 99.0327 -1.24633 -0.964593 0
M  V30 1023 C 100.261 -1.11501 -1.74285 0
M  V30 1024 C 100.676 0.332165 -1.85855 0
M  V30 1025 O 100.033 1.22903 -1.34911 0
M  V30 1026 C 100.084 -1.75258 -3.16175 0
M  V30 1027 O 99.8047 -3.14318 -3.05182 0
M  V30 1028 C 101.306 -1.67776 -4.10324 0
M  V30 1029 H 98.5257 -0.389407 -0.546446 0
M  V30 1030 H 101.07 -1.64801 -1.21083 0
M  V30 1031 H 99.2247 -1.25954 -3.66353 0
M  V30 1032 H 99.6387 -3.4551 -3.94618 0
M  V30 1033 H 101.113 -2.17064 -5.0753 0
M  V30 1034 H 101.59 -0.639584 -4.34518 0
M  V30 1035 H 102.196 -2.16522 -3.66058 0
M  V30 1036 N 100.511 1.16574 -1.06058 0
M  V30 1037 C 101.757 1.87324 -0.777022 0
M  V30 1038 C 102.09 1.81351 0.694645 0
M  V30 1039 O 101.365 1.22753 1.50871 0
M  V30 1040 C 101.648 3.36991 -1.26922 0
M  V30 1041 C 101.501 3.51667 -2.80447 0
M  V30 1042 C 102.82 4.3131 -0.87521 0
M  V30 1043 H 99.9388 0.680191 -0.28374 0
M  V30 1044 H 102.581 1.37036 -1.3161 0
M  V30 1045 H 100.731 3.79949 -0.81063 0
M  V30 1046 H 102.403 3.17664 -3.34495 0
M  V30 1047 H 100.646 2.93656 -3.19294 0
M  V30 1048 H 101.317 4.56766 -3.0995 0
M  V30 1049 H 103.793 3.9624 -1.27014 0
M  V30 1050 H 102.669 5.34545 -1.2471 0
M  V30 1051 H 102.93 4.41552 0.220071 0
M  V30 1052 N 101.989 0.842826 1.3317 0
M  V30 1053 C 103.235 0.441099 1.97945 0
M  V30 1054 C 103.568 -0.998024 1.66593 0
M  V30 1055 O 102.843 -1.69839 0.947898 0
M  V30 1056 C 103.126 0.666841 3.53872 0
M  V30 1057 C 102.979 2.15352 3.94897 0
M  V30 1058 C 104.298 0.115544 4.39948 0
M  V30 1059 H 101.417 0.161739 0.719034 0
M  V30 1060 H 104.059 1.05907 1.57746 0
M  V30 1061 H 102.209 0.140828 3.88245 0
M  V30 1062 H 103.881 2.7447 3.70761 0
M  V30 1063 H 102.124 2.63653 3.44484 0
M  V30 1064 H 102.795 2.26221 5.03516 0
M  V30 1065 H 105.271 0.565213 4.12243 0
M  V30 1066 H 104.147 0.303152 5.48062 0
M  V30 1067 H 104.408 -0.980935 4.3108 0
M  V30 1068 N 103.467 -1.45747 0.599634 0
M  V30 1069 C 104.713 -2.02592 0.0918643 0
M  V30 1070 C 105.046 -1.46806 -1.27128 0
M  V30 1071 O 104.321 -0.639658 -1.83681 0
M  V30 1072 C 104.604 -3.60073 0.0443398 0
M  V30 1073 C 104.457 -4.26208 1.43759 0
M  V30 1074 C 105.776 -4.35309 -0.647608 0
M  V30 1075 H 102.895 -0.736175 0.034857 0
M  V30 1076 H 105.537 -1.73694 0.770081 0
M  V30 1077 H 103.687 -3.84823 -0.533224 0
M  V30 1078 H 105.359 -4.12668 2.06162 0
M  V30 1079 H 103.602 -3.84916 2.00056 0
M  V30 1080 H 104.273 -5.35069 1.35665 0
M  V30 1081 H 106.749 -4.15805 -0.156776 0
M  V30 1082 H 105.625 -5.45038 -0.649942 0
M  V30 1083 H 105.886 -4.07598 -1.71219 0
M  V30 1084 N 104.945 -0.338344 -1.53925 0
M  V30 1085 C 106.191 0.260143 -2.01125 0
M  V30 1086 C 106.524 1.50617 -1.22589 0
M  V30 1087 O 105.799 1.91979 -0.312113 0
M  V30 1088 C 106.082 0.579499 -3.55407 0
M  V30 1089 C 105.935 -0.678264 -4.44657 0
M  V30 1090 C 107.254 1.39122 -4.17532 0
M  V30 1091 H 104.373 0.0930772 -0.731099 0
M  V30 1092 H 107.015 -0.457852 -1.84401 0
M  V30 1093 H 105.165 1.19118 -3.69788 0
M  V30 1094 H 106.837 -1.31631 -4.42121 0
M  V30 1095 H 105.08 -1.3042 -4.13731 0
M  V30 1096 H 105.751 -0.410143 -5.50474 0
M  V30 1097 H 108.227 0.874035 -4.06817 0
M  V30 1098 H 107.103 1.58342 -5.25565 0
M  V30 1099 H 107.364 2.39178 -3.71815 0
M  V30 1100 N 106.423 1.57458 -0.0668435 0
M  V30 1101 C 107.373 2.0896 0.912119 0
M  V30 1102 C 108.357 0.998186 1.26195 0
M  V30 1103 O 109.549 1.26133 1.24175 0
M  V30 1104 C 106.678 2.6508 2.18145 0
M  V30 1105 C 105.764 3.81218 1.85832 0
M  V30 1106 N 106.155 4.90378 1.23948 0
M  V30 1107 C 104.453 3.9042 2.15612 0
M  V30 1108 C 105.154 5.71279 1.09616 0
M  V30 1109 N 104.13 5.19389 1.60423 0
M  V30 1110 H 107.932 2.90749 0.42924 0
M  V30 1111 H 105.446 1.6182 0.137184 0
M  V30 1112 H 107.443 3.0029 2.89192 0
M  V30 1113 H 106.103 1.84736 2.67025 0
M  V30 1114 H 107.114 5.09847 0.909731 0
M  V30 1115 H 103.791 3.21043 2.66903 0
M  V30 1116 H 105.181 6.69085 0.614425 0
M  V30 1117 N 107.901 -0.206675 1.56239 0
M  V30 1118 C 108.848 -1.25617 1.93621 0
M  V30 1119 C 109.818 -1.45824 0.795274 0
M  V30 1120 O 111.003 -1.59148 1.05245 0
M  V30 1121 C 108.143 -2.59839 2.27107 0
M  V30 1122 C 107.256 -2.47308 3.54207 0
M  V30 1123 C 106.391 -3.74155 3.7707 0
M  V30 1124 C 105.43 -3.56407 4.97635 0
M  V30 1125 N 104.567 -4.75238 5.1681 0
M  V30 1126 H 109.407 -0.930383 2.83104 0
M  V30 1127 H 106.944 -0.448065 1.4011 0
M  V30 1128 H 108.902 -3.38021 2.44535 0
M  V30 1129 H 107.532 -2.90485 1.40778 0
M  V30 1130 H 106.584 -1.60483 3.4489 0
M  V30 1131 H 107.896 -2.30122 4.42544 0
M  V30 1132 H 107.05 -4.60778 3.94675 0
M  V30 1133 H 105.789 -3.94282 2.87042 0
M  V30 1134 H 104.794 -2.68168 4.79964 0
M  V30 1135 H 106.019 -3.37736 5.89161 0
M  V30 1136 H 103.965 -4.95651 4.29728 0
M  V30 1137 H 103.882 -4.60835 5.99306 0
M  V30 1138 H 105.15 -5.63246 5.38864 0
M  V30 1139 N 109.379 -1.50304 -0.473955 0
M  V30 1140 C 110.627 -1.60832 -1.22382 0
M  V30 1141 C 110.948 -0.30939 -1.9253 0
M  V30 1142 O 110.218 0.67296 -1.83978 0
M  V30 1143 H 108.798 -0.592652 -0.454723 0
M  V30 1144 H 111.46 -1.87068 -0.546968 0
M  V30 1145 H 110.556 -2.41803 -1.97327 0
M  V30 1146 N 110.857 0.726932 -1.39834 0
M  V30 1147 C 111.804 1.841 -1.39197 0
M  V30 1148 C 112.774 1.642 -0.250502 0
M  V30 1149 O 113.959 1.85494 -0.446846 0
M  V30 1150 C 111.099 3.21697 -1.24919 0
M  V30 1151 C 110.212 3.53247 -2.48678 0
M  V30 1152 C 109.347 4.80289 -2.26928 0
M  V30 1153 C 108.386 5.04707 -3.4632 0
M  V30 1154 N 107.523 6.22956 -3.23836 0
M  V30 1155 H 112.363 1.83979 -2.34427 0
M  V30 1156 H 109.9 0.898876 -1.16442 0
M  V30 1157 H 111.858 4.01137 -1.1465 0
M  V30 1158 H 110.488 3.21076 -0.333153 0
M  V30 1159 H 109.54 2.68447 -2.69519 0
M  V30 1160 H 110.852 3.67205 -3.37582 0
M  V30 1161 H 110.006 5.67725 -2.13947 0
M  V30 1162 H 108.745 4.68519 -1.35431 0
M  V30 1163 H 107.75 4.1573 -3.5979 0
M  V30 1164 H 108.975 5.18357 -4.38729 0
M  V30 1165 H 106.921 6.12459 -2.35011 0
M  V30 1166 H 106.838 6.37539 -4.063 0
M  V30 1167 H 108.106 7.1321 -3.14566 0
M  V30 1168 N 112.336 1.25143 0.95797 0
M  V30 1169 C 113.299 1.05321 2.03569 0
M  V30 1170 C 114.299 0.007152 1.60798 0
M  V30 1171 O 115.489 0.24903 1.72411 0
M  V30 1172 C 112.621 0.598394 3.35607 0
M  V30 1173 H 113.814 2.00986 2.22586 0
M  V30 1174 H 111.367 1.07502 1.13459 0
M  V30 1175 H 112.102 -0.361014 3.22284 0
M  V30 1176 H 111.887 1.35351 3.67998 0
M  V30 1177 H 113.377 0.48104 4.1482 0
M  V30 1178 N 113.814 -1.1601 1.06675 0
M  V30 1179 C 115.044 -1.90251 0.805497 0
M  V30 1180 C 115.452 -1.77891 -0.64431 0
M  V30 1181 O 114.795 -1.12383 -1.45313 0
M  V30 1182 C 114.857 -3.41419 1.12576 0
M  V30 1183 C 114.521 -3.77564 2.57477 0
M  V30 1184 C 115.518 -3.79161 3.55715 0
M  V30 1185 C 113.203 -4.08079 2.92877 0
M  V30 1186 C 115.197 -4.10767 4.8739 0
M  V30 1187 C 112.884 -4.39351 4.24751 0
M  V30 1188 C 113.882 -4.40675 5.21818 0
M  V30 1189 O 113.57 -4.71202 6.51325 0
M  V30 1190 H 113.302 -0.610018 0.291297 0
M  V30 1191 H 115.856 -1.47958 1.4247 0
M  V30 1192 H 114.086 -3.84079 0.449503 0
M  V30 1193 H 115.775 -3.9694 0.84814 0
M  V30 1194 H 116.541 -3.55693 3.29708 0
M  V30 1195 H 112.42 -4.06211 2.17976 0
M  V30 1196 H 115.964 -4.11715 5.63148 0
M  V30 1197 H 111.861 -4.62285 4.50514 0
M  V30 1198 H 112.629 -4.88996 6.56373 0
M  V30 1199 N 115.292 -0.849877 -1.32721 0
M  V30 1200 C 116.202 -0.293791 -2.32753 0
M  V30 1201 C 117.218 0.585906 -1.63839 0
M  V30 1202 O 118.394 0.487413 -1.95413 0
M  V30 1203 C 115.459 0.512752 -3.42887 0
M  V30 1204 C 114.52 -0.39252 -4.27502 0
M  V30 1205 C 113.753 0.375625 -5.32377 0
M  V30 1206 O 113.976 1.60613 -5.4732 0
M  V30 1207 O 112.91 -0.256094 -6.01355 0
M  V30 1208 H 116.736 -1.12242 -2.82197 0
M  V30 1209 H 114.321 -0.612685 -1.36259 0
M  V30 1210 H 116.203 0.970704 -4.10067 0
M  V30 1211 H 114.878 1.31826 -2.95641 0
M  V30 1212 H 113.785 -0.898547 -3.63149 0
M  V30 1213 H 115.118 -1.16309 -4.7826 0
M  V30 1214 N 116.77 1.45427 -0.607355 0
M  V30 1215 C 118.016 2.0254 -0.102607 0
M  V30 1216 C 118.349 1.47478 1.26348 0
M  V30 1217 O 117.624 0.64939 1.83339 0
M  V30 1218 C 117.907 3.60044 -0.0634347 0
M  V30 1219 C 117.76 4.2544 -1.46017 0
M  V30 1220 C 119.079 4.35646 0.624514 0
M  V30 1221 H 116.198 0.73598 -0.0387607 0
M  V30 1222 H 118.84 1.73284 -0.779282 0
M  V30 1223 H 116.99 3.85101 0.512808 0
M  V30 1224 H 118.662 4.11569 -2.08347 0
M  V30 1225 H 116.905 3.83849 -2.02094 0
M  V30 1226 H 117.576 5.34342 -1.385 0
M  V30 1227 H 120.052 4.15882 0.134723 0
M  V30 1228 H 118.928 5.45376 0.621028 0
M  V30 1229 H 119.189 4.08501 1.69055 0
M  V30 1230 N 118.248 0.346503 1.53744 0
M  V30 1231 C 119.476 -0.25041 2.05379 0
M  V30 1232 C 119.891 -1.43979 1.22129 0
M  V30 1233 O 119.248 -1.80677 0.257321 0
M  V30 1234 C 119.299 -0.662575 3.55376 0
M  V30 1235 O 119.02 0.479515 4.35468 0
M  V30 1236 C 120.521 -1.31989 4.23195 0
M  V30 1237 H 117.741 -0.0478198 0.669294 0
M  V30 1238 H 120.285 0.499346 1.9831 0
M  V30 1239 H 118.44 -1.36227 3.62658 0
M  V30 1240 H 118.854 0.15037 5.24284 0
M  V30 1241 H 120.328 -1.55902 5.29527 0
M  V30 1242 H 120.805 -2.27436 3.75725 0
M  V30 1243 H 121.411 -0.662154 4.20114 0
M  V30 1244 N 119.726 -1.57421 0.075193 0
M  V30 1245 C 120.954 -1.97946 -0.602076 0
M  V30 1246 C 121.369 -0.953674 -1.62943 0
M  V30 1247 O 120.726 0.0592551 -1.82404 0
M  V30 1248 C 120.777 -3.38546 -1.26762 0
M  V30 1249 O 120.498 -4.37195 -0.281376 0
M  V30 1250 C 121.999 -3.93966 -2.03239 0
M  V30 1251 H 119.219 -0.650918 -0.162931 0
M  V30 1252 H 121.763 -2.03959 0.148601 0
M  V30 1253 H 119.918 -3.33609 -1.96936 0
M  V30 1254 H 120.332 -5.18975 -0.759267 0
M  V30 1255 H 121.806 -4.94555 -2.45193 0
M  V30 1256 H 122.283 -3.30693 -2.8903 0
M  V30 1257 H 122.889 -4.02315 -1.37924 0
M  V30 1258 N 121.204 0.198386 -1.56346 0
M  V30 1259 C 122.451 0.919286 -1.80431 0
M  V30 1260 C 122.779 1.83393 -0.647866 0
M  V30 1261 O 122.034 1.92236 0.366556 0
M  V30 1262 C 122.333 1.77031 -3.10475 0
M  V30 1263 C 121.999 1.00693 -4.39513 0
M  V30 1264 C 120.661 0.796145 -4.74568 0
M  V30 1265 C 123.013 0.469559 -5.19081 0
M  V30 1266 C 120.341 0.0364588 -5.86689 0
M  V30 1267 C 122.693 -0.2769 -6.31994 0
M  V30 1268 C 121.357 -0.49873 -6.65634 0
M  V30 1269 H 120.627 0.336391 -0.660244 0
M  V30 1270 H 123.274 0.185872 -1.90596 0
M  V30 1271 H 121.579 2.5723 -2.95533 0
M  V30 1272 H 123.276 2.33065 -3.26315 0
M  V30 1273 H 119.866 1.18122 -4.12001 0
M  V30 1274 H 124.05 0.619816 -4.92414 0
M  V30 1275 H 119.306 -0.145412 -6.11227 0
M  V30 1276 H 123.48 -0.700684 -6.92866 0
M  V30 1277 H 121.107 -1.0893 -7.52355 0
M  V30 1278 N 122.682 1.50554 0.465978 0
M  V30 1279 C 123.629 1.6979 1.56333 0
M  V30 1280 C 124.599 0.539239 1.57103 0
M  V30 1281 O 125.784 0.770401 1.74555 0
M  V30 1282 C 122.924 1.80273 2.94271 0
M  V30 1283 C 122.037 3.07674 3.0325 0
M  V30 1284 C 121.172 3.08922 4.32135 0
M  V30 1285 C 120.211 4.30755 4.34875 0
M  V30 1286 N 119.348 4.29714 5.55239 0
M  V30 1287 H 124.188 2.63472 1.39235 0
M  V30 1288 H 121.725 1.30602 0.676873 0
M  V30 1289 H 123.683 1.84332 3.74269 0
M  V30 1290 H 122.313 0.900258 3.09992 0
M  V30 1291 H 121.365 3.13062 2.16094 0
M  V30 1292 H 122.677 3.97642 3.01135 0
M  V30 1293 H 121.831 3.11738 5.20485 0
M  V30 1294 H 120.57 2.16792 4.36866 0
M  V30 1295 H 119.575 4.28146 3.44922 0
M  V30 1296 H 120.8 5.24117 4.31831 0
M  V30 1297 H 118.746 3.4044 5.60746 0
M  V30 1298 H 118.663 5.13456 5.54886 0
M  V30 1299 H 119.931 4.36683 6.457 0
M  V30 1300 N 124.16 -0.719506 1.40217 0
M  V30 1301 C 125.388 -1.50864 1.41589 0
M  V30 1302 C 125.803 -1.88794 0.0145275 0
M  V30 1303 O 125.16 -1.55174 -0.960594 0
M  V30 1304 C 125.211 -2.78646 2.30302 0
M  V30 1305 O 124.932 -2.42321 3.64983 0
M  V30 1306 C 126.433 -3.72569 2.40224 0
M  V30 1307 H 123.653 -0.465709 0.48307 0
M  V30 1308 H 126.197 -0.88785 1.84221 0
M  V30 1309 H 124.352 -3.37019 1.91042 0
M  V30 1310 H 124.766 -3.24514 4.12057 0
M  V30 1311 H 126.24 -4.5908 3.06512 0
M  V30 1312 H 126.717 -4.15403 1.42608 0
M  V30 1313 H 127.323 -3.20109 2.80019 0
M  V30 1314 N 125.638 -1.25649 -0.95132 0
M  V30 1315 C 126.915 -1.01361 -1.67288 0
M  V30 1316 C 127.295 0.459135 -2.06046 0
M  V30 1317 O 126.643 1.43723 -1.7764 0
M  V30 1318 C 126.853 -1.95256 -2.89268 0
M  V30 1319 C 128.201 -2.23289 -3.61147 0
M  V30 1320 O 129.225 -1.93041 -2.99355 0
M  V30 1321 O 128.084 -2.74741 -4.72419 0
M  V30 1322 H 125.178 -0.38464 -0.732107 0
M  V30 1323 H 127.724 -1.36817 -1.00395 0
M  V30 1324 H 126.496 -2.94685 -2.57442 0
M  V30 1325 H 126.119 -1.60218 -3.6389 0
M  V30 1326 N 127.117 1.15442 -1.07289 0
M  V30 1327 C 128.365 1.85845 -0.794096 0
M  V30 1328 C 128.686 1.82692 0.681809 0
M  V30 1329 O 127.956 1.26741 1.49377 0
M  V30 1330 H 126.536 0.688089 -0.290763 0
M  V30 1331 H 129.198 1.39947 -1.3565 0
M  V30 1332 H 128.294 2.91001 -1.12804 0
M  V30 1333 N 128.595 0.856903 1.32268 0
M  V30 1334 C 129.872 0.382583 1.91822 0
M  V30 1335 C 130.252 -1.13407 1.78051 0
M  V30 1336 O 129.6 -1.95673 1.18001 0
M  V30 1337 C 129.81 0.849446 3.38505 0
M  V30 1338 C 131.158 0.867936 4.15634 0
M  V30 1339 O 132.182 0.794232 3.47232 0
M  V30 1340 O 131.041 0.972286 5.37781 0
M  V30 1341 H 128.135 0.112014 0.819379 0
M  V30 1342 H 130.681 0.943952 1.41024 0
M  V30 1343 H 129.453 1.89267 3.42482 0
M  V30 1344 H 129.076 0.265652 3.96712 0
M  V30 1345 N 130.073 -1.45103 0.615059 0
M  V30 1346 C 131.303 -2.06254 0.119596 0
M  V30 1347 C 131.711 -1.4591 -1.20445 0
M  V30 1348 O 131.054 -0.570384 -1.7462 0
M  V30 1349 C 131.116 -3.59396 -0.0865591 0
M  V30 1350 C 130.78 -4.42116 1.15683 0
M  V30 1351 C 131.777 -4.7662 2.07676 0
M  V30 1352 C 129.462 -4.82749 1.38775 0
M  V30 1353 C 131.456 -5.50622 3.21082 0
M  V30 1354 C 129.143 -5.56504 2.52481 0
M  V30 1355 C 130.141 -5.90358 3.43463 0
M  V30 1356 O 129.829 -6.62615 4.55189 0
M  V30 1357 H 129.561 -0.672423 0.0694512 0
M  V30 1358 H 132.115 -1.87219 0.844885 0
M  V30 1359 H 130.345 -3.76859 -0.866823 0
M  V30 1360 H 132.034 -4.02365 -0.534555 0
M  V30 1361 H 132.8 -4.4578 1.91063 0
M  V30 1362 H 128.679 -4.55829 0.688545 0
M  V30 1363 H 132.223 -5.76965 3.92119 0
M  V30 1364 H 128.12 -5.86759 2.69043 0
M  V30 1365 H 128.888 -6.81071 4.53966 0
M  V30 1366 N 131.551 -0.354651 -1.53558 0
M  V30 1367 C 132.461 0.50515 -2.29097 0
M  V30 1368 C 133.477 1.10223 -1.34636 0
M  V30 1369 O 134.653 1.11553 -1.67684 0
M  V30 1370 C 131.718 1.63479 -3.05738 0
M  V30 1371 C 130.779 1.06636 -4.15845 0
M  V30 1372 C 130.012 2.14217 -4.88822 0
M  V30 1373 O 130.235 3.35137 -4.61562 0
M  V30 1374 O 129.169 1.77887 -5.75013 0
M  V30 1375 H 132.995 -0.109237 -3.03503 0
M  V30 1376 H 130.58 -0.119357 -1.48922 0
M  V30 1377 H 132.462 2.2918 -3.5363 0
M  V30 1378 H 131.137 2.23478 -2.34178 0
M  V30 1379 H 130.044 0.373565 -3.7223 0
M  V30 1380 H 131.377 0.511081 -4.89539 0
M  V30 1381 N 133.029 1.57378 -0.0835403 0
M  V30 1382 C 134.306 1.85363 0.624507 0
M  V30 1383 C 134.686 0.978239 1.87066 0
M  V30 1384 O 134.034 0.0475908 2.2845 0
M  V30 1385 C 134.244 3.35795 0.950947 0
M  V30 1386 C 135.592 4.03581 1.31939 0
M  V30 1387 O 136.616 3.40609 1.04232 0
M  V30 1388 O 135.475 5.14672 1.83779 0
M  V30 1389 H 132.569 0.766162 0.311329 0
M  V30 1390 H 135.115 1.69307 -0.115362 0
M  V30 1391 H 133.887 3.91244 0.0663899 0
M  V30 1392 H 133.51 3.57154 1.74719 0
M  V30 1393 N 134.507 -0.190092 1.56449 0
M  V30 1394 C 135.737 -0.92443 1.84764 0
M  V30 1395 C 136.145 -1.77146 0.664529 0
M  V30 1396 O 135.488 -1.79812 -0.375957 0
M  V30 1397 C 135.55 -1.86651 3.07248 0
M  V30 1398 C 135.214 -1.20094 4.40938 0
M  V30 1399 C 136.211 -0.575445 5.16706 0
M  V30 1400 C 133.896 -1.2033 4.87674 0
M  V30 1401 C 135.89 0.0388111 6.37388 0
M  V30 1402 C 133.577 -0.585214 6.08291 0
M  V30 1403 C 134.575 0.0347578 6.82991 0
M  V30 1404 O 134.263 0.643147 8.01323 0
M  V30 1405 H 133.995 -0.274974 0.617548 0
M  V30 1406 H 136.549 -0.200788 2.04416 0
M  V30 1407 H 134.779 -2.62998 2.83494 0
M  V30 1408 H 136.468 -2.46907 3.22167 0
M  V30 1409 H 137.234 -0.565728 4.81689 0
M  V30 1410 H 133.113 -1.67526 4.29484 0
M  V30 1411 H 136.657 0.523329 6.95634 0
M  V30 1412 H 132.554 -0.592451 6.42775 0
M  V30 1413 H 133.322 0.540545 8.16713 0
M  V30 1414 N 135.985 -1.50799 -0.457987 0
M  V30 1415 C 137.401 -1.38515 -0.792819 0
M  V30 1416 C 137.601 -0.451409 -1.96379 0
M  V30 1417 O 136.657 0.10112 -2.52297 0
M  V30 1418 C 137.97 -2.80149 -1.09258 0
M  V30 1419 C 139.518 -2.89156 -1.19825 0
M  V30 1420 C 139.993 -4.31651 -1.53106 0
M  V30 1421 N 141.484 -4.34662 -1.60072 0
M  V30 1422 C 142.219 -5.41928 -1.87354 0
M  V30 1423 N 141.715 -6.59384 -2.12568 0
M  V30 1424 N 143.508 -5.29385 -1.88965 0
M  V30 1425 H 135.659 -2.10073 0.313511 0
M  V30 1426 H 137.922 -0.944803 0.0777862 0
M  V30 1427 H 137.628 -3.50374 -0.305084 0
M  V30 1428 H 137.502 -3.18204 -2.02549 0
M  V30 1429 H 139.889 -2.19141 -1.97639 0
M  V30 1430 H 139.97 -2.54626 -0.244821 0
M  V30 1431 H 139.614 -5.02208 -0.758266 0
M  V30 1432 H 139.544 -4.63678 -2.49621 0
M  V30 1433 H 142.035 -3.49973 -1.42573 0
M  V30 1434 H 142.348 -7.36934 -2.32696 0
M  V30 1435 H 140.693 -6.62535 -2.09933 0
M  V30 1436 H 143.884 -4.36616 -1.68772 0
M  V30 1437 H 144.057 -6.13066 -2.09891 0
M  V30 1438 N 137.463 0.71206 -1.40597 0
M  V30 1439 C 138.879 1.02058 -1.22704 0
M  V30 1440 C 139.079 2.01228 -0.104729 0
M  V30 1441 O 138.135 2.4674 0.53624 0
M  V30 1442 C 139.448 1.56094 -2.57012 0
M  V30 1443 C 140.996 1.6806 -2.64054 0
M  V30 1444 C 141.471 2.25501 -3.9864 0
M  V30 1445 N 142.962 2.32882 -4.004 0
M  V30 1446 C 143.697 2.78317 -5.01325 0
M  V30 1447 N 143.193 3.23478 -6.12645 0
M  V30 1448 N 144.986 2.77733 -4.88693 0
M  V30 1449 H 137.137 0.0547896 -2.12329 0
M  V30 1450 H 139.4 0.0869027 -0.944008 0
M  V30 1451 H 139.106 0.906865 -3.39807 0
M  V30 1452 H 138.98 2.54564 -2.78347 0
M  V30 1453 H 141.367 2.32583 -1.81629 0
M  V30 1454 H 141.448 0.681802 -2.46546 0
M  V30 1455 H 141.092 1.61598 -4.81506 0
M  V30 1456 H 141.022 3.26102 -4.13479 0
M  V30 1457 H 143.513 2.00991 -3.20017 0
M  V30 1458 H 143.826 3.56725 -6.85542 0
M  V30 1459 H 142.171 3.21429 -6.16205 0
M  V30 1460 H 145.362 2.4179 -4.00818 0
M  V30 1461 H 145.535 3.12826 -5.67489 0
M  V30 1462 N 138.941 1.26152 0.944643 0
M  V30 1463 C 140.352 1.10454 1.50522 0
M  V30 1464 C 140.703 -0.31635 1.93633 0
M  V30 1465 O 139.828 -1.20746 1.79581 0
M  V30 1466 C 140.423 1.99891 2.73549 0
M  V30 1467 C 138.982 1.88348 3.25886 0
M  V30 1468 C 138.129 1.93447 1.9868 0
M  V30 1469 H 141.08 1.39292 0.760489 0
M  V30 1470 H 141.101 1.54477 3.47732 0
M  V30 1471 H 140.613 3.03297 2.42141 0
M  V30 1472 H 138.714 0.878636 3.62092 0
M  V30 1473 H 138.827 2.73696 3.93227 0
M  V30 1474 H 137.191 1.37456 2.14425 0
M  V30 1475 H 137.974 2.98476 1.69607 0
M  V30 1476 N 140.419 -1.14872 1.07899 0
M  V30 1477 C 141.329 -2.2341 0.715915 0
M  V30 1478 C 142.345 -1.71808 -0.275306 0
M  V30 1479 O 143.521 -2.01039 -0.120545 0
M  V30 1480 C 140.586 -3.46474 0.125168 0
M  V30 1481 C 139.647 -4.13039 1.17034 0
M  V30 1482 C 138.88 -5.30229 0.607688 0
M  V30 1483 O 139.103 -5.675 -0.574497 0
M  V30 1484 O 138.037 -5.86444 1.35526 0
M  V30 1485 H 141.863 -2.56808 1.62121 0
M  V30 1486 H 139.448 -1.22702 0.852322 0
M  V30 1487 H 141.33 -4.20917 -0.201729 0
M  V30 1488 H 140.005 -3.14811 -0.753364 0
M  V30 1489 H 138.912 -3.40493 1.54968 0
M  V30 1490 H 140.245 -4.48796 2.02097 0
M  V30 1491 N 141.898 -0.863906 -1.31812 0
M  V30 1492 C 143.123 -0.48527 -2.01643 0
M  V30 1493 C 143.548 0.913058 -1.64453 0
M  V30 1494 O 142.906 1.6014 -0.849985 0
M  V30 1495 C 142.954 -0.642625 -3.54828 0
M  V30 1496 O 142.058 0.320659 -4.11151 0
M  V30 1497 H 141.399 -0.193793 -0.635091 0
M  V30 1498 H 143.929 -1.16565 -1.68148 0
M  V30 1499 H 143.939 -0.533628 -4.04495 0
M  V30 1500 H 142.614 -1.66227 -3.81237 0
M  V30 1501 H 141.191 0.167126 -3.72525 0
M  V30 1502 N 143.376 1.44774 -0.622745 0
M  V30 1503 C 144.622 2.0242 -0.124083 0
M  V30 1504 C 144.955 1.4881 1.24777 0
M  V30 1505 O 144.23 0.668799 1.8264 0
M  V30 1506 C 144.513 3.59957 -0.101619 0
M  V30 1507 C 144.366 4.23867 -1.50521 0
M  V30 1508 C 145.685 4.36284 0.578272 0
M  V30 1509 H 142.804 0.735528 -0.0465645 0
M  V30 1510 H 145.446 1.72447 -0.797617 0
M  V30 1511 H 143.596 3.85623 0.471934 0
M  V30 1512 H 145.268 4.09336 -2.12701 0
M  V30 1513 H 143.511 3.81684 -2.06154 0
M  V30 1514 H 144.182 5.32843 -1.4416 0
M  V30 1515 H 146.658 4.16001 0.0906057 0
M  V30 1516 H 145.534 5.46004 0.563149 0
M  V30 1517 H 145.795 4.10271 1.64713 0
M  V30 1518 N 144.854 0.36279 1.53368 0
M  V30 1519 C 146.082 -0.228613 2.05633 0
M  V30 1520 C 146.497 -1.42676 1.23649 0
M  V30 1521 O 145.854 -1.80394 0.27647 0
M  V30 1522 C 145.905 -0.624845 3.56059 0
M  V30 1523 O 145.626 0.525675 4.34935 0
M  V30 1524 C 147.127 -1.27493 4.24571 0
M  V30 1525 H 144.347 -0.0407183 0.669763 0
M  V30 1526 H 146.891 0.520352 1.97769 0
M  V30 1527 H 145.046 -1.32373 3.64083 0
M  V30 1528 H 145.46 0.205969 5.24095 0
M  V30 1529 H 146.934 -1.50277 5.31151 0
M  V30 1530 H 147.411 -2.23439 3.78116 0
M  V30 1531 H 148.017 -0.617558 4.20792 0
M  V30 1532 N 146.332 -1.57332 0.0918853 0
M  V30 1533 C 147.579 -1.94236 -0.572577 0
M  V30 1534 C 147.907 -0.973398 -1.6839 0
M  V30 1535 O 147.162 0.00756912 -1.95699 0
M  V30 1536 C 147.461 -3.37689 -1.17051 0
M  V30 1537 C 147.127 -4.50527 -0.183304 0
M  V30 1538 C 145.789 -4.81119 0.0882276 0
M  V30 1539 C 148.141 -5.18883 0.49095 0
M  V30 1540 C 145.469 -5.77395 1.04076 0
M  V30 1541 C 147.821 -6.1618 1.43193 0
M  V30 1542 C 146.485 -6.45179 1.71173 0
M  V30 1543 H 145.755 -0.710762 -0.209521 0
M  V30 1544 H 148.402 -1.9077 0.167036 0
M  V30 1545 H 146.707 -3.37718 -1.9863 0
M  V30 1546 H 148.404 -3.63543 -1.69227 0
M  V30 1547 H 144.994 -4.26681 -0.405124 0
M  V30 1548 H 149.178 -4.95427 0.294312 0
M  V30 1549 H 144.434 -5.98179 1.26457 0
M  V30 1550 H 148.608 -6.68243 1.96023 0
M  V30 1551 H 146.235 -7.1959 2.4514 0
M  V30 1552 N 147.81 0.181792 -1.56548 0
M  V30 1553 C 149.056 0.901431 -1.81665 0
M  V30 1554 C 149.389 1.82347 -0.668075 0
M  V30 1555 O 148.664 1.91669 0.330615 0
M  V30 1556 C 148.947 1.70618 -3.17115 0
M  V30 1557 C 148.8 0.807964 -4.42484 0
M  V30 1558 C 150.119 2.67605 -3.49393 0
M  V30 1559 H 147.238 0.32627 -0.660846 0
M  V30 1560 H 149.88 0.168134 -1.89255 0
M  V30 1561 H 148.03 2.33133 -3.10775 0
M  V30 1562 H 149.702 0.19649 -4.60881 0
M  V30 1563 H 147.945 0.115411 -4.33646 0
M  V30 1564 H 148.616 1.40632 -5.33785 0
M  V30 1565 H 151.092 2.15218 -3.56118 0
M  V30 1566 H 149.968 3.20985 -4.45264 0
M  V30 1567 H 150.229 3.47298 -2.73563 0
M  V30 1568 N 149.288 1.51039 0.449983 0
M  V30 1569 C 150.704 1.38934 0.785462 0
M  V30 1570 C 150.904 0.461817 1.96136 0
M  V30 1571 O 149.96 -0.0877389 2.52348 0
M  V30 1572 C 151.273 2.80724 1.0777 0
M  V30 1573 C 152.821 2.89787 1.1829 0
M  V30 1574 C 153.296 4.32457 1.50815 0
M  V30 1575 N 154.787 4.35505 1.57764 0
M  V30 1576 C 155.522 5.42914 1.84477 0
M  V30 1577 N 155.018 6.60502 2.09068 0
M  V30 1578 N 156.811 5.3038 1.86155 0
M  V30 1579 H 148.962 2.09904 -0.324647 0
M  V30 1580 H 151.225 0.944378 -0.0827957 0
M  V30 1581 H 150.931 3.50531 0.286498 0
M  V30 1582 H 150.805 3.19273 2.00859 0
M  V30 1583 H 153.192 2.20186 1.96474 0
M  V30 1584 H 153.273 2.54752 0.231314 0
M  V30 1585 H 152.917 5.02603 0.731622 0
M  V30 1586 H 152.847 4.64995 2.47158 0
M  V30 1587 H 155.338 3.50724 1.40715 0
M  V30 1588 H 155.651 7.38158 2.28785 0
M  V30 1589 H 153.996 6.63639 2.06416 0
M  V30 1590 H 157.187 4.37505 1.66454 0
M  V30 1591 H 157.36 6.1417 2.06637 0
M  V30 1592 N 150.766 -0.704594 1.40972 0
M  V30 1593 C 151.991 -1.49858 1.43378 0
M  V30 1594 C 152.416 -1.88061 0.038184 0
M  V30 1595 O 151.774 -1.5402 -0.956425 0
M  V30 1596 C 151.822 -2.74333 2.34038 0
M  V30 1597 O 150.926 -3.7147 1.7912 0
M  V30 1598 H 150.267 -0.45139 0.486974 0
M  V30 1599 H 152.797 -0.866832 1.8533 0
M  V30 1600 H 152.807 -3.22741 2.49604 0
M  V30 1601 H 151.482 -2.45863 3.35446 0
M  V30 1602 H 150.059 -3.30363 1.72958 0
M  V30 1603 N 152.244 -1.26651 -0.937939 0
M  V30 1604 C 153.174 -1.10993 -2.05433 0
M  V30 1605 C 154.155 -0.0142161 -1.70094 0
M  V30 1606 O 155.34 -0.186837 -1.93299 0
M  V30 1607 C 152.47 -0.745561 -3.39203 0
M  V30 1608 C 151.424 -1.79337 -3.88616 0
M  V30 1609 C 150.75 -1.28324 -5.19073 0
M  V30 1610 C 152.05 -3.19553 -4.13138 0
M  V30 1611 H 153.744 -2.0438 -2.1879 0
M  V30 1612 H 151.29 -0.984041 -1.05131 0
M  V30 1613 H 153.243 -0.622888 -4.16771 0
M  V30 1614 H 151.967 0.22401 -3.25831 0
M  V30 1615 H 150.626 -1.90477 -3.13231 0
M  V30 1616 H 150.274 -0.303414 -5.02084 0
M  V30 1617 H 149.974 -1.98369 -5.53103 0
M  V30 1618 H 151.498 -1.1733 -5.99221 0
M  V30 1619 H 152.912 -3.11471 -4.81309 0
M  V30 1620 H 151.309 -3.87218 -4.58457 0
M  V30 1621 H 152.379 -3.65368 -3.18801 0
M  V30 1622 N 153.722 1.14298 -1.08507 0
M  V30 1623 C 154.632 2.23027 -0.727753 0
M  V30 1624 C 155.648 1.71952 0.26619 0
M  V30 1625 O 156.824 2.011 0.109882 0
M  V30 1626 C 153.889 3.46403 -0.143541 0
M  V30 1627 C 152.95 4.12413 -1.19223 0
M  V30 1628 C 152.183 5.29899 -0.635798 0
M  V30 1629 O 152.406 5.67796 0.544393 0
M  V30 1630 O 151.34 5.85717 -1.38634 0
M  V30 1631 H 155.166 2.55945 -1.63481 0
M  V30 1632 H 152.751 1.22248 -0.858817 0
M  V30 1633 H 154.633 4.21018 0.179404 0
M  V30 1634 H 153.308 3.15206 0.736659 0
M  V30 1635 H 152.215 3.39667 -1.56772 0
M  V30 1636 H 153.548 4.47718 -2.04474 0
M  V30 1637 N 155.201 0.870884 1.31352 0
M  V30 1638 C 156.111 0.330783 2.32256 0
M  V30 1639 C 157.127 -0.559767 1.6475 0
M  V30 1640 O 158.303 -0.456263 1.96164 0
M  V30 1641 C 155.368 -0.458137 3.4366 0
M  V30 1642 C 154.429 0.460482 4.26823 0
M  V30 1643 C 153.662 -0.290881 5.32907 0
M  V30 1644 O 153.885 -1.51885 5.49806 0
M  V30 1645 O 152.819 0.351732 6.00871 0
M  V30 1646 H 156.645 1.16718 2.80376 0
M  V30 1647 H 154.23 0.634285 1.35267 0
M  V30 1648 H 156.112 -0.905343 4.1156 0
M  V30 1649 H 154.787 -1.27106 2.97701 0
M  V30 1650 H 153.694 0.956207 3.61673 0
M  V30 1651 H 155.027 1.23903 4.7635 0
M  V30 1652 N 156.679 -1.44442 0.630414 0
M  V30 1653 C 157.956 -1.9549 0.0655657 0
M  V30 1654 C 158.336 -1.5724 -1.40851 0
M  V30 1655 O 157.684 -0.846116 -2.12257 0
M  V30 1656 C 157.894 -3.47812 0.287691 0
M  V30 1657 C 159.242 -4.24216 0.180513 0
M  V30 1658 O 160.266 -3.55526 0.219019 0
M  V30 1659 O 159.125 -5.46434 0.0848493 0
M  V30 1660 H 156.219 -0.826688 -0.0227177 0
M  V30 1661 H 158.765 -1.54496 0.702068 0
M  V30 1662 H 157.537 -3.687 1.31056 0
M  V30 1663 H 157.16 -3.95751 -0.382984 0
M  V30 1664 N 158.157 -0.370918 -1.53173 0
M  V30 1665 C 159.087 0.464847 -2.28826 0
M  V30 1666 C 160.068 1.07936 -1.31468 0
M  V30 1667 O 161.253 1.0956 -1.60344 0
M  V30 1668 C 158.383 1.60196 -3.08147 0
M  V30 1669 C 157.337 1.11443 -4.13237 0
M  V30 1670 C 156.663 2.3422 -4.80672 0
M  V30 1671 C 157.963 0.195384 -5.21934 0
M  V30 1672 H 159.657 -0.166329 -2.98938 0
M  V30 1673 H 157.203 -0.0814359 -1.4377 0
M  V30 1674 H 159.156 2.19332 -3.59822 0
M  V30 1675 H 157.88 2.26045 -2.35735 0
M  V30 1676 H 156.539 0.545727 -3.62515 0
M  V30 1677 H 156.187 2.98537 -4.04827 0
M  V30 1678 H 155.887 2.02269 -5.51689 0
M  V30 1679 H 157.411 2.94032 -5.35143 0
M  V30 1680 H 158.825 0.694375 -5.69079 0
M  V30 1681 H 157.222 -0.0335027 -6.00091 0
M  V30 1682 H 158.292 -0.760961 -4.78892 0
M  V30 1683 N 159.635 1.57281 -0.100228 0
M  V30 1684 C 160.582 2.14305 0.856858 0
M  V30 1685 C 161.552 1.06296 1.27634 0
M  V30 1686 O 162.737 1.34109 1.35718 0
M  V30 1687 C 159.877 2.73184 2.10866 0
M  V30 1688 C 158.99 3.95442 1.73925 0
M  V30 1689 C 158.125 4.42468 2.93931 0
M  V30 1690 C 157.164 5.57303 2.5314 0
M  V30 1691 N 156.301 5.99158 3.65997 0
M  V30 1692 H 161.141 2.95772 0.363726 0
M  V30 1693 H 158.678 1.46139 0.167858 0
M  V30 1694 H 160.636 3.05442 2.84185 0
M  V30 1695 H 159.266 1.94437 2.57671 0
M  V30 1696 H 158.318 3.69464 0.905554 0
M  V30 1697 H 159.63 4.78769 1.39935 0
M  V30 1698 H 158.784 4.76537 3.75496 0
M  V30 1699 H 157.523 3.58052 3.31134 0
M  V30 1700 H 156.528 5.22857 1.70003 0
M  V30 1701 H 157.753 6.43471 2.17075 0
M  V30 1702 H 155.699 5.17687 4.02909 0
M  V30 1703 H 155.616 6.77295 3.35869 0
M  V30 1704 H 156.884 6.3786 4.48057 0
M  V30 1705 N 161.113 -0.173488 1.56642 0
M  V30 1706 C 162.529 -0.525174 1.50712 0
M  V30 1707 C 162.729 -1.8476 0.804107 0
M  V30 1708 O 161.785 -2.49869 0.363574 0
M  V30 1709 C 163.098 -0.559937 2.95441 0
M  V30 1710 C 164.646 -0.647288 3.06234 0
M  V30 1711 C 165.121 -0.712963 4.52417 0
M  V30 1712 N 166.612 -0.775911 4.56655 0
M  V30 1713 C 167.347 -0.847264 5.67106 0
M  V30 1714 N 166.843 -0.879585 6.87194 0
M  V30 1715 N 168.636 -0.886117 5.55071 0
M  V30 1716 H 160.787 0.693681 2.00753 0
M  V30 1717 H 163.05 0.249841 0.914485 0
M  V30 1718 H 162.756 0.343049 3.50023 0
M  V30 1719 H 162.63 -1.40718 3.49969 0
M  V30 1720 H 165.017 -1.5407 2.51687 0
M  V30 1721 H 165.098 0.226586 2.54794 0
M  V30 1722 H 164.742 0.176183 5.07594 0
M  V30 1723 H 164.672 -1.60295 5.0161 0
M  V30 1724 H 167.163 -0.759304 3.70193 0
M  V30 1725 H 167.476 -0.935144 7.67121 0
M  V30 1726 H 165.821 -0.847898 6.89808 0
M  V30 1727 H 169.012 -0.857853 4.60172 0
M  V30 1728 H 169.185 -0.938263 6.41171 0
M  V30 1729 N 162.591 -1.51276 -0.441967 0
M  V30 1730 C 164.007 -1.39349 -0.778083 0
M  V30 1731 C 164.207 -0.472212 -1.95889 0
M  V30 1732 O 163.263 0.0743551 -2.5239 0
M  V30 1733 C 164.576 -2.81292 -1.0628 0
M  V30 1734 C 166.124 -2.9041 -1.16751 0
M  V30 1735 C 166.599 -4.33251 -1.48519 0
M  V30 1736 N 168.09 -4.36336 -1.55453 0
M  V30 1737 C 168.825 -5.43885 -1.81596 0
M  V30 1738 N 168.321 -6.61601 -2.05562 0
M  V30 1739 N 170.114 -5.3136 -1.8334 0
M  V30 1740 H 162.265 -2.09729 0.335774 0
M  V30 1741 H 164.528 -0.943925 0.0878028 0
M  V30 1742 H 164.234 -3.50678 -0.267905 0
M  V30 1743 H 164.108 -3.20334 -1.99163 0
M  V30 1744 H 166.495 -2.21225 -1.95304 0
M  V30 1745 H 166.576 -2.54871 -0.217801 0
M  V30 1746 H 166.22 -5.02984 -0.704958 0
M  V30 1747 H 166.15 -4.66299 -2.44689 0
M  V30 1748 H 168.641 -3.51466 -1.38853 0
M  V30 1749 H 168.954 -7.39361 -2.24867 0
M  V30 1750 H 167.299 -6.64725 -2.02894 0
M  V30 1751 H 170.49 -4.38382 -1.64132 0
M  V30 1752 H 170.663 -6.15258 -2.03377 0
M  V30 1753 N 164.069 0.697108 -1.41344 0
M  V30 1754 C 165.346 1.45154 -1.31109 0
M  V30 1755 C 165.726 2.11009 0.0620449 0
M  V30 1756 O 165.074 2.01571 1.07618 0
M  V30 1757 C 165.284 2.47223 -2.46337 0
M  V30 1758 C 166.632 3.1252 -2.87431 0
M  V30 1759 O 167.656 2.57547 -2.46065 0
M  V30 1760 O 166.515 4.12083 -3.58957 0
M  V30 1761 H 163.609 0.646365 -0.515889 0
M  V30 1762 H 166.155 0.727716 -1.53305 0
M  V30 1763 H 164.927 1.97204 -3.37974 0
M  V30 1764 H 164.55 3.27116 -2.2601 0
M  V30 1765 N 165.547 1.27147 0.931209 0
M  V30 1766 C 166.794 1.13278 1.67852 0
M  V30 1767 C 167.122 -0.32204 1.91815 0
M  V30 1768 O 166.377 -1.25224 1.50391 0
M  V30 1769 C 166.676 1.8579 3.05314 0
M  V30 1770 C 166.342 3.35657 3.01073 0
M  V30 1771 C 165.004 3.76536 2.99623 0
M  V30 1772 C 167.356 4.31299 2.92627 0
M  V30 1773 C 164.684 5.11426 2.87506 0
M  V30 1774 C 167.036 5.66242 2.82051 0
M  V30 1775 C 165.7 6.06418 2.7895 0
M  V30 1776 H 164.97 0.414515 0.614214 0
M  V30 1777 H 167.617 1.57712 1.08624 0
M  V30 1778 H 165.922 1.33854 3.68226 0
M  V30 1779 H 167.619 1.72491 3.62005 0
M  V30 1780 H 164.209 3.03146 3.02986 0
M  V30 1781 H 168.393 4.00692 2.92848 0
M  V30 1782 H 163.649 5.41705 2.83489 0
M  V30 1783 H 167.823 6.40026 2.74481 0
M  V30 1784 H 165.45 7.10895 2.69318 0
M  V30 1785 N 167.025 -1.13721 1.09112 0
M  V30 1786 C 168.253 -1.88773 0.846899 0
M  V30 1787 C 168.668 -1.7896 -0.601572 0
M  V30 1788 O 168.025 -1.15394 -1.41388 0
M  V30 1789 C 168.076 -3.3849 1.26913 0
M  V30 1790 O 167.797 -3.48043 2.66079 0
M  V30 1791 C 169.298 -4.30518 1.05682 0
M  V30 1792 H 166.518 -0.59772 0.304914 0
M  V30 1793 H 169.062 -1.43977 1.45227 0
M  V30 1794 H 167.217 -3.80881 0.707723 0
M  V30 1795 H 167.631 -4.4109 2.83795 0
M  V30 1796 H 169.105 -5.3391 1.40156 0
M  V30 1797 H 169.582 -4.392 -0.00563416 0
M  V30 1798 H 170.188 -3.93893 1.60402 0
M  V30 1799 N 168.503 -0.877838 -1.30888 0
M  V30 1800 C 169.436 -0.283995 -2.26426 0
M  V30 1801 C 170.414 0.591361 -1.51465 0
M  V30 1802 O 171.598 0.54304 -1.80509 0
M  V30 1803 C 168.725 0.597129 -3.33395 0
M  V30 1804 C 167.771 -0.207937 -4.25993 0
M  V30 1805 S 168.604 -1.59158 -5.11301 0
M  V30 1806 C 169.76 -0.716791 -6.21782 0
M  V30 1807 H 169.993 -1.09383 -2.76446 0
M  V30 1808 H 167.526 -0.676828 -1.38775 0
M  V30 1809 H 169.484 1.09978 -3.95493 0
M  V30 1810 H 168.145 1.38099 -2.82113 0
M  V30 1811 H 167.338 0.464163 -5.01858 0
M  V30 1812 H 166.94 -0.642963 -3.68432 0
M  V30 1813 H 169.232 0.0692833 -6.77465 0
M  V30 1814 H 170.175 -1.44682 -6.93161 0
M  V30 1815 H 170.583 -0.280855 -5.63801 0
M  V30 1816 N 169.982 1.44106 -0.638065 0
M  V30 1817 C 170.93 2.3248 0.0748149 0
M  V30 1818 C 171.924 1.47746 0.828702 0
M  V30 1819 O 173.13 1.64049 0.740816 0
M  V30 1820 H 169.505 0.750771 0.0429686 0
M  V30 1821 H 171.476 2.90348 -0.688504 0
M  V30 1822 C 170.225 3.31843 1.03805 0
M  V30 1823 H 169.548 3.97059 0.467375 0
M  V30 1824 H 170.988 3.96345 1.50622 0
M  V30 1825 C 169.447 2.61291 2.1267 0
M  V30 1826 O 169.977 2.41702 3.20847 0
M  V30 1827 N 168.183 2.20915 1.88798 0
M  V30 1828 H 167.73 2.37047 1.00829 0
M  V30 1829 H 167.688 1.74038 2.61836 0
M  V30 1830 N 171.46 0.379036 1.52974 0
M  V30 1831 C 172.423 -0.448865 2.24762 0
M  V30 1832 C 173.423 -0.998689 1.26027 0
M  V30 1833 O 174.613 -0.882313 1.50203 0
M  V30 1834 C 171.745 -1.62872 2.99476 0
M  V30 1835 H 172.938 0.179491 2.99362 0
M  V30 1836 H 170.491 0.13096 1.5575 0
M  V30 1837 H 171.226 -2.29479 2.29151 0
M  V30 1838 H 171.011 -1.24128 3.71934 0
M  V30 1839 H 172.501 -2.2151 3.5401 0
M  V30 1840 N 172.938 -1.57226 0.108567 0
M  V30 1841 C 174.187 -1.94008 -0.551703 0
M  V30 1842 C 174.5 -0.993442 -1.68494 0
M  V30 1843 O 175.706 -1.25551 -2.40726 0
M  V30 1844 C 174.162 -3.44763 -1.03279 0
M  V30 1845 C 173.77 -4.47943 0.0714193 0
M  V30 1846 C 175.514 -3.90483 -1.66503 0
M  V30 1847 C 173.421 -5.89865 -0.425779 0
M  V30 1848 H 172.351 -0.724206 -0.209863 0
M  V30 1849 H 175.002 -1.82547 0.186741 0
M  V30 1850 H 173.384 -3.51422 -1.82533 0
M  V30 1851 H 174.558 -4.52942 0.847365 0
M  V30 1852 H 172.873 -4.11913 0.609669 0
M  V30 1853 H 175.47 -4.93925 -2.04798 0
M  V30 1854 H 175.813 -3.29877 -2.53942 0
M  V30 1855 H 176.346 -3.86581 -0.938074 0
M  V30 1856 H 173.085 -6.54202 0.412316 0
M  V30 1857 H 172.605 -5.88309 -1.16843 0
M  V30 1858 H 174.284 -6.40844 -0.890397 0
M  V30 1859 N 174.416 0.165178 -1.56732 0
M  V30 1860 C 175.379 1.18822 -1.95995 0
M  V30 1861 C 176.379 1.3685 -0.84431 0
M  V30 1862 O 177.569 1.34152 -1.11126 0
M  V30 1863 C 174.701 2.5521 -2.26011 0
M  V30 1864 H 175.894 0.851825 -2.87548 0
M  V30 1865 H 173.447 0.407857 -1.50885 0
M  V30 1866 H 174.182 2.93852 -1.37191 0
M  V30 1867 H 173.967 2.43489 -3.07336 0
M  V30 1868 H 175.457 3.28927 -2.57288 0
M  V30 1869 N 175.894 1.51508 0.433938 0
M  V30 1870 C 176.827 1.67756 1.54704 0
M  V30 1871 C 177.805 0.525127 1.53887 0
M  V30 1872 O 178.989 0.749393 1.72963 0
M  V30 1873 C 176.116 1.69424 2.9328 0
M  V30 1874 C 175.162 2.90673 3.12108 0
M  V30 1875 S 175.995 4.51431 2.88046 0
M  V30 1876 C 177.151 4.55849 4.28897 0
M  V30 1877 H 177.384 2.61904 1.40689 0
M  V30 1878 H 174.917 1.41235 0.62386 0
M  V30 1879 H 176.875 1.7107 3.73156 0
M  V30 1880 H 175.536 0.764464 3.04655 0
M  V30 1881 H 174.729 2.88251 4.13434 0
M  V30 1882 H 174.331 2.86786 2.40062 0
M  V30 1883 H 176.623 4.31699 5.22152 0
M  V30 1884 H 177.566 5.57676 4.36351 0
M  V30 1885 H 177.974 3.85137 4.12711 0
M  V30 1886 N 177.372 -0.689602 1.41712 0
M  V30 1887 C 178.649 -1.44457 1.31877 0
M  V30 1888 C 179.029 -2.11039 -0.0508537 0
M  V30 1889 O 178.377 -2.02138 -1.06547 0
M  V30 1890 C 178.587 -2.45913 2.47645 0
M  V30 1891 C 179.935 -3.10991 2.89084 0
M  V30 1892 O 180.959 -2.56238 2.47428 0
M  V30 1893 O 179.818 -4.10174 3.61137 0
M  V30 1894 H 176.912 -0.64362 0.519309 0
M  V30 1895 H 179.458 -0.719576 1.53689 0
M  V30 1896 H 178.23 -1.95409 3.39015 0
M  V30 1897 H 177.853 -3.25913 2.27742 0
M  V30 1898 N 178.85 -1.27639 -0.924453 0
M  V30 1899 C 179.76 -1.12466 -2.05885 0
M  V30 1900 C 180.776 -0.053869 -1.73917 0
M  V30 1901 O 181.952 -0.261012 -1.99702 0
M  V30 1902 C 179.017 -0.776768 -3.37886 0
M  V30 1903 C 178.078 -1.92878 -3.83532 0
M  V30 1904 C 177.311 -1.59739 -5.09234 0
M  V30 1905 O 177.534 -0.506782 -5.68144 0
M  V30 1906 O 176.468 -2.43761 -5.50331 0
M  V30 1907 H 180.294 -2.07671 -2.21599 0
M  V30 1908 H 177.879 -1.06857 -1.04413 0
M  V30 1909 H 179.761 -0.596229 -4.17161 0
M  V30 1910 H 178.436 0.145732 -3.23372 0
M  V30 1911 H 177.343 -2.1644 -3.0513 0
M  V30 1912 H 178.676 -2.8316 -4.02593 0
M  V30 1913 N 180.328 1.1314 -1.09713 0
M  V30 1914 C 181.558 1.88048 -0.855656 0
M  V30 1915 C 181.966 1.79537 0.596919 0
M  V30 1916 O 181.309 1.16196 1.42282 0
M  V30 1917 C 181.371 3.38314 -1.21589 0
M  V30 1918 C 181.035 3.70605 -2.67397 0
M  V30 1919 C 182.032 3.69596 -3.65643 0
M  V30 1920 C 179.717 4.0017 -3.03593 0
M  V30 1921 C 181.711 3.977 -4.9811 0
M  V30 1922 C 179.398 4.27935 -4.36251 0
M  V30 1923 C 180.396 4.26685 -5.33318 0
M  V30 1924 O 180.084 4.53767 -6.63589 0
M  V30 1925 H 179.816 0.60208 -0.307368 0
M  V30 1926 H 182.37 1.44128 -1.46343 0
M  V30 1927 H 180.6 3.82752 -0.551177 0
M  V30 1928 H 182.289 3.94552 -0.953083 0
M  V30 1929 H 183.055 3.46826 -3.39023 0
M  V30 1930 H 178.934 4.00289 -2.2867 0
M  V30 1931 H 182.478 3.9664 -5.73866 0
M  V30 1932 H 178.375 4.50178 -4.62613 0
M  V30 1933 H 179.143 4.71422 -6.69107 0
M  V30 1934 N 181.806 0.884767 1.30421 0
M  V30 1935 C 183.054 0.502112 1.95763 0
M  V30 1936 C 183.375 -0.951815 1.70192 0
M  V30 1937 O 182.645 -1.6692 1.0254 0
M  V30 1938 H 181.225 0.182694 0.724315 0
M  V30 1939 H 183.887 1.1278 1.58955 0
M  V30 1940 H 182.983 0.672188 3.04775 0
M  V30 1941 N 183.284 -1.43765 0.645699 0
M  V30 1942 C 184.512 -2.06253 0.163556 0
M  V30 1943 C 184.927 -1.48352 -1.16778 0
M  V30 1944 O 184.284 -0.611932 -1.71935 0
M  V30 1945 C 184.335 -3.61453 0.0583186 0
M  V30 1946 O 184.056 -4.172 1.33702 0
M  V30 1947 C 185.557 -4.41002 -0.450795 0
M  V30 1948 H 182.777 -0.665413 0.0864077 0
M  V30 1949 H 185.321 -1.84396 0.884222 0
M  V30 1950 H 183.476 -3.82522 -0.612865 0
M  V30 1951 H 183.89 -5.10791 1.19131 0
M  V30 1952 H 185.364 -5.49966 -0.473403 0
M  V30 1953 H 185.841 -4.13488 -1.48068 0
M  V30 1954 H 186.447 -4.24886 0.187637 0
M  V30 1955 N 184.763 -0.387143 -1.52771 0
M  V30 1956 C 186.012 0.19697 -2.00736 0
M  V30 1957 C 186.325 1.48082 -1.27793 0
M  V30 1958 O 187.531 2.14485 -1.66458 0
M  V30 1959 C 185.987 0.401568 -3.57653 0
M  V30 1960 C 185.595 -0.868907 -4.39493 0
M  V30 1961 C 187.339 0.942164 -4.13912 0
M  V30 1962 C 185.246 -0.632705 -5.88006 0
M  V30 1963 H 184.176 0.0773827 -0.750019 0
M  V30 1964 H 186.827 -0.50921 -1.76293 0
M  V30 1965 H 185.209 1.16954 -3.78335 0
M  V30 1966 H 186.383 -1.64133 -4.30577 0
M  V30 1967 H 184.698 -1.33429 -3.94443 0
M  V30 1968 H 187.295 1.13455 -5.22525 0
M  V30 1969 H 187.638 1.9106 -3.69867 0
M  V30 1970 H 188.171 0.233814 -3.97112 0
M  V30 1971 H 184.91 -1.57208 -6.36369 0
M  V30 1972 H 184.43 0.100825 -5.99715 0
M  V30 1973 H 186.109 -0.26642 -6.46451 0
M  V30 1974 N 186.241 1.57166 -0.116904 0
M  V30 1975 C 187.49 1.94298 0.541407 0
M  V30 1976 C 187.803 1.00236 1.67964 0
M  V30 1977 O 189.009 1.26826 2.40057 0
M  V30 1978 C 187.465 3.45306 1.01449 0
M  V30 1979 C 187.073 4.47899 -0.0951738 0
M  V30 1980 C 188.817 3.91361 1.6443 0
M  V30 1981 C 186.724 5.90083 0.394491 0
M  V30 1982 H 185.654 0.725308 0.206019 0
M  V30 1983 H 188.305 1.82446 -0.196419 0
M  V30 1984 H 186.687 3.52385 1.80667 0
M  V30 1985 H 187.861 4.52486 -0.871374 0
M  V30 1986 H 186.176 4.11583 -0.631505 0
M  V30 1987 H 188.773 4.95004 2.02176 0
M  V30 1988 H 189.116 3.3122 2.52189 0
M  V30 1989 H 189.649 3.87073 0.917559 0
M  V30 1990 H 186.388 6.53974 -0.447004 0
M  V30 1991 H 185.908 5.88921 1.13722 0
M  V30 1992 H 187.587 6.41307 0.856399 0
M  V30 1993 N 187.719 -0.156864 1.56817 0
M  V30 1994 C 188.996 -0.899244 1.73704 0
M  V30 1995 C 189.376 -1.99771 0.682254 0
M  V30 1996 O 188.724 -2.26515 -0.300522 0
M  V30 1997 C 188.934 -1.45075 3.17418 0
M  V30 1998 C 190.282 -1.91802 3.7881 0
M  V30 1999 O 191.306 -1.54838 3.20786 0
M  V30 2000 O 190.165 -2.5994 4.80722 0
M  V30 2001 H 187.259 -0.424267 0.709878 0
M  V30 2002 H 189.805 -0.143561 1.69092 0
M  V30 2003 H 188.577 -0.660846 3.85679 0
M  V30 2004 H 188.2 -2.27021 3.26416 0
M  V30 2005 N 189.197 -1.51736 -0.425897 0
M  V30 2006 C 190.608 -1.5732 -1.00536 0
M  V30 2007 C 190.959 -0.403537 -1.92005 0
M  V30 2008 O 190.084 0.478256 -2.11049 0
M  V30 2009 C 190.679 -2.85119 -1.8301 0
M  V30 2010 C 189.238 -2.93236 -2.35987 0
M  V30 2011 C 188.385 -2.52098 -1.15508 0
M  V30 2012 H 191.336 -1.57348 -0.206739 0
M  V30 2013 H 191.357 -2.69526 -2.68581 0
M  V30 2014 H 190.869 -3.7023 -1.16411 0
M  V30 2015 H 188.97 -2.12581 -3.06007 0
M  V30 2016 H 189.083 -3.9713 -2.68001 0
M  V30 2017 H 187.447 -2.05558 -1.50393 0
M  V30 2018 H 188.23 -3.39565 -0.505014 0
M  V30 2019 N 190.675 0.682077 -1.42076 0
M  V30 2020 C 191.922 1.44215 -1.42156 0
M  V30 2021 C 192.25 1.94468 -0.0354186 0
M  V30 2022 O 191.505 1.70816 0.955002 0
M  V30 2023 C 191.804 2.66036 -2.38662 0
M  V30 2024 C 191.47 2.34366 -3.85206 0
M  V30 2025 C 190.132 2.25439 -4.25124 0
M  V30 2026 C 192.484 2.08513 -4.77673 0
M  V30 2027 C 189.812 1.88775 -5.55501 0
M  V30 2028 C 192.164 1.73354 -6.08384 0
M  V30 2029 C 190.828 1.62933 -6.47309 0
M  V30 2030 H 190.098 0.527718 -0.520187 0
M  V30 2031 H 192.745 0.778387 -1.74967 0
M  V30 2032 H 191.05 3.3741 -1.99152 0
M  V30 2033 H 192.747 3.24205 -2.35991 0
M  V30 2034 H 189.337 2.42213 -3.53597 0
M  V30 2035 H 193.521 2.14346 -4.47626 0
M  V30 2036 H 188.777 1.7927 -5.84527 0
M  V30 2037 H 192.951 1.52373 -6.79526 0
M  V30 2038 H 190.578 1.34292 -7.48244 0
M  V30 2039 N 192.153 1.28127 0.917671 0
M  V30 2040 C 193.401 1.14825 1.66312 0
M  V30 2041 C 193.722 -0.304379 1.9261 0
M  V30 2042 O 192.992 -1.21149 1.53947 0
M  V30 2043 H 191.572 0.421953 0.616413 0
M  V30 2044 H 194.234 1.608 1.10134 0
M  V30 2045 H 193.33 1.68489 2.62712 0
M  V30 2046 N 193.631 -1.12557 1.10312 0
M  V30 2047 C 194.879 -1.83675 0.843091 0
M  V30 2048 C 195.2 -1.84435 -0.633131 0
M  V30 2049 O 194.47 -1.30657 -1.45964 0
M  V30 2050 H 193.05 -0.680138 0.308904 0
M  V30 2051 H 195.712 -1.36301 1.39313 0
M  V30 2052 H 194.808 -2.87908 1.2048 0
M  V30 2053 N 195.109 -0.891671 -1.2995 0
M  V30 2054 C 196.525 -0.58662 -1.48428 0
M  V30 2055 C 196.725 0.873951 -1.81561 0
M  V30 2056 O 195.781 1.65471 -1.90724 0
M  V30 2057 C 197.094 -1.50553 -2.60296 0
M  V30 2058 C 198.642 -1.50988 -2.74175 0
M  V30 2059 C 199.117 -2.41488 -3.89163 0
M  V30 2060 N 200.608 -2.39489 -3.96483 0
M  V30 2061 C 201.343 -3.06223 -4.84784 0
M  V30 2062 N 200.839 -3.82206 -5.77833 0
M  V30 2063 N 202.632 -2.95421 -4.78208 0
M  V30 2064 H 194.783 -1.83644 -1.06718 0
M  V30 2065 H 197.046 -0.786455 -0.529332 0
M  V30 2066 H 196.752 -2.54581 -2.42654 0
M  V30 2067 H 196.626 -1.22008 -3.56923 0
M  V30 2068 H 199.013 -0.47708 -2.91218 0
M  V30 2069 H 199.094 -1.83567 -1.78148 0
M  V30 2070 H 198.738 -3.44857 -3.72876 0
M  V30 2071 H 198.668 -2.06222 -4.84541 0
M  V30 2072 H 201.159 -1.84278 -3.29924 0
M  V30 2073 H 201.472 -4.302 -6.41988 0
M  V30 2074 H 199.817 -3.86313 -5.77743 0
M  V30 2075 H 203.008 -2.35581 -4.04499 0
M  V30 2076 H 203.181 -3.47704 -5.46814 0
M  V30 2077 N 196.587 1.43421 -0.653314 0
M  V30 2078 C 197.497 2.34568 0.0388565 0
M  V30 2079 C 198.513 1.53888 0.81207 0
M  V30 2080 O 199.689 1.86539 0.759294 0
M  V30 2081 C 196.754 3.32167 0.993269 0
M  V30 2082 C 195.815 4.28751 0.216977 0
M  V30 2083 C 195.048 5.21688 1.12593 0
M  V30 2084 O 195.271 5.19052 2.36519 0
M  V30 2085 O 194.205 5.98919 0.598284 0
M  V30 2086 H 198.031 2.95251 -0.711386 0
M  V30 2087 H 195.616 1.43564 -0.413502 0
M  V30 2088 H 197.498 3.92183 1.54176 0
M  V30 2089 H 196.173 2.73987 1.72374 0
M  V30 2090 H 195.08 3.72215 -0.375101 0
M  V30 2091 H 196.413 4.89913 -0.473924 0
M  V30 2092 N 198.065 0.39524 1.52563 0
M  V30 2093 C 199.028 -0.425001 2.25225 0
M  V30 2094 C 200.028 -0.985266 1.27079 0
M  V30 2095 O 201.218 -0.866332 1.5113 0
M  V30 2096 C 198.35 -1.59686 3.01186 0
M  V30 2097 H 199.543 0.211233 2.99155 0
M  V30 2098 H 197.096 0.147472 1.55603 0
M  V30 2099 H 197.831 -2.27035 2.31572 0
M  V30 2100 H 197.616 -1.20176 3.73229 0
M  V30 2101 H 199.106 -2.17743 3.5634 0
M  V30 2102 N 199.544 -1.57102 0.125237 0
M  V30 2103 C 200.793 -1.94582 -0.531095 0
M  V30 2104 C 201.106 -1.01126 -1.6743 0
M  V30 2105 O 202.312 -1.28097 -2.39381 0
M  V30 2106 C 200.768 -3.45839 -0.996164 0
M  V30 2107 C 200.376 -4.47842 0.118926 0
M  V30 2108 C 202.12 -3.92227 -1.62352 0
M  V30 2109 C 200.027 -5.90284 -0.363192 0
M  V30 2110 H 198.957 -0.726391 -0.20217 0
M  V30 2111 H 201.608 -1.82339 0.206092 0
M  V30 2112 H 199.99 -3.53338 -1.78796 0
M  V30 2113 H 201.164 -4.52018 0.895358 0
M  V30 2114 H 199.479 -4.11243 0.653324 0
M  V30 2115 H 202.076 -4.96069 -1.99548 0
M  V30 2116 H 202.419 -3.32552 -2.50429 0
M  V30 2117 H 202.952 -3.87554 -0.897019 0
M  V30 2118 H 199.691 -6.53728 0.481679 0
M  V30 2119 H 199.211 -5.89515 -1.10597 0
M  V30 2120 H 200.89 -6.41752 -0.822377 0
M  V30 2121 N 201.022 0.148545 -1.56898 0
M  V30 2122 C 202.438 0.501131 -1.51528 0
M  V30 2123 C 202.638 1.83458 -0.833399 0
M  V30 2124 O 201.694 2.49259 -0.40328 0
M  V30 2125 C 203.007 0.512864 -2.96294 0
M  V30 2126 C 204.555 0.598487 -3.07225 0
M  V30 2127 C 205.03 0.640897 -4.53494 0
M  V30 2128 N 206.521 0.703163 -4.57832 0
M  V30 2129 C 207.256 0.756935 -5.68382 0
M  V30 2130 N 206.752 0.770147 -6.88506 0
M  V30 2131 N 208.545 0.797698 -5.56411 0
M  V30 2132 H 200.696 -0.725532 -1.99624 0
M  V30 2133 H 202.959 -0.264358 -0.910395 0
M  V30 2134 H 202.665 -0.398691 -3.49433 0
M  V30 2135 H 202.539 1.35133 -3.52163 0
M  V30 2136 H 204.926 1.50046 -2.54106 0
M  V30 2137 H 205.007 -0.267093 -2.54402 0
M  V30 2138 H 204.651 -0.256915 -5.0725 0
M  V30 2139 H 204.581 1.52295 -5.04097 0
M  V30 2140 H 207.072 0.700314 -3.71354 0
M  V30 2141 H 207.385 0.812983 -7.68512 0
M  V30 2142 H 205.73 0.738049 -6.9107 0
M  V30 2143 H 208.921 0.784535 -4.61479 0
M  V30 2144 H 209.094 0.83614 -6.42583 0
M  V30 2145 N 202.5 1.5196 0.417844 0
M  V30 2146 C 203.916 1.40569 0.755816 0
M  V30 2147 C 204.116 0.503316 1.95113 0
M  V30 2148 O 203.172 -0.0341925 2.52477 0
M  V30 2149 C 204.485 2.82947 1.01791 0
M  V30 2150 C 206.033 2.92231 1.12116 0
M  V30 2151 C 206.508 4.35559 1.41608 0
M  V30 2152 N 207.999 4.38753 1.48491 0
M  V30 2153 C 208.734 5.46705 1.7292 0
M  V30 2154 N 208.23 6.64788 1.95011 0
M  V30 2155 N 210.023 5.34209 1.74863 0
M  V30 2156 H 202.174 2.09168 -0.369098 0
M  V30 2157 H 204.437 0.942409 -0.102809 0
M  V30 2158 H 204.143 3.5106 0.212081 0
M  V30 2159 H 204.017 3.23462 1.94042 0
M  V30 2160 H 206.404 2.24304 1.9176 0
M  V30 2161 H 206.485 2.55185 0.177225 0
M  V30 2162 H 206.129 5.04042 0.624848 0
M  V30 2163 H 206.059 4.70133 2.37239 0
M  V30 2164 H 208.55 3.5363 1.33244 0
M  V30 2165 H 208.863 7.42845 2.13076 0
M  V30 2166 H 207.208 6.67869 1.92293 0
M  V30 2167 H 210.399 4.40937 1.57137 0
M  V30 2168 H 210.572 6.18415 1.93563 0
M  V30 2169 N 203.978 -0.674533 1.42435 0
M  V30 2170 C 205.394 -0.98769 1.25367 0
M  V30 2171 C 205.594 -2.00879 0.158044 0
M  V30 2172 O 204.65 -2.48075 -0.470633 0
M  V30 2173 C 205.963 -1.49224 2.6106 0
M  V30 2174 C 207.511 -1.61 2.68417 0
M  V30 2175 C 207.986 -2.14852 4.04478 0
M  V30 2176 N 209.477 -2.22185 4.06434 0
M  V30 2177 C 210.212 -2.64928 5.08528 0
M  V30 2178 N 209.708 -3.07121 6.21006 0
M  V30 2179 N 211.501 -2.64679 4.95885 0
M  V30 2180 H 203.652 0.00152503 2.124 0
M  V30 2181 H 205.915 -0.0618434 0.945981 0
M  V30 2182 H 205.621 -0.816453 3.42092 0
M  V30 2183 H 205.495 -2.47094 2.84999 0
M  V30 2184 H 207.882 -2.27686 1.87732 0
M  V30 2185 H 207.963 -0.616195 2.48267 0
M  V30 2186 H 207.607 -1.48775 4.85622 0
M  V30 2187 H 207.537 -3.15024 4.2198 0
M  V30 2188 H 210.028 -1.92435 3.25234 0
M  V30 2189 H 210.341 -3.38423 6.94759 0
M  V30 2190 H 208.686 -3.04978 6.24511 0
M  V30 2191 H 211.877 -2.31078 4.07088 0
M  V30 2192 H 212.05 -2.9767 5.75584 0
M  V30 2193 N 205.456 -1.28612 -0.910864 0
M  V30 2194 C 206.705 -1.15311 -1.65488 0
M  V30 2195 C 207.018 0.296999 -1.93332 0
M  V30 2196 O 208.224 0.551168 -2.65847 0
M  V30 2197 C 206.68 -2.01599 -2.98137 0
M  V30 2198 C 206.288 -3.51367 -2.7793 0
M  V30 2199 C 208.032 -1.96993 -3.76024 0
M  V30 2200 C 205.939 -4.29797 -4.06237 0
M  V30 2201 H 204.869 -0.42796 -0.620779 0
M  V30 2202 H 207.52 -1.53166 -1.01057 0
M  V30 2203 H 205.902 -1.56603 -3.63719 0
M  V30 2204 H 207.076 -4.0434 -2.21011 0
M  V30 2205 H 205.391 -3.57529 -2.13452 0
M  V30 2206 H 207.988 -2.52856 -4.71135 0
M  V30 2207 H 208.331 -0.94733 -4.05378 0
M  V30 2208 H 208.864 -2.39973 -3.17266 0
M  V30 2209 H 205.603 -5.32648 -3.82055 0
M  V30 2210 H 205.123 -3.81596 -4.62757 0
M  V30 2211 H 206.802 -4.39869 -4.74473 0
M  V30 2212 N 206.934 1.1197 -1.10907 0
M  V30 2213 C 208.183 1.82947 -0.849302 0
M  V30 2214 C 208.496 1.85275 0.627112 0
M  V30 2215 O 209.702 2.52296 1.00295 0
M  V30 2216 C 208.158 3.28529 -1.46959 0
M  V30 2217 C 207.766 3.34546 -2.97965 0
M  V30 2218 C 209.51 4.04443 -1.28942 0
M  V30 2219 C 207.417 4.74491 -3.53004 0
M  V30 2220 H 206.347 0.685477 -0.314065 0
M  V30 2221 H 208.998 1.2604 -1.33365 0
M  V30 2222 H 207.38 3.85333 -0.912917 0
M  V30 2223 H 208.554 2.87654 -3.59989 0
M  V30 2224 H 206.869 2.72108 -3.15192 0
M  V30 2225 H 209.466 5.07787 -1.67502 0
M  V30 2226 H 209.809 4.15656 -0.231456 0
M  V30 2227 H 210.342 3.5401 -1.81443 0
M  V30 2228 H 207.081 4.68474 -4.58489 0
M  V30 2229 H 206.601 5.21816 -2.9575 0
M  V30 2230 H 208.28 5.4344 -3.51115 0
M  V30 2231 N 208.412 0.89855 1.29475 0
M  V30 2232 C 209.828 0.594483 1.48115 0
M  V30 2233 C 210.028 -0.86431 1.82022 0
M  V30 2234 O 209.084 -1.64457 1.91599 0
M  V30 2235 C 210.397 1.51932 2.59494 0
M  V30 2236 C 211.945 1.5244 2.7337 0
M  V30 2237 C 212.42 2.43548 3.87877 0
M  V30 2238 N 213.911 2.41589 3.95208 0
M  V30 2239 C 214.646 3.08789 4.83153 0
M  V30 2240 N 214.142 3.85265 5.75798 0
M  V30 2241 N 215.935 2.97952 4.76635 0
M  V30 2242 H 208.086 1.84207 1.05742 0
M  V30 2243 H 210.349 0.789251 0.525154 0
M  V30 2244 H 210.055 2.55865 2.41301 0
M  V30 2245 H 209.929 1.23899 3.56271 0
M  V30 2246 H 212.316 0.492518 2.90961 0
M  V30 2247 H 212.397 1.8451 1.77172 0
M  V30 2248 H 212.041 3.46829 3.71041 0
M  V30 2249 H 211.971 2.08788 4.83441 0
M  V30 2250 H 214.462 1.86025 3.28943 0
M  V30 2251 H 214.775 4.33598 6.39697 0
M  V30 2252 H 213.12 3.89371 5.75687 0
M  V30 2253 H 216.311 2.37723 4.03244 0
M  V30 2254 H 216.484 3.50599 5.44962 0
M  V30 2255 N 209.89 -1.43072 0.660911 0
M  V30 2256 C 211.118 -2.06067 0.185422 0
M  V30 2257 C 211.533 -1.49582 -1.15198 0
M  V30 2258 O 210.89 -0.630134 -1.71276 0
M  V30 2259 C 210.941 -3.61371 0.0966523 0
M  V30 2260 O 210.662 -4.15758 1.38119 0
M  V30 2261 C 212.163 -4.41455 -0.403996 0
M  V30 2262 H 209.383 -0.664459 0.0934604 0
M  V30 2263 H 211.927 -1.83447 0.90373 0
M  V30 2264 H 210.082 -3.8315 -0.572259 0
M  V30 2265 H 210.496 -5.09499 1.24542 0
M  V30 2266 H 211.97 -5.50437 -0.415045 0
M  V30 2267 H 212.447 -4.15036 -1.43674 0
M  V30 2268 H 213.053 -4.24663 0.232691 0
M  V30 2269 N 211.368 -0.403325 -1.52352 0
M  V30 2270 C 212.614 0.174605 -2.02047 0
M  V30 2271 C 212.947 1.45282 -1.28867 0
M  V30 2272 O 212.222 1.90483 -0.393257 0
M  V30 2273 C 212.505 0.428238 -3.57545 0
M  V30 2274 C 212.358 -0.866248 -4.4138 0
M  V30 2275 C 213.677 1.21287 -4.23057 0
M  V30 2276 H 210.796 0.0619851 -0.734389 0
M  V30 2277 H 213.438 -0.53565 -1.82293 0
M  V30 2278 H 211.588 1.03327 -3.74507 0
M  V30 2279 H 213.26 -1.50265 -4.3614 0
M  V30 2280 H 211.503 -1.47851 -4.07827 0
M  V30 2281 H 212.174 -0.643249 -5.48239 0
M  V30 2282 H 214.65 0.700703 -4.10158 0
M  V30 2283 H 213.526 1.35909 -5.31808 0
M  V30 2284 H 213.787 2.23193 -3.81625 0
M  V30 2285 N 212.846 1.57033 -0.133567 0
M  V30 2286 C 214.094 1.953 0.519848 0
M  V30 2287 C 214.415 1.01866 1.66278 0
M  V30 2288 O 213.685 0.0776513 1.95746 0
M  V30 2289 H 212.265 0.721091 0.195032 0
M  V30 2290 H 214.927 1.93809 -0.205921 0
M  V30 2291 H 214.023 2.98695 0.904854 0
M  V30 2292 N 214.325 -0.140222 1.56975 0
M  V30 2293 C 215.235 -1.19223 2.02047 0
M  V30 2294 C 216.251 -1.46612 0.937062 0
M  V30 2295 O 217.427 -1.58148 1.24704 0
M  V30 2296 C 214.492 -2.50414 2.39778 0
M  V30 2297 C 213.553 -2.30612 3.621 0
M  V30 2298 C 212.786 -3.55547 3.98023 0
M  V30 2299 O 213.009 -4.62004 3.34528 0
M  V30 2300 O 211.943 -3.47808 4.91237 0
M  V30 2301 H 215.769 -0.839559 2.91865 0
M  V30 2302 H 213.354 -0.349453 1.45256 0
M  V30 2303 H 215.236 -3.27747 2.64877 0
M  V30 2304 H 213.911 -2.85198 1.53114 0
M  V30 2305 H 212.818 -1.51207 3.4218 0
M  V30 2306 H 214.151 -2.00741 4.49404 0
M  V30 2307 N 215.803 -1.52179 -0.40978 0
M  V30 2308 C 216.766 -1.74853 -1.48186 0
M  V30 2309 C 217.766 -0.618417 -1.48433 0
M  V30 2310 O 218.956 -0.886286 -1.49969 0
M  V30 2311 C 216.088 -1.8303 -2.87598 0
M  V30 2312 H 217.281 -2.70559 -1.29374 0
M  V30 2313 H 214.834 -1.42586 -0.640233 0
M  V30 2314 H 215.569 -0.89236 -3.11781 0
M  V30 2315 H 215.354 -2.65187 -2.88822 0
M  V30 2316 H 216.844 -2.02316 -3.65319 0
M  V30 2317 N 217.281 0.66697 -1.42791 0
M  V30 2318 C 218.191 1.80962 -1.49299 0
M  V30 2319 C 219.207 1.69775 -0.381108 0
M  V30 2320 O 220.383 1.91188 -0.633188 0
M  V30 2321 C 217.448 3.17156 -1.40045 0
M  V30 2322 C 216.509 3.40242 -2.6179 0
M  V30 2323 C 215.742 4.69939 -2.52969 0
M  V30 2324 O 215.965 5.48372 -1.56985 0
M  V30 2325 O 214.899 4.94441 -3.43237 0
M  V30 2326 H 218.725 1.78427 -2.45759 0
M  V30 2327 H 216.31 0.823713 -1.24641 0
M  V30 2328 H 218.192 3.98413 -1.37276 0
M  V30 2329 H 216.867 3.20312 -0.467138 0
M  V30 2330 H 215.774 2.58802 -2.70134 0
M  V30 2331 H 217.107 3.41923 -3.54047 0
M  V30 2332 N 218.759 1.29093 0.90403 0
M  V30 2333 C 219.706 1.13853 2.00764 0
M  V30 2334 C 220.676 0.0330084 1.66067 0
M  V30 2335 O 221.861 0.199733 1.89752 0
M  V30 2336 C 219.001 0.816537 3.35301 0
M  V30 2337 C 218.114 2.00206 3.82807 0
M  V30 2338 C 217.249 1.61983 5.059 0
M  V30 2339 C 216.288 2.77143 5.45764 0
M  V30 2340 N 215.425 2.39346 6.60044 0
M  V30 2341 H 220.265 2.08276 2.13132 0
M  V30 2342 H 217.802 1.03648 1.04381 0
M  V30 2343 H 219.76 0.610557 4.12708 0
M  V30 2344 H 218.39 -0.090779 3.22672 0
M  V30 2345 H 217.442 2.31988 3.01473 0
M  V30 2346 H 218.754 2.86512 4.08304 0
M  V30 2347 H 217.908 1.37649 5.90879 0
M  V30 2348 H 216.647 0.728202 4.82233 0
M  V30 2349 H 215.652 3.02165 4.59322 0
M  V30 2350 H 216.877 3.66964 5.71414 0
M  V30 2351 H 214.823 1.52665 6.37989 0
M  V30 2352 H 214.74 3.19185 6.85315 0
M  V30 2353 H 216.008 2.1832 7.48303 0
M  V30 2354 N 220.237 -1.11381 1.11499 0
M  V30 2355 C 221.653 -1.35143 0.849031 0
M  V30 2356 C 221.853 -1.94515 -0.525938 0
M  V30 2357 O 220.909 -2.1785 -1.27662 0
M  V30 2358 C 222.222 -2.28249 1.95762 0
M  V30 2359 C 223.77 -2.41812 1.98736 0
M  V30 2360 C 224.245 -3.3824 3.088 0
M  V30 2361 N 225.736 -3.45803 3.08179 0
M  V30 2362 C 226.471 -4.20358 3.89982 0
M  V30 2363 N 225.967 -4.97884 4.8175 0
M  V30 2364 N 227.76 -4.15877 3.78157 0
M  V30 2365 H 219.911 -0.712062 2.00109 0
M  V30 2366 H 222.174 -0.376025 0.870235 0
M  V30 2367 H 221.88 -1.91817 2.94787 0
M  V30 2368 H 221.754 -3.28473 1.85433 0
M  V30 2369 H 224.141 -2.77518 1.00338 0
M  V30 2370 H 224.222 -1.41437 2.13141 0
M  V30 2371 H 223.866 -3.03261 4.07425 0
M  V30 2372 H 223.796 -4.38471 2.91635 0
M  V30 2373 H 226.287 -2.90506 2.41691 0
M  V30 2374 H 226.6 -5.52142 5.40702 0
M  V30 2375 H 224.945 -4.97043 4.85771 0
M  V30 2376 H 228.136 -3.544 3.05808 0
M  V30 2377 H 228.309 -4.73723 4.42143 0
M  V30 2378 N 221.715 -0.905404 -1.28997 0
M  V30 2379 C 222.962 -0.534248 -1.95325 0
M  V30 2380 C 223.29 0.920535 -1.71337 0
M  V30 2381 O 222.545 1.66861 -1.02254 0
M  V30 2382 C 222.844 -0.779906 -3.48787 0
M  V30 2383 C 222.51 -2.21293 -3.92861 0
M  V30 2384 C 221.172 -2.60475 -4.04606 0
M  V30 2385 C 223.524 -3.14587 -4.15553 0
M  V30 2386 C 220.852 -3.9212 -4.36416 0
M  V30 2387 C 223.204 -4.45787 -4.48839 0
M  V30 2388 C 221.868 -4.84834 -4.58794 0
M  V30 2389 H 221.138 -0.195495 -0.714747 0
M  V30 2390 H 223.785 -1.14514 -1.53488 0
M  V30 2391 H 222.09 -0.0861365 -3.91705 0
M  V30 2392 H 223.787 -0.472029 -3.98212 0
M  V30 2393 H 220.377 -1.89887 -3.84241 0
M  V30 2394 H 224.561 -2.85528 -4.0594 0
M  V30 2395 H 219.817 -4.22086 -4.42327 0
M  V30 2396 H 223.991 -5.18098 -4.65346 0
M  V30 2397 H 221.618 -5.86877 -4.83197 0
M  V30 2398 N 223.193 1.4272 -0.668489 0
M  V30 2399 C 224.609 1.55992 -0.33745 0
M  V30 2400 C 224.809 1.64933 1.15756 0
M  V30 2401 O 223.865 1.61278 1.94282 0
M  V30 2402 C 225.178 2.81314 -1.06222 0
M  V30 2403 C 226.726 2.95078 -1.04394 0
M  V30 2404 C 227.201 4.23252 -1.74991 0
M  V30 2405 N 228.692 4.3015 -1.71829 0
M  V30 2406 C 229.427 5.28127 -2.23315 0
M  V30 2407 N 228.923 6.32293 -2.83156 0
M  V30 2408 N 230.716 5.19882 -2.13726 0
M  V30 2409 H 222.867 1.3516 -1.63846 0
M  V30 2410 H 225.13 0.650174 -0.689912 0
M  V30 2411 H 224.836 2.80823 -2.11734 0
M  V30 2412 H 224.71 3.72012 -0.62344 0
M  V30 2413 H 227.097 2.951 0.0028244 0
M  V30 2414 H 227.178 2.05627 -1.52155 0
M  V30 2415 H 226.822 4.2399 -2.79633 0
M  V30 2416 H 226.752 5.11626 -1.24685 0
M  V30 2417 H 229.243 3.55499 -1.28175 0
M  V30 2418 H 229.556 7.03398 -3.20079 0
M  V30 2419 H 227.901 6.32873 -2.87223 0
M  V30 2420 H 231.092 4.37423 -1.66669 0
M  V30 2421 H 231.265 5.96077 -2.54158 0
M  V30 2422 N 224.671 0.411399 1.52136 0
M  V30 2423 C 225.581 -0.419774 2.30814 0
M  V30 2424 C 226.597 -1.0515 1.38634 0
M  V30 2425 O 227.773 -1.05252 1.71709 0
M  V30 2426 C 224.838 -1.52019 3.11594 0
M  V30 2427 C 223.899 -0.91129 4.19516 0
M  V30 2428 C 223.132 -1.95927 4.96436 0
M  V30 2429 O 223.355 -3.17775 4.73683 0
M  V30 2430 O 222.289 -1.56423 5.81219 0
M  V30 2431 H 226.115 0.221805 3.02889 0
M  V30 2432 H 223.7 0.174547 1.48377 0
M  V30 2433 H 225.582 -2.15898 3.61892 0
M  V30 2434 H 224.257 -2.14633 2.42311 0
M  V30 2435 H 223.164 -0.235157 3.7336 0
M  V30 2436 H 224.497 -0.32904 4.91099 0
M  V30 2437 N 226.149 -1.5696 0.141893 0
M  V30 2438 C 227.426 -1.87553 -0.555281 0
M  V30 2439 C 227.806 -1.04699 -1.83306 0
M  V30 2440 O 227.154 -0.132346 -2.28116 0
M  V30 2441 C 227.364 -3.39093 -0.825664 0
M  V30 2442 C 228.712 -4.08199 -1.16869 0
M  V30 2443 O 229.736 -3.44242 -0.915185 0
M  V30 2444 O 228.595 -5.21139 -1.6455 0
M  V30 2445 H 225.689 -0.777188 -0.282679 0
M  V30 2446 H 228.235 -1.68763 0.17812 0
M  V30 2447 H 227.007 -3.91221 0.0788633 0
M  V30 2448 H 226.63 -3.63393 -1.61343 0
M  V30 2449 N 227.627 0.131896 -1.57047 0
M  V30 2450 C 228.59 1.14638 -1.98471 0
M  V30 2451 C 229.59 1.35029 -0.873148 0
M  V30 2452 O 230.78 1.31764 -1.13946 0
M  V30 2453 C 227.912 2.50358 -2.31373 0
M  V30 2454 H 229.105 0.79064 -2.8929 0
M  V30 2455 H 226.658 0.375761 -1.51716 0
M  V30 2456 H 227.393 2.90876 -1.43393 0
M  V30 2457 H 227.178 2.36915 -3.12432 0
M  V30 2458 H 228.668 3.23395 -2.64207 0
M  V30 2459 N 229.106 1.52395 0.401703 0
M  V30 2460 C 230.036 1.79231 1.49661 0
M  V30 2461 C 231.017 0.643654 1.57452 0
M  V30 2462 O 232.202 0.889989 1.72606 0
M  V30 2463 C 229.332 1.94971 2.87409 0
M  V30 2464 C 228.286 3.10604 2.94465 0
M  V30 2465 C 227.612 3.11577 4.34538 0
M  V30 2466 C 228.912 4.49921 2.6527 0
M  V30 2467 H 230.606 2.70917 1.27454 0
M  V30 2468 H 228.152 1.30362 0.6117 0
M  V30 2469 H 230.105 2.12328 3.63999 0
M  V30 2470 H 228.829 0.999632 3.10926 0
M  V30 2471 H 227.488 2.93009 2.20321 0
M  V30 2472 H 227.136 2.14277 4.55076 0
M  V30 2473 H 226.836 3.89247 4.40183 0
M  V30 2474 H 228.36 3.31073 5.13053 0
M  V30 2475 H 229.774 4.67683 3.31581 0
M  V30 2476 H 228.171 5.29564 2.82281 0
M  V30 2477 H 229.241 4.57507 1.60671 0
M  V30 2478 N 230.584 -0.659388 1.43143 0
M  V30 2479 C 232 -0.974337 1.26407 0
M  V30 2480 C 232.2 -2.007 0.179341 0
M  V30 2481 O 231.256 -2.4856 -0.444295 0
M  V30 2482 C 232.569 -1.46447 2.62628 0
M  V30 2483 C 234.117 -1.58144 2.7011 0
M  V30 2484 C 234.592 -2.1055 4.06734 0
M  V30 2485 N 236.083 -2.17861 4.08767 0
M  V30 2486 C 236.818 -2.59519 5.1131 0
M  V30 2487 N 236.314 -3.00518 6.24228 0
M  V30 2488 N 238.107 -2.59404 4.98664 0
M  V30 2489 H 230.258 0.0240528 2.12386 0
M  V30 2490 H 232.521 -0.0518065 0.946583 0
M  V30 2491 H 232.227 -0.780123 3.42939 0
M  V30 2492 H 232.101 -2.44058 2.87603 0
M  V30 2493 H 234.488 -2.25682 1.90136 0
M  V30 2494 H 234.569 -0.589828 2.48907 0
M  V30 2495 H 234.213 -1.43616 4.87172 0
M  V30 2496 H 234.143 -3.10531 4.25298 0
M  V30 2497 H 236.634 -1.88975 3.27257 0
M  V30 2498 H 236.947 -3.31036 6.98309 0
M  V30 2499 H 235.292 -2.98337 6.2771 0
M  V30 2500 H 238.483 -2.26747 4.09516 0
M  V30 2501 H 238.656 -2.91548 5.78709 0
M  V30 2502 N 232.062 -1.29571 -0.897171 0
M  V30 2503 C 232.995 -1.0924 -2.00354 0
M  V30 2504 C 233.973 -0.00354011 -1.626 0
M  V30 2505 O 235.157 -0.15473 -1.87864 0
M  V30 2506 C 232.284 -0.66352 -3.32137 0
M  V30 2507 C 231.33 -1.75146 -3.88878 0
M  V30 2508 S 232.163 -3.35124 -4.17674 0
M  V30 2509 C 233.319 -2.9411 -5.52494 0
M  V30 2510 H 233.552 -2.02907 -2.17292 0
M  V30 2511 H 231.085 -1.13746 -1.04408 0
M  V30 2512 H 233.043 -0.422791 -4.08317 0
M  V30 2513 H 231.704 0.253588 -3.13075 0
M  V30 2514 H 230.897 -1.40337 -4.84068 0
M  V30 2515 H 230.499 -1.94584 -3.19395 0
M  V30 2516 H 232.791 -2.41312 -6.33068 0
M  V30 2517 H 233.734 -3.88161 -5.9223 0
M  V30 2518 H 234.142 -2.32332 -5.14473 0
M  V30 2519 N 233.54 1.10788 -1.12088 0
M  V30 2520 C 234.473 2.16237 -0.729168 0
M  V30 2521 C 235.451 1.60207 0.277921 0
M  V30 2522 O 236.635 1.87707 0.172737 0
M  V30 2523 C 233.762 3.38609 -0.0786848 0
M  V30 2524 C 232.808 4.13322 -1.05201 0
M  V30 2525 S 233.641 4.69371 -2.57781 0
M  V30 2526 C 234.797 5.95058 -1.94053 0
M  V30 2527 H 235.03 2.4913 -1.62239 0
M  V30 2528 H 232.563 1.22519 -0.939603 0
M  V30 2529 H 234.521 4.09473 0.290254 0
M  V30 2530 H 233.182 3.03962 0.791593 0
M  V30 2531 H 232.375 5.01051 -0.544433 0
M  V30 2532 H 231.977 3.48251 -1.36371 0
M  V30 2533 H 234.269 6.65278 -1.28107 0
M  V30 2534 H 235.212 6.50472 -2.79807 0
M  V30 2535 H 235.62 5.46918 -1.39787 0
M  V30 2536 N 235.018 0.912232 1.28515 0
M  V30 2537 C 236.434 0.610159 1.47476 0
M  V30 2538 C 236.634 -0.844955 1.82928 0
M  V30 2539 O 235.69 -1.62416 1.93332 0
M  V30 2540 C 237.003 1.54675 2.57868 0
M  V30 2541 C 238.551 1.55331 2.71738 0
M  V30 2542 C 239.026 2.47649 3.85272 0
M  V30 2543 N 240.517 2.45767 3.92623 0
M  V30 2544 C 241.252 3.13896 4.79851 0
M  V30 2545 N 240.748 3.9135 5.71679 0
M  V30 2546 N 242.541 3.02991 4.73448 0
M  V30 2547 H 234.692 1.85318 1.03783 0
M  V30 2548 H 236.955 0.794777 0.516753 0
M  V30 2549 H 236.661 2.5841 2.38574 0
M  V30 2550 H 236.535 1.27671 3.54937 0
M  V30 2551 H 238.922 0.52335 2.90422 0
M  V30 2552 H 239.003 1.86378 1.75205 0
M  V30 2553 H 238.647 3.50745 3.67342 0
M  V30 2554 H 238.577 2.13904 4.81199 0
M  V30 2555 H 241.068 1.89503 3.26951 0
M  V30 2556 H 241.381 4.40359 6.35062 0
M  V30 2557 H 239.726 3.95455 5.71524 0
M  V30 2558 H 242.917 2.41987 4.007 0
M  V30 2559 H 243.09 3.5636 5.41213 0
M  V30 2560 N 236.496 -1.42363 0.676048 0
M  V30 2561 C 237.459 -2.29199 0.00766941 0
M  V30 2562 C 238.459 -1.43389 -0.727745 0
M  V30 2563 O 239.649 -1.64764 -0.56556 0
M  V30 2564 C 236.781 -3.2591 -0.999785 0
M  V30 2565 H 237.974 -2.89794 0.771988 0
M  V30 2566 H 235.527 -1.50024 0.438468 0
M  V30 2567 H 236.262 -2.70256 -1.79255 0
M  V30 2568 H 236.047 -3.89202 -0.475829 0
M  V30 2569 H 237.537 -3.91028 -1.46583 0
M  V30 2570 N 237.974 -0.419461 -1.51915 0
M  V30 2571 C 239.22 0.153166 -2.02221 0
M  V30 2572 C 239.553 1.43907 -1.30401 0
M  V30 2573 O 238.828 1.90055 -0.413438 0
M  V30 2574 C 239.111 0.390291 -3.57979 0
M  V30 2575 C 238.964 -0.913014 -4.40436 0
M  V30 2576 C 240.283 1.16794 -4.2432 0
M  V30 2577 H 237.402 0.0541924 -0.735005 0
M  V30 2578 H 240.044 -0.554955 -1.81715 0
M  V30 2579 H 238.194 0.993491 -3.75582 0
M  V30 2580 H 239.866 -1.54882 -4.34522 0
M  V30 2581 H 238.109 -1.52168 -4.06236 0
M  V30 2582 H 238.78 -0.701361 -5.47526 0
M  V30 2583 H 241.256 0.657161 -4.10878 0
M  V30 2584 H 240.132 1.3026 -5.3322 0
M  V30 2585 H 240.393 2.19132 -3.83971 0
M  V30 2586 N 239.452 1.56882 -0.150215 0
M  V30 2587 C 240.868 1.58263 0.20617 0
M  V30 2588 C 241.068 1.16464 1.64434 0
M  V30 2589 O 240.124 0.866422 2.3717 0
M  V30 2590 C 241.437 3.00649 -0.0555025 0
M  V30 2591 C 242.985 3.12999 0.00795388 0
M  V30 2592 C 243.46 4.5744 -0.226429 0
M  V30 2593 N 244.951 4.62875 -0.173469 0
M  V30 2594 C 245.686 5.72454 -0.329288 0
M  V30 2595 N 245.182 6.90669 -0.543005 0
M  V30 2596 N 246.975 5.61467 -0.266666 0
M  V30 2597 H 239.126 1.82345 -1.08922 0
M  V30 2598 H 241.389 0.844149 -0.431413 0
M  V30 2599 H 241.095 3.3563 -1.05096 0
M  V30 2600 H 240.969 3.71337 0.66246 0
M  V30 2601 H 243.356 2.77857 0.993966 0
M  V30 2602 H 243.437 2.4479 -0.742388 0
M  V30 2603 H 243.081 4.93287 -1.20956 0
M  V30 2604 H 243.011 5.2378 0.544274 0
M  V30 2605 H 245.502 3.77898 -0.0130709 0
M  V30 2606 H 245.815 7.70045 -0.651922 0
M  V30 2607 H 244.16 6.92581 -0.579366 0
M  V30 2608 H 247.351 4.67992 -0.100441 0
M  V30 2609 H 247.524 6.46816 -0.391535 0
M  V30 2610 N 240.93 -0.123565 1.57115 0
M  V30 2611 C 242.177 -0.832153 1.84612 0
M  V30 2612 C 242.505 -1.80093 0.734627 0
M  V30 2613 O 241.76 -1.93766 -0.27442 0
M  V30 2614 C 242.059 -1.62016 3.18568 0
M  V30 2615 C 241.725 -0.796084 4.43817 0
M  V30 2616 C 240.387 -0.568816 4.77826 0
M  V30 2617 C 242.739 -0.221364 5.2073 0
M  V30 2618 C 240.067 0.243499 5.86194 0
M  V30 2619 C 242.419 0.578117 6.29953 0
M  V30 2620 C 241.083 0.815744 6.62497 0
M  V30 2621 H 240.353 -0.304507 0.675542 0
M  V30 2622 H 243 -0.0947248 1.91266 0
M  V30 2623 H 241.305 -2.42837 3.0747 0
M  V30 2624 H 243.002 -2.17231 3.37064 0
M  V30 2625 H 239.592 -0.983307 4.17168 0
M  V30 2626 H 243.776 -0.384173 4.94811 0
M  V30 2627 H 239.032 0.436871 6.09837 0
M  V30 2628 H 243.206 1.03046 6.88734 0
M  V30 2629 H 240.833 1.44701 7.46301 0
M  V30 2630 N 242.408 -1.52605 -0.393616 0
M  V30 2631 C 243.654 -1.67672 -1.14079 0
M  V30 2632 C 243.987 -0.413121 -1.89755 0
M  V30 2633 O 243.262 0.588952 -1.85369 0
M  V30 2634 C 243.545 -2.9088 -2.12276 0
M  V30 2635 C 243.398 -4.27329 -1.40394 0
M  V30 2636 C 244.717 -3.09628 -3.12759 0
M  V30 2637 H 241.836 -0.610168 -0.413356 0
M  V30 2638 H 244.478 -1.85193 -0.424696 0
M  V30 2639 H 242.628 -2.76073 -2.73342 0
M  V30 2640 H 244.3 -4.53894 -0.82327 0
M  V30 2641 H 242.543 -4.2802 -0.705801 0
M  V30 2642 H 243.214 -5.09615 -2.12123 0
M  V30 2643 H 245.69 -3.23436 -2.61779 0
M  V30 2644 H 244.566 -3.97322 -3.78717 0
M  V30 2645 H 244.827 -2.23637 -3.81365 0
M  V30 2646 N 243.887 0.651787 -1.4349 0
M  V30 2647 C 245.112 1.44434 -1.48841 0
M  V30 2648 C 245.537 1.8779 -0.107955 0
M  V30 2649 O 244.895 1.57464 0.898602 0
M  V30 2650 C 244.943 2.65458 -2.44059 0
M  V30 2651 O 244.047 3.64566 -1.92784 0
M  V30 2652 H 243.388 0.433005 -0.503391 0
M  V30 2653 H 245.918 0.797451 -1.88419 0
M  V30 2654 H 245.928 3.13255 -2.6141 0
M  V30 2655 H 244.603 2.33244 -3.4434 0
M  V30 2656 H 243.18 3.23716 -1.851 0
M  V30 2657 N 245.365 1.30045 0.890287 0
M  V30 2658 C 246.275 1.17885 2.02831 0
M  V30 2659 C 247.291 0.0999609 1.73713 0
M  V30 2660 O 248.467 0.313867 1.98939 0
M  V30 2661 C 245.532 0.866079 3.35708 0
M  V30 2662 C 244.593 2.02979 3.78283 0
M  V30 2663 C 243.826 1.73184 5.0482 0
M  V30 2664 O 244.049 0.657237 5.66601 0
M  V30 2665 O 242.983 2.58267 5.43674 0
M  V30 2666 H 246.809 2.13474 2.16015 0
M  V30 2667 H 244.394 1.09587 1.01543 0
M  V30 2668 H 246.276 0.706623 4.15433 0
M  V30 2669 H 244.951 -0.0599443 3.23644 0
M  V30 2670 H 243.858 2.24454 2.99285 0
M  V30 2671 H 245.191 2.93734 3.94944 0
M  V30 2672 N 246.843 -1.10192 1.12674 0
M  V30 2673 C 247.773 -2.18652 0.819362 0
M  V30 2674 C 248.754 -1.68698 -0.217915 0
M  V30 2675 O 249.939 -1.94041 -0.0785581 0
M  V30 2676 C 247.069 -3.46202 0.27594 0
M  V30 2677 C 246.023 -4.09444 1.24656 0
M  V30 2678 C 245.349 -5.31725 0.563258 0
M  V30 2679 C 246.649 -4.52863 2.60217 0
M  V30 2680 H 248.343 -2.44622 1.72628 0
M  V30 2681 H 245.889 -1.17571 0.831451 0
M  V30 2682 H 247.842 -4.21372 0.0486149 0
M  V30 2683 H 246.566 -3.1973 -0.666331 0
M  V30 2684 H 245.225 -3.36284 1.45974 0
M  V30 2685 H 244.873 -5.0153 -0.384235 0
M  V30 2686 H 244.573 -5.74991 1.21075 0
M  V30 2687 H 246.097 -6.09624 0.34503 0
M  V30 2688 H 247.511 -5.19294 2.42913 0
M  V30 2689 H 245.908 -5.06986 3.21068 0
M  V30 2690 H 246.978 -3.65656 3.18471 0
M  V30 2691 N 248.321 -0.919034 -1.28029 0
M  V30 2692 C 249.569 -0.553838 -1.94363 0
M  V30 2693 C 249.89 0.906357 -1.72656 0
M  V30 2694 O 249.16 1.64143 -1.0693 0
M  V30 2695 H 247.74 -0.201834 -0.719216 0
M  V30 2696 H 250.402 -1.16954 -1.55909 0
M  V30 2697 H 249.498 -0.752758 -3.02886 0
M  V30 2698 N 249.799 1.42003 -0.683588 0
M  V30 2699 C 251.046 2.01413 -0.209514 0
M  V30 2700 C 251.374 1.54088 1.1869 0
M  V30 2701 O 250.629 0.737591 1.81268 0
M  V30 2702 C 250.928 3.56827 -0.202357 0
M  V30 2703 C 250.594 4.23617 -1.54464 0
M  V30 2704 C 249.256 4.41577 -1.91215 0
M  V30 2705 C 251.608 4.61178 -2.42826 0
M  V30 2706 C 248.936 4.9437 -3.15935 0
M  V30 2707 C 251.288 5.15355 -3.66867 0
M  V30 2708 C 249.952 5.31528 -4.03776 0
M  V30 2709 H 249.222 0.737023 -0.0766668 0
M  V30 2710 H 251.869 1.70067 -0.880312 0
M  V30 2711 H 250.174 3.87892 0.551969 0
M  V30 2712 H 251.871 4.00588 0.181793 0
M  V30 2713 H 248.461 4.10004 -1.24877 0
M  V30 2714 H 252.645 4.46968 -2.15717 0
M  V30 2715 H 247.901 5.05076 -3.44541 0
M  V30 2716 H 252.075 5.43402 -4.35531 0
M  V30 2717 H 249.702 5.72199 -5.00492 0
M  V30 2718 N 251.277 0.427512 1.51691 0
M  V30 2719 C 252.24 -0.377132 2.26076 0
M  V30 2720 C 253.24 -0.958089 1.29141 0
M  V30 2721 O 254.43 -0.83408 1.52934 0
M  V30 2722 C 251.562 -1.53262 3.04506 0
M  V30 2723 H 252.755 0.27464 2.9864 0
M  V30 2724 H 250.308 0.180445 1.55255 0
M  V30 2725 H 251.043 -2.22072 2.36335 0
M  V30 2726 H 250.828 -1.12232 3.75694 0
M  V30 2727 H 252.318 -2.10135 3.60878 0
M  V30 2728 N 252.755 -1.56801 0.158532 0
M  V30 2729 C 253.685 -2.20347 -0.772609 0
M  V30 2730 C 254.666 -1.15518 -1.24859 0
M  V30 2731 O 255.851 -1.43902 -1.30406 0
M  V30 2732 C 252.981 -2.83417 -2.00729 0
M  V30 2733 C 251.935 -3.94174 -1.66765 0
M  V30 2734 C 251.261 -4.44233 -2.97592 0
M  V30 2735 C 252.561 -5.14392 -0.905447 0
M  V30 2736 H 254.255 -2.98413 -0.242959 0
M  V30 2737 H 251.801 -1.43537 -0.115419 0
M  V30 2738 H 253.754 -3.26543 -2.6636 0
M  V30 2739 H 252.478 -2.02701 -2.56086 0
M  V30 2740 H 251.137 -3.51684 -1.03508 0
M  V30 2741 H 250.785 -3.60325 -3.50963 0
M  V30 2742 H 250.485 -5.18945 -2.75626 0
M  V30 2743 H 252.009 -4.90037 -3.64274 0
M  V30 2744 H 253.423 -5.5429 -1.46408 0
M  V30 2745 H 251.82 -5.9494 -0.7853 0
M  V30 2746 H 252.89 -4.84795 0.100668 0
M  V30 2747 N 254.233 0.115231 -1.57178 0
M  V30 2748 C 255.196 1.12526 -1.99676 0
M  V30 2749 C 256.196 1.34095 -0.88742 0
M  V30 2750 O 257.386 1.30548 -1.15337 0
M  V30 2751 C 254.518 2.4789 -2.34015 0
M  V30 2752 H 255.711 0.759912 -2.90113 0
M  V30 2753 H 253.264 0.359648 -1.52106 0
M  V30 2754 H 253.999 2.89339 -1.4647 0
M  V30 2755 H 253.784 2.33588 -3.14927 0
M  V30 2756 H 255.274 3.20575 -2.67622 0
M  V30 2757 N 255.711 1.52812 0.385517 0
M  V30 2758 C 257.122 1.5993 0.963293 0
M  V30 2759 C 257.473 0.454302 1.90868 0
M  V30 2760 O 256.598 -0.422132 2.12243 0
M  V30 2761 C 257.193 2.89871 1.75387 0
M  V30 2762 C 255.752 2.99389 2.28129 0
M  V30 2763 C 254.899 2.55071 1.08783 0
M  V30 2764 H 257.85 1.5784 0.164948 0
M  V30 2765 H 257.871 2.76553 2.61341 0
M  V30 2766 H 257.383 3.73186 1.06554 0
M  V30 2767 H 255.484 2.20619 3.00263 0
M  V30 2768 H 255.597 4.04096 2.57377 0
M  V30 2769 H 253.961 2.09473 1.4489 0
M  V30 2770 H 254.744 3.40785 0.414807 0
M  V30 2771 N 257.189 -0.644168 1.43834 0
M  V30 2772 C 258.466 -1.40188 1.36406 0
M  V30 2773 C 258.846 -2.11094 0.0163124 0
M  V30 2774 O 258.194 -2.05426 -1.00062 0
M  V30 2775 C 258.404 -2.3791 2.55343 0
M  V30 2776 C 259.752 -3.01637 2.98832 0
M  V30 2777 O 260.776 -2.48237 2.55455 0
M  V30 2778 O 259.635 -3.98477 3.74003 0
M  V30 2779 H 256.729 -0.626773 0.539523 0
M  V30 2780 H 259.275 -0.670317 1.559 0
M  V30 2781 H 258.047 -1.84525 3.4506 0
M  V30 2782 H 257.67 -3.18503 2.37995 0
M  V30 2783 N 258.668 -1.30515 -0.883378 0
M  V30 2784 C 259.896 -1.22359 -1.66841 0
M  V30 2785 C 260.311 0.213296 -1.87591 0
M  V30 2786 O 259.668 1.14075 -1.42454 0
M  V30 2787 C 259.719 -1.95011 -3.04389 0
M  V30 2788 O 259.44 -3.3309 -2.84575 0
M  V30 2789 C 260.941 -1.93532 -3.98824 0
M  V30 2790 H 258.161 -0.423371 -0.520575 0
M  V30 2791 H 260.705 -1.72167 -1.10357 0
M  V30 2792 H 258.86 -1.48997 -3.57601 0
M  V30 2793 H 259.274 -3.69907 -3.71846 0
M  V30 2794 H 260.748 -2.48902 -4.92699 0
M  V30 2795 H 261.225 -0.914627 -4.29571 0
M  V30 2796 H 261.831 -2.39364 -3.51547 0
M  V30 2797 N 260.146 1.09593 -1.13257 0
M  V30 2798 C 261.056 2.19739 -0.821691 0
M  V30 2799 C 262.072 1.72926 0.19302 0
M  V30 2800 O 263.248 2.01385 0.0244895 0
M  V30 2801 C 260.313 3.45482 -0.290333 0
M  V30 2802 C 259.374 4.06985 -1.36607 0
M  V30 2803 C 258.607 5.26726 -0.859975 0
M  V30 2804 O 258.83 5.69594 0.303082 0
M  V30 2805 O 257.764 5.7931 -1.63351 0
M  V30 2806 H 261.59 2.48781 -1.74189 0
M  V30 2807 H 259.175 1.18496 -0.909894 0
M  V30 2808 H 261.057 4.214 0.000674022 0
M  V30 2809 H 259.732 3.18047 0.602306 0
M  V30 2810 H 258.639 3.32712 -1.71037 0
M  V30 2811 H 259.972 4.38643 -2.23279 0
M  V30 2812 N 261.624 0.925811 1.2754 0
M  V30 2813 C 262.556 0.380753 2.26015 0
M  V30 2814 C 263.569 -0.487485 1.5533 0
M  V30 2815 O 264.758 -0.300413 1.75954 0
M  V30 2816 C 261.858 -0.473259 3.35579 0
M  V30 2817 C 261.031 0.375249 4.35787 0
M  V30 2818 C 260.09 -0.415809 5.24555 0
M  V30 2819 O 259.116 0.175834 5.68928 0
M  V30 2820 N 260.318 -1.71607 5.54555 0
M  V30 2821 H 263.083 1.22725 2.73421 0
M  V30 2822 H 260.644 0.793037 1.41147 0
M  V30 2823 H 262.636 -1.00949 3.91907 0
M  V30 2824 H 261.206 -1.2205 2.87789 0
M  V30 2825 H 260.426 1.09279 3.7875 0
M  V30 2826 H 261.714 0.955399 4.99749 0
M  V30 2827 H 261.112 -2.2191 5.20358 0
M  V30 2828 H 259.669 -2.19887 6.1359 0
M  V30 2829 N 263.102 -1.41638 0.69111 0
M  V30 2830 C 264.065 -2.29178 0.0319786 0
M  V30 2831 C 265.065 -1.44153 -0.712496 0
M  V30 2832 O 266.255 -1.65354 -0.548053 0
M  V30 2833 C 263.387 -3.26952 -0.965161 0
M  V30 2834 H 264.58 -2.88959 0.802681 0
M  V30 2835 H 262.133 -1.4955 0.454356 0
M  V30 2836 H 262.868 -2.72142 -1.76378 0
M  V30 2837 H 262.653 -3.89685 -0.434522 0
M  V30 2838 H 264.143 -3.92561 -1.42428 0
M  V30 2839 N 264.58 -0.43555 -1.51462 0
M  V30 2840 C 265.829 0.133007 -2.01261 0
M  V30 2841 C 266.142 1.43942 -1.32439 0
M  V30 2842 O 267.348 2.09081 -1.73198 0
M  V30 2843 C 265.804 0.287581 -3.58749 0
M  V30 2844 C 265.412 -1.00829 -4.36506 0
M  V30 2845 C 267.156 0.810004 -4.167 0
M  V30 2846 C 265.063 -0.819454 -5.85695 0
M  V30 2847 H 263.993 0.0534822 -0.752101 0
M  V30 2848 H 266.644 -0.565038 -1.74584 0
M  V30 2849 H 265.026 1.04859 -3.81865 0
M  V30 2850 H 266.2 -1.77749 -4.25138 0
M  V30 2851 H 264.515 -1.45911 -3.89999 0
M  V30 2852 H 267.112 0.967743 -5.2587 0
M  V30 2853 H 267.455 1.79196 -3.75758 0
M  V30 2854 H 267.988 0.107357 -3.97655 0
M  V30 2855 H 264.727 -1.77374 -6.31046 0
M  V30 2856 H 264.247 -0.0900208 -5.99732 0
M  V30 2857 H 265.926 -0.471949 -6.45276 0
M  V30 2858 N 266.058 1.56714 -0.166846 0
M  V30 2859 C 267.304 1.97039 0.479962 0
M  V30 2860 C 267.637 1.05264 1.63197 0
M  V30 2861 O 266.912 0.0988833 1.94248 0
M  V30 2862 C 267.195 3.46867 0.967212 0
M  V30 2863 C 267.048 4.49421 -0.18466 0
M  V30 2864 C 268.367 3.9968 1.84238 0
M  V30 2865 H 265.486 0.71641 0.172992 0
M  V30 2866 H 268.128 1.8832 -0.252079 0
M  V30 2867 H 266.278 3.54428 1.59101 0
M  V30 2868 H 267.95 4.53924 -0.821621 0
M  V30 2869 H 266.193 4.25573 -0.840837 0
M  V30 2870 H 266.864 5.51644 0.198317 0
M  V30 2871 H 269.34 3.94723 1.31655 0
M  V30 2872 H 268.216 5.04941 2.15234 0
M  V30 2873 H 268.477 3.43226 2.78654 0
M  V30 2874 N 267.536 -0.106894 1.57237 0
M  V30 2875 C 268.468 -1.15646 1.97885 0
M  V30 2876 C 269.481 -1.36981 0.879779 0
M  V30 2877 O 270.67 -1.35841 1.15799 0
M  V30 2878 C 267.77 -2.51425 2.27241 0
M  V30 2879 C 266.943 -2.50529 3.58545 0
M  V30 2880 C 266.002 -3.68145 3.75973 0
M  V30 2881 O 265.028 -3.51176 4.47956 0
M  V30 2882 N 266.23 -4.87177 3.15656 0
M  V30 2883 H 268.995 -0.81059 2.8853 0
M  V30 2884 H 266.556 -0.296024 1.59171 0
M  V30 2885 H 268.548 -3.28689 2.36105 0
M  V30 2886 H 267.118 -2.78147 1.42663 0
M  V30 2887 H 266.338 -1.58894 3.60758 0
M  V30 2888 H 267.626 -2.46997 4.44826 0
M  V30 2889 H 267.024 -5.03868 2.57165 0
M  V30 2890 H 265.581 -5.62075 3.30023 0
M  V30 2891 N 269.014 -1.53014 -0.377408 0
M  V30 2892 C 269.962 -1.7927 -1.48206 0
M  V30 2893 C 270.956 -0.661195 -1.55963 0
M  V30 2894 O 272.162 -0.843908 -1.58991 0
M  V30 2895 H 268.537 -0.567425 -0.493491 0
M  V30 2896 H 270.508 -2.71753 -1.2326 0
M  V30 2897 C 269.257 -1.98894 -2.85196 0
M  V30 2898 H 268.58 -2.85395 -2.79981 0
M  V30 2899 H 270.02 -2.21249 -3.61698 0
M  V30 2900 C 268.479 -0.764691 -3.28107 0
M  V30 2901 O 269.009 0.0523226 -4.01666 0
M  V30 2902 N 267.215 -0.591493 -2.84517 0
M  V30 2903 H 266.762 -1.25749 -2.24822 0
M  V30 2904 H 266.72 0.226253 -3.13585 0
M  V30 2905 N 270.492 0.636531 -1.44174 0
M  V30 2906 C 271.455 1.73063 -1.50273 0
M  V30 2907 C 272.455 1.56113 -0.385397 0
M  V30 2908 O 273.645 1.61707 -0.64781 0
M  V30 2909 C 270.777 3.12096 -1.37145 0
M  V30 2910 H 271.97 1.69031 -2.47727 0
M  V30 2911 H 269.523 0.849706 -1.31186 0
M  V30 2912 H 270.258 3.21728 -0.407636 0
M  V30 2913 H 270.043 3.25805 -2.18159 0
M  V30 2914 H 271.533 3.91846 -1.44382 0
M  V30 2915 N 271.97 1.30982 0.876444 0
M  V30 2916 C 273.381 1.18277 1.44456 0
M  V30 2917 C 273.732 -0.213265 1.95037 0
M  V30 2918 O 272.857 -1.11057 1.85729 0
M  V30 2919 C 273.452 2.1411 2.62569 0
M  V30 2920 C 272.011 2.05358 3.15444 0
M  V30 2921 C 271.158 2.03706 1.88146 0
M  V30 2922 H 274.109 1.43127 0.685584 0
M  V30 2923 H 274.13 1.72692 3.39054 0
M  V30 2924 H 273.642 3.15706 2.25724 0
M  V30 2925 H 271.743 1.06934 3.56926 0
M  V30 2926 H 271.856 2.94156 3.78166 0
M  V30 2927 H 270.22 1.48629 2.06837 0
M  V30 2928 H 271.003 3.07047 1.53547 0
M  V30 2929 N 273.449 -1.08991 1.13837 0
M  V30 2930 C 274.379 -2.17771 0.842507 0
M  V30 2931 C 275.36 -1.6892 -0.20001 0
M  V30 2932 O 276.545 -1.94113 -0.0579731 0
M  V30 2933 C 273.675 -3.4589 0.312644 0
M  V30 2934 C 272.629 -4.08099 1.28992 0
M  V30 2935 C 271.955 -5.31098 0.619623 0
M  V30 2936 C 273.255 -4.50077 2.65005 0
M  V30 2937 H 274.949 -2.42777 1.75213 0
M  V30 2938 H 272.495 -1.16682 0.843875 0
M  V30 2939 H 274.448 -4.21297 0.0933043 0
M  V30 2940 H 273.172 -3.20419 -0.632382 0
M  V30 2941 H 271.831 -3.34717 1.49533 0
M  V30 2942 H 271.479 -5.0191 -0.33102 0
M  V30 2943 H 271.179 -5.73674 1.27167 0
M  V30 2944 H 272.703 -6.09224 0.409669 0
M  V30 2945 H 274.117 -5.16688 2.48407 0
M  V30 2946 H 272.514 -5.03553 3.26427 0
M  V30 2947 H 273.584 -3.62257 3.22332 0
M  V30 2948 N 274.927 -0.932562 -1.27047 0
M  V30 2949 C 275.857 -0.452902 -2.29066 0
M  V30 2950 C 276.838 0.489338 -1.62909 0
M  V30 2951 O 278.023 0.393046 -1.90181 0
M  V30 2952 C 275.153 0.290698 -3.46081 0
M  V30 2953 C 274.107 -0.564168 -4.24265 0
M  V30 2954 C 273.433 0.308886 -5.33807 0
M  V30 2955 C 274.733 -1.83112 -4.89149 0
M  V30 2956 H 276.427 -1.30552 -2.69437 0
M  V30 2957 H 273.973 -0.629201 -1.29526 0
M  V30 2958 H 275.926 0.637233 -4.16554 0
M  V30 2959 H 274.65 1.17738 -3.0464 0
M  V30 2960 H 273.309 -0.893477 -3.55545 0
M  V30 2961 H 272.957 1.19467 -4.88607 0
M  V30 2962 H 272.657 -0.259633 -5.87026 0
M  V30 2963 H 274.181 0.650884 -6.07121 0
M  V30 2964 H 275.595 -1.55236 -5.51883 0
M  V30 2965 H 273.992 -2.34353 -5.52448 0
M  V30 2966 H 275.062 -2.54772 -4.12576 0
M  V30 2967 N 276.405 1.4127 -0.698611 0
M  V30 2968 C 277.368 2.29158 -0.044132 0
M  V30 2969 C 278.368 1.44529 0.704841 0
M  V30 2970 O 279.558 1.65643 0.539276 0
M  V30 2971 C 276.69 3.27459 0.947809 0
M  V30 2972 H 277.883 2.88529 -0.817994 0
M  V30 2973 H 275.436 1.49307 -0.46228 0
M  V30 2974 H 276.171 2.73073 1.74933 0
M  V30 2975 H 275.956 3.8991 0.41385 0
M  V30 2976 H 277.446 3.93311 1.40344 0
M  V30 2977 N 277.883 0.443576 1.51229 0
M  V30 2978 C 278.833 -0.382787 2.24764 0
M  V30 2979 C 279.817 -0.984836 1.27239 0
M  V30 2980 O 281.009 -0.901943 1.52296 0
M  V30 2981 C 278.138 -1.47989 3.09765 0
M  V30 2982 C 277.224 -0.886931 4.14722 0
M  V30 2983 N 277.615 -0.0237103 5.05794 0
M  V30 2984 C 275.913 -1.15385 4.30816 0
M  V30 2985 C 276.614 0.309971 5.80874 0
M  V30 2986 N 275.59 -0.307989 5.42727 0
M  V30 2987 H 279.392 0.282624 2.92538 0
M  V30 2988 H 276.906 0.256027 1.60369 0
M  V30 2989 H 278.903 -2.08482 3.61027 0
M  V30 2990 H 277.563 -2.14758 2.43535 0
M  V30 2991 H 278.574 0.34318 5.16762 0
M  V30 2992 H 275.251 -1.81857 3.75812 0
M  V30 2993 H 276.641 1.01279 6.64223 0
M  V30 2994 N 279.361 -1.56624 0.175154 0
M  V30 2995 C 280.61 -1.96173 -0.468921 0
M  V30 2996 C 280.923 -1.06401 -1.64128 0
M  V30 2997 O 282.129 -1.35648 -2.35185 0
M  V30 2998 C 280.585 -3.48833 -0.885633 0
M  V30 2999 C 280.193 -4.47237 0.261343 0
M  V30 3000 C 281.937 -3.97194 -1.49791 0
M  V30 3001 C 279.844 -5.9114 -0.175214 0
M  V30 3002 H 278.774 -0.732455 -0.178958 0
M  V30 3003 H 281.425 -1.81591 0.263997 0
M  V30 3004 H 279.807 -3.58848 -1.67464 0
M  V30 3005 H 280.981 -4.4894 1.03871 0
M  V30 3006 H 279.296 -4.08956 0.783827 0
M  V30 3007 H 281.893 -5.02167 -1.83665 0
M  V30 3008 H 282.236 -3.40351 -2.39722 0
M  V30 3009 H 282.769 -3.90212 -0.773267 0
M  V30 3010 H 279.508 -6.51865 0.689414 0
M  V30 3011 H 279.028 -5.92735 -0.91786 0
M  V30 3012 H 280.707 -6.44044 -0.617792 0
M  V30 3013 N 280.839 0.0985539 -1.57292 0
M  V30 3014 C 282.064 0.820196 -1.90493 0
M  V30 3015 C 282.489 1.71658 -0.769094 0
M  V30 3016 O 281.847 1.79133 0.279495 0
M  V30 3017 C 281.895 1.61242 -3.22542 0
M  V30 3018 O 280.999 2.72108 -3.09888 0
M  V30 3019 H 280.34 0.225547 -0.62452 0
M  V30 3020 H 282.87 0.0748159 -2.04463 0
M  V30 3021 H 282.88 1.99737 -3.55766 0
M  V30 3022 H 281.555 0.954535 -4.04798 0
M  V30 3023 H 280.132 2.36667 -2.88172 0
M  V30 3024 N 282.317 1.53212 0.369288 0
M  V30 3025 C 283.563 1.69466 1.11397 0
M  V30 3026 C 283.896 0.443257 1.89074 0
M  V30 3027 O 283.171 -0.559386 1.86282 0
M  V30 3028 C 283.454 2.9422 2.07621 0
M  V30 3029 C 283.307 4.29508 1.33577 0
M  V30 3030 C 284.626 3.14565 3.07794 0
M  V30 3031 H 281.745 0.616667 0.403597 0
M  V30 3032 H 284.387 1.85845 0.395179 0
M  V30 3033 H 282.537 2.80387 2.68916 0
M  V30 3034 H 284.209 4.55147 0.750955 0
M  V30 3035 H 282.452 4.29088 0.637618 0
M  V30 3036 H 283.123 5.12926 2.03989 0
M  V30 3037 H 285.599 3.2756 2.56601 0
M  V30 3038 H 284.475 4.03297 3.72348 0
M  V30 3039 H 284.736 2.29675 3.77759 0
M  V30 3040 N 283.795 -0.628877 1.44509 0
M  V30 3041 C 284.705 -1.7694 1.54044 0
M  V30 3042 C 285.721 -1.68705 0.425987 0
M  V30 3043 O 286.897 -1.89442 0.683656 0
M  V30 3044 C 283.962 -3.13332 1.48405 0
M  V30 3045 C 283.023 -3.33181 2.70719 0
M  V30 3046 C 282.256 -4.63067 2.6534 0
M  V30 3047 O 282.479 -5.44017 1.71469 0
M  V30 3048 O 281.413 -4.85167 3.56226 0
M  V30 3049 H 285.239 -1.71848 2.50403 0
M  V30 3050 H 282.824 -0.790378 1.26781 0
M  V30 3051 H 284.706 -3.94634 1.47791 0
M  V30 3052 H 283.381 -3.1896 0.551898 0
M  V30 3053 H 282.288 -2.51549 2.769 0
M  V30 3054 H 283.621 -3.32416 3.62988 0
M  V30 3055 N 285.273 -1.31445 -0.869486 0
M  V30 3056 C 286.689 -1.10113 -1.15531 0
M  V30 3057 C 286.889 0.128087 -2.01092 0
M  V30 3058 O 285.945 0.817276 -2.38908 0
M  V30 3059 C 287.258 -2.37291 -1.84698 0
M  V30 3060 C 288.806 -2.42906 -1.97397 0
M  V30 3061 C 289.281 -3.69967 -2.69979 0
M  V30 3062 N 290.772 -3.70864 -2.77514 0
M  V30 3063 C 291.507 -4.65875 -3.34287 0
M  V30 3064 N 291.003 -5.71242 -3.91988 0
M  V30 3065 N 292.796 -4.53394 -3.3225 0
M  V30 3066 H 284.947 -2.1028 -0.299347 0
M  V30 3067 H 287.21 -0.927683 -0.195214 0
M  V30 3068 H 286.916 -3.27078 -1.29278 0
M  V30 3069 H 286.79 -2.47125 -2.84972 0
M  V30 3070 H 289.177 -1.53588 -2.51982 0
M  V30 3071 H 289.258 -2.37036 -0.961643 0
M  V30 3072 H 288.902 -4.59652 -2.16062 0
M  V30 3073 H 288.832 -3.73103 -3.7162 0
M  V30 3074 H 291.323 -2.94697 -2.36563 0
M  V30 3075 H 291.636 -6.39817 -4.33421 0
M  V30 3076 H 289.981 -5.75015 -3.90362 0
M  V30 3077 H 293.172 -3.70252 -2.8641 0
M  V30 3078 H 293.345 -5.27617 -3.76197 0
M  V30 3079 N 286.751 1.08385 -1.14413 0
M  V30 3080 C 287.684 2.14642 -0.774871 0
M  V30 3081 C 288.662 1.60761 0.243876 0
M  V30 3082 O 289.846 1.88031 0.132883 0
M  V30 3083 C 286.973 3.38366 -0.150491 0
M  V30 3084 C 286.019 4.10997 -1.13945 0
M  V30 3085 S 286.852 4.63797 -2.67679 0
M  V30 3086 C 288.008 5.90808 -2.06631 0
M  V30 3087 H 288.241 2.45633 -1.67487 0
M  V30 3088 H 285.774 1.20498 -0.96538 0
M  V30 3089 H 287.732 4.09996 0.203334 0
M  V30 3090 H 286.393 3.05572 0.72694 0
M  V30 3091 H 285.586 4.99783 -0.65059 0
M  V30 3092 H 285.188 3.4528 -1.43727 0
M  V30 3093 H 287.48 6.62411 -1.4219 0
M  V30 3094 H 288.423 6.4439 -2.93542 0
M  V30 3095 H 288.831 5.4383 -1.51357 0
M  V30 3096 N 288.23 0.939286 1.26551 0
M  V30 3097 C 289.458 0.602536 1.97932 0
M  V30 3098 C 289.873 -0.82206 1.69964 0
M  V30 3099 O 289.23 -1.54789 0.966784 0
M  V30 3100 C 289.281 0.832946 3.51773 0
M  V30 3101 O 289.002 2.20151 3.78768 0
M  V30 3102 C 290.503 0.506483 4.40397 0
M  V30 3103 H 287.723 0.227248 0.631347 0
M  V30 3104 H 290.267 1.25948 1.61113 0
M  V30 3105 H 288.422 0.222644 3.8676 0
M  V30 3106 H 288.836 2.26013 4.73306 0
M  V30 3107 H 290.31 0.718333 5.47306 0
M  V30 3108 H 290.787 -0.558451 4.35635 0
M  V30 3109 H 291.393 1.09543 4.10951 0
M  V30 3110 N 289.708 -1.40897 0.706093 0
M  V30 3111 C 290.641 -2.282 -0.00328781 0
M  V30 3112 C 291.619 -1.42816 -0.77732 0
M  V30 3113 O 292.803 -1.72237 -0.765944 0
M  V30 3114 C 289.93 -3.23226 -1.01205 0
M  V30 3115 C 288.976 -4.25222 -0.329955 0
M  V30 3116 S 289.809 -5.27269 0.935298 0
M  V30 3117 C 290.965 -6.25859 -0.0716061 0
M  V30 3118 H 291.198 -2.88016 0.737143 0
M  V30 3119 H 288.731 -1.46191 0.496756 0
M  V30 3120 H 290.689 -3.78503 -1.58888 0
M  V30 3121 H 289.35 -2.62485 -1.72513 0
M  V30 3122 H 288.543 -4.92023 -1.09221 0
M  V30 3123 H 288.145 -3.73595 0.174069 0
M  V30 3124 H 290.437 -6.71204 -0.921521 0
M  V30 3125 H 291.38 -7.0586 0.562765 0
M  V30 3126 H 291.788 -5.62852 -0.431088 0
M  V30 3127 N 291.186 -0.45159 -1.50991 0
M  V30 3128 C 292.096 0.358431 -2.31846 0
M  V30 3129 C 293.112 1.01438 -1.41373 0
M  V30 3130 O 294.288 1.00663 -1.74439 0
M  V30 3131 C 291.353 1.43704 -3.15515 0
M  V30 3132 C 290.414 0.799742 -4.21785 0
M  V30 3133 C 289.647 1.82696 -5.01456 0
M  V30 3134 O 289.87 3.05105 -4.81941 0
M  V30 3135 O 288.804 1.40958 -5.85162 0
M  V30 3136 H 292.63 -0.302032 -3.02194 0
M  V30 3137 H 290.215 -0.213825 -1.47862 0
M  V30 3138 H 292.097 2.06227 -3.67489 0
M  V30 3139 H 290.772 2.08133 -2.47916 0
M  V30 3140 H 289.679 0.136084 -3.73852 0
M  V30 3141 H 291.012 0.198718 -4.91799 0
M  V30 3142 N 292.664 1.56529 -0.183458 0
M  V30 3143 C 293.597 2.14417 0.781052 0
M  V30 3144 C 294.575 1.07761 1.21763 0
M  V30 3145 O 295.759 1.35807 1.30724 0
M  V30 3146 C 292.886 2.69361 2.05335 0
M  V30 3147 C 291.932 3.885 1.75982 0
M  V30 3148 S 292.765 5.27568 0.918256 0
M  V30 3149 C 293.921 5.85926 2.20095 0
M  V30 3150 H 294.154 2.95893 0.2889 0
M  V30 3151 H 291.687 1.54368 0.0313844 0
M  V30 3152 H 293.645 3.01662 2.78406 0
M  V30 3153 H 292.306 1.87949 2.51663 0
M  V30 3154 H 291.499 4.25314 2.70415 0
M  V30 3155 H 291.101 3.57149 1.10999 0
M  V30 3156 H 293.393 5.99579 3.15453 0
M  V30 3157 H 294.336 6.82761 1.87731 0
M  V30 3158 H 294.744 5.14438 2.32409 0
M  V30 3159 N 294.142 -0.090211 1.57342 0
M  V30 3160 C 295.052 -1.12735 2.05738 0
M  V30 3161 C 296.068 -1.43557 0.983231 0
M  V30 3162 O 297.244 -1.54101 1.29672 0
M  V30 3163 C 294.309 -2.42659 2.47624 0
M  V30 3164 C 293.37 -2.18975 3.69254 0
M  V30 3165 C 292.603 -3.42704 4.09133 0
M  V30 3166 O 292.826 -4.51127 3.49057 0
M  V30 3167 O 291.76 -3.32003 5.02053 0
M  V30 3168 H 295.586 -0.746279 2.94388 0
M  V30 3169 H 293.171 -0.303064 1.46294 0
M  V30 3170 H 295.053 -3.19155 2.7517 0
M  V30 3171 H 293.728 -2.80182 1.62109 0
M  V30 3172 H 292.635 -1.40244 3.46818 0
M  V30 3173 H 293.968 -1.86342 4.55563 0
M  V30 3174 N 295.62 -1.53406 -0.361157 0
M  V30 3175 C 296.567 -1.80156 -1.44265 0
M  V30 3176 C 297.537 -0.646183 -1.53015 0
M  V30 3177 O 298.722 -0.888818 -1.68833 0
M  V30 3178 C 295.862 -2.00116 -2.81154 0
M  V30 3179 C 294.975 -3.27833 -2.81335 0
M  V30 3180 C 294.11 -3.37957 -4.09828 0
M  V30 3181 C 293.149 -4.59689 -4.04168 0
M  V30 3182 N 292.286 -4.66942 -5.24318 0
M  V30 3183 H 297.126 -2.72438 -1.20754 0
M  V30 3184 H 294.663 -1.34954 -0.585296 0
M  V30 3185 H 296.621 -2.09677 -3.60682 0
M  V30 3186 H 295.251 -1.11167 -3.03054 0
M  V30 3187 H 294.303 -3.27204 -1.94014 0
M  V30 3188 H 295.615 -4.17442 -2.73027 0
M  V30 3189 H 294.769 -3.46853 -4.97773 0
M  V30 3190 H 293.508 -2.46372 -4.20894 0
M  V30 3191 H 292.513 -4.50889 -3.14609 0
M  V30 3192 H 293.738 -5.5262 -3.947 0
M  V30 3193 H 291.684 -3.7826 -5.35962 0
M  V30 3194 H 291.601 -5.50462 -5.18197 0
M  V30 3195 H 292.869 -4.80127 -6.14084 0
M  V30 3196 N 297.098 0.621204 -1.44841 0
M  V30 3197 C 298.028 1.74366 -1.55303 0
M  V30 3198 C 299.009 1.65199 -0.405385 0
M  V30 3199 O 300.194 1.83807 -0.626787 0
M  V30 3200 C 297.324 3.12931 -1.50637 0
M  V30 3201 C 296.278 3.36896 -2.63979 0
M  V30 3202 C 295.604 4.75594 -2.44366 0
M  V30 3203 C 296.904 3.28483 -4.06074 0
M  V30 3204 H 298.598 1.65867 -2.49256 0
M  V30 3205 H 296.144 0.796558 -1.19962 0
M  V30 3206 H 298.097 3.9124 -1.56555 0
M  V30 3207 H 296.821 3.22237 -0.532057 0
M  V30 3208 H 295.48 2.60972 -2.57467 0
M  V30 3209 H 295.128 4.81616 -1.45105 0
M  V30 3210 H 294.828 4.92586 -3.20364 0
M  V30 3211 H 296.352 5.5612 -2.52117 0
M  V30 3212 H 297.766 3.96684 -4.13902 0
M  V30 3213 H 296.163 3.57008 -4.82354 0
M  V30 3214 H 297.233 2.26133 -4.28943 0
M  V30 3215 N 298.576 1.31904 0.862503 0
M  V30 3216 C 299.506 1.22782 1.98612 0
M  V30 3217 C 300.487 0.113362 1.69722 0
M  V30 3218 O 301.672 0.299218 1.91881 0
M  V30 3219 C 298.802 0.942058 3.34279 0
M  V30 3220 C 297.756 2.0169 3.77499 0
M  V30 3221 C 297.082 1.58369 5.10709 0
M  V30 3222 C 298.382 3.43096 3.93805 0
M  V30 3223 H 300.076 2.16788 2.06502 0
M  V30 3224 H 297.622 1.04366 0.992154 0
M  V30 3225 H 299.575 0.864818 4.1243 0
M  V30 3226 H 298.299 -0.0336603 3.26583 0
M  V30 3227 H 296.958 2.08416 3.01593 0
M  V30 3228 H 296.606 0.595628 4.99461 0
M  V30 3229 H 296.306 2.30279 5.40597 0
M  V30 3230 H 297.83 1.52067 5.91361 0
M  V30 3231 H 299.244 3.39003 4.62331 0
M  V30 3232 H 297.641 4.13288 4.35101 0
M  V30 3233 H 298.711 3.83334 2.96957 0
M  V30 3234 N 300.054 -1.07777 1.14986 0
M  V30 3235 C 301.302 -1.79934 0.920235 0
M  V30 3236 C 301.623 -1.86955 -0.554336 0
M  V30 3237 O 300.893 -1.36731 -1.40291 0
M  V30 3238 H 299.473 -0.666424 0.337473 0
M  V30 3239 H 302.135 -1.3027 1.44968 0
M  V30 3240 H 301.231 -2.82539 1.32583 0
M  V30 3241 N 301.532 -0.945985 -1.26051 0
M  V30 3242 C 302.78 -0.594941 -1.93145 0
M  V30 3243 C 303.101 0.86953 -1.7454 0
M  V30 3244 O 302.371 1.61838 -1.10387 0
M  V30 3245 H 300.951 -0.217044 -0.714773 0
M  V30 3246 H 303.613 -1.20235 -1.53393 0
M  V30 3247 H 302.709 -0.816835 -3.01221 0
M  V30 3248 N 303.011 1.40521 -0.713556 0
M  V30 3249 C 304.422 1.83853 -0.324807 0
M  V30 3250 C 304.773 1.59667 1.14021 0
M  V30 3251 O 303.898 1.07649 1.87725 0
M  V30 3252 C 304.493 3.33751 -0.582746 0
M  V30 3253 C 303.052 3.75584 -0.247727 0
M  V30 3254 C 302.199 2.63753 -0.856121 0
M  V30 3255 H 305.15 1.29817 -0.91286 0
M  V30 3256 H 305.171 3.80194 0.152682 0
M  V30 3257 H 304.683 3.51322 -1.64908 0
M  V30 3258 H 302.784 3.63608 0.813624 0
M  V30 3259 H 302.897 4.7373 -0.715307 0
M  V30 3260 H 301.261 2.53108 -0.28432 0
M  V30 3261 H 302.044 2.84137 -1.92668 0
M  V30 3262 N 304.489 0.459591 1.5075 0
M  V30 3263 C 305.736 -0.0993495 2.02256 0
M  V30 3264 C 306.064 -1.40751 1.34237 0
M  V30 3265 O 305.319 -1.90379 0.453228 0
M  V30 3266 C 305.618 -0.342866 3.55752 0
M  V30 3267 C 305.284 0.88218 4.42186 0
M  V30 3268 C 303.946 1.21808 4.65528 0
M  V30 3269 C 306.298 1.69837 4.92752 0
M  V30 3270 C 303.626 2.37045 5.36681 0
M  V30 3271 C 305.978 2.84192 5.65171 0
M  V30 3272 C 304.642 3.1821 5.8677 0
M  V30 3273 H 303.912 -0.0363545 0.740108 0
M  V30 3274 H 306.559 0.611329 1.8148 0
M  V30 3275 H 304.864 -1.13567 3.7498 0
M  V30 3276 H 306.561 -0.789121 3.93159 0
M  V30 3277 H 303.151 0.610467 4.2423 0
M  V30 3278 H 307.335 1.45205 4.74583 0
M  V30 3279 H 302.591 2.63689 5.51614 0
M  V30 3280 H 306.765 3.4779 6.03337 0
M  V30 3281 H 304.392 4.07613 6.41682 0
M  V30 3282 N 305.967 -1.56429 0.191757 0
M  V30 3283 C 306.93 -2.17707 -0.716688 0
M  V30 3284 C 307.93 -1.13061 -1.14341 0
M  V30 3285 O 309.12 -1.38464 -1.05704 0
M  V30 3286 C 306.252 -2.77644 -1.97804 0
M  V30 3287 H 307.445 -2.99342 -0.1829 0
M  V30 3288 H 304.998 -1.56193 -0.0578566 0
M  V30 3289 H 305.733 -1.99799 -2.55443 0
M  V30 3290 H 305.518 -3.54246 -1.68083 0
M  V30 3291 H 307.008 -3.24708 -2.62592 0
M  V30 3292 N 307.445 0.0818655 -1.57387 0
M  V30 3293 C 308.408 1.08265 -2.02018 0
M  V30 3294 C 309.408 1.32183 -0.915664 0
M  V30 3295 O 310.598 1.28073 -1.18081 0
M  V30 3296 C 307.73 2.42871 -2.39221 0
M  V30 3297 H 308.923 0.698204 -2.91659 0
M  V30 3298 H 306.476 0.327303 -1.52835 0
M  V30 3299 H 307.211 2.86167 -1.52575 0
M  V30 3300 H 306.996 2.26855 -3.19811 0
M  V30 3301 H 308.486 3.14826 -2.74362 0
M  V30 3302 N 308.923 1.53595 0.353017 0
M  V30 3303 C 310.339 1.43648 0.695516 0
M  V30 3304 C 310.539 0.585617 1.92802 0
M  V30 3305 O 309.595 0.0729223 2.52395 0
M  V30 3306 C 310.908 2.8701 0.896991 0
M  V30 3307 C 312.456 2.96723 0.996209 0
M  V30 3308 C 312.931 4.41173 1.23007 0
M  V30 3309 N 314.422 4.44657 1.29749 0
M  V30 3310 C 315.157 5.53547 1.49577 0
M  V30 3311 N 314.653 6.72461 1.66639 0
M  V30 3312 N 316.446 5.41145 1.52048 0
M  V30 3313 H 308.597 2.07415 -0.457481 0
M  V30 3314 H 310.86 0.9372 -0.142687 0
M  V30 3315 H 310.566 3.51644 0.0629938 0
M  V30 3316 H 310.44 3.31401 1.80148 0
M  V30 3317 H 312.827 2.32235 1.82074 0
M  V30 3318 H 312.908 2.55707 0.0688331 0
M  V30 3319 H 312.552 5.06238 0.410505 0
M  V30 3320 H 312.482 4.79772 2.17086 0
M  V30 3321 H 314.973 3.58963 1.18126 0
M  V30 3322 H 315.286 7.51214 1.81378 0
M  V30 3323 H 313.631 6.75423 1.63794 0
M  V30 3324 H 316.822 4.47205 1.38294 0
M  V30 3325 H 316.995 6.26068 1.67159 0
M  V30 3326 N 310.401 -0.613514 1.45168 0
M  V30 3327 C 311.364 -1.7065 1.53007 0
M  V30 3328 C 312.364 -1.5548 0.410184 0
M  V30 3329 O 313.554 -1.60656 0.673455 0
M  V30 3330 C 310.686 -3.09875 1.42093 0
M  V30 3331 H 311.879 -1.65068 2.50385 0
M  V30 3332 H 309.432 -0.828728 1.32521 0
M  V30 3333 H 310.167 -3.21039 0.458769 0
M  V30 3334 H 309.952 -3.22293 2.23315 0
M  V30 3335 H 311.442 -3.895 1.50598 0
M  V30 3336 N 311.879 -1.3236 -0.855495 0
M  V30 3337 C 312.809 -1.23833 -1.97958 0
M  V30 3338 C 313.79 -0.122361 -1.69659 0
M  V30 3339 O 314.975 -0.30939 -1.9172 0
M  V30 3340 C 312.105 -0.959772 -3.33775 0
M  V30 3341 C 311.059 -2.03689 -3.76424 0
M  V30 3342 C 310.385 -1.61075 -5.09862 0
M  V30 3343 C 311.685 -3.4518 -3.9198 0
M  V30 3344 H 313.379 -2.1788 -2.0535 0
M  V30 3345 H 310.925 -1.04891 -0.986605 0
M  V30 3346 H 312.878 -0.886678 -4.11966 0
M  V30 3347 H 311.602 0.0163404 -3.26596 0
M  V30 3348 H 310.261 -2.10012 -3.00484 0
M  V30 3349 H 309.909 -0.622107 -4.99138 0
M  V30 3350 H 309.609 -2.33143 -5.39368 0
M  V30 3351 H 311.133 -1.55201 -5.90546 0
M  V30 3352 H 312.547 -3.4145 -4.60526 0
M  V30 3353 H 310.944 -4.1559 -4.32903 0
M  V30 3354 H 312.014 -3.84903 -2.94919 0
M  V30 3355 N 313.357 1.07166 -1.15556 0
M  V30 3356 C 314.768 1.6127 -0.940693 0
M  V30 3357 C 315.119 1.89251 0.517551 0
M  V30 3358 O 314.244 1.65937 1.38903 0
M  V30 3359 C 314.839 2.92993 -1.7012 0
M  V30 3360 C 313.398 3.43832 -1.53156 0
M  V30 3361 C 312.545 2.1786 -1.71558 0
M  V30 3362 H 315.496 0.90229 -1.30554 0
M  V30 3363 H 315.517 3.62007 -1.17181 0
M  V30 3364 H 315.029 2.72596 -2.76248 0
M  V30 3365 H 313.13 3.69307 -0.494294 0
M  V30 3366 H 313.243 4.19747 -2.30975 0
M  V30 3367 H 311.607 2.2765 -1.14225 0
M  V30 3368 H 312.39 1.99956 -2.79056 0
M  V30 3369 N 314.835 0.952656 1.25548 0
M  V30 3370 C 315.765 0.489287 2.28316 0
M  V30 3371 C 316.746 -0.463359 1.63667 0
M  V30 3372 O 317.931 -0.36274 1.90782 0
M  V30 3373 C 315.061 -0.235603 3.465 0
M  V30 3374 C 314.015 0.631593 4.23314 0
M  V30 3375 C 313.341 -0.223923 5.34231 0
M  V30 3376 C 314.641 1.90871 4.86174 0
M  V30 3377 H 316.335 1.34822 2.67326 0
M  V30 3378 H 313.881 0.649728 1.28509 0
M  V30 3379 H 315.834 -0.570882 4.17515 0
M  V30 3380 H 314.558 -1.12877 3.06474 0
M  V30 3381 H 313.217 0.949929 3.54079 0
M  V30 3382 H 312.865 -1.11678 4.90446 0
M  V30 3383 H 312.565 0.35299 5.86539 0
M  V30 3384 H 314.089 -0.554214 6.0808 0
M  V30 3385 H 315.503 1.63997 5.49343 0
M  V30 3386 H 313.9 2.43112 5.4865 0
M  V30 3387 H 314.97 2.61304 4.08471 0
M  V30 3388 N 316.313 -1.40141 0.720998 0
M  V30 3389 C 317.243 -2.33339 0.0867621 0
M  V30 3390 C 318.224 -1.53178 -0.739622 0
M  V30 3391 O 319.409 -1.81625 -0.687449 0
M  V30 3392 C 316.539 -3.37194 -0.831728 0
M  V30 3393 C 315.493 -4.27857 -0.110558 0
M  V30 3394 C 314.819 -5.22294 -1.14513 0
M  V30 3395 C 316.119 -5.11872 1.0385 0
M  V30 3396 H 317.813 -2.86626 0.865219 0
M  V30 3397 H 315.359 -1.37814 0.417516 0
M  V30 3398 H 317.312 -4.01335 -1.28485 0
M  V30 3399 H 316.036 -2.82314 -1.64214 0
M  V30 3400 H 314.695 -3.65176 0.322797 0
M  V30 3401 H 314.343 -4.63717 -1.94874 0
M  V30 3402 H 314.043 -5.83797 -0.667446 0
M  V30 3403 H 315.567 -5.89312 -1.59824 0
M  V30 3404 H 316.981 -5.69436 0.664482 0
M  V30 3405 H 315.378 -5.82445 1.4449 0
M  V30 3406 H 316.448 -4.4753 1.86668 0
M  V30 3407 N 317.792 -0.46758 -1.50504 0
M  V30 3408 C 318.755 0.317059 -2.26996 0
M  V30 3409 C 319.755 0.923513 -1.31635 0
M  V30 3410 O 320.945 0.793239 -1.55091 0
M  V30 3411 C 318.077 1.45134 -3.08462 0
M  V30 3412 H 319.27 -0.353723 -2.97807 0
M  V30 3413 H 316.823 -0.221545 -1.54722 0
M  V30 3414 H 317.558 2.15728 -2.4214 0
M  V30 3415 H 317.343 1.02232 -3.78538 0
M  V30 3416 H 318.833 2.00493 -3.66323 0
M  V30 3417 N 319.27 1.56325 -0.20005 0
M  V30 3418 C 320.18 2.22931 0.730668 0
M  V30 3419 C 321.196 1.22997 1.23076 0
M  V30 3420 O 322.372 1.55748 1.27689 0
M  V30 3421 C 319.437 2.87948 1.93098 0
M  V30 3422 C 318.498 4.03166 1.47497 0
M  V30 3423 C 317.731 4.65073 2.61807 0
M  V30 3424 O 317.954 4.25913 3.79413 0
M  V30 3425 O 316.888 5.54452 2.34237 0
M  V30 3426 H 320.714 3.03084 0.193391 0
M  V30 3427 H 318.299 1.49371 0.0294621 0
M  V30 3428 H 320.181 3.29063 2.6324 0
M  V30 3429 H 318.856 2.10771 2.45677 0
M  V30 3430 H 317.763 3.66664 0.742201 0
M  V30 3431 H 319.096 4.82022 0.995796 0
M  V30 3432 N 320.748 -0.0735177 1.57428 0
M  V30 3433 C 321.976 -0.785969 1.9139 0
M  V30 3434 C 322.391 -1.71207 0.795847 0
M  V30 3435 O 321.748 -1.81033 -0.230915 0
M  V30 3436 C 321.799 -1.58107 3.25091 0
M  V30 3437 O 321.52 -0.6922 4.32597 0
M  V30 3438 C 323.021 -2.39467 3.73055 0
M  V30 3439 H 320.241 -0.223558 0.632663 0
M  V30 3440 H 322.785 -0.044302 2.04452 0
M  V30 3441 H 320.94 -2.27503 3.13562 0
M  V30 3442 H 321.354 -1.24504 5.09508 0
M  V30 3443 H 322.828 -2.90716 4.69242 0
M  V30 3444 H 323.305 -3.18913 3.01979 0
M  V30 3445 H 323.911 -1.7523 3.87523 0
M  V30 3446 N 322.226 -1.5378 -0.344866 0
M  V30 3447 C 323.474 -1.70625 -1.08311 0
M  V30 3448 C 323.795 -0.471447 -1.89215 0
M  V30 3449 O 323.065 0.514616 -1.8902 0
M  V30 3450 H 321.645 -0.629058 -0.402859 0
M  V30 3451 H 324.307 -1.9103 -0.386459 0
M  V30 3452 H 323.403 -2.57656 -1.76124 0
M  V30 3453 N 323.704 0.605807 -1.45491 0
M  V30 3454 C 324.634 1.72709 -1.57143 0
M  V30 3455 C 325.615 1.6476 -0.422884 0
M  V30 3456 O 326.8 1.83132 -0.646247 0
M  V30 3457 C 323.93 3.11316 -1.53948 0
M  V30 3458 C 322.884 3.34077 -2.67537 0
M  V30 3459 C 322.21 4.72975 -2.49397 0
M  V30 3460 C 323.51 3.24158 -4.09535 0
M  V30 3461 H 325.204 1.63214 -2.51001 0
M  V30 3462 H 322.75 0.78379 -1.208 0
M  V30 3463 H 324.703 3.89557 -1.60696 0
M  V30 3464 H 323.427 3.21655 -0.566205 0
M  V30 3465 H 322.086 2.58227 -2.6022 0
M  V30 3466 H 321.734 4.8005 -1.50205 0
M  V30 3467 H 321.434 4.8916 -3.25571 0
M  V30 3468 H 322.958 5.53414 -2.58002 0
M  V30 3469 H 324.372 3.92271 -4.18086 0
M  V30 3470 H 322.769 3.51872 -4.86113 0
M  V30 3471 H 323.839 2.2157 -4.31317 0
M  V30 3472 N 325.182 1.32811 0.848464 0
M  V30 3473 C 326.13 1.22231 1.97895 0
M  V30 3474 C 327.124 0.125749 1.68933 0
M  V30 3475 O 328.33 0.289083 1.77663 0
M  V30 3476 H 324.705 0.379058 0.649476 0
M  V30 3477 H 326.676 2.17828 2.03945 0
M  V30 3478 C 325.425 0.968572 3.33937 0
M  V30 3479 H 324.748 1.80458 3.56756 0
M  V30 3480 H 326.188 0.934808 4.13567 0
M  V30 3481 C 324.647 -0.328628 3.35293 0
M  V30 3482 O 325.177 -1.33848 3.78745 0
M  V30 3483 N 323.383 -0.352788 2.88451 0
M  V30 3484 H 322.93 0.469541 2.53285 0
M  V30 3485 H 322.888 -1.22057 2.89741 0
M  V30 3486 N 326.66 -1.06551 1.16123 0
M  V30 3487 C 327.623 -2.12132 0.867906 0
M  V30 3488 C 328.623 -1.60224 -0.135944 0
M  V30 3489 O 329.813 -1.73943 0.0946422 0
M  V30 3490 C 326.945 -3.396 0.297419 0
M  V30 3491 H 328.138 -2.39586 1.80385 0
M  V30 3492 H 325.691 -1.22574 0.969812 0
M  V30 3493 H 326.426 -3.17794 -0.64633 0
M  V30 3494 H 326.211 -3.78581 1.02073 0
M  V30 3495 H 327.701 -4.17455 0.110052 0
M  V30 3496 N 328.138 -0.959301 -1.25041 0
M  V30 3497 C 329.368 -0.63303 -1.96663 0
M  V30 3498 C 329.776 0.800031 -1.71453 0
M  V30 3499 O 329.119 1.54736 -0.99008 0
M  V30 3500 C 329.181 -0.817523 -3.50081 0
M  V30 3501 C 328.845 -2.22863 -3.98975 0
M  V30 3502 C 329.842 -3.20569 -4.09306 0
M  V30 3503 C 327.527 -2.55407 -4.32519 0
M  V30 3504 C 329.521 -4.4891 -4.52503 0
M  V30 3505 C 327.208 -3.83976 -4.754 0
M  V30 3506 C 328.206 -4.8054 -4.85356 0
M  V30 3507 O 327.894 -6.06817 -5.27284 0
M  V30 3508 H 327.626 -0.235866 -0.633516 0
M  V30 3509 H 330.18 -1.2874 -1.60047 0
M  V30 3510 H 328.41 -0.105992 -3.86555 0
M  V30 3511 H 330.099 -0.491604 -4.02912 0
M  V30 3512 H 330.865 -2.96753 -3.83618 0
M  V30 3513 H 326.744 -1.8097 -4.23994 0
M  V30 3514 H 330.288 -5.24283 -4.60188 0
M  V30 3515 H 326.185 -4.07596 -5.00535 0
M  V30 3516 H 326.953 -6.10262 -5.45457 0
M  V30 3517 N 329.616 1.39756 -0.72842 0
M  V30 3518 C 330.546 2.33289 -0.0991354 0
M  V30 3519 C 331.527 1.53568 0.731489 0
M  V30 3520 O 332.712 1.81987 0.677807 0
M  V30 3521 C 329.842 3.3763 0.813834 0
M  V30 3522 C 328.796 4.2791 0.0878663 0
M  V30 3523 C 328.122 5.22894 1.11741 0
M  V30 3524 C 329.422 5.11314 -1.06563 0
M  V30 3525 H 331.116 2.86163 -0.880408 0
M  V30 3526 H 328.662 1.37591 -0.424819 0
M  V30 3527 H 330.615 4.0201 1.26355 0
M  V30 3528 H 329.339 2.83181 1.62715 0
M  V30 3529 H 327.998 3.65 -0.342159 0
M  V30 3530 H 327.646 4.64744 1.92412 0
M  V30 3531 H 327.346 5.84143 0.636477 0
M  V30 3532 H 328.87 5.90151 1.56697 0
M  V30 3533 H 330.284 5.69076 -0.694671 0
M  V30 3534 H 328.681 5.81671 -1.47577 0
M  V30 3535 H 329.751 4.46534 -1.89038 0
M  V30 3536 N 331.094 0.475555 1.50254 0
M  V30 3537 C 332.505 0.0215174 1.86688 0
M  V30 3538 C 332.856 -1.38467 1.39001 0
M  V30 3539 O 331.981 -2.02732 0.756894 0
M  V30 3540 C 332.576 0.0322715 3.38785 0
M  V30 3541 C 331.135 -0.366314 3.74613 0
M  V30 3542 C 330.282 0.415832 2.74164 0
M  V30 3543 H 333.233 0.689612 1.42934 0
M  V30 3544 H 333.254 -0.76889 3.7265 0
M  V30 3545 H 332.766 1.05584 3.73462 0
M  V30 3546 H 330.867 -1.39406 3.45538 0
M  V30 3547 H 330.98 -0.064555 4.79057 0
M  V30 3548 H 329.344 -0.131048 2.54363 0
M  V30 3549 H 330.127 1.43899 3.11686 0
M  V30 3550 N 332.573 -1.56217 0.208337 0
M  V30 3551 C 333.821 -1.97558 -0.426076 0
M  V30 3552 C 334.142 -1.09683 -1.61229 0
M  V30 3553 O 333.412 -0.170956 -1.95153 0
M  V30 3554 H 331.992 -0.729575 -0.160405 0
M  V30 3555 H 334.654 -1.92606 0.298155 0
M  V30 3556 H 333.75 -3.02672 -0.761312 0
M  V30 3557 N 334.051 0.0651679 -1.57465 0
M  V30 3558 C 334.981 1.07693 -2.07182 0
M  V30 3559 C 335.962 1.39962 -0.966673 0
M  V30 3560 O 337.147 1.49475 -1.2398 0
M  V30 3561 C 334.277 2.3885 -2.52127 0
M  V30 3562 C 333.231 2.20917 -3.66579 0
M  V30 3563 C 332.557 3.57515 -3.97601 0
M  V30 3564 C 333.857 1.62493 -4.9638 0
M  V30 3565 H 335.551 0.663199 -2.91962 0
M  V30 3566 H 333.097 0.317569 -1.40455 0
M  V30 3567 H 335.05 3.09928 -2.85522 0
M  V30 3568 H 333.774 2.82215 -1.64384 0
M  V30 3569 H 332.433 1.52279 -3.33477 0
M  V30 3570 H 332.081 3.98463 -3.06979 0
M  V30 3571 H 331.781 3.46353 -4.74672 0
M  V30 3572 H 333.305 4.30013 -4.33499 0
M  V30 3573 H 334.719 2.23445 -5.27963 0
M  V30 3574 H 333.116 1.62009 -5.77818 0
M  V30 3575 H 334.186 0.587041 -4.81333 0
M  V30 3576 N 335.529 1.53961 0.336706 0
M  V30 3577 C 336.492 1.81724 1.39675 0
M  V30 3578 C 337.492 0.688532 1.45313 0
M  V30 3579 O 338.682 0.956829 1.45569 0
M  V30 3580 C 335.814 1.96543 2.78538 0
M  V30 3581 H 337.007 2.76424 1.16318 0
M  V30 3582 H 334.56 1.45478 0.571474 0
M  V30 3583 H 335.295 1.0401 3.07168 0
M  V30 3584 H 335.08 2.78665 2.75841 0
M  V30 3585 H 336.57 2.19516 3.5525 0
M  V30 3586 N 337.007 -0.598083 1.45811 0
M  V30 3587 C 338.255 -1.35413 1.50026 0
M  V30 3588 C 338.576 -1.94444 0.147177 0
M  V30 3589 O 337.846 -1.77701 -0.824571 0
M  V30 3590 H 336.426 -0.502727 0.552517 0
M  V30 3591 H 339.088 -0.701606 1.81834 0
M  V30 3592 H 338.184 -2.16871 2.2444 0
M  V30 3593 N 338.485 -1.33259 -0.841409 0
M  V30 3594 C 339.432 -1.23302 -1.95103 0
M  V30 3595 C 340.402 -0.112204 -1.65721 0
M  V30 3596 O 341.587 -0.290038 -1.88583 0
M  V30 3597 C 338.727 -0.975583 -3.31023 0
M  V30 3598 C 337.84 -2.18243 -3.72819 0
M  V30 3599 C 336.975 -1.85936 -4.97595 0
M  V30 3600 C 336.014 -3.02866 -5.3192 0
M  V30 3601 N 335.151 -2.70565 -6.47873 0
M  V30 3602 H 339.991 -2.18207 -2.02952 0
M  V30 3603 H 337.528 -1.0851 -0.993173 0
M  V30 3604 H 339.486 -0.80677 -4.09325 0
M  V30 3605 H 338.116 -0.0632755 -3.22738 0
M  V30 3606 H 337.168 -2.46107 -2.90061 0
M  V30 3607 H 338.48 -3.05666 -3.94169 0
M  V30 3608 H 337.634 -1.65684 -5.83638 0
M  V30 3609 H 336.373 -0.957452 -4.78209 0
M  V30 3610 H 335.378 -3.23736 -4.44382 0
M  V30 3611 H 336.603 -3.93809 -5.53255 0
M  V30 3612 H 334.549 -1.8293 -6.29978 0
M  V30 3613 H 334.466 -3.51519 -6.69306 0
M  V30 3614 H 335.734 -2.53774 -7.37034 0
M  V30 3615 N 339.963 1.05934 -1.16686 0
M  V30 3616 C 340.873 2.17014 -0.891183 0
M  V30 3617 C 341.889 1.73453 0.137907 0
M  V30 3618 O 343.065 2.01361 -0.039592 0
M  V30 3619 C 340.13 3.44384 -0.400099 0
M  V30 3620 C 339.191 4.02433 -1.49486 0
M  V30 3621 C 338.424 5.23723 -1.02711 0
M  V30 3622 O 338.647 5.7027 0.121716 0
M  V30 3623 O 337.581 5.7382 -1.81699 0
M  V30 3624 H 341.407 2.43113 -1.82015 0
M  V30 3625 H 338.992 1.15541 -0.947132 0
M  V30 3626 H 340.874 4.21189 -0.133392 0
M  V30 3627 H 339.549 3.19802 0.500817 0
M  V30 3628 H 338.456 3.27102 -1.81535 0
M  V30 3629 H 339.789 4.31317 -2.37121 0
M  V30 3630 N 341.441 0.965919 1.2453 0
M  V30 3631 C 342.388 0.49402 2.25451 0
M  V30 3632 C 343.358 -0.45948 1.59618 0
M  V30 3633 O 344.543 -0.370238 1.87173 0
M  V30 3634 C 341.683 -0.211359 3.44452 0
M  V30 3635 C 340.796 0.7807 4.24887 0
M  V30 3636 C 339.931 0.0516105 5.31175 0
M  V30 3637 C 338.97 1.03385 6.03306 0
M  V30 3638 N 338.107 0.334887 7.01301 0
M  V30 3639 H 342.947 1.35946 2.65184 0
M  V30 3640 H 340.484 0.681515 1.3036 0
M  V30 3641 H 342.442 -0.637 4.12308 0
M  V30 3642 H 341.072 -1.04077 3.05562 0
M  V30 3643 H 340.124 1.32479 3.56586 0
M  V30 3644 H 341.436 1.52978 4.74762 0
M  V30 3645 H 340.59 -0.432114 6.05159 0
M  V30 3646 H 339.329 -0.730179 4.82203 0
M  V30 3647 H 338.334 1.52847 5.28127 0
M  V30 3648 H 339.559 1.81606 6.54367 0
M  V30 3649 H 337.505 -0.427959 6.54603 0
M  V30 3650 H 337.422 1.02287 7.49048 0
M  V30 3651 H 338.69 -0.126928 7.79397 0
M  V30 3652 N 342.919 -1.39368 0.735821 0
M  V30 3653 C 343.851 -2.2913 0.0567723 0
M  V30 3654 C 344.864 -1.46859 -0.702589 0
M  V30 3655 O 346.053 -1.69925 -0.546616 0
M  V30 3656 C 343.153 -3.25492 -0.943823 0
M  V30 3657 C 342.326 -4.36709 -0.24581 0
M  V30 3658 C 341.385 -5.13376 -1.15463 0
M  V30 3659 O 340.411 -5.65683 -0.631803 0
M  V30 3660 N 341.613 -5.24656 -2.48427 0
M  V30 3661 H 344.378 -2.88047 0.827582 0
M  V30 3662 H 341.939 -1.50957 0.585112 0
M  V30 3663 H 343.931 -3.73657 -1.55443 0
M  V30 3664 H 342.501 -2.676 -1.61583 0
M  V30 3665 H 341.721 -3.9041 0.545286 0
M  V30 3666 H 343.009 -5.08244 0.237891 0
M  V30 3667 H 342.407 -4.83679 -2.93379 0
M  V30 3668 H 340.964 -5.76258 -3.04582 0
M  V30 3669 N 344.397 -0.483516 -1.5 0
M  V30 3670 C 345.327 0.293829 -2.31644 0
M  V30 3671 C 346.308 0.978864 -1.39112 0
M  V30 3672 O 347.493 0.973644 -1.68029 0
M  V30 3673 C 344.623 1.36897 -3.19181 0
M  V30 3674 C 343.577 0.804833 -4.20365 0
M  V30 3675 C 342.903 1.9792 -4.96721 0
M  V30 3676 C 344.203 -0.192313 -5.21946 0
M  V30 3677 H 345.897 -0.387616 -2.9688 0
M  V30 3678 H 343.443 -0.187856 -1.42769 0
M  V30 3679 H 345.396 1.92037 -3.751 0
M  V30 3680 H 344.12 2.07936 -2.51853 0
M  V30 3681 H 342.779 0.275319 -3.65565 0
M  V30 3682 H 342.427 2.67686 -4.25856 0
M  V30 3683 H 342.127 1.60789 -5.65173 0
M  V30 3684 H 343.651 2.53526 -5.55479 0
M  V30 3685 H 345.065 0.270333 -5.72662 0
M  V30 3686 H 343.462 -0.478543 -5.98189 0
M  V30 3687 H 344.532 -1.11409 -4.71928 0
M  V30 3688 N 345.875 1.56104 -0.216619 0
M  V30 3689 C 347.291 1.58995 0.13886 0
M  V30 3690 C 347.491 1.23333 1.59346 0
M  V30 3691 O 346.547 0.966234 2.33281 0
M  V30 3692 C 347.86 3.00143 -0.182968 0
M  V30 3693 C 349.408 3.12751 -0.124807 0
M  V30 3694 C 349.883 4.56068 -0.420241 0
M  V30 3695 N 351.374 4.61723 -0.369634 0
M  V30 3696 C 352.109 5.70542 -0.571789 0
M  V30 3697 N 351.605 6.87744 -0.835453 0
M  V30 3698 N 353.398 5.59831 -0.504563 0
M  V30 3699 H 345.549 1.77562 -1.16557 0
M  V30 3700 H 347.812 0.825091 -0.466828 0
M  V30 3701 H 347.518 3.30871 -1.19237 0
M  V30 3702 H 347.392 3.73813 0.504367 0
M  V30 3703 H 349.779 2.81822 0.875223 0
M  V30 3704 H 349.86 2.41421 -0.845544 0
M  V30 3705 H 349.504 4.87713 -1.41769 0
M  V30 3706 H 349.434 5.25617 0.321631 0
M  V30 3707 H 351.925 3.77502 -0.173338 0
M  V30 3708 H 352.238 7.66587 -0.977938 0
M  V30 3709 H 350.583 6.895 -0.872592 0
M  V30 3710 H 353.774 4.67145 -0.298842 0
M  V30 3711 H 353.947 6.44573 -0.665519 0
M  V30 3712 N 347.353 -0.0568162 1.57498 0
M  V30 3713 C 348.283 -1.06593 2.0775 0
M  V30 3714 C 349.264 -1.39448 0.974082 0
M  V30 3715 O 350.449 -1.48815 1.24771 0
M  V30 3716 C 347.579 -2.37509 2.5339 0
M  V30 3717 C 346.533 -2.1897 3.67745 0
M  V30 3718 C 345.859 -3.55402 3.99492 0
M  V30 3719 C 347.159 -1.59859 4.97235 0
M  V30 3720 H 348.853 -0.647706 2.9231 0
M  V30 3721 H 346.399 -0.310116 1.40621 0
M  V30 3722 H 348.352 -3.08409 2.87162 0
M  V30 3723 H 347.076 -2.8134 1.65878 0
M  V30 3724 H 345.735 -1.50508 3.3428 0
M  V30 3725 H 345.383 -3.9683 3.09088 0
M  V30 3726 H 345.083 -3.43831 4.76502 0
M  V30 3727 H 346.607 -4.27708 4.35773 0
M  V30 3728 H 348.021 -2.20642 5.29141 0
M  V30 3729 H 346.418 -1.58942 5.78669 0
M  V30 3730 H 347.488 -0.561506 4.81638 0
M  V30 3731 N 348.832 -1.54138 -0.328536 0
M  V30 3732 C 349.795 -1.82462 -1.38709 0
M  V30 3733 C 350.795 -0.696229 -1.44946 0
M  V30 3734 O 351.985 -0.964535 -1.4506 0
M  V30 3735 C 349.117 -1.98018 -2.77492 0
M  V30 3736 H 350.31 -2.77037 -1.14851 0
M  V30 3737 H 347.863 -1.45779 -0.563751 0
M  V30 3738 H 348.598 -1.05637 -3.06613 0
M  V30 3739 H 348.383 -2.80124 -2.74359 0
M  V30 3740 H 349.873 -2.21396 -3.54081 0
M  V30 3741 N 350.31 0.590341 -1.46126 0
M  V30 3742 C 351.273 1.68194 -1.55703 0
M  V30 3743 C 352.273 1.54808 -0.434868 0
M  V30 3744 O 353.463 1.59564 -0.698928 0
M  V30 3745 C 350.595 3.07575 -1.47005 0
M  V30 3746 H 351.788 1.61064 -2.52979 0
M  V30 3747 H 349.341 0.807541 -1.33823 0
M  V30 3748 H 350.076 3.20268 -0.509785 0
M  V30 3749 H 349.861 3.187 -2.28414 0
M  V30 3750 H 351.351 3.87055 -1.56776 0
M  V30 3751 N 351.788 1.33704 0.83433 0
M  V30 3752 C 352.751 1.24244 1.92603 0
M  V30 3753 C 353.751 0.160383 1.59998 0
M  V30 3754 O 354.941 0.412228 1.69252 0
M  V30 3755 C 352.073 0.91555 3.28376 0
M  V30 3756 H 353.266 2.21287 2.02416 0
M  V30 3757 H 350.819 1.17827 1.02696 0
M  V30 3758 H 351.554 -0.0521886 3.24258 0
M  V30 3759 H 351.339 1.69811 3.53422 0
M  V30 3760 H 352.829 0.874231 4.08347 0
M  V30 3761 N 353.266 -1.05314 1.17247 0
M  V30 3762 C 354.496 -1.81707 0.983166 0
M  V30 3763 C 354.904 -1.83222 -0.471822 0
M  V30 3764 O 354.247 -1.25721 -1.3394 0
M  V30 3765 C 354.309 -3.29134 1.44606 0
M  V30 3766 C 353.973 -3.51304 2.92292 0
M  V30 3767 C 354.97 -3.4353 3.90235 0
M  V30 3768 C 352.655 -3.78306 3.30439 0
M  V30 3769 C 354.649 -3.62442 5.24323 0
M  V30 3770 C 352.336 -3.96866 4.64694 0
M  V30 3771 C 353.334 -3.88933 5.61445 0
M  V30 3772 O 353.022 -4.06976 6.93272 0
M  V30 3773 H 352.754 -0.579476 0.348114 0
M  V30 3774 H 355.308 -1.33705 1.55924 0
M  V30 3775 H 353.538 -3.78046 0.813537 0
M  V30 3776 H 355.227 -3.87049 1.22262 0
M  V30 3777 H 355.993 -3.22648 3.62109 0
M  V30 3778 H 351.872 -3.83585 2.55702 0
M  V30 3779 H 355.416 -3.56165 5.99827 0
M  V30 3780 H 351.313 -4.1724 4.92525 0
M  V30 3781 H 352.081 -4.24209 6.99992 0
M  V30 3782 N 354.744 -0.972509 -1.24016 0
M  V30 3783 C 356.16 -0.679827 -1.44397 0
M  V30 3784 C 356.36 0.756716 -1.86751 0
M  V30 3785 O 355.416 1.53007 -2.00861 0
M  V30 3786 C 356.729 -1.66803 -2.50195 0
M  V30 3787 C 358.277 -1.68119 -2.64017 0
M  V30 3788 C 358.752 -2.65748 -3.73017 0
M  V30 3789 N 360.243 -2.64219 -3.8045 0
M  V30 3790 C 360.978 -3.36433 -4.64328 0
M  V30 3791 N 360.474 -4.1818 -5.52356 0
M  V30 3792 N 362.267 -3.25235 -4.58453 0
M  V30 3793 H 354.418 -1.90059 -0.948228 0
M  V30 3794 H 356.681 -0.818527 -0.478245 0
M  V30 3795 H 356.387 -2.69498 -2.25973 0
M  V30 3796 H 356.261 -1.4446 -3.48441 0
M  V30 3797 H 358.648 -0.661319 -2.87594 0
M  V30 3798 H 358.729 -1.94525 -1.66113 0
M  V30 3799 H 358.373 -3.67872 -3.50189 0
M  V30 3800 H 358.303 -2.36619 -4.70446 0
M  V30 3801 H 360.794 -2.04887 -3.17537 0
M  V30 3802 H 361.107 -4.70157 -6.13329 0
M  V30 3803 H 359.452 -4.22273 -5.52006 0
M  V30 3804 H 362.643 -2.60829 -3.88698 0
M  V30 3805 H 362.816 -3.81776 -5.23594 0
M  V30 3806 N 356.222 1.38976 -0.743202 0
M  V30 3807 C 357.468 2.01114 -0.304109 0
M  V30 3808 C 357.823 1.57929 1.09892 0
M  V30 3809 O 357.116 0.801983 1.74008 0
M  V30 3810 C 357.31 3.55647 -0.353517 0
M  V30 3811 C 357.139 4.13837 -1.75981 0
M  V30 3812 C 355.909 4.46062 -2.37395 0
M  V30 3813 C 358.107 4.36812 -2.71477 0
M  V30 3814 N 356.089 4.898 -3.70093 0
M  V30 3815 C 357.46 4.82844 -3.88923 0
M  V30 3816 C 359.515 4.18893 -2.69134 0
M  V30 3817 C 358.218 5.12837 -5.04371 0
M  V30 3818 C 360.244 4.50005 -3.83731 0
M  V30 3819 C 359.606 4.96251 -4.99914 0
M  V30 3820 H 355.705 0.765931 -0.157716 0
M  V30 3821 H 358.289 1.68763 -0.970931 0
M  V30 3822 H 356.46 3.87368 0.282987 0
M  V30 3823 H 358.192 4.04564 0.104904 0
M  V30 3824 H 354.947 4.34145 -1.89248 0
M  V30 3825 H 355.371 5.16016 -4.38242 0
M  V30 3826 H 360.013 3.82335 -1.80499 0
M  V30 3827 H 357.731 5.48297 -5.9363 0
M  V30 3828 H 361.317 4.37755 -3.83225 0
M  V30 3829 H 360.197 5.19867 -5.87118 0
M  V30 3830 N 357.7 0.491464 1.49741 0
M  V30 3831 C 359.111 0.0413169 1.86654 0
M  V30 3832 C 359.462 -1.36985 1.40462 0
M  V30 3833 O 358.587 -2.01917 0.778354 0
M  V30 3834 C 359.182 0.0682023 3.38731 0
M  V30 3835 C 357.741 -0.32656 3.74981 0
M  V30 3836 C 356.888 0.444888 2.73708 0
M  V30 3837 H 359.839 0.704733 1.42194 0
M  V30 3838 H 359.86 -0.729322 3.73445 0
M  V30 3839 H 359.372 1.09539 3.72321 0
M  V30 3840 H 357.473 -1.35734 3.46997 0
M  V30 3841 H 357.586 -0.013741 4.79098 0
M  V30 3842 H 355.95 -0.104062 2.54487 0
M  V30 3843 H 356.733 1.47197 3.10142 0
M  V30 3844 N 359.178 -1.55987 0.224894 0
M  V30 3845 C 360.424 -1.99433 -0.39973 0
M  V30 3846 C 360.779 -1.11004 -1.57149 0
M  V30 3847 O 360.072 -0.160725 -1.90925 0
M  V30 3848 C 360.266 -3.46394 -0.880106 0
M  V30 3849 C 360.095 -4.4904 0.243565 0
M  V30 3850 C 358.865 -5.00272 0.711056 0
M  V30 3851 C 361.063 -5.03195 1.06299 0
M  V30 3852 N 359.045 -5.86628 1.80944 0
M  V30 3853 C 360.416 -5.86508 2.01017 0
M  V30 3854 C 362.471 -4.8555 1.10205 0
M  V30 3855 C 361.174 -6.54062 2.99324 0
M  V30 3856 C 363.2 -5.53866 2.07332 0
M  V30 3857 C 362.562 -6.3695 3.00789 0
M  V30 3858 H 358.661 -0.773815 -0.112847 0
M  V30 3859 H 361.245 -1.91754 0.337432 0
M  V30 3860 H 359.416 -3.54515 -1.58662 0
M  V30 3861 H 361.148 -3.76752 -1.47783 0
M  V30 3862 H 357.903 -4.72655 0.29906 0
M  V30 3863 H 358.327 -6.34507 2.36073 0
M  V30 3864 H 362.969 -4.20966 0.39343 0
M  V30 3865 H 360.687 -7.17827 3.71147 0
M  V30 3866 H 364.273 -5.42178 2.11032 0
M  V30 3867 H 363.153 -6.8888 3.74718 0
M  V30 3868 N 360.656 0.0484629 -1.57525 0
M  V30 3869 C 361.586 1.0549 -2.08313 0
M  V30 3870 C 362.567 1.38929 -0.981463 0
M  V30 3871 O 363.752 1.48151 -1.25558 0
M  V30 3872 C 360.882 2.36162 -2.54646 0
M  V30 3873 C 359.836 2.17016 -3.68901 0
M  V30 3874 C 359.162 3.53278 -4.01371 0
M  V30 3875 C 360.462 1.57219 -4.98076 0
M  V30 3876 H 362.156 0.632195 -2.92649 0
M  V30 3877 H 359.702 0.302654 -1.40784 0
M  V30 3878 H 361.655 3.06882 -2.88793 0
M  V30 3879 H 360.379 2.80456 -1.67368 0
M  V30 3880 H 359.038 1.48733 -3.35073 0
M  V30 3881 H 358.686 3.95185 -3.11188 0
M  V30 3882 H 358.386 3.41299 -4.78318 0
M  V30 3883 H 359.91 4.25391 -4.38035 0
M  V30 3884 H 361.324 2.17832 -5.30304 0
M  V30 3885 H 359.721 1.55871 -5.79503 0
M  V30 3886 H 360.791 0.535956 -4.81929 0
M  V30 3887 N 362.134 1.5431 0.320358 0
M  V30 3888 C 363.097 1.83195 1.3774 0
M  V30 3889 C 364.097 0.703906 1.44575 0
M  V30 3890 O 365.287 0.972214 1.44546 0
M  V30 3891 C 362.419 1.99487 2.76438 0
M  V30 3892 H 363.612 2.77642 1.1338 0
M  V30 3893 H 361.165 1.46076 0.556012 0
M  V30 3894 H 361.9 1.07262 3.06048 0
M  V30 3895 H 361.685 2.81575 2.7287 0
M  V30 3896 H 363.175 2.23271 3.52902 0
M  V30 3897 N 363.613 -0.582584 1.46437 0
M  V30 3898 C 364.576 -1.67366 1.56592 0
M  V30 3899 C 365.576 -1.54575 0.443072 0
M  V30 3900 O 366.766 -1.59191 0.707381 0
M  V30 3901 C 363.898 -3.06791 1.48634 0
M  V30 3902 H 365.091 -1.5972 2.5383 0
M  V30 3903 H 362.644 -0.800432 1.34249 0
M  V30 3904 H 363.379 -3.19993 0.526763 0
M  V30 3905 H 363.164 -3.17484 2.30101 0
M  V30 3906 H 364.654 -3.86218 1.58826 0
M  V30 3907 N 365.091 -1.34144 -0.827227 0
M  V30 3908 C 366.507 -1.13732 -1.11969 0
M  V30 3909 C 366.707 0.0640463 -2.01398 0
M  V30 3910 O 365.763 0.740856 -2.41387 0
M  V30 3911 C 367.076 -2.43047 -1.77055 0
M  V30 3912 C 368.624 -2.49063 -1.89569 0
M  V30 3913 C 369.099 -3.78369 -2.58072 0
M  V30 3914 N 370.59 -3.79505 -2.65575 0
M  V30 3915 C 371.325 -4.76274 -3.19297 0
M  V30 3916 N 370.821 -5.83424 -3.73616 0
M  V30 3917 N 372.614 -4.63735 -3.17658 0
M  V30 3918 H 364.765 -2.11126 -0.232296 0
M  V30 3919 H 367.028 -0.933424 -0.165602 0
M  V30 3920 H 366.734 -3.31025 -1.18807 0
M  V30 3921 H 366.608 -2.56066 -2.76966 0
M  V30 3922 H 368.995 -1.61527 -2.46968 0
M  V30 3923 H 369.076 -2.39975 -0.885745 0
M  V30 3924 H 368.72 -4.66293 -2.01329 0
M  V30 3925 H 368.65 -3.84737 -3.59562 0
M  V30 3926 H 371.141 -3.02074 -2.27068 0
M  V30 3927 H 371.454 -6.53282 -4.12846 0
M  V30 3928 H 369.799 -5.87143 -3.71871 0
M  V30 3929 H 372.99 -3.79177 -2.74486 0
M  V30 3930 H 373.163 -5.39318 -3.59221 0
M  V30 3931 N 366.569 1.04691 -1.17803 0
M  V30 3932 C 367.479 2.16057 -0.914151 0
M  V30 3933 C 368.495 1.73589 0.119503 0
M  V30 3934 O 369.671 2.01308 -0.0609468 0
M  V30 3935 C 366.736 3.4394 -0.436603 0
M  V30 3936 C 365.797 4.00825 -1.53746 0
M  V30 3937 C 365.03 5.22604 -1.0826 0
M  V30 3938 O 365.253 5.70367 0.0612244 0
M  V30 3939 O 364.187 5.7186 -1.87775 0
M  V30 3940 H 368.013 2.41169 -1.84584 0
M  V30 3941 H 365.598 1.1453 -0.959334 0
M  V30 3942 H 367.48 4.21024 -0.178057 0
M  V30 3943 H 366.155 3.20316 0.466869 0
M  V30 3944 H 365.062 3.25158 -1.84995 0
M  V30 3945 H 366.395 4.28778 -2.41683 0
M  V30 3946 N 368.047 0.979072 1.23499 0
M  V30 3947 C 368.957 0.526431 2.28617 0
M  V30 3948 C 369.973 -0.418126 1.68901 0
M  V30 3949 O 371.149 -0.288372 1.99325 0
M  V30 3950 C 368.214 -0.165235 3.46306 0
M  V30 3951 C 367.275 0.82056 4.21385 0
M  V30 3952 C 366.508 0.161807 5.33455 0
M  V30 3953 O 366.731 -1.04742 5.60701 0
M  V30 3954 O 365.665 0.859708 5.95729 0
M  V30 3955 H 369.491 1.4006 2.69475 0
M  V30 3956 H 367.076 0.746643 1.29405 0
M  V30 3957 H 368.958 -0.553287 4.17752 0
M  V30 3958 H 367.633 -1.01419 3.07402 0
M  V30 3959 H 366.54 1.25929 3.52268 0
M  V30 3960 H 367.873 1.63828 4.64135 0
M  V30 3961 N 369.525 -1.3858 0.750561 0
M  V30 3962 C 370.941 -1.53759 0.427824 0
M  V30 3963 C 371.141 -1.71401 -1.05943 0
M  V30 3964 O 370.197 -1.72331 -1.84549 0
M  V30 3965 C 371.51 -2.74642 1.22443 0
M  V30 3966 C 373.058 -2.88489 1.2142 0
M  V30 3967 C 373.533 -4.12329 1.9937 0
M  V30 3968 N 375.024 -4.194 1.96616 0
M  V30 3969 C 375.759 -5.14209 2.53727 0
M  V30 3970 N 375.255 -6.14709 3.19539 0
M  V30 3971 N 377.048 -5.06537 2.43673 0
M  V30 3972 H 369.199 -1.25377 1.71447 0
M  V30 3973 H 371.462 -0.608844 0.726645 0
M  V30 3974 H 371.168 -2.68 2.27747 0
M  V30 3975 H 371.042 -3.67745 0.839273 0
M  V30 3976 H 373.429 -2.94614 0.169232 0
M  V30 3977 H 373.51 -1.96406 1.63885 0
M  V30 3978 H 373.154 -4.06966 3.03877 0
M  V30 3979 H 373.084 -5.03486 1.54302 0
M  V30 3980 H 375.575 -3.47421 1.48684 0
M  V30 3981 H 375.888 -6.8354 3.60545 0
M  V30 3982 H 374.233 -6.1505 3.23633 0
M  V30 3983 H 377.424 -4.26962 1.91889 0
M  V30 3984 H 377.597 -5.80245 2.88479 0
M  V30 3985 N 371.003 -0.499398 -1.49478 0
M  V30 3986 C 372.249 0.0377587 -2.03365 0
M  V30 3987 C 372.604 1.3484 -1.37244 0
M  V30 3988 O 371.897 1.85 -0.498547 0
M  V30 3989 C 372.091 0.248424 -3.56536 0
M  V30 3990 C 371.92 -1.04025 -4.37503 0
M  V30 3991 C 370.69 -1.59159 -4.79579 0
M  V30 3992 C 372.888 -1.9431 -4.76181 0
M  V30 3993 N 370.87 -2.82634 -5.44969 0
M  V30 3994 C 372.241 -3.02364 -5.41272 0
M  V30 3995 C 374.296 -1.95008 -4.58123 0
M  V30 3996 C 372.999 -4.1114 -5.90217 0
M  V30 3997 C 375.025 -3.02758 -5.08027 0
M  V30 3998 C 374.387 -4.09531 -5.73118 0
M  V30 3999 H 370.486 -0.026923 -0.781536 0
M  V30 4000 H 373.07 -0.673901 -1.82665 0
M  V30 4001 H 371.241 0.929139 -3.77123 0
M  V30 4002 H 372.973 0.782445 -3.97064 0
M  V30 4003 H 369.728 -1.13696 -4.5975 0
M  V30 4004 H 370.152 -3.45416 -5.82252 0
M  V30 4005 H 374.794 -1.13766 -4.07207 0
M  V30 4006 H 372.512 -4.93181 -6.40155 0
M  V30 4007 H 376.098 -3.04315 -4.95866 0
M  V30 4008 H 374.978 -4.91534 -6.11035 0
M  V30 4009 N 372.481 1.55866 -0.233164 0
M  V30 4010 C 373.444 2.1953 0.658715 0
M  V30 4011 C 374.444 1.16053 1.11303 0
M  V30 4012 O 375.634 1.41218 1.01996 0
M  V30 4013 C 372.766 2.82791 1.90373 0
M  V30 4014 H 373.959 2.99721 0.10347 0
M  V30 4015 H 371.512 1.56291 0.0164245 0
M  V30 4016 H 372.247 2.06501 2.50056 0
M  V30 4017 H 372.032 3.58578 1.58632 0
M  V30 4018 H 373.522 3.31556 2.53891 0
M  V30 4019 N 373.959 -0.0401083 1.57549 0
M  V30 4020 C 374.889 -1.04384 2.08869 0
M  V30 4021 C 375.87 -1.38407 0.988817 0
M  V30 4022 O 377.055 -1.47483 1.26342 0
M  V30 4023 C 374.185 -2.34808 2.55895 0
M  V30 4024 C 373.139 -2.15057 3.70047 0
M  V30 4025 C 372.465 -3.51145 4.03239 0
M  V30 4026 C 373.765 -1.54576 4.98902 0
M  V30 4027 H 375.459 -0.616666 2.92981 0
M  V30 4028 H 373.005 -0.295184 1.40942 0
M  V30 4029 H 374.958 -3.05346 2.90417 0
M  V30 4030 H 373.682 -2.79565 1.68853 0
M  V30 4031 H 372.341 -1.46954 3.35857 0
M  V30 4032 H 371.989 -3.93529 3.13279 0
M  V30 4033 H 371.689 -3.38758 4.80122 0
M  V30 4034 H 373.213 -4.23062 4.40285 0
M  V30 4035 H 374.627 -2.15017 5.31451 0
M  V30 4036 H 373.024 -1.52796 5.80322 0
M  V30 4037 H 374.094 -0.51039 4.82206 0
M  V30 4038 N 375.437 -1.54477 -0.31217 0
M  V30 4039 C 376.367 -1.87652 -1.38957 0
M  V30 4040 C 377.348 -0.734358 -1.53431 0
M  V30 4041 O 378.533 -0.98911 -1.67123 0
M  V30 4042 C 375.663 -2.11396 -2.75552 0
M  V30 4043 C 374.617 -3.27243 -2.75855 0
M  V30 4044 C 373.943 -3.36382 -4.15633 0
M  V30 4045 C 375.243 -4.64622 -2.38587 0
M  V30 4046 H 376.937 -2.77887 -1.11442 0
M  V30 4047 H 374.483 -1.33707 -0.534655 0
M  V30 4048 H 376.436 -2.33189 -3.51 0
M  V30 4049 H 375.16 -1.17921 -3.04569 0
M  V30 4050 H 373.819 -3.05356 -2.02863 0
M  V30 4051 H 373.467 -2.40445 -4.41809 0
M  V30 4052 H 373.167 -4.14249 -4.1674 0
M  V30 4053 H 374.691 -3.60422 -4.92877 0
M  V30 4054 H 376.105 -4.86219 -3.03749 0
M  V30 4055 H 374.502 -5.45121 -2.50925 0
M  V30 4056 H 375.572 -4.66097 -1.33723 0
M  V30 4057 N 376.915 0.57481 -1.46744 0
M  V30 4058 C 378.155 1.34369 -1.54027 0
M  V30 4059 C 378.519 1.91051 -0.190642 0
M  V30 4060 O 379.72 2.68444 -0.138255 0
M  V30 4061 C 377.991 2.43706 -2.61423 0
M  V30 4062 S 379.55 3.30915 -2.88167 0
M  V30 4063 H 376.368 0.45768 -0.544105 0
M  V30 4064 H 378.97 0.659959 -1.84024 0
M  V30 4065 H 377.674 2.0047 -3.58106 0
M  V30 4066 H 377.205 3.16842 -2.33184 0
M  V30 4067 H 379.22 4.42742 -2.24039 0
M  V30 4068 N 378.394 1.34581 0.820102 0
M  V30 4069 C 379.344 1.22943 1.92013 0
M  V30 4070 C 380.328 0.127802 1.60392 0
M  V30 4071 O 381.52 0.357737 1.73347 0
M  V30 4072 C 378.649 0.989938 3.28717 0
M  V30 4073 C 377.735 2.13486 3.66449 0
M  V30 4074 N 378.126 3.38625 3.75722 0
M  V30 4075 C 376.424 2.04573 3.96315 0
M  V30 4076 C 377.125 4.13832 4.08801 0
M  V30 4077 N 376.101 3.42451 4.22171 0
M  V30 4078 H 379.903 2.17771 1.97365 0
M  V30 4079 H 377.417 1.2686 1.01392 0
M  V30 4080 H 379.414 0.887462 4.07345 0
M  V30 4081 H 378.074 0.0503691 3.24661 0
M  V30 4082 H 379.085 3.73143 3.59144 0
M  V30 4083 H 375.762 1.1839 4.00362 0
M  V30 4084 H 377.152 5.21909 4.23156 0
M  V30 4085 N 379.872 -1.04064 1.18357 0
M  V30 4086 C 380.835 -2.10243 0.912707 0
M  V30 4087 C 381.835 -1.60477 -0.101928 0
M  V30 4088 O 383.025 -1.73703 0.131517 0
M  V30 4089 C 380.157 -3.38893 0.369387 0
M  V30 4090 H 381.35 -2.35706 1.85426 0
M  V30 4091 H 378.903 -1.20489 0.995594 0
M  V30 4092 H 379.638 -3.19094 -0.578776 0
M  V30 4093 H 379.423 -3.76331 1.1008 0
M  V30 4094 H 380.913 -4.17128 0.198575 0
M  V30 4095 N 381.35 -0.985608 -1.22978 0
M  V30 4096 C 382.28 -0.549649 -2.26939 0
M  V30 4097 C 383.261 0.419803 -1.64838 0
M  V30 4098 O 384.446 0.31203 -1.91677 0
M  V30 4099 C 381.576 0.143652 -3.47003 0
M  V30 4100 C 380.53 -0.743606 -4.21491 0
M  V30 4101 C 379.856 0.0822027 -5.34637 0
M  V30 4102 C 381.156 -2.03694 -4.80943 0
M  V30 4103 H 382.85 -1.41862 -2.63658 0
M  V30 4104 H 380.396 -0.683571 -1.26741 0
M  V30 4105 H 382.349 0.459985 -4.18882 0
M  V30 4106 H 381.073 1.04711 -3.09359 0
M  V30 4107 H 379.732 -1.04347 -3.51436 0
M  V30 4108 H 379.38 0.986359 -4.93234 0
M  V30 4109 H 379.08 -0.508377 -5.85397 0
M  V30 4110 H 380.604 0.392797 -6.09335 0
M  V30 4111 H 382.018 -1.78504 -5.44802 0
M  V30 4112 H 380.415 -2.57573 -5.42011 0
M  V30 4113 H 381.485 -2.72042 -4.01399 0
M  V30 4114 N 382.828 1.3818 -0.7579 0
M  V30 4115 C 384.076 1.99624 -0.315361 0
M  V30 4116 C 384.397 1.60464 1.10799 0
M  V30 4117 O 383.667 0.863507 1.75842 0
M  V30 4118 H 382.247 0.73831 -0.113611 0
M  V30 4119 H 384.909 1.68878 -0.972952 0
M  V30 4120 H 384.005 3.09754 -0.381931 0
M  V30 4121 N 384.306 0.507319 1.49211 0
M  V30 4122 C 385.552 -0.0350047 2.0277 0
M  V30 4123 C 385.885 -1.3606 1.38569 0
M  V30 4124 O 385.16 -1.87321 0.523542 0
M  V30 4125 C 385.443 -0.180916 3.59645 0
M  V30 4126 C 385.296 1.16825 4.34364 0
M  V30 4127 C 386.615 -0.918558 4.30407 0
M  V30 4128 H 383.734 -0.0112473 0.736914 0
M  V30 4129 H 386.376 0.659956 1.7817 0
M  V30 4130 H 384.526 -0.772826 3.80736 0
M  V30 4131 H 386.198 1.79952 4.24753 0
M  V30 4132 H 384.441 1.75594 3.96673 0
M  V30 4133 H 385.112 1.01939 5.42506 0
M  V30 4134 H 387.588 -0.41649 4.1401 0
M  V30 4135 H 386.464 -0.989505 5.39907 0
M  V30 4136 H 386.725 -1.96373 3.96093 0
M  V30 4137 N 385.784 -1.5574 0.241426 0
M  V30 4138 C 386.716 -2.18469 -0.693091 0
M  V30 4139 C 387.729 -1.15942 -1.14286 0
M  V30 4140 O 388.918 -1.42832 -1.07058 0
M  V30 4141 C 386.018 -2.7696 -1.95311 0
M  V30 4142 C 385.191 -4.04853 -1.65568 0
M  V30 4143 C 384.25 -4.47715 -2.76474 0
M  V30 4144 O 383.276 -5.14205 -2.44094 0
M  V30 4145 N 384.478 -4.15044 -4.05855 0
M  V30 4146 H 387.243 -2.99292 -0.156388 0
M  V30 4147 H 384.804 -1.61784 0.0611752 0
M  V30 4148 H 386.796 -3.02594 -2.68736 0
M  V30 4149 H 385.366 -2.00326 -2.39975 0
M  V30 4150 H 384.586 -3.86865 -0.756886 0
M  V30 4151 H 385.874 -4.88246 -1.43153 0
M  V30 4152 H 385.272 -3.61654 -4.34998 0
M  V30 4153 H 383.829 -4.45526 -4.75762 0
M  V30 4154 N 387.262 0.0317525 -1.57568 0
M  V30 4155 C 388.172 1.05021 -2.0978 0
M  V30 4156 C 389.188 1.39809 -1.03583 0
M  V30 4157 O 390.364 1.49182 -1.35302 0
M  V30 4158 C 387.429 2.33301 -2.56459 0
M  V30 4159 C 386.49 2.0512 -3.77127 0
M  V30 4160 C 385.723 3.27283 -4.2157 0
M  V30 4161 O 385.946 4.37861 -3.65559 0
M  V30 4162 O 384.88 3.13141 -5.14029 0
M  V30 4163 H 388.706 0.636505 -2.96955 0
M  V30 4164 H 386.291 0.248559 -1.47318 0
M  V30 4165 H 388.173 3.08722 -2.86825 0
M  V30 4166 H 386.848 2.73973 -1.72397 0
M  V30 4167 H 385.755 1.27276 -3.51784 0
M  V30 4168 H 387.088 1.69305 -4.62165 0
M  V30 4169 N 388.74 1.54641 0.303973 0
M  V30 4170 C 389.965 1.78092 1.06292 0
M  V30 4171 C 390.39 0.537342 1.80262 0
M  V30 4172 O 389.748 -0.511993 1.7392 0
M  V30 4173 C 389.796 2.98612 2.02147 0
M  V30 4174 O 388.9 2.71528 3.10397 0
M  V30 4175 H 388.241 0.589548 0.305497 0
M  V30 4176 H 390.771 2.01716 0.3423 0
M  V30 4177 H 390.781 3.265 2.44667 0
M  V30 4178 H 389.456 3.88785 1.47714 0
M  V30 4179 H 388.033 2.54648 2.72413 0
M  V30 4180 N 390.218 -0.567019 1.47046 0
M  V30 4181 C 391.634 -0.891975 1.32348 0
M  V30 4182 C 391.834 -1.99154 0.306616 0
M  V30 4183 O 390.89 -2.50883 -0.28532 0
M  V30 4184 C 392.203 -1.29449 2.7141 0
M  V30 4185 C 393.751 -1.40646 2.79621 0
M  V30 4186 C 394.226 -1.84257 4.19301 0
M  V30 4187 N 395.717 -1.91424 4.21795 0
M  V30 4188 C 396.452 -2.26476 5.26779 0
M  V30 4189 N 395.948 -2.60211 6.42077 0
M  V30 4190 N 397.741 -2.27166 5.14152 0
M  V30 4191 H 389.892 0.159074 2.11803 0
M  V30 4192 H 392.155 0.00849752 0.947962 0
M  V30 4193 H 391.861 -0.560448 3.47206 0
M  V30 4194 H 391.735 -2.25273 3.02542 0
M  V30 4195 H 394.122 -2.13133 2.04104 0
M  V30 4196 H 394.203 -0.430339 2.52154 0
M  V30 4197 H 393.847 -1.12343 4.95319 0
M  V30 4198 H 393.777 -2.82855 4.44185 0
M  V30 4199 H 396.268 -1.6778 3.38612 0
M  V30 4200 H 396.581 -2.85956 7.17948 0
M  V30 4201 H 394.926 -2.57813 6.45413 0
M  V30 4202 H 398.117 -2.00244 4.23107 0
M  V30 4203 H 398.29 -2.54154 5.96079 0
M  V30 4204 N 391.696 -1.35014 -0.812953 0
M  V30 4205 C 393.107 -1.25035 -1.38648 0
M  V30 4206 C 393.458 0.119967 -1.95833 0
M  V30 4207 O 392.583 1.02069 -1.90816 0
M  V30 4208 C 393.178 -2.26394 -2.52054 0
M  V30 4209 C 391.737 -2.20175 -3.05287 0
M  V30 4210 C 390.884 -2.12451 -1.78213 0
M  V30 4211 H 393.835 -1.46235 -0.616516 0
M  V30 4212 H 393.856 -1.88672 -3.30429 0
M  V30 4213 H 393.368 -3.26116 -2.10404 0
M  V30 4214 H 391.469 -1.23841 -3.51417 0
M  V30 4215 H 391.582 -3.11863 -3.63701 0
M  V30 4216 H 389.946 -1.58328 -1.9951 0
M  V30 4217 H 390.729 -3.14024 -1.38723 0
M  V30 4218 N 393.175 1.03435 -1.18907 0
M  V30 4219 C 394.422 1.76743 -0.988334 0
M  V30 4220 C 394.75 1.88447 0.481441 0
M  V30 4221 O 394.005 1.39383 1.37371 0
M  V30 4222 C 394.304 3.19792 -1.59586 0
M  V30 4223 C 393.97 3.28108 -3.09283 0
M  V30 4224 C 392.632 3.30084 -3.5014 0
M  V30 4225 C 394.984 3.27696 -4.05296 0
M  V30 4226 C 392.312 3.29299 -4.85571 0
M  V30 4227 C 394.664 3.28451 -5.4065 0
M  V30 4228 C 393.328 3.28723 -5.80946 0
M  V30 4229 H 392.598 0.64675 -0.361657 0
M  V30 4230 H 395.245 1.21442 -1.48068 0
M  V30 4231 H 393.55 3.78136 -1.02568 0
M  V30 4232 H 395.247 3.75171 -1.41589 0
M  V30 4233 H 391.837 3.27294 -2.76725 0
M  V30 4234 H 396.021 3.25354 -3.74778 0
M  V30 4235 H 391.277 3.2783 -5.16079 0
M  V30 4236 H 395.451 3.27082 -6.14809 0
M  V30 4237 H 393.078 3.27868 -6.85862 0
M  V30 4238 N 394.653 0.992116 1.22453 0
M  V30 4239 C 395.583 0.561677 2.26644 0
M  V30 4240 C 396.564 -0.411055 1.65059 0
M  V30 4241 O 397.749 -0.301861 1.9184 0
M  V30 4242 C 394.879 -0.125247 3.47074 0
M  V30 4243 C 393.833 0.765948 4.21091 0
M  V30 4244 C 393.159 -0.0538484 5.34673 0
M  V30 4245 C 394.459 2.06242 4.79856 0
M  V30 4246 H 396.153 1.43259 2.62902 0
M  V30 4247 H 393.699 0.690283 1.26377 0
M  V30 4248 H 395.652 -0.437764 4.1912 0
M  V30 4249 H 394.376 -1.03069 3.0991 0
M  V30 4250 H 393.035 1.0621 3.50878 0
M  V30 4251 H 392.683 -0.960188 4.9375 0
M  V30 4252 H 392.383 0.539415 5.85119 0
M  V30 4253 H 393.907 -0.360477 6.09535 0
M  V30 4254 H 395.321 1.8139 5.43848 0
M  V30 4255 H 393.718 2.60444 5.40638 0
M  V30 4256 H 394.788 2.74167 3.99951 0
M  V30 4257 N 396.131 -1.37776 0.765217 0
M  V30 4258 C 397.547 -1.53297 0.444108 0
M  V30 4259 C 397.747 -1.72515 -1.04119 0
M  V30 4260 O 396.803 -1.74278 -1.82711 0
M  V30 4261 C 398.116 -2.73328 1.25349 0
M  V30 4262 C 399.664 -2.87185 1.24473 0
M  V30 4263 C 400.139 -4.10191 2.03733 0
M  V30 4264 N 401.63 -4.17291 2.01053 0
M  V30 4265 C 402.365 -5.11488 2.59166 0
M  V30 4266 N 401.861 -6.11285 3.26041 0
M  V30 4267 N 403.654 -5.03924 2.49032 0
M  V30 4268 H 395.805 -1.23552 1.72768 0
M  V30 4269 H 398.068 -0.601103 0.733062 0
M  V30 4270 H 397.774 -2.6557 2.30577 0
M  V30 4271 H 397.648 -3.66834 0.87823 0
M  V30 4272 H 400.035 -2.94418 0.20047 0
M  V30 4273 H 400.116 -1.94657 1.65959 0
M  V30 4274 H 399.76 -4.0372 3.08176 0
M  V30 4275 H 399.69 -5.01821 1.59633 0
M  V30 4276 H 402.181 -3.45825 1.5236 0
M  V30 4277 H 402.494 -6.79678 3.67774 0
M  V30 4278 H 400.839 -6.11583 3.30138 0
M  V30 4279 H 404.03 -4.24902 1.96407 0
M  V30 4280 H 404.203 -5.77152 2.94617 0
M  V30 4281 N 397.609 -0.515225 -1.4894 0
M  V30 4282 C 398.572 0.244681 -2.2789 0
M  V30 4283 C 399.572 0.881166 -1.34507 0
M  V30 4284 O 400.762 0.743497 -1.57537 0
M  V30 4285 C 397.894 1.35247 -3.12923 0
M  V30 4286 H 399.087 -0.448289 -2.96531 0
M  V30 4287 H 396.64 -0.270656 -1.53939 0
M  V30 4288 H 397.375 2.07916 -2.48881 0
M  V30 4289 H 397.16 0.901374 -3.81599 0
M  V30 4290 H 398.65 1.88737 -3.72516 0
M  V30 4291 N 399.087 1.5561 -0.249682 0
M  V30 4292 C 400.333 2.00044 0.367952 0
M  V30 4293 C 400.688 1.1349 1.55363 0
M  V30 4294 O 399.981 0.191079 1.90645 0
M  V30 4295 C 400.175 3.4775 0.824887 0
M  V30 4296 C 400.004 4.48596 -0.314973 0
M  V30 4297 C 398.774 4.99077 -0.790555 0
M  V30 4298 C 400.972 5.0144 -1.14291 0
M  V30 4299 N 398.954 5.83675 -1.90254 0
M  V30 4300 C 400.325 5.83236 -2.10322 0
M  V30 4301 C 402.38 4.83736 -1.17916 0
M  V30 4302 C 401.083 6.49217 -3.09692 0
M  V30 4303 C 403.109 5.50497 -2.16117 0
M  V30 4304 C 402.471 6.32084 -3.10884 0
M  V30 4305 H 398.57 0.775512 0.100522 0
M  V30 4306 H 401.154 1.91193 -0.367896 0
M  V30 4307 H 399.325 3.56994 1.53002 0
M  V30 4308 H 401.057 3.79056 1.4177 0
M  V30 4309 H 397.812 4.72119 -0.374218 0
M  V30 4310 H 398.236 6.30671 -2.46137 0
M  V30 4311 H 402.878 4.20286 -0.460352 0
M  V30 4312 H 400.596 7.11832 -3.8252 0
M  V30 4313 H 404.182 5.38752 -2.19631 0
M  V30 4314 H 403.062 6.82832 -3.8563 0
M  V30 4315 N 400.565 -0.0233959 1.57583 0
M  V30 4316 C 401.512 -1.02224 2.06927 0
M  V30 4317 C 402.482 -1.35575 0.959617 0
M  V30 4318 O 403.667 -1.45815 1.23055 0
M  V30 4319 C 400.807 -2.31636 2.5581 0
M  V30 4320 C 399.92 -2.04394 3.80588 0
M  V30 4321 C 399.055 -3.27717 4.18061 0
M  V30 4322 C 398.094 -2.96056 5.3574 0
M  V30 4323 N 397.231 -4.11847 5.68618 0
M  V30 4324 H 402.071 -0.594504 2.9201 0
M  V30 4325 H 399.608 -0.281921 1.44373 0
M  V30 4326 H 401.566 -3.07258 2.82221 0
M  V30 4327 H 400.196 -2.72122 1.73636 0
M  V30 4328 H 399.248 -1.19244 3.61227 0
M  V30 4329 H 400.56 -1.77042 4.66323 0
M  V30 4330 H 399.714 -4.11702 4.4563 0
M  V30 4331 H 398.453 -3.58188 3.30988 0
M  V30 4332 H 397.458 -2.10474 5.07918 0
M  V30 4333 H 398.683 -2.66857 6.24471 0
M  V30 4334 H 396.629 -4.42258 4.84504 0
M  V30 4335 H 396.546 -3.87938 6.48876 0
M  V30 4336 H 397.814 -4.96689 6.00766 0
M  V30 4337 N 402.043 -1.548 -0.295768 0
M  V30 4338 C 402.973 -1.89115 -1.36959 0
M  V30 4339 C 403.954 -0.75059 -1.52644 0
M  V30 4340 O 405.139 -1.00678 -1.66065 0
M  V30 4341 C 402.269 -2.14307 -2.73295 0
M  V30 4342 C 401.223 -3.30151 -2.72368 0
M  V30 4343 C 400.549 -3.40772 -4.12042 0
M  V30 4344 C 401.849 -4.67126 -2.33646 0
M  V30 4345 H 403.543 -2.79053 -1.08488 0
M  V30 4346 H 401.089 -1.34266 -0.520443 0
M  V30 4347 H 403.042 -2.36898 -3.48507 0
M  V30 4348 H 401.766 -1.21145 -3.03301 0
M  V30 4349 H 400.425 -3.0749 -1.99613 0
M  V30 4350 H 400.073 -2.45117 -4.39234 0
M  V30 4351 H 399.773 -4.18645 -4.12322 0
M  V30 4352 H 401.297 -3.6563 -4.89027 0
M  V30 4353 H 402.711 -4.89414 -2.98575 0
M  V30 4354 H 401.108 -5.47751 -2.45129 0
M  V30 4355 H 402.178 -4.67489 -1.28772 0
M  V30 4356 N 403.521 0.559213 -1.47345 0
M  V30 4357 C 404.932 1.14134 -1.47751 0
M  V30 4358 C 405.283 1.94834 -0.231103 0
M  V30 4359 O 404.408 2.05957 0.664137 0
M  V30 4360 C 405.003 2.07653 -2.67705 0
M  V30 4361 C 403.562 2.61141 -2.71076 0
M  V30 4362 C 402.709 1.3748 -2.40821 0
M  V30 4363 H 405.66 0.345917 -1.54884 0
M  V30 4364 H 405.681 2.91497 -2.44561 0
M  V30 4365 H 405.193 1.4889 -3.58404 0
M  V30 4366 H 403.294 3.23707 -1.84511 0
M  V30 4367 H 403.407 3.02272 -3.7171 0
M  V30 4368 H 401.771 1.68086 -1.91362 0
M  V30 4369 H 402.554 0.805135 -3.33725 0
M  V30 4370 N 404.999 1.35443 0.805782 0
M  V30 4371 C 405.947 1.28465 1.93906 0
M  V30 4372 C 406.941 0.17943 1.68447 0
M  V30 4373 O 408.147 0.345459 1.76654 0
M  V30 4374 H 404.522 0.399528 0.637088 0
M  V30 4375 H 406.493 2.24206 1.96912 0
M  V30 4376 C 405.242 1.07432 3.30687 0
M  V30 4377 H 404.565 1.91716 3.50835 0
M  V30 4378 H 406.005 1.06591 4.10383 0
M  V30 4379 C 404.464 -0.22179 3.36169 0
M  V30 4380 O 404.994 -1.21731 3.82811 0
M  V30 4381 N 403.2 -0.260841 2.89427 0
M  V30 4382 H 402.747 0.549884 2.51663 0
M  V30 4383 H 402.705 -1.12777 2.93477 0
M  V30 4384 N 406.477 -1.02803 1.19454 0
M  V30 4385 C 407.424 -2.11099 0.933046 0
M  V30 4386 C 408.394 -1.65571 -0.132447 0
M  V30 4387 O 409.579 -1.90797 0.00987576 0
M  V30 4388 C 406.719 -3.41763 0.478747 0
M  V30 4389 C 405.832 -4.00833 1.6111 0
M  V30 4390 C 404.967 -5.19511 1.10825 0
M  V30 4391 C 404.006 -5.70639 2.21445 0
M  V30 4392 N 403.143 -6.80589 1.72461 0
M  V30 4393 H 407.983 -2.32804 1.86028 0
M  V30 4394 H 405.52 -1.14179 0.927441 0
M  V30 4395 H 407.478 -4.16736 0.196745 0
M  V30 4396 H 406.108 -3.20166 -0.411493 0
M  V30 4397 H 405.16 -3.23066 2.00829 0
M  V30 4398 H 406.472 -4.34794 2.4445 0
M  V30 4399 H 405.626 -6.01645 0.781533 0
M  V30 4400 H 404.365 -4.87086 0.244606 0
M  V30 4401 H 403.37 -4.87116 2.54947 0
M  V30 4402 H 404.595 -6.05102 3.08267 0
M  V30 4403 H 402.541 -6.50016 0.884056 0
M  V30 4404 H 402.458 -7.13681 2.49389 0
M  V30 4405 H 403.726 -7.66317 1.42755 0
M  V30 4406 N 407.956 -0.998596 -1.21925 0
M  V30 4407 C 409.202 -0.678667 -1.91107 0
M  V30 4408 C 409.535 0.78791 -1.77498 0
M  V30 4409 O 408.81 1.57043 -1.1475 0
M  V30 4410 C 409.093 -1.09245 -3.43129 0
M  V30 4411 C 408.946 -2.61801 -3.6576 0
M  V30 4412 C 410.265 -0.649984 -4.35274 0
M  V30 4413 H 407.384 -0.248025 -0.694012 0
M  V30 4414 H 410.026 -1.24314 -1.43688 0
M  V30 4415 H 408.176 -0.612171 -3.83647 0
M  V30 4416 H 409.848 -3.17543 -3.34611 0
M  V30 4417 H 408.091 -3.03609 -3.09845 0
M  V30 4418 H 408.762 -2.85804 -4.7225 0
M  V30 4419 H 411.238 -1.0626 -4.02303 0
M  V30 4420 H 410.114 -0.967743 -5.40302 0
M  V30 4421 H 410.375 0.449139 -4.39813 0
M  V30 4422 N 409.434 1.37368 -0.772513 0
M  V30 4423 C 410.68 1.99969 -0.337681 0
M  V30 4424 C 411.013 1.61184 1.08321 0
M  V30 4425 O 410.288 0.858395 1.74533 0
M  V30 4426 C 410.571 3.56858 -0.482121 0
M  V30 4427 C 410.424 4.0555 -1.94549 0
M  V30 4428 C 411.743 4.39955 0.113143 0
M  V30 4429 H 408.862 0.726464 -0.124171 0
M  V30 4430 H 411.504 1.63034 -0.975699 0
M  V30 4431 H 409.654 3.88452 0.0610361 0
M  V30 4432 H 411.326 3.84518 -2.54841 0
M  V30 4433 H 409.569 3.57715 -2.45403 0
M  V30 4434 H 410.24 5.14587 -1.9976 0
M  V30 4435 H 412.716 4.14623 -0.35031 0
M  V30 4436 H 411.592 5.48897 -0.0180514 0
M  V30 4437 H 411.853 4.25403 1.20354 0
M  V30 4438 N 410.912 0.523116 1.48665 0
M  V30 4439 C 412.189 -0.0775449 1.95446 0
M  V30 4440 C 412.569 -1.5197 1.4652 0
M  V30 4441 O 411.917 -2.17876 0.688657 0
M  V30 4442 C 412.127 0.0326135 3.48985 0
M  V30 4443 C 413.475 -0.130141 4.24401 0
M  V30 4444 O 414.499 -0.0415142 3.56176 0
M  V30 4445 O 413.358 -0.31491 5.45592 0
M  V30 4446 H 410.452 -0.0831012 0.822814 0
M  V30 4447 H 412.998 0.587227 1.59216 0
M  V30 4448 H 411.77 1.03748 3.77296 0
M  V30 4449 H 411.393 -0.671317 3.91892 0
M  V30 4450 N 412.39 -1.55475 0.257931 0
M  V30 4451 C 413.3 -2.2549 -0.647425 0
M  V30 4452 C 414.316 -1.2748 -1.18427 0
M  V30 4453 O 415.492 -1.6038 -1.2182 0
M  V30 4454 C 412.557 -2.94916 -1.82278 0
M  V30 4455 C 411.618 -4.08363 -1.32432 0
M  V30 4456 C 410.851 -4.74469 -2.44366 0
M  V30 4457 O 411.074 -4.39701 -3.63344 0
M  V30 4458 O 410.008 -5.62763 -2.13497 0
M  V30 4459 H 413.834 -3.03593 -0.0807707 0
M  V30 4460 H 411.419 -1.49377 0.0259962 0
M  V30 4461 H 413.301 -3.38606 -2.50846 0
M  V30 4462 H 411.976 -2.19744 -2.37685 0
M  V30 4463 H 410.883 -3.69166 -0.605605 0
M  V30 4464 H 412.216 -4.85385 -0.816211 0
M  V30 4465 N 413.868 0.0150385 -1.57593 0
M  V30 4466 C 414.831 0.995996 -2.06428 0
M  V30 4467 C 415.831 1.2818 -0.970903 0
M  V30 4468 O 417.021 1.22949 -1.23406 0
M  V30 4469 C 414.153 2.32506 -2.49307 0
M  V30 4470 H 415.346 0.573873 -2.94358 0
M  V30 4471 H 412.899 0.262186 -1.54085 0
M  V30 4472 H 413.634 2.79438 -1.64575 0
M  V30 4473 H 413.419 2.13087 -3.29145 0
M  V30 4474 H 414.909 3.02906 -2.87468 0
M  V30 4475 N 415.346 1.54954 0.287554 0
M  V30 4476 C 416.594 1.74528 1.01904 0
M  V30 4477 C 416.915 0.541349 1.87335 0
M  V30 4478 O 416.185 -0.444108 1.908 0
M  V30 4479 H 414.765 0.643576 0.379235 0
M  V30 4480 H 417.427 1.92333 0.315294 0
M  V30 4481 H 416.523 2.64015 1.6644 0
M  V30 4482 N 416.824 -0.551391 1.4764 0
M  V30 4483 C 417.787 -1.64007 1.60107 0
M  V30 4484 C 418.787 -1.53601 0.47576 0
M  V30 4485 O 419.977 -1.57655 0.740988 0
M  V30 4486 C 417.109 -3.03569 1.55108 0
M  V30 4487 H 418.302 -1.543 2.57161 0
M  V30 4488 H 415.855 -0.771776 1.35917 0
M  V30 4489 H 416.59 -3.18804 0.594519 0
M  V30 4490 H 416.375 -3.12532 2.36783 0
M  V30 4491 H 417.865 -3.82762 1.66982 0
M  V30 4492 N 418.302 -1.35869 -0.798587 0
M  V30 4493 C 419.551 -1.28921 -1.5512 0
M  V30 4494 C 419.864 0.13208 -1.95154 0
M  V30 4495 O 421.07 0.323879 -2.69561 0
M  V30 4496 C 419.526 -2.26141 -2.79979 0
M  V30 4497 C 419.134 -3.73658 -2.47151 0
M  V30 4498 C 420.878 -2.28152 -3.57976 0
M  V30 4499 C 418.785 -4.62679 -3.6835 0
M  V30 4500 H 417.715 -0.479031 -0.582276 0
M  V30 4501 H 420.366 -1.61179 -0.877125 0
M  V30 4502 H 418.748 -1.86865 -3.49138 0
M  V30 4503 H 419.922 -4.21616 -1.85947 0
M  V30 4504 H 418.237 -3.74333 -1.82383 0
M  V30 4505 H 420.834 -2.91875 -4.4801 0
M  V30 4506 H 421.177 -1.28748 -3.95891 0
M  V30 4507 H 421.71 -2.65998 -2.95787 0
M  V30 4508 H 418.449 -5.63111 -3.35538 0
M  V30 4509 H 417.969 -4.19442 -4.28752 0
M  V30 4510 H 419.648 -4.78498 -4.35487 0
M  V30 4511 N 419.78 1.02168 -1.19998 0
M  V30 4512 C 420.71 2.12488 -0.96804 0
M  V30 4513 C 421.691 1.69799 0.101185 0
M  V30 4514 O 422.876 1.94121 -0.0552993 0
M  V30 4515 C 420.006 3.43479 -0.513776 0
M  V30 4516 C 418.96 3.99884 -1.52566 0
M  V30 4517 C 418.286 5.26582 -0.928214 0
M  V30 4518 C 419.586 4.33861 -2.90795 0
M  V30 4519 H 421.28 2.32149 -1.89069 0
M  V30 4520 H 418.826 1.11564 -0.910468 0
M  V30 4521 H 420.779 4.20036 -0.338774 0
M  V30 4522 H 419.503 3.23561 0.444493 0
M  V30 4523 H 418.162 3.25429 -1.68794 0
M  V30 4524 H 417.81 5.02986 0.0378289 0
M  V30 4525 H 417.51 5.65284 -1.60397 0
M  V30 4526 H 419.034 6.05799 -0.764167 0
M  V30 4527 H 420.448 5.01327 -2.78109 0
M  V30 4528 H 418.845 4.83664 -3.55231 0
M  V30 4529 H 419.915 3.42848 -3.42904 0
M  V30 4530 N 421.258 1.00505 1.21394 0
M  V30 4531 C 422.486 0.706609 1.9446 0
M  V30 4532 C 422.901 -0.73081 1.74082 0
M  V30 4533 O 422.258 -1.49446 1.04747 0
M  V30 4534 C 422.309 1.01824 3.46863 0
M  V30 4535 O 422.03 2.39919 3.66566 0
M  V30 4536 C 423.531 0.739216 4.37093 0
M  V30 4537 H 420.751 0.260394 0.618414 0
M  V30 4538 H 423.295 1.34311 1.54211 0
M  V30 4539 H 421.45 0.427343 3.85036 0
M  V30 4540 H 421.864 2.50784 4.6066 0
M  V30 4541 H 423.338 1.00744 5.42729 0
M  V30 4542 H 423.815 -0.326746 4.37983 0
M  V30 4543 H 424.421 1.31173 4.04566 0
M  V30 4544 N 422.737 -1.36956 0.779787 0
M  V30 4545 C 423.7 -2.2851 0.177662 0
M  V30 4546 C 424.7 -1.48393 -0.619377 0
M  V30 4547 O 425.89 -1.68505 -0.441785 0
M  V30 4548 C 423.022 -3.32428 -0.755279 0
M  V30 4549 H 424.215 -2.83269 0.984823 0
M  V30 4550 H 421.768 -1.46358 0.548544 0
M  V30 4551 H 422.503 -2.82808 -1.58714 0
M  V30 4552 H 422.288 -3.91659 -0.185817 0
M  V30 4553 H 423.778 -4.00824 -1.17174 0
M  V30 4554 N 424.215 -0.530993 -1.48385 0
M  V30 4555 C 425.145 0.219985 -2.32461 0
M  V30 4556 C 426.126 0.934111 -1.42156 0
M  V30 4557 O 427.311 0.919694 -1.71042 0
M  V30 4558 C 424.441 1.26674 -3.23375 0
M  V30 4559 C 423.395 0.67069 -4.22712 0
M  V30 4560 C 422.721 1.82017 -5.02766 0
M  V30 4561 C 424.021 -0.358268 -5.2107 0
M  V30 4562 H 425.715 -0.48187 -2.95497 0
M  V30 4563 H 423.261 -0.233182 -1.42099 0
M  V30 4564 H 425.214 1.80006 -3.81019 0
M  V30 4565 H 423.938 1.99818 -2.58341 0
M  V30 4566 H 422.597 0.158878 -3.66256 0
M  V30 4567 H 422.245 2.54002 -4.34157 0
M  V30 4568 H 421.945 1.42727 -5.70003 0
M  V30 4569 H 423.469 2.35725 -5.63264 0
M  V30 4570 H 424.883 0.0880081 -5.73232 0
M  V30 4571 H 423.28 -0.66861 -5.96364 0
M  V30 4572 H 424.35 -1.26367 -4.68145 0
M  V30 4573 N 425.693 1.55336 -0.266172 0
M  V30 4574 C 426.656 2.20878 0.612001 0
M  V30 4575 C 427.656 1.18388 1.08816 0
M  V30 4576 O 428.846 1.4335 0.989774 0
M  V30 4577 C 425.978 2.86765 1.84332 0
M  V30 4578 H 427.171 2.99873 0.0398718 0
M  V30 4579 H 424.724 1.56291 -0.0167309 0
M  V30 4580 H 425.459 2.11759 2.45619 0
M  V30 4581 H 425.244 3.61862 1.5099 0
M  V30 4582 H 426.734 3.36867 2.46801 0
M  V30 4583 N 427.171 -0.0066808 1.57599 0
M  V30 4584 C 428.448 -0.729586 1.81484 0
M  V30 4585 C 428.828 -1.92359 0.869558 0
M  V30 4586 O 428.176 -2.28348 -0.0832533 0
M  V30 4587 C 428.386 -1.1416 3.29801 0
M  V30 4588 C 429.734 -1.54823 3.95367 0
M  V30 4589 O 430.758 -1.23558 3.34084 0
M  V30 4590 O 429.617 -2.12937 5.03309 0
M  V30 4591 H 426.711 -0.354674 0.747085 0
M  V30 4592 H 429.257 0.0182609 1.6969 0
M  V30 4593 H 428.029 -0.290231 3.90222 0
M  V30 4594 H 427.652 -1.94876 3.46568 0
M  V30 4595 N 428.649 -1.55105 -0.279332 0
M  V30 4596 C 429.898 -1.74618 -1.00952 0
M  V30 4597 C 430.211 -0.551096 -1.87676 0
M  V30 4598 O 431.417 -0.628507 -2.64125 0
M  V30 4599 C 429.873 -3.09025 -1.84476 0
M  V30 4600 C 429.481 -4.36081 -1.0265 0
M  V30 4601 C 431.225 -3.37891 -2.56963 0
M  V30 4602 C 429.132 -5.6153 -1.85576 0
M  V30 4603 H 428.062 -0.650868 -0.38064 0
M  V30 4604 H 430.713 -1.81569 -0.265475 0
M  V30 4605 H 429.095 -2.96095 -2.62952 0
M  V30 4606 H 430.269 -4.59909 -0.286354 0
M  V30 4607 H 428.584 -4.14312 -0.416464 0
M  V30 4608 H 431.181 -4.28822 -3.19399 0
M  V30 4609 H 431.524 -2.57737 -3.26921 0
M  V30 4610 H 432.057 -3.5189 -1.85522 0
M  V30 4611 H 428.796 -6.44413 -1.2005 0
M  V30 4612 H 428.316 -5.41854 -2.57204 0
M  V30 4613 H 429.995 -5.99594 -2.43096 0
M  V30 4614 N 430.127 0.543554 -1.4793 0
M  V30 4615 C 431.538 1.12561 -1.48953 0
M  V30 4616 C 431.889 1.94578 -0.251754 0
M  V30 4617 O 431.014 2.0665 0.642255 0
M  V30 4618 C 431.609 2.04801 -2.69892 0
M  V30 4619 C 430.168 2.58251 -2.73831 0
M  V30 4620 C 429.315 1.34918 -2.42265 0
M  V30 4621 H 432.266 0.32947 -1.55242 0
M  V30 4622 H 432.287 2.88886 -2.47639 0
M  V30 4623 H 431.799 1.4508 -3.59963 0
M  V30 4624 H 429.9 3.21732 -1.87934 0
M  V30 4625 H 430.013 2.98312 -3.74895 0
M  V30 4626 H 428.377 1.66046 -1.93134 0
M  V30 4627 H 429.16 0.769693 -3.3456 0
M  V30 4628 N 431.605 1.3629 0.791371 0
M  V30 4629 C 433.021 1.16661 1.08914 0
M  V30 4630 C 433.221 -0.0106266 2.01497 0
M  V30 4631 O 432.277 -0.676596 2.43266 0
M  V30 4632 C 433.59 2.47656 1.70549 0
M  V30 4633 C 435.138 2.54002 1.82899 0
M  V30 4634 C 435.613 3.85078 2.47949 0
M  V30 4635 N 437.104 3.86413 2.5542 0
M  V30 4636 C 437.839 4.84572 3.06557 0
M  V30 4637 N 437.335 5.93124 3.58016 0
M  V30 4638 N 439.128 4.71994 3.05251 0
M  V30 4639 H 431.279 2.11668 0.176238 0
M  V30 4640 H 433.542 0.937486 0.140796 0
M  V30 4641 H 433.248 3.34059 1.09989 0
M  V30 4642 H 433.122 2.63319 2.70079 0
M  V30 4643 H 435.509 1.68018 2.42598 0
M  V30 4644 H 435.59 2.42239 0.821808 0
M  V30 4645 H 435.234 4.71467 1.88895 0
M  V30 4646 H 435.164 3.94135 3.49235 0
M  V30 4647 H 437.655 3.07988 2.18979 0
M  V30 4648 H 437.968 6.63999 3.95381 0
M  V30 4649 H 436.313 5.96796 3.56173 0
M  V30 4650 H 439.504 3.86321 2.64336 0
M  V30 4651 H 439.677 5.48653 3.44796 0
M  V30 4652 N 433.083 -1.0153 1.20538 0
M  V30 4653 C 434.494 -1.56598 1.01657 0
M  V30 4654 C 434.845 -1.91505 -0.426668 0
M  V30 4655 O 433.97 -1.72375 -1.30827 0
M  V30 4656 C 434.565 -2.84542 1.83905 0
M  V30 4657 C 433.124 -3.36133 1.69386 0
M  V30 4658 C 432.271 -2.09427 1.81757 0
M  V30 4659 H 435.222 -0.838974 1.34711 0
M  V30 4660 H 435.243 -3.56004 1.34319 0
M  V30 4661 H 434.755 -2.59105 2.8894 0
M  V30 4662 H 432.856 -3.66528 0.669933 0
M  V30 4663 H 432.969 -4.08248 2.50739 0
M  V30 4664 H 431.333 -2.21941 1.24957 0
M  V30 4665 H 432.116 -1.86414 2.88279 0
M  V30 4666 N 434.561 -1.01147 -1.20859 0
M  V30 4667 C 435.471 -0.58686 -2.27141 0
M  V30 4668 C 436.487 0.373198 -1.69951 0
M  V30 4669 O 437.663 0.235423 -2.00019 0
M  V30 4670 C 434.728 0.0733602 -3.46622 0
M  V30 4671 C 433.789 -0.931995 -4.19061 0
M  V30 4672 C 433.022 -0.303186 -5.32838 0
M  V30 4673 O 433.245 0.898395 -5.63281 0
M  V30 4674 O 432.179 -1.01735 -5.9324 0
M  V30 4675 H 436.005 -1.47155 -2.65667 0
M  V30 4676 H 433.59 -0.780689 -1.2738 0
M  V30 4677 H 435.472 0.442333 -4.19072 0
M  V30 4678 H 434.147 0.932329 -3.09983 0
M  V30 4679 H 433.054 -1.35224 -3.48805 0
M  V30 4680 H 434.387 -1.76076 -4.59628 0
M  V30 4681 N 436.039 1.36541 -0.78704 0
M  V30 4682 C 437.002 2.28413 -0.189778 0
M  V30 4683 C 438.002 1.48719 0.611499 0
M  V30 4684 O 439.192 1.68737 0.432842 0
M  V30 4685 C 436.324 3.32824 0.737638 0
M  V30 4686 H 437.517 2.82743 -0.999831 0
M  V30 4687 H 435.07 1.46065 -0.556298 0
M  V30 4688 H 435.805 2.83646 1.57212 0
M  V30 4689 H 435.59 3.91752 0.165044 0
M  V30 4690 H 437.08 4.0144 1.15047 0
M  V30 4691 N 437.518 0.538854 1.48102 0
M  V30 4692 C 438.764 0.0161732 2.03394 0
M  V30 4693 C 439.119 -1.31154 1.40771 0
M  V30 4694 O 438.412 -1.83613 0.547421 0
M  V30 4695 C 438.606 -0.153808 3.57069 0
M  V30 4696 C 438.435 1.15588 4.34591 0
M  V30 4697 C 437.205 1.71818 4.75191 0
M  V30 4698 C 439.403 2.06867 4.70861 0
M  V30 4699 N 437.385 2.96983 5.37284 0
M  V30 4700 C 438.756 3.16609 5.33066 0
M  V30 4701 C 440.811 2.07085 4.52791 0
M  V30 4702 C 439.514 4.26645 5.79109 0
M  V30 4703 C 441.54 3.16121 4.99821 0
M  V30 4704 C 440.902 4.24582 5.62058 0
M  V30 4705 H 437.001 0.0476346 0.780548 0
M  V30 4706 H 439.585 0.722094 1.80815 0
M  V30 4707 H 437.756 -0.828825 3.79454 0
M  V30 4708 H 439.488 -0.676896 3.98999 0
M  V30 4709 H 436.243 1.25845 4.56574 0
M  V30 4710 H 436.667 3.60732 5.72889 0
M  V30 4711 H 441.309 1.24522 4.04047 0
M  V30 4712 H 439.027 5.0998 6.26854 0
M  V30 4713 H 442.613 3.17355 4.87624 0
M  V30 4714 H 441.493 5.07562 5.97788 0
M  V30 4715 N 438.996 -1.55193 0.274407 0
M  V30 4716 C 440.224 -2.03987 -0.345943 0
M  V30 4717 C 440.639 -1.15279 -1.4952 0
M  V30 4718 O 439.996 -0.172759 -1.8168 0
M  V30 4719 C 440.047 -3.51898 -0.827631 0
M  V30 4720 O 439.768 -4.37231 0.275855 0
M  V30 4721 C 441.269 -4.16577 -1.51587 0
M  V30 4722 H 438.489 -0.666335 -0.0789892 0
M  V30 4723 H 441.033 -2.00423 0.406294 0
M  V30 4724 H 439.188 -3.55909 -1.52996 0
M  V30 4725 H 439.602 -5.24415 -0.0943638 0
M  V30 4726 H 441.076 -5.21678 -1.80433 0
M  V30 4727 H 441.553 -3.64707 -2.44716 0
M  V30 4728 H 442.159 -4.16568 -0.857409 0
M  V30 4729 N 440.474 -0.00167713 -1.576 0
M  V30 4730 C 441.422 1.0074 -2.09652 0
M  V30 4731 C 442.416 1.35483 -1.01689 0
M  V30 4732 O 443.622 1.34028 -1.20152 0
M  V30 4733 H 439.997 0.342537 -0.669457 0
M  V30 4734 H 441.968 0.542841 -2.93421 0
M  V30 4735 C 440.717 2.2899 -2.61647 0
M  V30 4736 H 440.04 2.03124 -3.44355 0
M  V30 4737 H 441.48 2.9787 -3.01744 0
M  V30 4738 C 439.939 3.00085 -1.53136 0
M  V30 4739 O 440.469 3.91135 -0.91524 0
M  V30 4740 N 438.675 2.6194 -1.25841 0
M  V30 4741 H 438.222 1.8798 -1.76129 0
M  V30 4742 H 438.18 3.09822 -0.534576 0
M  V30 4743 N 441.952 1.55251 0.271103 0
M  V30 4744 C 442.862 1.9136 1.35714 0
M  V30 4745 C 443.878 0.811075 1.5394 0
M  V30 4746 O 445.054 1.11031 1.6803 0
M  V30 4747 C 442.119 2.1798 2.69603 0
M  V30 4748 C 441.18 3.4153 2.60107 0
M  V30 4749 C 440.413 3.66871 3.8761 0
M  V30 4750 O 440.636 2.94689 4.8838 0
M  V30 4751 O 439.57 4.60405 3.87699 0
M  V30 4752 H 443.396 2.83815 1.08088 0
M  V30 4753 H 440.981 1.41821 0.469792 0
M  V30 4754 H 442.863 2.36518 3.48765 0
M  V30 4755 H 441.538 1.28708 2.97012 0
M  V30 4756 H 440.445 3.28325 1.79314 0
M  V30 4757 H 441.778 4.31027 2.37647 0
M  V30 4758 N 443.43 -0.535701 1.48216 0
M  V30 4759 C 444.362 -1.65662 1.58394 0
M  V30 4760 C 445.375 -1.5591 0.468607 0
M  V30 4761 O 446.564 -1.62475 0.7392 0
M  V30 4762 C 443.664 -3.04276 1.4923 0
M  V30 4763 C 442.837 -3.39567 2.75705 0
M  V30 4764 C 441.896 -4.57436 2.60075 0
M  V30 4765 O 440.922 -4.60942 3.33948 0
M  V30 4766 N 442.124 -5.55259 1.69315 0
M  V30 4767 H 444.889 -1.5737 2.55058 0
M  V30 4768 H 442.45 -0.722845 1.44867 0
M  V30 4769 H 444.442 -3.80994 1.36477 0
M  V30 4770 H 443.012 -3.06677 0.605632 0
M  V30 4771 H 442.232 -2.52083 3.03064 0
M  V30 4772 H 443.52 -3.59929 3.59623 0
M  V30 4773 H 442.918 -5.552 1.08489 0
M  V30 4774 H 441.475 -6.31218 1.62504 0
M  V30 4775 N 444.908 -1.36708 -0.784132 0
M  V30 4776 C 445.838 -1.34153 -1.91116 0
M  V30 4777 C 446.819 -0.212121 -1.68772 0
M  V30 4778 O 448.004 -0.410581 -1.8981 0
M  V30 4779 C 445.134 -1.13535 -3.28218 0
M  V30 4780 C 444.088 -2.23356 -3.65097 0
M  V30 4781 C 443.414 -1.87875 -5.00607 0
M  V30 4782 C 444.714 -3.65473 -3.73131 0
M  V30 4783 H 446.408 -2.28459 -1.93512 0
M  V30 4784 H 443.954 -1.09973 -0.929618 0
M  V30 4785 H 445.907 -1.10381 -4.06687 0
M  V30 4786 H 444.631 -0.156804 -3.26223 0
M  V30 4787 H 443.29 -2.25645 -2.88929 0
M  V30 4788 H 442.938 -0.885814 -4.95139 0
M  V30 4789 H 442.638 -2.61406 -5.26252 0
M  V30 4790 H 444.162 -1.86286 -5.81489 0
M  V30 4791 H 445.576 -3.65382 -4.41779 0
M  V30 4792 H 443.973 -4.37953 -4.10265 0
M  V30 4793 H 445.043 -3.99995 -2.74102 0
M  V30 4794 N 446.386 1.0089 -1.21074 0
M  V30 4795 C 447.633 1.74607 -1.0256 0
M  V30 4796 C 447.961 1.89426 0.44136 0
M  V30 4797 O 447.216 1.42266 1.34384 0
M  V30 4798 C 447.515 3.16335 -1.66334 0
M  V30 4799 C 447.181 3.21474 -3.16173 0
M  V30 4800 C 445.843 3.22583 -3.57062 0
M  V30 4801 C 448.195 3.19025 -4.12156 0
M  V30 4802 C 445.523 3.18925 -4.92446 0
M  V30 4803 C 447.875 3.16909 -5.47496 0
M  V30 4804 C 446.539 3.16326 -5.87787 0
M  V30 4805 H 445.809 0.638933 -0.375294 0
M  V30 4806 H 448.456 1.18274 -1.50611 0
M  V30 4807 H 446.761 3.75876 -1.10566 0
M  V30 4808 H 448.458 3.72083 -1.49516 0
M  V30 4809 H 445.048 3.2135 -2.83605 0
M  V30 4810 H 449.232 3.17332 -3.81595 0
M  V30 4811 H 444.488 3.16809 -5.22917 0
M  V30 4812 H 448.662 3.13968 -6.21609 0
M  V30 4813 H 446.289 3.13246 -6.92662 0
M  V30 4814 N 447.864 1.01787 1.20321 0
M  V30 4815 C 449.089 0.727009 1.9424 0
M  V30 4816 C 449.514 -0.706179 1.74341 0
M  V30 4817 O 448.872 -1.48609 1.03852 0
M  V30 4818 C 448.92 1.06958 3.44372 0
M  V30 4819 O 448.024 0.181983 4.11998 0
M  V30 4820 H 447.365 0.269626 0.606793 0
M  V30 4821 H 449.895 1.36158 1.52716 0
M  V30 4822 H 449.905 1.02182 3.94997 0
M  V30 4823 H 448.58 2.11378 3.58179 0
M  V30 4824 H 447.157 0.287378 3.71791 0
M  V30 4825 N 449.342 -1.36122 0.79427 0
M  V30 4826 C 450.305 -2.28309 0.201889 0
M  V30 4827 C 451.305 -1.49041 -0.603603 0
M  V30 4828 O 452.495 -1.68964 -0.423888 0
M  V30 4829 C 449.627 -3.3321 -0.719978 0
M  V30 4830 H 450.82 -2.82208 1.01481 0
M  V30 4831 H 448.373 -1.45768 0.564037 0
M  V30 4832 H 449.108 -2.84475 -1.55706 0
M  V30 4833 H 448.893 -3.91835 -0.144266 0
M  V30 4834 H 450.383 -4.02044 -1.12916 0
M  V30 4835 N 450.82 -0.546701 -1.47814 0
M  V30 4836 C 452.068 -0.0187037 -2.02091 0
M  V30 4837 C 452.389 1.33168 -1.42447 0
M  V30 4838 O 451.659 1.86619 -0.595839 0
M  V30 4839 H 450.239 -0.00392531 -0.74699 0
M  V30 4840 H 452.901 -0.714327 -1.81338 0
M  V30 4841 H 451.997 0.0772219 -3.12004 0
M  V30 4842 N 452.299 1.55045 -0.282633 0
M  V30 4843 C 453.229 2.2579 0.595066 0
M  V30 4844 C 454.21 1.25074 1.15284 0
M  V30 4845 O 455.395 1.5381 1.18559 0
M  V30 4846 C 452.525 2.98472 1.77572 0
M  V30 4847 C 451.479 4.0618 1.34914 0
M  V30 4848 C 450.805 4.66477 2.6135 0
M  V30 4849 C 452.105 5.1996 0.493821 0
M  V30 4850 H 453.799 2.994 0.00505653 0
M  V30 4851 H 451.345 1.44 0.000992001 0
M  V30 4852 H 453.298 3.46677 2.39568 0
M  V30 4853 H 452.022 2.2241 2.39168 0
M  V30 4854 H 450.681 3.58797 0.752338 0
M  V30 4855 H 450.329 3.87074 3.2122 0
M  V30 4856 H 450.029 5.39207 2.33516 0
M  V30 4857 H 451.553 5.17435 3.24181 0
M  V30 4858 H 452.967 5.64172 1.01898 0
M  V30 4859 H 451.364 5.99299 0.310047 0
M  V30 4860 H 452.434 4.82462 -0.485593 0
M  V30 4861 N 453.777 0.010035 1.57597 0
M  V30 4862 C 454.687 -0.994226 2.12491 0
M  V30 4863 C 455.703 -1.37013 1.07254 0
M  V30 4864 O 456.879 -1.45542 1.3921 0
M  V30 4865 C 453.944 -2.2642 2.62555 0
M  V30 4866 C 453.005 -1.95049 3.82432 0
M  V30 4867 C 452.238 -3.15991 4.30099 0
M  V30 4868 O 452.461 -4.28015 3.7704 0
M  V30 4869 O 451.395 -2.99403 5.22151 0
M  V30 4870 H 455.221 -0.557549 2.98538 0
M  V30 4871 H 452.806 -0.209413 1.47925 0
M  V30 4872 H 454.688 -3.01009 2.9491 0
M  V30 4873 H 453.363 -2.69306 1.796 0
M  V30 4874 H 452.27 -1.17904 3.55034 0
M  V30 4875 H 453.603 -1.56992 4.66491 0
M  V30 4876 N 455.255 -1.55392 -0.262866 0
M  V30 4877 C 456.671 -1.47459 -0.610582 0
M  V30 4878 C 456.871 -0.697031 -1.8906 0
M  V30 4879 O 455.927 -0.219952 -2.5154 0
M  V30 4880 C 457.24 -2.91751 -0.728131 0
M  V30 4881 C 458.788 -3.02027 -0.821517 0
M  V30 4882 C 459.263 -4.47594 -0.97076 0
M  V30 4883 N 460.754 -4.51465 -1.03603 0
M  V30 4884 C 461.489 -5.61326 -1.17049 0
M  V30 4885 N 460.985 -6.81032 -1.2715 0
M  V30 4886 N 462.778 -5.49089 -1.20239 0
M  V30 4887 H 454.929 -2.04395 0.577632 0
M  V30 4888 H 457.192 -0.927287 0.197086 0
M  V30 4889 H 456.898 -3.51413 0.142132 0
M  V30 4890 H 456.772 -3.4134 -1.6052 0
M  V30 4891 H 459.159 -2.42456 -1.68224 0
M  V30 4892 H 459.24 -2.55674 0.0803688 0
M  V30 4893 H 458.884 -5.07771 -0.114655 0
M  V30 4894 H 458.814 -4.91613 -1.88745 0
M  V30 4895 H 461.305 -3.6524 -0.96996 0
M  V30 4896 H 461.618 -7.60511 -1.37271 0
M  V30 4897 H 459.963 -6.83824 -1.24136 0
M  V30 4898 H 463.154 -4.54507 -1.11985 0
M  V30 4899 H 463.327 -6.34749 -1.30373 0
M  V30 4900 N 456.733 0.527833 -1.48498 0
M  V30 4901 C 457.696 1.61439 -1.62696 0
M  V30 4902 C 458.696 1.52824 -0.500136 0
M  V30 4903 O 459.886 1.56456 -0.765976 0
M  V30 4904 C 457.018 3.01063 -1.59918 0
M  V30 4905 H 458.211 1.50189 -2.59583 0
M  V30 4906 H 455.764 0.750055 -1.37127 0
M  V30 4907 H 456.499 3.17818 -0.645163 0
M  V30 4908 H 456.284 3.08725 -2.41726 0
M  V30 4909 H 457.774 3.80057 -1.73051 0
M  V30 4910 N 458.211 1.37122 0.776871 0
M  V30 4911 C 459.141 1.35164 1.90402 0
M  V30 4912 C 460.122 0.221069 1.68657 0
M  V30 4913 O 461.307 0.420642 1.8959 0
M  V30 4914 C 458.437 1.15274 3.27611 0
M  V30 4915 C 457.391 2.25289 3.63908 0
M  V30 4916 C 456.717 1.90527 4.99603 0
M  V30 4917 C 458.017 3.67446 3.71188 0
M  V30 4918 H 459.711 2.29482 1.92297 0
M  V30 4919 H 457.257 1.10465 0.923773 0
M  V30 4920 H 459.21 1.12536 4.06096 0
M  V30 4921 H 457.934 0.174102 3.26136 0
M  V30 4922 H 456.593 2.27174 2.87728 0
M  V30 4923 H 456.241 0.91206 4.94662 0
M  V30 4924 H 455.941 2.64193 5.24858 0
M  V30 4925 H 457.465 1.89367 5.80493 0
M  V30 4926 H 458.879 3.67719 4.39836 0
M  V30 4927 H 457.276 4.40123 4.07936 0
M  V30 4928 H 458.346 4.01443 2.71977 0
M  V30 4929 N 459.689 -1.00246 1.21608 0
M  V30 4930 C 460.914 -1.78167 1.06167 0
M  V30 4931 C 461.339 -1.84138 -0.384035 0
M  V30 4932 O 460.697 -1.28683 -1.27712 0
M  V30 4933 C 460.745 -3.19786 1.66642 0
M  V30 4934 O 459.849 -4.02153 0.913613 0
M  V30 4935 H 459.19 -0.549 0.37349 0
M  V30 4936 H 461.72 -1.25994 1.61204 0
M  V30 4937 H 461.73 -3.70451 1.70969 0
M  V30 4938 H 460.405 -3.14754 2.7185 0
M  V30 4939 H 458.982 -3.60711 0.945635 0
M  V30 4940 N 461.167 -1.02423 -1.1978 0
M  V30 4941 C 462.413 -0.719051 -1.89625 0
M  V30 4942 C 462.746 0.750083 -1.7913 0
M  V30 4943 O 462.021 1.54574 -1.18056 0
M  V30 4944 C 462.304 -1.16499 -3.40735 0
M  V30 4945 C 462.157 -2.695 -3.60125 0
M  V30 4946 C 463.476 -0.742166 -4.33797 0
M  V30 4947 H 460.595 -0.26269 -0.688595 0
M  V30 4948 H 463.237 -1.27333 -1.41018 0
M  V30 4949 H 461.387 -0.69341 -3.82262 0
M  V30 4950 H 463.059 -3.24569 -3.278 0
M  V30 4951 H 461.302 -3.10113 -3.03336 0
M  V30 4952 H 461.973 -2.95757 -4.66081 0
M  V30 4953 H 464.449 -1.1477 -3.99959 0
M  V30 4954 H 463.325 -1.08213 -5.38127 0
M  V30 4955 H 463.586 0.355747 -4.40666 0
M  V30 4956 N 462.645 1.35699 -0.801477 0
M  V30 4957 C 463.555 2.33661 -0.209691 0
M  V30 4958 C 464.571 1.6162 0.644591 0
M  V30 4959 O 465.747 1.93529 0.557545 0
M  V30 4960 C 462.812 3.40816 0.636033 0
M  V30 4961 C 461.873 4.28639 -0.238147 0
M  V30 4962 C 461.106 5.30676 0.567307 0
M  V30 4963 O 461.329 5.41174 1.8024 0
M  V30 4964 O 460.263 6.01887 -0.0391336 0
M  V30 4965 H 464.089 2.8606 -1.01996 0
M  V30 4966 H 461.674 1.38379 -0.563164 0
M  V30 4967 H 463.556 4.06301 1.11791 0
M  V30 4968 H 462.231 2.90696 1.42399 0
M  V30 4969 H 461.138 3.66152 -0.767044 0
M  V30 4970 H 462.471 4.82143 -0.989915 0
M  V30 4971 N 464.123 0.554532 1.47522 0
M  V30 4972 C 465.351 0.034257 2.06872 0
M  V30 4973 C 465.766 -1.25826 1.40759 0
M  V30 4974 O 465.123 -1.75425 0.503217 0
M  V30 4975 C 465.174 -0.167827 3.6111 0
M  V30 4976 O 464.895 1.07351 4.24744 0
M  V30 4977 C 466.396 -0.72569 4.3732 0
M  V30 4978 H 463.616 0.0446275 0.669514 0
M  V30 4979 H 466.16 0.767181 1.89564 0
M  V30 4980 H 464.315 -0.850872 3.7794 0
M  V30 4981 H 464.729 0.869563 5.17242 0
M  V30 4982 H 466.203 -0.816394 5.45929 0
M  V30 4983 H 466.68 -1.73635 4.0342 0
M  V30 4984 H 467.286 -0.0784292 4.25228 0
M  V30 4985 N 465.601 -1.54893 0.290851 0
M  V30 4986 C 466.847 -2.0023 -0.321867 0
M  V30 4987 C 467.18 -1.179 -1.54316 0
M  V30 4988 O 466.455 -0.25293 -1.92848 0
M  V30 4989 C 466.738 -3.53456 -0.688515 0
M  V30 4990 C 466.591 -4.46532 0.541209 0
M  V30 4991 C 467.91 -4.13057 -1.51895 0
M  V30 4992 H 465.029 -0.727891 -0.115515 0
M  V30 4993 H 467.671 -1.85722 0.400931 0
M  V30 4994 H 465.821 -3.6595 -1.30433 0
M  V30 4995 H 467.493 -4.4596 1.17973 0
M  V30 4996 H 465.736 -4.17545 1.17636 0
M  V30 4997 H 466.407 -5.51475 0.240675 0
M  V30 4998 H 468.883 -4.03937 -0.99872 0
M  V30 4999 H 467.759 -5.20448 -1.74429 0
M  V30 5000 H 468.02 -3.64284 -2.50498 0
M  V30 5001 N 467.08 -0.0183926 -1.57589 0
M  V30 5002 C 468.496 0.337897 -1.55982 0
M  V30 5003 C 468.696 1.73604 -1.02294 0
M  V30 5004 O 467.752 2.43589 -0.664895 0
M  V30 5005 C 469.065 0.196305 -3.00059 0
M  V30 5006 C 470.613 0.269875 -3.11834 0
M  V30 5007 C 471.088 0.157197 -4.5773 0
M  V30 5008 N 472.579 0.214521 -4.62703 0
M  V30 5009 C 473.314 0.150955 -5.73201 0
M  V30 5010 N 472.81 0.0369212 -6.9279 0
M  V30 5011 N 474.603 0.204162 -5.61729 0
M  V30 5012 H 466.754 -0.93279 -1.90821 0
M  V30 5013 H 469.017 -0.359253 -0.877292 0
M  V30 5014 H 468.723 -0.766383 -3.43248 0
M  V30 5015 H 468.597 0.970908 -3.6449 0
M  V30 5016 H 470.984 1.22302 -2.68563 0
M  V30 5017 H 471.065 -0.534918 -2.50144 0
M  V30 5018 H 470.709 -0.792479 -5.01679 0
M  V30 5019 H 470.639 0.980717 -5.17387 0
M  V30 5020 H 473.13 0.303238 -3.76681 0
M  V30 5021 H 473.443 -0.00518321 -7.728 0
M  V30 5022 H 471.788 0.0022886 -6.95 0
M  V30 5023 H 474.979 0.291575 -4.67191 0
M  V30 5024 H 475.152 0.15116 -6.47824 0
M  V30 5025 N 468.558 1.5553 0.254621 0
M  V30 5026 C 469.521 1.88872 1.29846 0
M  V30 5027 C 470.521 0.764591 1.41459 0
M  V30 5028 O 471.711 1.03265 1.40293 0
M  V30 5029 C 468.843 2.11032 2.67728 0
M  V30 5030 H 470.036 2.82201 1.01502 0
M  V30 5031 H 467.589 1.48303 0.493556 0
M  V30 5032 H 468.324 1.20146 3.01223 0
M  V30 5033 H 468.109 2.92895 2.60682 0
M  V30 5034 H 469.599 2.38038 3.43115 0
M  V30 5035 N 470.036 -0.519951 1.48776 0
M  V30 5036 C 470.999 -1.60574 1.6355 0
M  V30 5037 C 471.999 -1.52557 0.508234 0
M  V30 5038 O 473.189 -1.56047 0.774262 0
M  V30 5039 C 470.321 -3.00211 1.61512 0
M  V30 5040 H 471.514 -1.4881 2.60376 0
M  V30 5041 H 469.067 -0.742772 1.37523 0
M  V30 5042 H 469.802 -3.17471 0.662009 0
M  V30 5043 H 469.587 -3.07439 2.43359 0
M  V30 5044 H 471.077 -3.79134 1.75064 0
M  V30 5045 N 471.514 -1.37532 -0.769588 0
M  V30 5046 C 472.761 -1.3286 -1.52822 0
M  V30 5047 C 473.089 0.0862597 -1.94309 0
M  V30 5048 O 472.344 1.05995 -1.6451 0
M  V30 5049 C 472.643 -2.21558 -2.8044 0
M  V30 5050 C 472.309 -3.69796 -2.57996 0
M  V30 5051 C 470.971 -4.10194 -2.51583 0
M  V30 5052 C 473.323 -4.63699 -2.37976 0
M  V30 5053 C 470.651 -5.42608 -2.23144 0
M  V30 5054 C 473.003 -5.96353 -2.1106 0
M  V30 5055 C 471.667 -6.35853 -2.03093 0
M  V30 5056 H 470.937 -0.486168 -0.559215 0
M  V30 5057 H 473.584 -1.69757 -0.886277 0
M  V30 5058 H 471.889 -1.77663 -3.49204 0
M  V30 5059 H 473.586 -2.15256 -3.38328 0
M  V30 5060 H 470.176 -3.37759 -2.63851 0
M  V30 5061 H 474.36 -4.33346 -2.41919 0
M  V30 5062 H 469.616 -5.72173 -2.15472 0
M  V30 5063 H 473.79 -6.68667 -1.94568 0
M  V30 5064 H 471.417 -7.38382 -1.8082 0
M  V30 5065 N 472.992 0.995999 -1.22138 0
M  V30 5066 C 474.22 1.77066 -1.07029 0
M  V30 5067 C 474.635 1.8495 0.379357 0
M  V30 5068 O 473.992 1.3174 1.26297 0
M  V30 5069 C 474.043 3.20533 -1.67155 0
M  V30 5070 O 473.764 3.13082 -3.06449 0
M  V30 5071 C 475.265 4.14461 -1.5728 0
M  V30 5072 H 472.485 0.556179 -0.375374 0
M  V30 5073 H 475.029 1.25238 -1.61666 0
M  V30 5074 H 473.184 3.6944 -1.16589 0
M  V30 5075 H 473.598 4.03283 -3.35355 0
M  V30 5076 H 475.072 5.1289 -2.04078 0
M  V30 5077 H 475.549 4.36005 -0.528795 0
M  V30 5078 H 476.155 3.71449 -2.07136 0
M  V30 5079 N 474.47 1.03057 1.19235 0
M  V30 5080 C 475.718 0.726581 1.88587 0
M  V30 5081 C 476.039 -0.747227 1.80115 0
M  V30 5082 O 475.309 -1.53849 1.21274 0
M  V30 5083 H 473.889 0.265768 0.698124 0
M  V30 5084 H 476.551 1.30516 1.44746 0
M  V30 5085 H 475.647 1.0224 2.94879 0
M  V30 5086 N 475.948 -1.35272 0.808662 0
M  V30 5087 C 476.911 -2.28082 0.226093 0
M  V30 5088 C 477.911 -1.49673 -0.587762 0
M  V30 5089 O 479.101 -1.69404 -0.405943 0
M  V30 5090 C 476.233 -3.33955 -0.684596 0
M  V30 5091 H 477.426 -2.81116 1.04469 0
M  V30 5092 H 474.979 -1.45162 0.579466 0
M  V30 5093 H 475.714 -2.86111 -1.5268 0
M  V30 5094 H 475.499 -3.91965 -0.102699 0
M  V30 5095 H 476.989 -4.03219 -1.08646 0
M  V30 5096 N 477.426 -0.562348 -1.47226 0
M  V30 5097 C 478.837 -0.130325 -1.86245 0
M  V30 5098 C 479.188 1.30128 -1.46838 0
M  V30 5099 O 478.313 1.97974 -0.873805 0
M  V30 5100 C 478.908 -0.229738 -3.3802 0
M  V30 5101 C 477.467 0.14728 -3.76112 0
M  V30 5102 C 476.614 -0.574971 -2.71274 0
M  V30 5103 H 479.565 -0.771773 -1.3867 0
M  V30 5104 H 479.586 0.550316 -3.76499 0
M  V30 5105 H 479.098 -1.27178 -3.66671 0
M  V30 5106 H 477.199 1.19023 -3.53078 0
M  V30 5107 H 477.312 -0.214858 -4.78618 0
M  V30 5108 H 475.676 -0.0174756 -2.54694 0
M  V30 5109 H 476.459 -1.61827 -3.02766 0
M  V30 5110 N 478.904 1.54736 -0.299062 0
M  V30 5111 C 480.315 1.8569 0.193971 0
M  V30 5112 C 480.666 1.22101 1.53577 0
M  V30 5113 O 479.791 0.51799 2.10109 0
M  V30 5114 C 480.386 3.36895 0.358733 0
M  V30 5115 C 478.945 3.67887 0.795986 0
M  V30 5116 C 478.092 2.77131 -0.096807 0
M  V30 5117 H 481.043 1.49934 -0.520134 0
M  V30 5118 H 481.064 3.61294 1.19361 0
M  V30 5119 H 480.576 3.83148 -0.617998 0
M  V30 5120 H 478.677 3.27151 1.78334 0
M  V30 5121 H 478.79 4.75114 0.616718 0
M  V30 5122 H 477.154 2.51153 0.423581 0
M  V30 5123 H 477.937 3.26204 -1.06986 0
M  V30 5124 N 480.382 0.0267497 1.57577 0
M  V30 5125 C 481.63 -0.651116 1.91324 0
M  V30 5126 C 481.951 -1.72804 0.90353 0
M  V30 5127 O 481.221 -1.95822 -0.0552946 0
M  V30 5128 H 479.801 -0.243491 0.706202 0
M  V30 5129 H 482.463 0.0739935 1.94759 0
M  V30 5130 H 481.559 -1.10536 2.9187 0
M  V30 5131 N 481.861 -1.55662 -0.24637 0
M  V30 5132 C 483.272 -1.67953 -0.81539 0
M  V30 5133 C 483.623 -0.624302 -1.86002 0
M  V30 5134 O 482.748 0.229328 -2.15181 0
M  V30 5135 C 483.343 -3.04484 -1.48576 0
M  V30 5136 C 481.902 -3.18713 -2.00248 0
M  V30 5137 C 481.049 -2.6383 -0.853766 0
M  V30 5138 H 484 -1.58685 -0.0221692 0
M  V30 5139 H 484.021 -2.98959 -2.3538 0
M  V30 5140 H 483.533 -3.81264 -0.725222 0
M  V30 5141 H 481.634 -2.46757 -2.79181 0
M  V30 5142 H 481.747 -4.25628 -2.1995 0
M  V30 5143 H 480.111 -2.21667 -1.25442 0
M  V30 5144 H 480.894 -3.43135 -0.106302 0
M  V30 5145 N 483.339 0.512053 -1.4905 0
M  V30 5146 C 484.585 1.26613 -1.59187 0
M  V30 5147 C 484.94 1.90494 -0.270163 0
M  V30 5148 O 484.233 1.77204 0.728648 0
M  V30 5149 C 484.427 2.36446 -2.68008 0
M  V30 5150 C 484.256 1.83334 -4.10632 0
M  V30 5151 C 483.026 1.65131 -4.77556 0
M  V30 5152 C 485.224 1.35153 -4.96224 0
M  V30 5153 N 483.206 1.06833 -6.04533 0
M  V30 5154 C 484.577 0.889186 -6.13591 0
M  V30 5155 C 486.632 1.23623 -4.82309 0
M  V30 5156 C 485.335 0.322953 -7.18575 0
M  V30 5157 C 487.361 0.683978 -5.87431 0
M  V30 5158 C 486.723 0.2318 -7.04018 0
M  V30 5159 H 482.822 0.453678 -0.636946 0
M  V30 5160 H 485.406 0.575217 -1.86009 0
M  V30 5161 H 483.577 3.03012 -2.42978 0
M  V30 5162 H 485.309 3.03485 -2.67729 0
M  V30 5163 H 482.064 1.89178 -4.34176 0
M  V30 5164 H 482.488 0.796425 -6.72299 0
M  V30 5165 H 487.13 1.57184 -3.92496 0
M  V30 5166 H 484.848 -0.024943 -8.08096 0
M  V30 5167 H 488.434 0.597694 -5.78722 0
M  V30 5168 H 487.314 -0.188869 -7.83973 0
M  V30 5169 N 484.817 1.37938 0.762283 0
M  V30 5170 C 485.767 1.30976 1.86626 0
M  V30 5171 C 486.751 0.195714 1.59705 0
M  V30 5172 O 487.943 0.430937 1.71674 0
M  V30 5173 C 485.072 1.12847 3.24223 0
M  V30 5174 C 484.158 2.28836 3.57064 0
M  V30 5175 N 484.549 3.54256 3.61022 0
M  V30 5176 C 482.847 2.21198 3.87282 0
M  V30 5177 C 483.548 4.30798 3.90881 0
M  V30 5178 N 482.524 3.60049 4.07266 0
M  V30 5179 H 486.326 2.25946 1.87951 0
M  V30 5180 H 483.84 1.31046 0.959206 0
M  V30 5181 H 485.837 1.05943 4.03214 0
M  V30 5182 H 484.497 0.188024 3.24155 0
M  V30 5183 H 485.508 3.8804 3.42995 0
M  V30 5184 H 482.185 1.35264 3.94981 0
M  V30 5185 H 483.575 5.39386 4.00639 0
M  V30 5186 N 486.295 -0.989507 1.22664 0
M  V30 5187 C 487.205 -2.11449 1.01619 0
M  V30 5188 C 488.221 -1.73962 -0.036545 0
M  V30 5189 O 489.397 -2.00788 0.156924 0
M  V30 5190 C 486.462 -3.41465 0.600204 0
M  V30 5191 C 485.523 -3.93033 1.72695 0
M  V30 5192 C 484.756 -5.16844 1.33071 0
M  V30 5193 O 484.979 -5.7001 0.210975 0
M  V30 5194 O 483.913 -5.6225 2.14845 0
M  V30 5195 H 487.739 -2.32088 1.9588 0
M  V30 5196 H 485.324 -1.09823 1.01289 0
M  V30 5197 H 487.206 -4.19695 0.37873 0
M  V30 5198 H 485.881 -3.22178 -0.313511 0
M  V30 5199 H 484.788 -3.15961 2.00298 0
M  V30 5200 H 486.121 -4.16758 2.61865 0
M  V30 5201 N 487.773 -1.03688 -1.18687 0
M  V30 5202 C 488.72 -0.624624 -2.22187 0
M  V30 5203 C 489.69 0.365636 -1.62026 0
M  V30 5204 O 490.875 0.260481 -1.89014 0
M  V30 5205 C 488.015 0.0101738 -3.45099 0
M  V30 5206 C 487.128 -1.02709 -4.19613 0
M  V30 5207 C 486.263 -0.361213 -5.2997 0
M  V30 5208 C 485.302 -1.38384 -5.96252 0
M  V30 5209 N 484.439 -0.743196 -6.98155 0
M  V30 5210 H 489.279 -1.51176 -2.56807 0
M  V30 5211 H 486.816 -0.75636 -1.26165 0
M  V30 5212 H 488.774 0.395528 -4.15321 0
M  V30 5213 H 487.404 0.860848 -3.1111 0
M  V30 5214 H 486.456 -1.53043 -3.48256 0
M  V30 5215 H 487.768 -1.80398 -4.65036 0
M  V30 5216 H 486.922 0.0785537 -6.06649 0
M  V30 5217 H 485.661 0.447799 -4.8564 0
M  V30 5218 H 484.666 -1.83378 -5.18317 0
M  V30 5219 H 485.891 -2.19448 -6.42666 0
M  V30 5220 H 483.837 0.0455789 -6.55984 0
M  V30 5221 H 483.754 -1.45784 -7.41811 0
M  V30 5222 H 485.022 -0.327698 -7.78811 0
M  V30 5223 N 489.251 1.34841 -0.815825 0
M  V30 5224 C 490.181 2.32187 -0.247298 0
M  V30 5225 C 491.162 1.5791 0.632344 0
M  V30 5226 O 492.347 1.8593 0.560698 0
M  V30 5227 C 489.477 3.42122 0.597466 0
M  V30 5228 C 488.431 4.27602 -0.184446 0
M  V30 5229 C 487.757 5.28942 0.782609 0
M  V30 5230 C 489.057 5.03502 -1.38865 0
M  V30 5231 H 490.751 2.79985 -1.06061 0
M  V30 5232 H 488.297 1.34611 -0.511461 0
M  V30 5233 H 490.25 4.09232 1.00533 0
M  V30 5234 H 488.974 2.92956 1.44376 0
M  V30 5235 H 487.633 3.62085 -0.573592 0
M  V30 5236 H 487.281 4.7604 1.62466 0
M  V30 5237 H 486.981 5.87008 0.263695 0
M  V30 5238 H 488.505 5.98922 1.18848 0
M  V30 5239 H 489.919 5.63506 -1.05518 0
M  V30 5240 H 488.316 5.71108 -1.8427 0
M  V30 5241 H 489.386 4.33608 -2.17054 0
M  V30 5242 N 490.729 0.570148 1.46925 0
M  V30 5243 C 492.145 0.23087 1.57921 0
M  V30 5244 C 492.345 -1.26676 1.56702 0
M  V30 5245 O 491.401 -2.04774 1.47729 0
M  V30 5246 C 492.714 0.868973 2.8787 0
M  V30 5247 C 494.262 0.841397 3.01479 0
M  V30 5248 C 494.737 1.45881 4.34146 0
M  V30 5249 N 496.228 1.42258 4.40814 0
M  V30 5250 C 496.963 1.8698 5.42057 0
M  V30 5251 N 496.459 2.39618 6.50042 0
M  V30 5252 N 498.252 1.77972 5.33181 0
M  V30 5253 H 490.403 1.54301 1.45962 0
M  V30 5254 H 492.666 0.644224 0.69547 0
M  V30 5255 H 492.372 1.922 2.94537 0
M  V30 5256 H 492.246 0.369682 3.75384 0
M  V30 5257 H 494.633 -0.202973 2.94401 0
M  V30 5258 H 494.714 1.37858 2.15474 0
M  V30 5259 H 494.358 2.50231 4.4198 0
M  V30 5260 H 494.288 0.896958 5.18905 0
M  V30 5261 H 496.779 1.03768 3.63374 0
M  V30 5262 H 497.092 2.71633 7.23488 0
M  V30 5263 H 495.437 2.43636 6.50897 0
M  V30 5264 H 498.628 1.36617 4.4772 0
M  V30 5265 H 498.801 2.13143 6.11943 0
M  V30 5266 N 492.207 -1.54576 0.307264 0
M  V30 5267 C 493.623 -1.59534 -0.0459251 0
M  V30 5268 C 493.823 -1.32414 -1.51884 0
M  V30 5269 O 492.879 -1.1006 -2.27251 0
M  V30 5270 C 494.192 -2.98566 0.357649 0
M  V30 5271 C 495.74 -3.11491 0.306937 0
M  V30 5272 C 496.215 -4.52842 0.685427 0
M  V30 5273 N 497.706 -4.58782 0.638203 0
M  V30 5274 C 498.441 -5.66238 0.903458 0
M  V30 5275 N 497.937 -6.81703 1.23501 0
M  V30 5276 N 499.73 -5.55937 0.830102 0
M  V30 5277 H 491.881 -1.70464 1.26712 0
M  V30 5278 H 494.144 -0.79647 0.514139 0
M  V30 5279 H 493.85 -3.23356 1.38325 0
M  V30 5280 H 493.724 -3.76117 -0.285565 0
M  V30 5281 H 496.111 -2.86446 -0.709424 0
M  V30 5282 H 496.192 -2.36081 0.984861 0
M  V30 5283 H 495.836 -4.78618 1.69963 0
M  V30 5284 H 495.766 -5.26598 -0.0146346 0
M  V30 5285 H 498.257 -3.75849 0.393138 0
M  V30 5286 H 498.57 -7.59582 1.42322 0
M  V30 5287 H 496.915 -6.8324 1.27311 0
M  V30 5288 H 500.106 -4.64608 0.570693 0
M  V30 5289 H 500.279 -6.39597 1.04019 0
M  V30 5290 N 493.685 -0.035106 -1.57561 0
M  V30 5291 C 495.101 0.321334 -1.56332 0
M  V30 5292 C 495.301 1.72509 -1.04129 0
M  V30 5293 O 494.357 2.4287 -0.690694 0
M  V30 5294 C 495.67 0.164469 -3.0025 0
M  V30 5295 C 497.218 0.236786 -3.12103 0
M  V30 5296 C 497.693 0.10864 -4.57871 0
M  V30 5297 N 499.184 0.165433 -4.62904 0
M  V30 5298 C 499.919 0.0901506 -5.73329 0
M  V30 5299 N 499.415 -0.0365606 -6.9279 0
M  V30 5300 N 501.208 0.144572 -5.61914 0
M  V30 5301 H 493.359 -0.952976 -1.89821 0
M  V30 5302 H 495.622 -0.368537 -0.873432 0
M  V30 5303 H 495.328 -0.802746 -3.42416 0
M  V30 5304 H 495.202 0.932194 -3.655 0
M  V30 5305 H 497.589 1.19446 -2.69845 0
M  V30 5306 H 497.67 -0.561419 -2.49563 0
M  V30 5307 H 497.314 -0.845644 -5.00811 0
M  V30 5308 H 497.244 0.925786 -5.18398 0
M  V30 5309 H 499.735 0.263269 -3.76982 0
M  V30 5310 H 500.048 -0.0871487 -7.72751 0
M  V30 5311 H 498.393 -0.0714256 -6.94963 0
M  V30 5312 H 501.584 0.242006 -4.67474 0
M  V30 5313 H 501.757 0.0824413 -6.47948 0
M  V30 5314 N 495.163 1.55791 0.238111 0
M  V30 5315 C 496.41 1.78033 0.964907 0
M  V30 5316 C 496.738 0.600984 1.84982 0
M  V30 5317 O 495.993 -0.41536 1.91241 0
M  V30 5318 C 496.292 3.05869 1.84875 0
M  V30 5319 C 495.958 4.36808 1.11846 0
M  V30 5320 C 494.62 4.72388 0.916662 0
M  V30 5321 C 496.972 5.17717 0.60151 0
M  V30 5322 C 494.3 5.86406 0.185756 0
M  V30 5323 C 496.652 6.32494 -0.115972 0
M  V30 5324 C 495.316 6.66688 -0.329168 0
M  V30 5325 H 494.586 0.651469 0.353085 0
M  V30 5326 H 497.233 1.90061 0.234318 0
M  V30 5327 H 495.538 2.88891 2.64668 0
M  V30 5328 H 497.235 3.20278 2.41294 0
M  V30 5329 H 493.825 4.08862 1.28569 0
M  V30 5330 H 498.009 4.90678 0.744932 0
M  V30 5331 H 493.265 6.11399 0.0101886 0
M  V30 5332 H 497.439 6.94425 -0.524127 0
M  V30 5333 H 495.066 7.54884 -0.897474 0
M  V30 5334 N 496.642 -0.504142 1.49319 0
M  V30 5335 C 497.605 -1.5883 1.65244 0
M  V30 5336 C 498.605 -1.52009 0.524386 0
M  V30 5337 O 499.795 -1.55218 0.79077 0
M  V30 5338 C 496.927 -2.98481 1.64687 0
M  V30 5339 H 498.12 -1.4604 2.61939 0
M  V30 5340 H 495.673 -0.728144 1.38303 0
M  V30 5341 H 496.408 -3.16751 0.695644 0
M  V30 5342 H 496.193 -3.0484 2.46607 0
M  V30 5343 H 497.683 -3.77256 1.79075 0
M  V30 5344 N 498.12 -1.38341 -0.754957 0
M  V30 5345 C 499.345 -1.37882 -1.5493 0
M  V30 5346 C 499.77 0.0296385 -1.88077 0
M  V30 5347 O 499.128 1.01133 -1.50472 0
M  V30 5348 C 499.176 -2.23996 -2.82592 0
M  V30 5349 O 498.28 -1.65612 -3.77686 0
M  V30 5350 H 497.621 -0.470384 -0.468652 0
M  V30 5351 H 500.151 -1.82084 -0.933082 0
M  V30 5352 H 500.161 -2.37806 -3.3153 0
M  V30 5353 H 498.836 -3.26365 -2.57796 0
M  V30 5354 H 497.413 -1.60936 -3.36384 0
M  V30 5355 N 499.598 0.982988 -1.23187 0
M  V30 5356 C 500.528 2.09301 -1.03515 0
M  V30 5357 C 501.509 1.70035 0.0471136 0
M  V30 5358 O 502.694 1.93847 -0.117029 0
M  V30 5359 C 499.824 3.4167 -0.622791 0
M  V30 5360 C 498.778 3.94828 -1.65211 0
M  V30 5361 C 498.104 5.23362 -1.09527 0
M  V30 5362 C 499.404 4.2439 -3.04451 0
M  V30 5363 H 501.098 2.26016 -1.96359 0
M  V30 5364 H 498.644 1.08611 -0.945501 0
M  V30 5365 H 500.597 4.18746 -0.472233 0
M  V30 5366 H 499.321 3.24811 0.341329 0
M  V30 5367 H 497.98 3.19895 -1.79061 0
M  V30 5368 H 497.628 5.02852 -0.122211 0
M  V30 5369 H 497.328 5.59895 -1.783 0
M  V30 5370 H 498.852 6.03062 -0.956511 0
M  V30 5371 H 500.266 4.92225 -2.93917 0
M  V30 5372 H 498.663 4.72118 -3.70438 0
M  V30 5373 H 499.733 3.31765 -3.53638 0
M  V30 5374 N 501.076 1.04316 1.18135 0
M  V30 5375 C 502.487 0.775505 1.69832 0
M  V30 5376 C 502.838 -0.703348 1.8316 0
M  V30 5377 O 501.963 -1.54729 1.51287 0
M  V30 5378 C 502.558 1.40112 3.0847 0
M  V30 5379 C 501.117 1.18172 3.57368 0
M  V30 5380 C 500.264 1.49022 2.33854 0
M  V30 5381 H 503.215 1.20925 1.02775 0
M  V30 5382 H 503.236 0.805672 3.71873 0
M  V30 5383 H 502.748 2.47744 2.98738 0
M  V30 5384 H 500.849 0.124258 3.72393 0
M  V30 5385 H 500.962 1.8805 4.40652 0
M  V30 5386 H 499.326 0.909995 2.37889 0
M  V30 5387 H 500.109 2.57768 2.26738 0
M  V30 5388 N 502.554 -1.34406 0.822964 0
M  V30 5389 C 503.803 -1.97542 0.407458 0
M  V30 5390 C 504.116 -1.65973 -1.035 0
M  V30 5391 O 505.322 -2.22598 -1.55442 0
M  V30 5392 C 503.778 -3.53463 0.677623 0
M  V30 5393 C 503.386 -3.93925 2.1337 0
M  V30 5394 C 505.13 -4.23229 0.328284 0
M  V30 5395 C 503.037 -5.42759 2.34876 0
M  V30 5396 H 501.967 -0.739207 0.148623 0
M  V30 5397 H 504.618 -1.53248 1.00932 0
M  V30 5398 H 503 -3.96 0.00558965 0
M  V30 5399 H 504.174 -3.62494 2.8449 0
M  V30 5400 H 502.489 -3.37097 2.44448 0
M  V30 5401 H 505.086 -5.32659 0.466794 0
M  V30 5402 H 505.429 -4.09899 -0.727224 0
M  V30 5403 H 505.962 -3.86169 0.954896 0
M  V30 5404 H 502.701 -5.61075 3.38932 0
M  V30 5405 H 502.221 -5.75704 1.68299 0
M  V30 5406 H 503.9 -6.0944 2.17236 0
M  V30 5407 N 504.032 -0.577932 -1.46621 0
M  V30 5408 C 504.979 0.158048 -2.30258 0
M  V30 5409 C 505.949 0.888669 -1.40328 0
M  V30 5410 O 507.134 0.880283 -1.6928 0
M  V30 5411 C 504.274 1.16884 -3.24703 0
M  V30 5412 C 503.387 0.442163 -4.29731 0
M  V30 5413 C 502.522 1.44007 -5.11308 0
M  V30 5414 C 501.561 0.69952 -6.0809 0
M  V30 5415 N 500.698 1.64525 -6.82551 0
M  V30 5416 H 505.538 -0.561242 -2.92667 0
M  V30 5417 H 503.075 -0.288591 -1.44241 0
M  V30 5418 H 505.033 1.7677 -3.779 0
M  V30 5419 H 503.663 1.85591 -2.64113 0
M  V30 5420 H 502.715 -0.271632 -3.79429 0
M  V30 5421 H 504.027 -0.136992 -4.98612 0
M  V30 5422 H 503.181 2.11186 -5.68758 0
M  V30 5423 H 501.92 2.05315 -4.42377 0
M  V30 5424 H 500.925 0.0139217 -5.49798 0
M  V30 5425 H 502.15 0.091894 -6.79038 0
M  V30 5426 H 500.096 2.24653 -6.16334 0
M  V30 5427 H 500.013 1.11878 -7.47676 0
M  V30 5428 H 501.281 2.30754 -7.44562 0
M  V30 5429 N 505.51 1.54411 -0.315457 0
M  V30 5430 C 506.738 2.04833 0.291738 0
M  V30 5431 C 507.153 1.19203 1.46411 0
M  V30 5432 O 506.51 0.220867 1.81159 0
M  V30 5433 C 506.561 3.53969 0.73404 0
M  V30 5434 O 506.282 4.36346 -0.391682 0
M  V30 5435 C 507.783 4.2045 1.40489 0
M  V30 5436 H 505.003 0.668195 0.0612947 0
M  V30 5437 H 507.547 1.99276 -0.45929 0
M  V30 5438 H 505.702 3.5984 1.43506 0
M  V30 5439 H 506.116 5.24481 -0.0447088 0
M  V30 5440 H 507.59 5.26278 1.66539 0
M  V30 5441 H 508.067 3.71067 2.3496 0
M  V30 5442 H 508.673 4.18694 0.746662 0
M  V30 5443 N 506.988 0.0434614 1.5754 0
M  V30 5444 C 507.935 -0.93356 2.11077 0
M  V30 5445 C 508.905 -1.31383 1.01626 0
M  V30 5446 O 510.09 -1.40465 1.29129 0
M  V30 5447 C 507.23 -2.20578 2.65404 0
M  V30 5448 C 506.343 -1.88068 3.88914 0
M  V30 5449 C 505.478 -3.09691 4.31584 0
M  V30 5450 C 504.517 -2.73067 5.47815 0
M  V30 5451 N 503.654 -3.87359 5.85574 0
M  V30 5452 H 508.494 -0.470118 2.94268 0
M  V30 5453 H 506.031 -0.220434 1.45439 0
M  V30 5454 H 507.989 -2.95011 2.94999 0
M  V30 5455 H 506.619 -2.64513 1.85021 0
M  V30 5456 H 505.671 -1.03816 3.6596 0
M  V30 5457 H 506.983 -1.57104 4.73413 0
M  V30 5458 H 506.137 -3.92431 4.62691 0
M  V30 5459 H 504.876 -3.43827 3.45882 0
M  V30 5460 H 503.881 -1.88742 5.16388 0
M  V30 5461 H 505.106 -2.40131 6.35227 0
M  V30 5462 H 503.052 -4.21311 5.02825 0
M  V30 5463 H 502.969 -3.60068 6.64746 0
M  V30 5464 H 504.237 -4.70761 6.21292 0
M  V30 5465 N 508.466 -1.55915 -0.229846 0
M  V30 5466 C 509.714 -1.7819 -0.953565 0
M  V30 5467 C 510.035 -0.610504 -1.85197 0
M  V30 5468 O 509.305 0.372988 -1.92316 0
M  V30 5469 H 507.885 -0.657208 -0.355087 0
M  V30 5470 H 510.547 -1.9337 -0.243693 0
M  V30 5471 H 509.643 -2.70011 -1.56527 0
M  V30 5472 N 509.944 0.496216 -1.49584 0
M  V30 5473 C 510.854 1.62352 -1.69349 0
M  V30 5474 C 511.87 1.64184 -0.576147 0
M  V30 5475 O 513.046 1.82517 -0.85144 0
M  V30 5476 C 510.111 2.98698 -1.76013 0
M  V30 5477 C 509.172 3.07454 -2.99617 0
M  V30 5478 C 508.405 4.37296 -3.05953 0
M  V30 5479 O 508.628 5.2637 -2.19752 0
M  V30 5480 O 507.562 4.51124 -3.9846 0
M  V30 5481 H 511.388 1.48606 -2.64859 0
M  V30 5482 H 508.973 0.673022 -1.33382 0
M  V30 5483 H 510.855 3.79725 -1.82721 0
M  V30 5484 H 509.53 3.12696 -0.836828 0
M  V30 5485 H 508.437 2.25597 -2.98424 0
M  V30 5486 H 509.77 2.98385 -3.91443 0
M  V30 5487 N 511.423 1.38739 0.74761 0
M  V30 5488 C 512.353 1.39173 1.87492 0
M  V30 5489 C 513.334 0.256794 1.6815 0
M  V30 5490 O 514.519 0.460762 1.88655 0
M  V30 5491 C 511.649 1.22197 3.25093 0
M  V30 5492 C 510.603 2.32957 3.59047 0
M  V30 5493 C 509.929 2.01082 4.95449 0
M  V30 5494 C 511.229 3.75237 3.6331 0
M  V30 5495 H 512.923 2.3351 1.87386 0
M  V30 5496 H 510.469 1.12399 0.900134 0
M  V30 5497 H 512.422 1.21124 4.03617 0
M  V30 5498 H 511.146 0.243241 3.25693 0
M  V30 5499 H 509.805 2.33226 2.82845 0
M  V30 5500 H 509.453 1.01678 4.92616 0
M  V30 5501 H 509.153 2.75267 5.19136 0
M  V30 5502 H 510.677 2.01638 5.76346 0
M  V30 5503 H 512.091 3.76966 4.31937 0
M  V30 5504 H 510.488 4.48677 3.98509 0
M  V30 5505 H 511.558 4.07122 2.634 0
M  V30 5506 N 512.901 -0.976442 1.23707 0
M  V30 5507 C 513.864 -2.0511 1.02287 0
M  V30 5508 C 514.864 -1.60791 -0.0167195 0
M  V30 5509 O 516.054 -1.72761 0.223408 0
M  V30 5510 C 513.186 -3.36458 0.548507 0
M  V30 5511 H 514.379 -2.25545 1.9766 0
M  V30 5512 H 511.932 -1.15042 1.05806 0
M  V30 5513 H 512.667 -3.21713 -0.408818 0
M  V30 5514 H 512.452 -3.69967 1.29874 0
M  V30 5515 H 513.942 -4.15489 0.419406 0
M  V30 5516 N 514.379 -1.04941 -1.1758 0
M  V30 5517 C 515.625 -0.759112 -1.88057 0
M  V30 5518 C 515.958 0.711918 -1.8068 0
M  V30 5519 O 515.233 1.52035 -1.21308 0
M  V30 5520 C 515.516 -1.237 -3.38187 0
M  V30 5521 C 515.369 -2.77078 -3.54327 0
M  V30 5522 C 516.688 -0.834014 -4.32125 0
M  V30 5523 H 513.807 -0.277237 -0.682868 0
M  V30 5524 H 516.449 -1.30296 -1.38286 0
M  V30 5525 H 514.599 -0.774337 -3.80705 0
M  V30 5526 H 516.271 -3.31449 -3.20842 0
M  V30 5527 H 514.514 -3.16477 -2.96689 0
M  V30 5528 H 515.185 -3.05577 -4.59703 0
M  V30 5529 H 517.661 -1.23228 -3.97434 0
M  V30 5530 H 516.537 -1.19603 -5.35711 0
M  V30 5531 H 516.798 0.262195 -4.41322 0
M  V30 5532 N 515.857 1.33968 -0.830081 0
M  V30 5533 C 516.805 2.31301 -0.245435 0
M  V30 5534 C 517.799 1.57734 0.617762 0
M  V30 5535 O 519.005 1.72674 0.508303 0
M  V30 5536 H 515.38 0.749552 -0.0606316 0
M  V30 5537 H 517.351 2.78129 -1.08105 0
M  V30 5538 C 516.1 3.42961 0.572084 0
M  V30 5539 H 515.423 3.99714 -0.0828118 0
M  V30 5540 H 516.863 4.13286 0.94715 0
M  V30 5541 C 515.322 2.88043 1.74737 0
M  V30 5542 O 515.852 2.83508 2.8458 0
M  V30 5543 N 514.058 2.44768 1.56642 0
M  V30 5544 H 513.605 2.48656 0.672901 0
M  V30 5545 H 513.563 2.08375 2.3543 0
M  V30 5546 N 517.335 0.585699 1.46312 0
M  V30 5547 C 518.583 0.072278 2.01971 0
M  V30 5548 C 518.904 -1.29345 1.45928 0
M  V30 5549 O 518.174 -1.84973 0.645109 0
M  V30 5550 H 516.754 0.023729 0.746623 0
M  V30 5551 H 519.416 0.762155 1.7938 0
M  V30 5552 H 518.512 0.00552767 3.121 0
M  V30 5553 N 518.813 -1.54241 0.323641 0
M  V30 5554 C 519.76 -2.24339 -0.542277 0
M  V30 5555 C 520.73 -1.23421 -1.11159 0
M  V30 5556 O 521.915 -1.52104 -1.15192 0
M  V30 5557 C 519.055 -3.00479 -1.69725 0
M  V30 5558 C 518.168 -4.16214 -1.15716 0
M  V30 5559 C 517.303 -4.79884 -2.27783 0
M  V30 5560 C 516.342 -5.87722 -1.71023 0
M  V30 5561 N 515.479 -6.45254 -2.76752 0
M  V30 5562 H 520.319 -2.97935 0.0620613 0
M  V30 5563 H 517.856 -1.47039 0.0423993 0
M  V30 5564 H 519.814 -3.42869 -2.3769 0
M  V30 5565 H 518.444 -2.29217 -2.27288 0
M  V30 5566 H 517.496 -3.78605 -0.369063 0
M  V30 5567 H 518.808 -4.93838 -0.701832 0
M  V30 5568 H 517.962 -5.25243 -3.03651 0
M  V30 5569 H 516.701 -4.01641 -2.76652 0
M  V30 5570 H 515.706 -5.41765 -0.936518 0
M  V30 5571 H 516.931 -6.67863 -1.2303 0
M  V30 5572 H 514.877 -5.69884 -3.24912 0
M  V30 5573 H 514.794 -7.18292 -2.35782 0
M  V30 5574 H 516.062 -6.95269 -3.5245 0
M  V30 5575 N 520.291 -0.0518155 -1.57515 0
M  V30 5576 C 521.568 0.661727 -1.84067 0
M  V30 5577 C 521.948 1.88999 -0.940351 0
M  V30 5578 O 521.296 2.285 -0.00155404 0
M  V30 5579 C 521.506 1.01841 -3.3381 0
M  V30 5580 C 522.854 1.40043 -4.00841 0
M  V30 5581 O 523.878 1.11073 -3.38439 0
M  V30 5582 O 522.737 1.94111 -5.10865 0
M  V30 5583 H 519.831 0.326702 -0.759733 0
M  V30 5584 H 522.377 -0.0812277 -1.69505 0
M  V30 5585 H 521.149 0.145202 -3.91031 0
M  V30 5586 H 520.772 1.81879 -3.53562 0
M  V30 5587 N 521.769 1.56035 0.221574 0
M  V30 5588 C 523.015 1.79312 0.947372 0
M  V30 5589 C 523.348 0.621453 1.83988 0
M  V30 5590 O 522.623 -0.379287 1.90766 0
M  V30 5591 C 522.906 3.1267 1.78633 0
M  V30 5592 C 522.759 4.40284 0.920312 0
M  V30 5593 C 524.078 3.4247 2.7641 0
M  V30 5594 H 521.197 0.652328 0.342982 0
M  V30 5595 H 523.839 1.88765 0.216244 0
M  V30 5596 H 521.989 3.04741 2.40967 0
M  V30 5597 H 523.661 4.60232 0.313718 0
M  V30 5598 H 521.904 4.33212 0.225734 0
M  V30 5599 H 522.575 5.30033 1.54171 0
M  V30 5600 H 525.051 3.50526 2.24211 0
M  V30 5601 H 523.927 4.3695 3.32213 0
M  V30 5602 H 524.188 2.64635 3.54148 0
M  V30 5603 N 523.247 -0.488276 1.49845 0
M  V30 5604 C 524.496 -1.23826 1.59217 0
M  V30 5605 C 524.809 -1.93439 0.289966 0
M  V30 5606 O 526.015 -2.70229 0.262382 0
M  V30 5607 C 524.471 -2.24902 2.80976 0
M  V30 5608 C 524.079 -1.6117 4.18005 0
M  V30 5609 C 525.823 -3.00648 2.99685 0
M  V30 5610 C 523.73 -2.60431 5.3097 0
M  V30 5611 H 522.66 -0.465858 0.592868 0
M  V30 5612 H 525.311 -0.510645 1.76252 0
M  V30 5613 H 523.693 -3.0088 2.57463 0
M  V30 5614 H 524.867 -0.910968 4.51706 0
M  V30 5615 H 523.182 -0.97767 4.0476 0
M  V30 5616 H 525.779 -3.74903 3.81251 0
M  V30 5617 H 526.122 -3.5902 2.10738 0
M  V30 5618 H 526.655 -2.31784 3.23297 0
M  V30 5619 H 523.394 -2.06823 6.22017 0
M  V30 5620 H 522.914 -3.28707 5.01709 0
M  V30 5621 H 524.593 -3.22606 5.60834 0
M  V30 5622 N 524.725 -1.39134 -0.740242 0
M  V30 5623 C 525.635 -1.39697 -1.88473 0
M  V30 5624 C 526.651 -0.292403 -1.71526 0
M  V30 5625 O 527.827 -0.533021 -1.94219 0
M  V30 5626 C 524.892 -1.23382 -3.24003 0
M  V30 5627 C 523.953 -2.43763 -3.53381 0
M  V30 5628 C 523.186 -2.28216 -4.82445 0
M  V30 5629 O 523.409 -1.28288 -5.55786 0
M  V30 5630 O 522.343 -3.1709 -5.11603 0
M  V30 5631 H 526.169 -2.36159 -1.90952 0
M  V30 5632 H 523.754 -1.20194 -0.887346 0
M  V30 5633 H 525.636 -1.16395 -4.05006 0
M  V30 5634 H 524.311 -0.300121 -3.22306 0
M  V30 5635 H 523.218 -2.56325 -2.72485 0
M  V30 5636 H 524.551 -3.35808 -3.59852 0
M  V30 5637 N 526.204 0.969867 -1.24223 0
M  V30 5638 C 527.45 1.71582 -1.09231 0
M  V30 5639 C 527.805 1.88898 0.365432 0
M  V30 5640 O 527.098 1.43781 1.2664 0
M  V30 5641 C 527.292 3.10883 -1.76314 0
M  V30 5642 C 527.121 3.07155 -3.2846 0
M  V30 5643 C 525.891 3.11757 -3.97663 0
M  V30 5644 C 528.089 2.895 -4.25082 0
M  V30 5645 N 526.071 2.98025 -5.36707 0
M  V30 5646 C 527.442 2.84041 -5.51109 0
M  V30 5647 C 529.497 2.74064 -4.15684 0
M  V30 5648 C 528.2 2.64725 -6.68815 0
M  V30 5649 C 530.226 2.56115 -5.33066 0
M  V30 5650 C 529.588 2.51363 -6.58024 0
M  V30 5651 H 525.687 0.636496 -0.454309 0
M  V30 5652 H 528.271 1.15004 -1.57106 0
M  V30 5653 H 526.442 3.65657 -1.30955 0
M  V30 5654 H 528.174 3.74171 -1.54201 0
M  V30 5655 H 524.929 3.20352 -3.48814 0
M  V30 5656 H 525.353 2.94405 -6.09635 0
M  V30 5657 H 529.995 2.76521 -3.19837 0
M  V30 5658 H 527.713 2.61011 -7.64787 0
M  V30 5659 H 531.299 2.45119 -5.27644 0
M  V30 5660 H 530.179 2.37651 -7.47323 0
M  V30 5661 N 527.682 1.05563 1.17022 0
M  V30 5662 C 528.928 0.769074 1.87652 0
M  V30 5663 C 529.261 -0.702326 1.81055 0
M  V30 5664 O 528.536 -1.5139 1.22112 0
M  V30 5665 C 528.819 1.25492 3.37526 0
M  V30 5666 C 528.672 2.78953 3.52853 0
M  V30 5667 C 529.991 0.856919 4.31677 0
M  V30 5668 H 527.11 0.280854 0.681388 0
M  V30 5669 H 529.752 1.31027 1.37593 0
M  V30 5670 H 527.902 0.794516 3.80289 0
M  V30 5671 H 529.574 3.33146 3.19079 0
M  V30 5672 H 527.817 3.18046 2.95007 0
M  V30 5673 H 528.488 3.08011 4.58076 0
M  V30 5674 H 530.964 1.25334 3.96775 0
M  V30 5675 H 529.84 1.22443 5.35069 0
M  V30 5676 H 530.101 -0.238787 4.41455 0
M  V30 5677 N 529.16 -1.33526 0.837174 0
M  V30 5678 C 530.408 -1.97446 0.431211 0
M  V30 5679 C 530.729 -1.6665 -1.01255 0
M  V30 5680 O 529.999 -0.964559 -1.70508 0
M  V30 5681 H 528.579 -0.73043 0.156463 0
M  V30 5682 H 531.241 -1.62918 1.06976 0
M  V30 5683 H 530.337 -3.07001 0.561877 0
M  V30 5684 N 530.638 -0.59345 -1.46 0
M  V30 5685 C 531.585 0.133618 -2.30413 0
M  V30 5686 C 532.555 0.873736 -1.41262 0
M  V30 5687 O 533.74 0.862279 -1.70204 0
M  V30 5688 C 530.88 1.13434 -3.25924 0
M  V30 5689 C 529.993 0.39656 -4.30176 0
M  V30 5690 C 529.128 1.38575 -5.12806 0
M  V30 5691 C 528.167 0.634984 -6.08797 0
M  V30 5692 N 527.304 1.57276 -6.84258 0
M  V30 5693 H 532.144 -0.592252 -2.92055 0
M  V30 5694 H 529.681 -0.303874 -1.43927 0
M  V30 5695 H 531.639 1.72752 -3.79753 0
M  V30 5696 H 530.269 1.82779 -2.66067 0
M  V30 5697 H 529.321 -0.311861 -3.79119 0
M  V30 5698 H 530.633 -0.189869 -4.98438 0
M  V30 5699 H 529.787 2.05141 -5.70966 0
M  V30 5700 H 528.526 2.00611 -4.44529 0
M  V30 5701 H 527.531 -0.0443925 -5.49782 0
M  V30 5702 H 528.756 0.0198678 -6.79097 0
M  V30 5703 H 526.702 2.18103 -6.18682 0
M  V30 5704 H 526.619 1.03941 -7.48821 0
M  V30 5705 H 527.887 2.22844 -7.46968 0
M  V30 5706 N 532.116 1.54067 -0.331816 0
M  V30 5707 C 533.527 1.86059 0.15454 0
M  V30 5708 C 533.878 1.25331 1.50952 0
M  V30 5709 O 533.003 0.562441 2.08963 0
M  V30 5710 C 533.598 3.37581 0.287192 0
M  V30 5711 C 532.157 3.69493 0.717773 0
M  V30 5712 C 531.304 2.76863 -0.155569 0
M  V30 5713 H 534.255 1.48797 -0.55182 0
M  V30 5714 H 534.276 3.63744 1.11671 0
M  V30 5715 H 533.788 3.81751 -0.699131 0
M  V30 5716 H 531.889 3.3086 1.71354 0
M  V30 5717 H 532.002 4.76315 0.5158 0
M  V30 5718 H 530.366 2.51995 0.370213 0
M  V30 5719 H 531.149 3.23861 -1.13881 0
M  V30 5720 N 533.594 0.0601682 1.57485 0
M  V30 5721 C 534.557 -0.896373 2.10945 0
M  V30 5722 C 535.557 -1.23402 1.03095 0
M  V30 5723 O 536.747 -1.16921 1.29132 0
M  V30 5724 C 533.879 -2.20346 2.60116 0
M  V30 5725 H 535.072 -0.432778 2.96761 0
M  V30 5726 H 532.625 -0.188372 1.55161 0
M  V30 5727 H 533.36 -2.71268 1.7772 0
M  V30 5728 H 533.145 -1.9714 3.38937 0
M  V30 5729 H 534.635 -2.88846 3.01592 0
M  V30 5730 N 535.072 -1.5615 -0.213296 0
M  V30 5731 C 536.32 -1.79191 -0.934612 0
M  V30 5732 C 536.641 -0.630112 -1.84539 0
M  V30 5733 O 535.911 0.35257 -1.92701 0
M  V30 5734 H 534.491 -0.660937 -0.348097 0
M  V30 5735 H 537.153 -1.93618 -0.22317 0
M  V30 5736 H 536.249 -2.71656 -1.53654 0
M  V30 5737 N 536.55 0.480323 -1.50102 0
M  V30 5738 C 537.961 1.06142 -1.53593 0
M  V30 5739 C 538.312 1.93335 -0.334055 0
M  V30 5740 O 537.437 2.09188 0.55403 0
M  V30 5741 C 538.032 1.9317 -2.78336 0
M  V30 5742 C 536.591 2.46405 -2.84538 0
M  V30 5743 C 535.738 1.24521 -2.4777 0
M  V30 5744 H 538.689 0.26333 -1.565 0
M  V30 5745 H 538.71 2.78123 -2.59669 0
M  V30 5746 H 538.222 1.29683 -3.65792 0
M  V30 5747 H 536.323 3.13472 -2.01411 0
M  V30 5748 H 536.436 2.82143 -3.87211 0
M  V30 5749 H 534.8 1.57706 -2.00003 0
M  V30 5750 H 535.583 0.627102 -3.37524 0
M  V30 5751 N 538.028 1.39524 0.732853 0
M  V30 5752 C 539.274 1.38072 1.49358 0
M  V30 5753 C 539.629 -0.0227943 1.92386 0
M  V30 5754 O 538.922 -0.98976 1.64056 0
M  V30 5755 C 539.116 2.28916 2.74468 0
M  V30 5756 C 538.945 3.7796 2.43673 0
M  V30 5757 C 537.715 4.46874 2.35863 0
M  V30 5758 C 539.913 4.69886 2.09074 0
M  V30 5759 N 537.895 5.81242 1.97561 0
M  V30 5760 C 539.266 5.9292 1.81234 0
M  V30 5761 C 541.321 4.57887 1.95561 0
M  V30 5762 C 540.024 7.05297 1.41242 0
M  V30 5763 C 542.05 5.70187 1.56972 0
M  V30 5764 C 541.412 6.92297 1.30018 0
M  V30 5765 H 537.511 0.56051 0.5453 0
M  V30 5766 H 540.095 1.75093 0.85151 0
M  V30 5767 H 538.266 1.9405 3.36451 0
M  V30 5768 H 539.998 2.18441 3.40684 0
M  V30 5769 H 536.753 4.00341 2.5303 0
M  V30 5770 H 537.177 6.52356 1.80997 0
M  V30 5771 H 541.819 3.64014 2.15067 0
M  V30 5772 H 539.537 7.99069 1.20476 0
M  V30 5773 H 543.123 5.62892 1.47119 0
M  V30 5774 H 542.003 7.7772 1.00605 0
M  V30 5775 N 539.506 -0.963266 1.24736 0
M  V30 5776 C 540.752 -1.70933 1.09131 0
M  V30 5777 C 541.085 -1.90676 -0.368273 0
M  V30 5778 O 540.36 -1.47147 -1.27193 0
M  V30 5779 C 540.643 -3.09744 1.83658 0
M  V30 5780 C 540.496 -2.97465 3.37394 0
M  V30 5781 C 541.815 -4.09483 1.61282 0
M  V30 5782 H 538.934 -0.620398 0.397838 0
M  V30 5783 H 541.576 -1.12028 1.53459 0
M  V30 5784 H 539.726 -3.60031 1.4598 0
M  V30 5785 H 541.398 -2.54571 3.84696 0
M  V30 5786 H 539.641 -2.33576 3.65547 0
M  V30 5787 H 540.312 -3.95822 3.84745 0
M  V30 5788 H 542.788 -3.68073 1.94066 0
M  V30 5789 H 541.664 -5.04666 2.15878 0
M  V30 5790 H 541.925 -4.38639 0.552102 0
M  V30 5791 N 540.985 -1.06182 -1.16461 0
M  V30 5792 C 541.932 -0.671613 -2.20812 0
M  V30 5793 C 542.902 0.331186 -1.62765 0
M  V30 5794 O 544.087 0.22033 -1.89524 0
M  V30 5795 C 541.227 -0.063029 -3.45042 0
M  V30 5796 C 540.34 -1.11587 -4.1734 0
M  V30 5797 C 539.475 -0.473546 -5.29085 0
M  V30 5798 C 538.514 -1.51 -5.93182 0
M  V30 5799 N 537.651 -0.891118 -6.96422 0
M  V30 5800 H 542.491 -1.56589 -2.53542 0
M  V30 5801 H 540.028 -0.782951 -1.24532 0
M  V30 5802 H 541.986 0.307344 -4.16066 0
M  V30 5803 H 540.616 0.794663 -3.12866 0
M  V30 5804 H 539.668 -1.60396 -3.44931 0
M  V30 5805 H 540.98 -1.90221 -4.61104 0
M  V30 5806 H 540.134 -0.0501432 -6.06679 0
M  V30 5807 H 538.873 0.344687 -4.8648 0
M  V30 5808 H 537.878 -1.94331 -5.14311 0
M  V30 5809 H 539.103 -2.33031 -6.37866 0
M  V30 5810 H 537.049 -0.0935753 -6.55933 0
M  V30 5811 H 536.966 -1.61486 -7.38551 0
M  V30 5812 H 538.234 -0.492822 -7.77941 0
M  V30 5813 N 542.463 1.3308 -0.844243 0
M  V30 5814 C 543.373 2.32876 -0.283922 0
M  V30 5815 C 544.389 1.63589 0.592846 0
M  V30 5816 O 545.565 1.95205 0.495693 0
M  V30 5817 C 542.63 3.42667 0.527283 0
M  V30 5818 C 541.691 4.27664 -0.374394 0
M  V30 5819 C 540.924 5.32212 0.39819 0
M  V30 5820 O 541.147 5.46635 1.62932 0
M  V30 5821 O 540.081 6.01458 -0.2306 0
M  V30 5822 H 543.907 2.82671 -1.11045 0
M  V30 5823 H 541.492 1.36518 -0.606903 0
M  V30 5824 H 543.374 4.09652 0.988078 0
M  V30 5825 H 542.049 2.95079 1.33078 0
M  V30 5826 H 540.956 3.63526 -0.883144 0
M  V30 5827 H 542.289 4.78749 -1.1428 0
M  V30 5828 N 543.941 0.601185 1.45683 0
M  V30 5829 C 544.904 -0.111398 2.28929 0
M  V30 5830 C 545.904 -0.801246 1.39416 0
M  V30 5831 O 547.094 -0.650383 1.61603 0
M  V30 5832 C 544.226 -1.16773 3.20276 0
M  V30 5833 H 545.419 0.620412 2.93413 0
M  V30 5834 H 542.972 0.359946 1.52099 0
M  V30 5835 H 543.707 -1.93051 2.60579 0
M  V30 5836 H 543.492 -0.677358 3.86205 0
M  V30 5837 H 544.982 -1.66698 3.82886 0
M  V30 5838 N 545.419 -1.53889 0.339982 0
M  V30 5839 C 546.349 -2.27843 -0.510856 0
M  V30 5840 C 547.33 -1.29267 -1.10563 0
M  V30 5841 O 548.515 -1.58104 -1.12768 0
M  V30 5842 C 545.645 -3.04857 -1.66372 0
M  V30 5843 C 544.599 -4.10907 -1.19746 0
M  V30 5844 C 543.925 -4.75855 -2.43857 0
M  V30 5845 C 545.225 -5.21435 -0.300501 0
M  V30 5846 H 546.919 -2.99212 0.106067 0
M  V30 5847 H 544.465 -1.43904 0.0524533 0
M  V30 5848 H 546.418 -3.5533 -2.26537 0
M  V30 5849 H 545.142 -2.31133 -2.30749 0
M  V30 5850 H 543.801 -3.61342 -0.618654 0
M  V30 5851 H 543.449 -3.9873 -3.06633 0
M  V30 5852 H 543.149 -5.47502 -2.13343 0
M  V30 5853 H 544.673 -5.2911 -3.04754 0
M  V30 5854 H 546.087 -5.67565 -0.80889 0
M  V30 5855 H 544.484 -6.00036 -0.0874076 0
M  V30 5856 H 545.554 -4.80328 0.664321 0
M  V30 5857 N 546.897 -0.0685191 -1.57451 0
M  V30 5858 C 548.174 0.642167 -1.84758 0
M  V30 5859 C 548.554 1.87991 -0.960344 0
M  V30 5860 O 547.902 2.28485 -0.0257894 0
M  V30 5861 C 548.112 0.982946 -3.34872 0
M  V30 5862 C 549.46 1.35784 -4.02303 0
M  V30 5863 O 550.484 1.07477 -3.39598 0
M  V30 5864 O 549.343 1.88681 -5.12895 0
M  V30 5865 H 546.437 0.318625 -0.763156 0
M  V30 5866 H 548.983 -0.0992015 -1.6941 0
M  V30 5867 H 547.755 0.10372 -3.91163 0
M  V30 5868 H 547.378 1.78119 -3.55471 0
M  V30 5869 N 548.375 1.56261 0.205012 0
M  V30 5870 C 549.338 1.92908 1.23771 0
M  V30 5871 C 550.338 0.809208 1.38955 0
M  V30 5872 O 551.528 1.07676 1.36936 0
M  V30 5873 C 548.66 2.19442 2.60879 0
M  V30 5874 H 549.853 2.85287 0.924728 0
M  V30 5875 H 547.406 1.49798 0.446125 0
M  V30 5876 H 548.141 1.29668 2.97248 0
M  V30 5877 H 547.926 3.0104 2.51232 0
M  V30 5878 H 549.416 2.48833 3.35368 0
M  V30 5879 N 549.853 -0.472356 1.50355 0
M  V30 5880 C 551.102 -1.2213 1.60522 0
M  V30 5881 C 551.415 -1.9312 0.310466 0
M  V30 5882 O 552.621 -2.69936 0.291029 0
M  V30 5883 C 551.077 -2.21909 2.83345 0
M  V30 5884 C 550.685 -1.56727 4.19691 0
M  V30 5885 C 552.429 -2.97453 3.02856 0
M  V30 5886 C 550.336 -2.54785 5.33703 0
M  V30 5887 H 549.266 -0.459543 0.597776 0
M  V30 5888 H 551.917 -0.491922 1.76783 0
M  V30 5889 H 550.299 -2.98133 2.60639 0
M  V30 5890 H 551.473 -0.863007 4.52646 0
M  V30 5891 H 549.788 -0.934685 4.05774 0
M  V30 5892 H 552.385 -3.70838 3.85205 0
M  V30 5893 H 552.728 -3.56764 2.14534 0
M  V30 5894 H 553.261 -2.28342 3.25737 0
M  V30 5895 H 550 -2.00214 6.24175 0
M  V30 5896 H 549.52 -3.23367 5.05167 0
M  V30 5897 H 551.199 -3.16639 5.64224 0
M  V30 5898 N 551.331 -1.39911 -0.725443 0
M  V30 5899 C 552.577 -1.38862 -1.48624 0
M  V30 5900 C 552.932 0.0125913 -1.92396 0
M  V30 5901 O 552.225 0.981046 -1.64578 0
M  V30 5902 C 552.419 -2.30368 -2.7325 0
M  V30 5903 C 552.248 -3.79247 -2.41665 0
M  V30 5904 C 551.018 -4.48119 -2.3349 0
M  V30 5905 C 553.216 -4.70988 -2.06579 0
M  V30 5906 N 551.198 -5.82282 -1.94476 0
M  V30 5907 C 552.569 -5.93873 -1.78087 0
M  V30 5908 C 554.624 -4.58917 -1.9313 0
M  V30 5909 C 553.327 -7.06036 -1.37499 0
M  V30 5910 C 555.353 -5.71012 -1.53946 0
M  V30 5911 C 554.715 -6.92976 -1.26345 0
M  V30 5912 H 550.814 -0.563394 -0.54232 0
M  V30 5913 H 553.398 -1.75542 -0.842213 0
M  V30 5914 H 551.569 -1.95831 -3.35417 0
M  V30 5915 H 553.301 -2.20245 -3.39521 0
M  V30 5916 H 550.056 -4.01677 -2.50904 0
M  V30 5917 H 550.48 -6.53307 -1.77535 0
M  V30 5918 H 555.122 -3.65149 -2.13134 0
M  V30 5919 H 552.84 -7.99697 -1.16237 0
M  V30 5920 H 556.426 -5.63664 -1.44132 0
M  V30 5921 H 555.306 -7.78243 -0.964787 0
M  V30 5922 N 552.809 0.956637 -1.25245 0
M  V30 5923 C 554.225 1.22733 -1.02023 0
M  V30 5924 C 554.425 1.99761 0.264186 0
M  V30 5925 O 553.481 2.32814 0.977436 0
M  V30 5926 C 554.794 2.00367 -2.24217 0
M  V30 5927 C 556.342 2.13418 -2.28958 0
M  V30 5928 C 556.817 2.9445 -3.50803 0
M  V30 5929 N 558.308 3.02029 -3.51187 0
M  V30 5930 C 559.043 3.65116 -4.42129 0
M  V30 5931 N 558.539 4.2983 -5.43339 0
M  V30 5932 N 560.332 3.62237 -4.29815 0
M  V30 5933 H 552.483 0.441282 -2.07765 0
M  V30 5934 H 554.746 0.257686 -0.912306 0
M  V30 5935 H 554.452 1.51165 -3.17556 0
M  V30 5936 H 554.326 3.01077 -2.27228 0
M  V30 5937 H 556.713 2.61819 -1.36143 0
M  V30 5938 H 556.794 1.1202 -2.29968 0
M  V30 5939 H 556.438 2.46741 -4.43939 0
M  V30 5940 H 556.368 3.9607 -3.47039 0
M  V30 5941 H 558.859 2.56007 -2.77973 0
M  V30 5942 H 559.172 4.75819 -6.08947 0
M  V30 5943 H 557.517 4.28465 -5.47214 0
M  V30 5944 H 560.708 3.10863 -3.49974 0
M  V30 5945 H 560.881 4.11117 -5.00886 0
M  V30 5946 N 554.287 1.06798 1.15896 0
M  V30 5947 C 555.25 0.687328 2.18651 0
M  V30 5948 C 556.25 -0.269559 1.58524 0
M  V30 5949 O 557.44 -0.0512627 1.74125 0
M  V30 5950 C 554.572 0.0121642 3.40898 0
M  V30 5951 H 555.765 1.59701 2.53842 0
M  V30 5952 H 553.318 0.863828 1.3026 0
M  V30 5953 H 554.053 -0.910025 3.1127 0
M  V30 5954 H 553.838 0.700309 3.85795 0
M  V30 5955 H 555.328 -0.239703 4.16911 0
M  V30 5956 N 555.766 -1.3263 0.851289 0
M  V30 5957 C 557.012 -1.9766 0.453694 0
M  V30 5958 C 557.345 -1.67225 -0.987396 0
M  V30 5959 O 556.62 -0.958693 -1.69232 0
M  V30 5960 C 556.903 -3.5344 0.68936 0
M  V30 5961 C 556.756 -3.93517 2.17862 0
M  V30 5962 C 558.075 -4.39866 0.143555 0
M  V30 5963 H 555.194 -0.717989 0.166314 0
M  V30 5964 H 557.836 -1.57068 1.06909 0
M  V30 5965 H 555.986 -3.88147 0.165546 0
M  V30 5966 H 557.658 -3.69006 2.76826 0
M  V30 5967 H 555.901 -3.42798 2.65841 0
M  V30 5968 H 556.572 -5.02065 2.29422 0
M  V30 5969 H 559.048 -4.11875 0.591451 0
M  V30 5970 H 557.924 -5.47858 0.338043 0
M  V30 5971 H 558.185 -4.31696 -0.953466 0
M  V30 5972 N 557.244 -0.608902 -1.45362 0
M  V30 5973 C 558.49 -0.104762 -2.02529 0
M  V30 5974 C 558.823 1.26191 -1.47613 0
M  V30 5975 O 558.098 1.8327 -0.65134 0
M  V30 5976 C 558.381 -0.0672661 -3.60037 0
M  V30 5977 C 558.234 -1.4647 -4.25284 0
M  V30 5978 C 559.553 0.619877 -4.35713 0
M  V30 5979 H 556.672 -0.0395438 -0.735938 0
M  V30 5980 H 559.314 -0.781126 -1.73201 0
M  V30 5981 H 557.464 0.50871 -3.85155 0
M  V30 5982 H 559.136 -2.08785 -4.11347 0
M  V30 5983 H 557.379 -2.02502 -3.83634 0
M  V30 5984 H 558.05 -1.39069 -5.34195 0
M  V30 5985 H 560.526 0.130297 -4.15896 0
M  V30 5986 H 559.402 0.615224 -5.45441 0
M  V30 5987 H 559.663 1.68621 -4.0868 0
M  V30 5988 N 558.722 1.53707 -0.348139 0
M  V30 5989 C 559.67 2.26671 0.521808 0
M  V30 5990 C 560.664 1.28988 1.09811 0
M  V30 5991 O 561.87 1.4668 1.04332 0
M  V30 5992 H 558.245 0.728387 0.186968 0
M  V30 5993 H 560.216 2.98176 -0.115563 0
M  V30 5994 C 558.965 3.05591 1.6586 0
M  V30 5995 H 558.288 3.80589 1.22443 0
M  V30 5996 H 559.728 3.59851 2.24239 0
M  V30 5997 C 558.187 2.15366 2.59073 0
M  V30 5998 O 558.717 1.7528 3.61441 0
M  V30 5999 N 556.923 1.80352 2.27863 0
M  V30 6000 H 556.47 2.13149 1.44656 0
M  V30 6001 H 556.428 1.20268 2.90488 0
M  V30 6002 N 560.2 0.0768682 1.57412 0
M  V30 6003 C 561.448 -0.589918 1.93299 0
M  V30 6004 C 561.769 -1.69842 0.958049 0
M  V30 6005 O 561.039 -1.95899 0.00703261 0
M  V30 6006 H 559.619 -0.220901 0.713591 0
M  V30 6007 H 562.281 0.135917 1.94425 0
M  V30 6008 H 561.377 -1.01195 2.95239 0
M  V30 6009 N 561.678 -1.56367 -0.196722 0
M  V30 6010 C 562.588 -1.97617 -1.2643 0
M  V30 6011 C 563.604 -0.883598 -1.49895 0
M  V30 6012 O 564.78 -1.18921 -1.62541 0
M  V30 6013 C 561.845 -2.30595 -2.58895 0
M  V30 6014 C 560.906 -3.53551 -2.43516 0
M  V30 6015 C 560.139 -3.84946 -3.69665 0
M  V30 6016 O 560.362 -3.17655 -4.73763 0
M  V30 6017 O 559.296 -4.78379 -3.65291 0
M  V30 6018 H 563.122 -2.88648 -0.944233 0
M  V30 6019 H 560.707 -1.43901 -0.401592 0
M  V30 6020 H 562.589 -2.52889 -3.37083 0
M  V30 6021 H 561.264 -1.42732 -2.90533 0
M  V30 6022 H 560.171 -3.36507 -1.63445 0
M  V30 6023 H 561.504 -4.41875 -2.16812 0
M  V30 6024 N 563.156 0.464375 -1.50603 0
M  V30 6025 C 564.402 1.21776 -1.62168 0
M  V30 6026 C 564.735 1.91476 -0.324154 0
M  V30 6027 O 564.01 1.8242 0.674782 0
M  V30 6028 C 564.293 2.25614 -2.80661 0
M  V30 6029 C 564.146 1.60175 -4.20314 0
M  V30 6030 C 565.465 3.26862 -2.94702 0
M  V30 6031 H 562.584 0.44137 -0.590222 0
M  V30 6032 H 565.226 0.510623 -1.8301 0
M  V30 6033 H 563.376 2.85923 -2.63021 0
M  V30 6034 H 565.048 1.03411 -4.4956 0
M  V30 6035 H 563.291 0.904697 -4.24261 0
M  V30 6036 H 563.962 2.35665 -4.99165 0
M  V30 6037 H 566.438 2.76582 -3.10872 0
M  V30 6038 H 565.314 3.96839 -3.79223 0
M  V30 6039 H 565.575 3.91382 -2.05603 0
M  V30 6040 N 564.634 1.40294 0.718013 0
M  V30 6041 C 565.544 1.42678 1.86226 0
M  V30 6042 C 566.56 0.319655 1.71039 0
M  V30 6043 O 567.736 0.563852 1.93346 0
M  V30 6044 C 564.801 1.2852 3.21999 0
M  V30 6045 C 563.862 2.49354 3.49458 0
M  V30 6046 C 563.095 2.35863 4.78753 0
M  V30 6047 O 563.318 1.37114 5.53675 0
M  V30 6048 O 562.252 3.25189 5.06494 0
M  V30 6049 H 566.078 2.39167 1.87171 0
M  V30 6050 H 563.663 1.2159 0.868112 0
M  V30 6051 H 565.545 1.22824 4.03103 0
M  V30 6052 H 564.22 0.351359 3.21787 0
M  V30 6053 H 563.127 2.60628 2.68373 0
M  V30 6054 H 564.46 3.41491 3.54464 0
M  V30 6055 N 566.112 -0.949982 1.2575 0
M  V30 6056 C 567.06 -2.06869 1.06339 0
M  V30 6057 C 568.054 -1.69399 -0.00708901 0
M  V30 6058 O 569.26 -1.79383 0.148897 0
M  V30 6059 H 565.635 -0.677197 0.326969 0
M  V30 6060 H 567.606 -2.20396 2.01167 0
M  V30 6061 C 566.355 -3.40503 0.703769 0
M  V30 6062 H 565.678 -3.69807 1.51931 0
M  V30 6063 H 567.118 -4.19623 0.607677 0
M  V30 6064 C 565.577 -3.31685 -0.5905 0
M  V30 6065 O 566.107 -3.67085 -1.63131 0
M  V30 6066 N 564.313 -2.84797 -0.577859 0
M  V30 6067 H 563.86 -2.56186 0.26951 0
M  V30 6068 H 563.818 -2.79279 -1.44398 0
M  V30 6069 N 567.59 -1.07411 -1.15328 0
M  V30 6070 C 568.5 -0.706438 -2.23711 0
M  V30 6071 C 569.516 0.282586 -1.7169 0
M  V30 6072 O 570.692 0.129066 -2.00986 0
M  V30 6073 C 567.757 -0.11048 -3.46524 0
M  V30 6074 C 566.818 -1.15282 -4.13532 0
M  V30 6075 C 566.051 -0.585205 -5.30482 0
M  V30 6076 O 566.274 0.598549 -5.67251 0
M  V30 6077 O 565.208 -1.33039 -5.87013 0
M  V30 6078 H 569.034 -1.61031 -2.57493 0
M  V30 6079 H 566.619 -0.847113 -1.23062 0
M  V30 6080 H 568.501 0.21957 -4.20828 0
M  V30 6081 H 567.176 0.766703 -3.14489 0
M  V30 6082 H 566.083 -1.53523 -3.41147 0
M  V30 6083 H 567.416 -2.00192 -4.49649 0
M  V30 6084 N 569.068 1.32177 -0.85831 0
M  V30 6085 C 570.015 2.28794 -0.303607 0
M  V30 6086 C 570.985 1.55213 0.591453 0
M  V30 6087 O 572.17 1.83418 0.525585 0
M  V30 6088 C 569.31 3.41475 0.49889 0
M  V30 6089 C 568.423 4.2993 -0.422373 0
M  V30 6090 C 567.558 5.29743 0.393111 0
M  V30 6091 C 566.597 6.09842 -0.525317 0
M  V30 6092 N 565.734 7.01643 0.253208 0
M  V30 6093 H 570.574 2.75631 -1.13276 0
M  V30 6094 H 568.111 1.35606 -0.570026 0
M  V30 6095 H 570.069 4.05531 0.979826 0
M  V30 6096 H 568.699 2.95779 1.29284 0
M  V30 6097 H 567.751 3.66422 -1.02171 0
M  V30 6098 H 569.063 4.85899 -1.12709 0
M  V30 6099 H 568.217 5.9942 0.937056 0
M  V30 6100 H 566.956 4.744 1.13117 0
M  V30 6101 H 565.961 5.39066 -1.08112 0
M  V30 6102 H 567.186 6.6727 -1.26205 0
M  V30 6103 H 565.132 6.48725 0.974295 0
M  V30 6104 H 565.049 7.54981 -0.392398 0
M  V30 6105 H 566.317 7.756 0.778761 0
M  V30 6106 N 570.547 0.616602 1.45037 0
M  V30 6107 C 571.457 -0.0985401 2.34393 0
M  V30 6108 C 572.473 -0.850971 1.51771 0
M  V30 6109 O 573.649 -0.806521 1.84546 0
M  V30 6110 C 570.714 -1.07748 3.29532 0
M  V30 6111 C 569.775 -0.326022 4.2806 0
M  V30 6112 C 569.008 -1.25833 5.18654 0
M  V30 6113 O 569.231 -2.49652 5.12864 0
M  V30 6114 O 568.165 -0.750512 5.97203 0
M  V30 6115 H 571.991 0.636016 2.96966 0
M  V30 6116 H 569.576 0.376832 1.44569 0
M  V30 6117 H 571.458 -1.64107 3.88133 0
M  V30 6118 H 570.133 -1.79291 2.69512 0
M  V30 6119 H 569.04 0.280253 3.73049 0
M  V30 6120 H 570.373 0.349091 4.9096 0
M  V30 6121 N 572.025 -1.5352 0.356285 0
M  V30 6122 C 573.441 -1.59599 0.00485267 0
M  V30 6123 C 573.641 -1.37179 -1.47595 0
M  V30 6124 O 572.697 -1.17234 -2.23635 0
M  V30 6125 C 574.01 -2.97277 0.452454 0
M  V30 6126 C 575.558 -3.10357 0.405881 0
M  V30 6127 C 576.033 -4.50432 0.829148 0
M  V30 6128 N 577.524 -4.5652 0.783838 0
M  V30 6129 C 578.259 -5.63077 1.08315 0
M  V30 6130 N 577.755 -6.77429 1.45126 0
M  V30 6131 N 579.548 -5.53014 1.00655 0
M  V30 6132 H 571.699 -1.66346 1.32071 0
M  V30 6133 H 573.962 -0.77971 0.539218 0
M  V30 6134 H 573.668 -3.18792 1.48542 0
M  V30 6135 H 573.542 -3.76836 -0.165762 0
M  V30 6136 H 575.929 -2.88558 -0.617934 0
M  V30 6137 H 576.01 -2.32828 1.05947 0
M  V30 6138 H 575.654 -4.72968 1.85103 0
M  V30 6139 H 575.584 -5.26378 0.152906 0
M  V30 6140 H 578.075 -3.74408 0.512513 0
M  V30 6141 H 578.388 -7.54669 1.66415 0
M  V30 6142 H 576.733 -6.78844 1.48983 0
M  V30 6143 H 579.924 -4.62557 0.718215 0
M  V30 6144 H 580.097 -6.35964 1.24315 0
M  V30 6145 N 573.503 -0.0852151 -1.57369 0
M  V30 6146 C 574.752 0.580443 -1.93168 0
M  V30 6147 C 575.065 1.6995 -0.968319 0
M  V30 6148 O 576.271 2.42564 -1.21963 0
M  V30 6149 C 574.727 1.08386 -3.43192 0
M  V30 6150 C 574.335 -0.00491388 -4.48 0
M  V30 6151 C 576.079 1.72281 -3.87968 0
M  V30 6152 C 573.986 0.513299 -5.89168 0
M  V30 6153 H 572.916 0.22059 -0.72101 0
M  V30 6154 H 575.567 -0.159621 -1.82804 0
M  V30 6155 H 573.949 1.8773 -3.48674 0
M  V30 6156 H 575.123 -0.780032 -4.5415 0
M  V30 6157 H 573.438 -0.548453 -4.12772 0
M  V30 6158 H 576.035 2.12108 -4.9083 0
M  V30 6159 H 576.378 2.58811 -3.26071 0
M  V30 6160 H 576.911 0.995359 -3.85146 0
M  V30 6161 H 573.65 -0.315153 -6.54742 0
M  V30 6162 H 573.17 1.25564 -5.8651 0
M  V30 6163 H 574.849 0.985433 -6.39451 0
M  V30 6164 N 574.981 1.5647 0.188427 0
M  V30 6165 C 576.211 1.84863 0.922463 0
M  V30 6166 C 576.619 0.666413 1.77075 0
M  V30 6167 O 575.962 -0.374044 1.79852 0
M  V30 6168 C 576.024 3.07447 1.86324 0
M  V30 6169 C 575.688 4.41066 1.19625 0
M  V30 6170 C 576.685 5.16767 0.569946 0
M  V30 6171 C 574.37 4.87802 1.19811 0
M  V30 6172 C 576.364 6.37384 -0.045594 0
M  V30 6173 C 574.051 6.08353 0.57874 0
M  V30 6174 C 575.049 6.82987 -0.0420259 0
M  V30 6175 O 574.737 8.01254 -0.651675 0
M  V30 6176 H 574.469 0.61784 0.274316 0
M  V30 6177 H 577.023 2.04437 0.198613 0
M  V30 6178 H 575.253 2.83774 2.62696 0
M  V30 6179 H 576.942 3.2243 2.46564 0
M  V30 6180 H 577.708 4.81749 0.560601 0
M  V30 6181 H 573.587 4.29662 1.67069 0
M  V30 6182 H 577.131 6.95578 -0.530731 0
M  V30 6183 H 573.028 6.42838 0.58561 0
M  V30 6184 H 573.796 8.16655 -0.549236 0
M  V30 6185 N 576.459 -0.456382 1.50847 0
M  V30 6186 C 577.422 -1.53493 1.70213 0
M  V30 6187 C 578.422 -1.50264 0.572481 0
M  V30 6188 O 579.612 -1.52623 0.839751 0
M  V30 6189 C 576.744 -2.93091 1.741 0
M  V30 6190 H 577.937 -1.37633 2.66453 0
M  V30 6191 H 575.49 -0.683776 1.4055 0
M  V30 6192 H 576.225 -3.14378 0.796063 0
M  V30 6193 H 576.01 -2.9684 2.5618 0
M  V30 6194 H 577.5 -3.71368 1.90987 0
M  V30 6195 N 577.937 -1.40673 -0.710563 0
M  V30 6196 C 579.183 -1.4043 -1.47142 0
M  V30 6197 C 579.538 -0.00781557 -1.92398 0
M  V30 6198 O 578.831 0.963535 -1.6561 0
M  V30 6199 C 579.025 -2.33253 -2.70791 0
M  V30 6200 C 578.854 -3.81789 -2.37629 0
M  V30 6201 C 577.624 -4.5057 -2.28724 0
M  V30 6202 C 579.822 -4.73152 -2.01572 0
M  V30 6203 N 577.804 -5.84312 -1.88289 0
M  V30 6204 C 579.175 -5.95728 -1.71778 0
M  V30 6205 C 581.23 -4.6094 -1.88252 0
M  V30 6206 C 579.933 -7.07454 -1.30003 0
M  V30 6207 C 581.959 -5.72613 -1.47881 0
M  V30 6208 C 581.321 -6.94278 -1.18987 0
M  V30 6209 H 577.42 -0.569115 -0.536314 0
M  V30 6210 H 580.004 -1.76425 -0.823547 0
M  V30 6211 H 578.175 -1.99378 -3.33321 0
M  V30 6212 H 579.907 -2.23833 -3.37166 0
M  V30 6213 H 576.662 -4.04315 -2.46629 0
M  V30 6214 H 577.086 -6.55153 -1.70596 0
M  V30 6215 H 581.728 -3.67389 -2.09249 0
M  V30 6216 H 579.446 -8.00884 -1.07749 0
M  V30 6217 H 583.032 -5.65161 -1.38145 0
M  V30 6218 H 581.912 -7.79222 -0.88219 0
M  V30 6219 N 579.415 0.9433 -1.26252 0
M  V30 6220 C 580.345 2.05902 -1.10122 0
M  V30 6221 C 581.326 1.70099 -0.00700552 0
M  V30 6222 O 582.511 1.93377 -0.178641 0
M  V30 6223 C 579.641 3.39516 -0.731175 0
M  V30 6224 C 578.595 3.89372 -1.77688 0
M  V30 6225 C 577.921 5.19613 -1.26122 0
M  V30 6226 C 579.221 4.14489 -3.17799 0
M  V30 6227 H 580.915 2.19655 -2.03451 0
M  V30 6228 H 578.461 1.05548 -0.979576 0
M  V30 6229 H 580.414 4.17031 -0.605215 0
M  V30 6230 H 579.138 3.25733 0.23782 0
M  V30 6231 H 577.797 3.14036 -1.89148 0
M  V30 6232 H 577.445 5.02208 -0.282128 0
M  V30 6233 H 577.145 5.53939 -1.96023 0
M  V30 6234 H 578.669 5.99713 -1.14789 0
M  V30 6235 H 580.083 4.82625 -3.09428 0
M  V30 6236 H 578.48 4.60094 -3.85271 0
M  V30 6237 H 579.55 3.20347 -3.64014 0
M  V30 6238 N 580.893 1.08022 1.14757 0
M  V30 6239 C 581.826 0.650738 2.18725 0
M  V30 6240 C 582.804 -0.335496 1.59101 0
M  V30 6241 O 583.988 -0.240295 1.86962 0
M  V30 6242 C 581.115 -0.0434377 3.38672 0
M  V30 6243 C 580.161 0.90232 4.16846 0
M  V30 6244 S 580.994 2.40693 4.78359 0
M  V30 6245 C 582.15 1.72475 6.01667 0
M  V30 6246 H 582.383 1.53152 2.54817 0
M  V30 6247 H 579.916 0.894823 1.25826 0
M  V30 6248 H 581.874 -0.437684 4.0816 0
M  V30 6249 H 580.535 -0.900659 3.0091 0
M  V30 6250 H 579.728 0.363445 5.02688 0
M  V30 6251 H 579.33 1.23728 3.52941 0
M  V30 6252 H 581.622 1.0404 6.69464 0
M  V30 6253 H 582.565 2.56175 6.60136 0
M  V30 6254 H 582.973 1.19979 5.51602 0
M  V30 6255 N 582.371 -1.3172 0.865308 0
M  V30 6256 C 583.281 -2.32394 0.320935 0
M  V30 6257 C 584.297 -1.64511 -0.566746 0
M  V30 6258 O 585.473 -1.95969 -0.464575 0
M  V30 6259 C 582.538 -3.43462 -0.472701 0
M  V30 6260 C 581.599 -4.27015 0.442385 0
M  V30 6261 C 580.832 -5.32779 -0.313469 0
M  V30 6262 O 581.055 -5.49158 -1.54214 0
M  V30 6263 O 579.989 -6.01015 0.326257 0
M  V30 6264 H 583.815 -2.80868 1.15528 0
M  V30 6265 H 581.4 -1.35535 0.628545 0
M  V30 6266 H 583.282 -4.11172 -0.922781 0
M  V30 6267 H 581.957 -2.97159 -1.28367 0
M  V30 6268 H 580.864 -3.62075 0.940866 0
M  V30 6269 H 582.197 -4.76871 1.21882 0
M  V30 6270 N 583.85 -0.624285 -1.44708 0
M  V30 6271 C 585.266 -0.289322 -1.56956 0
M  V30 6272 C 585.466 1.20773 -1.61295 0
M  V30 6273 O 584.522 1.9915 -1.55227 0
M  V30 6274 C 585.835 -0.975215 -2.84447 0
M  V30 6275 C 587.383 -0.952709 -2.98148 0
M  V30 6276 C 587.858 -1.61893 -4.28433 0
M  V30 6277 N 589.349 -1.5852 -4.35231 0
M  V30 6278 C 590.084 -2.06969 -5.34744 0
M  V30 6279 N 589.58 -2.63579 -6.40701 0
M  V30 6280 N 591.373 -1.97638 -5.26209 0
M  V30 6281 H 583.524 -1.59612 -1.40135 0
M  V30 6282 H 585.787 -0.669592 -0.671081 0
M  V30 6283 H 585.493 -2.02999 -2.87201 0
M  V30 6284 H 585.367 -0.508749 -3.73753 0
M  V30 6285 H 587.754 0.093568 -2.94952 0
M  V30 6286 H 587.835 -1.4576 -2.10209 0
M  V30 6287 H 587.479 -2.66463 -4.32389 0
M  V30 6288 H 587.409 -1.08893 -5.15218 0
M  V30 6289 H 589.899 -1.17183 -3.59272 0
M  V30 6290 H 590.213 -2.98298 -7.12908 0
M  V30 6291 H 588.558 -2.67626 -6.41406 0
M  V30 6292 H 591.749 -1.5314 -4.42341 0
M  V30 6293 H 591.922 -2.35708 -6.03611 0
M  V30 6294 N 585.328 1.53329 -0.364422 0
M  V30 6295 C 586.276 2.27212 0.497737 0
M  V30 6296 C 587.27 1.30146 1.08437 0
M  V30 6297 O 588.476 1.47778 1.0277 0
M  V30 6298 H 584.851 0.730329 0.179232 0
M  V30 6299 H 586.822 2.98037 -0.147182 0
M  V30 6300 C 585.571 3.07333 1.6261 0
M  V30 6301 H 584.894 3.81866 1.184 0
M  V30 6302 H 586.334 3.62209 2.20409 0
M  V30 6303 C 584.793 2.18102 2.56775 0
M  V30 6304 O 585.323 1.79104 3.59562 0
M  V30 6305 N 583.529 1.82759 2.25937 0
M  V30 6306 H 583.076 2.14671 1.42387 0
M  V30 6307 H 583.034 1.23342 2.89196 0
M  V30 6308 N 586.806 0.0935595 1.57322 0
M  V30 6309 C 588.222 -0.263091 1.57417 0
M  V30 6310 C 588.422 -1.68526 1.1046 0
M  V30 6311 O 587.478 -2.40139 0.780357 0
M  V30 6312 C 588.791 -0.0529201 3.00653 0
M  V30 6313 C 590.339 -0.120788 3.12767 0
M  V30 6314 C 590.814 0.0613707 4.57959 0
M  V30 6315 N 592.305 0.00648534 4.632 0
M  V30 6316 C 593.04 0.122699 5.73269 0
M  V30 6317 N 592.536 0.29366 6.92177 0
M  V30 6318 N 594.329 0.0640787 5.62063 0
M  V30 6319 H 586.48 1.02277 1.86154 0
M  V30 6320 H 588.743 0.4007 0.859153 0
M  V30 6321 H 588.449 0.929279 3.39201 0
M  V30 6322 H 588.323 -0.795899 3.68708 0
M  V30 6323 H 590.71 -1.09349 2.74093 0
M  V30 6324 H 590.791 0.653656 2.47307 0
M  V30 6325 H 590.435 1.03093 4.97327 0
M  V30 6326 H 590.365 -0.732748 5.21477 0
M  V30 6327 H 592.856 -0.123173 3.77699 0
M  V30 6328 H 593.169 0.37389 7.71895 0
M  V30 6329 H 591.514 0.329307 6.94219 0
M  V30 6330 H 594.705 -0.0683396 4.6805 0
M  V30 6331 H 594.878 0.158097 6.47807 0
M  V30 6332 N 588.284 -1.56567 -0.180126 0
M  V30 6333 C 589.512 -1.85618 -0.913972 0
M  V30 6334 C 589.927 -0.677892 -1.7621 0
M  V30 6335 O 589.284 0.353171 -1.7905 0
M  V30 6336 C 589.335 -3.13619 -1.79793 0
M  V30 6337 O 589.056 -4.26906 -0.98402 0
M  V30 6338 C 590.557 -3.55954 -2.64219 0
M  V30 6339 H 587.777 -0.616043 -0.265954 0
M  V30 6340 H 590.321 -2.03681 -0.182872 0
M  V30 6341 H 588.476 -2.97409 -2.48247 0
M  V30 6342 H 588.89 -4.9989 -1.58776 0
M  V30 6343 H 590.364 -4.48444 -3.21873 0
M  V30 6344 H 590.841 -2.79653 -3.38661 0
M  V30 6345 H 591.447 -3.74746 -2.01111 0
M  V30 6346 N 589.762 0.448376 -1.51087 0
M  V30 6347 C 591.178 0.783984 -1.39017 0
M  V30 6348 C 591.378 1.96087 -0.463904 0
M  V30 6349 O 590.434 2.52357 0.0850534 0
M  V30 6350 C 591.747 1.07471 -2.80839 0
M  V30 6351 C 593.295 1.17981 -2.89913 0
M  V30 6352 C 593.77 1.50354 -4.32617 0
M  V30 6353 N 595.261 1.57301 -4.35673 0
M  V30 6354 C 595.996 1.839 -5.4311 0
M  V30 6355 N 595.492 2.08365 -6.60724 0
M  V30 6356 N 597.285 1.8559 -5.30578 0
M  V30 6357 H 589.436 -0.326881 -2.0987 0
M  V30 6358 H 591.699 -0.0838006 -0.944289 0
M  V30 6359 H 591.405 0.282768 -3.50561 0
M  V30 6360 H 591.279 2.00519 -3.19487 0
M  V30 6361 H 593.666 1.9624 -2.20395 0
M  V30 6362 H 593.747 0.228603 -2.54776 0
M  V30 6363 H 593.391 0.726273 -5.0268 0
M  V30 6364 H 593.321 2.46663 -4.65258 0
M  V30 6365 H 595.812 1.40342 -3.50874 0
M  V30 6366 H 596.125 2.27999 -7.38401 0
M  V30 6367 H 594.47 2.0571 -6.63859 0
M  V30 6368 H 597.661 1.65989 -4.37682 0
M  V30 6369 H 597.834 2.05983 -6.1439 0
M  V30 6370 N 591.24 1.41047 0.703093 0
M  V30 6371 C 592.15 1.44645 1.84703 0
M  V30 6372 C 593.166 0.337778 1.7069 0
M  V30 6373 O 594.342 0.584327 1.92737 0
M  V30 6374 C 591.407 1.31928 3.20618 0
M  V30 6375 C 590.468 2.53047 3.46794 0
M  V30 6376 C 589.701 2.40927 4.76224 0
M  V30 6377 O 589.924 1.42978 5.5219 0
M  V30 6378 O 588.858 3.30543 5.03016 0
M  V30 6379 H 592.684 2.41139 1.84624 0
M  V30 6380 H 590.269 1.22504 0.855167 0
M  V30 6381 H 592.151 1.27092 4.01778 0
M  V30 6382 H 590.826 0.385469 3.21397 0
M  V30 6383 H 589.733 2.6346 2.65593 0
M  V30 6384 H 591.066 3.45231 3.50822 0
M  V30 6385 N 592.718 -0.936591 1.26751 0
M  V30 6386 C 593.665 -2.03597 1.08706 0
M  V30 6387 C 594.635 -1.66097 -0.00926542 0
M  V30 6388 O 595.82 -1.90199 0.151377 0
M  V30 6389 C 592.96 -3.3727 0.73094 0
M  V30 6390 C 592.073 -3.87778 1.90399 0
M  V30 6391 C 591.208 -5.09859 1.49056 0
M  V30 6392 C 590.247 -5.5264 2.63164 0
M  V30 6393 N 589.384 -6.65921 2.22471 0
M  V30 6394 H 594.224 -2.18364 2.02784 0
M  V30 6395 H 591.761 -1.06985 1.00958 0
M  V30 6396 H 593.719 -4.14128 0.505328 0
M  V30 6397 H 592.349 -3.22337 -0.172868 0
M  V30 6398 H 591.401 -3.07279 2.2424 0
M  V30 6399 H 592.713 -4.15464 2.76028 0
M  V30 6400 H 591.867 -5.9419 1.22567 0
M  V30 6401 H 590.606 -4.8393 0.60524 0
M  V30 6402 H 589.611 -4.66863 2.90377 0
M  V30 6403 H 590.836 -5.80568 3.52303 0
M  V30 6404 H 588.782 -6.41667 1.36379 0
M  V30 6405 H 588.699 -6.93216 3.01641 0
M  V30 6406 H 589.967 -7.53616 1.99205 0
M  V30 6407 N 594.196 -1.08629 -1.14182 0
M  V30 6408 C 595.144 -0.71284 -2.21408 0
M  V30 6409 C 596.138 0.282457 -1.67029 0
M  V30 6410 O 597.344 0.144783 -1.79417 0
M  V30 6411 H 593.719 -0.212497 -0.721352 0
M  V30 6412 H 595.69 -1.6265 -2.50175 0
M  V30 6413 C 594.439 -0.140704 -3.47415 0
M  V30 6414 H 593.762 -0.897739 -3.8959 0
M  V30 6415 H 595.202 0.0827677 -4.23919 0
M  V30 6416 C 593.661 1.122 -3.17668 0
M  V30 6417 O 594.191 2.20652 -3.35672 0
M  V30 6418 N 592.397 1.03328 -2.71609 0
M  V30 6419 H 591.944 0.150666 -2.57159 0
M  V30 6420 H 591.902 1.8789 -2.52081 0
M  V30 6421 N 595.674 1.31259 -0.872281 0
M  V30 6422 C 596.914 1.98418 -0.490894 0
M  V30 6423 C 597.278 1.67429 0.939755 0
M  V30 6424 O 598.479 2.27818 1.42661 0
M  V30 6425 C 596.75 3.49583 -0.743408 0
M  V30 6426 S 598.309 4.36359 -0.462226 0
M  V30 6427 H 595.127 0.687005 -0.183151 0
M  V30 6428 H 597.729 1.59619 -1.12881 0
M  V30 6429 H 596.433 3.69627 -1.78338 0
M  V30 6430 H 595.964 3.93291 -0.0925758 0
M  V30 6431 H 597.979 4.91173 0.704525 0
M  V30 6432 O 597.191 0.771905 1.41859 0
M  V30 6433 H 597.882 0.335971 1.90764 0
M  V30 END ATOM
M  V30 BEGIN BOND
M  V30 END BOND
M  V30 END CTAB
M  END
$$$$
