drugbank_target|Q7SIE2 Endo-1,4-beta-xylanase (DB03088; DB03389)
 OpenBabel12092120263D

  0  0  0     0  0            999 V3000
M  V30 BEGIN CTAB
M  V30 COUNTS 3208 3252 0 0 0
M  V30 BEGIN ATOM
M  V30 1 H -0.908 1.98254 -0.117106 0
M  V30 2 N 0 1.576 0 0
M  V30 3 C 0.932 2.05273 1.01958 0
M  V30 4 C 1.945 0.970662 1.30698 0
M  V30 5 O 3.134 1.24746 1.27674 0
M  V30 6 C 0.234 2.43771 2.35433 0
M  V30 7 C -0.593 3.74711 2.25633 0
M  V30 8 C -1.534 4.00077 3.41796 0
M  V30 9 O -2.508 4.70743 3.19984 0
M  V30 10 N -1.306 3.47973 4.64645 0
M  V30 11 H 1.459 2.93363 0.613025 0
M  V30 12 H -0.98 1.60812 0.187383 0
M  V30 13 H 1.012 2.57855 3.11918 0
M  V30 14 H -0.418 1.612 2.67831 0
M  V30 15 H -1.198 3.70705 1.34059 0
M  V30 16 H 0.09 4.60554 2.16258 0
M  V30 17 H -0.512 2.90748 4.85265 0
M  V30 18 H -1.955 3.67386 5.38396 0
M  V30 19 N 1.4781 -0.272755 1.55222 0
M  V30 20 C 2.7271 -1.00211 1.75045 0
M  V30 21 C 3.0401 -1.87441 0.559046 0
M  V30 22 O 4.2461 -2.63856 0.639698 0
M  V30 23 C 2.7021 -1.83165 3.09804 0
M  V30 24 C 2.3101 -1.008 4.36513 0
M  V30 25 C 4.0541 -2.55529 3.38977 0
M  V30 26 C 1.9611 -1.83194 5.62311 0
M  V30 27 H 0.8911 -0.377878 0.652476 0
M  V30 28 H 3.5421 -0.257776 1.8168 0
M  V30 29 H 1.9241 -2.61694 2.97207 0
M  V30 30 H 3.0981 -0.266855 4.60027 0
M  V30 31 H 1.4131 -0.398897 4.14485 0
M  V30 32 H 4.0101 -3.17578 4.30172 0
M  V30 33 H 4.3531 -3.25825 2.59121 0
M  V30 34 H 4.8861 -1.84029 3.52673 0
M  V30 35 H 1.6251 -1.17318 6.44916 0
M  V30 36 H 1.1451 -2.54905 5.4294 0
M  V30 37 H 2.8241 -2.40552 6.00619 0
M  V30 38 N 2.9562 -1.48159 -0.537278 0
M  V30 39 C 4.2022 -1.56035 -1.29541 0
M  V30 40 C 4.5352 -0.230377 -1.92829 0
M  V30 41 O 3.8102 0.762952 -1.78911 0
M  V30 42 C 4.0932 -2.69323 -2.39034 0
M  V30 43 C 3.9462 -4.12002 -1.80485 0
M  V30 44 C 5.2652 -2.78408 -3.40847 0
M  V30 45 H 2.3842 -0.567992 -0.469632 0
M  V30 46 H 5.0262 -1.80302 -0.599277 0
M  V30 47 H 3.1762 -2.48763 -2.98412 0
M  V30 48 H 4.8482 -4.43981 -1.25215 0
M  V30 49 H 3.0912 -4.19344 -1.11055 0
M  V30 50 H 3.7622 -4.87077 -2.59731 0
M  V30 51 H 6.2382 -2.97012 -2.91416 0
M  V30 52 H 5.1142 -3.59416 -4.14863 0
M  V30 53 H 5.3752 -1.86269 -4.00944 0
M  V30 54 N 4.4343 0.785586 -1.36625 0
M  V30 55 C 5.6623 1.57448 -1.3423 0
M  V30 56 C 6.0773 1.88649 0.0755653 0
M  V30 57 O 5.4343 1.50414 1.03354 0
M  V30 58 C 5.4853 2.89316 -2.16745 0
M  V30 59 O 5.2063 2.59459 -3.53005 0
M  V30 60 C 6.7073 3.83606 -2.22174 0
M  V30 61 H 3.9273 0.488226 -0.4603 0
M  V30 62 H 6.4713 0.974733 -1.79775 0
M  V30 63 H 4.6263 3.4575 -1.74745 0
M  V30 64 H 5.0403 3.43804 -3.96105 0
M  V30 65 H 6.5143 4.73181 -2.8426 0
M  V30 66 H 6.9913 4.21734 -1.22627 0
M  V30 67 H 7.5973 3.33104 -2.64427 0
M  V30 68 N 5.9124 1.20967 1.01018 0
M  V30 69 C 7.1894 0.93264 1.71934 0
M  V30 70 C 7.5694 -0.55692 2.03621 0
M  V30 71 O 6.9174 -1.52035 1.7058 0
M  V30 72 C 7.1274 1.81233 2.98254 0
M  V30 73 C 8.4754 2.05804 3.71389 0
M  V30 74 O 9.4994 1.78539 3.08225 0
M  V30 75 O 8.3584 2.51888 4.84989 0
M  V30 76 H 5.4524 0.349272 0.749625 0
M  V30 77 H 7.9984 1.31871 1.06808 0
M  V30 78 H 6.7704 2.82067 2.71208 0
M  V30 79 H 6.3934 1.42674 3.7112 0
M  V30 80 N 7.3905 -1.2043 1.01659 0
M  V30 81 C 8.3385 -2.25249 0.580143 0
M  V30 82 C 9.3325 -1.65057 -0.381115 0
M  V30 83 O 10.5385 -1.78241 -0.251039 0
M  V30 84 H 6.9135 -0.732695 0.169299 0
M  V30 85 H 8.8845 -2.59389 1.47512 0
M  V30 86 C 7.6335 -3.47638 -0.065788 0
M  V30 87 H 6.9565 -3.94233 0.664874 0
M  V30 88 H 8.3965 -4.2268 -0.334282 0
M  V30 89 C 6.8555 -3.10447 -1.3086 0
M  V30 90 O 7.3855 -3.21981 -2.4019 0
M  V30 91 N 5.5915 -2.64996 -1.1927 0
M  V30 92 H 5.1385 -2.55811 -0.303064 0
M  V30 93 H 5.0965 -2.40482 -2.02523 0
M  V30 94 N 8.8686 -0.792821 -1.36206 0
M  V30 95 C 10.0936 -0.377701 -2.03932 0
M  V30 96 C 10.5186 0.998947 -1.59382 0
M  V30 97 O 9.8766 1.64421 -0.763903 0
M  V30 98 C 9.9246 -0.453635 -3.57735 0
M  V30 99 O 9.0286 0.538151 -4.08874 0
M  V30 100 H 8.3696 -0.159855 -0.644471 0
M  V30 101 H 10.8996 -1.07488 -1.7409 0
M  V30 102 H 10.9096 -0.318464 -4.06755 0
M  V30 103 H 9.5846 -1.45784 -3.89512 0
M  V30 104 H 8.1616 0.364359 -3.71116 0
M  V30 105 N 10.3467 1.47872 -0.545128 0
M  V30 106 C 11.5957 2.01695 -0.0145033 0
M  V30 107 C 11.9087 1.42609 1.33873 0
M  V30 108 O 13.1147 1.88021 1.95858 0
M  V30 109 C 11.5707 3.59892 0.0245068 0
M  V30 110 C 11.1787 4.27966 -1.32475 0
M  V30 111 C 12.9227 4.21507 0.50316 0
M  V30 112 C 10.8297 5.78136 -1.2455 0
M  V30 113 H 9.7597 0.753998 -0.00165172 0
M  V30 114 H 12.4107 1.69985 -0.691175 0
M  V30 115 H 10.7927 3.88509 0.766575 0
M  V30 116 H 11.9667 4.11003 -2.08357 0
M  V30 117 H 10.2817 3.78286 -1.74036 0
M  V30 118 H 12.8787 5.31538 0.580656 0
M  V30 119 H 13.2217 3.87855 1.51243 0
M  V30 120 H 13.7547 3.97376 -0.183681 0
M  V30 121 H 10.4937 6.16388 -2.23039 0
M  V30 122 H 10.0137 5.97469 -0.528282 0
M  V30 123 H 11.6927 6.40099 -0.942488 0
M  V30 124 N 11.8248 0.280983 1.55075 0
M  V30 125 C 13.0728 -0.333455 1.9933 0
M  V30 126 C 13.3938 -1.55937 1.17085 0
M  V30 127 O 12.6638 -1.94143 0.261805 0
M  V30 128 H 11.2438 -0.126197 0.736263 0
M  V30 129 H 13.9058 0.387678 1.91005 0
M  V30 130 H 13.0018 -0.619292 3.05894 0
M  V30 131 N 13.3029 -1.57598 0.00835791 0
M  V30 132 C 14.2509 -2.10078 -0.998508 0
M  V30 133 C 15.2449 -1.02262 -1.35051 0
M  V30 134 O 16.4509 -1.20719 -1.33518 0
M  V30 135 H 12.8259 -0.670903 -0.339696 0
M  V30 136 H 14.7969 -2.93648 -0.530398 0
M  V30 137 C 13.5459 -2.62615 -2.27879 0
M  V30 138 H 12.8689 -3.45213 -2.01662 0
M  V30 139 H 14.3089 -3.03004 -2.96588 0
M  V30 140 C 12.7679 -1.54407 -2.99433 0
M  V30 141 O 13.2979 -0.931812 -3.90743 0
M  V30 142 N 11.5039 -1.2695 -2.61404 0
M  V30 143 H 11.0509 -1.76924 -1.87232 0
M  V30 144 H 11.0089 -0.547704 -3.09593 0
M  V30 145 N 14.781 0.264519 -1.55364 0
M  V30 146 C 15.731 1.32966 -1.85214 0
M  V30 147 C 16.715 1.44306 -0.711653 0
M  V30 148 O 17.907 1.47844 -0.973192 0
M  V30 149 C 15.036 2.68839 -2.13495 0
M  V30 150 C 14.122 2.61575 -3.33825 0
M  V30 151 N 14.513 2.23933 -4.53528 0
M  V30 152 C 12.811 2.92621 -3.36584 0
M  V30 153 C 13.512 2.26868 -5.35636 0
M  V30 154 N 12.488 2.65677 -4.74254 0
M  V30 155 H 16.29 1.02884 -2.75304 0
M  V30 156 H 13.804 0.473157 -1.55354 0
M  V30 157 H 15.801 3.45685 -2.33039 0
M  V30 158 H 14.461 2.99802 -1.24694 0
M  V30 159 H 15.472 1.95769 -4.79474 0
M  V30 160 H 12.149 3.2824 -2.58002 0
M  V30 161 H 13.539 2.00254 -6.41364 0
M  V30 162 N 16.2591 1.48442 0.529413 0
M  V30 163 C 17.5361 1.46978 1.29062 0
M  V30 164 C 17.9161 0.181769 2.10316 0
M  V30 165 O 17.2641 -0.836481 2.12639 0
M  V30 166 C 17.4741 2.7321 2.17157 0
M  V30 167 C 18.8221 3.21562 2.77278 0
M  V30 168 O 19.8461 2.74131 2.27444 0
M  V30 169 O 18.7051 4.04094 3.67927 0
M  V30 170 H 15.7991 0.587003 0.582543 0
M  V30 171 H 18.3451 1.60676 0.546021 0
M  V30 172 H 17.1171 3.58465 1.56903 0
M  V30 173 H 16.7401 2.62235 2.98862 0
M  V30 174 N 17.7372 -0.778329 1.37039 0
M  V30 175 C 18.9852 -1.53361 1.31623 0
M  V30 176 C 19.3062 -1.94739 -0.100831 0
M  V30 177 O 18.5762 -1.65797 -1.04347 0
M  V30 178 H 17.1562 -0.568794 0.484234 0
M  V30 179 H 19.8182 -0.926742 1.71457 0
M  V30 180 H 18.9142 -2.43606 1.95096 0
M  V30 181 N 19.2153 -1.21501 -1.00376 0
M  V30 182 C 20.4453 -1.05746 -1.77486 0
M  V30 183 C 20.8533 0.395655 -1.85017 0
M  V30 184 O 20.1963 1.28626 -1.31152 0
M  V30 185 C 20.2583 -1.58092 -3.22873 0
M  V30 186 C 19.9223 -3.06568 -3.38917 0
M  V30 187 C 20.9193 -4.04106 -3.271 0
M  V30 188 C 18.6043 -3.45799 -3.64319 0
M  V30 189 C 20.5983 -5.38862 -3.40451 0
M  V30 190 C 18.2853 -4.80707 -3.77311 0
M  V30 191 C 19.2833 -5.77047 -3.65384 0
M  V30 192 O 18.9713 -7.09507 -3.77961 0
M  V30 193 H 18.7033 -0.371778 -0.564586 0
M  V30 194 H 21.2573 -1.61319 -1.27143 0
M  V30 195 H 19.4873 -0.969163 -3.74358 0
M  V30 196 H 21.1763 -1.38162 -3.81662 0
M  V30 197 H 21.9423 -3.75141 -3.07399 0
M  V30 198 H 17.8213 -2.71344 -3.72684 0
M  V30 199 H 21.3653 -6.14041 -3.31058 0
M  V30 200 H 17.2623 -5.09357 -3.96517 0
M  V30 201 H 18.0303 -7.16935 -3.94901 0
M  V30 202 N 20.6934 1.19889 -1.02296 0
M  V30 203 C 21.9704 1.85148 -0.630832 0
M  V30 204 C 22.3504 1.91385 0.890782 0
M  V30 205 O 21.6984 1.42642 1.78509 0
M  V30 206 C 21.9084 3.24442 -1.28602 0
M  V30 207 C 23.2564 4.00663 -1.4055 0
M  V30 208 O 24.2804 3.33818 -1.24273 0
M  V30 209 O 23.1394 5.20387 -1.66913 0
M  V30 210 H 20.2334 0.797613 -0.218499 0
M  V30 211 H 22.7794 1.27427 -1.12074 0
M  V30 212 H 21.5514 3.14704 -2.32545 0
M  V30 213 H 21.1744 3.89802 -0.7836 0
M  V30 214 N 22.1715 0.800033 1.35784 0
M  V30 215 C 23.4015 0.389041 2.02904 0
M  V30 216 C 23.8095 -1.0027 1.60445 0
M  V30 217 O 23.1525 -1.65633 0.794453 0
M  V30 218 C 23.2145 0.385495 3.57427 0
M  V30 219 C 22.8785 1.72662 4.23127 0
M  V30 220 C 23.8755 2.68385 4.4527 0
M  V30 221 C 21.5605 2.00883 4.60381 0
M  V30 222 C 23.5545 3.90517 5.03761 0
M  V30 223 C 21.2415 3.2328 5.18588 0
M  V30 224 C 22.2395 4.17915 5.40218 0
M  V30 225 O 21.9275 5.38153 5.97199 0
M  V30 226 H 21.6595 0.157032 0.657508 0
M  V30 227 H 24.2135 1.08311 1.74522 0
M  V30 228 H 22.4435 -0.365128 3.84972 0
M  V30 229 H 24.1325 -0.00228296 4.059 0
M  V30 230 H 24.8985 2.47872 4.16874 0
M  V30 231 H 20.7775 1.28037 4.42863 0
M  V30 232 H 24.3215 4.64395 5.2056 0
M  V30 233 H 20.2185 3.43667 5.4641 0
M  V30 234 H 20.9865 5.3936 6.15656 0
M  V30 235 N 23.6496 -1.47581 0.552962 0
M  V30 236 C 24.5596 -2.33743 -0.200353 0
M  V30 237 C 25.5756 -1.47928 -0.916151 0
M  V30 238 O 26.7516 -1.80865 -0.885993 0
M  V30 239 C 23.8166 -3.24536 -1.21973 0
M  V30 240 C 22.8776 -4.26238 -0.511819 0
M  V30 241 C 22.1106 -5.12693 -1.48263 0
M  V30 242 O 22.3336 -5.01525 -2.71714 0
M  V30 243 O 21.2676 -5.93375 -1.00945 0
M  V30 244 H 25.0936 -2.9945 0.506304 0
M  V30 245 H 22.6786 -1.46071 0.313622 0
M  V30 246 H 24.5606 -3.80631 -1.80827 0
M  V30 247 H 23.2356 -2.61462 -1.90839 0
M  V30 248 H 22.1426 -3.73914 0.117799 0
M  V30 249 H 23.4756 -4.92014 0.135308 0
M  V30 250 N 25.1277 -0.289203 -1.54924 0
M  V30 251 C 26.3747 0.323519 -1.99899 0
M  V30 252 C 26.7027 1.54797 -1.17762 0
M  V30 253 O 25.9577 1.94237 -0.238835 0
M  V30 254 C 26.2567 0.736119 -3.49737 0
M  V30 255 C 25.9227 -0.385276 -4.49251 0
M  V30 256 C 24.5847 -0.693156 -4.76181 0
M  V30 257 C 26.9367 -1.14021 -5.08575 0
M  V30 258 C 24.2647 -1.7593 -5.59701 0
M  V30 259 C 26.6167 -2.19619 -5.93254 0
M  V30 260 C 25.2807 -2.51026 -6.185 0
M  V30 261 H 24.5507 0.118384 -0.731482 0
M  V30 262 H 27.1977 -0.405847 -1.8715 0
M  V30 263 H 25.5027 1.54539 -3.60035 0
M  V30 264 H 27.1997 1.22118 -3.81953 0
M  V30 265 H 23.7897 -0.135202 -4.28387 0
M  V30 266 H 27.9737 -0.915611 -4.87781 0
M  V30 267 H 23.2297 -2.0075 -5.77503 0
M  V30 268 H 27.4037 -2.78581 -6.38252 0
M  V30 269 H 25.0307 -3.33772 -6.83008 0
M  V30 270 N 26.6058 1.57591 -0.0167156 0
M  V30 271 C 27.8518 1.92399 0.659861 0
M  V30 272 C 28.2068 0.892561 1.70444 0
M  V30 273 O 27.4998 -0.0930755 1.91374 0
M  V30 274 C 27.6938 3.3172 1.33029 0
M  V30 275 C 27.5228 4.48319 0.352174 0
M  V30 276 C 26.2928 5.05281 -0.0434883 0
M  V30 277 C 28.4908 5.12831 -0.388474 0
M  V30 278 N 26.4728 6.05399 -1.01807 0
M  V30 279 C 27.8438 6.07934 -1.2172 0
M  V30 280 C 29.8988 4.95858 -0.450513 0
M  V30 281 C 28.6018 6.87891 -2.10235 0
M  V30 282 C 30.6278 5.76413 -1.32295 0
M  V30 283 C 29.9898 6.71123 -2.13948 0
M  V30 284 H 26.0888 0.752106 0.21415 0
M  V30 285 H 28.6728 1.94532 -0.0809846 0
M  V30 286 H 26.8438 3.3043 2.04134 0
M  V30 287 H 28.5758 3.5391 1.9629 0
M  V30 288 H 25.3308 4.7246 0.328384 0
M  V30 289 H 25.7548 6.60145 -1.50123 0
M  V30 290 H 30.3968 4.22472 0.166512 0
M  V30 291 H 28.1148 7.60591 -2.72997 0
M  V30 292 H 31.7008 5.65317 -1.37508 0
M  V30 293 H 30.5808 7.3237 -2.80364 0
M  V30 294 N 28.0839 -0.256276 1.55502 0
M  V30 295 C 29.0309 -1.31714 1.89526 0
M  V30 296 C 30.0009 -1.4828 0.748479 0
M  V30 297 O 31.1859 -1.62416 1.00128 0
M  V30 298 C 28.3259 -2.66933 2.18725 0
M  V30 299 C 27.4389 -2.58452 3.4616 0
M  V30 300 C 26.5739 -3.85961 3.64976 0
M  V30 301 C 25.6129 -3.72059 4.86044 0
M  V30 302 N 24.7499 -4.9144 5.01429 0
M  V30 303 H 29.5899 -1.01998 2.80001 0
M  V30 304 H 27.1269 -0.492413 1.38613 0
M  V30 305 H 29.0849 -3.4563 2.33657 0
M  V30 306 H 27.7149 -2.94816 1.31466 0
M  V30 307 H 26.7669 -1.71374 3.3961 0
M  V30 308 H 28.0789 -2.44085 4.34999 0
M  V30 309 H 27.2329 -4.73101 3.79816 0
M  V30 310 H 25.9719 -4.03215 2.74353 0
M  V30 311 H 24.9769 -2.83302 4.7119 0
M  V30 312 H 26.2019 -3.56309 5.78118 0
M  V30 313 H 24.1479 -5.09072 4.13741 0
M  V30 314 H 24.0649 -4.79668 5.84341 0
M  V30 315 H 25.3329 -5.80104 5.20672 0
M  V30 316 N 29.562 -1.4872 -0.521534 0
M  V30 317 C 30.839 -1.4766 -1.2828 0
M  V30 318 C 31.219 -0.19292 -2.10217 0
M  V30 319 O 30.567 0.825193 -2.13079 0
M  V30 320 C 30.777 -2.74358 -2.15705 0
M  V30 321 C 32.125 -3.23028 -2.75569 0
M  V30 322 O 33.149 -2.75333 -2.25987 0
M  V30 323 O 32.008 -4.0604 -3.65778 0
M  V30 324 H 29.102 -0.590085 -0.579421 0
M  V30 325 H 31.648 -1.60963 -0.537492 0
M  V30 326 H 30.42 -3.59292 -1.54999 0
M  V30 327 H 30.043 -2.63816 -2.97467 0
M  V30 328 N 31.0401 0.771051 -1.3745 0
M  V30 329 C 32.2651 1.56529 -1.36065 0
M  V30 330 C 32.6901 1.88029 0.0515859 0
M  V30 331 O 32.0481 1.49282 1.02882 0
M  V30 332 C 32.0961 2.85187 -2.20683 0
M  V30 333 O 31.2001 3.79593 -1.61193 0
M  V30 334 H 30.5411 0.47411 -0.464883 0
M  V30 335 H 33.0711 0.954269 -1.80983 0
M  V30 336 H 33.0811 3.34283 -2.33921 0
M  V30 337 H 31.7561 2.61588 -3.23334 0
M  V30 338 H 30.3331 3.38239 -1.56999 0
M  V30 339 N 32.5182 1.22032 0.997298 0
M  V30 340 C 33.7662 1.04016 1.73278 0
M  V30 341 C 34.0872 -0.426255 1.90284 0
M  V30 342 O 33.3572 -1.30694 1.45931 0
M  V30 343 H 31.9372 0.381897 0.642 0
M  V30 344 H 34.5992 1.5347 1.20137 0
M  V30 345 H 33.6952 1.51441 2.72896 0
M  V30 346 N 33.9963 -1.19345 1.0293 0
M  V30 347 C 35.2443 -1.88665 0.724574 0
M  V30 348 C 35.5653 -1.80036 -0.749144 0
M  V30 349 O 34.8353 -1.2111 -1.53978 0
M  V30 350 H 33.4153 -0.698406 0.265025 0
M  V30 351 H 36.0773 -1.44885 1.30362 0
M  V30 352 H 35.1733 -2.94987 1.01926 0
M  V30 353 N 35.4744 -0.807222 -1.35358 0
M  V30 354 C 36.6994 -0.399309 -2.0352 0
M  V30 355 C 37.1244 0.981986 -1.60433 0
M  V30 356 O 36.4824 1.63601 -0.781299 0
M  V30 357 C 36.5304 -0.491552 -3.57234 0
M  V30 358 O 35.6344 0.494754 -4.09421 0
M  V30 359 H 34.9754 -0.166682 -0.642739 0
M  V30 360 H 37.5054 -1.09328 -1.72941 0
M  V30 361 H 37.5154 -0.361588 -4.06395 0
M  V30 362 H 36.1904 -1.49907 -3.87944 0
M  V30 363 H 34.7674 0.324977 -3.71481 0
M  V30 364 N 36.9525 1.47285 -0.560781 0
M  V30 365 C 38.2005 2.02064 -0.0379868 0
M  V30 366 C 38.5215 1.43711 1.31803 0
M  V30 367 O 37.7915 0.61362 1.86042 0
M  V30 368 H 36.3715 0.746918 -0.0110531 0
M  V30 369 H 39.0335 1.80648 -0.731598 0
M  V30 370 H 38.1295 3.12064 0.0474463 0
M  V30 371 N 38.4306 0.297415 1.54768 0
M  V30 372 C 39.6586 -0.315623 2.04478 0
M  V30 373 C 40.0736 -1.47792 1.17486 0
M  V30 374 O 39.4306 -1.81404 0.19971 0
M  V30 375 C 39.4816 -0.7753 3.53088 0
M  V30 376 O 39.2026 0.340732 4.36773 0
M  V30 377 C 40.7036 -1.45386 4.18781 0
M  V30 378 H 37.9236 -0.0690887 0.667434 0
M  V30 379 H 40.4676 0.436003 1.99798 0
M  V30 380 H 38.6226 -1.47696 3.58141 0
M  V30 381 H 39.0366 -0.0165035 5.24497 0
M  V30 382 H 40.5106 -1.72669 5.24299 0
M  V30 383 H 40.9876 -2.39275 3.68299 0
M  V30 384 H 41.5936 -0.795475 4.17795 0
M  V30 385 N 39.9087 -1.5758 0.0250728 0
M  V30 386 C 40.8417 -2.05473 -0.992777 0
M  V30 387 C 41.8197 -0.949661 -1.31986 0
M  V30 388 O 43.0037 -1.21969 -1.43722 0
M  V30 389 C 40.1307 -2.4734 -2.31389 0
M  V30 390 C 39.1767 -3.68827 -2.1417 0
M  V30 391 S 40.0097 -5.15655 -1.44429 0
M  V30 392 C 41.1657 -5.60814 -2.77918 0
M  V30 393 H 41.3987 -2.91486 -0.585078 0
M  V30 394 H 38.9317 -1.53269 -0.186507 0
M  V30 395 H 40.8897 -2.72127 -3.07339 0
M  V30 396 H 39.5507 -1.6168 -2.69292 0
M  V30 397 H 38.7437 -3.95955 -3.11826 0
M  V30 398 H 38.3457 -3.44172 -1.46362 0
M  V30 399 H 40.6377 -5.64806 -3.74166 0
M  V30 400 H 41.5807 -6.60414 -2.55459 0
M  V30 401 H 41.9887 -4.8845 -2.82979 0
M  V30 402 N 41.3868 0.248026 -1.55636 0
M  V30 403 C 42.6358 0.974134 -1.76617 0
M  V30 404 C 42.9488 1.86528 -0.588796 0
M  V30 405 O 44.1548 2.62805 -0.681594 0
M  V30 406 C 42.6108 1.78213 -3.12679 0
M  V30 407 C 42.2188 0.93843 -4.38061 0
M  V30 408 C 43.9628 2.50104 -3.42999 0
M  V30 409 C 41.8698 1.74225 -5.65155 0
M  V30 410 H 40.7998 0.36745 -0.658405 0
M  V30 411 H 43.4508 0.22884 -1.82067 0
M  V30 412 H 41.8328 2.56933 -3.01333 0
M  V30 413 H 43.0068 0.193635 -4.60393 0
M  V30 414 H 41.3218 0.332905 -4.15067 0
M  V30 415 H 43.9188 3.10694 -4.3517 0
M  V30 416 H 44.2618 3.21662 -2.64271 0
M  V30 417 H 44.7948 1.78395 -3.55556 0
M  V30 418 H 41.5338 1.07043 -6.46701 0
M  V30 419 H 41.0538 2.46235 -5.46926 0
M  V30 420 H 42.7328 2.30967 -6.0437 0
M  V30 421 N 42.8649 1.48995 0.513639 0
M  V30 422 C 43.7949 1.67636 1.62544 0
M  V30 423 C 44.7759 0.525087 1.61793 0
M  V30 424 O 45.9609 0.759502 1.78732 0
M  V30 425 C 43.0909 1.73114 3.01079 0
M  V30 426 C 42.0449 2.87905 3.16693 0
M  V30 427 C 41.3709 2.78486 4.56453 0
M  V30 428 C 42.6709 4.29005 2.97913 0
M  V30 429 H 44.3649 2.60716 1.47198 0
M  V30 430 H 41.9109 1.25465 0.706714 0
M  V30 431 H 43.8639 1.84742 3.78746 0
M  V30 432 H 42.5879 0.766241 3.17484 0
M  V30 433 H 41.2469 2.75859 2.41448 0
M  V30 434 H 40.8949 1.7993 4.69717 0
M  V30 435 H 40.5949 3.55523 4.67843 0
M  V30 436 H 42.1189 2.92104 5.36197 0
M  V30 437 H 43.5329 4.41798 3.65359 0
M  V30 438 H 41.9299 5.07166 3.20785 0
M  V30 439 H 42.9999 4.44329 1.94165 0
M  V30 440 N 44.343 -0.763751 1.37857 0
M  V30 441 C 45.291 -1.89864 1.34367 0
M  V30 442 C 46.285 -1.67816 0.231143 0
M  V30 443 O 47.491 -1.75508 0.399617 0
M  V30 444 H 43.866 -0.624501 0.41893 0
M  V30 445 H 45.837 -1.89925 2.30155 0
M  V30 446 C 44.586 -3.27227 1.1755 0
M  V30 447 H 43.909 -3.44773 2.02414 0
M  V30 448 H 45.349 -4.06911 1.1916 0
M  V30 449 C 43.808 -3.36692 -0.118311 0
M  V30 450 O 44.338 -3.86374 -1.09902 0
M  V30 451 N 42.544 -2.90092 -0.171717 0
M  V30 452 H 42.091 -2.49853 0.627012 0
M  V30 453 H 42.049 -2.96806 -1.03699 0
M  V30 454 N 45.8211 -1.22559 -0.990812 0
M  V30 455 C 46.7711 -0.964807 -2.0658 0
M  V30 456 C 47.7551 0.0853472 -1.60673 0
M  V30 457 O 48.9471 -0.125443 -1.76555 0
M  V30 458 C 46.0761 -0.546707 -3.38919 0
M  V30 459 C 45.1621 -1.6317 -3.91454 0
M  V30 460 N 45.5531 -2.85985 -4.17189 0
M  V30 461 C 43.8511 -1.50387 -4.19881 0
M  V30 462 C 44.5521 -3.56159 -4.59919 0
M  V30 463 N 43.5281 -2.83637 -4.63736 0
M  V30 464 H 47.3301 -1.89769 -2.24421 0
M  V30 465 H 44.8441 -1.12343 -1.17273 0
M  V30 466 H 46.8411 -0.34119 -4.15502 0
M  V30 467 H 45.5011 0.379254 -3.22478 0
M  V30 468 H 46.5121 -3.22392 -4.05319 0
M  V30 469 H 43.1891 -0.644254 -4.12499 0
M  V30 470 H 44.5791 -4.6139 -4.88435 0
M  V30 471 N 47.2992 1.18797 -1.03562 0
M  V30 472 C 48.5472 1.88278 -0.734569 0
M  V30 473 C 48.8682 1.8043 0.739586 0
M  V30 474 O 48.1382 1.21925 1.53333 0
M  V30 475 H 46.7182 0.696991 -0.268725 0
M  V30 476 H 49.3802 1.44192 -1.31129 0
M  V30 477 H 48.4762 2.94443 -1.03489 0
M  V30 478 N 48.7773 0.814389 1.34928 0
M  V30 479 C 50.0253 0.397636 1.9815 0
M  V30 480 C 50.3463 -1.04069 1.64908 0
M  V30 481 O 49.6163 -1.72121 0.93548 0
M  V30 482 H 48.1963 0.144043 0.732981 0
M  V30 483 H 50.8583 1.04195 1.6471 0
M  V30 484 H 49.9543 0.509688 3.0791 0
M  V30 485 N 50.2554 -1.46986 0.568584 0
M  V30 486 C 51.4834 -2.0683 0.0539956 0
M  V30 487 C 51.8984 -1.41953 -1.24478 0
M  V30 488 O 51.2554 -0.519933 -1.74937 0
M  V30 489 C 51.3064 -3.61254 -0.133362 0
M  V30 490 O 51.0274 -4.237 1.11399 0
M  V30 491 C 52.5284 -4.37992 -0.683927 0
M  V30 492 H 49.7484 -0.669058 0.0510141 0
M  V30 493 H 52.2924 -1.88824 0.785234 0
M  V30 494 H 50.4474 -3.78735 -0.81477 0
M  V30 495 H 50.8614 -5.16388 0.91888 0
M  V30 496 H 52.3354 -5.46684 -0.764263 0
M  V30 497 H 52.8124 -4.05058 -1.69778 0
M  V30 498 H 53.4184 -4.25283 -0.0378494 0
M  V30 499 N 51.7335 -0.305618 -1.54608 0
M  V30 500 C 52.9805 0.302298 -2.00231 0
M  V30 501 C 53.3085 1.5354 -1.19398 0
M  V30 502 O 52.5635 1.93973 -0.259423 0
M  V30 503 C 52.8625 0.698983 -3.50498 0
M  V30 504 C 52.5285 -0.432903 -4.48817 0
M  V30 505 C 51.1905 -0.743622 -4.75419 0
M  V30 506 C 53.5425 -1.19409 -5.07337 0
M  V30 507 C 50.8705 -1.81857 -5.57804 0
M  V30 508 C 53.2225 -2.25899 -5.90891 0
M  V30 509 C 51.8865 -2.57572 -6.15803 0
M  V30 510 H 51.1565 0.110619 -0.732697 0
M  V30 511 H 53.8035 -0.425674 -1.86709 0
M  V30 512 H 52.1085 1.50711 -3.61654 0
M  V30 513 H 53.8055 1.1806 -3.83227 0
M  V30 514 H 50.3955 -0.18063 -4.28219 0
M  V30 515 H 54.5795 -0.967295 -4.86782 0
M  V30 516 H 49.8355 -2.06864 -5.75341 0
M  V30 517 H 54.0095 -2.85335 -6.35261 0
M  V30 518 H 51.6365 -3.40998 -6.7943 0
M  V30 519 N 53.2116 1.57565 -0.0334293 0
M  V30 520 C 54.4366 1.96689 0.657895 0
M  V30 521 C 54.8616 0.910057 1.64619 0
M  V30 522 O 54.2196 -0.128598 1.80843 0
M  V30 523 C 54.2676 3.34905 1.33683 0
M  V30 524 O 53.3716 3.31574 2.45219 0
M  V30 525 H 52.7126 0.641205 0.172489 0
M  V30 526 H 55.2426 2.04372 -0.0965621 0
M  V30 527 H 55.2526 3.71234 1.69262 0
M  V30 528 H 53.9276 4.11366 0.612411 0
M  V30 529 H 52.5046 3.06968 2.11719 0
M  V30 530 N 54.6897 -0.239769 1.55765 0
M  V30 531 C 55.6527 -1.28038 1.90103 0
M  V30 532 C 56.6527 -1.40723 0.778055 0
M  V30 533 O 57.8427 -1.39301 1.04599 0
M  V30 534 C 54.9747 -2.65702 2.13577 0
M  V30 535 H 56.1677 -0.988048 2.83157 0
M  V30 536 H 53.7207 -0.479382 1.48767 0
M  V30 537 H 54.4557 -3.00063 1.23015 0
M  V30 538 H 54.2407 -2.57875 2.95369 0
M  V30 539 H 55.7307 -3.40828 2.41301 0
M  V30 540 N 56.1678 -1.49265 -0.50573 0
M  V30 541 C 57.0998 -1.617 -1.62437 0
M  V30 542 C 58.1128 -0.499924 -1.54934 0
M  V30 543 O 59.3018 -0.771785 -1.60953 0
M  V30 544 C 56.4018 -1.5533 -3.01207 0
M  V30 545 C 55.5748 -2.8249 -3.33943 0
M  V30 546 C 54.6338 -2.69238 -4.52103 0
M  V30 547 O 53.6598 -3.43167 -4.5412 0
M  V30 548 N 54.8618 -1.80468 -5.51735 0
M  V30 549 H 57.6268 -2.58177 -1.52199 0
M  V30 550 H 55.1878 -1.46294 -0.693511 0
M  V30 551 H 57.1798 -1.44125 -3.78167 0
M  V30 552 H 55.7498 -0.667297 -3.05395 0
M  V30 553 H 54.9698 -3.08081 -2.45926 0
M  V30 554 H 56.2578 -3.66802 -3.5261 0
M  V30 555 H 55.6558 -1.19653 -5.52901 0
M  V30 556 H 54.2128 -1.75188 -6.27816 0
M  V30 557 N 57.6459 0.756429 -1.3826 0
M  V30 558 C 58.8919 1.5168 -1.35517 0
M  V30 559 C 59.2469 1.9232 0.0554451 0
M  V30 560 O 58.5399 1.62352 1.01746 0
M  V30 561 C 58.7339 2.78313 -2.24224 0
M  V30 562 C 58.5629 2.50053 -3.7377 0
M  V30 563 C 57.3329 2.43414 -4.42807 0
M  V30 564 C 59.5309 2.1702 -4.66269 0
M  V30 565 N 57.5129 2.07398 -5.77805 0
M  V30 566 C 58.8839 1.91271 -5.89759 0
M  V30 567 C 60.9389 2.03305 -4.54501 0
M  V30 568 C 59.6419 1.53192 -7.02798 0
M  V30 569 C 61.6679 1.66627 -5.67441 0
M  V30 570 C 61.0299 1.4175 -6.8999 0
M  V30 571 H 57.1289 0.554735 -0.551174 0
M  V30 572 H 59.7129 0.881106 -1.73622 0
M  V30 573 H 57.8839 3.39696 -1.88311 0
M  V30 574 H 59.6159 3.44343 -2.12627 0
M  V30 575 H 56.3709 2.59789 -3.95988 0
M  V30 576 H 56.7949 1.92044 -6.4919 0
M  V30 577 H 61.4369 2.21215 -3.60311 0
M  V30 578 H 59.1549 1.34022 -7.96909 0
M  V30 579 H 62.7409 1.56652 -5.60314 0
M  V30 580 H 61.6209 1.1379 -7.759 0
M  V30 581 N 59.124 1.23083 0.984299 0
M  V30 582 C 60.072 1.00593 2.09723 0
M  V30 583 C 61.066 -0.0538014 1.69315 0
M  V30 584 O 62.272 0.0993719 1.79725 0
M  V30 585 H 58.647 0.30817 0.685956 0
M  V30 586 H 60.618 1.95012 2.2586 0
M  V30 587 C 59.367 0.609601 3.42314 0
M  V30 588 H 58.69 1.41675 3.73856 0
M  V30 589 H 60.13 0.491726 4.21139 0
M  V30 590 C 58.589 -0.681745 3.2993 0
M  V30 591 O 59.119 -1.73192 3.62446 0
M  V30 592 N 57.325 -0.656178 2.83095 0
M  V30 593 H 56.872 0.198759 2.56832 0
M  V30 594 H 56.83 -1.52044 2.75191 0
M  V30 595 N 60.6021 -1.18246 1.0419 0
M  V30 596 C 61.5501 -2.23968 0.627792 0
M  V30 597 C 62.5441 -1.65828 -0.346019 0
M  V30 598 O 63.7501 -1.78733 -0.213175 0
M  V30 599 H 60.1251 -0.728939 0.184802 0
M  V30 600 H 62.0961 -2.56202 1.52981 0
M  V30 601 C 60.8451 -3.47699 0.00796591 0
M  V30 602 H 60.1681 -3.92734 0.748347 0
M  V30 603 H 61.6081 -4.23294 -0.24455 0
M  V30 604 C 60.0671 -3.13153 -1.24246 0
M  V30 605 O 60.5971 -3.27003 -2.33307 0
M  V30 606 N 58.8031 -2.67467 -1.13622 0
M  V30 607 H 58.3501 -2.56396 -0.248734 0
M  V30 608 H 58.3081 -2.44724 -1.97377 0
M  V30 609 N 62.0802 -0.821533 -1.34494 0
M  V30 610 C 63.3262 -0.409552 -1.98622 0
M  V30 611 C 63.6592 1.0244 -1.64984 0
M  V30 612 O 62.9342 1.71325 -0.920758 0
M  V30 613 C 63.2172 -0.610458 -3.54888 0
M  V30 614 C 63.0702 -2.09043 -3.98273 0
M  V30 615 C 64.3892 -0.0455379 -4.40076 0
M  V30 616 H 61.5082 -0.15028 -0.721516 0
M  V30 617 H 64.1502 -1.03384 -1.59411 0
M  V30 618 H 62.3002 -0.079044 -3.8842 0
M  V30 619 H 63.9722 -2.68537 -3.75081 0
M  V30 620 H 62.2152 -2.58139 -3.48635 0
M  V30 621 H 62.8862 -2.18182 -5.07051 0
M  V30 622 H 65.3622 -0.499557 -4.1309 0
M  V30 623 H 64.2382 -0.215922 -5.48475 0
M  V30 624 H 64.4992 1.04939 -4.29465 0
M  V30 625 N 63.5583 1.46682 -0.576371 0
M  V30 626 C 64.5063 2.31953 0.17335 0
M  V30 627 C 65.5003 1.44098 0.89062 0
M  V30 628 O 66.7063 1.60759 0.809728 0
M  V30 629 H 63.0813 0.748273 0.0747727 0
M  V30 630 H 65.0523 2.93007 -0.564738 0
M  V30 631 C 63.8013 3.27142 1.17786 0
M  V30 632 H 63.1243 3.94719 0.635361 0
M  V30 633 H 64.5643 3.896 1.67296 0
M  V30 634 C 63.0233 2.52036 2.23561 0
M  V30 635 O 63.5533 2.27877 3.3081 0
M  V30 636 N 61.7593 2.12709 1.97998 0
M  V30 637 H 61.3063 2.32557 1.10792 0
M  V30 638 H 61.2643 1.62776 2.68982 0
M  V30 639 N 65.0364 0.313813 1.54444 0
M  V30 640 C 65.9844 -0.572171 2.25453 0
M  V30 641 C 66.9784 -1.12657 1.2651 0
M  V30 642 O 68.1844 -1.07573 1.44319 0
M  V30 643 H 64.5594 -0.203146 0.724041 0
M  V30 644 H 66.5304 0.0491145 2.9836 0
M  V30 645 C 65.2794 -1.72626 3.0182 0
M  V30 646 H 64.6024 -1.30891 3.77767 0
M  V30 647 H 66.0424 -2.32199 3.54767 0
M  V30 648 C 64.5014 -2.63806 2.09542 0
M  V30 649 O 65.0314 -3.65256 1.67185 0
M  V30 650 N 63.2374 -2.31824 1.75232 0
M  V30 651 H 62.7844 -1.49368 2.09873 0
M  V30 652 H 62.7424 -2.93095 1.13767 0
M  V30 653 N 66.5145 -1.57545 0.0417849 0
M  V30 654 C 67.7635 -1.91494 -0.633492 0
M  V30 655 C 68.0765 -0.921084 -1.72556 0
M  V30 656 O 69.2825 -1.15228 -2.45835 0
M  V30 657 C 67.7385 -3.40072 -1.17808 0
M  V30 658 C 67.3465 -4.47843 -0.118633 0
M  V30 659 C 69.0905 -3.8307 -1.82915 0
M  V30 660 C 66.9975 -5.87529 -0.675578 0
M  V30 661 H 65.9275 -0.714653 -0.24039 0
M  V30 662 H 68.5785 -1.83175 0.109148 0
M  V30 663 H 66.9605 -3.43364 -1.97274 0
M  V30 664 H 68.1345 -4.56128 0.654494 0
M  V30 665 H 66.4495 -4.14128 0.434414 0
M  V30 666 H 69.0465 -4.84794 -2.25563 0
M  V30 667 H 69.3895 -3.1881 -2.67705 0
M  V30 668 H 69.9225 -3.82255 -1.10119 0
M  V30 669 H 66.6615 -6.55362 0.134475 0
M  V30 670 H 66.1815 -5.82824 -1.4169 0
M  V30 671 H 67.8605 -6.36491 -1.1614 0
M  V30 672 N 67.9926 0.231505 -1.5589 0
M  V30 673 C 68.9226 1.29022 -1.94617 0
M  V30 674 C 69.9036 1.4941 -0.813067 0
M  V30 675 O 71.0886 1.6176 -1.07459 0
M  V30 676 C 68.2186 2.64199 -2.25424 0
M  V30 677 C 67.1726 2.58484 -3.41131 0
M  V30 678 C 66.4986 3.97599 -3.57518 0
M  V30 679 C 67.7986 2.1413 -4.76388 0
M  V30 680 H 69.4926 0.968563 -2.83301 0
M  V30 681 H 67.0386 0.464479 -1.36303 0
M  V30 682 H 68.9916 3.38413 -2.51107 0
M  V30 683 H 67.7156 2.98032 -1.33583 0
M  V30 684 H 66.3746 1.86727 -3.15481 0
M  V30 685 H 66.0226 4.28723 -2.6307 0
M  V30 686 H 65.7226 3.94659 -4.35337 0
M  V30 687 H 67.2466 4.7349 -3.85538 0
M  V30 688 H 68.6606 2.78083 -5.01341 0
M  V30 689 H 67.0576 2.2227 -5.57419 0
M  V30 690 H 68.1276 1.09331 -4.72414 0
M  V30 691 N 69.4707 1.49531 0.497807 0
M  V30 692 C 70.7177 1.59179 1.25173 0
M  V30 693 C 71.0457 0.279932 1.92475 0
M  V30 694 O 70.3007 -0.732383 1.81479 0
M  V30 695 C 70.5997 2.70252 2.33878 0
M  V30 696 C 70.2657 4.11644 1.84012 0
M  V30 697 C 68.9277 4.50121 1.70132 0
M  V30 698 C 71.2797 5.00121 1.46725 0
M  V30 699 C 68.6077 5.74845 1.17348 0
M  V30 700 C 70.9597 6.25366 0.95392 0
M  V30 701 C 69.6237 6.6267 0.801538 0
M  V30 702 H 68.8937 0.582478 0.45804 0
M  V30 703 H 71.5407 1.83373 0.551948 0
M  V30 704 H 69.8457 2.40041 3.09657 0
M  V30 705 H 71.5427 2.74925 2.9192 0
M  V30 706 H 68.1327 3.81274 1.95775 0
M  V30 707 H 72.3167 4.71048 1.56294 0
M  V30 708 H 67.5727 6.02444 1.04264 0
M  V30 709 H 71.7467 6.93301 0.656225 0
M  V30 710 H 69.3737 7.59197 0.390351 0
M  V30 711 N 70.9488 -0.749086 1.3866 0
M  V30 712 C 72.3648 -1.05276 1.19955 0
M  V30 713 C 72.5648 -2.01435 0.05134 0
M  V30 714 O 71.6208 -2.45232 -0.60147 0
M  V30 715 C 72.9338 -1.62853 2.52783 0
M  V30 716 C 74.4818 -1.75002 2.59506 0
M  V30 717 C 74.9568 -2.35991 3.92521 0
M  V30 718 N 76.4478 -2.43416 3.94085 0
M  V30 719 C 77.1828 -2.91511 4.9377 0
M  V30 720 N 76.6788 -3.39608 6.03853 0
M  V30 721 N 78.4718 -2.90592 4.81157 0
M  V30 722 H 70.6228 -0.111066 2.12109 0
M  V30 723 H 72.8858 -0.111901 0.941373 0
M  V30 724 H 72.5918 -0.99664 3.37283 0
M  V30 725 H 72.4658 -2.61854 2.715 0
M  V30 726 H 74.8528 -2.37317 1.75398 0
M  V30 727 H 74.9338 -0.74693 2.44652 0
M  V30 728 H 74.5778 -1.74308 4.77053 0
M  V30 729 H 74.5078 -3.3695 4.04688 0
M  V30 730 H 76.9988 -2.09405 3.14576 0
M  V30 731 H 77.3118 -3.74775 6.75843 0
M  V30 732 H 75.6568 -3.37653 6.07466 0
M  V30 733 H 78.8478 -2.52332 3.94267 0
M  V30 734 H 79.0208 -3.27762 5.58996 0
M  V30 735 N 72.4269 -1.23603 -0.977757 0
M  V30 736 C 73.3739 -1.01954 -2.07061 0
M  V30 737 C 74.3439 0.0638697 -1.65977 0
M  V30 738 O 75.5289 -0.0887624 -1.90593 0
M  V30 739 C 72.6689 -0.619658 -3.39491 0
M  V30 740 C 71.7819 -1.77547 -3.93829 0
M  V30 741 C 70.9169 -1.32212 -5.14484 0
M  V30 742 C 69.9559 -2.44852 -5.60994 0
M  V30 743 N 69.0929 -2.00456 -6.72876 0
M  V30 744 H 73.9329 -1.95495 -2.24913 0
M  V30 745 H 71.4699 -0.973861 -1.10247 0
M  V30 746 H 73.4279 -0.368898 -4.15566 0
M  V30 747 H 72.0579 0.278752 -3.21594 0
M  V30 748 H 71.1099 -2.14016 -3.14486 0
M  V30 749 H 72.4219 -2.62219 -4.24314 0
M  V30 750 H 71.5759 -1.02965 -5.97899 0
M  V30 751 H 70.3149 -0.445808 -4.85658 0
M  V30 752 H 69.3199 -2.74871 -4.76157 0
M  V30 753 H 70.5449 -3.33024 -5.91837 0
M  V30 754 H 68.4909 -1.15208 -6.45804 0
M  V30 755 H 68.4079 -2.78687 -7.02759 0
M  V30 756 H 69.6759 -1.7432 -7.59758 0
M  V30 757 N 73.905 1.17692 -1.04816 0
M  V30 758 C 75.153 1.87488 -0.754497 0
M  V30 759 C 75.474 1.81205 0.720407 0
M  V30 760 O 74.744 1.23544 1.52032 0
M  V30 761 H 73.324 0.694101 -0.276102 0
M  V30 762 H 75.986 1.42793 -1.32651 0
M  V30 763 H 75.082 2.93328 -1.06606 0
M  V30 764 N 75.3831 0.828654 1.34056 0
M  V30 765 C 76.3301 0.252567 2.29414 0
M  V30 766 C 77.3001 -0.62588 1.53857 0
M  V30 767 O 78.4851 -0.566312 1.82202 0
M  V30 768 C 75.6251 -0.574831 3.40279 0
M  V30 769 C 74.7381 0.326499 4.30764 0
M  V30 770 C 73.8731 -0.511016 5.28736 0
M  V30 771 C 72.9121 0.389342 6.1086 0
M  V30 772 N 72.0491 -0.409439 7.00905 0
M  V30 773 H 76.8891 1.07108 2.78086 0
M  V30 774 H 74.4261 0.539677 1.36843 0
M  V30 775 H 76.3841 -1.06992 4.03248 0
M  V30 776 H 75.0141 -1.35841 2.92826 0
M  V30 777 H 74.0661 0.939837 3.68607 0
M  V30 778 H 75.3781 1.01857 4.88289 0
M  V30 779 H 74.5321 -1.07035 5.97184 0
M  V30 780 H 73.2711 -1.23657 4.71763 0
M  V30 781 H 72.2761 0.960769 5.4134 0
M  V30 782 H 73.5011 1.1131 6.69916 0
M  V30 783 H 71.4471 -1.11856 6.46393 0
M  V30 784 H 71.3641 0.224126 7.55668 0
M  V30 785 H 72.6321 -0.951336 7.73673 0
M  V30 786 N 76.8612 -1.46375 0.584142 0
M  V30 787 C 77.8082 -2.30323 -0.148286 0
M  V30 788 C 78.7782 -1.40703 -0.882713 0
M  V30 789 O 79.9632 -1.69651 -0.873099 0
M  V30 790 C 77.1032 -3.25196 -1.15507 0
M  V30 791 C 76.2162 -4.29915 -0.423943 0
M  V30 792 C 75.3512 -5.11914 -1.41838 0
M  V30 793 C 74.3902 -6.08381 -0.673736 0
M  V30 794 N 73.5272 -6.83242 -1.6163 0
M  V30 795 H 78.3672 -2.92427 0.573644 0
M  V30 796 H 75.9042 -1.44118 0.294703 0
M  V30 797 H 77.8622 -3.78646 -1.75166 0
M  V30 798 H 76.4922 -2.64898 -1.8447 0
M  V30 799 H 75.5442 -3.7931 0.287714 0
M  V30 800 H 76.8562 -4.98549 0.158128 0
M  V30 801 H 76.0102 -5.69648 -2.08773 0
M  V30 802 H 74.7492 -4.43243 -2.03438 0
M  V30 803 H 73.7542 -5.49799 0.00938483 0
M  V30 804 H 74.9792 -6.79071 -0.0631082 0
M  V30 805 H 72.9252 -6.1728 -2.22038 0
M  V30 806 H 72.8422 -7.48144 -1.08707 0
M  V30 807 H 74.1102 -7.45534 -2.27596 0
M  V30 808 N 78.3393 -0.321999 -1.54275 0
M  V30 809 C 79.5863 0.281044 -2.0054 0
M  V30 810 C 79.9143 1.52265 -1.21019 0
M  V30 811 O 79.1693 1.93687 -0.279982 0
M  V30 812 C 79.4683 0.661769 -3.5122 0
M  V30 813 C 79.1343 -0.480482 -4.48333 0
M  V30 814 C 77.7963 -0.794005 -4.74604 0
M  V30 815 C 80.1483 -1.24783 -5.06042 0
M  V30 816 C 77.4763 -1.87763 -5.55844 0
M  V30 817 C 79.8283 -2.32153 -5.88462 0
M  V30 818 C 78.4923 -2.64089 -6.13036 0
M  V30 819 H 77.7623 0.102841 -0.733829 0
M  V30 820 H 80.4093 -0.445453 -1.86247 0
M  V30 821 H 78.7143 1.46867 -3.63232 0
M  V30 822 H 80.4113 1.13989 -3.84457 0
M  V30 823 H 77.0013 -0.226039 -4.28004 0
M  V30 824 H 81.1853 -1.01887 -4.85729 0
M  V30 825 H 76.4413 -2.12954 -5.73115 0
M  V30 826 H 80.6153 -2.92057 -6.32199 0
M  V30 827 H 78.2423 -3.48185 -6.75775 0
M  V30 828 N 79.8174 1.5752 -0.0501392 0
M  V30 829 C 80.7654 2.12651 0.942459 0
M  V30 830 C 81.7594 1.05807 1.32292 0
M  V30 831 O 82.9654 1.24217 1.3027 0
M  V30 832 H 79.3404 0.679673 0.321789 0
M  V30 833 H 81.3114 2.94951 0.452356 0
M  V30 834 C 80.0604 2.68565 2.20836 0
M  V30 835 H 79.3834 3.50439 1.92439 0
M  V30 836 H 80.8234 3.10761 2.8845 0
M  V30 837 C 79.2824 1.62291 2.95234 0
M  V30 838 O 79.8124 1.03508 3.88135 0
M  V30 839 N 78.0184 1.33836 2.57946 0
M  V30 840 H 77.5654 1.81826 1.82475 0
M  V30 841 H 77.5234 0.629595 3.08032 0
M  V30 842 N 81.2955 -0.223234 1.56011 0
M  V30 843 C 82.2055 -1.29766 1.95443 0
M  V30 844 C 83.2215 -1.51373 0.858028 0
M  V30 845 O 84.3975 -1.64536 1.16146 0
M  V30 846 C 81.4625 -2.62772 2.26167 0
M  V30 847 C 80.5235 -2.49482 3.49367 0
M  V30 848 C 79.7565 -3.76145 3.78616 0
M  V30 849 O 79.9795 -4.79087 3.09568 0
M  V30 850 O 78.9135 -3.73358 4.72109 0
M  V30 851 H 82.7395 -0.99309 2.87004 0
M  V30 852 H 80.3245 -0.425958 1.43199 0
M  V30 853 H 82.2065 -3.41327 2.47131 0
M  V30 854 H 80.8815 -2.92913 1.37781 0
M  V30 855 H 79.7885 -1.69133 3.33684 0
M  V30 856 H 81.1215 -2.2428 4.38131 0
M  V30 857 N 82.7736 -1.49793 -0.48987 0
M  V30 858 C 84.0016 -1.63568 -1.26701 0
M  V30 859 C 84.4166 -0.311465 -1.86213 0
M  V30 860 O 83.7736 0.704416 -1.68357 0
M  V30 861 C 83.8246 -2.71284 -2.38929 0
M  V30 862 O 83.5456 -3.9857 -1.81861 0
M  V30 863 C 85.0466 -2.95864 -3.3012 0
M  V30 864 H 82.2666 -0.550342 -0.383881 0
M  V30 865 H 84.8106 -1.95898 -0.586864 0
M  V30 866 H 82.9656 -2.417 -3.02753 0
M  V30 867 H 83.3796 -4.57993 -2.55622 0
M  V30 868 H 84.8536 -3.74941 -4.05121 0
M  V30 869 H 85.3306 -2.06206 -3.87783 0
M  V30 870 H 85.9366 -3.26907 -2.72051 0
M  V30 871 N 84.2517 0.741722 -1.39055 0
M  V30 872 C 85.1837 1.8657 -1.33133 0
M  V30 873 C 86.1967 1.61001 -0.241329 0
M  V30 874 O 87.3857 1.7136 -0.499784 0
M  V30 875 C 84.4857 3.22457 -1.04283 0
M  V30 876 C 83.6587 3.75435 -2.24427 0
M  V30 877 C 82.7177 4.89867 -1.92138 0
M  V30 878 O 81.7437 5.03879 -2.64754 0
M  V30 879 N 82.9457 5.73738 -0.88347 0
M  V30 880 H 85.7107 1.92156 -2.29991 0
M  V30 881 H 83.2717 0.922172 -1.3307 0
M  V30 882 H 85.2637 3.9657 -0.807128 0
M  V30 883 H 83.8337 3.12181 -0.161807 0
M  V30 884 H 83.0537 2.92751 -2.6399 0
M  V30 885 H 84.3417 4.07563 -3.04581 0
M  V30 886 H 83.7397 5.64999 -0.281517 0
M  V30 887 H 82.2967 6.47947 -0.707662 0
M  V30 888 N 85.7298 1.2412 0.971189 0
M  V30 889 C 86.9578 1.10575 1.74874 0
M  V30 890 C 87.3728 -0.342017 1.85676 0
M  V30 891 O 86.7298 -1.23617 1.34258 0
M  V30 892 C 86.7808 1.73579 3.171 0
M  V30 893 O 86.5018 3.12695 3.06844 0
M  V30 894 C 88.0028 1.65598 4.11208 0
M  V30 895 H 85.2228 0.386504 0.548503 0
M  V30 896 H 87.7668 1.64156 1.21955 0
M  V30 897 H 85.9218 1.24009 3.67016 0
M  V30 898 H 86.3358 3.43412 3.96445 0
M  V30 899 H 87.8098 2.1437 5.08674 0
M  V30 900 H 88.2868 0.616532 4.34851 0
M  V30 901 H 88.8928 2.14578 3.67201 0
M  V30 902 N 87.2079 -1.17134 1.05439 0
M  V30 903 C 88.1579 -2.1919 0.627675 0
M  V30 904 C 89.1419 -1.57328 -0.337147 0
M  V30 905 O 90.3339 -1.76329 -0.153976 0
M  V30 906 C 87.4629 -3.43299 0.00651435 0
M  V30 907 C 86.5489 -4.12255 0.995312 0
M  V30 908 N 86.9399 -4.56997 2.16765 0
M  V30 909 C 85.2379 -4.38316 0.824336 0
M  V30 910 C 85.9389 -5.10239 2.7934 0
M  V30 911 N 84.9149 -5.02595 2.07122 0
M  V30 912 H 88.7169 -2.5149 1.52086 0
M  V30 913 H 86.2309 -1.33491 0.924868 0
M  V30 914 H 88.2279 -4.15693 -0.316965 0
M  V30 915 H 86.8879 -3.1249 -0.882033 0
M  V30 916 H 87.8989 -4.51006 2.54587 0
M  V30 917 H 84.5759 -4.17498 -0.0129526 0
M  V30 918 H 85.9659 -5.54961 3.78772 0
M  V30 919 N 88.686 -0.835752 -1.33615 0
M  V30 920 C 89.618 -0.224151 -2.28101 0
M  V30 921 C 90.631 0.593331 -1.51603 0
M  V30 922 O 91.82 0.420911 -1.73466 0
M  V30 923 C 88.92 0.703309 -3.31522 0
M  V30 924 C 88.093 -0.0741528 -4.37337 0
M  V30 925 C 87.152 0.776176 -5.20444 0
M  V30 926 O 86.178 0.216506 -5.68788 0
M  V30 927 N 87.38 2.09401 -5.41416 0
M  V30 928 H 90.145 -1.03598 -2.81225 0
M  V30 929 H 87.706 -0.69392 -1.46275 0
M  V30 930 H 89.698 1.27707 -3.84022 0
M  V30 931 H 88.268 1.41585 -2.78698 0
M  V30 932 H 87.488 -0.82928 -3.85378 0
M  V30 933 H 88.776 -0.608863 -5.05144 0
M  V30 934 H 88.174 2.57229 -5.03835 0
M  V30 935 H 86.731 2.61633 -5.96985 0
M  V30 936 N 90.1641 1.46063 -0.591896 0
M  V30 937 C 91.0961 2.28539 0.174001 0
M  V30 938 C 92.1091 1.39047 0.846753 0
M  V30 939 O 93.2981 1.63564 0.714774 0
M  V30 940 C 90.3981 3.14347 1.26645 0
M  V30 941 C 89.5711 4.32021 0.683856 0
M  V30 942 C 88.6301 4.99157 1.66518 0
M  V30 943 O 87.6561 5.56458 1.19763 0
M  V30 944 N 88.8581 4.97005 2.99943 0
M  V30 945 H 91.6231 2.94911 -0.533633 0
M  V30 946 H 89.1841 1.56077 -0.430294 0
M  V30 947 H 91.1761 3.56125 1.92242 0
M  V30 948 H 89.7461 2.49988 1.87682 0
M  V30 949 H 88.9661 3.93915 -0.1498 0
M  V30 950 H 90.2541 5.08059 0.274567 0
M  V30 951 H 89.6521 4.51714 3.40545 0
M  V30 952 H 88.2091 5.42696 3.61004 0
M  V30 953 N 91.6422 0.330177 1.54103 0
M  V30 954 C 92.8882 -0.270806 2.00984 0
M  V30 955 C 93.2212 -1.51265 1.21789 0
M  V30 956 O 92.4962 -1.92142 0.301927 0
M  V30 957 C 92.7792 -0.598339 3.55094 0
M  V30 958 C 92.6322 0.654674 4.4501 0
M  V30 959 C 93.9512 -1.41334 4.16789 0
M  V30 960 H 91.0702 -0.0969531 0.730595 0
M  V30 961 H 93.7122 0.448066 1.84641 0
M  V30 962 H 91.8622 -1.21078 3.69151 0
M  V30 963 H 93.5342 1.29285 4.42813 0
M  V30 964 H 91.7772 1.28224 4.14416 0
M  V30 965 H 92.4482 0.380944 5.50684 0
M  V30 966 H 94.9242 -0.895597 4.06347 0
M  V30 967 H 93.8002 -1.61127 5.24718 0
M  V30 968 H 94.0612 -2.41146 3.70541 0
M  V30 969 N 93.1203 -1.57491 0.0584922 0
M  V30 970 C 94.3683 -1.92597 -0.612436 0
M  V30 971 C 94.6893 -0.938162 -1.70949 0
M  V30 972 O 93.9593 0.0158301 -1.95894 0
M  V30 973 H 92.5393 -0.710964 -0.229214 0
M  V30 974 H 95.2013 -1.94571 0.113218 0
M  V30 975 H 94.2973 -2.94038 -1.04633 0
M  V30 976 N 94.5984 0.214957 -1.56127 0
M  V30 977 C 95.5464 1.28601 -1.93816 0
M  V30 978 C 96.5404 1.48175 -0.821016 0
M  V30 979 O 97.7464 1.49271 -1.0059 0
M  V30 980 H 94.1214 0.431302 -0.616022 0
M  V30 981 H 96.0924 0.940991 -2.83175 0
M  V30 982 C 94.8414 2.62779 -2.27689 0
M  V30 983 H 94.1644 2.48527 -3.13168 0
M  V30 984 H 95.6044 3.36517 -2.57939 0
M  V30 985 C 94.0634 3.18285 -1.10436 0
M  V30 986 O 94.5934 4.00002 -0.368945 0
M  V30 987 N 92.7994 2.7675 -0.886433 0
M  V30 988 H 92.3464 2.10404 -1.48619 0
M  V30 989 H 92.3044 3.14229 -0.103656 0
M  V30 990 N 96.0765 1.50051 0.48192 0
M  V30 991 C 97.0095 1.62749 1.59963 0
M  V30 992 C 97.9875 0.475903 1.5548 0
M  V30 993 O 99.1715 0.693986 1.7526 0
M  V30 994 C 96.2985 1.60008 2.98522 0
M  V30 995 C 95.3445 2.80596 3.21198 0
M  V30 996 S 96.1775 4.42038 3.02262 0
M  V30 997 C 97.3335 4.41973 4.43182 0
M  V30 998 H 97.5665 2.57296 1.4895 0
M  V30 999 H 95.0995 1.39179 0.668477 0
M  V30 1000 H 97.0575 1.59112 3.78409 0
M  V30 1001 H 95.7185 0.667153 3.06933 0
M  V30 1002 H 94.9115 2.74952 4.22395 0
M  V30 1003 H 94.5135 2.79003 2.49065 0
M  V30 1004 H 96.8055 4.14868 5.35622 0
M  V30 1005 H 97.7485 5.43512 4.53873 0
M  V30 1006 H 98.1565 3.71812 4.24755 0
M  V30 1007 N 97.5546 -0.734337 1.39446 0
M  V30 1008 C 98.7796 -1.52866 1.40167 0
M  V30 1009 C 99.2046 -1.881 -0.00171513 0
M  V30 1010 O 98.5626 -1.51957 -0.988879 0
M  V30 1011 C 98.6106 -2.79235 2.28167 0
M  V30 1012 O 97.7146 -3.75185 1.71201 0
M  V30 1013 H 97.0556 -0.461618 0.477289 0
M  V30 1014 H 99.5856 -0.905949 1.8345 0
M  V30 1015 H 99.5956 -3.27963 2.42702 0
M  V30 1016 H 98.2706 -2.52923 3.30156 0
M  V30 1017 H 96.8476 -3.33958 1.65912 0
M  V30 1018 N 99.0327 -1.24633 -0.964593 0
M  V30 1019 C 100.282 -1.08188 -1.7023 0
M  V30 1020 C 100.595 0.37873 -1.91898 0
M  V30 1021 O 101.801 0.663427 -2.6327 0
M  V30 1022 C 100.257 -1.88773 -3.06419 0
M  V30 1023 C 99.8647 -3.39263 -2.92582 0
M  V30 1024 C 101.609 -1.80867 -3.84041 0
M  V30 1025 C 99.5157 -4.1218 -4.24101 0
M  V30 1026 H 98.4457 -0.401245 -0.638372 0
M  V30 1027 H 101.097 -1.48742 -1.07462 0
M  V30 1028 H 99.4787 -1.41035 -3.70034 0
M  V30 1029 H 100.653 -3.94603 -2.37961 0
M  V30 1030 H 98.9677 -3.48154 -2.28424 0
M  V30 1031 H 101.565 -2.32646 -4.81435 0
M  V30 1032 H 101.908 -0.774543 -4.09031 0
M  V30 1033 H 102.441 -2.26301 -3.27159 0
M  V30 1034 H 99.1797 -5.15965 -4.04303 0
M  V30 1035 H 98.6997 -3.61626 -4.78526 0
M  V30 1036 H 100.379 -4.19349 -4.92702 0
M  V30 1037 N 100.511 1.16574 -1.06058 0
M  V30 1038 C 101.459 2.22941 -0.663343 0
M  V30 1039 C 102.453 1.66358 0.319593 0
M  V30 1040 O 103.659 1.7905 0.184713 0
M  V30 1041 H 100.034 0.725907 -0.196376 0
M  V30 1042 H 102.005 2.53736 -1.57037 0
M  V30 1043 C 100.754 3.47642 -0.0632808 0
M  V30 1044 H 100.077 3.91493 -0.810733 0
M  V30 1045 H 101.517 4.2363 0.177177 0
M  V30 1046 C 99.9758 3.1509 1.19248 0
M  V30 1047 O 100.506 3.30673 2.28075 0
M  V30 1048 N 98.7118 2.6924 1.09353 0
M  V30 1049 H 98.2588 2.5676 0.207912 0
M  V30 1050 H 98.2168 2.47833 1.93458 0
M  V30 1051 N 101.989 0.842826 1.3317 0
M  V30 1052 C 103.219 0.453397 2.01564 0
M  V30 1053 C 103.627 -0.951147 1.63554 0
M  V30 1054 O 102.97 -1.63021 0.846746 0
M  V30 1055 C 103.032 0.499013 3.5602 0
M  V30 1056 C 102.696 1.86037 4.1742 0
M  V30 1057 C 103.693 2.82416 4.36506 0
M  V30 1058 C 101.378 2.15428 4.53757 0
M  V30 1059 C 103.372 4.06346 4.91082 0
M  V30 1060 C 101.059 3.39615 5.0804 0
M  V30 1061 C 102.057 4.3489 5.26649 0
M  V30 1062 O 101.745 5.5688 5.79776 0
M  V30 1063 H 101.477 0.177871 0.652179 0
M  V30 1064 H 104.031 1.13808 1.70988 0
M  V30 1065 H 102.261 -0.242467 3.85939 0
M  V30 1066 H 103.95 0.126852 4.05702 0
M  V30 1067 H 104.716 2.6101 4.08777 0
M  V30 1068 H 100.595 1.42061 4.38565 0
M  V30 1069 H 104.139 4.80722 5.05522 0
M  V30 1070 H 100.036 3.60876 5.352 0
M  V30 1071 H 100.804 5.58674 5.98185 0
M  V30 1072 N 103.467 -1.45747 0.599634 0
M  V30 1073 C 104.715 -2.01893 0.0915472 0
M  V30 1074 C 105.036 -1.47155 -1.27946 0
M  V30 1075 O 104.306 -0.66273 -1.84349 0
M  V30 1076 H 102.886 -0.746363 0.0308524 0
M  V30 1077 H 105.548 -1.78645 0.779237 0
M  V30 1078 H 104.644 -3.1208 0.0353086 0
M  V30 1079 N 104.945 -0.338344 -1.53925 0
M  V30 1080 C 105.908 0.508299 -2.23493 0
M  V30 1081 C 106.908 1.03175 -1.23335 0
M  V30 1082 O 108.098 0.921826 -1.47811 0
M  V30 1083 C 105.23 1.70754 -2.95052 0
M  V30 1084 H 106.423 -0.100058 -2.99733 0
M  V30 1085 H 103.976 -0.0896198 -1.56043 0
M  V30 1086 H 104.711 2.35474 -2.22986 0
M  V30 1087 H 104.496 1.33946 -3.68512 0
M  V30 1088 H 105.986 2.30818 -3.48013 0
M  V30 1089 N 106.423 1.57458 -0.0668435 0
M  V30 1090 C 107.371 2.13639 0.919851 0
M  V30 1091 C 108.365 1.07204 1.31163 0
M  V30 1092 O 109.571 1.25591 1.28945 0
M  V30 1093 H 105.946 0.683048 0.314562 0
M  V30 1094 H 107.917 2.95415 0.421047 0
M  V30 1095 C 106.666 2.70892 2.17975 0
M  V30 1096 H 105.989 3.5246 1.88711 0
M  V30 1097 H 107.429 3.13803 2.85138 0
M  V30 1098 C 105.888 1.65414 2.93496 0
M  V30 1099 O 106.418 1.07619 3.87015 0
M  V30 1100 N 104.624 1.36564 2.56512 0
M  V30 1101 H 104.171 1.83751 1.80536 0
M  V30 1102 H 104.129 0.66223 3.07347 0
M  V30 1103 N 107.901 -0.206675 1.56239 0
M  V30 1104 C 109.148 -0.928842 1.79941 0
M  V30 1105 C 109.476 -1.83734 0.638131 0
M  V30 1106 O 108.731 -1.92039 -0.376746 0
M  V30 1107 C 109.03 -1.78675 3.09532 0
M  V30 1108 C 108.696 -1.03022 4.38973 0
M  V30 1109 C 107.358 -0.821302 4.74139 0
M  V30 1110 C 109.71 -0.497081 5.18824 0
M  V30 1111 C 107.038 -0.0675719 5.86661 0
M  V30 1112 C 109.39 0.24338 6.32132 0
M  V30 1113 C 108.054 0.463422 6.65889 0
M  V30 1114 H 107.324 -0.339887 0.658451 0
M  V30 1115 H 109.971 -0.195977 1.90495 0
M  V30 1116 H 108.276 -2.58794 2.94165 0
M  V30 1117 H 109.973 -2.34792 3.25075 0
M  V30 1118 H 106.563 -1.20306 4.11369 0
M  V30 1119 H 110.747 -0.645921 4.92079 0
M  V30 1120 H 106.003 0.112995 6.11296 0
M  V30 1121 H 110.177 0.66393 6.93228 0
M  V30 1122 H 107.804 1.04938 7.52922 0
M  V30 1123 N 109.379 -1.50304 -0.473955 0
M  V30 1124 C 110.311 -1.65109 -1.58971 0
M  V30 1125 C 111.324 -0.532676 -1.53839 0
M  V30 1126 O 112.513 -0.805751 -1.59279 0
M  V30 1127 C 109.613 -1.61684 -2.97845 0
M  V30 1128 C 108.786 -2.8951 -3.27876 0
M  V30 1129 C 107.845 -2.78768 -4.4629 0
M  V30 1130 O 106.871 -3.52722 -4.46739 0
M  V30 1131 N 108.073 -1.9213 -5.47783 0
M  V30 1132 H 110.838 -2.61347 -1.46689 0
M  V30 1133 H 108.399 -1.47732 -0.662324 0
M  V30 1134 H 110.391 -1.52114 -3.75024 0
M  V30 1135 H 108.961 -0.731925 -3.03911 0
M  V30 1136 H 108.181 -3.13228 -2.39336 0
M  V30 1137 H 109.469 -3.74199 -3.4475 0
M  V30 1138 H 108.867 -1.31353 -5.50239 0
M  V30 1139 H 107.424 -1.88466 -6.23958 0
M  V30 1140 N 110.857 0.726932 -1.39834 0
M  V30 1141 C 112.268 1.30558 -1.3346 0
M  V30 1142 C 112.619 1.962 -0.00273003 0
M  V30 1143 O 111.744 1.96826 0.899371 0
M  V30 1144 C 112.339 2.37404 -2.41713 0
M  V30 1145 C 110.898 2.90921 -2.38835 0
M  V30 1146 C 110.045 1.64578 -2.2318 0
M  V30 1147 H 112.996 0.523862 -1.49804 0
M  V30 1148 H 113.017 3.17984 -2.08966 0
M  V30 1149 H 112.529 1.89599 -3.38635 0
M  V30 1150 H 110.63 3.42985 -1.45575 0
M  V30 1151 H 110.743 3.43487 -3.33997 0
M  V30 1152 H 109.107 1.89219 -1.70494 0
M  V30 1153 H 109.89 1.18814 -3.22084 0
M  V30 1154 N 112.336 1.25143 0.95797 0
M  V30 1155 C 113.284 1.05019 2.07542 0
M  V30 1156 C 114.278 -0.0178751 1.69391 0
M  V30 1157 O 115.484 0.137472 1.79474 0
M  V30 1158 H 111.859 0.32265 0.679265 0
M  V30 1159 H 113.83 1.99759 2.21673 0
M  V30 1160 C 112.579 0.682074 3.40944 0
M  V30 1161 H 111.902 1.49573 3.70767 0
M  V30 1162 H 113.342 0.580945 4.20001 0
M  V30 1163 C 111.801 -0.611608 3.31302 0
M  V30 1164 O 112.331 -1.65465 3.66038 0
M  V30 1165 N 110.537 -0.595982 2.84423 0
M  V30 1166 H 110.084 0.253192 2.56353 0
M  V30 1167 H 110.042 -1.46173 2.78354 0
M  V30 1168 N 113.814 -1.1601 1.06675 0
M  V30 1169 C 115.062 -1.86264 0.784229 0
M  V30 1170 C 115.383 -1.82328 -0.691488 0
M  V30 1171 O 114.653 -1.25947 -1.50047 0
M  V30 1172 H 113.233 -0.689621 0.28711 0
M  V30 1173 H 115.895 -1.40664 1.34906 0
M  V30 1174 H 114.991 -2.91595 1.11259 0
M  V30 1175 N 115.292 -0.849877 -1.32721 0
M  V30 1176 C 116.24 -0.279745 -2.30912 0
M  V30 1177 C 117.234 0.594278 -1.58634 0
M  V30 1178 O 118.44 0.482613 -1.73409 0
M  V30 1179 H 114.815 -0.0717521 -0.748569 0
M  V30 1180 H 116.786 -1.12222 -2.76494 0
M  V30 1181 C 115.535 0.521108 -3.43773 0
M  V30 1182 H 114.858 -0.142141 -3.99547 0
M  V30 1183 H 116.298 0.885693 -4.14646 0
M  V30 1184 C 114.757 1.70442 -2.90605 0
M  V30 1185 O 115.287 2.8034 -2.87702 0
M  V30 1186 N 113.493 1.52991 -2.47067 0
M  V30 1187 H 113.04 0.635914 -2.49628 0
M  V30 1188 H 112.998 2.32311 -2.11847 0
M  V30 1189 N 116.77 1.45427 -0.607355 0
M  V30 1190 C 117.733 2.28974 0.101693 0
M  V30 1191 C 118.733 1.39754 0.795329 0
M  V30 1192 O 119.923 1.61878 0.643527 0
M  V30 1193 C 117.055 3.20768 1.15414 0
M  V30 1194 H 118.248 2.93147 -0.632844 0
M  V30 1195 H 115.801 1.51945 -0.366391 0
M  V30 1196 H 116.536 2.61395 1.91945 0
M  V30 1197 H 116.321 3.86489 0.66098 0
M  V30 1198 H 117.811 3.83589 1.65073 0
M  V30 1199 N 118.248 0.346503 1.53744 0
M  V30 1200 C 119.478 -0.250047 2.05081 0
M  V30 1201 C 119.886 -1.44529 1.22098 0
M  V30 1202 O 119.229 -1.81992 0.249917 0
M  V30 1203 C 119.291 -0.725934 3.52094 0
M  V30 1204 C 118.955 0.350053 4.55657 0
M  V30 1205 C 119.952 1.19372 5.0601 0
M  V30 1206 C 117.637 0.504827 4.99757 0
M  V30 1207 C 119.631 2.17768 5.99046 0
M  V30 1208 C 117.318 1.49218 5.92602 0
M  V30 1209 C 118.316 2.32706 6.42135 0
M  V30 1210 O 118.004 3.2976 7.33153 0
M  V30 1211 H 117.736 -0.0515469 0.674032 0
M  V30 1212 H 120.29 0.497559 1.99282 0
M  V30 1213 H 118.52 -1.52483 3.55367 0
M  V30 1214 H 120.209 -1.24336 3.86388 0
M  V30 1215 H 120.975 1.08525 4.72702 0
M  V30 1216 H 116.854 -0.135178 4.60802 0
M  V30 1217 H 120.398 2.82971 6.37631 0
M  V30 1218 H 116.295 1.6012 6.25325 0
M  V30 1219 H 117.063 3.25265 7.51096 0
M  V30 1220 N 119.726 -1.57421 0.075193 0
M  V30 1221 C 120.656 -2.15942 -0.888324 0
M  V30 1222 C 121.637 -1.08737 -1.30806 0
M  V30 1223 O 122.822 -1.36787 -1.37851 0
M  V30 1224 C 119.952 -2.72379 -2.1547 0
M  V30 1225 C 118.906 -3.8478 -1.87425 0
M  V30 1226 C 118.232 -4.27834 -3.20721 0
M  V30 1227 C 119.532 -5.08869 -1.17684 0
M  V30 1228 H 121.226 -2.96705 -0.400799 0
M  V30 1229 H 118.772 -1.42723 -0.191342 0
M  V30 1230 H 120.725 -3.11965 -2.83295 0
M  V30 1231 H 119.449 -1.88841 -2.6647 0
M  V30 1232 H 118.108 -3.45703 -1.22004 0
M  V30 1233 H 117.756 -3.41214 -3.6957 0
M  V30 1234 H 117.456 -5.03605 -3.02746 0
M  V30 1235 H 118.98 -4.70039 -3.89738 0
M  V30 1236 H 120.394 -5.4575 -1.75584 0
M  V30 1237 H 118.791 -5.8994 -1.09956 0
M  V30 1238 H 119.861 -4.84648 -0.156453 0
M  V30 1239 N 121.204 0.198386 -1.56346 0
M  V30 1240 C 122.444 0.92609 -1.82217 0
M  V30 1241 C 122.808 1.80584 -0.652195 0
M  V30 1242 O 124.009 2.56907 -0.790716 0
M  V30 1243 C 122.28 1.72354 -3.13096 0
M  V30 1244 S 123.839 2.50371 -3.6036 0
M  V30 1245 H 120.657 0.310677 -0.639532 0
M  V30 1246 H 123.259 0.189755 -1.94577 0
M  V30 1247 H 121.963 1.0678 -3.96265 0
M  V30 1248 H 121.494 2.50175 -3.03605 0
M  V30 1249 H 123.509 3.74488 -3.25535 0
M  V30 1250 N 122.682 1.50554 0.465978 0
M  V30 1251 C 123.928 1.62038 1.21949 0
M  V30 1252 C 124.261 0.322116 1.9151 0
M  V30 1253 O 123.536 -0.676723 1.82348 0
M  V30 1254 C 123.819 2.80421 2.25912 0
M  V30 1255 C 123.672 4.20144 1.60622 0
M  V30 1256 C 124.991 2.94354 3.27176 0
M  V30 1257 H 122.11 0.589752 0.441998 0
M  V30 1258 H 124.752 1.82956 0.51257 0
M  V30 1259 H 122.902 2.62717 2.86203 0
M  V30 1260 H 124.574 4.49449 1.03889 0
M  V30 1261 H 122.817 4.24165 0.909211 0
M  V30 1262 H 123.488 4.98914 2.36196 0
M  V30 1263 H 125.964 3.10578 2.76913 0
M  V30 1264 H 124.84 3.788 3.97242 0
M  V30 1265 H 125.101 2.05186 3.916 0
M  V30 1266 N 124.16 -0.719506 1.40217 0
M  V30 1267 C 125.39 -1.50646 1.41384 0
M  V30 1268 C 125.798 -1.89197 0.0107743 0
M  V30 1269 O 125.141 -1.55709 -0.974708 0
M  V30 1270 C 125.203 -2.81405 2.23722 0
M  V30 1271 C 124.867 -2.65199 3.72181 0
M  V30 1272 C 125.864 -2.32717 4.64907 0
M  V30 1273 C 123.549 -2.81586 4.1595 0
M  V30 1274 C 125.543 -2.16827 5.99387 0
M  V30 1275 C 123.23 -2.65313 5.50502 0
M  V30 1276 C 124.228 -2.32981 6.42035 0
M  V30 1277 O 123.916 -2.16827 7.74107 0
M  V30 1278 H 123.648 -0.471606 0.484318 0
M  V30 1279 H 126.202 -0.895456 1.84853 0
M  V30 1280 H 124.432 -3.44823 1.75026 0
M  V30 1281 H 126.121 -3.43102 2.16878 0
M  V30 1282 H 126.887 -2.19694 4.32388 0
M  V30 1283 H 122.766 -3.0574 3.45027 0
M  V30 1284 H 126.31 -1.91513 6.70797 0
M  V30 1285 H 122.207 -2.7792 5.82607 0
M  V30 1286 H 122.975 -2.31778 7.84998 0
M  V30 1287 N 125.638 -1.25649 -0.95132 0
M  V30 1288 C 126.886 -1.10375 -1.69298 0
M  V30 1289 C 127.207 0.355339 -1.91735 0
M  V30 1290 O 126.477 1.25188 -1.50681 0
M  V30 1291 H 125.057 -0.405461 -0.627384 0
M  V30 1292 H 127.719 -1.57823 -1.14358 0
M  V30 1293 H 126.815 -1.61465 -2.67087 0
M  V30 1294 N 127.117 1.15442 -1.07289 0
M  V30 1295 C 128.363 1.8672 -0.806679 0
M  V30 1296 C 128.718 1.80723 0.660084 0
M  V30 1297 O 128.011 1.21902 1.47819 0
M  V30 1298 C 128.205 3.3489 -1.24834 0
M  V30 1299 C 128.034 3.55313 -2.7565 0
M  V30 1300 C 126.804 3.7082 -3.4325 0
M  V30 1301 C 129.002 3.53188 -3.73848 0
M  V30 1302 N 126.984 3.7929 -4.82713 0
M  V30 1303 C 128.355 3.67765 -4.99149 0
M  V30 1304 C 130.41 3.36459 -3.67015 0
M  V30 1305 C 129.113 3.6734 -6.18428 0
M  V30 1306 C 131.139 3.37333 -4.85758 0
M  V30 1307 C 130.501 3.52438 -6.09891 0
M  V30 1308 H 126.6 0.700433 -0.347733 0
M  V30 1309 H 129.184 1.38441 -1.36902 0
M  V30 1310 H 127.355 3.81786 -0.713713 0
M  V30 1311 H 129.087 3.93875 -0.929745 0
M  V30 1312 H 125.842 3.71568 -2.93656 0
M  V30 1313 H 126.266 3.8727 -5.55294 0
M  V30 1314 H 130.908 3.237 -2.71989 0
M  V30 1315 H 128.626 3.78878 -7.13777 0
M  V30 1316 H 132.212 3.25617 -4.82146 0
M  V30 1317 H 131.092 3.53047 -7.00234 0
M  V30 1318 N 128.595 0.856903 1.32268 0
M  V30 1319 C 129.823 0.475439 2.01363 0
M  V30 1320 C 130.238 -0.928486 1.64392 0
M  V30 1321 O 129.595 -1.60624 0.866387 0
M  V30 1322 C 129.646 0.607545 3.56358 0
M  V30 1323 O 129.367 1.95617 3.92002 0
M  V30 1324 C 130.868 0.225382 4.42727 0
M  V30 1325 H 128.088 0.186636 0.644521 0
M  V30 1326 H 130.632 1.15446 1.68797 0
M  V30 1327 H 128.787 -0.0237719 3.87393 0
M  V30 1328 H 129.201 1.95455 4.86721 0
M  V30 1329 H 130.675 0.368813 5.50767 0
M  V30 1330 H 131.152 -0.834369 4.31202 0
M  V30 1331 H 131.758 0.831864 4.17085 0
M  V30 1332 N 130.073 -1.45103 0.615059 0
M  V30 1333 C 131.319 -2.02483 0.113347 0
M  V30 1334 C 131.652 -1.48146 -1.25564 0
M  V30 1335 O 130.927 -0.659104 -1.82992 0
M  V30 1336 C 131.21 -3.60005 0.0825278 0
M  V30 1337 C 131.063 -4.2466 1.48271 0
M  V30 1338 C 132.382 -4.35972 -0.601401 0
M  V30 1339 H 129.501 -0.735764 0.0426632 0
M  V30 1340 H 132.143 -1.72868 0.788461 0
M  V30 1341 H 130.293 -3.85367 -0.492378 0
M  V30 1342 H 131.965 -4.10458 2.10527 0
M  V30 1343 H 130.208 -3.82772 2.04127 0
M  V30 1344 H 130.879 -5.336 1.41332 0
M  V30 1345 H 133.355 -4.15947 -0.112666 0
M  V30 1346 H 132.231 -5.45697 -0.592097 0
M  V30 1347 H 132.492 -4.09391 -1.66887 0
M  V30 1348 N 131.551 -0.354651 -1.53558 0
M  V30 1349 C 132.828 0.294281 -1.93374 0
M  V30 1350 C 133.208 1.67313 -1.28723 0
M  V30 1351 O 132.556 2.24179 -0.442247 0
M  V30 1352 C 132.766 0.355445 -3.47185 0
M  V30 1353 C 134.114 0.601007 -4.20325 0
M  V30 1354 O 135.138 0.437106 -3.53508 0
M  V30 1355 O 133.997 0.919322 -5.38712 0
M  V30 1356 H 131.091 0.174033 -0.808481 0
M  V30 1357 H 133.637 -0.406638 -1.64756 0
M  V30 1358 H 132.409 -0.611729 -3.86489 0
M  V30 1359 H 132.032 1.1027 -3.82003 0
M  V30 1360 N 133.029 1.57378 -0.0835403 0
M  V30 1361 C 134.44 1.81261 0.447358 0
M  V30 1362 C 134.791 0.998331 1.68902 0
M  V30 1363 O 133.916 0.224282 2.15235 0
M  V30 1364 C 134.511 3.28767 0.818386 0
M  V30 1365 C 133.07 3.53455 1.29409 0
M  V30 1366 C 132.217 2.75831 0.285024 0
M  V30 1367 H 135.168 1.5566 -0.309115 0
M  V30 1368 H 135.189 3.41459 1.67887 0
M  V30 1369 H 134.701 3.88006 -0.0855019 0
M  V30 1370 H 132.802 2.99534 2.21608 0
M  V30 1371 H 132.915 4.62128 1.2639 0
M  V30 1372 H 131.279 2.42947 0.764767 0
M  V30 1373 H 132.062 3.37813 -0.611341 0
M  V30 1374 N 134.507 -0.190092 1.56449 0
M  V30 1375 C 135.437 -1.23816 1.97969 0
M  V30 1376 C 136.418 -1.47201 0.852395 0
M  V30 1377 O 137.603 -1.58854 1.1171 0
M  V30 1378 C 134.733 -2.5813 2.3235 0
M  V30 1379 C 133.687 -2.49348 3.47864 0
M  V30 1380 C 133.013 -3.8798 3.67934 0
M  V30 1381 C 134.313 -2.01424 4.81898 0
M  V30 1382 H 136.007 -0.89311 2.85769 0
M  V30 1383 H 133.553 -0.428177 1.37487 0
M  V30 1384 H 135.506 -3.31637 2.59991 0
M  V30 1385 H 134.23 -2.94386 1.41438 0
M  V30 1386 H 132.889 -1.78297 3.20321 0
M  V30 1387 H 132.537 -4.21597 2.74344 0
M  V30 1388 H 132.237 -3.82978 4.45648 0
M  V30 1389 H 133.761 -4.63101 3.97957 0
M  V30 1390 H 135.175 -2.64693 5.08538 0
M  V30 1391 H 133.572 -2.07413 5.63116 0
M  V30 1392 H 134.642 -0.967677 4.75146 0
M  V30 1393 N 135.985 -1.50799 -0.457987 0
M  V30 1394 C 137.231 -1.62683 -1.21088 0
M  V30 1395 C 137.564 -0.332268 -1.91336 0
M  V30 1396 O 136.839 0.667043 -1.82704 0
M  V30 1397 C 137.122 -2.81615 -2.24422 0
M  V30 1398 C 136.975 -4.20989 -1.58392 0
M  V30 1399 C 138.294 -2.96085 -3.2561 0
M  V30 1400 H 135.413 -0.592087 -0.438864 0
M  V30 1401 H 138.055 -1.83225 -0.50286 0
M  V30 1402 H 136.205 -2.64231 -2.84806 0
M  V30 1403 H 137.877 -4.49994 -1.01504 0
M  V30 1404 H 136.12 -4.24641 -0.886704 0
M  V30 1405 H 136.791 -5.0016 -2.33547 0
M  V30 1406 H 139.267 -3.12042 -2.75262 0
M  V30 1407 H 138.143 -3.80902 -3.95228 0
M  V30 1408 H 138.404 -2.0726 -3.90507 0
M  V30 1409 N 137.463 0.71206 -1.40597 0
M  V30 1410 C 138.426 1.80785 -1.40888 0
M  V30 1411 C 139.426 1.57937 -0.302103 0
M  V30 1412 O 140.616 1.64913 -0.561182 0
M  V30 1413 C 137.748 3.18927 -1.20409 0
M  V30 1414 H 138.941 1.81924 -2.38419 0
M  V30 1415 H 136.494 0.91805 -1.26497 0
M  V30 1416 H 137.229 3.23436 -0.236522 0
M  V30 1417 H 137.014 3.36911 -2.00582 0
M  V30 1418 H 138.504 3.98949 -1.23408 0
M  V30 1419 N 138.941 1.26152 0.944643 0
M  V30 1420 C 140.171 1.14094 1.72239 0
M  V30 1421 C 140.579 -0.306931 1.86694 0
M  V30 1422 O 139.922 -1.22222 1.3714 0
M  V30 1423 C 139.984 1.73316 3.14963 0
M  V30 1424 C 139.648 3.2239 3.23904 0
M  V30 1425 C 140.645 4.19252 3.07447 0
M  V30 1426 C 138.33 3.62788 3.47405 0
M  V30 1427 C 140.324 5.54491 3.14353 0
M  V30 1428 C 138.011 4.98162 3.53947 0
M  V30 1429 C 139.009 5.93823 3.37436 0
M  V30 1430 O 138.697 7.26732 3.43679 0
M  V30 1431 H 138.429 0.398292 0.546205 0
M  V30 1432 H 140.983 1.67201 1.19301 0
M  V30 1433 H 139.213 1.14667 3.69308 0
M  V30 1434 H 140.902 1.56214 3.74636 0
M  V30 1435 H 141.668 3.8938 2.8915 0
M  V30 1436 H 137.547 2.88816 3.59313 0
M  V30 1437 H 141.091 6.29137 3.01384 0
M  V30 1438 H 136.988 5.27695 3.71763 0
M  V30 1439 H 137.756 7.3496 3.60245 0
M  V30 1440 N 140.419 -1.14872 1.07899 0
M  V30 1441 C 141.649 -1.89386 0.825631 0
M  V30 1442 C 142.057 -1.78565 -0.625406 0
M  V30 1443 O 141.4 -1.13918 -1.44113 0
M  V30 1444 C 141.462 -3.40206 1.16191 0
M  V30 1445 C 141.126 -3.74812 2.61467 0
M  V30 1446 C 142.123 -3.75367 3.59716 0
M  V30 1447 C 139.808 -4.0495 2.97189 0
M  V30 1448 C 141.802 -4.05574 4.9172 0
M  V30 1449 C 139.489 -4.34821 4.29388 0
M  V30 1450 C 140.487 -4.35116 5.26463 0
M  V30 1451 O 140.175 -4.64267 6.56286 0
M  V30 1452 H 139.907 -0.606894 0.297751 0
M  V30 1453 H 142.461 -1.46438 1.44031 0
M  V30 1454 H 140.691 -3.8358 0.490214 0
M  V30 1455 H 142.38 -3.96018 0.890193 0
M  V30 1456 H 143.146 -3.52176 3.33462 0
M  V30 1457 H 139.025 -4.03876 2.22273 0
M  V30 1458 H 142.569 -4.05719 5.67484 0
M  V30 1459 H 138.466 -4.5748 4.55392 0
M  V30 1460 H 139.234 -4.82007 6.61522 0
M  V30 1461 N 141.898 -0.863906 -1.31812 0
M  V30 1462 C 143.147 -0.46801 -1.96195 0
M  V30 1463 C 143.46 0.983474 -1.69077 0
M  V30 1464 O 144.666 1.48523 -2.27273 0
M  V30 1465 C 143.122 -0.785995 -3.51212 0
M  V30 1466 C 142.73 -2.25383 -3.87178 0
M  V30 1467 C 144.474 -0.458274 -4.22019 0
M  V30 1468 C 142.381 -2.51455 -5.3528 0
M  V30 1469 H 141.311 -0.171283 -0.734287 0
M  V30 1470 H 143.962 -1.05597 -1.50072 0
M  V30 1471 H 142.344 -0.127359 -3.95795 0
M  V30 1472 H 143.518 -2.95502 -3.53575 0
M  V30 1473 H 141.833 -2.54698 -3.2942 0
M  V30 1474 H 144.43 -0.630369 -5.30971 0
M  V30 1475 H 144.773 0.600834 -4.11941 0
M  V30 1476 H 145.306 -1.07319 -3.8305 0
M  V30 1477 H 142.045 -3.56025 -5.50387 0
M  V30 1478 H 141.565 -1.85923 -5.70257 0
M  V30 1479 H 143.244 -2.35874 -6.02472 0
M  V30 1480 N 143.376 1.44774 -0.622745 0
M  V30 1481 C 144.622 2.0242 -0.124083 0
M  V30 1482 C 144.955 1.4881 1.24777 0
M  V30 1483 O 144.23 0.668799 1.8264 0
M  V30 1484 C 144.513 3.59957 -0.101619 0
M  V30 1485 C 144.366 4.23867 -1.50521 0
M  V30 1486 C 145.685 4.36284 0.578272 0
M  V30 1487 H 142.804 0.735528 -0.0465645 0
M  V30 1488 H 145.446 1.72447 -0.797617 0
M  V30 1489 H 143.596 3.85623 0.471934 0
M  V30 1490 H 145.268 4.09336 -2.12701 0
M  V30 1491 H 143.511 3.81684 -2.06154 0
M  V30 1492 H 144.182 5.32843 -1.4416 0
M  V30 1493 H 146.658 4.16001 0.0906057 0
M  V30 1494 H 145.534 5.46004 0.563149 0
M  V30 1495 H 145.795 4.10271 1.64713 0
M  V30 1496 N 144.854 0.36279 1.53368 0
M  V30 1497 C 146.131 -0.284021 1.93527 0
M  V30 1498 C 146.511 -1.66628 1.29608 0
M  V30 1499 O 145.859 -2.23942 0.45413 0
M  V30 1500 C 146.069 -0.337028 3.47369 0
M  V30 1501 C 147.417 -0.578708 4.20638 0
M  V30 1502 O 148.441 -0.418352 3.53735 0
M  V30 1503 O 147.3 -0.89074 5.39192 0
M  V30 1504 H 144.394 -0.169743 0.809393 0
M  V30 1505 H 146.94 0.41537 1.64538 0
M  V30 1506 H 145.712 0.632217 3.86159 0
M  V30 1507 H 145.335 -1.08243 3.82582 0
M  V30 1508 N 146.332 -1.57332 0.0918853 0
M  V30 1509 C 147.557 -1.98995 -0.584442 0
M  V30 1510 C 147.982 -0.970528 -1.61128 0
M  V30 1511 O 147.34 0.0613904 -1.81196 0
M  V30 1512 C 147.388 -3.39636 -1.21161 0
M  V30 1513 O 146.492 -3.40447 -2.32744 0
M  V30 1514 H 145.833 -0.647165 -0.148572 0
M  V30 1515 H 148.363 -2.03873 0.172347 0
M  V30 1516 H 148.373 -3.7726 -1.55367 0
M  V30 1517 H 147.048 -4.13356 -0.459313 0
M  V30 1518 H 145.625 -3.14614 -2.0018 0
M  V30 1519 N 147.81 0.181792 -1.56548 0
M  V30 1520 C 149.056 0.896803 -1.82562 0
M  V30 1521 C 149.411 1.80324 -0.670908 0
M  V30 1522 O 148.704 1.8868 0.333235 0
M  V30 1523 C 148.898 1.73728 -3.12335 0
M  V30 1524 C 148.727 0.913714 -4.4032 0
M  V30 1525 C 147.497 0.592903 -5.01809 0
M  V30 1526 C 149.695 0.260164 -5.13642 0
M  V30 1527 N 147.677 -0.247901 -6.13399 0
M  V30 1528 C 149.048 -0.442256 -6.18421 0
M  V30 1529 C 151.103 0.177253 -4.97584 0
M  V30 1530 C 149.806 -1.21971 -7.08883 0
M  V30 1531 C 151.832 -0.586839 -5.88481 0
M  V30 1532 C 151.194 -1.27766 -6.92716 0
M  V30 1533 H 147.293 0.307122 -0.719166 0
M  V30 1534 H 149.877 0.164535 -1.94004 0
M  V30 1535 H 148.048 2.44105 -3.02105 0
M  V30 1536 H 149.78 2.39279 -3.26386 0
M  V30 1537 H 146.535 0.920502 -4.64568 0
M  V30 1538 H 146.959 -0.658304 -6.73792 0
M  V30 1539 H 151.601 0.696993 -4.17015 0
M  V30 1540 H 149.319 -1.75083 -7.88905 0
M  V30 1541 H 152.905 -0.652522 -5.78129 0
M  V30 1542 H 151.785 -1.85943 -7.61836 0
M  V30 1543 N 149.288 1.51039 0.449983 0
M  V30 1544 C 150.536 1.62759 1.19808 0
M  V30 1545 C 150.857 0.339981 1.92013 0
M  V30 1546 O 150.127 -0.643606 1.85026 0
M  V30 1547 H 148.707 0.599811 0.445237 0
M  V30 1548 H 151.369 1.87914 0.517138 0
M  V30 1549 H 150.465 2.44911 1.93455 0
M  V30 1550 N 150.766 -0.704594 1.40972 0
M  V30 1551 C 151.714 -1.83994 1.42299 0
M  V30 1552 C 152.708 -1.66684 0.302111 0
M  V30 1553 O 153.914 -1.73655 0.473697 0
M  V30 1554 H 150.289 -0.606171 0.44504 0
M  V30 1555 H 152.26 -1.79992 2.38003 0
M  V30 1556 C 151.009 -3.21946 1.31323 0
M  V30 1557 H 150.332 -3.35878 2.16855 0
M  V30 1558 H 151.772 -4.01491 1.36311 0
M  V30 1559 C 150.231 -3.36891 0.0245977 0
M  V30 1560 O 150.761 -3.90687 -0.934153 0
M  V30 1561 N 148.967 -2.90559 -0.0485243 0
M  V30 1562 H 148.514 -2.46968 0.732419 0
M  V30 1563 H 148.472 -3.00937 -0.910171 0
M  V30 1564 N 152.244 -1.26651 -0.937939 0
M  V30 1565 C 153.49 -1.13562 -1.68746 0
M  V30 1566 C 153.845 0.317241 -1.89767 0
M  V30 1567 O 153.138 1.22939 -1.46957 0
M  V30 1568 C 153.332 -1.84168 -3.06295 0
M  V30 1569 C 153.161 -3.36171 -2.98696 0
M  V30 1570 C 151.931 -4.05468 -3.01535 0
M  V30 1571 C 154.129 -4.32312 -2.78588 0
M  V30 1572 N 152.111 -5.44118 -2.84269 0
M  V30 1573 C 153.482 -5.58159 -2.69924 0
M  V30 1574 C 155.537 -4.22524 -2.63396 0
M  V30 1575 C 154.24 -6.75335 -2.47618 0
M  V30 1576 C 156.266 -5.39411 -2.42466 0
M  V30 1577 C 155.628 -6.64208 -2.34536 0
M  V30 1578 H 151.727 -0.470361 -0.624728 0
M  V30 1579 H 154.311 -1.59982 -1.10968 0
M  V30 1580 H 152.482 -1.40219 -3.62206 0
M  V30 1581 H 154.214 -1.63674 -3.70126 0
M  V30 1582 H 150.969 -3.56854 -3.11372 0
M  V30 1583 H 151.393 -6.1693 -2.78795 0
M  V30 1584 H 156.035 -3.26771 -2.68292 0
M  V30 1585 H 153.753 -7.71182 -2.41463 0
M  V30 1586 H 157.339 -5.33711 -2.31611 0
M  V30 1587 H 156.219 -7.53129 -2.18555 0
M  V30 1588 N 153.722 1.14298 -1.08507 0
M  V30 1589 C 155.138 1.37347 -0.812901 0
M  V30 1590 C 155.338 1.93052 0.577325 0
M  V30 1591 O 154.394 2.14389 1.33393 0
M  V30 1592 C 155.707 2.33359 -1.89642 0
M  V30 1593 C 157.255 2.46996 -1.92255 0
M  V30 1594 C 157.73 3.46309 -2.99724 0
M  V30 1595 N 159.221 3.53853 -2.98902 0
M  V30 1596 C 159.956 4.3055 -3.787 0
M  V30 1597 N 159.452 5.10482 -4.6838 0
M  V30 1598 N 161.245 4.25757 -3.66998 0
M  V30 1599 H 153.396 0.764867 -1.9815 0
M  V30 1600 H 155.659 0.398966 -0.859959 0
M  V30 1601 H 155.365 1.99565 -2.89597 0
M  V30 1602 H 155.239 3.33274 -1.76659 0
M  V30 1603 H 157.626 2.80081 -0.929445 0
M  V30 1604 H 157.707 1.47039 -2.09316 0
M  V30 1605 H 157.351 3.13957 -3.99241 0
M  V30 1606 H 157.281 4.46049 -2.79907 0
M  V30 1607 H 159.772 2.96812 -2.33904 0
M  V30 1608 H 160.085 5.66284 -5.25873 0
M  V30 1609 H 158.43 5.09747 -4.72422 0
M  V30 1610 H 161.621 3.62383 -2.96304 0
M  V30 1611 H 161.794 4.85279 -4.29427 0
M  V30 1612 N 155.201 0.870884 1.31352 0
M  V30 1613 C 156.612 0.534714 1.78879 0
M  V30 1614 C 156.963 -0.948423 1.71754 0
M  V30 1615 O 156.088 -1.74055 1.28584 0
M  V30 1616 C 156.683 0.963839 3.24801 0
M  V30 1617 C 155.242 0.679311 3.70219 0
M  V30 1618 C 154.389 1.15465 2.52117 0
M  V30 1619 H 157.34 1.05651 1.18421 0
M  V30 1620 H 157.361 0.286892 3.79417 0
M  V30 1621 H 156.873 2.04332 3.29955 0
M  V30 1622 H 154.974 -0.388769 3.70566 0
M  V30 1623 H 155.087 1.25698 4.62317 0
M  V30 1624 H 153.451 0.574383 2.48139 0
M  V30 1625 H 154.234 2.24157 2.60016 0
M  V30 1626 N 156.679 -1.44442 0.630414 0
M  V30 1627 C 158.09 -1.85434 0.217063 0
M  V30 1628 C 158.441 -1.52748 -1.23136 0
M  V30 1629 O 157.566 -0.965205 -1.93682 0
M  V30 1630 C 158.161 -3.36581 0.387168 0
M  V30 1631 C 156.72 -3.76389 0.0283297 0
M  V30 1632 C 155.867 -2.68296 0.700889 0
M  V30 1633 H 158.818 -1.34919 0.83562 0
M  V30 1634 H 158.839 -3.78657 -0.374086 0
M  V30 1635 H 158.351 -3.60339 1.44144 0
M  V30 1636 H 156.452 -3.58246 -1.02423 0
M  V30 1637 H 156.565 -4.77095 0.437892 0
M  V30 1638 H 154.929 -2.54335 0.136267 0
M  V30 1639 H 155.712 -2.94887 1.75774 0
M  V30 1640 N 158.157 -0.370918 -1.53173 0
M  V30 1641 C 159.405 0.216673 -2.00935 0
M  V30 1642 C 159.726 1.48845 -1.25977 0
M  V30 1643 O 158.996 1.92286 -0.374551 0
M  V30 1644 H 157.576 0.0830565 -0.742368 0
M  V30 1645 H 160.238 -0.49838 -1.8842 0
M  V30 1646 H 159.334 0.439893 -3.08984 0
M  V30 1647 N 159.635 1.57281 -0.100228 0
M  V30 1648 C 160.598 2.13158 0.842398 0
M  V30 1649 C 161.598 1.06202 1.20738 0
M  V30 1650 O 162.788 1.32066 1.13597 0
M  V30 1651 C 159.92 2.65639 2.13655 0
M  V30 1652 H 161.113 2.97766 0.357114 0
M  V30 1653 H 158.666 1.5559 0.148823 0
M  V30 1654 H 159.401 1.84566 2.66657 0
M  V30 1655 H 159.186 3.43844 1.88451 0
M  V30 1656 H 160.676 3.08846 2.81077 0
M  V30 1657 N 161.113 -0.173488 1.56642 0
M  V30 1658 C 162.341 -0.906095 1.86004 0
M  V30 1659 C 162.756 -1.75921 0.685355 0
M  V30 1660 O 162.113 -1.79198 -0.345578 0
M  V30 1661 C 162.164 -1.78462 3.14378 0
M  V30 1662 O 161.885 -0.965914 4.27319 0
M  V30 1663 C 163.386 -2.62707 3.57071 0
M  V30 1664 H 160.606 -0.263341 0.617165 0
M  V30 1665 H 163.15 -0.174236 2.03756 0
M  V30 1666 H 161.305 -2.46984 2.98459 0
M  V30 1667 H 161.719 -1.56655 5.00559 0
M  V30 1668 H 163.193 -3.19969 4.49804 0
M  V30 1669 H 163.67 -3.37472 2.81086 0
M  V30 1670 H 164.276 -1.99521 3.75595 0
M  V30 1671 N 162.591 -1.51276 -0.441967 0
M  V30 1672 C 164.002 -1.56244 -1.02199 0
M  V30 1673 C 164.353 -0.383149 -1.92422 0
M  V30 1674 O 163.478 0.500613 -2.1053 0
M  V30 1675 C 164.073 -2.83162 -1.86024 0
M  V30 1676 C 162.632 -2.90716 -2.39084 0
M  V30 1677 C 161.779 -2.50858 -1.18175 0
M  V30 1678 H 164.73 -1.5712 -0.223416 0
M  V30 1679 H 164.751 -2.66663 -2.71425 0
M  V30 1680 H 164.263 -3.68974 -1.20331 0
M  V30 1681 H 162.364 -2.09323 -3.08244 0
M  V30 1682 H 162.477 -3.94266 -2.72198 0
M  V30 1683 H 160.841 -2.03951 -1.52565 0
M  V30 1684 H 161.624 -3.3901 -0.541001 0
M  V30 1685 N 164.069 0.697108 -1.41344 0
M  V30 1686 C 165.016 1.81106 -1.43071 0
M  V30 1687 C 165.986 1.63632 -0.285275 0
M  V30 1688 O 167.171 1.84504 -0.486091 0
M  V30 1689 C 164.311 3.18975 -1.31715 0
M  V30 1690 C 163.424 3.47892 -2.56115 0
M  V30 1691 C 162.559 4.75367 -2.37064 0
M  V30 1692 C 161.598 4.97247 -3.56948 0
M  V30 1693 N 160.735 6.15947 -3.36977 0
M  V30 1694 H 165.575 1.78965 -2.38276 0
M  V30 1695 H 163.112 0.873975 -1.18322 0
M  V30 1696 H 165.07 3.98615 -1.23133 0
M  V30 1697 H 163.7 3.20297 -0.401183 0
M  V30 1698 H 162.752 2.62669 -2.75153 0
M  V30 1699 H 164.064 3.59962 -3.45295 0
M  V30 1700 H 163.218 5.63059 -2.25941 0
M  V30 1701 H 161.957 4.65541 -1.45338 0
M  V30 1702 H 160.962 4.08004 -3.68527 0
M  V30 1703 H 162.187 5.08934 -4.49626 0
M  V30 1704 H 160.133 6.07336 -2.47949 0
M  V30 1705 H 160.05 6.28777 -4.19732 0
M  V30 1706 H 161.318 7.06377 -3.29623 0
M  V30 1707 N 165.547 1.27147 0.931209 0
M  V30 1708 C 166.795 1.13055 1.6752 0
M  V30 1709 C 167.116 -0.324791 1.92276 0
M  V30 1710 O 166.386 -1.22775 1.52654 0
M  V30 1711 H 164.966 0.415391 0.620854 0
M  V30 1712 H 167.628 1.59623 1.11833 0
M  V30 1713 H 166.724 1.65694 2.64485 0
M  V30 1714 N 167.025 -1.13721 1.09112 0
M  V30 1715 C 168.253 -1.88773 0.846899 0
M  V30 1716 C 168.668 -1.7896 -0.601572 0
M  V30 1717 O 168.025 -1.15394 -1.41388 0
M  V30 1718 C 168.076 -3.3849 1.26913 0
M  V30 1719 O 167.797 -3.48043 2.66079 0
M  V30 1720 C 169.298 -4.30518 1.05682 0
M  V30 1721 H 166.518 -0.59772 0.304914 0
M  V30 1722 H 169.062 -1.43977 1.45227 0
M  V30 1723 H 167.217 -3.80881 0.707723 0
M  V30 1724 H 167.631 -4.4109 2.83795 0
M  V30 1725 H 169.105 -5.3391 1.40156 0
M  V30 1726 H 169.582 -4.392 -0.00563416 0
M  V30 1727 H 170.188 -3.93893 1.60402 0
M  V30 1728 N 168.503 -0.877838 -1.30888 0
M  V30 1729 C 169.752 -0.488793 -1.95688 0
M  V30 1730 C 170.065 0.965485 -1.70111 0
M  V30 1731 O 171.271 1.46104 -2.28836 0
M  V30 1732 C 169.727 -0.823201 -3.50359 0
M  V30 1733 C 169.335 -2.29477 -3.84765 0
M  V30 1734 C 171.079 -0.503009 -4.21509 0
M  V30 1735 C 168.986 -2.57118 -5.32583 0
M  V30 1736 H 167.916 -0.179062 -0.732429 0
M  V30 1737 H 170.567 -1.07183 -1.48943 0
M  V30 1738 H 168.949 -0.169331 -3.95638 0
M  V30 1739 H 170.123 -2.99236 -3.5042 0
M  V30 1740 H 168.438 -2.58178 -3.267 0
M  V30 1741 H 171.035 -0.68665 -5.30273 0
M  V30 1742 H 171.378 0.557109 -4.12555 0
M  V30 1743 H 171.911 -1.11376 -3.8189 0
M  V30 1744 H 168.65 -3.61843 -5.4658 0
M  V30 1745 H 168.17 -1.91961 -5.68253 0
M  V30 1746 H 169.849 -2.42251 -5.99936 0
M  V30 1747 N 169.982 1.44106 -0.638065 0
M  V30 1748 C 171.21 2.06336 -0.152615 0
M  V30 1749 C 171.625 1.47731 1.17563 0
M  V30 1750 O 170.982 0.602806 1.72257 0
M  V30 1751 C 171.033 3.61479 -0.0391491 0
M  V30 1752 O 170.754 4.17903 -1.31487 0
M  V30 1753 C 172.255 4.40757 0.474176 0
M  V30 1754 H 169.475 0.665862 -0.0828776 0
M  V30 1755 H 172.019 1.84862 -0.87443 0
M  V30 1756 H 170.174 3.82191 0.633142 0
M  V30 1757 H 170.588 5.11416 -1.16421 0
M  V30 1758 H 172.062 5.49707 0.502562 0
M  V30 1759 H 172.539 4.12697 1.50258 0
M  V30 1760 H 173.145 4.24979 -0.165102 0
M  V30 1761 N 171.46 0.379036 1.52974 0
M  V30 1762 C 172.706 -0.206727 2.01744 0
M  V30 1763 C 173.039 -1.47314 1.26539 0
M  V30 1764 O 172.314 -1.91084 0.362903 0
M  V30 1765 C 172.597 -0.485066 3.56818 0
M  V30 1766 C 172.45 0.795919 4.42702 0
M  V30 1767 C 173.769 -1.28003 4.21074 0
M  V30 1768 H 170.888 -0.0736607 0.73331 0
M  V30 1769 H 173.53 0.506581 1.83122 0
M  V30 1770 H 171.68 -1.09272 3.72816 0
M  V30 1771 H 173.352 1.43307 4.38476 0
M  V30 1772 H 171.595 1.41344 4.10127 0
M  V30 1773 H 172.266 0.555947 5.49193 0
M  V30 1774 H 174.742 -0.765867 4.08991 0
M  V30 1775 H 173.618 -1.44352 5.29579 0
M  V30 1776 H 173.879 -2.29236 3.78026 0
M  V30 1777 N 172.938 -1.57226 0.108567 0
M  V30 1778 C 174.215 -1.86333 -0.594939 0
M  V30 1779 C 174.595 -1.00788 -1.85486 0
M  V30 1780 O 173.943 -0.0839293 -2.28346 0
M  V30 1781 C 174.153 -3.37265 -0.897405 0
M  V30 1782 C 175.501 -4.05629 -1.25501 0
M  V30 1783 O 176.525 -3.42224 -0.987998 0
M  V30 1784 O 175.384 -5.17531 -1.75567 0
M  V30 1785 H 172.478 -0.771018 -0.2991 0
M  V30 1786 H 175.024 -1.69102 0.142283 0
M  V30 1787 H 173.796 -3.913 -0.00413806 0
M  V30 1788 H 173.419 -3.59889 -1.69014 0
M  V30 1789 N 174.416 0.165178 -1.56732 0
M  V30 1790 C 175.664 0.879068 -1.8198 0
M  V30 1791 C 175.985 1.82514 -0.686561 0
M  V30 1792 O 175.255 1.93694 0.293146 0
M  V30 1793 H 173.835 0.327608 -0.671329 0
M  V30 1794 H 176.497 0.163526 -1.94213 0
M  V30 1795 H 175.593 1.45228 -2.76252 0
M  V30 1796 N 175.894 1.51508 0.433938 0
M  V30 1797 C 177.142 1.6402 1.18075 0
M  V30 1798 C 177.463 0.360328 1.91642 0
M  V30 1799 O 176.733 -0.623945 1.85698 0
M  V30 1800 H 175.313 0.6045 0.43885 0
M  V30 1801 H 177.975 1.88452 0.497178 0
M  V30 1802 H 177.071 2.46949 1.90847 0
M  V30 1803 N 177.372 -0.689602 1.41712 0
M  V30 1804 C 178.6 -1.47827 1.44758 0
M  V30 1805 C 179.015 -1.88721 0.0545703 0
M  V30 1806 O 178.372 -1.57176 -0.927463 0
M  V30 1807 C 178.423 -2.73698 2.3616 0
M  V30 1808 O 178.144 -2.34524 3.7004 0
M  V30 1809 C 179.645 -3.67389 2.48072 0
M  V30 1810 H 176.865 -0.455357 0.49284 0
M  V30 1811 H 179.409 -0.848574 1.86063 0
M  V30 1812 H 177.564 -3.32891 1.98148 0
M  V30 1813 H 177.978 -3.15701 4.18847 0
M  V30 1814 H 179.452 -4.52475 3.16181 0
M  V30 1815 H 179.929 -4.12284 1.51388 0
M  V30 1816 H 180.535 -3.14097 2.86746 0
M  V30 1817 N 178.85 -1.27639 -0.924453 0
M  V30 1818 C 180.08 -1.16819 -1.70402 0
M  V30 1819 C 180.488 0.277191 -1.87158 0
M  V30 1820 O 179.831 1.20025 -1.39067 0
M  V30 1821 C 179.893 -1.78305 -3.12166 0
M  V30 1822 C 179.557 -3.27502 -3.18734 0
M  V30 1823 C 180.554 -4.2409 -3.00738 0
M  V30 1824 C 178.239 -3.68269 -3.4159 0
M  V30 1825 C 180.233 -5.59422 -3.05492 0
M  V30 1826 C 177.92 -5.0373 -3.45977 0
M  V30 1827 C 178.918 -5.99116 -3.27946 0
M  V30 1828 O 178.606 -7.32108 -3.32074 0
M  V30 1829 H 178.338 -0.406931 -0.539799 0
M  V30 1830 H 180.892 -1.69078 -1.16626 0
M  V30 1831 H 179.122 -1.20528 -3.67437 0
M  V30 1832 H 180.811 -1.62154 -3.72103 0
M  V30 1833 H 181.577 -3.93931 -2.82919 0
M  V30 1834 H 177.456 -2.94496 -3.54673 0
M  V30 1835 H 181 -6.33852 -2.91337 0
M  V30 1836 H 176.897 -5.33543 -3.63321 0
M  V30 1837 H 177.665 -7.40598 -3.48507 0
M  V30 1838 N 180.328 1.1314 -1.09713 0
M  V30 1839 C 181.605 1.80762 -0.747302 0
M  V30 1840 C 181.985 1.96663 0.767265 0
M  V30 1841 O 181.333 1.53706 1.69076 0
M  V30 1842 C 181.543 3.15606 -1.48975 0
M  V30 1843 C 182.891 3.90914 -1.65746 0
M  V30 1844 O 183.915 3.25239 -1.45251 0
M  V30 1845 O 182.774 5.08718 -1.9967 0
M  V30 1846 H 179.868 0.782103 -0.268782 0
M  V30 1847 H 182.414 1.20041 -1.19951 0
M  V30 1848 H 181.186 2.99278 -2.52088 0
M  V30 1849 H 180.809 3.84029 -1.02991 0
M  V30 1850 N 181.806 0.884767 1.30421 0
M  V30 1851 C 183.055 0.499164 1.95426 0
M  V30 1852 C 183.368 -0.95645 1.70621 0
M  V30 1853 O 184.574 -1.44889 2.29607 0
M  V30 1854 C 183.03 0.84177 3.49917 0
M  V30 1855 C 182.638 2.31514 3.83543 0
M  V30 1856 C 184.382 0.525355 4.21237 0
M  V30 1857 C 182.289 2.59939 5.31212 0
M  V30 1858 H 181.219 0.182944 0.73147 0
M  V30 1859 H 183.87 1.07971 1.48373 0
M  V30 1860 H 182.252 0.190311 3.95542 0
M  V30 1861 H 183.426 3.0109 3.48829 0
M  V30 1862 H 181.741 2.59907 3.25326 0
M  V30 1863 H 184.338 0.714762 5.29901 0
M  V30 1864 H 184.681 -0.535222 4.12845 0
M  V30 1865 H 185.214 1.134 3.81294 0
M  V30 1866 H 181.953 3.64736 5.44654 0
M  V30 1867 H 181.473 1.94972 5.67227 0
M  V30 1868 H 183.152 2.45429 5.98643 0
M  V30 1869 N 183.284 -1.43765 0.645699 0
M  V30 1870 C 184.514 -2.05953 0.163318 0
M  V30 1871 C 184.922 -1.48432 -1.17322 0
M  V30 1872 O 184.265 -0.607295 -1.73371 0
M  V30 1873 C 184.327 -3.59499 -0.0103065 0
M  V30 1874 C 183.991 -4.39563 1.25035 0
M  V30 1875 C 184.988 -4.72108 2.17739 0
M  V30 1876 C 182.673 -4.79697 1.48983 0
M  V30 1877 C 184.667 -5.43688 3.3269 0
M  V30 1878 C 182.354 -5.51023 2.64229 0
M  V30 1879 C 183.352 -5.8294 3.55908 0
M  V30 1880 O 183.04 -6.5281 4.69142 0
M  V30 1881 H 182.772 -0.670798 0.0836986 0
M  V30 1882 H 185.326 -1.85384 0.884407 0
M  V30 1883 H 183.556 -3.78613 -0.78669 0
M  V30 1884 H 185.245 -4.03408 -0.449087 0
M  V30 1885 H 186.011 -4.41627 2.00476 0
M  V30 1886 H 181.89 -4.54266 0.785078 0
M  V30 1887 H 185.434 -5.68517 4.04269 0
M  V30 1888 H 181.331 -5.8092 2.81429 0
M  V30 1889 H 182.099 -6.71288 4.6831 0
M  V30 1890 N 184.763 -0.387143 -1.52771 0
M  V30 1891 C 185.673 0.456442 -2.30117 0
M  V30 1892 C 186.689 1.07342 -1.36944 0
M  V30 1893 O 187.865 1.07971 -1.70013 0
M  V30 1894 C 184.93 1.56957 -3.09136 0
M  V30 1895 C 183.991 0.977916 -4.18014 0
M  V30 1896 C 183.224 2.038 -4.93256 0
M  V30 1897 O 183.447 3.25271 -4.68567 0
M  V30 1898 O 182.381 1.6565 -5.78657 0
M  V30 1899 H 186.207 -0.17359 -3.03203 0
M  V30 1900 H 183.792 -0.150919 -1.48636 0
M  V30 1901 H 185.674 2.21628 -3.58412 0
M  V30 1902 H 184.349 2.18461 -2.38865 0
M  V30 1903 H 183.256 0.294525 -3.72939 0
M  V30 1904 H 184.589 0.407128 -4.90513 0
M  V30 1905 N 186.241 1.57166 -0.116904 0
M  V30 1906 C 187.469 1.99473 0.549383 0
M  V30 1907 C 187.884 0.996541 1.60357 0
M  V30 1908 O 187.241 -0.0108731 1.82497 0
M  V30 1909 C 187.292 3.41788 1.17741 0
M  V30 1910 O 187.013 4.37788 0.165362 0
M  V30 1911 C 188.514 3.99216 1.92722 0
M  V30 1912 H 185.734 0.655009 0.145616 0
M  V30 1913 H 188.278 2.03494 -0.202625 0
M  V30 1914 H 186.433 3.38713 1.88021 0
M  V30 1915 H 186.847 5.20806 0.621403 0
M  V30 1916 H 188.321 5.00882 2.31995 0
M  V30 1917 H 188.798 3.3824 2.80161 0
M  V30 1918 H 189.404 4.0583 1.27209 0
M  V30 1919 N 187.719 -0.156864 1.56817 0
M  V30 1920 C 188.649 -1.19589 2.00551 0
M  V30 1921 C 189.63 -1.4536 0.883426 0
M  V30 1922 O 190.815 -1.56449 1.15054 0
M  V30 1923 C 187.945 -2.53143 2.37773 0
M  V30 1924 C 186.899 -2.41913 3.53075 0
M  V30 1925 C 186.225 -3.80088 3.76081 0
M  V30 1926 C 187.525 -1.91157 4.86062 0
M  V30 1927 H 189.219 -0.832293 2.87599 0
M  V30 1928 H 186.765 -0.398918 1.38364 0
M  V30 1929 H 188.718 -3.26047 2.66967 0
M  V30 1930 H 187.442 -2.91319 1.4765 0
M  V30 1931 H 186.101 -1.71462 3.24031 0
M  V30 1932 H 185.749 -4.15683 2.83225 0
M  V30 1933 H 185.449 -3.73439 4.53671 0
M  V30 1934 H 186.973 -4.54556 4.0769 0
M  V30 1935 H 188.387 -2.53846 5.14038 0
M  V30 1936 H 186.784 -1.95422 5.67389 0
M  V30 1937 H 187.854 -0.866673 4.77092 0
M  V30 1938 N 189.197 -1.51736 -0.425897 0
M  V30 1939 C 190.613 -1.40166 -0.76326 0
M  V30 1940 C 190.813 -0.492962 -1.95377 0
M  V30 1941 O 189.869 0.0475815 -2.52455 0
M  V30 1942 C 191.182 -2.82403 -1.03291 0
M  V30 1943 C 192.73 -2.91632 -1.13665 0
M  V30 1944 C 193.205 -4.34801 -1.43916 0
M  V30 1945 N 194.696 -4.3796 -1.50816 0
M  V30 1946 C 195.431 -5.4578 -1.75817 0
M  V30 1947 N 194.927 -6.63744 -1.98534 0
M  V30 1948 N 196.72 -5.33274 -1.77694 0
M  V30 1949 H 188.871 -2.09361 0.358 0
M  V30 1950 H 191.134 -0.942941 0.0978094 0
M  V30 1951 H 190.84 -3.50943 -0.230696 0
M  V30 1952 H 190.714 -3.22428 -1.95754 0
M  V30 1953 H 193.101 -2.23284 -1.92947 0
M  V30 1954 H 193.182 -2.55088 -0.190756 0
M  V30 1955 H 192.826 -5.03703 -0.65157 0
M  V30 1956 H 192.756 -4.68868 -2.39729 0
M  V30 1957 H 195.247 -3.52919 -1.35118 0
M  V30 1958 H 195.56 -7.41704 -2.17013 0
M  V30 1959 H 193.905 -6.66839 -1.95832 0
M  V30 1960 H 197.096 -4.40098 -1.59473 0
M  V30 1961 H 197.269 -6.1738 -1.9684 0
M  V30 1962 N 190.675 0.682077 -1.42076 0
M  V30 1963 C 191.921 1.44428 -1.42367 0
M  V30 1964 C 192.254 1.94164 -0.0373056 0
M  V30 1965 O 191.529 1.70429 0.937239 0
M  V30 1966 C 191.812 2.64654 -2.44194 0
M  V30 1967 C 191.665 2.20596 -3.91991 0
M  V30 1968 C 192.984 3.66865 -2.431 0
M  V30 1969 H 190.103 0.523834 -0.518428 0
M  V30 1970 H 192.745 0.77576 -1.73442 0
M  V30 1971 H 190.895 3.2169 -2.17826 0
M  V30 1972 H 192.567 1.68783 -4.29313 0
M  V30 1973 H 190.81 1.52242 -4.06208 0
M  V30 1974 H 191.481 3.06921 -4.58807 0
M  V30 1975 H 193.957 3.19531 -2.66532 0
M  V30 1976 H 192.833 4.48577 -3.16339 0
M  V30 1977 H 193.094 4.17493 -1.45437 0
M  V30 1978 N 192.153 1.28127 0.917671 0
M  V30 1979 C 193.101 1.11569 2.04096 0
M  V30 1980 C 194.095 0.0360242 1.69362 0
M  V30 1981 O 195.301 0.194501 1.78946 0
M  V30 1982 H 191.676 0.344097 0.668656 0
M  V30 1983 H 193.647 2.06711 2.15205 0
M  V30 1984 C 192.396 0.790197 3.38602 0
M  V30 1985 H 191.719 1.61293 3.6582 0
M  V30 1986 H 193.159 0.714271 4.1794 0
M  V30 1987 C 191.618 -0.505897 3.3308 0
M  V30 1988 O 192.148 -1.53736 3.71117 0
M  V30 1989 N 190.354 -0.505193 2.86175 0
M  V30 1990 H 189.901 0.334621 2.55417 0
M  V30 1991 H 189.859 -1.37243 2.82863 0
M  V30 1992 N 193.631 -1.12557 1.10312 0
M  V30 1993 C 194.563 -2.17971 0.708625 0
M  V30 1994 C 195.576 -1.60806 -0.254027 0
M  V30 1995 O 196.765 -1.78458 -0.0386891 0
M  V30 1996 C 193.865 -3.38891 0.0248198 0
M  V30 1997 C 193.038 -4.25548 1.01132 0
M  V30 1998 C 192.097 -5.24972 0.35924 0
M  V30 1999 O 191.123 -5.60174 1.00965 0
M  V30 2000 N 192.325 -5.73747 -0.882847 0
M  V30 2001 H 195.09 -2.52427 1.61557 0
M  V30 2002 H 192.651 -1.27967 0.991771 0
M  V30 2003 H 194.643 -4.02485 -0.422852 0
M  V30 2004 H 193.213 -3.02596 -0.784514 0
M  V30 2005 H 192.433 -3.58589 1.6373 0
M  V30 2006 H 193.721 -4.80294 1.67914 0
M  V30 2007 H 193.119 -5.4731 -1.43065 0
M  V30 2008 H 191.676 -6.39234 -1.27369 0
M  V30 2009 N 195.109 -0.891671 -1.2995 0
M  V30 2010 C 196.52 -0.563104 -1.78006 0
M  V30 2011 C 196.871 0.920978 -1.73241 0
M  V30 2012 O 195.996 1.71987 -1.31337 0
M  V30 2013 C 196.591 -1.01539 -3.23226 0
M  V30 2014 C 195.15 -0.738124 -3.69092 0
M  V30 2015 C 194.297 -1.19461 -2.50249 0
M  V30 2016 H 197.248 -1.07522 -1.16725 0
M  V30 2017 H 197.269 -0.347217 -3.78912 0
M  V30 2018 H 196.781 -2.09555 -3.26662 0
M  V30 2019 H 194.882 0.329766 -3.71138 0
M  V30 2020 H 194.995 -1.33037 -4.60259 0
M  V30 2021 H 193.359 -0.613787 -2.47194 0
M  V30 2022 H 194.142 -2.28265 -2.56417 0
M  V30 2023 N 196.587 1.43421 -0.653314 0
M  V30 2024 C 197.812 2.06678 -0.172846 0
M  V30 2025 C 198.237 1.48648 1.15262 0
M  V30 2026 O 197.595 0.596457 1.71208 0
M  V30 2027 C 197.643 3.60474 -0.0953184 0
M  V30 2028 O 196.747 4.01487 0.942442 0
M  V30 2029 H 196.088 0.657181 -0.0949155 0
M  V30 2030 H 198.618 1.83925 -0.896265 0
M  V30 2031 H 198.628 4.07905 0.0879728 0
M  V30 2032 H 197.303 4.02088 -1.06291 0
M  V30 2033 H 195.88 3.65646 0.731932 0
M  V30 2034 N 198.065 0.39524 1.52563 0
M  V30 2035 C 199.314 -0.186321 2.00838 0
M  V30 2036 C 199.627 -1.47402 1.28577 0
M  V30 2037 O 200.833 -2.13599 1.67593 0
M  V30 2038 C 199.289 -0.382595 3.57861 0
M  V30 2039 C 198.897 0.892202 4.39026 0
M  V30 2040 C 200.641 -0.9202 4.14406 0
M  V30 2041 C 198.548 0.66388 5.87662 0
M  V30 2042 H 197.478 -0.0734041 0.750418 0
M  V30 2043 H 200.129 0.518552 1.76021 0
M  V30 2044 H 198.511 -1.14946 3.7895 0
M  V30 2045 H 199.685 1.66414 4.29701 0
M  V30 2046 H 198 1.35519 3.9373 0
M  V30 2047 H 200.597 -1.10683 5.23119 0
M  V30 2048 H 200.94 -1.89096 3.70875 0
M  V30 2049 H 201.473 -0.212751 3.97231 0
M  V30 2050 H 198.212 1.6058 6.35527 0
M  V30 2051 H 197.732 -0.0690193 5.9976 0
M  V30 2052 H 199.411 0.300699 6.46301 0
M  V30 2053 N 199.544 -1.57102 0.125237 0
M  V30 2054 C 200.491 -2.15641 -0.822655 0
M  V30 2055 C 201.461 -1.08313 -1.25927 0
M  V30 2056 O 202.646 -1.36251 -1.33567 0
M  V30 2057 C 199.786 -2.76504 -2.06494 0
M  V30 2058 C 198.899 -3.98158 -1.67612 0
M  V30 2059 C 198.034 -4.47088 -2.86854 0
M  V30 2060 C 197.073 -5.6126 -2.44242 0
M  V30 2061 N 196.21 -6.04905 -3.56419 0
M  V30 2062 H 201.05 -2.96313 -0.316625 0
M  V30 2063 H 198.587 -1.46388 -0.144588 0
M  V30 2064 H 200.545 -3.09925 -2.79289 0
M  V30 2065 H 199.175 -1.98512 -2.54545 0
M  V30 2066 H 198.227 -3.70858 -0.846661 0
M  V30 2067 H 199.539 -4.80934 -1.32301 0
M  V30 2068 H 198.693 -4.82451 -3.67867 0
M  V30 2069 H 197.432 -3.63275 -3.25396 0
M  V30 2070 H 196.437 -5.25495 -1.61663 0
M  V30 2071 H 197.662 -6.46843 -2.0681 0
M  V30 2072 H 195.608 -5.24032 -3.94623 0
M  V30 2073 H 195.525 -6.82552 -3.25051 0
M  V30 2074 H 196.793 -6.44907 -4.37853 0
M  V30 2075 N 201.022 0.148545 -1.56898 0
M  V30 2076 C 202.27 0.859717 -1.82902 0
M  V30 2077 C 202.591 1.81775 -0.70588 0
M  V30 2078 O 201.861 1.93994 0.272586 0
M  V30 2079 H 200.441 0.320469 -0.674766 0
M  V30 2080 H 203.103 0.142918 -1.94375 0
M  V30 2081 H 202.199 1.4229 -2.77777 0
M  V30 2082 N 202.5 1.5196 0.417844 0
M  V30 2083 C 203.749 1.6482 1.16264 0
M  V30 2084 C 204.062 0.379886 1.91876 0
M  V30 2085 O 205.268 0.388154 2.68711 0
M  V30 2086 C 203.724 2.91161 2.1155 0
M  V30 2087 C 203.332 4.25068 1.41495 0
M  V30 2088 C 205.076 3.13383 2.86341 0
M  V30 2089 C 202.983 5.42541 2.35379 0
M  V30 2090 H 201.913 0.613954 0.437694 0
M  V30 2091 H 204.564 1.78442 0.427871 0
M  V30 2092 H 202.946 2.71218 2.88543 0
M  V30 2093 H 204.12 4.55463 0.699263 0
M  V30 2094 H 202.435 4.0888 0.787792 0
M  V30 2095 H 205.032 3.98324 3.5671 0
M  V30 2096 H 205.375 2.27256 3.48798 0
M  V30 2097 H 205.908 3.33757 2.1645 0
M  V30 2098 H 202.647 6.30987 1.77582 0
M  V30 2099 H 202.167 5.16497 3.04945 0
M  V30 2100 H 203.846 5.75272 2.96093 0
M  V30 2101 N 203.978 -0.674533 1.42435 0
M  V30 2102 C 204.941 -1.76986 1.45632 0
M  V30 2103 C 205.941 -1.5708 0.343871 0
M  V30 2104 O 207.131 -1.63367 0.604709 0
M  V30 2105 C 204.263 -3.15623 1.28822 0
M  V30 2106 H 205.456 -1.75539 2.43158 0
M  V30 2107 H 203.009 -0.884189 1.28887 0
M  V30 2108 H 203.744 -3.22696 0.322193 0
M  V30 2109 H 203.529 -3.31475 2.09444 0
M  V30 2110 H 205.019 -3.95537 1.33942 0
M  V30 2111 N 205.456 -1.28612 -0.910864 0
M  V30 2112 C 206.684 -1.18792 -1.69399 0
M  V30 2113 C 207.099 0.253039 -1.87097 0
M  V30 2114 O 206.456 1.17071 -1.40003 0
M  V30 2115 C 206.507 -1.88511 -3.08457 0
M  V30 2116 O 206.228 -3.26979 -2.91576 0
M  V30 2117 C 207.729 -1.85029 -4.02839 0
M  V30 2118 H 204.949 -0.412233 -0.529438 0
M  V30 2119 H 207.493 -1.69788 -1.13984 0
M  V30 2120 H 205.648 -1.41379 -3.60681 0
M  V30 2121 H 206.062 -3.61936 -3.79608 0
M  V30 2122 H 207.536 -2.38395 -4.97867 0
M  V30 2123 H 208.013 -0.823303 -4.31414 0
M  V30 2124 H 208.619 -2.31853 -3.56545 0
M  V30 2125 N 206.934 1.1197 -1.10907 0
M  V30 2126 C 208.181 1.83588 -0.854507 0
M  V30 2127 C 208.509 1.84357 0.6199 0
M  V30 2128 O 207.764 1.28809 1.47332 0
M  V30 2129 C 208.063 3.30749 -1.35425 0
M  V30 2130 C 207.729 3.50146 -2.84093 0
M  V30 2131 C 206.391 3.55148 -3.2469 0
M  V30 2132 C 208.743 3.56857 -3.79872 0
M  V30 2133 C 206.071 3.6441 -4.59806 0
M  V30 2134 C 208.423 3.6765 -5.14797 0
M  V30 2135 C 207.087 3.7091 -5.54961 0
M  V30 2136 H 206.357 0.671795 -0.312686 0
M  V30 2137 H 209.004 1.32091 -1.38652 0
M  V30 2138 H 207.309 3.84703 -0.742361 0
M  V30 2139 H 209.006 3.8464 -1.1337 0
M  V30 2140 H 205.596 3.46919 -2.51685 0
M  V30 2141 H 209.78 3.52258 -3.49611 0
M  V30 2142 H 205.036 3.65208 -4.9034 0
M  V30 2143 H 209.21 3.71786 -5.88853 0
M  V30 2144 H 206.837 3.7784 -6.59652 0
M  V30 2145 N 208.412 0.89855 1.29475 0
M  V30 2146 C 209.359 0.373819 2.27753 0
M  V30 2147 C 210.329 -0.543444 1.56958 0
M  V30 2148 O 211.514 -0.468934 1.84948 0
M  V30 2149 C 208.654 -0.393648 3.42848 0
M  V30 2150 C 207.767 0.554379 4.28428 0
M  V30 2151 C 206.902 -0.230026 5.30702 0
M  V30 2152 C 205.941 0.712599 6.07938 0
M  V30 2153 N 205.078 -0.0373283 7.0209 0
M  V30 2154 H 209.918 1.21699 2.72017 0
M  V30 2155 H 207.455 0.611456 1.33789 0
M  V30 2156 H 209.413 -0.85466 4.08352 0
M  V30 2157 H 208.043 -1.20128 2.99615 0
M  V30 2158 H 207.095 1.13391 3.63107 0
M  V30 2159 H 208.407 1.27597 4.82204 0
M  V30 2160 H 207.561 -0.752288 6.02018 0
M  V30 2161 H 206.3 -0.984758 4.77654 0
M  V30 2162 H 205.305 1.24637 5.35486 0
M  V30 2163 H 206.53 1.46664 6.63074 0
M  V30 2164 H 204.476 -0.774348 6.51414 0
M  V30 2165 H 204.393 0.624374 7.53417 0
M  V30 2166 H 205.661 -0.539891 7.77628 0
M  V30 2167 N 209.89 -1.43072 0.660911 0
M  V30 2168 C 210.822 -2.29108 -0.0647641 0
M  V30 2169 C 211.835 -1.42928 -0.779448 0
M  V30 2170 O 213.024 -1.66788 -0.635921 0
M  V30 2171 C 210.124 -3.20032 -1.11503 0
M  V30 2172 C 209.297 -4.34792 -0.476955 0
M  V30 2173 C 208.356 -5.06534 -1.42513 0
M  V30 2174 O 207.382 -5.61538 -0.930771 0
M  V30 2175 N 208.584 -5.1075 -2.75889 0
M  V30 2176 H 211.349 -2.92029 0.673731 0
M  V30 2177 H 208.91 -1.53846 0.50427 0
M  V30 2178 H 210.902 -3.64892 -1.75032 0
M  V30 2179 H 209.472 -2.58658 -1.75541 0
M  V30 2180 H 208.692 -3.92752 0.337572 0
M  V30 2181 H 209.98 -5.0879 -0.0318525 0
M  V30 2182 H 209.378 -4.67447 -3.18606 0
M  V30 2183 H 207.935 -5.59302 -3.347 0
M  V30 2184 N 211.368 -0.403325 -1.52352 0
M  V30 2185 C 212.598 0.17376 -2.05868 0
M  V30 2186 C 213.006 1.39898 -1.27378 0
M  V30 2187 O 212.349 1.80939 -0.31729 0
M  V30 2188 C 212.411 0.594756 -3.54546 0
M  V30 2189 C 212.075 -0.518926 -4.54044 0
M  V30 2190 C 213.072 -1.3807 -5.01231 0
M  V30 2191 C 210.757 -0.689961 -4.97539 0
M  V30 2192 C 212.751 -2.39852 -5.90551 0
M  V30 2193 C 210.438 -1.71109 -5.86656 0
M  V30 2194 C 211.436 -2.56378 -6.33056 0
M  V30 2195 O 211.124 -3.56743 -7.20409 0
M  V30 2196 H 210.856 0.0264951 -0.675481 0
M  V30 2197 H 213.41 -0.571179 -1.97299 0
M  V30 2198 H 211.64 1.39189 -3.60782 0
M  V30 2199 H 213.329 1.0991 -3.90736 0
M  V30 2200 H 214.095 -1.25994 -4.68349 0
M  V30 2201 H 209.974 -0.035939 -4.60986 0
M  V30 2202 H 213.518 -3.06441 -6.26689 0
M  V30 2203 H 209.415 -1.83218 -6.18952 0
M  V30 2204 H 210.183 -3.52918 -7.38506 0
M  V30 2205 N 212.846 1.57033 -0.133567 0
M  V30 2206 C 214.092 1.96764 0.515326 0
M  V30 2207 C 214.447 1.01653 1.63353 0
M  V30 2208 O 213.74 0.0491374 1.91537 0
M  V30 2209 C 213.934 3.40674 1.08057 0
M  V30 2210 C 213.763 4.49696 0.0186522 0
M  V30 2211 C 212.533 5.03567 -0.418174 0
M  V30 2212 C 214.731 5.08536 -0.767809 0
M  V30 2213 N 212.713 5.9618 -1.46434 0
M  V30 2214 C 214.084 5.97231 -1.6648 0
M  V30 2215 C 216.139 4.9115 -0.817087 0
M  V30 2216 C 214.842 6.70401 -2.60681 0
M  V30 2217 C 216.868 5.65012 -1.74687 0
M  V30 2218 C 216.23 6.53403 -2.63141 0
M  V30 2219 H 212.329 0.765919 0.157771 0
M  V30 2220 H 214.913 1.93395 -0.22506 0
M  V30 2221 H 213.084 3.44662 1.79061 0
M  V30 2222 H 214.816 3.67495 1.69497 0
M  V30 2223 H 211.571 4.73594 -0.0229803 0
M  V30 2224 H 211.995 6.47191 -1.98678 0
M  V30 2225 H 216.637 4.22543 -0.147326 0
M  V30 2226 H 214.355 7.38245 -3.28664 0
M  V30 2227 H 217.941 5.53559 -1.79063 0
M  V30 2228 H 216.821 7.09556 -3.33917 0
M  V30 2229 N 214.325 -0.140222 1.56975 0
M  V30 2230 C 215.55 -0.870414 1.88251 0
M  V30 2231 C 215.975 -1.73637 0.723312 0
M  V30 2232 O 215.333 -1.78329 -0.32689 0
M  V30 2233 C 215.381 -1.69737 3.18154 0
M  V30 2234 O 214.485 -2.80229 3.02565 0
M  V30 2235 H 213.826 -0.242025 0.61832 0
M  V30 2236 H 216.356 -0.128999 2.04193 0
M  V30 2237 H 216.366 -2.09099 3.50345 0
M  V30 2238 H 215.041 -1.06152 4.02125 0
M  V30 2239 H 213.618 -2.44224 2.81796 0
M  V30 2240 N 215.803 -1.52179 -0.40978 0
M  V30 2241 C 217.049 -1.66453 -1.15851 0
M  V30 2242 C 217.382 -0.392972 -1.90182 0
M  V30 2243 O 216.657 0.608579 -1.84734 0
M  V30 2244 C 216.94 -2.88612 -2.15349 0
M  V30 2245 C 216.793 -4.25815 -1.44918 0
M  V30 2246 C 218.112 -3.06294 -3.16026 0
M  V30 2247 H 215.231 -0.60575 -0.419805 0
M  V30 2248 H 217.873 -1.84732 -0.444314 0
M  V30 2249 H 216.023 -2.73158 -2.76255 0
M  V30 2250 H 217.695 -4.52995 -0.871365 0
M  V30 2251 H 215.938 -4.27247 -0.751159 0
M  V30 2252 H 216.609 -5.07337 -2.17516 0
M  V30 2253 H 219.085 -3.20641 -2.65195 0
M  V30 2254 H 217.961 -3.93283 -3.8291 0
M  V30 2255 H 218.222 -2.19579 -3.83715 0
M  V30 2256 N 217.281 0.66697 -1.42791 0
M  V30 2257 C 218.697 0.981027 -1.25889 0
M  V30 2258 C 218.897 2.00793 -0.168695 0
M  V30 2259 O 217.953 2.48321 0.45747 0
M  V30 2260 C 219.266 1.47838 -2.61848 0
M  V30 2261 C 220.814 1.59575 -2.69267 0
M  V30 2262 C 221.289 2.12704 -4.05612 0
M  V30 2263 N 222.78 2.20026 -4.07606 0
M  V30 2264 C 223.515 2.62227 -5.09926 0
M  V30 2265 N 223.011 3.03824 -6.22626 0
M  V30 2266 N 224.804 2.62045 -4.97281 0
M  V30 2267 H 216.955 -0.0127891 -2.12396 0
M  V30 2268 H 219.218 0.0568258 -0.946295 0
M  V30 2269 H 218.924 0.798299 -3.4252 0
M  V30 2270 H 218.798 2.45579 -2.86305 0
M  V30 2271 H 221.185 2.26687 -1.88936 0
M  V30 2272 H 221.266 0.60302 -2.48591 0
M  V30 2273 H 220.91 1.46198 -4.86404 0
M  V30 2274 H 220.84 3.12782 -4.23645 0
M  V30 2275 H 223.331 1.90708 -3.2625 0
M  V30 2276 H 223.644 3.34734 -6.96544 0
M  V30 2277 H 221.989 3.01662 -6.26119 0
M  V30 2278 H 225.18 2.28916 -4.08308 0
M  V30 2279 H 225.353 2.94613 -5.77154 0
M  V30 2280 N 218.759 1.29093 0.90403 0
M  V30 2281 C 220.175 1.07011 1.1841 0
M  V30 2282 C 220.375 -0.181358 2.00682 0
M  V30 2283 O 219.431 -0.880331 2.36657 0
M  V30 2284 C 220.744 2.32311 1.90924 0
M  V30 2285 C 222.292 2.37587 2.03768 0
M  V30 2286 C 222.767 3.62679 2.79693 0
M  V30 2287 N 224.258 3.63376 2.87249 0
M  V30 2288 C 224.993 4.56848 3.46522 0
M  V30 2289 N 224.489 5.60648 4.06996 0
M  V30 2290 N 226.282 4.44426 3.44154 0
M  V30 2291 H 218.433 2.09412 0.354993 0
M  V30 2292 H 220.696 0.922181 0.219742 0
M  V30 2293 H 220.402 3.23536 1.37905 0
M  V30 2294 H 220.276 2.39483 2.91424 0
M  V30 2295 H 222.663 1.46853 2.55965 0
M  V30 2296 H 222.744 2.34403 1.02415 0
M  V30 2297 H 222.388 4.53762 2.28173 0
M  V30 2298 H 222.318 3.63119 3.81381 0
M  V30 2299 H 224.809 2.88321 2.44293 0
M  V30 2300 H 225.122 6.28101 4.50232 0
M  V30 2301 H 223.467 5.64463 4.05471 0
M  V30 2302 H 226.658 3.62529 2.96126 0
M  V30 2303 H 226.831 5.17457 3.90054 0
M  V30 2304 N 220.237 -1.11381 1.11499 0
M  V30 2305 C 221.462 -1.87475 0.887019 0
M  V30 2306 C 221.887 -1.79639 -0.557796 0
M  V30 2307 O 221.245 -1.15924 -1.39396 0
M  V30 2308 C 221.293 -3.34213 1.35403 0
M  V30 2309 O 220.397 -4.0903 0.526146 0
M  V30 2310 H 219.738 -0.582099 0.319463 0
M  V30 2311 H 222.268 -1.40785 1.48461 0
M  V30 2312 H 222.278 -3.8506 1.34881 0
M  V30 2313 H 220.953 -3.39232 2.40612 0
M  V30 2314 H 219.53 -3.68082 0.597522 0
M  V30 2315 N 221.715 -0.905404 -1.28997 0
M  V30 2316 C 222.662 -0.385892 -2.27551 0
M  V30 2317 C 223.632 0.535113 -1.57244 0
M  V30 2318 O 224.817 0.459119 -1.85194 0
M  V30 2319 C 221.957 0.375461 -3.43051 0
M  V30 2320 C 221.07 -0.577092 -4.28128 0
M  V30 2321 C 220.205 0.201879 -5.30816 0
M  V30 2322 C 219.244 -0.744829 -6.07551 0
M  V30 2323 N 218.381 9.42587e-05 -7.021 0
M  V30 2324 H 223.221 -1.23139 -2.71368 0
M  V30 2325 H 220.758 -0.618542 -1.33463 0
M  V30 2326 H 222.716 0.832992 -4.088 0
M  V30 2327 H 221.346 1.18537 -3.00248 0
M  V30 2328 H 220.398 -1.15315 -3.62501 0
M  V30 2329 H 221.71 -1.30152 -4.8152 0
M  V30 2330 H 220.864 0.720351 -6.02408 0
M  V30 2331 H 219.603 0.959413 -4.7817 0
M  V30 2332 H 218.608 -1.27475 -5.34818 0
M  V30 2333 H 219.833 -1.50178 -6.62286 0
M  V30 2334 H 217.779 0.739791 -6.51815 0
M  V30 2335 H 217.696 -0.664321 -7.53076 0
M  V30 2336 H 218.964 0.498644 -7.77903 0
M  V30 2337 N 223.193 1.4272 -0.668489 0
M  V30 2338 C 224.609 1.55992 -0.33745 0
M  V30 2339 C 224.809 1.64933 1.15756 0
M  V30 2340 O 223.865 1.61278 1.94282 0
M  V30 2341 C 225.178 2.81314 -1.06222 0
M  V30 2342 C 226.726 2.95078 -1.04394 0
M  V30 2343 C 227.201 4.23252 -1.74991 0
M  V30 2344 N 228.692 4.3015 -1.71829 0
M  V30 2345 C 229.427 5.28127 -2.23315 0
M  V30 2346 N 228.923 6.32293 -2.83156 0
M  V30 2347 N 230.716 5.19882 -2.13726 0
M  V30 2348 H 222.867 1.3516 -1.63846 0
M  V30 2349 H 225.13 0.650174 -0.689912 0
M  V30 2350 H 224.836 2.80823 -2.11734 0
M  V30 2351 H 224.71 3.72012 -0.62344 0
M  V30 2352 H 227.097 2.951 0.0028244 0
M  V30 2353 H 227.178 2.05627 -1.52155 0
M  V30 2354 H 226.822 4.2399 -2.79633 0
M  V30 2355 H 226.752 5.11626 -1.24685 0
M  V30 2356 H 229.243 3.55499 -1.28175 0
M  V30 2357 H 229.556 7.03398 -3.20079 0
M  V30 2358 H 227.901 6.32873 -2.87223 0
M  V30 2359 H 231.092 4.37423 -1.66669 0
M  V30 2360 H 231.265 5.96077 -2.54158 0
M  V30 2361 N 224.671 0.411399 1.52136 0
M  V30 2362 C 225.899 -0.163076 2.06256 0
M  V30 2363 C 226.314 -1.3867 1.28125 0
M  V30 2364 O 225.671 -1.79423 0.333721 0
M  V30 2365 C 225.722 -0.511252 3.57867 0
M  V30 2366 O 225.443 0.66378 4.33042 0
M  V30 2367 C 226.944 -1.13921 4.28412 0
M  V30 2368 H 224.164 -0.0193897 0.67072 0
M  V30 2369 H 226.708 0.583007 1.96013 0
M  V30 2370 H 224.863 -1.20723 3.6811 0
M  V30 2371 H 225.277 0.372601 5.23175 0
M  V30 2372 H 226.751 -1.33302 5.35663 0
M  V30 2373 H 227.228 -2.11296 3.85033 0
M  V30 2374 H 227.834 -0.483373 4.22544 0
M  V30 2375 N 226.149 -1.5696 0.141893 0
M  V30 2376 C 227.374 -2.00754 -0.520838 0
M  V30 2377 C 227.799 -1.0213 -1.57959 0
M  V30 2378 O 227.157 0.00371324 -1.813 0
M  V30 2379 C 227.205 -3.43318 -1.10294 0
M  V30 2380 O 226.309 -3.47679 -2.21795 0
M  V30 2381 H 225.65 -0.651564 -0.127908 0
M  V30 2382 H 228.18 -2.03221 0.23712 0
M  V30 2383 H 228.19 -3.82012 -1.43287 0
M  V30 2384 H 226.865 -4.14608 -0.327574 0
M  V30 2385 H 225.442 -3.20824 -1.9007 0
M  V30 2386 N 227.627 0.131896 -1.57047 0
M  V30 2387 C 228.875 0.840269 -1.83804 0
M  V30 2388 C 229.196 1.81017 -0.72512 0
M  V30 2389 O 228.466 1.94272 0.251995 0
M  V30 2390 H 227.046 0.313294 -0.678127 0
M  V30 2391 H 229.708 0.122294 -1.94516 0
M  V30 2392 H 228.804 1.39335 -2.79271 0
M  V30 2393 N 229.106 1.52395 0.401703 0
M  V30 2394 C 230.334 1.70676 1.16949 0
M  V30 2395 C 230.749 0.419503 1.8408 0
M  V30 2396 O 230.106 -0.605061 1.72178 0
M  V30 2397 C 230.157 2.84753 2.22706 0
M  V30 2398 O 229.878 4.08495 1.58314 0
M  V30 2399 C 231.379 3.14608 3.12309 0
M  V30 2400 H 228.599 0.571787 0.351142 0
M  V30 2401 H 231.143 1.98987 0.471652 0
M  V30 2402 H 229.298 2.58941 2.88147 0
M  V30 2403 H 229.712 4.72117 2.28485 0
M  V30 2404 H 231.186 3.97923 3.82572 0
M  V30 2405 H 231.663 2.28464 3.75101 0
M  V30 2406 H 232.269 3.42212 2.52529 0
M  V30 2407 N 230.584 -0.659388 1.43143 0
M  V30 2408 C 231.833 -1.41518 1.43721 0
M  V30 2409 C 232.146 -1.95499 0.0628176 0
M  V30 2410 O 233.352 -2.71446 -0.0539683 0
M  V30 2411 C 231.808 -2.5608 2.52885 0
M  V30 2412 C 231.416 -2.08733 3.96402 0
M  V30 2413 C 233.16 -3.3349 2.62649 0
M  V30 2414 C 231.067 -3.20469 4.97045 0
M  V30 2415 H 229.997 -0.531705 0.534608 0
M  V30 2416 H 232.648 -0.712343 1.69109 0
M  V30 2417 H 231.03 -3.28805 2.20688 0
M  V30 2418 H 232.204 -1.43059 4.3803 0
M  V30 2419 H 230.519 -1.44219 3.90627 0
M  V30 2420 H 233.116 -4.16734 3.35017 0
M  V30 2421 H 233.459 -3.8111 1.67513 0
M  V30 2422 H 233.992 -2.67842 2.94118 0
M  V30 2423 H 230.731 -2.77824 5.93712 0
M  V30 2424 H 230.251 -3.84874 4.60034 0
M  V30 2425 H 231.93 -3.85698 5.19467 0
M  V30 2426 N 232.062 -1.29571 -0.897171 0
M  V30 2427 C 233.287 -1.20705 -1.68656 0
M  V30 2428 C 233.712 0.228582 -1.86706 0
M  V30 2429 O 233.07 1.16494 -1.3892 0
M  V30 2430 C 233.118 -1.9282 -3.04717 0
M  V30 2431 O 232.222 -1.24697 -3.93096 0
M  V30 2432 H 231.563 -0.418126 -0.515816 0
M  V30 2433 H 234.093 -1.71183 -1.12061 0
M  V30 2434 H 234.103 -2.01372 -3.54843 0
M  V30 2435 H 232.778 -2.97239 -2.90899 0
M  V30 2436 H 231.355 -1.2442 -3.51531 0
M  V30 2437 N 233.54 1.10788 -1.12088 0
M  V30 2438 C 234.786 1.82942 -0.875226 0
M  V30 2439 C 235.119 1.84779 0.597538 0
M  V30 2440 O 234.394 1.30578 1.44152 0
M  V30 2441 C 234.677 3.29789 -1.44606 0
M  V30 2442 C 234.53 3.36307 -2.98693 0
M  V30 2443 C 235.849 4.26064 -1.10261 0
M  V30 2444 H 232.968 0.664195 -0.319397 0
M  V30 2445 H 235.61 1.29867 -1.38689 0
M  V30 2446 H 233.76 3.75118 -1.01089 0
M  V30 2447 H 235.432 2.99487 -3.50864 0
M  V30 2448 H 233.675 2.76318 -3.34411 0
M  V30 2449 H 234.346 4.39694 -3.33726 0
M  V30 2450 H 236.822 3.88951 -1.4784 0
M  V30 2451 H 235.698 5.27183 -1.52869 0
M  V30 2452 H 235.959 4.42098 -0.0142953 0
M  V30 2453 N 235.018 0.912232 1.28515 0
M  V30 2454 C 236.243 0.559774 1.99703 0
M  V30 2455 C 236.668 -0.851393 1.67729 0
M  V30 2456 O 236.026 -1.56875 0.908834 0
M  V30 2457 C 236.074 0.773874 3.52198 0
M  V30 2458 O 235.178 -0.167842 4.12058 0
M  V30 2459 H 234.519 0.21723 0.627461 0
M  V30 2460 H 237.049 1.22725 1.63706 0
M  V30 2461 H 237.059 0.683386 4.02236 0
M  V30 2462 H 235.734 1.80261 3.74805 0
M  V30 2463 H 234.311 -0.0287509 3.72889 0
M  V30 2464 N 236.496 -1.42363 0.676048 0
M  V30 2465 C 237.444 -2.32596 -0.0131507 0
M  V30 2466 C 238.438 -1.49891 -0.789238 0
M  V30 2467 O 239.644 -1.65955 -0.697061 0
M  V30 2468 H 236.019 -0.751647 -0.0230481 0
M  V30 2469 H 237.99 -2.88421 0.765243 0
M  V30 2470 C 236.739 -3.34479 -0.949702 0
M  V30 2471 H 236.062 -3.98158 -0.361938 0
M  V30 2472 H 237.502 -4.00199 -1.4006 0
M  V30 2473 C 235.961 -2.66838 -2.05667 0
M  V30 2474 O 236.491 -2.50124 -3.14326 0
M  V30 2475 N 234.697 -2.25843 -1.82875 0
M  V30 2476 H 234.244 -2.39637 -0.945085 0
M  V30 2477 H 234.202 -1.80918 -2.5713 0
M  V30 2478 N 237.974 -0.419461 -1.51915 0
M  V30 2479 C 238.924 0.418496 -2.24126 0
M  V30 2480 C 239.908 1.00495 -1.25656 0
M  V30 2481 O 241.1 0.926058 -1.50842 0
M  V30 2482 C 238.229 1.52899 -3.07371 0
M  V30 2483 C 237.315 0.952797 -4.13258 0
M  V30 2484 N 237.706 0.104175 -5.05693 0
M  V30 2485 C 236.004 1.22224 -4.28926 0
M  V30 2486 C 236.705 -0.21752 -5.81293 0
M  V30 2487 N 235.681 0.394293 -5.42168 0
M  V30 2488 H 239.483 -0.236048 -2.92951 0
M  V30 2489 H 236.997 -0.230481 -1.60756 0
M  V30 2490 H 238.994 2.14199 -3.57665 0
M  V30 2491 H 237.654 2.18605 -2.40088 0
M  V30 2492 H 238.665 -0.260924 -5.17242 0
M  V30 2493 H 235.342 1.87812 -3.72871 0
M  V30 2494 H 236.732 -0.906992 -6.6575 0
M  V30 2495 N 239.452 1.56882 -0.150215 0
M  V30 2496 C 240.699 1.96228 0.500093 0
M  V30 2497 C 241.027 1.03522 1.64661 0
M  V30 2498 O 240.282 0.0650683 1.95592 0
M  V30 2499 C 240.581 3.41801 1.04437 0
M  V30 2500 C 240.247 4.50897 0.0159671 0
M  V30 2501 C 238.909 4.8046 -0.266731 0
M  V30 2502 C 241.261 5.16703 -0.683192 0
M  V30 2503 C 238.589 5.73135 -1.25434 0
M  V30 2504 C 240.941 6.10441 -1.65964 0
M  V30 2505 C 239.605 6.38382 -1.95 0
M  V30 2506 H 238.875 0.718048 0.182997 0
M  V30 2507 H 241.522 1.90019 -0.237724 0
M  V30 2508 H 239.827 3.44857 1.85959 0
M  V30 2509 H 241.524 3.69573 1.55618 0
M  V30 2510 H 238.114 4.27891 0.246485 0
M  V30 2511 H 242.298 4.93993 -0.477983 0
M  V30 2512 H 237.554 5.93074 -1.48571 0
M  V30 2513 H 241.728 6.60507 -2.20689 0
M  V30 2514 H 239.355 7.09996 -2.71679 0
M  V30 2515 N 240.93 -0.123565 1.57115 0
M  V30 2516 C 242.346 -0.476961 1.52306 0
M  V30 2517 C 242.546 -1.82109 0.86248 0
M  V30 2518 O 241.602 -2.48586 0.442884 0
M  V30 2519 C 242.915 -0.465661 2.97073 0
M  V30 2520 C 244.463 -0.549534 3.08138 0
M  V30 2521 C 244.938 -0.568669 4.54456 0
M  V30 2522 N 246.429 -0.630237 4.58892 0
M  V30 2523 C 247.164 -0.666415 5.69514 0
M  V30 2524 N 246.66 -0.660514 6.89644 0
M  V30 2525 N 248.453 -0.709077 5.5761 0
M  V30 2526 H 240.604 0.757198 1.98445 0
M  V30 2527 H 242.867 0.278808 0.906074 0
M  V30 2528 H 242.573 0.454232 3.48754 0
M  V30 2529 H 242.447 -1.29513 3.54269 0
M  V30 2530 H 244.834 -1.45985 2.56461 0
M  V30 2531 H 244.915 0.307532 2.53945 0
M  V30 2532 H 244.559 0.337581 5.06777 0
M  V30 2533 H 244.489 -1.44256 5.06456 0
M  V30 2534 H 246.98 -0.641146 3.72421 0
M  V30 2535 H 247.293 -0.690616 7.69708 0
M  V30 2536 H 245.638 -0.628012 6.92157 0
M  V30 2537 H 248.829 -0.711019 4.62668 0
M  V30 2538 H 249.002 -0.733804 6.43832 0
M  V30 2539 N 242.408 -1.52605 -0.393616 0
M  V30 2540 C 243.371 -1.76415 -1.46323 0
M  V30 2541 C 244.371 -0.634126 -1.47768 0
M  V30 2542 O 245.561 -0.902142 -1.4902 0
M  V30 2543 C 242.693 -1.8607 -2.85641 0
M  V30 2544 H 243.886 -2.71916 -1.26498 0
M  V30 2545 H 241.439 -1.43257 -0.625073 0
M  V30 2546 H 242.174 -0.925378 -3.10817 0
M  V30 2547 H 241.959 -2.68235 -2.85993 0
M  V30 2548 H 243.449 -2.06179 -3.63153 0
M  V30 2549 N 243.887 0.651787 -1.4349 0
M  V30 2550 C 245.133 1.4121 -1.46395 0
M  V30 2551 C 245.488 1.92202 -0.087366 0
M  V30 2552 O 244.781 1.69452 0.894231 0
M  V30 2553 C 244.975 2.60914 -2.44251 0
M  V30 2554 C 244.804 2.21639 -3.91288 0
M  V30 2555 C 243.574 2.09897 -4.59643 0
M  V30 2556 C 245.772 1.81835 -4.81083 0
M  V30 2557 N 243.754 1.63967 -5.91598 0
M  V30 2558 C 245.125 1.46998 -6.02322 0
M  V30 2559 C 247.18 1.69031 -4.6833 0
M  V30 2560 C 245.883 1.00638 -7.12225 0
M  V30 2561 C 247.909 1.24077 -5.78238 0
M  V30 2562 C 247.271 0.901772 -6.98604 0
M  V30 2563 H 243.37 0.512322 -0.590805 0
M  V30 2564 H 245.954 0.74989 -1.7968 0
M  V30 2565 H 244.125 3.24792 -2.1299 0
M  V30 2566 H 245.857 3.27622 -2.37584 0
M  V30 2567 H 242.612 2.297 -4.14168 0
M  V30 2568 H 243.036 1.43359 -6.61647 0
M  V30 2569 H 247.678 1.93878 -3.75727 0
M  V30 2570 H 245.396 0.745399 -8.04655 0
M  V30 2571 H 248.982 1.14657 -5.7039 0
M  V30 2572 H 247.862 0.559226 -7.82203 0
M  V30 2573 N 245.365 1.30045 0.890287 0
M  V30 2574 C 246.275 1.17885 2.02831 0
M  V30 2575 C 247.291 0.0999609 1.73713 0
M  V30 2576 O 248.467 0.313867 1.98939 0
M  V30 2577 C 245.532 0.866079 3.35708 0
M  V30 2578 C 244.593 2.02979 3.78283 0
M  V30 2579 C 243.826 1.73184 5.0482 0
M  V30 2580 O 244.049 0.657237 5.66601 0
M  V30 2581 O 242.983 2.58267 5.43674 0
M  V30 2582 H 246.809 2.13474 2.16015 0
M  V30 2583 H 244.394 1.09587 1.01543 0
M  V30 2584 H 246.276 0.706623 4.15433 0
M  V30 2585 H 244.951 -0.0599443 3.23644 0
M  V30 2586 H 243.858 2.24454 2.99285 0
M  V30 2587 H 245.191 2.93734 3.94944 0
M  V30 2588 N 246.843 -1.10192 1.12674 0
M  V30 2589 C 247.791 -2.18694 0.792196 0
M  V30 2590 C 248.785 -1.67938 -0.222058 0
M  V30 2591 O 249.991 -1.79822 -0.0800074 0
M  V30 2592 H 246.366 -0.713223 0.238364 0
M  V30 2593 H 248.337 -2.44149 1.71564 0
M  V30 2594 C 247.086 -3.46682 0.265859 0
M  V30 2595 H 246.409 -3.86101 1.03761 0
M  V30 2596 H 247.849 -4.23942 0.0701128 0
M  V30 2597 C 246.308 -3.21506 -1.00675 0
M  V30 2598 O 246.838 -3.43408 -2.08408 0
M  V30 2599 N 245.044 -2.75158 -0.934692 0
M  V30 2600 H 244.591 -2.57535 -0.0578604 0
M  V30 2601 H 244.549 -2.58691 -1.7868 0
M  V30 2602 N 248.321 -0.919034 -1.28029 0
M  V30 2603 C 249.251 -0.428581 -2.29533 0
M  V30 2604 C 250.232 0.50659 -1.62381 0
M  V30 2605 O 251.417 0.413195 -1.89753 0
M  V30 2606 C 248.547 0.327388 -3.45753 0
M  V30 2607 C 247.501 -0.519137 -4.2484 0
M  V30 2608 C 246.827 0.365486 -5.33449 0
M  V30 2609 C 248.127 -1.77914 -4.91064 0
M  V30 2610 H 249.821 -1.27687 -2.70807 0
M  V30 2611 H 247.367 -0.615428 -1.30186 0
M  V30 2612 H 249.32 0.681378 -4.15855 0
M  V30 2613 H 248.044 1.20963 -3.03374 0
M  V30 2614 H 246.703 -0.855717 -3.56473 0
M  V30 2615 H 246.351 1.24642 -4.87312 0
M  V30 2616 H 246.051 -0.197356 -5.87268 0
M  V30 2617 H 247.575 0.715241 -6.06396 0
M  V30 2618 H 248.989 -1.49374 -5.53498 0
M  V30 2619 H 247.386 -2.2848 -5.54903 0
M  V30 2620 H 248.456 -2.50382 -4.15255 0
M  V30 2621 N 249.799 1.42003 -0.683588 0
M  V30 2622 C 251.047 2.01015 -0.209101 0
M  V30 2623 C 251.368 1.54365 1.19149 0
M  V30 2624 O 250.638 0.769083 1.80172 0
M  V30 2625 H 249.218 0.743294 -0.074315 0
M  V30 2626 H 251.88 1.73798 -0.882066 0
M  V30 2627 H 250.976 3.11343 -0.2172 0
M  V30 2628 N 251.277 0.427512 1.51691 0
M  V30 2629 C 252.21 -0.433876 2.24037 0
M  V30 2630 C 253.188 -1.03287 1.25581 0
M  V30 2631 O 254.372 -1.07722 1.54688 0
M  V30 2632 C 251.499 -1.60385 2.98319 0
M  V30 2633 C 250.545 -1.12648 4.11355 0
M  V30 2634 S 251.378 -0.076543 5.35445 0
M  V30 2635 C 252.534 -1.25141 6.13262 0
M  V30 2636 H 252.767 0.180367 2.96752 0
M  V30 2637 H 250.3 0.211946 1.52938 0
M  V30 2638 H 252.258 -2.27462 3.41718 0
M  V30 2639 H 250.919 -2.18948 2.25213 0
M  V30 2640 H 250.112 -2.0011 4.62571 0
M  V30 2641 H 249.714 -0.534088 3.70167 0
M  V30 2642 H 252.006 -2.17162 6.41753 0
M  V30 2643 H 252.949 -0.779411 7.03797 0
M  V30 2644 H 253.357 -1.48553 5.44603 0
M  V30 2645 N 252.755 -1.56801 0.158532 0
M  V30 2646 C 253.703 -2.18638 -0.793729 0
M  V30 2647 C 254.697 -1.14669 -1.24689 0
M  V30 2648 O 255.903 -1.32895 -1.21403 0
M  V30 2649 H 252.278 -0.700226 -0.274204 0
M  V30 2650 H 254.249 -2.97367 -0.248095 0
M  V30 2651 C 252.998 -2.83139 -2.0181 0
M  V30 2652 H 252.321 -3.62863 -1.67841 0
M  V30 2653 H 253.761 -3.29894 -2.66357 0
M  V30 2654 C 252.22 -1.82244 -2.83353 0
M  V30 2655 O 252.75 -1.3 -3.80083 0
M  V30 2656 N 250.956 -1.51288 -2.48114 0
M  V30 2657 H 250.503 -1.93964 -1.69516 0
M  V30 2658 H 250.461 -0.840296 -3.02963 0
M  V30 2659 N 254.233 0.115231 -1.57178 0
M  V30 2660 C 255.166 1.17166 -1.95825 0
M  V30 2661 C 256.144 1.39912 -0.828463 0
M  V30 2662 O 257.328 1.54004 -1.08697 0
M  V30 2663 C 254.455 2.52478 -2.25771 0
M  V30 2664 C 253.501 2.46136 -3.48309 0
M  V30 2665 S 254.334 1.89736 -5.0076 0
M  V30 2666 C 255.49 3.26713 -5.33863 0
M  V30 2667 H 255.723 0.842103 -2.85124 0
M  V30 2668 H 253.256 0.322136 -1.51002 0
M  V30 2669 H 255.214 3.30332 -2.43702 0
M  V30 2670 H 253.875 2.82609 -1.37079 0
M  V30 2671 H 253.068 3.45819 -3.66641 0
M  V30 2672 H 252.67 1.76404 -3.29784 0
M  V30 2673 H 254.962 4.22935 -5.29275 0
M  V30 2674 H 255.905 3.13205 -6.35065 0
M  V30 2675 H 256.313 3.25316 -4.61335 0
M  V30 2676 N 255.711 1.52812 0.385517 0
M  V30 2677 C 256.959 1.67694 1.12797 0
M  V30 2678 C 257.28 0.421115 1.90399 0
M  V30 2679 O 256.55 -0.564551 1.87589 0
M  V30 2680 H 255.13 0.618155 0.419396 0
M  V30 2681 H 257.792 1.89938 0.436972 0
M  V30 2682 H 256.888 2.52896 1.82894 0
M  V30 2683 N 257.189 -0.644168 1.43834 0
M  V30 2684 C 258.136 -1.75671 1.49694 0
M  V30 2685 C 259.106 -1.6246 0.345809 0
M  V30 2686 O 260.291 -1.82573 0.554234 0
M  V30 2687 C 257.431 -3.13867 1.43463 0
M  V30 2688 C 256.544 -3.38147 2.6885 0
M  V30 2689 C 255.679 -4.66241 2.54544 0
M  V30 2690 C 254.718 -4.83657 3.75157 0
M  V30 2691 N 253.855 -6.03016 3.59605 0
M  V30 2692 H 258.695 -1.69998 2.44754 0
M  V30 2693 H 256.232 -0.829458 1.21484 0
M  V30 2694 H 258.19 -3.9377 1.37843 0
M  V30 2695 H 256.82 -3.18588 0.519783 0
M  V30 2696 H 255.872 -2.52276 2.84712 0
M  V30 2697 H 257.184 -3.46899 3.58417 0
M  V30 2698 H 256.338 -5.54285 2.46683 0
M  V30 2699 H 255.077 -4.59826 1.62516 0
M  V30 2700 H 254.082 -3.94046 3.83416 0
M  V30 2701 H 255.307 -4.91896 4.68204 0
M  V30 2702 H 253.253 -5.97715 2.7032 0
M  V30 2703 H 253.17 -6.12766 4.42779 0
M  V30 2704 H 254.438 -6.93657 3.55613 0
M  V30 2705 N 258.668 -1.30515 -0.883378 0
M  V30 2706 C 259.601 -1.11359 -1.99184 0
M  V30 2707 C 260.579 -0.0207858 -1.62587 0
M  V30 2708 O 261.763 -0.174646 -1.87689 0
M  V30 2709 C 258.89 -0.69871 -3.31415 0
M  V30 2710 C 257.936 -1.79261 -3.86998 0
M  V30 2711 S 258.769 -3.39536 -4.14096 0
M  V30 2712 C 259.925 -2.99954 -5.49344 0
M  V30 2713 H 260.158 -2.052 -2.15128 0
M  V30 2714 H 257.691 -1.14847 -1.03196 0
M  V30 2715 H 259.649 -0.466075 -4.07846 0
M  V30 2716 H 258.31 0.220368 -3.13326 0
M  V30 2717 H 257.503 -1.45464 -4.82552 0
M  V30 2718 H 257.105 -1.97961 -3.17313 0
M  V30 2719 H 259.397 -2.48013 -6.30473 0
M  V30 2720 H 260.34 -3.9442 -5.8808 0
M  V30 2721 H 260.748 -2.37775 -5.1198 0
M  V30 2722 N 260.146 1.09593 -1.13257 0
M  V30 2723 C 261.376 1.85231 -0.915049 0
M  V30 2724 C 261.784 1.81345 0.539498 0
M  V30 2725 O 261.127 1.20664 1.38513 0
M  V30 2726 C 261.189 3.34275 -1.3229 0
M  V30 2727 C 260.853 3.6191 -2.79052 0
M  V30 2728 C 261.85 3.57777 -3.77216 0
M  V30 2729 C 259.535 3.90309 -3.16171 0
M  V30 2730 C 261.529 3.81652 -5.1051 0
M  V30 2731 C 259.216 4.13839 -4.49644 0
M  V30 2732 C 260.214 4.09502 -5.46623 0
M  V30 2733 O 259.902 4.32426 -6.77689 0
M  V30 2734 H 259.634 0.591997 -0.326367 0
M  V30 2735 H 262.188 1.394 -1.50854 0
M  V30 2736 H 260.418 3.80805 -0.672667 0
M  V30 2737 H 262.107 3.9132 -1.07812 0
M  V30 2738 H 262.873 3.35865 -3.49885 0
M  V30 2739 H 258.752 3.92811 -2.41289 0
M  V30 2740 H 262.296 3.78182 -5.86195 0
M  V30 2741 H 258.193 4.35232 -4.767 0
M  V30 2742 H 258.961 4.49896 -6.83766 0
M  V30 2743 N 261.624 0.925811 1.2754 0
M  V30 2744 C 262.534 0.428993 2.30644 0
M  V30 2745 C 263.55 -0.489387 1.66976 0
M  V30 2746 O 264.726 -0.372653 1.97922 0
M  V30 2747 C 261.791 -0.311967 3.45294 0
M  V30 2748 C 260.852 0.641098 4.24486 0
M  V30 2749 C 260.085 -0.0645955 5.33661 0
M  V30 2750 O 260.308 -1.28429 5.55754 0
M  V30 2751 O 259.242 0.606265 5.98839 0
M  V30 2752 H 263.068 1.28504 2.75173 0
M  V30 2753 H 260.653 0.691086 1.32455 0
M  V30 2754 H 262.535 -0.729972 4.15029 0
M  V30 2755 H 261.21 -1.14365 3.02824 0
M  V30 2756 H 260.117 1.10874 3.57292 0
M  V30 2757 H 261.45 1.43995 4.70666 0
M  V30 2758 N 263.102 -1.41638 0.69111 0
M  V30 2759 C 264.348 -2.01598 0.220519 0
M  V30 2760 C 264.681 -1.54594 -1.17535 0
M  V30 2761 O 263.956 -0.755177 -1.79241 0
M  V30 2762 C 264.239 -3.59062 0.273243 0
M  V30 2763 C 264.092 -4.16203 1.70573 0
M  V30 2764 C 265.411 -4.38546 -0.369457 0
M  V30 2765 H 262.53 -0.732468 0.0816045 0
M  V30 2766 H 265.172 -1.68445 0.878986 0
M  V30 2767 H 263.322 -3.87435 -0.287411 0
M  V30 2768 H 264.994 -3.98722 2.31989 0
M  V30 2769 H 263.237 -3.71414 2.2413 0
M  V30 2770 H 263.908 -5.25358 1.69419 0
M  V30 2771 H 266.384 -4.1596 0.107977 0
M  V30 2772 H 265.26 -5.48069 -0.302002 0
M  V30 2773 H 265.521 -4.17662 -1.44951 0
M  V30 2774 N 264.58 -0.43555 -1.51462 0
M  V30 2775 C 265.543 0.365137 -2.26273 0
M  V30 2776 C 266.543 0.951227 -1.29647 0
M  V30 2777 O 267.733 0.825958 -1.53374 0
M  V30 2778 C 264.865 1.51645 -3.05314 0
M  V30 2779 H 266.058 -0.290474 -2.9849 0
M  V30 2780 H 263.611 -0.188676 -1.55157 0
M  V30 2781 H 264.346 2.20816 -2.3751 0
M  V30 2782 H 264.131 1.10238 -3.76284 0
M  V30 2783 H 265.621 2.08218 -3.61987 0
M  V30 2784 N 266.058 1.56714 -0.166846 0
M  V30 2785 C 266.988 2.20754 0.760913 0
M  V30 2786 C 267.969 1.16178 1.24244 0
M  V30 2787 O 269.154 1.44592 1.29641 0
M  V30 2788 C 266.284 2.84478 1.99223 0
M  V30 2789 C 265.238 3.95053 1.64672 0
M  V30 2790 C 264.564 4.45805 2.95232 0
M  V30 2791 C 265.864 5.14865 0.878155 0
M  V30 2792 H 267.558 2.98537 0.22713 0
M  V30 2793 H 265.104 1.43596 0.107805 0
M  V30 2794 H 267.057 3.27951 2.64624 0
M  V30 2795 H 265.781 2.04056 2.55007 0
M  V30 2796 H 264.44 3.52228 1.01641 0
M  V30 2797 H 264.088 3.62181 3.49047 0
M  V30 2798 H 263.788 5.204 2.7287 0
M  V30 2799 H 265.312 4.91962 3.6167 0
M  V30 2800 H 266.726 5.55059 1.43466 0
M  V30 2801 H 265.123 5.95348 0.753738 0
M  V30 2802 H 266.193 4.84735 -0.126377 0
M  V30 2803 N 267.536 -0.106894 1.57237 0
M  V30 2804 C 268.764 -0.826389 1.8968 0
M  V30 2805 C 269.179 -1.72856 0.759353 0
M  V30 2806 O 268.536 -1.80503 -0.269263 0
M  V30 2807 C 268.587 -1.64967 3.21665 0
M  V30 2808 O 268.308 -0.783804 4.31031 0
M  V30 2809 C 269.809 -2.47326 3.67892 0
M  V30 2810 H 267.029 -0.236927 0.627779 0
M  V30 2811 H 269.573 -0.0876593 2.04312 0
M  V30 2812 H 267.728 -2.34103 3.08666 0
M  V30 2813 H 268.142 -1.35284 5.06753 0
M  V30 2814 H 269.616 -3.00604 4.6297 0
M  V30 2815 H 270.093 -3.25247 2.95146 0
M  V30 2816 H 270.699 -1.83411 3.83719 0
M  V30 2817 N 269.014 -1.53014 -0.377408 0
M  V30 2818 C 270.26 -1.68872 -1.12294 0
M  V30 2819 C 270.593 -0.433224 -1.89306 0
M  V30 2820 O 269.868 0.569258 -1.85983 0
M  V30 2821 C 270.151 -2.93115 -2.09179 0
M  V30 2822 C 270.004 -4.28794 -1.35853 0
M  V30 2823 C 271.323 -3.12928 -3.09458 0
M  V30 2824 H 268.442 -0.614518 -0.406862 0
M  V30 2825 H 271.084 -1.85633 -0.40503 0
M  V30 2826 H 269.234 -2.78956 -2.70399 0
M  V30 2827 H 270.906 -4.54742 -0.775082 0
M  V30 2828 H 269.149 -4.28744 -0.660364 0
M  V30 2829 H 269.82 -5.11837 -2.06706 0
M  V30 2830 H 272.296 -3.26194 -2.58334 0
M  V30 2831 H 271.172 -4.01316 -3.74482 0
M  V30 2832 H 271.433 -2.27669 -3.78971 0
M  V30 2833 N 270.492 0.636531 -1.44174 0
M  V30 2834 C 271.402 1.77754 -1.53103 0
M  V30 2835 C 272.418 1.68928 -0.417034 0
M  V30 2836 O 273.594 1.89801 -0.6736 0
M  V30 2837 C 270.659 3.14115 -1.46741 0
M  V30 2838 C 269.72 3.34612 -2.68948 0
M  V30 2839 C 268.953 4.64467 -2.6288 0
M  V30 2840 O 269.176 5.44919 -1.68581 0
M  V30 2841 O 268.11 4.87049 -3.53648 0
M  V30 2842 H 271.936 1.73174 -2.49489 0
M  V30 2843 H 269.521 0.79709 -1.2636 0
M  V30 2844 H 271.403 3.95412 -1.45696 0
M  V30 2845 H 270.078 3.19249 -0.534975 0
M  V30 2846 H 268.985 2.53014 -2.75562 0
M  V30 2847 H 270.318 3.34336 -3.61221 0
M  V30 2848 N 271.97 1.30982 0.876444 0
M  V30 2849 C 273.218 1.20058 1.62575 0
M  V30 2850 C 273.539 -0.242947 1.93481 0
M  V30 2851 O 272.809 -1.1619 1.57724 0
M  V30 2852 H 271.389 0.44135 0.602677 0
M  V30 2853 H 274.051 1.64222 1.04962 0
M  V30 2854 H 273.147 1.76762 2.57219 0
M  V30 2855 N 273.449 -1.08991 1.13837 0
M  V30 2856 C 274.679 -1.84743 0.924859 0
M  V30 2857 C 275.087 -1.81629 -0.529874 0
M  V30 2858 O 274.43 -1.21397 -1.37872 0
M  V30 2859 C 274.492 -3.33568 1.34061 0
M  V30 2860 C 274.156 -3.60425 2.80968 0
M  V30 2861 C 275.153 -3.55771 3.79108 0
M  V30 2862 C 272.838 -3.88627 3.18236 0
M  V30 2863 C 274.832 -3.78939 5.12527 0
M  V30 2864 C 272.519 -4.11449 4.51833 0
M  V30 2865 C 273.517 -4.06598 5.48787 0
M  V30 2866 O 273.205 -4.28826 6.79973 0
M  V30 2867 H 272.937 -0.590258 0.329502 0
M  V30 2868 H 275.491 -1.38598 1.51591 0
M  V30 2869 H 273.721 -3.80442 0.692853 0
M  V30 2870 H 275.41 -3.90743 1.09886 0
M  V30 2871 H 276.176 -3.34005 3.51661 0
M  V30 2872 H 272.055 -3.91526 2.43369 0
M  V30 2873 H 275.599 -3.75068 5.88192 0
M  V30 2874 H 271.496 -4.32698 4.79002 0
M  V30 2875 H 272.264 -4.46264 6.86142 0
M  V30 2876 N 274.927 -0.932562 -1.27047 0
M  V30 2877 C 275.859 -0.392734 -2.2581 0
M  V30 2878 C 276.872 0.479241 -1.55586 0
M  V30 2879 O 278.061 0.291078 -1.76111 0
M  V30 2880 C 275.161 0.455456 -3.35826 0
M  V30 2881 C 274.334 -0.398355 -4.35582 0
M  V30 2882 C 273.393 0.387985 -5.24768 0
M  V30 2883 O 272.419 -0.206003 -5.68827 0
M  V30 2884 N 273.621 1.68664 -5.55457 0
M  V30 2885 H 276.386 -1.24173 -2.72766 0
M  V30 2886 H 273.947 -0.800511 -1.40725 0
M  V30 2887 H 275.939 0.988692 -3.92437 0
M  V30 2888 H 274.509 1.20522 -2.88432 0
M  V30 2889 H 273.729 -1.11286 -3.78165 0
M  V30 2890 H 275.017 -0.981889 -4.99236 0
M  V30 2891 H 274.415 2.19147 -5.21528 0
M  V30 2892 H 272.972 2.1663 -6.14748 0
M  V30 2893 N 276.405 1.4127 -0.698611 0
M  V30 2894 C 277.63 2.06024 -0.238512 0
M  V30 2895 C 278.055 1.5224 1.10475 0
M  V30 2896 O 277.413 0.650623 1.69223 0
M  V30 2897 C 277.461 3.59988 -0.209952 0
M  V30 2898 O 276.565 4.04282 0.814235 0
M  V30 2899 H 275.906 0.653829 -0.115775 0
M  V30 2900 H 278.436 1.8098 -0.954326 0
M  V30 2901 H 278.446 4.07979 -0.0418436 0
M  V30 2902 H 277.121 3.98503 -1.1903 0
M  V30 2903 H 275.698 3.6779 0.615234 0
M  V30 2904 N 277.883 0.443576 1.51229 0
M  V30 2905 C 279.108 -0.121648 2.07043 0
M  V30 2906 C 279.533 -1.35156 1.30823 0
M  V30 2907 O 278.891 -1.7793 0.347934 0
M  V30 2908 C 278.939 -0.41624 3.5819 0
M  V30 2909 O 278.043 -1.50163 3.8409 0
M  V30 2910 H 277.384 0.000871367 0.663999 0
M  V30 2911 H 279.914 0.626706 1.94765 0
M  V30 2912 H 279.924 -0.664867 4.02546 0
M  V30 2913 H 278.599 0.482653 4.1309 0
M  V30 2914 H 277.176 -1.24248 3.51592 0
M  V30 2915 N 279.361 -1.56624 0.175154 0
M  V30 2916 C 280.609 -1.96609 -0.467885 0
M  V30 2917 C 280.93 -1.06238 -1.63519 0
M  V30 2918 O 280.2 -0.129523 -1.95471 0
M  V30 2919 H 278.78 -0.726008 -0.175845 0
M  V30 2920 H 281.442 -1.93195 0.257234 0
M  V30 2921 H 280.538 -3.00989 -0.825342 0
M  V30 2922 N 280.839 0.0985539 -1.57292 0
M  V30 2923 C 282.064 0.820196 -1.90493 0
M  V30 2924 C 282.489 1.71658 -0.769094 0
M  V30 2925 O 281.847 1.79133 0.279495 0
M  V30 2926 C 281.895 1.61242 -3.22542 0
M  V30 2927 O 280.999 2.72108 -3.09888 0
M  V30 2928 H 280.34 0.225547 -0.62452 0
M  V30 2929 H 282.87 0.0748159 -2.04463 0
M  V30 2930 H 282.88 1.99737 -3.55766 0
M  V30 2931 H 281.555 0.954535 -4.04798 0
M  V30 2932 H 280.132 2.36667 -2.88172 0
M  V30 2933 N 282.317 1.53212 0.369288 0
M  V30 2934 C 283.28 1.7872 1.43498 0
M  V30 2935 C 284.28 0.657554 1.46741 0
M  V30 2936 O 285.47 0.925736 1.47566 0
M  V30 2937 C 282.602 1.90591 2.82645 0
M  V30 2938 H 283.795 2.73894 1.22156 0
M  V30 2939 H 281.348 1.44233 0.602203 0
M  V30 2940 H 282.083 0.974709 3.09306 0
M  V30 2941 H 281.868 2.72751 2.8169 0
M  V30 2942 H 283.358 2.11931 3.59826 0
M  V30 2943 N 283.795 -0.628877 1.44509 0
M  V30 2944 C 284.743 -1.76193 1.51852 0
M  V30 2945 C 285.737 -1.64849 0.390042 0
M  V30 2946 O 286.943 -1.709 0.565082 0
M  V30 2947 H 283.318 -0.581728 0.476547 0
M  V30 2948 H 285.289 -1.67123 2.47209 0
M  V30 2949 C 284.038 -3.14533 1.48204 0
M  V30 2950 H 283.361 -3.23911 2.34354 0
M  V30 2951 H 284.801 -3.93701 1.57402 0
M  V30 2952 C 283.26 -3.36287 0.203142 0
M  V30 2953 O 283.79 -3.9509 -0.725745 0
M  V30 2954 N 281.996 -2.90408 0.105563 0
M  V30 2955 H 281.543 -2.42739 0.862301 0
M  V30 2956 H 281.501 -3.05339 -0.749371 0
M  V30 2957 N 285.273 -1.31445 -0.869486 0
M  V30 2958 C 286.519 -1.21337 -1.62496 0
M  V30 2959 C 286.852 0.227872 -1.92858 0
M  V30 2960 O 286.127 1.16094 -1.56053 0
M  V30 2961 C 286.41 -2.05814 -2.95487 0
M  V30 2962 C 286.263 -3.5824 -2.72 0
M  V30 2963 C 287.582 -1.9079 -3.96594 0
M  V30 2964 H 284.701 -0.442135 -0.589649 0
M  V30 2965 H 287.343 -1.6124 -1.00507 0
M  V30 2966 H 285.493 -1.71913 -3.48394 0
M  V30 2967 H 287.165 -4.0228 -2.25762 0
M  V30 2968 H 285.408 -3.81647 -2.06224 0
M  V30 2969 H 286.079 -4.12657 -3.66631 0
M  V30 2970 H 288.555 -2.20459 -3.52898 0
M  V30 2971 H 287.431 -2.52199 -4.87531 0
M  V30 2972 H 287.692 -0.871341 -4.33428 0
M  V30 2973 N 286.751 1.08385 -1.14413 0
M  V30 2974 C 287.981 1.8425 -0.934644 0
M  V30 2975 C 288.389 1.81907 0.520234 0
M  V30 2976 O 287.732 1.22126 1.37226 0
M  V30 2977 C 287.794 3.32853 -1.35828 0
M  V30 2978 C 287.458 3.5893 -2.82875 0
M  V30 2979 C 288.455 3.53756 -3.80989 0
M  V30 2980 C 286.14 3.86934 -3.20293 0
M  V30 2981 C 288.134 3.76216 -5.14529 0
M  V30 2982 C 285.821 4.09047 -4.54008 0
M  V30 2983 C 286.819 4.03682 -5.50936 0
M  V30 2984 O 286.507 4.25214 -6.82238 0
M  V30 2985 H 286.239 0.588502 -0.332628 0
M  V30 2986 H 288.793 1.37792 -1.52324 0
M  V30 2987 H 287.023 3.8007 -0.713019 0
M  V30 2988 H 288.712 3.90154 -1.11957 0
M  V30 2989 H 289.478 3.32135 -3.53428 0
M  V30 2990 H 285.357 3.9023 -2.45442 0
M  V30 2991 H 288.901 3.71943 -5.90173 0
M  V30 2992 H 284.798 4.30151 -4.8129 0
M  V30 2993 H 285.566 4.42619 -6.88499 0
M  V30 2994 N 288.23 0.939286 1.26551 0
M  V30 2995 C 289.455 0.602008 1.98471 0
M  V30 2996 C 289.88 -0.815624 1.69497 0
M  V30 2997 O 289.238 -1.54912 0.941905 0
M  V30 2998 C 289.286 0.848407 3.50477 0
M  V30 2999 O 288.39 -0.0804009 4.12322 0
M  V30 3000 H 287.731 0.23049 0.622712 0
M  V30 3001 H 290.261 1.2617 1.61066 0
M  V30 3002 H 290.271 0.768553 4.00696 0
M  V30 3003 H 288.946 1.88171 3.70897 0
M  V30 3004 H 287.523 0.0503508 3.72866 0
M  V30 3005 N 289.708 -1.40897 0.706093 0
M  V30 3006 C 290.656 -2.32572 0.0361893 0
M  V30 3007 C 291.65 -1.51532 -0.757266 0
M  V30 3008 O 292.856 -1.67396 -0.661703 0
M  V30 3009 H 289.231 -0.751966 -0.00709935 0
M  V30 3010 H 291.202 -2.86733 0.826249 0
M  V30 3011 C 289.951 -3.36418 -0.87854 0
M  V30 3012 H 289.274 -3.98836 -0.277401 0
M  V30 3013 H 290.714 -4.0308 -1.3154 0
M  V30 3014 C 289.173 -2.71141 -1.99961 0
M  V30 3015 O 289.703 -2.56735 -3.0895 0
M  V30 3016 N 287.909 -2.29671 -1.78043 0
M  V30 3017 H 287.456 -2.41588 -0.894042 0
M  V30 3018 H 287.414 -1.86332 -2.53235 0
M  V30 3019 N 291.186 -0.45159 -1.50991 0
M  V30 3020 C 292.414 0.108334 -2.06616 0
M  V30 3021 C 292.829 1.35224 -1.31757 0
M  V30 3022 O 292.186 1.78475 -0.381174 0
M  V30 3023 C 292.237 0.41619 -3.59096 0
M  V30 3024 O 291.958 -0.778361 -4.3113 0
M  V30 3025 C 293.459 1.02523 -4.31282 0
M  V30 3026 H 290.679 0.00159995 -0.670998 0
M  V30 3027 H 293.223 -0.634771 -1.94399 0
M  V30 3028 H 291.378 1.10921 -3.71181 0
M  V30 3029 H 291.792 -0.511181 -5.22003 0
M  V30 3030 H 293.266 1.19053 -5.39009 0
M  V30 3031 H 293.743 2.01013 -3.905 0
M  V30 3032 H 294.349 0.371173 -4.23677 0
M  V30 3033 N 292.664 1.56529 -0.183458 0
M  V30 3034 C 293.594 2.21549 0.737456 0
M  V30 3035 C 294.575 1.17489 1.23005 0
M  V30 3036 O 295.76 1.45959 1.281 0
M  V30 3037 C 292.89 2.86575 1.96194 0
M  V30 3038 C 291.844 3.96778 1.60473 0
M  V30 3039 C 291.17 4.48911 2.90487 0
M  V30 3040 C 292.47 5.15767 0.823497 0
M  V30 3041 H 294.164 2.98761 0.195453 0
M  V30 3042 H 291.71 1.43702 0.0925686 0
M  V30 3043 H 293.663 3.30739 2.61131 0
M  V30 3044 H 292.387 2.06749 2.52828 0
M  V30 3045 H 291.046 3.53286 0.978997 0
M  V30 3046 H 290.694 3.65862 3.45186 0
M  V30 3047 H 290.394 5.23265 2.67335 0
M  V30 3048 H 291.918 4.95771 3.56432 0
M  V30 3049 H 293.332 5.56549 1.37571 0
M  V30 3050 H 291.729 5.96114 0.690551 0
M  V30 3051 H 292.799 4.84574 -0.177782 0
M  V30 3052 N 294.142 -0.090211 1.57342 0
M  V30 3053 C 295.558 -0.444547 1.53284 0
M  V30 3054 C 295.758 -1.80238 0.900914 0
M  V30 3055 O 294.814 -2.4759 0.495513 0
M  V30 3056 C 296.127 -0.402543 2.97993 0
M  V30 3057 C 297.675 -0.48405 3.09234 0
M  V30 3058 C 298.15 -0.472144 4.5556 0
M  V30 3059 N 299.641 -0.532757 4.60126 0
M  V30 3060 C 300.376 -0.545462 5.708 0
M  V30 3061 N 299.872 -0.514082 6.9089 0
M  V30 3062 N 301.665 -0.59064 5.58988 0
M  V30 3063 H 293.816 0.799121 1.96794 0
M  V30 3064 H 296.079 0.297965 0.899956 0
M  V30 3065 H 295.785 0.528106 3.47712 0
M  V30 3066 H 295.659 -1.21969 3.56936 0
M  V30 3067 H 298.046 -1.40512 2.595 0
M  V30 3068 H 298.127 0.361328 2.53235 0
M  V30 3069 H 297.771 0.445 5.05947 0
M  V30 3070 H 297.701 -1.3348 5.09402 0
M  V30 3071 H 300.192 -0.562006 3.73698 0
M  V30 3072 H 300.505 -0.527195 7.71 0
M  V30 3073 H 298.85 -0.481054 6.93333 0
M  V30 3074 H 302.041 -0.61272 4.64073 0
M  V30 3075 H 302.214 -0.597073 6.45243 0
M  V30 3076 N 295.62 -1.53406 -0.361157 0
M  V30 3077 C 296.869 -1.69022 -1.10066 0
M  V30 3078 C 297.182 -0.450838 -1.90333 0
M  V30 3079 O 298.388 -0.487617 -2.67085 0
M  V30 3080 C 296.844 -2.98812 -2.00598 0
M  V30 3081 C 296.452 -4.30027 -1.25621 0
M  V30 3082 C 298.196 -3.23795 -2.74513 0
M  V30 3083 C 296.103 -5.50903 -2.1508 0
M  V30 3084 H 295.033 -0.629776 -0.414606 0
M  V30 3085 H 297.684 -1.79907 -0.361348 0
M  V30 3086 H 296.066 -2.8174 -2.78278 0
M  V30 3087 H 297.24 -4.57745 -0.529739 0
M  V30 3088 H 295.555 -4.11522 -0.635496 0
M  V30 3089 H 298.152 -4.11289 -3.41681 0
M  V30 3090 H 298.495 -2.40045 -3.40123 0
M  V30 3091 H 299.028 -3.41561 -2.03914 0
M  V30 3092 H 295.767 -6.37143 -1.54041 0
M  V30 3093 H 295.287 -5.27459 -2.85565 0
M  V30 3094 H 296.966 -5.85865 -2.74538 0
M  V30 3095 N 297.098 0.621204 -1.44841 0
M  V30 3096 C 298.046 1.75385 -1.52784 0
M  V30 3097 C 299.04 1.64639 -0.398779 0
M  V30 3098 O 300.246 1.70598 -0.574137 0
M  V30 3099 H 296.621 0.579193 -0.479625 0
M  V30 3100 H 298.592 1.6581 -2.48092 0
M  V30 3101 C 297.341 3.13742 -1.4987 0
M  V30 3102 H 296.664 3.22663 -2.36069 0
M  V30 3103 H 298.104 3.92861 -1.59487 0
M  V30 3104 C 296.563 3.36175 -0.220973 0
M  V30 3105 O 297.093 3.95469 0.704782 0
M  V30 3106 N 295.299 2.90348 -0.120963 0
M  V30 3107 H 294.846 2.42278 -0.875162 0
M  V30 3108 H 294.804 3.05732 0.733168 0
M  V30 3109 N 298.576 1.31904 0.862503 0
M  V30 3110 C 299.824 1.21776 1.61292 0
M  V30 3111 C 300.145 -0.222413 1.93727 0
M  V30 3112 O 299.415 -1.1451 1.58947 0
M  V30 3113 H 297.995 0.447717 0.597962 0
M  V30 3114 H 300.657 1.65326 1.03215 0
M  V30 3115 H 299.753 1.7948 2.5533 0
M  V30 3116 N 300.054 -1.07777 1.14986 0
M  V30 3117 C 301.002 -2.16964 0.838406 0
M  V30 3118 C 301.996 -1.68372 -0.186386 0
M  V30 3119 O 303.202 -1.79951 -0.0418465 0
M  V30 3120 H 299.577 -0.708006 0.253439 0
M  V30 3121 H 301.548 -2.40454 1.76704 0
M  V30 3122 C 300.297 -3.4604 0.339335 0
M  V30 3123 H 299.62 -3.83813 1.11927 0
M  V30 3124 H 301.06 -4.23698 0.160021 0
M  V30 3125 C 299.519 -3.23569 -0.938325 0
M  V30 3126 O 300.049 -3.47752 -2.01077 0
M  V30 3127 N 298.255 -2.77079 -0.876117 0
M  V30 3128 H 297.802 -2.576 -0.00322037 0
M  V30 3129 H 297.76 -2.62422 -1.73153 0
M  V30 3130 N 301.532 -0.945985 -1.26051 0
M  V30 3131 C 302.943 -0.638096 -1.75457 0
M  V30 3132 C 303.294 0.846672 -1.76991 0
M  V30 3133 O 302.419 1.66262 -1.38513 0
M  V30 3134 C 303.014 -1.15157 -3.18629 0
M  V30 3135 C 301.573 -0.894004 -3.65629 0
M  V30 3136 C 300.72 -1.29967 -2.44957 0
M  V30 3137 H 303.671 -1.12376 -1.1206 0
M  V30 3138 H 303.692 -0.507615 -3.77099 0
M  V30 3139 H 303.204 -2.23222 -3.1748 0
M  V30 3140 H 301.305 0.172057 -3.72203 0
M  V30 3141 H 301.418 -1.52439 -4.54202 0
M  V30 3142 H 299.782 -0.718078 -2.44368 0
M  V30 3143 H 300.565 -2.38935 -2.46505 0
M  V30 3144 N 303.011 1.40521 -0.713556 0
M  V30 3145 C 303.941 2.33381 -0.0743864 0
M  V30 3146 C 304.922 1.52784 0.747735 0
M  V30 3147 O 306.107 1.81258 0.697071 0
M  V30 3148 C 303.237 3.36748 0.849598 0
M  V30 3149 C 302.191 4.27793 0.133247 0
M  V30 3150 C 301.517 5.21679 1.17281 0
M  V30 3151 C 302.817 5.12415 -1.01134 0
M  V30 3152 H 304.511 2.87081 -0.850007 0
M  V30 3153 H 302.057 1.38034 -0.410201 0
M  V30 3154 H 304.01 4.00648 1.30612 0
M  V30 3155 H 302.734 2.81439 1.65709 0
M  V30 3156 H 301.393 3.65342 -0.303426 0
M  V30 3157 H 301.041 4.62677 1.9733 0
M  V30 3158 H 300.741 5.83435 0.698397 0
M  V30 3159 H 302.265 5.88456 1.62947 0
M  V30 3160 H 303.679 5.69781 -0.634274 0
M  V30 3161 H 302.076 5.83203 -1.41399 0
M  V30 3162 H 303.146 4.48514 -1.84292 0
M  V30 3163 N 304.489 0.459591 1.5075 0
M  V30 3164 C 305.714 -0.0996819 2.0716 0
M  V30 3165 C 306.139 -1.33761 1.32249 0
M  V30 3166 O 305.497 -1.77551 0.366786 0
M  V30 3167 C 305.545 -0.378226 3.58611 0
M  V30 3168 O 304.649 -1.46081 3.85661 0
M  V30 3169 H 303.99 0.00791392 0.663953 0
M  V30 3170 H 306.52 0.647329 1.9409 0
M  V30 3171 H 306.53 -0.622135 4.03229 0
M  V30 3172 H 305.205 0.526439 4.12555 0
M  V30 3173 H 303.782 -1.20511 3.5289 0
M  V30 3174 N 305.967 -1.56429 0.191757 0
M  V30 3175 C 307.195 -2.01867 -0.453586 0
M  V30 3176 C 307.61 -1.07191 -1.5542 0
M  V30 3177 O 306.967 -0.0762108 -1.82341 0
M  V30 3178 C 307.018 -3.47017 -1.013 0
M  V30 3179 O 306.739 -4.38078 0.0437005 0
M  V30 3180 C 308.24 -4.07956 -1.73456 0
M  V30 3181 H 305.46 -0.661211 -0.114199 0
M  V30 3182 H 308.004 -2.02295 0.299483 0
M  V30 3183 H 306.159 -3.47298 -1.71647 0
M  V30 3184 H 306.573 -5.23178 -0.372212 0
M  V30 3185 H 308.047 -5.1138 -2.07833 0
M  V30 3186 H 308.524 -3.51222 -2.63704 0
M  V30 3187 H 309.13 -4.11437 -1.07702 0
M  V30 3188 N 307.445 0.0818655 -1.57387 0
M  V30 3189 C 308.694 0.781681 -1.85937 0
M  V30 3190 C 309.007 1.79246 -0.782957 0
M  V30 3191 O 310.213 2.54112 -0.955987 0
M  V30 3192 C 308.669 1.44109 -3.29789 0
M  V30 3193 C 308.277 0.469396 -4.45534 0
M  V30 3194 C 310.021 2.12386 -3.67549 0
M  V30 3195 C 307.928 1.13415 -5.80423 0
M  V30 3196 H 306.858 0.295682 -0.693605 0
M  V30 3197 H 309.509 0.0348051 -1.83467 0
M  V30 3198 H 307.891 2.23588 -3.2684 0
M  V30 3199 H 309.065 -0.294856 -4.59856 0
M  V30 3200 H 307.38 -0.108383 -4.16259 0
M  V30 3201 H 309.977 2.62878 -4.65617 0
M  V30 3202 H 310.32 2.91877 -2.96839 0
M  V30 3203 H 310.853 1.39751 -3.72444 0
M  V30 3204 H 307.592 0.379771 -6.54399 0
M  V30 3205 H 307.112 1.8695 -5.69921 0
M  V30 3206 H 308.791 1.65686 -6.25426 0
M  V30 3207 O 308.962 1.59916 0.225637 0
M  V30 3208 H 309.653 1.73205 0.867161 0
M  V30 END ATOM
M  V30 BEGIN BOND
M  V30 END BOND
M  V30 END CTAB
M  END
$$$$
