drugbank_target|Q7SIE9 Hydrolase (DB03801)
 OpenBabel12092120283D

  0  0  0     0  0            999 V3000
M  V30 BEGIN CTAB
M  V30 COUNTS 7090 7173 0 0 0
M  V30 BEGIN ATOM
M  V30 1 H -0.908 1.98254 -0.117106 0
M  V30 2 N 0 1.576 0 0
M  V30 3 C 1.411 1.78635 0.542811 0
M  V30 4 C 1.762 0.907396 1.73956 0
M  V30 5 O 0.887 0.109876 2.16121 0
M  V30 6 C 1.482 3.23967 0.991508 0
M  V30 7 C 0.041 3.46098 1.47963 0
M  V30 8 C -0.812 2.73933 0.430836 0
M  V30 9 H 2.139 1.5708 -0.226168 0
M  V30 10 H 2.16 3.32079 1.85751 0
M  V30 11 H 1.672 3.87914 0.120292 0
M  V30 12 H -0.227 2.87366 2.37174 0
M  V30 13 H -0.114 4.54779 1.50709 0
M  V30 14 H -1.75 2.38552 0.892473 0
M  V30 15 H -0.967 3.40578 -0.431414 0
M  V30 16 N 1.4781 -0.272755 1.55222 0
M  V30 17 C 2.4081 -1.34136 1.91127 0
M  V30 18 C 3.3891 -1.51513 0.773168 0
M  V30 19 O 4.5741 -1.64552 1.03132 0
M  V30 20 C 1.7041 -2.70083 2.1834 0
M  V30 21 C 0.6581 -2.67437 3.34158 0
M  V30 22 C -0.0159 -4.06938 3.46851 0
M  V30 23 C 1.2841 -2.26686 4.70543 0
M  V30 24 H 2.9781 -1.04333 2.80633 0
M  V30 25 H 0.5241 -0.500454 1.35024 0
M  V30 26 H 2.4771 -3.44952 2.42046 0
M  V30 27 H 1.2011 -3.01469 1.25634 0
M  V30 28 H -0.1399 -1.95026 3.1042 0
M  V30 29 H -0.4919 -4.35547 2.51611 0
M  V30 30 H -0.7919 -4.06062 4.2472 0
M  V30 31 H 0.7321 -4.83545 3.72849 0
M  V30 32 H 2.1461 -2.91277 4.93792 0
M  V30 33 H 0.5431 -2.36971 5.5133 0
M  V30 34 H 1.6131 -1.21818 4.69349 0
M  V30 35 N 2.9562 -1.48159 -0.537278 0
M  V30 36 C 3.8862 -1.65029 -1.6519 0
M  V30 37 C 4.8672 -0.499281 -1.62607 0
M  V30 38 O 6.0522 -0.730972 -1.79918 0
M  V30 39 C 3.1822 -1.68303 -3.03795 0
M  V30 40 C 2.1362 -2.8283 -3.21234 0
M  V30 41 C 1.4622 -2.71189 -4.60826 0
M  V30 42 C 2.7622 -4.24211 -3.04701 0
M  V30 43 H 4.4562 -2.58341 -1.51328 0
M  V30 44 H 2.0022 -1.24325 -0.726585 0
M  V30 45 H 3.9552 -1.78693 -3.81637 0
M  V30 46 H 2.6792 -0.715635 -3.18663 0
M  V30 47 H 1.3382 -2.71983 -2.45807 0
M  V30 48 H 0.9862 -1.72435 -4.7252 0
M  V30 49 H 0.6862 -3.48035 -4.7344 0
M  V30 50 H 2.2102 -2.83537 -5.40777 0
M  V30 51 H 3.6242 -4.3593 -3.72341 0
M  V30 52 H 2.0212 -5.01998 -3.28813 0
M  V30 53 H 3.0912 -4.41184 -2.01209 0
M  V30 54 N 4.4343 0.785586 -1.36625 0
M  V30 55 C 5.6833 1.53883 -1.30396 0
M  V30 56 C 5.9963 1.95271 0.113452 0
M  V30 57 O 7.2023 2.69858 0.298142 0
M  V30 58 C 5.6583 2.77808 -2.28802 0
M  V30 59 C 5.2663 2.43574 -3.75999 0
M  V30 60 C 7.0103 3.55783 -2.31558 0
M  V30 61 C 4.9173 3.63919 -4.66173 0
M  V30 62 H 3.8473 0.577678 -0.484566 0
M  V30 63 H 6.4983 0.861705 -1.62009 0
M  V30 64 H 4.8803 3.47339 -1.90188 0
M  V30 65 H 6.0543 1.81916 -4.23371 0
M  V30 66 H 4.3693 1.78803 -3.76056 0
M  V30 67 H 6.9663 4.45205 -2.96137 0
M  V30 68 H 7.3093 3.94644 -1.3252 0
M  V30 69 H 7.8423 2.93235 -2.68809 0
M  V30 70 H 4.5813 3.3015 -5.66287 0
M  V30 71 H 4.1013 4.2473 -4.23515 0
M  V30 72 H 5.7803 4.30901 -4.82632 0
M  V30 73 N 5.9124 1.20967 1.01018 0
M  V30 74 C 6.8594 0.964281 2.09691 0
M  V30 75 C 7.8294 -0.107853 1.65749 0
M  V30 76 O 9.0144 0.0381987 1.90762 0
M  V30 77 C 6.1544 0.52943 3.41015 0
M  V30 78 C 5.2674 1.67043 3.98398 0
M  V30 79 C 4.4024 1.18525 5.17808 0
M  V30 80 C 3.4414 2.29892 5.67288 0
M  V30 81 N 2.5784 1.82546 6.77954 0
M  V30 82 H 7.4184 1.89463 2.30017 0
M  V30 83 H 4.9554 0.944289 1.1279 0
M  V30 84 H 6.9134 0.258588 4.16398 0
M  V30 85 H 5.5434 -0.363919 3.20742 0
M  V30 86 H 4.5954 2.05603 3.20049 0
M  V30 87 H 5.9074 2.50877 4.31117 0
M  V30 88 H 5.0614 0.870762 6.00419 0
M  V30 89 H 3.8004 0.316887 4.86669 0
M  V30 90 H 2.8054 2.6215 4.83278 0
M  V30 91 H 4.0304 3.17216 6.00459 0
M  V30 92 H 1.9764 0.980454 6.48632 0
M  V30 93 H 1.8934 2.59956 7.09901 0
M  V30 94 H 3.1614 1.54115 7.64113 0
M  V30 95 N 7.3905 -1.2043 1.01659 0
M  V30 96 C 8.3385 -2.25249 0.580143 0
M  V30 97 C 9.3325 -1.65057 -0.381115 0
M  V30 98 O 10.5385 -1.78241 -0.251039 0
M  V30 99 H 6.9135 -0.732695 0.169299 0
M  V30 100 H 8.8845 -2.59389 1.47512 0
M  V30 101 C 7.6335 -3.47638 -0.065788 0
M  V30 102 H 6.9565 -3.94233 0.664874 0
M  V30 103 H 8.3965 -4.2268 -0.334282 0
M  V30 104 C 6.8555 -3.10447 -1.3086 0
M  V30 105 O 7.3855 -3.21981 -2.4019 0
M  V30 106 N 5.5915 -2.64996 -1.1927 0
M  V30 107 H 5.1385 -2.55811 -0.303064 0
M  V30 108 H 5.0965 -2.40482 -2.02523 0
M  V30 109 N 8.8686 -0.792821 -1.36206 0
M  V30 110 C 10.1166 -0.366062 -1.98757 0
M  V30 111 C 10.4376 1.0668 -1.63231 0
M  V30 112 O 9.7076 1.73587 -0.907978 0
M  V30 113 H 8.2876 -0.132364 -0.735179 0
M  V30 114 H 10.9496 -1.01562 -1.66347 0
M  V30 115 H 10.0456 -0.460638 -3.08682 0
M  V30 116 N 10.3467 1.47872 -0.545128 0
M  V30 117 C 11.2567 2.33633 0.212746 0
M  V30 118 C 12.2727 1.4744 0.923983 0
M  V30 119 O 13.4487 1.80393 0.895572 0
M  V30 120 C 10.5137 3.23884 1.23693 0
M  V30 121 C 9.5747 4.25961 0.534417 0
M  V30 122 C 8.8077 5.11899 1.5098 0
M  V30 123 O 9.0307 5.00077 2.7437 0
M  V30 124 O 7.9647 5.92831 1.0409 0
M  V30 125 H 11.7907 2.99714 -0.490416 0
M  V30 126 H 9.3757 1.46235 -0.305871 0
M  V30 127 H 11.2577 3.79666 1.82843 0
M  V30 128 H 9.9327 2.60446 1.92222 0
M  V30 129 H 8.8397 3.73972 -0.0979679 0
M  V30 130 H 10.1727 4.92079 -0.109213 0
M  V30 131 N 11.8248 0.280983 1.55075 0
M  V30 132 C 13.0738 -0.334784 1.98902 0
M  V30 133 C 13.3868 -1.56534 1.17288 0
M  V30 134 O 14.5928 -2.25443 1.51287 0
M  V30 135 C 13.0488 -0.646994 3.54037 0
M  V30 136 C 12.6568 0.564085 4.44435 0
M  V30 137 C 14.4008 -1.22506 4.06439 0
M  V30 138 C 12.3078 0.226137 5.90967 0
M  V30 139 H 11.2378 -0.128866 0.742906 0
M  V30 140 H 13.8888 0.386556 1.79382 0
M  V30 141 H 12.2708 -1.42739 3.6938 0
M  V30 142 H 13.4448 1.34082 4.40861 0
M  V30 143 H 11.7598 1.0594 4.02698 0
M  V30 144 H 14.3568 -1.49182 5.13468 0
M  V30 145 H 14.6998 -2.16085 3.55827 0
M  V30 146 H 15.2328 -0.50682 3.94558 0
M  V30 147 H 11.9718 1.12996 6.45687 0
M  V30 148 H 11.4918 -0.513717 5.97596 0
M  V30 149 H 13.1708 -0.179539 6.46751 0
M  V30 150 N 13.3029 -1.57598 0.00835791 0
M  V30 151 C 14.5519 -1.90107 -0.673968 0
M  V30 152 C 14.8649 -0.884275 -1.7447 0
M  V30 153 O 16.0709 -1.09987 -2.48224 0
M  V30 154 C 14.5269 -3.37497 -1.24995 0
M  V30 155 C 14.1349 -4.47491 -0.2136 0
M  V30 156 C 15.8789 -3.79104 -1.90999 0
M  V30 157 C 13.7859 -5.85963 -0.80005 0
M  V30 158 H 12.7159 -0.709393 -0.255495 0
M  V30 159 H 15.3669 -1.83365 0.0702693 0
M  V30 160 H 13.7489 -3.39102 -2.04513 0
M  V30 161 H 14.9229 -4.57414 0.557596 0
M  V30 162 H 13.2379 -4.14956 0.346474 0
M  V30 163 H 15.8349 -4.79901 -2.35795 0
M  V30 164 H 16.1779 -3.1306 -2.74407 0
M  V30 165 H 16.7109 -3.79833 -1.18203 0
M  V30 166 H 13.4499 -6.555 -0.00456708 0
M  V30 167 H 12.9699 -5.79687 -1.54021 0
M  V30 168 H 14.6489 -6.33884 -1.29615 0
M  V30 169 N 14.781 0.264519 -1.55364 0
M  V30 170 C 16.009 1.013 -1.80405 0
M  V30 171 C 16.424 1.79618 -0.581622 0
M  V30 172 O 15.781 1.76879 0.449468 0
M  V30 173 C 15.832 1.96487 -3.03439 0
M  V30 174 O 15.553 1.21341 -4.20961 0
M  V30 175 C 17.054 2.83079 -3.41147 0
M  V30 176 H 14.274 0.298875 -0.600762 0
M  V30 177 H 16.818 0.292736 -2.02394 0
M  V30 178 H 14.973 2.63965 -2.83551 0
M  V30 179 H 15.387 1.85573 -4.90574 0
M  V30 180 H 16.861 3.4565 -4.30384 0
M  V30 181 H 17.338 3.53286 -2.60932 0
M  V30 182 H 17.944 2.2108 -3.63323 0
M  V30 183 N 16.2591 1.48442 0.529413 0
M  V30 184 C 17.2221 1.62524 1.61612 0
M  V30 185 C 18.2221 0.498509 1.52877 0
M  V30 186 O 19.4121 0.76431 1.56537 0
M  V30 187 C 16.5441 1.59597 3.01233 0
M  V30 188 H 17.7371 2.59423 1.50465 0
M  V30 189 H 15.2901 1.37047 0.751514 0
M  V30 190 H 16.0251 0.641781 3.17886 0
M  V30 191 H 15.8101 2.41397 3.08982 0
M  V30 192 H 17.3001 1.72646 3.80241 0
M  V30 193 N 17.7372 -0.778329 1.37039 0
M  V30 194 C 19.0142 -1.52551 1.22424 0
M  V30 195 C 19.3942 -2.10288 -0.184964 0
M  V30 196 O 18.7422 -1.94953 -1.19187 0
M  V30 197 C 18.9522 -2.61164 2.31504 0
M  V30 198 C 20.3002 -3.28746 2.68721 0
M  V30 199 O 21.3242 -2.71455 2.30631 0
M  V30 200 O 20.1832 -4.3231 3.3432 0
M  V30 201 H 17.2772 -0.675343 0.477326 0
M  V30 202 H 19.8232 -0.815859 1.48801 0
M  V30 203 H 18.5952 -2.16574 3.25901 0
M  V30 204 H 18.2182 -3.39737 2.06554 0
M  V30 205 N 19.2153 -1.21501 -1.00376 0
M  V30 206 C 20.4403 -1.05977 -1.78279 0
M  V30 207 C 20.8653 0.385994 -1.84097 0
M  V30 208 O 20.2233 1.27849 -1.28547 0
M  V30 209 C 20.2713 -1.66302 -3.19963 0
M  V30 210 O 19.3753 -0.909333 -4.0225 0
M  V30 211 H 18.7163 -0.372906 -0.549397 0
M  V30 212 H 21.2463 -1.6107 -1.26165 0
M  V30 213 H 21.2563 -1.70574 -3.70632 0
M  V30 214 H 19.9313 -2.71515 -3.15043 0
M  V30 215 H 18.5083 -0.941795 -3.60811 0
M  V30 216 N 20.6934 1.19889 -1.02296 0
M  V30 217 C 22.1094 1.41462 -0.738954 0
M  V30 218 C 22.3094 1.89721 0.678846 0
M  V30 219 O 21.3654 2.07016 1.4457 0
M  V30 220 C 22.6784 2.43083 -1.77005 0
M  V30 221 C 24.2264 2.5684 -1.78892 0
M  V30 222 C 24.7014 3.61709 -2.80945 0
M  V30 223 N 26.1924 3.69199 -2.79725 0
M  V30 224 C 26.9274 4.50019 -3.55345 0
M  V30 225 N 26.4234 5.34592 -4.40662 0
M  V30 226 N 28.2164 4.44612 -3.43914 0
M  V30 227 H 20.3674 0.868827 -1.93817 0
M  V30 228 H 22.6304 0.44399 -0.837602 0
M  V30 229 H 22.3364 2.14636 -2.78612 0
M  V30 230 H 22.2104 3.4217 -1.58744 0
M  V30 231 H 24.5974 2.84614 -0.779674 0
M  V30 232 H 24.6784 1.57927 -2.01228 0
M  V30 233 H 24.3224 3.34678 -3.82038 0
M  V30 234 H 24.2524 4.60259 -2.5587 0
M  V30 235 H 26.7434 3.08794 -2.17842 0
M  V30 236 H 27.0564 5.93363 -4.95116 0
M  V30 237 H 25.4014 5.34073 -4.44737 0
M  V30 238 H 28.5924 3.7758 -2.76679 0
M  V30 239 H 28.7654 5.0736 -4.031 0
M  V30 240 N 22.1715 0.800033 1.35784 0
M  V30 241 C 23.4015 0.389041 2.02904 0
M  V30 242 C 23.8095 -1.0027 1.60445 0
M  V30 243 O 23.1525 -1.65633 0.794453 0
M  V30 244 C 23.2145 0.385495 3.57427 0
M  V30 245 C 22.8785 1.72662 4.23127 0
M  V30 246 C 23.8755 2.68385 4.4527 0
M  V30 247 C 21.5605 2.00883 4.60381 0
M  V30 248 C 23.5545 3.90517 5.03761 0
M  V30 249 C 21.2415 3.2328 5.18588 0
M  V30 250 C 22.2395 4.17915 5.40218 0
M  V30 251 O 21.9275 5.38153 5.97199 0
M  V30 252 H 21.6595 0.157032 0.657508 0
M  V30 253 H 24.2135 1.08311 1.74522 0
M  V30 254 H 22.4435 -0.365128 3.84972 0
M  V30 255 H 24.1325 -0.00228296 4.059 0
M  V30 256 H 24.8985 2.47872 4.16874 0
M  V30 257 H 20.7775 1.28037 4.42863 0
M  V30 258 H 24.3215 4.64395 5.2056 0
M  V30 259 H 20.2185 3.43667 5.4641 0
M  V30 260 H 20.9865 5.3936 6.15656 0
M  V30 261 N 23.6496 -1.47581 0.552962 0
M  V30 262 C 24.5966 -2.29957 -0.197108 0
M  V30 263 C 25.5666 -1.38799 -0.912359 0
M  V30 264 O 26.7516 -1.67761 -0.908888 0
M  V30 265 C 23.8916 -3.22672 -1.22379 0
M  V30 266 C 23.0046 -4.28919 -0.515038 0
M  V30 267 C 22.1396 -5.0879 -1.52664 0
M  V30 268 C 21.1786 -6.06815 -0.802631 0
M  V30 269 N 20.3156 -6.7966 -1.76086 0
M  V30 270 H 25.1556 -2.93578 0.511486 0
M  V30 271 H 22.6926 -1.4471 0.264067 0
M  V30 272 H 24.6506 -3.74845 -1.83159 0
M  V30 273 H 23.2806 -2.60925 -1.90047 0
M  V30 274 H 22.3326 -3.79835 0.207192 0
M  V30 275 H 23.6446 -4.98773 0.0523425 0
M  V30 276 H 22.7986 -5.65091 -2.20809 0
M  V30 277 H 21.5376 -4.38828 -2.12794 0
M  V30 278 H 20.5426 -5.49695 -0.107238 0
M  V30 279 H 21.7676 -6.78784 -0.207135 0
M  V30 280 H 19.7136 -6.12432 -2.35081 0
M  V30 281 H 19.6306 -7.45669 -1.24552 0
M  V30 282 H 20.8986 -7.40538 -2.43359 0
M  V30 283 N 25.1277 -0.289203 -1.54924 0
M  V30 284 C 26.0907 0.579144 -2.21762 0
M  V30 285 C 27.0907 1.07047 -1.1999 0
M  V30 286 O 28.2807 0.968384 -1.44803 0
M  V30 287 C 25.4127 1.80055 -2.8947 0
M  V30 288 H 26.6057 -0.00464908 -2.999 0
M  V30 289 H 24.1587 -0.0399306 -1.56249 0
M  V30 290 H 24.8937 2.42449 -2.15381 0
M  V30 291 H 24.6787 1.45602 -3.64064 0
M  V30 292 H 26.1687 2.41773 -3.40493 0
M  V30 293 N 26.6058 1.57591 -0.0167156 0
M  V30 294 C 27.8828 1.82547 0.702564 0
M  V30 295 C 28.2628 0.898018 1.91047 0
M  V30 296 O 27.6108 -0.0493456 2.28447 0
M  V30 297 C 27.8208 3.31459 1.09251 0
M  V30 298 C 29.1688 3.97622 1.48937 0
M  V30 299 O 30.1928 3.35881 1.18584 0
M  V30 300 O 29.0518 5.06415 2.05442 0
M  V30 301 H 26.1458 0.752268 0.343544 0
M  V30 302 H 28.6918 1.69644 -0.0434495 0
M  V30 303 H 27.4638 3.9061 0.23227 0
M  V30 304 H 27.0868 3.49422 1.89709 0
M  V30 305 N 28.0839 -0.256276 1.55502 0
M  V30 306 C 29.3329 -0.983486 1.76098 0
M  V30 307 C 29.6459 -1.86837 0.578896 0
M  V30 308 O 30.8519 -2.63163 0.667648 0
M  V30 309 C 29.3079 -1.79868 3.1173 0
M  V30 310 C 28.9159 -0.961648 4.37557 0
M  V30 311 C 30.6599 -2.51919 3.41668 0
M  V30 312 C 28.5669 -1.77219 5.64223 0
M  V30 313 H 27.4969 -0.370936 0.656447 0
M  V30 314 H 30.1479 -0.238492 1.81944 0
M  V30 315 H 28.5299 -2.58527 2.99966 0
M  V30 316 H 29.7039 -0.218048 4.60284 0
M  V30 317 H 28.0189 -0.354913 4.14885 0
M  V30 318 H 30.6159 -3.12998 4.33516 0
M  V30 319 H 30.9589 -3.23059 2.62562 0
M  V30 320 H 31.4919 -1.80278 3.54605 0
M  V30 321 H 28.2309 -1.10471 6.46124 0
M  V30 322 H 27.7509 -2.49132 5.45613 0
M  V30 323 H 29.4299 -2.34169 6.03137 0
M  V30 324 N 29.562 -1.4872 -0.521534 0
M  V30 325 C 30.792 -1.6061 -1.29954 0
M  V30 326 C 31.2 -0.268728 -1.87282 0
M  V30 327 O 30.543 0.753221 -1.67548 0
M  V30 328 C 30.605 -2.60013 -2.48261 0
M  V30 329 C 30.269 -4.04874 -2.11957 0
M  V30 330 C 31.266 -4.92304 -1.67132 0
M  V30 331 C 28.951 -4.5047 -2.22221 0
M  V30 332 C 30.945 -6.2336 -1.33047 0
M  V30 333 C 28.632 -5.81544 -1.87748 0
M  V30 334 C 29.63 -6.67812 -1.43234 0
M  V30 335 O 29.318 -7.96446 -1.09217 0
M  V30 336 H 29.05 -0.544116 -0.401141 0
M  V30 337 H 31.604 -1.95339 -0.634958 0
M  V30 338 H 29.834 -2.20422 -3.17728 0
M  V30 339 H 31.523 -2.61648 -3.10315 0
M  V30 340 H 32.289 -4.58312 -1.58665 0
M  V30 341 H 28.168 -3.83504 -2.55823 0
M  V30 342 H 31.712 -6.90649 -0.982299 0
M  V30 343 H 27.609 -6.15069 -1.95858 0
M  V30 344 H 28.377 -8.09275 -1.22542 0
M  V30 345 N 31.0401 0.771051 -1.3745 0
M  V30 346 C 32.0031 1.86598 -1.33093 0
M  V30 347 C 33.0031 1.59076 -0.234845 0
M  V30 348 O 34.1931 1.67145 -0.490732 0
M  V30 349 C 31.3251 3.23747 -1.06773 0
M  V30 350 H 32.5181 1.91873 -2.30488 0
M  V30 351 H 30.0711 0.970876 -1.2249 0
M  V30 352 H 30.8061 3.24148 -0.099129 0
M  V30 353 H 30.5911 3.45115 -1.86112 0
M  V30 354 H 32.0811 4.03824 -1.06377 0
M  V30 355 N 32.5182 1.22032 0.997298 0
M  V30 356 C 33.4282 1.00271 2.12092 0
M  V30 357 C 34.4442 -0.047621 1.73935 0
M  V30 358 O 35.6202 0.144136 2.00884 0
M  V30 359 C 32.6852 0.578449 3.4184 0
M  V30 360 C 31.7462 1.70189 3.94125 0
M  V30 361 C 30.9792 1.29778 5.17681 0
M  V30 362 O 31.2022 0.174676 5.70132 0
M  V30 363 O 30.1362 2.11261 5.63607 0
M  V30 364 H 33.9622 1.94398 2.3333 0
M  V30 365 H 31.5472 1.00587 1.10465 0
M  V30 366 H 33.4292 0.351998 4.19927 0
M  V30 367 H 32.1042 -0.334019 3.21972 0
M  V30 368 H 31.0112 1.98282 3.1723 0
M  V30 369 H 32.3442 2.59206 4.18417 0
M  V30 370 N 33.9963 -1.19345 1.0293 0
M  V30 371 C 35.2443 -1.88665 0.724574 0
M  V30 372 C 35.5653 -1.80036 -0.749144 0
M  V30 373 O 34.8353 -1.2111 -1.53978 0
M  V30 374 H 33.4153 -0.698406 0.265025 0
M  V30 375 H 36.0773 -1.44885 1.30362 0
M  V30 376 H 35.1733 -2.94987 1.01926 0
M  V30 377 N 35.4744 -0.807222 -1.35358 0
M  V30 378 C 36.3844 -0.219594 -2.3357 0
M  V30 379 C 37.4004 0.637734 -1.61892 0
M  V30 380 O 38.5764 0.549336 -1.93763 0
M  V30 381 C 35.6414 0.62158 -3.41083 0
M  V30 382 C 34.7024 -0.256315 -4.28534 0
M  V30 383 C 33.9354 0.544807 -5.30912 0
M  V30 384 O 34.1584 1.77944 -5.41934 0
M  V30 385 O 33.0924 -0.0646478 -6.01865 0
M  V30 386 H 36.9184 -1.03208 -2.85625 0
M  V30 387 H 34.5034 -0.569025 -1.38139 0
M  V30 388 H 36.3854 1.10067 -4.06772 0
M  V30 389 H 35.0604 1.41165 -2.91297 0
M  V30 390 H 33.9674 -0.782559 -3.65823 0
M  V30 391 H 35.3004 -1.01034 -4.81719 0
M  V30 392 N 36.9525 1.47285 -0.560781 0
M  V30 393 C 38.1805 2.06855 -0.0430262 0
M  V30 394 C 38.5955 1.41291 1.25229 0
M  V30 395 O 37.9525 0.510648 1.7521 0
M  V30 396 C 38.0035 3.61178 0.152518 0
M  V30 397 O 37.7245 4.24285 -1.0915 0
M  V30 398 C 39.2255 4.37624 0.707145 0
M  V30 399 H 36.4455 0.669319 -0.0474652 0
M  V30 400 H 38.9895 1.89237 -0.77521 0
M  V30 401 H 37.1445 3.78298 0.834843 0
M  V30 402 H 37.5585 5.16868 -0.891482 0
M  V30 403 H 39.0325 5.46271 0.793244 0
M  V30 404 H 39.5095 4.04152 1.71923 0
M  V30 405 H 40.1155 4.25257 0.0604027 0
M  V30 406 N 38.4306 0.297415 1.54768 0
M  V30 407 C 39.6796 -0.313669 1.99246 0
M  V30 408 C 39.9926 -1.55281 1.18942 0
M  V30 409 O 41.1986 -2.23825 1.5367 0
M  V30 410 C 39.6546 -0.609407 3.54703 0
M  V30 411 C 39.2626 0.611192 4.43811 0
M  V30 412 C 41.0066 -1.18188 4.07715 0
M  V30 413 C 38.9136 0.288805 5.90694 0
M  V30 414 H 37.8436 -0.120979 0.744231 0
M  V30 415 H 40.4946 0.40556 1.78962 0
M  V30 416 H 38.8766 -1.38813 3.70873 0
M  V30 417 H 40.0506 1.3875 4.39414 0
M  V30 418 H 38.3656 1.10205 4.01552 0
M  V30 419 H 40.9626 -1.43727 5.15021 0
M  V30 420 H 41.3056 -2.12299 3.58099 0
M  V30 421 H 41.8386 -0.464944 3.95074 0
M  V30 422 H 38.5776 1.19838 6.44453 0
M  V30 423 H 38.0976 -0.450305 5.98107 0
M  V30 424 H 39.7766 -0.110933 6.46905 0
M  V30 425 N 39.9087 -1.5758 0.0250728 0
M  V30 426 C 41.1367 -1.9593 -0.664747 0
M  V30 427 C 41.5517 -0.901352 -1.65895 0
M  V30 428 O 40.9087 0.117255 -1.82123 0
M  V30 429 C 40.9597 -3.34342 -1.37468 0
M  V30 430 O 40.6807 -4.36079 -0.420324 0
M  V30 431 C 42.1817 -3.873 -2.1567 0
M  V30 432 H 39.4017 -0.645405 -0.183557 0
M  V30 433 H 41.9457 -2.04329 0.0836372 0
M  V30 434 H 40.1007 -3.27175 -2.0745 0
M  V30 435 H 40.5147 -5.16297 -0.923991 0
M  V30 436 H 41.9887 -4.86504 -2.60803 0
M  V30 437 H 42.4657 -3.21331 -2.99405 0
M  V30 438 H 43.0717 -3.97723 -1.50654 0
M  V30 439 N 41.3868 0.248026 -1.55636 0
M  V30 440 C 42.8028 0.596483 -1.48035 0
M  V30 441 C 43.0028 1.88386 -0.715039 0
M  V30 442 O 42.0588 2.51319 -0.243944 0
M  V30 443 C 43.3718 0.700258 -2.92433 0
M  V30 444 C 44.9198 0.792659 -3.02797 0
M  V30 445 C 45.3948 0.928005 -4.485 0
M  V30 446 N 46.8858 0.992903 -4.52433 0
M  V30 447 C 47.6208 1.11687 -5.62418 0
M  V30 448 N 47.1168 1.20645 -6.82214 0
M  V30 449 N 48.9098 1.14994 -5.50212 0
M  V30 450 H 41.0608 -0.597109 -2.03834 0
M  V30 451 H 43.3238 -0.205925 -0.925364 0
M  V30 452 H 43.0298 -0.175658 -3.51261 0
M  V30 453 H 42.9038 1.57255 -3.42857 0
M  V30 454 H 45.2908 1.65903 -2.4405 0
M  V30 455 H 45.3718 -0.104762 -2.55585 0
M  V30 456 H 45.0158 0.0661971 -5.07857 0
M  V30 457 H 44.9458 1.84045 -4.93391 0
M  V30 458 H 47.4368 0.935064 -3.66149 0
M  V30 459 H 47.7498 1.30008 -7.61786 0
M  V30 460 H 46.0948 1.17605 -6.84977 0
M  V30 461 H 49.2858 1.07643 -4.55555 0
M  V30 462 H 49.4588 1.24311 -6.35965 0
M  V30 463 N 42.8649 1.48995 0.513639 0
M  V30 464 C 44.1139 1.57093 1.2651 0
M  V30 465 C 44.4269 0.257091 1.93903 0
M  V30 466 O 45.6329 0.216478 2.70636 0
M  V30 467 C 44.0889 2.77118 2.29638 0
M  V30 468 C 43.6969 4.15209 1.68241 0
M  V30 469 C 45.4409 2.94538 3.05692 0
M  V30 470 C 43.3479 5.26474 2.69406 0
M  V30 471 H 42.2779 0.584876 0.475854 0
M  V30 472 H 44.9289 1.7536 0.540487 0
M  V30 473 H 43.3109 2.52319 3.05207 0
M  V30 474 H 44.4849 4.50094 0.987505 0
M  V30 475 H 42.7999 4.03042 1.04623 0
M  V30 476 H 45.3969 3.74832 3.8132 0
M  V30 477 H 45.7399 2.04614 3.62545 0
M  V30 478 H 46.2729 3.19316 2.37238 0
M  V30 479 H 43.0119 6.18417 2.17351 0
M  V30 480 H 42.5319 4.96058 3.37175 0
M  V30 481 H 44.2109 5.55277 3.32078 0
M  V30 482 N 44.343 -0.763751 1.37857 0
M  V30 483 C 45.591 -1.51957 1.33243 0
M  V30 484 C 45.912 -1.94835 -0.0801709 0
M  V30 485 O 45.182 -1.66894 -1.02582 0
M  V30 486 H 43.762 -0.563626 0.49024 0
M  V30 487 H 46.424 -0.908504 1.7243 0
M  V30 488 H 45.52 -2.41523 1.97669 0
M  V30 489 N 45.8211 -1.22559 -0.990812 0
M  V30 490 C 46.7531 -0.955325 -2.08342 0
M  V30 491 C 47.7661 0.0668408 -1.62663 0
M  V30 492 O 48.9551 -0.167421 -1.77713 0
M  V30 493 C 46.0551 -0.415566 -3.36342 0
M  V30 494 C 45.2281 -1.49544 -4.11042 0
M  V30 495 C 44.2871 -0.962399 -5.17324 0
M  V30 496 O 43.3131 -1.64907 -5.44788 0
M  V30 497 N 44.5151 0.215134 -5.80101 0
M  V30 498 H 47.2801 -1.89596 -2.32106 0
M  V30 499 H 44.8411 -1.13276 -1.15673 0
M  V30 500 H 46.8331 -0.0442386 -4.04676 0
M  V30 501 H 45.4031 0.430232 -3.09625 0
M  V30 502 H 44.6231 -2.04 -3.37309 0
M  V30 503 H 45.9111 -2.22195 -4.57719 0
M  V30 504 H 45.3091 0.789779 -5.6016 0
M  V30 505 H 43.8661 0.527826 -6.49659 0
M  V30 506 N 47.2992 1.18797 -1.03562 0
M  V30 507 C 48.2472 2.24297 -0.615905 0
M  V30 508 C 49.2412 1.65643 0.354808 0
M  V30 509 O 50.4472 1.78618 0.22265 0
M  V30 510 H 46.8222 0.729909 -0.180934 0
M  V30 511 H 48.7932 2.5701 -1.5162 0
M  V30 512 C 47.5422 3.47698 0.0104735 0
M  V30 513 H 46.8652 3.93125 -0.727509 0
M  V30 514 H 48.3052 4.23159 0.266995 0
M  V30 515 C 46.7642 3.12489 1.25905 0
M  V30 516 O 47.2942 3.25761 2.35038 0
M  V30 517 N 45.5002 2.6686 1.15039 0
M  V30 518 H 45.0472 2.56261 0.262328 0
M  V30 519 H 45.0052 2.43674 1.98672 0
M  V30 520 N 48.7773 0.814389 1.34928 0
M  V30 521 C 49.7073 0.244827 2.32213 0
M  V30 522 C 50.6883 -0.634024 1.57842 0
M  V30 523 O 51.8733 -0.562676 1.8587 0
M  V30 524 C 49.0033 -0.601106 3.42058 0
M  V30 525 C 47.9573 0.179896 4.27622 0
M  V30 526 C 47.2833 -0.788237 5.28858 0
M  V30 527 C 48.5833 1.38329 5.03649 0
M  V30 528 H 50.2773 1.05763 2.80097 0
M  V30 529 H 47.8233 0.510029 1.34665 0
M  V30 530 H 49.7763 -1.00968 4.09125 0
M  V30 531 H 48.5003 -1.44688 2.92802 0
M  V30 532 H 47.1593 0.569739 3.62146 0
M  V30 533 H 46.8073 -1.62973 4.75866 0
M  V30 534 H 46.5073 -0.269942 5.8698 0
M  V30 535 H 48.0313 -1.19485 5.98795 0
M  V30 536 H 49.4453 1.04918 5.63618 0
M  V30 537 H 47.8423 1.83662 5.71304 0
M  V30 538 H 48.9123 2.16592 4.33839 0
M  V30 539 N 50.2554 -1.46986 0.568584 0
M  V30 540 C 51.1654 -2.33942 -0.17555 0
M  V30 541 C 52.1814 -1.48891 -0.90041 0
M  V30 542 O 53.3574 -1.81794 -0.86676 0
M  V30 543 C 50.4224 -3.25811 -1.18524 0
M  V30 544 C 49.4834 -4.26757 -0.466582 0
M  V30 545 C 48.7164 -5.14236 -1.42817 0
M  V30 546 O 48.9394 -5.04379 -2.66379 0
M  V30 547 O 47.8734 -5.94412 -0.946453 0
M  V30 548 H 51.6994 -2.98896 0.538036 0
M  V30 549 H 49.2844 -1.4573 0.329097 0
M  V30 550 H 51.1664 -3.82527 -1.76779 0
M  V30 551 H 49.8414 -2.63471 -1.88055 0
M  V30 552 H 48.7484 -3.73769 0.157451 0
M  V30 553 H 50.0814 -4.91843 0.187485 0
M  V30 554 N 51.7335 -0.305618 -1.54608 0
M  V30 555 C 52.6965 0.555591 -2.22364 0
M  V30 556 C 53.6965 1.05768 -1.21119 0
M  V30 557 O 54.8865 0.952972 -1.45822 0
M  V30 558 C 52.0185 1.76974 -2.91364 0
M  V30 559 H 53.2115 -0.0364572 -2.99878 0
M  V30 560 H 50.7645 -0.0565007 -1.56198 0
M  V30 561 H 51.4995 2.40151 -2.17941 0
M  V30 562 H 51.2845 1.41732 -3.65588 0
M  V30 563 H 52.7745 2.38148 -3.43038 0
M  V30 564 N 53.2116 1.57565 -0.0334293 0
M  V30 565 C 54.6226 1.79746 0.504798 0
M  V30 566 C 54.9736 0.944091 1.71992 0
M  V30 567 O 54.0986 0.155694 2.15839 0
M  V30 568 C 54.6936 3.25997 0.922567 0
M  V30 569 C 53.2526 3.49159 1.40588 0
M  V30 570 C 52.3996 2.74785 0.372633 0
M  V30 571 H 55.3506 1.56565 -0.259436 0
M  V30 572 H 55.3716 3.35945 1.78666 0
M  V30 573 H 54.8836 3.88081 0.0379825 0
M  V30 574 H 52.9846 2.92332 2.31025 0
M  V30 575 H 53.0976 4.57873 1.41028 0
M  V30 576 H 51.4616 2.40391 0.841672 0
M  V30 577 H 52.2446 3.39587 -0.503559 0
M  V30 578 N 54.6897 -0.239769 1.55765 0
M  V30 579 C 56.1007 -0.808263 1.68297 0
M  V30 580 C 56.4517 -1.85736 0.632181 0
M  V30 581 O 55.5767 -2.15277 -0.220204 0
M  V30 582 C 56.1717 -1.47284 3.05111 0
M  V30 583 C 54.7307 -1.98895 3.19559 0
M  V30 584 C 53.8777 -0.842575 2.64189 0
M  V30 585 H 56.8287 -0.0154422 1.58692 0
M  V30 586 H 56.8497 -2.34111 2.99954 0
M  V30 587 H 56.3617 -0.709053 3.81568 0
M  V30 588 H 54.4627 -2.78132 2.47938 0
M  V30 589 H 54.5757 -2.18143 4.26556 0
M  V30 590 H 52.9397 -1.24501 2.22197 0
M  V30 591 H 53.7227 -0.0917552 3.43177 0
M  V30 592 N 56.1678 -1.49265 -0.50573 0
M  V30 593 C 57.4158 -1.582 -1.25766 0
M  V30 594 C 57.7368 -0.268482 -1.93143 0
M  V30 595 O 57.0068 0.711833 -1.8251 0
M  V30 596 H 55.5868 -0.582873 -0.467191 0
M  V30 597 H 58.2488 -1.85865 -0.586525 0
M  V30 598 H 57.3448 -2.37563 -2.02412 0
M  V30 599 N 57.6459 0.756429 -1.3826 0
M  V30 600 C 58.8739 1.54565 -1.3754 0
M  V30 601 C 59.2889 1.88767 0.0355331 0
M  V30 602 O 58.6459 1.52572 1.0014 0
M  V30 603 C 58.6969 2.84654 -2.22833 0
M  V30 604 O 58.4179 2.51912 -3.5843 0
M  V30 605 C 59.9189 3.78807 -2.30261 0
M  V30 606 H 57.1389 0.478353 -0.470553 0
M  V30 607 H 59.6829 0.936381 -1.81803 0
M  V30 608 H 57.8379 3.41965 -1.8204 0
M  V30 609 H 58.2519 3.35325 -4.03308 0
M  V30 610 H 59.7259 4.67045 -2.94233 0
M  V30 611 H 60.2029 4.19038 -1.31545 0
M  V30 612 H 60.8089 3.2742 -2.71433 0
M  V30 613 N 59.124 1.23083 0.984299 0
M  V30 614 C 60.034 1.02515 2.11016 0
M  V30 615 C 61.05 -0.0291702 1.73976 0
M  V30 616 O 62.226 0.165434 2.00719 0
M  V30 617 C 59.291 0.614673 3.41208 0
M  V30 618 C 58.352 1.74359 3.92297 0
M  V30 619 C 57.585 1.35261 5.16275 0
M  V30 620 O 57.808 0.235136 5.69915 0
M  V30 621 O 56.742 2.17227 5.61334 0
M  V30 622 H 60.568 1.96862 2.31255 0
M  V30 623 H 58.153 1.01753 1.09392 0
M  V30 624 H 60.035 0.396518 4.1953 0
M  V30 625 H 58.71 -0.299851 3.22308 0
M  V30 626 H 57.617 2.01635 3.1511 0
M  V30 627 H 58.95 2.63629 4.15645 0
M  V30 628 N 60.6021 -1.18246 1.0419 0
M  V30 629 C 61.8481 -1.88536 0.747122 0
M  V30 630 C 62.1811 -1.80223 -0.723409 0
M  V30 631 O 61.4561 -1.20337 -1.52804 0
M  V30 632 C 61.7391 -3.38968 1.21544 0
M  V30 633 C 61.5921 -3.56084 2.74816 0
M  V30 634 C 62.9111 -4.32648 0.806482 0
M  V30 635 H 60.0301 -0.684619 0.272883 0
M  V30 636 H 62.6721 -1.39113 1.29413 0
M  V30 637 H 60.8221 -3.8119 0.750081 0
M  V30 638 H 62.4941 -3.22946 3.29399 0
M  V30 639 H 60.7371 -2.98699 3.14582 0
M  V30 640 H 61.4081 -4.61639 3.02644 0
M  V30 641 H 63.8841 -3.98211 1.20695 0
M  V30 642 H 62.7601 -5.36462 1.1619 0
M  V30 643 H 63.0211 -4.41146 -0.29029 0
M  V30 644 N 62.0802 -0.821533 -1.34494 0
M  V30 645 C 63.3292 -0.405355 -1.97585 0
M  V30 646 C 63.6422 1.03677 -1.65863 0
M  V30 647 O 64.8482 1.55679 -2.22433 0
M  V30 648 C 63.3042 -0.673861 -3.53535 0
M  V30 649 C 62.9122 -2.12951 -3.94152 0
M  V30 650 C 64.6562 -0.32378 -4.23263 0
M  V30 651 C 62.5632 -2.34298 -5.43009 0
M  V30 652 H 61.4932 -0.147836 -0.739365 0
M  V30 653 H 64.1442 -1.00769 -1.53355 0
M  V30 654 H 62.5262 -0.00137554 -3.96 0
M  V30 655 H 63.7002 -2.84104 -3.62797 0
M  V30 656 H 62.0152 -2.44089 -3.37356 0
M  V30 657 H 64.6122 -0.461126 -5.32708 0
M  V30 658 H 64.9552 0.731586 -4.09821 0
M  V30 659 H 65.4882 -0.950786 -3.8627 0
M  V30 660 H 62.2272 -3.38335 -5.61435 0
M  V30 661 H 61.7472 -1.67687 -5.75883 0
M  V30 662 H 63.4262 -2.16588 -6.09671 0
M  V30 663 N 63.5583 1.46682 -0.576371 0
M  V30 664 C 64.8353 1.95599 0.00703437 0
M  V30 665 C 65.2153 1.51904 1.46589 0
M  V30 666 O 64.5633 0.766755 2.15251 0
M  V30 667 C 64.7733 3.4864 -0.158404 0
M  V30 668 C 66.1213 4.24594 -0.0229439 0
M  V30 669 O 67.1453 3.56094 -0.0869173 0
M  V30 670 O 66.0043 5.46373 0.118015 0
M  V30 671 H 63.0983 0.825275 0.053384 0
M  V30 672 H 65.6443 1.56996 -0.644244 0
M  V30 673 H 64.4163 3.7331 -1.17282 0
M  V30 674 H 64.0393 3.94057 0.5296 0
M  V30 675 N 65.0364 0.313813 1.54444 0
M  V30 676 C 65.9994 -0.54379 2.22656 0
M  V30 677 C 66.9994 -1.05124 1.21678 0
M  V30 678 O 68.1894 -0.945225 1.46325 0
M  V30 679 C 65.3214 -1.75427 2.92298 0
M  V30 680 H 66.5144 0.0523599 2.99854 0
M  V30 681 H 64.0674 0.0647834 1.56166 0
M  V30 682 H 64.8024 -2.38991 2.19211 0
M  V30 683 H 64.5874 -1.39791 3.66334 0
M  V30 684 H 66.0774 -2.36325 3.44297 0
M  V30 685 N 66.5145 -1.57545 0.0417849 0
M  V30 686 C 67.7425 -1.96624 -0.643928 0
M  V30 687 C 68.1575 -0.918897 -1.64929 0
M  V30 688 O 67.5145 0.0979323 -1.82237 0
M  V30 689 C 67.5655 -3.35781 -1.33914 0
M  V30 690 O 67.2865 -4.365 -0.374048 0
M  V30 691 C 68.7875 -3.89566 -2.1155 0
M  V30 692 H 66.0075 -0.647316 -0.176702 0
M  V30 693 H 68.5515 -2.04229 0.105304 0
M  V30 694 H 66.7065 -3.29357 -2.03968 0
M  V30 695 H 67.1205 -5.17248 -0.869179 0
M  V30 696 H 68.5945 -4.89242 -2.55628 0
M  V30 697 H 69.0715 -3.24488 -2.9598 0
M  V30 698 H 69.6775 -3.99298 -1.46427 0
M  V30 699 N 67.9926 0.231505 -1.5589 0
M  V30 700 C 69.2406 0.955461 -1.78088 0
M  V30 701 C 69.5616 1.85262 -0.608533 0
M  V30 702 O 68.8316 1.92277 0.375035 0
M  V30 703 H 67.4116 0.355787 -0.656829 0
M  V30 704 H 70.0736 0.245751 -1.93344 0
M  V30 705 H 69.1696 1.56814 -2.69844 0
M  V30 706 N 69.4707 1.49531 0.497807 0
M  V30 707 C 70.4177 1.66436 1.59899 0
M  V30 708 C 71.3877 0.505793 1.58212 0
M  V30 709 O 72.5727 0.733202 1.7615 0
M  V30 710 C 69.7127 1.7399 2.98029 0
M  V30 711 C 68.8257 3.01172 3.09708 0
M  V30 712 C 67.9607 2.99686 4.38591 0
M  V30 713 C 66.9997 4.21434 4.43914 0
M  V30 714 N 66.1367 4.1784 5.64229 0
M  V30 715 H 70.9767 2.60459 1.44793 0
M  V30 716 H 68.5137 1.29137 0.704423 0
M  V30 717 H 70.4717 1.76352 3.78095 0
M  V30 718 H 69.1017 0.834301 3.11832 0
M  V30 719 H 68.1537 3.08408 2.22685 0
M  V30 720 H 69.4657 3.91165 3.09502 0
M  V30 721 H 68.6197 3.00628 5.2698 0
M  V30 722 H 67.3587 2.07477 4.41367 0
M  V30 723 H 66.3637 4.20733 3.53926 0
M  V30 724 H 67.5887 5.14839 4.42851 0
M  V30 725 H 65.5347 3.28469 5.67841 0
M  V30 726 H 65.4517 5.01571 5.65652 0
M  V30 727 H 66.7197 4.22889 6.54817 0
M  V30 728 N 70.9488 -0.749086 1.3866 0
M  V30 729 C 72.1788 -1.53611 1.38157 0
M  V30 730 C 72.5868 -1.89177 -0.0293595 0
M  V30 731 O 71.9298 -1.53606 -1.00752 0
M  V30 732 C 71.9918 -2.86087 2.17702 0
M  V30 733 C 71.6558 -2.73034 3.66472 0
M  V30 734 C 72.6528 -2.42526 4.59866 0
M  V30 735 C 70.3378 -2.90345 4.09884 0
M  V30 736 C 72.3318 -2.29492 5.94653 0
M  V30 737 C 70.0188 -2.7693 5.4475 0
M  V30 738 C 71.0168 -2.46547 6.36949 0
M  V30 739 O 70.7048 -2.33199 7.69333 0
M  V30 740 H 70.4368 -0.481773 0.474205 0
M  V30 741 H 72.9908 -0.934465 1.82912 0
M  V30 742 H 71.2208 -3.48458 1.67672 0
M  V30 743 H 72.9098 -3.47625 2.09551 0
M  V30 744 H 73.6758 -2.28816 4.27631 0
M  V30 745 H 69.5548 -3.1299 3.38464 0
M  V30 746 H 73.0988 -2.05698 6.66584 0
M  V30 747 H 68.9958 -2.90215 5.76581 0
M  V30 748 H 69.7638 -2.48376 7.79905 0
M  V30 749 N 72.4269 -1.23603 -0.977757 0
M  V30 750 C 73.6729 -1.07129 -1.72195 0
M  V30 751 C 74.0059 0.390501 -1.90233 0
M  V30 752 O 73.2809 1.28902 -1.45653 0
M  V30 753 C 73.5639 -1.80031 -3.11867 0
M  V30 754 C 73.4169 -3.33899 -3.01383 0
M  V30 755 C 74.7359 -1.56492 -4.11337 0
M  V30 756 H 71.8549 -0.390571 -0.624999 0
M  V30 757 H 74.4969 -1.52142 -1.13811 0
M  V30 758 H 72.6469 -1.41768 -3.6171 0
M  V30 759 H 74.3189 -3.81699 -2.59043 0
M  V30 760 H 72.5619 -3.62796 -2.37827 0
M  V30 761 H 73.2329 -3.801 -4.00285 0
M  V30 762 H 75.7089 -1.89757 -3.70313 0
M  V30 763 H 74.5849 -2.09973 -5.07151 0
M  V30 764 H 74.8459 -0.500874 -4.39254 0
M  V30 765 N 73.905 1.17692 -1.04816 0
M  V30 766 C 75.152 1.87859 -0.75599 0
M  V30 767 C 75.48 1.80812 0.716752 0
M  V30 768 O 74.735 1.20819 1.53952 0
M  V30 769 C 75.034 3.37462 -1.17703 0
M  V30 770 C 74.7 3.64713 -2.65133 0
M  V30 771 C 73.362 3.71859 -3.05408 0
M  V30 772 C 75.714 3.76492 -3.60421 0
M  V30 773 C 73.042 3.88271 -4.39843 0
M  V30 774 C 75.394 3.94421 -4.94585 0
M  V30 775 C 74.058 3.99806 -5.3452 0
M  V30 776 H 73.328 0.687425 -0.276636 0
M  V30 777 H 75.975 1.39255 -1.31455 0
M  V30 778 H 74.28 3.88097 -0.537395 0
M  V30 779 H 75.977 3.90109 -0.928218 0
M  V30 780 H 72.567 3.59772 -2.32942 0
M  V30 781 H 76.751 3.70295 -3.30447 0
M  V30 782 H 72.007 3.90687 -4.70291 0
M  V30 783 H 76.181 4.02477 -5.68318 0
M  V30 784 H 73.808 4.12276 -6.38696 0
M  V30 785 N 75.3831 0.828654 1.34056 0
M  V30 786 C 76.7941 0.477534 1.8049 0
M  V30 787 C 77.1451 -1.00258 1.6865 0
M  V30 788 O 76.2701 -1.78057 1.22982 0
M  V30 789 C 76.8651 0.860018 3.27703 0
M  V30 790 C 75.4241 0.561185 3.72193 0
M  V30 791 C 74.5711 1.07385 2.55663 0
M  V30 792 H 77.5221 1.0183 1.21722 0
M  V30 793 H 77.5431 0.166038 3.80138 0
M  V30 794 H 77.0551 1.93731 3.36288 0
M  V30 795 H 75.1561 -0.506465 3.69142 0
M  V30 796 H 75.2691 1.10926 4.66082 0
M  V30 797 H 73.6331 0.495149 2.49841 0
M  V30 798 H 74.4161 2.15771 2.67016 0
M  V30 799 N 76.8612 -1.46375 0.584142 0
M  V30 800 C 78.1092 -2.01978 0.0701287 0
M  V30 801 C 78.4302 -1.4579 -1.295 0
M  V30 802 O 77.7002 -0.64314 -1.85042 0
M  V30 803 H 76.2802 -0.746648 0.0229345 0
M  V30 804 H 78.9422 -1.79461 0.760245 0
M  V30 805 H 78.0382 -3.121 0.0022064 0
M  V30 806 N 78.3393 -0.321999 -1.54275 0
M  V30 807 C 79.5863 0.281044 -2.0054 0
M  V30 808 C 79.9143 1.52265 -1.21019 0
M  V30 809 O 79.1693 1.93687 -0.279982 0
M  V30 810 C 79.4683 0.661769 -3.5122 0
M  V30 811 C 79.1343 -0.480482 -4.48333 0
M  V30 812 C 77.7963 -0.794005 -4.74604 0
M  V30 813 C 80.1483 -1.24783 -5.06042 0
M  V30 814 C 77.4763 -1.87763 -5.55844 0
M  V30 815 C 79.8283 -2.32153 -5.88462 0
M  V30 816 C 78.4923 -2.64089 -6.13036 0
M  V30 817 H 77.7623 0.102841 -0.733829 0
M  V30 818 H 80.4093 -0.445453 -1.86247 0
M  V30 819 H 78.7143 1.46867 -3.63232 0
M  V30 820 H 80.4113 1.13989 -3.84457 0
M  V30 821 H 77.0013 -0.226039 -4.28004 0
M  V30 822 H 81.1853 -1.01887 -4.85729 0
M  V30 823 H 76.4413 -2.12954 -5.73115 0
M  V30 824 H 80.6153 -2.92057 -6.32199 0
M  V30 825 H 78.2423 -3.48185 -6.75775 0
M  V30 826 N 79.8174 1.5752 -0.0501392 0
M  V30 827 C 81.0664 1.91827 0.623328 0
M  V30 828 C 81.3794 0.930222 1.72065 0
M  V30 829 O 82.5854 1.1653 2.4522 0
M  V30 830 C 81.0414 3.40692 1.16003 0
M  V30 831 C 80.6494 4.479 0.0948811 0
M  V30 832 C 82.3934 3.84034 1.80881 0
M  V30 833 C 80.3004 5.87879 0.644411 0
M  V30 834 H 79.2304 0.715918 0.236596 0
M  V30 835 H 81.8814 1.83115 -0.118861 0
M  V30 836 H 80.2634 3.44405 1.9545 0
M  V30 837 H 81.4374 4.55775 -0.678675 0
M  V30 838 H 79.7524 4.13892 -0.45637 0
M  V30 839 H 82.3494 4.85984 2.22988 0
M  V30 840 H 82.6924 3.20225 2.6601 0
M  V30 841 H 83.2254 3.82833 1.0809 0
M  V30 842 H 79.9644 6.55282 -0.169229 0
M  V30 843 H 79.4844 5.83567 1.38598 0
M  V30 844 H 81.1634 6.37098 1.12763 0
M  V30 845 N 81.2955 -0.223234 1.56011 0
M  V30 846 C 82.5725 -0.972108 1.69733 0
M  V30 847 C 82.9525 -2.02485 0.59691 0
M  V30 848 O 82.3005 -2.25037 -0.396324 0
M  V30 849 C 82.5105 -1.58407 3.10979 0
M  V30 850 C 83.8585 -2.07696 3.70334 0
M  V30 851 O 84.8825 -1.68304 3.1393 0
M  V30 852 O 83.7415 -2.80096 4.69264 0
M  V30 853 H 80.8355 -0.453993 0.691245 0
M  V30 854 H 83.3815 -0.215149 1.68331 0
M  V30 855 H 82.1535 -0.823831 3.82529 0
M  V30 856 H 81.7765 -2.40661 3.16493 0
M  V30 857 N 82.7736 -1.49793 -0.48987 0
M  V30 858 C 84.1846 -1.52914 -1.07118 0
M  V30 859 C 84.5356 -0.321738 -1.93544 0
M  V30 860 O 83.6606 0.567338 -2.08831 0
M  V30 861 C 84.2556 -2.771 -1.94938 0
M  V30 862 C 82.8146 -2.82963 -2.48212 0
M  V30 863 C 81.9616 -2.46972 -1.26096 0
M  V30 864 H 84.9126 -1.56329 -0.273289 0
M  V30 865 H 84.9336 -2.57892 -2.79771 0
M  V30 866 H 84.4456 -3.64959 -1.32009 0
M  V30 867 H 82.5466 -1.99411 -3.14748 0
M  V30 868 H 82.6596 -3.85406 -2.84603 0
M  V30 869 H 81.0236 -1.98994 -1.58976 0
M  V30 870 H 81.8066 -3.37118 -0.648581 0
M  V30 871 N 84.2517 0.741722 -1.39055 0
M  V30 872 C 85.2017 1.84661 -1.33732 0
M  V30 873 C 86.1857 1.59397 -0.219401 0
M  V30 874 O 87.3777 1.71015 -0.456375 0
M  V30 875 C 84.5067 3.22512 -1.17647 0
M  V30 876 C 83.5927 3.53628 -2.34112 0
M  V30 877 N 83.9837 3.55723 -3.59576 0
M  V30 878 C 82.2817 3.83956 -2.26923 0
M  V30 879 C 82.9827 3.84443 -4.36553 0
M  V30 880 N 81.9587 4.01877 -3.66055 0
M  V30 881 H 85.7607 1.84576 -2.28711 0
M  V30 882 H 83.2747 0.939647 -1.32455 0
M  V30 883 H 85.2717 4.01597 -1.11917 0
M  V30 884 H 83.9317 3.2384 -0.236124 0
M  V30 885 H 84.9427 3.37196 -3.93089 0
M  V30 886 H 81.6197 3.92929 -1.41113 0
M  V30 887 H 83.0097 3.92588 -5.45274 0
M  V30 888 N 85.7298 1.2412 0.971189 0
M  V30 889 C 86.9758 1.08041 1.71625 0
M  V30 890 C 87.3088 -0.380407 1.90438 0
M  V30 891 O 86.5838 -1.28127 1.46334 0
M  V30 892 C 86.8668 1.81682 3.10908 0
M  V30 893 C 86.7198 3.35493 2.99608 0
M  V30 894 C 88.0388 1.58671 4.10501 0
M  V30 895 H 85.1578 0.39388 0.622919 0
M  V30 896 H 87.7998 1.52743 1.13003 0
M  V30 897 H 85.9498 1.43684 3.60953 0
M  V30 898 H 87.6218 3.83068 2.57015 0
M  V30 899 H 85.8648 3.64052 2.35899 0
M  V30 900 H 86.5358 3.82217 3.98264 0
M  V30 901 H 89.0118 1.91719 3.69301 0
M  V30 902 H 87.8878 2.1266 5.06031 0
M  V30 903 H 88.1488 0.524161 4.38982 0
M  V30 904 N 87.2079 -1.17134 1.05439 0
M  V30 905 C 88.1579 -2.1919 0.627675 0
M  V30 906 C 89.1419 -1.57328 -0.337147 0
M  V30 907 O 90.3339 -1.76329 -0.153976 0
M  V30 908 C 87.4629 -3.43299 0.00651435 0
M  V30 909 C 86.5489 -4.12255 0.995312 0
M  V30 910 N 86.9399 -4.56997 2.16765 0
M  V30 911 C 85.2379 -4.38316 0.824336 0
M  V30 912 C 85.9389 -5.10239 2.7934 0
M  V30 913 N 84.9149 -5.02595 2.07122 0
M  V30 914 H 88.7169 -2.5149 1.52086 0
M  V30 915 H 86.2309 -1.33491 0.924868 0
M  V30 916 H 88.2279 -4.15693 -0.316965 0
M  V30 917 H 86.8879 -3.1249 -0.882033 0
M  V30 918 H 87.8989 -4.51006 2.54587 0
M  V30 919 H 84.5759 -4.17498 -0.0129526 0
M  V30 920 H 85.9659 -5.54961 3.78772 0
M  V30 921 N 88.686 -0.835752 -1.33615 0
M  V30 922 C 89.935 -0.426289 -1.97144 0
M  V30 923 C 90.248 1.01912 -1.66953 0
M  V30 924 O 91.454 1.53311 -2.24072 0
M  V30 925 C 89.91 -0.711321 -3.52801 0
M  V30 926 C 89.518 -2.1712 -3.91871 0
M  V30 927 C 91.262 -0.368654 -4.22896 0
M  V30 928 C 89.169 -2.40044 -5.40493 0
M  V30 929 H 88.099 -0.15567 -0.737755 0
M  V30 930 H 90.75 -1.0239 -1.52278 0
M  V30 931 H 89.132 -0.0433766 -3.95976 0
M  V30 932 H 90.306 -2.87936 -3.59763 0
M  V30 933 H 88.621 -2.47654 -3.34749 0
M  V30 934 H 91.218 -0.517601 -5.32189 0
M  V30 935 H 91.561 0.688078 -4.10574 0
M  V30 936 H 92.094 -0.991702 -3.8524 0
M  V30 937 H 88.833 -3.44271 -5.57815 0
M  V30 938 H 88.353 -1.73785 -5.74072 0
M  V30 939 H 90.032 -2.23042 -6.0734 0
M  V30 940 N 90.1641 1.46063 -0.591896 0
M  V30 941 C 91.3941 2.06418 -0.0867676 0
M  V30 942 C 91.8021 1.43975 1.22751 0
M  V30 943 O 91.1451 0.542531 1.75506 0
M  V30 944 C 91.2071 3.59213 0.143725 0
M  V30 945 C 90.8711 4.439 -1.08635 0
M  V30 946 C 91.8681 4.79864 -2.00067 0
M  V30 947 C 89.5531 4.84896 -1.31077 0
M  V30 948 C 91.5471 5.55661 -3.12282 0
M  V30 949 C 89.2341 5.6045 -2.43596 0
M  V30 950 C 90.2321 5.95747 -3.34027 0
M  V30 951 O 89.9201 6.69772 -4.4459 0
M  V30 952 H 89.6521 0.673443 -0.0587447 0
M  V30 953 H 92.2061 1.88539 -0.814994 0
M  V30 954 H 90.4361 3.75433 0.926668 0
M  V30 955 H 92.1251 4.01463 0.5985 0
M  V30 956 H 92.8911 4.48763 -1.83947 0
M  V30 957 H 88.7701 4.56867 -0.61594 0
M  V30 958 H 92.3141 5.8313 -3.82891 0
M  V30 959 H 88.2111 5.90965 -2.59674 0
M  V30 960 H 88.9791 6.88207 -4.43073 0
M  V30 961 N 91.6422 0.330177 1.54103 0
M  V30 962 C 92.5722 -0.525353 2.27513 0
M  V30 963 C 93.5532 -1.11383 1.2856 0
M  V30 964 O 94.7382 -1.13773 1.57383 0
M  V30 965 C 91.8682 -1.6831 3.03791 0
M  V30 966 C 90.8222 -1.2236 4.10137 0
M  V30 967 C 90.1482 -2.46882 4.74293 0
M  V30 968 C 91.4482 -0.333697 5.21233 0
M  V30 969 H 93.1422 0.087013 2.99274 0
M  V30 970 H 90.6882 0.0432893 1.43935 0
M  V30 971 H 92.6412 -2.28795 3.5388 0
M  V30 972 H 91.3652 -2.32216 2.29659 0
M  V30 973 H 90.0242 -0.64165 3.60941 0
M  V30 974 H 89.6722 -3.09165 3.96769 0
M  V30 975 H 89.3722 -2.16825 5.46133 0
M  V30 976 H 90.8962 -3.08117 5.27159 0
M  V30 977 H 92.3102 -0.845013 5.67038 0
M  V30 978 H 90.7072 -0.125612 5.99969 0
M  V30 979 H 91.7772 0.633724 4.80741 0
M  V30 980 N 93.1203 -1.57491 0.0584922 0
M  V30 981 C 94.5313 -1.80526 -0.476138 0
M  V30 982 C 94.8823 -0.971334 -1.70469 0
M  V30 983 O 94.0073 -0.190012 -2.15564 0
M  V30 984 C 94.6023 -3.27424 -0.870587 0
M  V30 985 C 93.1613 -3.51351 -1.35015 0
M  V30 986 C 92.3083 -2.75343 -0.32887 0
M  V30 987 H 95.2593 -1.56133 0.284312 0
M  V30 988 H 95.2803 -3.38745 -1.73299 0
M  V30 989 H 94.7923 -3.88093 0.0237627 0
M  V30 990 H 92.8933 -2.95971 -2.26345 0
M  V30 991 H 93.0063 -4.60059 -1.33726 0
M  V30 992 H 91.3703 -2.417 -0.803321 0
M  V30 993 H 92.1533 -3.38743 0.557521 0
M  V30 994 N 94.5984 0.214957 -1.56127 0
M  V30 995 C 95.8454 0.938372 -1.79446 0
M  V30 996 C 96.1734 1.8407 -0.628378 0
M  V30 997 O 95.4284 1.91837 0.386925 0
M  V30 998 C 95.7274 1.80314 -3.0858 0
M  V30 999 C 95.3934 1.05349 -4.3842 0
M  V30 1000 C 94.0554 0.846435 -4.73697 0
M  V30 1001 C 96.4074 0.524588 -5.18553 0
M  V30 1002 C 93.7354 0.098683 -5.86617 0
M  V30 1003 C 96.0874 -0.209853 -6.32252 0
M  V30 1004 C 94.7514 -0.428102 -6.66126 0
M  V30 1005 H 94.0214 0.343375 -0.656639 0
M  V30 1006 H 96.6684 0.206077 -1.90388 0
M  V30 1007 H 94.9734 2.6035 -2.92789 0
M  V30 1008 H 96.6704 2.36513 -3.23825 0
M  V30 1009 H 93.2604 1.22486 -4.10725 0
M  V30 1010 H 97.4444 0.672008 -4.91729 0
M  V30 1011 H 92.7004 -0.0805753 -6.11347 0
M  V30 1012 H 96.8744 -0.627157 -6.9357 0
M  V30 1013 H 94.5014 -1.00944 -7.53468 0
M  V30 1014 N 96.0765 1.50051 0.48192 0
M  V30 1015 C 97.0095 1.62749 1.59963 0
M  V30 1016 C 97.9875 0.475903 1.5548 0
M  V30 1017 O 99.1715 0.693986 1.7526 0
M  V30 1018 C 96.2985 1.60008 2.98522 0
M  V30 1019 C 95.3445 2.80596 3.21198 0
M  V30 1020 S 96.1775 4.42038 3.02262 0
M  V30 1021 C 97.3335 4.41973 4.43182 0
M  V30 1022 H 97.5665 2.57296 1.4895 0
M  V30 1023 H 95.0995 1.39179 0.668477 0
M  V30 1024 H 97.0575 1.59112 3.78409 0
M  V30 1025 H 95.7185 0.667153 3.06933 0
M  V30 1026 H 94.9115 2.74952 4.22395 0
M  V30 1027 H 94.5135 2.79003 2.49065 0
M  V30 1028 H 96.8055 4.14868 5.35622 0
M  V30 1029 H 97.7485 5.43512 4.53873 0
M  V30 1030 H 98.1565 3.71812 4.24755 0
M  V30 1031 N 97.5546 -0.734337 1.39446 0
M  V30 1032 C 98.5176 -1.83004 1.37994 0
M  V30 1033 C 99.5176 -1.58397 0.276938 0
M  V30 1034 O 100.708 -1.65785 0.534875 0
M  V30 1035 C 97.8396 -3.20802 1.1532 0
M  V30 1036 H 99.0326 -1.85694 2.35494 0
M  V30 1037 H 96.5856 -0.938059 1.25021 0
M  V30 1038 H 97.3206 -3.23772 0.185036 0
M  V30 1039 H 97.1056 -3.4006 1.95197 0
M  V30 1040 H 98.5956 -4.00862 1.17046 0
M  V30 1041 N 99.0327 -1.24633 -0.964593 0
M  V30 1042 C 100.261 -1.11501 -1.74285 0
M  V30 1043 C 100.676 0.332165 -1.85855 0
M  V30 1044 O 100.033 1.22903 -1.34911 0
M  V30 1045 C 100.084 -1.75258 -3.16175 0
M  V30 1046 O 99.8047 -3.14318 -3.05182 0
M  V30 1047 C 101.306 -1.67776 -4.10324 0
M  V30 1048 H 98.5257 -0.389407 -0.546446 0
M  V30 1049 H 101.07 -1.64801 -1.21083 0
M  V30 1050 H 99.2247 -1.25954 -3.66353 0
M  V30 1051 H 99.6387 -3.4551 -3.94618 0
M  V30 1052 H 101.113 -2.17064 -5.0753 0
M  V30 1053 H 101.59 -0.639584 -4.34518 0
M  V30 1054 H 102.196 -2.16522 -3.66058 0
M  V30 1055 N 100.511 1.16574 -1.06058 0
M  V30 1056 C 101.758 1.87047 -0.775873 0
M  V30 1057 C 102.086 1.81562 0.697534 0
M  V30 1058 O 101.341 1.22445 1.52662 0
M  V30 1059 C 101.64 3.36195 -1.21275 0
M  V30 1060 C 101.306 3.6188 -2.68986 0
M  V30 1061 C 99.9678 3.68599 -3.09335 0
M  V30 1062 C 102.32 3.72648 -3.64394 0
M  V30 1063 C 99.6478 3.83584 -4.43937 0
M  V30 1064 C 102 3.89154 -4.98741 0
M  V30 1065 C 100.664 3.94114 -5.3873 0
M  V30 1066 H 99.9338 0.684452 -0.283912 0
M  V30 1067 H 102.581 1.37853 -1.32925 0
M  V30 1068 H 100.886 3.87505 -0.578528 0
M  V30 1069 H 102.583 3.89103 -0.969542 0
M  V30 1070 H 99.1728 3.57281 -2.36744 0
M  V30 1071 H 103.357 3.66769 -3.34356 0
M  V30 1072 H 98.6128 3.85677 -4.74409 0
M  V30 1073 H 102.787 3.96427 -5.72554 0
M  V30 1074 H 100.414 4.05478 -6.43033 0
M  V30 1075 N 101.989 0.842826 1.3317 0
M  V30 1076 C 102.952 0.284065 2.27433 0
M  V30 1077 C 103.952 -0.54948 1.5112 0
M  V30 1078 O 105.142 -0.362699 1.70382 0
M  V30 1079 C 102.274 -0.599384 3.35589 0
M  V30 1080 H 103.467 1.11589 2.78366 0
M  V30 1081 H 101.02 0.616221 1.4364 0
M  V30 1082 H 101.755 -1.45349 2.89904 0
M  V30 1083 H 101.54 -0.00291266 3.921 0
M  V30 1084 H 103.03 -0.983488 4.05854 0
M  V30 1085 N 103.467 -1.45747 0.599634 0
M  V30 1086 C 104.414 -2.30467 -0.123849 0
M  V30 1087 C 105.384 -1.41632 -0.86774 0
M  V30 1088 O 106.569 -1.70568 -0.855056 0
M  V30 1089 C 103.709 -3.26402 -1.12051 0
M  V30 1090 C 102.822 -4.3034 -0.37832 0
M  V30 1091 C 101.957 -5.13389 -1.364 0
M  V30 1092 C 100.996 -6.09061 -0.609171 0
M  V30 1093 N 100.133 -6.84918 -1.54374 0
M  V30 1094 H 104.973 -2.91802 0.604627 0
M  V30 1095 H 102.51 -1.43797 0.309972 0
M  V30 1096 H 104.468 -3.80482 -1.7114 0
M  V30 1097 H 103.098 -2.66839 -1.8165 0
M  V30 1098 H 102.15 -3.78984 0.327929 0
M  V30 1099 H 103.462 -4.98354 0.210997 0
M  V30 1100 H 102.616 -5.7183 -2.02719 0
M  V30 1101 H 101.355 -4.45376 -1.98725 0
M  V30 1102 H 100.36 -5.49758 0.0676979 0
M  V30 1103 H 101.585 -6.79099 0.00891991 0
M  V30 1104 H 99.531 -6.19601 -2.15478 0
M  V30 1105 H 99.448 -7.49254 -1.00766 0
M  V30 1106 H 100.716 -7.47906 -2.19676 0
M  V30 1107 N 104.945 -0.338344 -1.53925 0
M  V30 1108 C 106.222 0.314774 -1.93051 0
M  V30 1109 C 106.602 1.68669 -1.26941 0
M  V30 1110 O 105.95 2.24636 -0.418445 0
M  V30 1111 C 106.16 0.392249 -3.46789 0
M  V30 1112 C 107.508 0.645554 -4.19664 0
M  V30 1113 O 108.532 0.474575 -3.53024 0
M  V30 1114 O 107.391 0.976408 -5.37707 0
M  V30 1115 H 104.485 0.182598 -0.80659 0
M  V30 1116 H 107.031 -0.389141 -1.65178 0
M  V30 1117 H 105.803 -0.570702 -3.87116 0
M  V30 1118 H 105.426 1.14316 -3.80812 0
M  V30 1119 N 106.423 1.57458 -0.0668435 0
M  V30 1120 C 107.651 1.97624 0.612565 0
M  V30 1121 C 108.066 0.94502 1.63447 0
M  V30 1122 O 107.423 -0.0689276 1.8237 0
M  V30 1123 C 107.474 3.37869 1.28555 0
M  V30 1124 O 107.195 4.3704 0.304557 0
M  V30 1125 C 108.696 3.92882 2.05325 0
M  V30 1126 H 105.916 0.650045 0.166381 0
M  V30 1127 H 108.46 2.04035 -0.137782 0
M  V30 1128 H 106.615 3.3256 1.98702 0
M  V30 1129 H 107.029 5.18565 0.786779 0
M  V30 1130 H 108.503 4.93247 2.47812 0
M  V30 1131 H 108.98 3.29156 2.9078 0
M  V30 1132 H 109.586 4.01577 1.40056 0
M  V30 1133 N 107.901 -0.206675 1.56239 0
M  V30 1134 C 108.851 -1.26 1.90021 0
M  V30 1135 C 109.835 -1.41566 0.764721 0
M  V30 1136 O 111.027 -1.44131 1.02739 0
M  V30 1137 C 108.156 -2.6073 2.23326 0
M  V30 1138 C 107.242 -2.49005 3.43304 0
M  V30 1139 N 107.633 -2.06946 4.61527 0
M  V30 1140 C 105.931 -2.79927 3.47213 0
M  V30 1141 C 106.632 -2.06832 5.43687 0
M  V30 1142 N 105.608 -2.47892 4.83788 0
M  V30 1143 H 109.41 -0.925955 2.78932 0
M  V30 1144 H 106.924 -0.415172 1.57003 0
M  V30 1145 H 108.921 -3.36798 2.45708 0
M  V30 1146 H 107.581 -2.94968 1.35735 0
M  V30 1147 H 108.592 -1.77839 4.86409 0
M  V30 1148 H 105.269 -3.18438 2.70006 0
M  V30 1149 H 106.659 -1.76312 6.48354 0
M  V30 1150 N 109.379 -1.50304 -0.473955 0
M  V30 1151 C 110.289 -1.7174 -1.5982 0
M  V30 1152 C 111.305 -0.600457 -1.63311 0
M  V30 1153 O 112.481 -0.878441 -1.81233 0
M  V30 1154 C 109.546 -1.80427 -2.96052 0
M  V30 1155 C 108.607 -3.04148 -3.02972 0
M  V30 1156 C 107.84 -3.12411 -4.32706 0
M  V30 1157 O 108.063 -2.27542 -5.23049 0
M  V30 1158 O 106.997 -4.05113 -4.45159 0
M  V30 1159 H 110.823 -2.67035 -1.44657 0
M  V30 1160 H 108.408 -1.34366 -0.653148 0
M  V30 1161 H 110.29 -1.88338 -3.7697 0
M  V30 1162 H 108.965 -0.883156 -3.11419 0
M  V30 1163 H 107.872 -3.0174 -2.21142 0
M  V30 1164 H 109.205 -3.95829 -2.92541 0
M  V30 1165 N 110.857 0.726932 -1.39834 0
M  V30 1166 C 112.085 1.51613 -1.40787 0
M  V30 1167 C 112.5 1.88799 -0.00451505 0
M  V30 1168 O 111.857 1.54662 0.968809 0
M  V30 1169 C 111.908 2.79863 -2.28821 0
M  V30 1170 O 111.629 2.44253 -3.63692 0
M  V30 1171 C 113.13 3.73837 -2.38245 0
M  V30 1172 H 110.35 0.468264 -0.480593 0
M  V30 1173 H 112.894 0.897607 -1.83748 0
M  V30 1174 H 111.049 3.38027 -1.89252 0
M  V30 1175 H 111.463 3.26695 -4.1033 0
M  V30 1176 H 112.937 4.60699 -3.04073 0
M  V30 1177 H 113.414 4.16153 -1.40403 0
M  V30 1178 H 114.02 3.21589 -2.78317 0
M  V30 1179 N 112.336 1.25143 0.95797 0
M  V30 1180 C 113.584 1.09476 1.69881 0
M  V30 1181 C 113.905 -0.365502 1.91544 0
M  V30 1182 O 113.175 -1.25985 1.50015 0
M  V30 1183 H 111.755 0.402128 0.629525 0
M  V30 1184 H 114.417 1.57214 1.15194 0
M  V30 1185 H 113.513 1.60046 2.6794 0
M  V30 1186 N 113.814 -1.1601 1.06675 0
M  V30 1187 C 115.039 -1.91068 0.806706 0
M  V30 1188 C 115.464 -1.77112 -0.633485 0
M  V30 1189 O 114.822 -1.09908 -1.44187 0
M  V30 1190 C 114.87 -3.39655 1.21106 0
M  V30 1191 O 113.974 -4.10893 0.352189 0
M  V30 1192 H 113.315 -0.595125 0.294486 0
M  V30 1193 H 115.845 -1.46955 1.42356 0
M  V30 1194 H 115.855 -3.90434 1.18428 0
M  V30 1195 H 114.53 -3.49132 2.26008 0
M  V30 1196 H 113.107 -3.70285 0.440868 0
M  V30 1197 N 115.292 -0.849877 -1.32721 0
M  V30 1198 C 116.239 -0.289033 -2.28983 0
M  V30 1199 C 117.209 0.601324 -1.54833 0
M  V30 1200 O 118.394 0.537253 -1.8308 0
M  V30 1201 C 115.534 0.520623 -3.4115 0
M  V30 1202 C 114.647 -0.394989 -4.3019 0
M  V30 1203 C 113.782 0.426834 -5.29482 0
M  V30 1204 C 112.821 -0.486476 -6.10164 0
M  V30 1205 N 111.958 0.297879 -7.01468 0
M  V30 1206 H 116.798 -1.11519 -2.76347 0
M  V30 1207 H 114.335 -0.56138 -1.35967 0
M  V30 1208 H 116.293 1.00563 -4.04899 0
M  V30 1209 H 114.923 1.31165 -2.9495 0
M  V30 1210 H 113.975 -0.99836 -3.67065 0
M  V30 1211 H 115.287 -1.09612 -4.86607 0
M  V30 1212 H 114.441 0.975205 -5.98811 0
M  V30 1213 H 113.18 1.16136 -4.73671 0
M  V30 1214 H 112.185 -1.04677 -5.39743 0
M  V30 1215 H 113.41 -1.21953 -6.6806 0
M  V30 1216 H 111.356 1.01558 -6.48091 0
M  V30 1217 H 111.273 -0.344318 -7.55216 0
M  V30 1218 H 112.541 0.828131 -7.75089 0
M  V30 1219 N 116.77 1.45427 -0.607355 0
M  V30 1220 C 117.733 2.28974 0.101693 0
M  V30 1221 C 118.733 1.39754 0.795329 0
M  V30 1222 O 119.923 1.61878 0.643527 0
M  V30 1223 C 117.055 3.20768 1.15414 0
M  V30 1224 H 118.248 2.93147 -0.632844 0
M  V30 1225 H 115.801 1.51945 -0.366391 0
M  V30 1226 H 116.536 2.61395 1.91945 0
M  V30 1227 H 116.321 3.86489 0.66098 0
M  V30 1228 H 117.811 3.83589 1.65073 0
M  V30 1229 N 118.248 0.346503 1.53744 0
M  V30 1230 C 119.211 -0.496439 2.23759 0
M  V30 1231 C 120.211 -1.0252 1.2388 0
M  V30 1232 O 121.401 -0.913974 1.48297 0
M  V30 1233 C 118.533 -1.69187 2.95954 0
M  V30 1234 H 119.726 0.115952 2.99676 0
M  V30 1235 H 117.279 0.0978939 1.55993 0
M  V30 1236 H 118.014 -2.34288 2.24231 0
M  V30 1237 H 117.799 -1.31989 3.69217 0
M  V30 1238 H 119.289 -2.28969 3.49232 0
M  V30 1239 N 119.726 -1.57421 0.075193 0
M  V30 1240 C 120.656 -2.15942 -0.888324 0
M  V30 1241 C 121.637 -1.08737 -1.30806 0
M  V30 1242 O 122.822 -1.36787 -1.37851 0
M  V30 1243 C 119.952 -2.72379 -2.1547 0
M  V30 1244 C 118.906 -3.8478 -1.87425 0
M  V30 1245 C 118.232 -4.27834 -3.20721 0
M  V30 1246 C 119.532 -5.08869 -1.17684 0
M  V30 1247 H 121.226 -2.96705 -0.400799 0
M  V30 1248 H 118.772 -1.42723 -0.191342 0
M  V30 1249 H 120.725 -3.11965 -2.83295 0
M  V30 1250 H 119.449 -1.88841 -2.6647 0
M  V30 1251 H 118.108 -3.45703 -1.22004 0
M  V30 1252 H 117.756 -3.41214 -3.6957 0
M  V30 1253 H 117.456 -5.03605 -3.02746 0
M  V30 1254 H 118.98 -4.70039 -3.89738 0
M  V30 1255 H 120.394 -5.4575 -1.75584 0
M  V30 1256 H 118.791 -5.8994 -1.09956 0
M  V30 1257 H 119.861 -4.84648 -0.156453 0
M  V30 1258 N 121.204 0.198386 -1.56346 0
M  V30 1259 C 122.137 1.27381 -1.89339 0
M  V30 1260 C 123.115 1.44106 -0.753134 0
M  V30 1261 O 124.299 1.59549 -1.00381 0
M  V30 1262 C 121.426 2.6409 -2.12071 0
M  V30 1263 C 120.472 2.64253 -3.34772 0
M  V30 1264 S 121.305 2.16013 -4.89999 0
M  V30 1265 C 122.461 3.54553 -5.15794 0
M  V30 1266 H 122.694 0.992058 -2.8026 0
M  V30 1267 H 120.227 0.401726 -1.49082 0
M  V30 1268 H 122.185 3.42786 -2.2585 0
M  V30 1269 H 120.846 2.89478 -1.21906 0
M  V30 1270 H 120.039 3.64768 -3.47794 0
M  V30 1271 H 119.641 1.93637 -3.1997 0
M  V30 1272 H 121.933 4.50396 -5.06112 0
M  V30 1273 H 122.876 3.46428 -6.1757 0
M  V30 1274 H 123.284 3.49313 -4.43442 0
M  V30 1275 N 122.682 1.50554 0.465978 0
M  V30 1276 C 123.93 1.61479 1.21528 0
M  V30 1277 C 124.251 0.319596 1.92363 0
M  V30 1278 O 123.521 -0.663194 1.84333 0
M  V30 1279 H 122.101 0.595055 0.451573 0
M  V30 1280 H 124.763 1.87355 0.53704 0
M  V30 1281 H 123.859 2.42846 1.96042 0
M  V30 1282 N 124.16 -0.719506 1.40217 0
M  V30 1283 C 125.408 -1.47641 1.3801 0
M  V30 1284 C 125.729 -1.94992 -0.018145 0
M  V30 1285 O 124.999 -1.70073 -0.972207 0
M  V30 1286 H 123.579 -0.547744 0.507923 0
M  V30 1287 H 126.241 -0.853187 1.75233 0
M  V30 1288 H 125.337 -2.35112 2.05253 0
M  V30 1289 N 125.638 -1.25649 -0.95132 0
M  V30 1290 C 126.866 -1.13343 -1.73092 0
M  V30 1291 C 127.281 0.312434 -1.86197 0
M  V30 1292 O 126.638 1.21465 -1.36207 0
M  V30 1293 C 126.689 -1.78602 -3.14299 0
M  V30 1294 O 126.41 -3.17537 -3.01831 0
M  V30 1295 C 127.911 -1.72119 -4.08522 0
M  V30 1296 H 125.131 -0.395181 -0.542285 0
M  V30 1297 H 127.675 -1.66076 -1.19328 0
M  V30 1298 H 125.83 -1.29832 -3.64996 0
M  V30 1299 H 126.244 -3.49676 -3.90931 0
M  V30 1300 H 127.718 -2.22435 -5.052 0
M  V30 1301 H 128.195 -0.685635 -4.33815 0
M  V30 1302 H 128.801 -2.20393 -3.63741 0
M  V30 1303 N 127.117 1.15442 -1.07289 0
M  V30 1304 C 128.345 1.90096 -0.81676 0
M  V30 1305 C 128.76 1.7798 0.629966 0
M  V30 1306 O 128.117 1.1313 1.43206 0
M  V30 1307 C 128.168 3.40466 -1.21512 0
M  V30 1308 O 127.889 3.52232 -2.60508 0
M  V30 1309 C 129.39 4.32145 -0.988198 0
M  V30 1310 H 126.61 0.602495 -0.295366 0
M  V30 1311 H 129.154 1.4627 -1.42918 0
M  V30 1312 H 127.309 3.81958 -0.647039 0
M  V30 1313 H 127.723 4.45549 -2.76742 0
M  V30 1314 H 129.197 5.36072 -1.31645 0
M  V30 1315 H 129.674 4.39135 0.0755063 0
M  V30 1316 H 130.28 3.96395 -1.54115 0
M  V30 1317 N 128.595 0.856903 1.32268 0
M  V30 1318 C 129.823 0.475439 2.01363 0
M  V30 1319 C 130.238 -0.928486 1.64392 0
M  V30 1320 O 129.595 -1.60624 0.866387 0
M  V30 1321 C 129.646 0.607545 3.56358 0
M  V30 1322 O 129.367 1.95617 3.92002 0
M  V30 1323 C 130.868 0.225382 4.42727 0
M  V30 1324 H 128.088 0.186636 0.644521 0
M  V30 1325 H 130.632 1.15446 1.68797 0
M  V30 1326 H 128.787 -0.0237719 3.87393 0
M  V30 1327 H 129.201 1.95455 4.86721 0
M  V30 1328 H 130.675 0.368813 5.50767 0
M  V30 1329 H 131.152 -0.834369 4.31202 0
M  V30 1330 H 131.758 0.831864 4.17085 0
M  V30 1331 N 130.073 -1.45103 0.615059 0
M  V30 1332 C 131.303 -2.06254 0.119596 0
M  V30 1333 C 131.711 -1.4591 -1.20445 0
M  V30 1334 O 131.054 -0.570384 -1.7462 0
M  V30 1335 C 131.116 -3.59396 -0.0865591 0
M  V30 1336 C 130.78 -4.42116 1.15683 0
M  V30 1337 C 131.777 -4.7662 2.07676 0
M  V30 1338 C 129.462 -4.82749 1.38775 0
M  V30 1339 C 131.456 -5.50622 3.21082 0
M  V30 1340 C 129.143 -5.56504 2.52481 0
M  V30 1341 C 130.141 -5.90358 3.43463 0
M  V30 1342 O 129.829 -6.62615 4.55189 0
M  V30 1343 H 129.561 -0.672423 0.0694512 0
M  V30 1344 H 132.115 -1.87219 0.844885 0
M  V30 1345 H 130.345 -3.76859 -0.866823 0
M  V30 1346 H 132.034 -4.02365 -0.534555 0
M  V30 1347 H 132.8 -4.4578 1.91063 0
M  V30 1348 H 128.679 -4.55829 0.688545 0
M  V30 1349 H 132.223 -5.76965 3.92119 0
M  V30 1350 H 128.12 -5.86759 2.69043 0
M  V30 1351 H 128.888 -6.81071 4.53966 0
M  V30 1352 N 131.551 -0.354651 -1.53558 0
M  V30 1353 C 132.8 0.239504 -2.00273 0
M  V30 1354 C 133.113 1.50759 -1.24623 0
M  V30 1355 O 134.319 2.17968 -1.61871 0
M  V30 1356 C 132.775 0.477341 -3.5672 0
M  V30 1357 C 132.383 -0.775488 -4.41237 0
M  V30 1358 C 134.127 1.02975 -4.11821 0
M  V30 1359 C 132.034 -0.507838 -5.89216 0
M  V30 1360 H 130.964 0.0932743 -0.748208 0
M  V30 1361 H 133.615 -0.471701 -1.77334 0
M  V30 1362 H 131.997 1.24953 -3.7577 0
M  V30 1363 H 133.171 -1.54963 -4.33962 0
M  V30 1364 H 131.486 -1.25033 -3.97185 0
M  V30 1365 H 134.083 1.24513 -5.2 0
M  V30 1366 H 134.426 1.98862 -3.65731 0
M  V30 1367 H 134.959 0.317994 -3.96527 0
M  V30 1368 H 131.698 -1.43674 -6.39561 0
M  V30 1369 H 131.218 0.228011 -5.99366 0
M  V30 1370 H 132.897 -0.129238 -6.46871 0
M  V30 1371 N 133.029 1.57378 -0.0835403 0
M  V30 1372 C 133.939 2.16897 0.894021 0
M  V30 1373 C 134.955 1.13528 1.31861 0
M  V30 1374 O 136.131 1.45848 1.3889 0
M  V30 1375 C 133.196 2.72831 2.13925 0
M  V30 1376 C 132.257 3.91115 1.76997 0
M  V30 1377 C 131.49 4.44371 2.95584 0
M  V30 1378 O 131.713 3.96596 4.09961 0
M  V30 1379 O 130.647 5.35549 2.74719 0
M  V30 1380 H 134.473 3.00814 0.417679 0
M  V30 1381 H 132.058 1.48741 0.140181 0
M  V30 1382 H 133.94 3.0863 2.86924 0
M  V30 1383 H 132.615 1.91967 2.60635 0
M  V30 1384 H 131.522 3.60148 1.01214 0
M  V30 1385 H 132.855 4.73307 1.3506 0
M  V30 1386 N 134.507 -0.190092 1.56449 0
M  V30 1387 C 135.44 -1.26375 1.90012 0
M  V30 1388 C 136.418 -1.43705 0.760765 0
M  V30 1389 O 137.602 -1.59014 1.01226 0
M  V30 1390 C 134.729 -2.62962 2.13468 0
M  V30 1391 C 133.775 -2.62474 3.36169 0
M  V30 1392 S 134.608 -2.13412 4.91137 0
M  V30 1393 C 135.764 -3.51812 5.17667 0
M  V30 1394 H 135.997 -0.977181 2.80782 0
M  V30 1395 H 133.53 -0.393814 1.49293 0
M  V30 1396 H 135.488 -3.41583 2.27664 0
M  V30 1397 H 134.149 -2.88828 1.23439 0
M  V30 1398 H 133.342 -3.62918 3.49723 0
M  V30 1399 H 132.944 -1.91937 3.20992 0
M  V30 1400 H 135.236 -4.47706 5.08494 0
M  V30 1401 H 136.179 -3.43148 6.19399 0
M  V30 1402 H 136.587 -3.46956 4.45288 0
M  V30 1403 N 135.985 -1.50799 -0.457987 0
M  V30 1404 C 137.225 -1.64088 -1.21879 0
M  V30 1405 C 137.589 -0.339848 -1.88968 0
M  V30 1406 O 138.79 -0.348301 -2.66534 0
M  V30 1407 C 137.061 -2.79726 -2.2246 0
M  V30 1408 S 138.62 -3.13225 -3.07303 0
M  V30 1409 H 135.438 -0.578314 -0.41361 0
M  V30 1410 H 138.04 -1.88632 -0.513645 0
M  V30 1411 H 136.744 -3.72722 -1.71775 0
M  V30 1412 H 136.275 -2.57308 -2.97584 0
M  V30 1413 H 138.29 -2.58062 -4.23814 0
M  V30 1414 N 137.463 0.71206 -1.40597 0
M  V30 1415 C 138.703 1.48438 -1.40519 0
M  V30 1416 C 139.067 1.91998 -0.00767611 0
M  V30 1417 O 140.268 2.6854 0.118239 0
M  V30 1418 C 138.539 2.67514 -2.37004 0
M  V30 1419 S 140.098 3.56875 -2.55315 0
M  V30 1420 H 136.916 0.507457 -0.498005 0
M  V30 1421 H 139.518 0.832355 -1.76896 0
M  V30 1422 H 138.222 2.33689 -3.37368 0
M  V30 1423 H 137.753 3.37625 -2.01923 0
M  V30 1424 H 139.768 4.62081 -1.8082 0
M  V30 1425 N 138.941 1.26152 0.944643 0
M  V30 1426 C 140.352 1.10454 1.50522 0
M  V30 1427 C 140.703 -0.31635 1.93633 0
M  V30 1428 O 139.828 -1.20746 1.79581 0
M  V30 1429 C 140.423 1.99891 2.73549 0
M  V30 1430 C 138.982 1.88348 3.25886 0
M  V30 1431 C 138.129 1.93447 1.9868 0
M  V30 1432 H 141.08 1.39292 0.760489 0
M  V30 1433 H 141.101 1.54477 3.47732 0
M  V30 1434 H 140.613 3.03297 2.42141 0
M  V30 1435 H 138.714 0.878636 3.62092 0
M  V30 1436 H 138.827 2.73696 3.93227 0
M  V30 1437 H 137.191 1.37456 2.14425 0
M  V30 1438 H 137.974 2.98476 1.69607 0
M  V30 1439 N 140.419 -1.14872 1.07899 0
M  V30 1440 C 141.644 -1.90202 0.826926 0
M  V30 1441 C 142.069 -1.77774 -0.614664 0
M  V30 1442 O 141.427 -1.11431 -1.43013 0
M  V30 1443 C 141.475 -3.38352 1.24702 0
M  V30 1444 O 140.579 -4.10497 0.39575 0
M  V30 1445 H 139.92 -0.591968 0.300782 0
M  V30 1446 H 142.45 -1.45437 1.43907 0
M  V30 1447 H 142.46 -3.89156 1.22563 0
M  V30 1448 H 141.135 -3.46715 2.29698 0
M  V30 1449 H 139.712 -3.69796 0.480117 0
M  V30 1450 N 141.898 -0.863906 -1.31812 0
M  V30 1451 C 143.314 -0.555004 -1.49639 0
M  V30 1452 C 143.514 0.912266 -1.79666 0
M  V30 1453 O 142.57 1.69479 -1.87171 0
M  V30 1454 C 143.883 -1.44998 -2.63431 0
M  V30 1455 C 145.431 -1.45138 -2.77316 0
M  V30 1456 C 145.906 -2.33179 -3.94197 0
M  V30 1457 N 147.397 -2.31025 -4.01474 0
M  V30 1458 C 148.132 -2.95871 -4.9117 0
M  V30 1459 N 147.628 -3.69863 -5.8581 0
M  V30 1460 N 149.421 -2.85211 -4.84367 0
M  V30 1461 H 141.572 -1.81339 -1.10589 0
M  V30 1462 H 143.835 -0.77505 -0.545895 0
M  V30 1463 H 143.541 -2.49377 -2.48 0
M  V30 1464 H 143.415 -1.14409 -3.59431 0
M  V30 1465 H 145.802 -0.415201 -2.92164 0
M  V30 1466 H 145.883 -1.79747 -1.82001 0
M  V30 1467 H 145.527 -3.3687 -3.80107 0
M  V30 1468 H 145.457 -1.95897 -4.88807 0
M  V30 1469 H 147.948 -1.77238 -3.33759 0
M  V30 1470 H 148.261 -4.16486 -6.50968 0
M  V30 1471 H 146.606 -3.73971 -5.85808 0
M  V30 1472 H 149.797 -2.26948 -4.09405 0
M  V30 1473 H 149.97 -3.36027 -5.54066 0
M  V30 1474 N 143.376 1.44774 -0.622745 0
M  V30 1475 C 144.324 2.32387 0.0994683 0
M  V30 1476 C 145.318 1.46859 0.844326 0
M  V30 1477 O 146.524 1.63254 0.758174 0
M  V30 1478 H 142.899 0.750273 0.0509291 0
M  V30 1479 H 144.87 2.91062 -0.65767 0
M  V30 1480 C 143.619 3.30723 1.07319 0
M  V30 1481 H 142.942 3.96541 0.509462 0
M  V30 1482 H 144.382 3.94725 1.54817 0
M  V30 1483 C 142.841 2.59021 2.15429 0
M  V30 1484 O 143.371 2.38286 3.23393 0
M  V30 1485 N 141.577 2.189 1.91131 0
M  V30 1486 H 141.124 2.35964 1.03337 0
M  V30 1487 H 141.082 1.71251 2.63668 0
M  V30 1488 N 144.854 0.36279 1.53368 0
M  V30 1489 C 146.131 -0.284021 1.93527 0
M  V30 1490 C 146.511 -1.66628 1.29608 0
M  V30 1491 O 145.859 -2.23942 0.45413 0
M  V30 1492 C 146.069 -0.337028 3.47369 0
M  V30 1493 C 147.417 -0.578708 4.20638 0
M  V30 1494 O 148.441 -0.418352 3.53735 0
M  V30 1495 O 147.3 -0.89074 5.39192 0
M  V30 1496 H 144.394 -0.169743 0.809393 0
M  V30 1497 H 146.94 0.41537 1.64538 0
M  V30 1498 H 145.712 0.632217 3.86159 0
M  V30 1499 H 145.335 -1.08243 3.82582 0
M  V30 1500 N 146.332 -1.57332 0.0918853 0
M  V30 1501 C 147.609 -1.85691 -0.614668 0
M  V30 1502 C 147.989 -0.988146 -1.86545 0
M  V30 1503 O 147.337 -0.0597055 -2.28422 0
M  V30 1504 C 147.547 -3.36294 -0.933126 0
M  V30 1505 C 148.895 -4.04275 -1.29796 0
M  V30 1506 O 149.919 -3.41157 -1.02424 0
M  V30 1507 O 148.778 -5.1564 -1.81047 0
M  V30 1508 H 145.872 -0.767802 -0.307261 0
M  V30 1509 H 148.418 -1.69244 0.12434 0
M  V30 1510 H 147.19 -3.91273 -0.0456404 0
M  V30 1511 H 146.813 -3.58076 -1.72822 0
M  V30 1512 N 147.81 0.181792 -1.56548 0
M  V30 1513 C 148.773 1.20894 -1.94724 0
M  V30 1514 C 149.773 1.37738 -0.829747 0
M  V30 1515 O 150.963 1.35323 -1.09697 0
M  V30 1516 C 148.095 2.57593 -2.23291 0
M  V30 1517 H 149.288 0.882275 -2.86629 0
M  V30 1518 H 146.841 0.423838 -1.50444 0
M  V30 1519 H 147.576 2.95291 -1.34067 0
M  V30 1520 H 147.361 2.46735 -3.04736 0
M  V30 1521 H 148.851 3.31637 -2.53785 0
M  V30 1522 N 149.288 1.51039 0.449983 0
M  V30 1523 C 150.218 1.74379 1.55288 0
M  V30 1524 C 151.199 0.593236 1.5942 0
M  V30 1525 O 152.384 0.834625 1.7535 0
M  V30 1526 C 149.514 1.85728 2.93466 0
M  V30 1527 C 148.468 3.01078 3.04197 0
M  V30 1528 C 147.794 2.97595 4.44231 0
M  V30 1529 C 149.094 4.41254 2.7945 0
M  V30 1530 H 150.788 2.66725 1.36008 0
M  V30 1531 H 148.334 1.2835 0.652864 0
M  V30 1532 H 150.287 2.0064 3.70569 0
M  V30 1533 H 149.011 0.900207 3.13949 0
M  V30 1534 H 147.67 2.85851 2.29531 0
M  V30 1535 H 147.318 1.99691 4.61663 0
M  V30 1536 H 147.018 3.75046 4.52343 0
M  V30 1537 H 148.542 3.14583 5.23326 0
M  V30 1538 H 149.956 4.56897 3.46292 0
M  V30 1539 H 148.353 5.20315 2.98985 0
M  V30 1540 H 149.423 4.52164 1.75144 0
M  V30 1541 N 150.766 -0.704594 1.40972 0
M  V30 1542 C 151.676 -1.84856 1.44448 0
M  V30 1543 C 152.692 -1.70726 0.335961 0
M  V30 1544 O 153.868 -1.92799 0.582276 0
M  V30 1545 C 150.933 -3.20758 1.31587 0
M  V30 1546 C 149.994 -3.47063 2.52677 0
M  V30 1547 C 149.227 -4.76481 2.4042 0
M  V30 1548 O 149.45 -5.52341 1.42391 0
M  V30 1549 O 148.384 -5.03367 3.30007 0
M  V30 1550 H 152.21 -1.8488 2.40942 0
M  V30 1551 H 149.795 -0.85647 1.22413 0
M  V30 1552 H 151.677 -4.01913 1.26665 0
M  V30 1553 H 150.352 -3.21438 0.382049 0
M  V30 1554 H 149.259 -2.65873 2.63177 0
M  V30 1555 H 150.592 -3.5119 3.44858 0
M  V30 1556 N 152.244 -1.26651 -0.937939 0
M  V30 1557 C 153.492 -1.12165 -1.68118 0
M  V30 1558 C 153.813 0.334983 -1.92101 0
M  V30 1559 O 153.083 1.23583 -1.52 0
M  V30 1560 H 151.663 -0.412093 -0.623048 0
M  V30 1561 H 154.325 -1.59027 -1.12678 0
M  V30 1562 H 153.421 -1.64289 -2.6536 0
M  V30 1563 N 153.722 1.14298 -1.08507 0
M  V30 1564 C 154.952 1.88945 -0.835663 0
M  V30 1565 C 155.36 1.78894 0.615928 0
M  V30 1566 O 154.703 1.1468 1.43506 0
M  V30 1567 C 154.765 3.39585 -1.17994 0
M  V30 1568 C 154.429 3.7342 -2.63451 0
M  V30 1569 C 155.426 3.73454 -3.61702 0
M  V30 1570 C 153.111 4.03368 -2.99332 0
M  V30 1571 C 155.105 4.02961 -4.93864 0
M  V30 1572 C 152.792 4.32538 -4.31687 0
M  V30 1573 C 153.79 4.32318 -5.28763 0
M  V30 1574 O 153.478 4.6078 -6.58739 0
M  V30 1575 H 153.21 0.605307 -0.300965 0
M  V30 1576 H 155.764 1.45673 -1.44806 0
M  V30 1577 H 153.994 3.83315 -0.51055 0
M  V30 1578 H 155.683 3.9554 -0.911182 0
M  V30 1579 H 156.449 3.50403 -3.35325 0
M  V30 1580 H 152.328 4.02692 -2.24411 0
M  V30 1581 H 155.872 4.02704 -5.69627 0
M  V30 1582 H 151.769 4.55059 -4.57812 0
M  V30 1583 H 152.537 4.78492 -6.64069 0
M  V30 1584 N 155.201 0.870884 1.31352 0
M  V30 1585 C 156.133 0.28455 2.27427 0
M  V30 1586 C 157.146 -0.552927 1.53123 0
M  V30 1587 O 158.335 -0.374771 1.74521 0
M  V30 1588 C 155.435 -0.615164 3.3327 0
M  V30 1589 C 154.608 0.190079 4.36987 0
M  V30 1590 C 153.667 -0.637917 5.22319 0
M  V30 1591 O 152.693 -0.065626 5.69162 0
M  V30 1592 N 153.895 -1.94973 5.46778 0
M  V30 1593 H 156.66 1.11017 2.7838 0
M  V30 1594 H 154.221 0.732458 1.44384 0
M  V30 1595 H 156.213 -1.1748 3.87273 0
M  V30 1596 H 154.783 -1.34146 2.82354 0
M  V30 1597 H 154.003 0.931165 3.83044 0
M  V30 1598 H 155.291 0.742579 5.03352 0
M  V30 1599 H 154.689 -2.4378 5.10478 0
M  V30 1600 H 153.246 -2.45713 6.03712 0
M  V30 1601 N 156.679 -1.44442 0.630414 0
M  V30 1602 C 157.609 -2.33418 -0.0618083 0
M  V30 1603 C 158.59 -1.48165 -0.835541 0
M  V30 1604 O 159.775 -1.76886 -0.801564 0
M  V30 1605 C 156.905 -3.31222 -1.04449 0
M  V30 1606 C 155.859 -4.26288 -0.382436 0
M  V30 1607 C 155.185 -5.13954 -1.47497 0
M  V30 1608 C 156.485 -5.1744 0.710865 0
M  V30 1609 H 158.179 -2.91548 0.681184 0
M  V30 1610 H 155.725 -1.40191 0.329026 0
M  V30 1611 H 157.678 -3.92351 -1.53748 0
M  V30 1612 H 156.402 -2.71299 -1.81836 0
M  V30 1613 H 155.061 -3.6649 0.0899054 0
M  V30 1614 H 154.709 -4.50385 -2.2397 0
M  V30 1615 H 154.409 -5.7837 -1.03737 0
M  V30 1616 H 155.933 -5.77955 -1.96979 0
M  V30 1617 H 157.347 -5.72509 0.300996 0
M  V30 1618 H 155.744 -5.90455 1.07156 0
M  V30 1619 H 156.814 -4.58496 1.57829 0
M  V30 1620 N 158.157 -0.370918 -1.53173 0
M  V30 1621 C 159.403 0.209976 -2.02313 0
M  V30 1622 C 159.758 1.45987 -1.25322 0
M  V30 1623 O 159.051 1.8856 -0.339965 0
M  V30 1624 C 159.245 0.549696 -3.53147 0
M  V30 1625 C 159.074 -0.665721 -4.44745 0
M  V30 1626 C 157.844 -1.17942 -4.91343 0
M  V30 1627 C 160.042 -1.53255 -4.90935 0
M  V30 1628 N 158.024 -2.35431 -5.66962 0
M  V30 1629 C 159.395 -2.55403 -5.64951 0
M  V30 1630 C 161.45 -1.5548 -4.73002 0
M  V30 1631 C 160.153 -3.5964 -6.22938 0
M  V30 1632 C 162.179 -2.58613 -5.31858 0
M  V30 1633 C 161.541 -3.59485 -6.05764 0
M  V30 1634 H 157.64 0.0394095 -0.781006 0
M  V30 1635 H 160.224 -0.516666 -1.8772 0
M  V30 1636 H 158.395 1.24541 -3.67891 0
M  V30 1637 H 160.127 1.11614 -3.89004 0
M  V30 1638 H 156.882 -0.743228 -4.67732 0
M  V30 1639 H 157.306 -2.94827 -6.09431 0
M  V30 1640 H 161.948 -0.788457 -4.15383 0
M  V30 1641 H 159.666 -4.37153 -6.79649 0
M  V30 1642 H 163.252 -2.61195 -5.19873 0
M  V30 1643 H 162.132 -4.3798 -6.50495 0
M  V30 1644 N 159.635 1.57281 -0.100228 0
M  V30 1645 C 160.582 2.14305 0.856858 0
M  V30 1646 C 161.552 1.06296 1.27634 0
M  V30 1647 O 162.737 1.34109 1.35718 0
M  V30 1648 C 159.877 2.73184 2.10866 0
M  V30 1649 C 158.99 3.95442 1.73925 0
M  V30 1650 C 158.125 4.42468 2.93931 0
M  V30 1651 C 157.164 5.57303 2.5314 0
M  V30 1652 N 156.301 5.99158 3.65997 0
M  V30 1653 H 161.141 2.95772 0.363726 0
M  V30 1654 H 158.678 1.46139 0.167858 0
M  V30 1655 H 160.636 3.05442 2.84185 0
M  V30 1656 H 159.266 1.94437 2.57671 0
M  V30 1657 H 158.318 3.69464 0.905554 0
M  V30 1658 H 159.63 4.78769 1.39935 0
M  V30 1659 H 158.784 4.76537 3.75496 0
M  V30 1660 H 157.523 3.58052 3.31134 0
M  V30 1661 H 156.528 5.22857 1.70003 0
M  V30 1662 H 157.753 6.43471 2.17075 0
M  V30 1663 H 155.699 5.17687 4.02909 0
M  V30 1664 H 155.616 6.77295 3.35869 0
M  V30 1665 H 156.884 6.3786 4.48057 0
M  V30 1666 N 161.113 -0.173488 1.56642 0
M  V30 1667 C 162.338 -0.910149 1.86363 0
M  V30 1668 C 162.763 -1.75132 0.686318 0
M  V30 1669 O 162.121 -1.77595 -0.364643 0
M  V30 1670 C 162.169 -1.76447 3.14482 0
M  V30 1671 O 161.273 -2.86584 2.96553 0
M  V30 1672 H 160.614 -0.255086 0.613047 0
M  V30 1673 H 163.144 -0.172283 2.03873 0
M  V30 1674 H 163.154 -2.16483 3.45831 0
M  V30 1675 H 161.829 -1.14658 3.99783 0
M  V30 1676 H 160.406 -2.50146 2.76553 0
M  V30 1677 N 162.591 -1.51276 -0.441967 0
M  V30 1678 C 163.538 -1.72256 -1.53612 0
M  V30 1679 C 164.508 -0.564164 -1.56225 0
M  V30 1680 O 165.693 -0.798074 -1.73307 0
M  V30 1681 C 162.833 -1.84932 -2.91366 0
M  V30 1682 C 161.946 -3.12459 -2.98317 0
M  V30 1683 C 161.081 -3.15758 -4.27166 0
M  V30 1684 C 160.12 -4.37619 -4.27967 0
M  V30 1685 N 159.257 -4.38493 -5.48333 0
M  V30 1686 H 164.097 -2.65654 -1.35026 0
M  V30 1687 H 161.634 -1.31662 -0.656009 0
M  V30 1688 H 163.592 -1.90263 -3.7129 0
M  V30 1689 H 162.222 -0.949461 -3.08521 0
M  V30 1690 H 161.274 -3.1646 -2.11086 0
M  V30 1691 H 162.586 -4.02382 -2.94771 0
M  V30 1692 H 161.74 -3.19979 -5.15459 0
M  V30 1693 H 160.479 -2.23715 -4.33362 0
M  V30 1694 H 159.484 -4.33579 -3.38067 0
M  V30 1695 H 160.709 -5.30921 -4.23438 0
M  V30 1696 H 158.655 -3.49318 -5.55259 0
M  V30 1697 H 158.572 -5.22219 -5.46647 0
M  V30 1698 H 159.84 -4.469 -6.38671 0
M  V30 1699 N 164.069 0.697108 -1.41344 0
M  V30 1700 C 165.032 1.79281 -1.42797 0
M  V30 1701 C 166.032 1.57607 -0.318837 0
M  V30 1702 O 167.222 1.64309 -0.578642 0
M  V30 1703 C 164.354 3.17632 -1.23785 0
M  V30 1704 H 165.547 1.79385 -2.40335 0
M  V30 1705 H 163.1 0.904582 -1.27464 0
M  V30 1706 H 163.835 3.23167 -0.270814 0
M  V30 1707 H 163.62 3.34765 -2.04144 0
M  V30 1708 H 165.11 3.97617 -1.27633 0
M  V30 1709 N 165.547 1.27147 0.931209 0
M  V30 1710 C 166.457 1.11372 2.06478 0
M  V30 1711 C 167.473 0.044645 1.73943 0
M  V30 1712 O 168.649 0.250417 1.99837 0
M  V30 1713 C 165.714 0.758838 3.38294 0
M  V30 1714 C 164.775 1.90841 3.84549 0
M  V30 1715 C 164.008 1.57036 5.10074 0
M  V30 1716 O 164.231 0.476645 5.68405 0
M  V30 1717 O 163.165 2.40839 5.51616 0
M  V30 1718 H 166.991 2.06493 2.22698 0
M  V30 1719 H 164.576 1.06301 1.04978 0
M  V30 1720 H 166.458 0.574098 4.17471 0
M  V30 1721 H 165.133 -0.162879 3.2329 0
M  V30 1722 H 164.04 2.14819 3.06274 0
M  V30 1723 H 165.373 2.81021 4.04089 0
M  V30 1724 N 167.025 -1.13721 1.09112 0
M  V30 1725 C 168.273 -1.84559 0.823562 0
M  V30 1726 C 168.594 -1.83754 -0.652658 0
M  V30 1727 O 167.864 -1.29102 -1.47342 0
M  V30 1728 H 166.444 -0.683376 0.301673 0
M  V30 1729 H 169.106 -1.37771 1.37859 0
M  V30 1730 H 168.202 -2.8917 1.17419 0
M  V30 1731 N 168.503 -0.877838 -1.30888 0
M  V30 1732 C 169.451 -0.328662 -2.30266 0
M  V30 1733 C 170.445 0.560496 -1.59859 0
M  V30 1734 O 171.651 0.445722 -1.74394 0
M  V30 1735 H 168.026 -0.0876142 -0.746879 0
M  V30 1736 H 169.997 -1.18061 -2.74051 0
M  V30 1737 C 168.746 0.448071 -3.44801 0
M  V30 1738 H 168.069 -0.226859 -3.99156 0
M  V30 1739 H 169.509 0.797541 -4.16432 0
M  V30 1740 C 167.968 1.64239 -2.94155 0
M  V30 1741 O 168.498 2.74175 -2.93583 0
M  V30 1742 N 166.704 1.47716 -2.50256 0
M  V30 1743 H 166.251 0.582821 -2.5092 0
M  V30 1744 H 166.209 2.27765 -2.16727 0
M  V30 1745 N 169.982 1.44106 -0.638065 0
M  V30 1746 C 171.207 2.0685 -0.150916 0
M  V30 1747 C 171.632 1.47417 1.16833 0
M  V30 1748 O 170.99 0.578264 1.71831 0
M  V30 1749 C 171.038 3.60555 -0.05708 0
M  V30 1750 O 170.142 4.00465 0.984972 0
M  V30 1751 H 169.483 0.658151 -0.0879399 0
M  V30 1752 H 172.013 1.84865 -0.876707 0
M  V30 1753 H 172.023 4.07789 0.131232 0
M  V30 1754 H 170.698 4.03193 -1.02021 0
M  V30 1755 H 169.275 3.64849 0.770672 0
M  V30 1756 N 171.46 0.379036 1.52974 0
M  V30 1757 C 172.69 -0.20649 2.05566 0
M  V30 1758 C 173.098 -1.41906 1.25137 0
M  V30 1759 O 172.441 -1.81421 0.288464 0
M  V30 1760 C 172.503 -0.651086 3.53555 0
M  V30 1761 C 172.167 0.446626 4.54812 0
M  V30 1762 C 173.164 1.30079 5.03364 0
M  V30 1763 C 170.849 0.610719 4.98573 0
M  V30 1764 C 172.843 2.30426 5.94292 0
M  V30 1765 C 170.53 1.61754 5.89304 0
M  V30 1766 C 171.528 2.46274 6.37054 0
M  V30 1767 O 171.216 3.45237 7.25994 0
M  V30 1768 H 170.948 -0.0372381 0.674974 0
M  V30 1769 H 173.502 0.539718 1.98182 0
M  V30 1770 H 171.732 -1.44911 3.58522 0
M  V30 1771 H 173.421 -1.16112 3.88938 0
M  V30 1772 H 174.187 1.18527 4.70294 0
M  V30 1773 H 170.066 -0.0374044 4.60985 0
M  V30 1774 H 173.61 2.96432 6.31485 0
M  V30 1775 H 169.507 1.73348 6.21788 0
M  V30 1776 H 170.275 3.41124 7.44027 0
M  V30 1777 N 172.938 -1.57226 0.108567 0
M  V30 1778 C 174.178 -1.96717 -0.555155 0
M  V30 1779 C 174.542 -0.990003 -1.64508 0
M  V30 1780 O 175.743 -1.2739 -2.36696 0
M  V30 1781 C 174.014 -3.40575 -1.08367 0
M  V30 1782 S 175.573 -4.02072 -1.75737 0
M  V30 1783 H 172.391 -0.687638 -0.180762 0
M  V30 1784 H 174.993 -1.94563 0.191172 0
M  V30 1785 H 173.697 -4.0945 -0.279092 0
M  V30 1786 H 173.228 -3.46356 -1.86551 0
M  V30 1787 H 175.243 -3.91977 -3.04251 0
M  V30 1788 N 174.416 0.165178 -1.56732 0
M  V30 1789 C 175.693 0.908443 -1.73224 0
M  V30 1790 C 176.073 2.0013 -0.67165 0
M  V30 1791 O 175.421 2.26353 0.31253 0
M  V30 1792 C 175.631 1.46756 -3.16644 0
M  V30 1793 C 176.979 1.93809 -3.77787 0
M  V30 1794 O 178.003 1.56537 -3.1996 0
M  V30 1795 O 176.862 2.62486 -4.79336 0
M  V30 1796 H 173.956 0.428025 -0.707618 0
M  V30 1797 H 176.502 0.152526 -1.69013 0
M  V30 1798 H 175.274 0.68129 -3.85323 0
M  V30 1799 H 174.897 2.28749 -3.25207 0
M  V30 1800 N 175.894 1.51508 0.433938 0
M  V30 1801 C 177.124 1.67914 1.20369 0
M  V30 1802 C 177.532 0.377461 1.85397 0
M  V30 1803 O 176.875 -0.654255 1.71654 0
M  V30 1804 C 176.937 2.74045 2.32679 0
M  V30 1805 C 176.601 4.16543 1.87991 0
M  V30 1806 C 177.598 5.01211 1.38145 0
M  V30 1807 C 175.283 4.6266 1.95579 0
M  V30 1808 C 177.277 6.30056 0.964774 0
M  V30 1809 C 174.964 5.91501 1.53523 0
M  V30 1810 C 175.962 6.75027 1.04055 0
M  V30 1811 O 175.65 8.01459 0.625964 0
M  V30 1812 H 175.382 0.566578 0.368735 0
M  V30 1813 H 177.936 1.98709 0.51999 0
M  V30 1814 H 176.166 2.38572 3.04336 0
M  V30 1815 H 177.855 2.79295 2.94532 0
M  V30 1816 H 178.621 4.66783 1.31675 0
M  V30 1817 H 174.5 3.97767 2.33029 0
M  V30 1818 H 178.044 6.95202 0.57796 0
M  V30 1819 H 173.941 6.25442 1.59665 0
M  V30 1820 H 174.709 8.15043 0.751509 0
M  V30 1821 N 177.372 -0.689602 1.41712 0
M  V30 1822 C 178.6 -1.47827 1.44758 0
M  V30 1823 C 179.015 -1.88721 0.0545703 0
M  V30 1824 O 178.372 -1.57176 -0.927463 0
M  V30 1825 C 178.423 -2.73698 2.3616 0
M  V30 1826 O 178.144 -2.34524 3.7004 0
M  V30 1827 C 179.645 -3.67389 2.48072 0
M  V30 1828 H 176.865 -0.455357 0.49284 0
M  V30 1829 H 179.409 -0.848574 1.86063 0
M  V30 1830 H 177.564 -3.32891 1.98148 0
M  V30 1831 H 177.978 -3.15701 4.18847 0
M  V30 1832 H 179.452 -4.52475 3.16181 0
M  V30 1833 H 179.929 -4.12284 1.51388 0
M  V30 1834 H 180.535 -3.14097 2.86746 0
M  V30 1835 N 178.85 -1.27639 -0.924453 0
M  V30 1836 C 180.097 -1.14167 -1.67249 0
M  V30 1837 C 180.425 0.311863 -1.91984 0
M  V30 1838 O 179.68 1.24425 -1.51053 0
M  V30 1839 C 179.979 -1.87407 -3.04325 0
M  V30 1840 C 179.645 -3.37249 -2.99289 0
M  V30 1841 C 178.307 -3.7812 -2.97622 0
M  V30 1842 C 180.659 -4.32845 -2.90336 0
M  V30 1843 C 177.987 -5.12944 -2.8479 0
M  V30 1844 C 180.339 -5.6773 -2.79045 0
M  V30 1845 C 179.003 -6.07889 -2.7573 0
M  V30 1846 H 178.273 -0.417766 -0.612007 0
M  V30 1847 H 180.92 -1.58286 -1.07786 0
M  V30 1848 H 179.225 -1.35805 -3.67511 0
M  V30 1849 H 180.922 -1.74408 -3.61086 0
M  V30 1850 H 177.512 -3.04748 -3.01374 0
M  V30 1851 H 181.696 -4.02239 -2.90719 0
M  V30 1852 H 176.952 -5.432 -2.80612 0
M  V30 1853 H 181.126 -6.41472 -2.71083 0
M  V30 1854 H 178.753 -7.12314 -2.65544 0
M  V30 1855 N 180.328 1.1314 -1.09713 0
M  V30 1856 C 181.278 2.16709 -0.708593 0
M  V30 1857 C 182.262 1.58471 0.278523 0
M  V30 1858 O 183.454 1.76779 0.088427 0
M  V30 1859 C 180.583 3.43039 -0.133923 0
M  V30 1860 C 179.669 4.08277 -1.14763 0
M  V30 1861 N 180.06 4.48637 -2.33577 0
M  V30 1862 C 178.358 4.34954 -0.986446 0
M  V30 1863 C 179.059 4.9952 -2.98085 0
M  V30 1864 N 178.035 4.94561 -2.25632 0
M  V30 1865 H 181.837 2.45672 -1.61315 0
M  V30 1866 H 179.351 1.29967 -0.973775 0
M  V30 1867 H 181.348 4.16583 0.162465 0
M  V30 1868 H 180.008 3.15549 0.765447 0
M  V30 1869 H 181.019 4.41246 -2.7115 0
M  V30 1870 H 177.696 4.17258 -0.142008 0
M  V30 1871 H 179.086 5.40521 -3.99108 0
M  V30 1872 N 181.806 0.884767 1.30421 0
M  V30 1873 C 182.739 0.295999 2.26272 0
M  V30 1874 C 183.717 -0.58332 1.51777 0
M  V30 1875 O 184.901 -0.53346 1.80794 0
M  V30 1876 C 182.028 -0.57944 3.33707 0
M  V30 1877 C 181.074 0.230525 4.25877 0
M  V30 1878 S 181.907 1.61867 5.1045 0
M  V30 1879 C 183.063 0.749756 6.21393 0
M  V30 1880 H 183.296 1.10848 2.75862 0
M  V30 1881 H 180.829 0.684178 1.38414 0
M  V30 1882 H 182.787 -1.07879 3.96071 0
M  V30 1883 H 181.448 -1.36601 2.82841 0
M  V30 1884 H 180.641 -0.437542 5.02097 0
M  V30 1885 H 180.243 0.662493 3.68086 0
M  V30 1886 H 182.535 -0.0333547 6.77492 0
M  V30 1887 H 183.478 1.48356 6.92384 0
M  V30 1888 H 183.886 0.310751 5.63644 0
M  V30 1889 N 183.284 -1.43765 0.645699 0
M  V30 1890 C 184.247 -2.29163 -0.0409488 0
M  V30 1891 C 185.247 -1.41813 -0.757996 0
M  V30 1892 O 186.437 -1.63527 -0.600382 0
M  V30 1893 C 183.569 -3.23716 -1.06869 0
M  V30 1894 H 184.762 -2.91366 0.710345 0
M  V30 1895 H 182.315 -1.5092 0.406547 0
M  V30 1896 H 183.05 -2.66393 -1.84947 0
M  V30 1897 H 182.835 -3.88105 -0.558277 0
M  V30 1898 H 184.325 -3.87831 -1.54845 0
M  V30 1899 N 184.763 -0.387143 -1.52771 0
M  V30 1900 C 186.009 0.196025 -2.0185 0
M  V30 1901 C 186.342 1.46641 -1.27319 0
M  V30 1902 O 185.617 1.90889 -0.373032 0
M  V30 1903 C 185.9 0.466136 -3.5707 0
M  V30 1904 C 185.753 -0.819385 -4.42274 0
M  V30 1905 C 187.072 1.25768 -4.21747 0
M  V30 1906 H 184.191 0.0697708 -0.73369 0
M  V30 1907 H 186.833 -0.516286 -1.82851 0
M  V30 1908 H 184.983 1.07293 -3.7339 0
M  V30 1909 H 186.655 -1.4563 -4.37709 0
M  V30 1910 H 184.898 -1.43517 -4.09372 0
M  V30 1911 H 185.569 -0.585065 -5.48891 0
M  V30 1912 H 188.045 0.744167 -4.09391 0
M  V30 1913 H 186.921 1.41541 -5.30337 0
M  V30 1914 H 187.182 2.27228 -3.79236 0
M  V30 1915 N 186.241 1.57166 -0.116904 0
M  V30 1916 C 187.466 1.999 0.55271 0
M  V30 1917 C 187.891 0.996039 1.59564 0
M  V30 1918 O 187.249 -0.032556 1.81271 0
M  V30 1919 C 187.297 3.4152 1.15742 0
M  V30 1920 O 186.401 3.44106 2.27299 0
M  V30 1921 H 185.742 0.649447 0.138258 0
M  V30 1922 H 188.272 2.03573 -0.204759 0
M  V30 1923 H 188.282 3.79684 1.49346 0
M  V30 1924 H 186.957 4.14034 0.393493 0
M  V30 1925 H 185.534 3.17759 1.9515 0
M  V30 1926 N 187.719 -0.156864 1.56817 0
M  V30 1927 C 188.666 -1.19394 1.97519 0
M  V30 1928 C 189.636 -1.4322 0.841265 0
M  V30 1929 O 190.821 -1.55719 1.10255 0
M  V30 1930 C 187.961 -2.52483 2.35258 0
M  V30 1931 C 187.074 -2.35914 3.61896 0
M  V30 1932 C 186.209 -3.61969 3.88782 0
M  V30 1933 C 185.248 -3.40395 5.08722 0
M  V30 1934 N 184.385 -4.58556 5.31668 0
M  V30 1935 H 189.225 -0.839845 2.85921 0
M  V30 1936 H 186.762 -0.403264 1.41464 0
M  V30 1937 H 188.72 -3.30071 2.55165 0
M  V30 1938 H 187.35 -2.85859 1.49949 0
M  V30 1939 H 186.402 -1.49429 3.49821 0
M  V30 1940 H 187.714 -2.15926 4.49641 0
M  V30 1941 H 186.868 -4.47989 4.09135 0
M  V30 1942 H 185.607 -3.84951 2.9944 0
M  V30 1943 H 184.612 -2.52763 4.88253 0
M  V30 1944 H 185.837 -3.18822 5.99608 0
M  V30 1945 H 183.783 -4.81729 4.45279 0
M  V30 1946 H 183.7 -4.41535 6.13664 0
M  V30 1947 H 184.968 -5.45817 5.5651 0
M  V30 1948 N 189.197 -1.51736 -0.425897 0
M  V30 1949 C 190.444 -1.6497 -1.17436 0
M  V30 1950 C 190.772 -0.371445 -1.9092 0
M  V30 1951 O 190.027 0.644963 -1.84767 0
M  V30 1952 C 190.326 -2.81103 -2.20717 0
M  V30 1953 C 189.992 -4.19954 -1.64162 0
M  V30 1954 C 188.654 -4.57725 -1.48462 0
M  V30 1955 C 191.006 -5.06552 -1.22696 0
M  V30 1956 C 188.334 -5.79789 -0.897873 0
M  V30 1957 C 190.686 -6.29205 -0.654464 0
M  V30 1958 C 189.35 -6.6574 -0.484456 0
M  V30 1959 H 188.62 -0.603668 -0.429727 0
M  V30 1960 H 191.267 -1.85798 -0.463829 0
M  V30 1961 H 189.572 -2.54542 -2.97852 0
M  V30 1962 H 191.269 -2.8854 -2.78471 0
M  V30 1963 H 187.859 -3.90181 -1.77361 0
M  V30 1964 H 192.043 -4.77968 -1.33642 0
M  V30 1965 H 187.299 -6.06733 -0.75402 0
M  V30 1966 H 191.473 -6.95643 -0.324694 0
M  V30 1967 H 189.1 -7.60195 -0.0276833 0
M  V30 1968 N 190.675 0.682077 -1.42076 0
M  V30 1969 C 191.952 1.43755 -1.32642 0
M  V30 1970 C 192.332 2.11063 0.0396611 0
M  V30 1971 O 191.68 2.02701 1.05474 0
M  V30 1972 C 191.89 2.44596 -2.48946 0
M  V30 1973 C 193.238 3.09454 -2.9073 0
M  V30 1974 O 194.262 2.54922 -2.48783 0
M  V30 1975 O 193.121 4.08253 -3.63307 0
M  V30 1976 H 190.215 0.640857 -0.522715 0
M  V30 1977 H 192.761 0.711415 -1.54068 0
M  V30 1978 H 191.533 1.93609 -3.40046 0
M  V30 1979 H 191.156 3.24701 -2.29467 0
M  V30 1980 N 192.153 1.28127 0.917671 0
M  V30 1981 C 193.063 1.13556 2.05286 0
M  V30 1982 C 194.079 0.0630914 1.73886 0
M  V30 1983 O 195.255 0.271598 1.9956 0
M  V30 1984 C 192.32 0.794676 3.3747 0
M  V30 1985 C 191.381 1.94909 3.82504 0
M  V30 1986 C 190.614 1.62437 5.0838 0
M  V30 1987 O 190.837 0.536905 5.67867 0
M  V30 1988 O 189.771 2.46677 5.4903 0
M  V30 1989 H 193.597 2.08844 2.20495 0
M  V30 1990 H 191.182 1.07409 1.03845 0
M  V30 1991 H 193.064 0.618344 4.16839 0
M  V30 1992 H 191.739 -0.128581 3.23445 0
M  V30 1993 H 190.646 2.18055 3.03978 0
M  V30 1994 H 191.979 2.85291 4.01086 0
M  V30 1995 N 193.631 -1.12557 1.10312 0
M  V30 1996 C 194.578 -2.18247 0.750781 0
M  V30 1997 C 195.548 -1.63853 -0.272293 0
M  V30 1998 O 196.733 -1.90195 -0.151862 0
M  V30 1999 C 193.873 -3.44591 0.187379 0
M  V30 2000 C 192.986 -4.13046 1.2656 0
M  V30 2001 C 192.121 -5.27034 0.663978 0
M  V30 2002 C 191.16 -5.87353 1.72287 0
M  V30 2003 N 190.297 -6.92757 1.1416 0
M  V30 2004 H 195.137 -2.47732 1.65628 0
M  V30 2005 H 192.674 -1.21629 0.827337 0
M  V30 2006 H 194.632 -4.16904 -0.157148 0
M  V30 2007 H 193.262 -3.15527 -0.681355 0
M  V30 2008 H 192.314 -3.38924 1.72727 0
M  V30 2009 H 193.626 -4.53947 2.06721 0
M  V30 2010 H 192.78 -6.06104 0.268824 0
M  V30 2011 H 191.519 -4.87407 -0.169082 0
M  V30 2012 H 190.524 -5.06971 2.12746 0
M  V30 2013 H 191.749 -6.29051 2.55875 0
M  V30 2014 H 189.695 -6.5517 0.329984 0
M  V30 2015 H 189.612 -7.3225 1.88007 0
M  V30 2016 H 190.88 -7.75658 0.772956 0
M  V30 2017 N 195.109 -0.891671 -1.2995 0
M  V30 2018 C 196.337 -0.52866 -2.00032 0
M  V30 2019 C 196.752 0.884574 -1.66795 0
M  V30 2020 O 196.109 1.5827 -0.908669 0
M  V30 2021 C 196.16 -0.701814 -3.54622 0
M  V30 2022 O 195.881 -2.05942 -3.86678 0
M  V30 2023 C 197.382 -0.342683 -4.41973 0
M  V30 2024 H 194.602 -0.203659 -0.639347 0
M  V30 2025 H 197.146 -1.19881 -1.65677 0
M  V30 2026 H 195.301 -0.0789468 -3.8732 0
M  V30 2027 H 195.715 -2.08291 -4.81368 0
M  V30 2028 H 197.189 -0.514709 -5.49595 0
M  V30 2029 H 197.666 0.71975 -4.33262 0
M  V30 2030 H 198.272 -0.942154 -4.14733 0
M  V30 2031 N 196.587 1.43421 -0.653314 0
M  V30 2032 C 197.497 2.34568 0.0388565 0
M  V30 2033 C 198.513 1.53888 0.81207 0
M  V30 2034 O 199.689 1.86539 0.759294 0
M  V30 2035 C 196.754 3.32167 0.993269 0
M  V30 2036 C 195.815 4.28751 0.216977 0
M  V30 2037 C 195.048 5.21688 1.12593 0
M  V30 2038 O 195.271 5.19052 2.36519 0
M  V30 2039 O 194.205 5.98919 0.598284 0
M  V30 2040 H 198.031 2.95251 -0.711386 0
M  V30 2041 H 195.616 1.43564 -0.413502 0
M  V30 2042 H 197.498 3.92183 1.54176 0
M  V30 2043 H 196.173 2.73987 1.72374 0
M  V30 2044 H 195.08 3.72215 -0.375101 0
M  V30 2045 H 196.413 4.89913 -0.473924 0
M  V30 2046 N 198.065 0.39524 1.52563 0
M  V30 2047 C 199.313 -0.184678 2.01254 0
M  V30 2048 C 199.634 -1.46822 1.28329 0
M  V30 2049 O 198.904 -1.91666 0.405094 0
M  V30 2050 H 197.484 -0.0712355 0.743596 0
M  V30 2051 H 200.146 0.528293 1.87603 0
M  V30 2052 H 199.242 -0.390681 3.09645 0
M  V30 2053 N 199.544 -1.57102 0.125237 0
M  V30 2054 C 200.476 -2.12726 -0.853237 0
M  V30 2055 C 201.489 -1.07145 -1.22571 0
M  V30 2056 O 202.678 -1.34497 -1.17358 0
M  V30 2057 C 199.778 -2.61709 -2.15317 0
M  V30 2058 C 198.951 -3.91456 -1.95143 0
M  V30 2059 C 198.01 -4.25973 -3.08923 0
M  V30 2060 O 197.036 -4.94682 -2.81564 0
M  V30 2061 N 198.238 -3.83795 -4.35524 0
M  V30 2062 H 201.003 -2.97307 -0.377964 0
M  V30 2063 H 198.564 -1.61792 -0.0590011 0
M  V30 2064 H 200.556 -2.81826 -2.90441 0
M  V30 2065 H 199.126 -1.81974 -2.54174 0
M  V30 2066 H 198.346 -3.80185 -1.04177 0
M  V30 2067 H 199.634 -4.76283 -1.78976 0
M  V30 2068 H 199.032 -3.2839 -4.60626 0
M  V30 2069 H 197.589 -4.09008 -5.07499 0
M  V30 2070 N 201.022 0.148545 -1.56898 0
M  V30 2071 C 201.952 1.18524 -2.01182 0
M  V30 2072 C 202.933 1.4489 -0.891123 0
M  V30 2073 O 204.118 1.55836 -1.15882 0
M  V30 2074 C 201.248 2.51879 -2.39112 0
M  V30 2075 C 200.202 2.40038 -3.54353 0
M  V30 2076 C 199.528 3.78089 -3.78091 0
M  V30 2077 C 200.828 1.88577 -4.87069 0
M  V30 2078 H 202.522 0.817029 -2.88036 0
M  V30 2079 H 200.068 0.391575 -1.38574 0
M  V30 2080 H 202.021 3.24627 -2.68692 0
M  V30 2081 H 200.745 2.90532 -1.49193 0
M  V30 2082 H 199.404 1.69742 -3.24936 0
M  V30 2083 H 199.052 4.14175 -2.85426 0
M  V30 2084 H 198.752 3.71028 -4.55645 0
M  V30 2085 H 200.276 4.52387 -4.10095 0
M  V30 2086 H 201.69 2.51117 -5.15377 0
M  V30 2087 H 200.087 1.9241 -5.68417 0
M  V30 2088 H 201.157 0.84136 -4.77545 0
M  V30 2089 N 202.5 1.5196 0.417844 0
M  V30 2090 C 203.916 1.40569 0.755816 0
M  V30 2091 C 204.116 0.503316 1.95113 0
M  V30 2092 O 203.172 -0.0341925 2.52477 0
M  V30 2093 C 204.485 2.82947 1.01791 0
M  V30 2094 C 206.033 2.92231 1.12116 0
M  V30 2095 C 206.508 4.35559 1.41608 0
M  V30 2096 N 207.999 4.38753 1.48491 0
M  V30 2097 C 208.734 5.46705 1.7292 0
M  V30 2098 N 208.23 6.64788 1.95011 0
M  V30 2099 N 210.023 5.34209 1.74863 0
M  V30 2100 H 202.174 2.09168 -0.369098 0
M  V30 2101 H 204.437 0.942409 -0.102809 0
M  V30 2102 H 204.143 3.5106 0.212081 0
M  V30 2103 H 204.017 3.23462 1.94042 0
M  V30 2104 H 206.404 2.24304 1.9176 0
M  V30 2105 H 206.485 2.55185 0.177225 0
M  V30 2106 H 206.129 5.04042 0.624848 0
M  V30 2107 H 206.059 4.70133 2.37239 0
M  V30 2108 H 208.55 3.5363 1.33244 0
M  V30 2109 H 208.863 7.42845 2.13076 0
M  V30 2110 H 207.208 6.67869 1.92293 0
M  V30 2111 H 210.399 4.40937 1.57137 0
M  V30 2112 H 210.572 6.18415 1.93563 0
M  V30 2113 N 203.978 -0.674533 1.42435 0
M  V30 2114 C 204.888 -1.81751 1.48337 0
M  V30 2115 C 205.904 -1.69975 0.372099 0
M  V30 2116 O 207.08 -1.91521 0.62304 0
M  V30 2117 C 204.145 -3.17895 1.38361 0
M  V30 2118 C 203.206 -3.41625 2.59982 0
M  V30 2119 C 202.439 -4.71274 2.50473 0
M  V30 2120 O 202.662 -5.49197 1.54075 0
M  V30 2121 O 201.596 -4.96254 3.4061 0
M  V30 2122 H 205.422 -1.79728 2.44809 0
M  V30 2123 H 203.007 -0.830312 1.24202 0
M  V30 2124 H 204.889 -3.99136 1.35161 0
M  V30 2125 H 203.564 -3.20555 0.450144 0
M  V30 2126 H 202.471 -2.60231 2.68757 0
M  V30 2127 H 203.804 -3.43796 3.52229 0
M  V30 2128 N 205.456 -1.28612 -0.910864 0
M  V30 2129 C 206.705 -1.15311 -1.65488 0
M  V30 2130 C 207.018 0.296999 -1.93332 0
M  V30 2131 O 208.224 0.551168 -2.65847 0
M  V30 2132 C 206.68 -2.01599 -2.98137 0
M  V30 2133 C 206.288 -3.51367 -2.7793 0
M  V30 2134 C 208.032 -1.96993 -3.76024 0
M  V30 2135 C 205.939 -4.29797 -4.06237 0
M  V30 2136 H 204.869 -0.42796 -0.620779 0
M  V30 2137 H 207.52 -1.53166 -1.01057 0
M  V30 2138 H 205.902 -1.56603 -3.63719 0
M  V30 2139 H 207.076 -4.0434 -2.21011 0
M  V30 2140 H 205.391 -3.57529 -2.13452 0
M  V30 2141 H 207.988 -2.52856 -4.71135 0
M  V30 2142 H 208.331 -0.94733 -4.05378 0
M  V30 2143 H 208.864 -2.39973 -3.17266 0
M  V30 2144 H 205.603 -5.32648 -3.82055 0
M  V30 2145 H 205.123 -3.81596 -4.62757 0
M  V30 2146 H 206.802 -4.39869 -4.74473 0
M  V30 2147 N 206.934 1.1197 -1.10907 0
M  V30 2148 C 208.18 1.8386 -0.855773 0
M  V30 2149 C 208.513 1.84134 0.617103 0
M  V30 2150 O 207.788 1.29041 1.45529 0
M  V30 2151 C 208.071 3.31305 -1.411 0
M  V30 2152 C 207.924 3.39456 -2.9511 0
M  V30 2153 C 209.243 4.2721 -1.05736 0
M  V30 2154 H 206.362 0.667545 -0.312334 0
M  V30 2155 H 209.004 1.31331 -1.37303 0
M  V30 2156 H 207.154 3.76169 -0.97105 0
M  V30 2157 H 208.826 3.03191 -3.47668 0
M  V30 2158 H 207.069 2.79849 -3.31462 0
M  V30 2159 H 207.74 4.43209 -3.29044 0
M  V30 2160 H 210.216 3.90497 -1.43706 0
M  V30 2161 H 209.092 5.28775 -1.47269 0
M  V30 2162 H 209.353 4.42088 0.0325958 0
M  V30 2163 N 208.412 0.89855 1.29475 0
M  V30 2164 C 209.375 0.380272 2.26023 0
M  V30 2165 C 210.375 -0.484891 1.53315 0
M  V30 2166 O 211.565 -0.290108 1.71767 0
M  V30 2167 C 208.697 -0.45651 3.3783 0
M  V30 2168 H 209.89 1.23295 2.73383 0
M  V30 2169 H 207.443 0.676589 1.40897 0
M  V30 2170 H 208.178 -1.32922 2.95808 0
M  V30 2171 H 207.963 0.163393 3.91759 0
M  V30 2172 H 209.453 -0.810466 4.0966 0
M  V30 2173 N 209.89 -1.43072 0.660911 0
M  V30 2174 C 211.167 -1.95307 0.107017 0
M  V30 2175 C 211.547 -1.60192 -1.37484 0
M  V30 2176 O 210.895 -0.890949 -2.10415 0
M  V30 2177 C 211.105 -3.47124 0.361402 0
M  V30 2178 C 212.453 -4.23738 0.270455 0
M  V30 2179 O 213.477 -3.54981 0.294382 0
M  V30 2180 O 212.336 -5.46131 0.200737 0
M  V30 2181 H 209.43 -0.826984 -0.00517729 0
M  V30 2182 H 211.976 -1.52972 0.734681 0
M  V30 2183 H 210.748 -3.65837 1.38848 0
M  V30 2184 H 210.371 -3.96475 -0.298953 0
M  V30 2185 N 211.368 -0.403325 -1.52352 0
M  V30 2186 C 212.616 0.174003 -2.0135 0
M  V30 2187 C 212.937 1.46139 -1.29106 0
M  V30 2188 O 212.207 1.91448 -0.415253 0
M  V30 2189 H 210.787 0.0672911 -0.743963 0
M  V30 2190 H 213.449 -0.538235 -1.87321 0
M  V30 2191 H 212.545 0.374254 -3.09848 0
M  V30 2192 N 212.846 1.57033 -0.133567 0
M  V30 2193 C 214.095 1.94861 0.520768 0
M  V30 2194 C 214.408 1.02012 1.66892 0
M  V30 2195 O 215.614 1.29365 2.38699 0
M  V30 2196 C 214.07 3.46362 0.977809 0
M  V30 2197 C 213.678 4.47773 -0.142674 0
M  V30 2198 C 215.422 3.93083 1.60269 0
M  V30 2199 C 213.329 5.90468 0.331883 0
M  V30 2200 H 212.259 0.727453 0.198315 0
M  V30 2201 H 214.91 1.82227 -0.215759 0
M  V30 2202 H 213.292 3.54282 1.7692 0
M  V30 2203 H 214.466 4.51536 -0.919317 0
M  V30 2204 H 212.781 4.10891 -0.675124 0
M  V30 2205 H 215.378 4.97121 1.96914 0
M  V30 2206 H 215.721 3.33876 2.48662 0
M  V30 2207 H 216.254 3.88025 0.876453 0
M  V30 2208 H 212.993 6.53463 -0.516341 0
M  V30 2209 H 212.513 5.90094 1.07469 0
M  V30 2210 H 214.192 6.42179 0.788332 0
M  V30 2211 N 214.325 -0.140222 1.56975 0
M  V30 2212 C 215.55 -0.870414 1.88251 0
M  V30 2213 C 215.975 -1.73637 0.723312 0
M  V30 2214 O 215.333 -1.78329 -0.32689 0
M  V30 2215 C 215.381 -1.69737 3.18154 0
M  V30 2216 O 214.485 -2.80229 3.02565 0
M  V30 2217 H 213.826 -0.242025 0.61832 0
M  V30 2218 H 216.356 -0.128999 2.04193 0
M  V30 2219 H 216.366 -2.09099 3.50345 0
M  V30 2220 H 215.041 -1.06152 4.02125 0
M  V30 2221 H 213.618 -2.44224 2.81796 0
M  V30 2222 N 215.803 -1.52179 -0.40978 0
M  V30 2223 C 217.028 -1.70347 -1.18308 0
M  V30 2224 C 217.453 -0.411887 -1.83535 0
M  V30 2225 O 216.811 0.630587 -1.6998 0
M  V30 2226 C 216.859 -2.83977 -2.22238 0
M  V30 2227 O 215.963 -2.495 -3.28365 0
M  V30 2228 H 215.304 -0.567103 -0.345384 0
M  V30 2229 H 217.834 -1.98879 -0.480445 0
M  V30 2230 H 217.844 -3.0887 -2.66577 0
M  V30 2231 H 216.519 -3.77685 -1.74146 0
M  V30 2232 H 215.096 -2.35277 -2.89308 0
M  V30 2233 N 217.281 0.66697 -1.42791 0
M  V30 2234 C 218.528 1.42699 -1.43678 0
M  V30 2235 C 218.856 1.94419 -0.0560425 0
M  V30 2236 O 218.111 1.7182 0.936831 0
M  V30 2237 C 218.41 2.6349 -2.4147 0
M  V30 2238 C 218.076 2.30267 -3.8767 0
M  V30 2239 C 216.738 2.20918 -4.27491 0
M  V30 2240 C 219.09 2.03435 -4.79858 0
M  V30 2241 C 216.418 1.82873 -5.57471 0
M  V30 2242 C 218.77 1.66892 -6.10188 0
M  V30 2243 C 217.434 1.56058 -6.49001 0
M  V30 2244 H 216.704 0.522171 -0.525755 0
M  V30 2245 H 219.351 0.759785 -1.75783 0
M  V30 2246 H 217.656 3.35279 -2.0272 0
M  V30 2247 H 219.353 3.21684 -2.39417 0
M  V30 2248 H 215.943 2.38449 -3.56146 0
M  V30 2249 H 220.127 2.09586 -4.49875 0
M  V30 2250 H 215.383 1.7306 -5.86396 0
M  V30 2251 H 219.557 1.45157 -6.81104 0
M  V30 2252 H 217.184 1.26348 -7.49627 0
M  V30 2253 N 218.759 1.29093 0.90403 0
M  V30 2254 C 219.706 1.13853 2.00764 0
M  V30 2255 C 220.676 0.0330084 1.66067 0
M  V30 2256 O 221.861 0.199733 1.89752 0
M  V30 2257 C 219.001 0.816537 3.35301 0
M  V30 2258 C 218.114 2.00206 3.82807 0
M  V30 2259 C 217.249 1.61983 5.059 0
M  V30 2260 C 216.288 2.77143 5.45764 0
M  V30 2261 N 215.425 2.39346 6.60044 0
M  V30 2262 H 220.265 2.08276 2.13132 0
M  V30 2263 H 217.802 1.03648 1.04381 0
M  V30 2264 H 219.76 0.610557 4.12708 0
M  V30 2265 H 218.39 -0.090779 3.22672 0
M  V30 2266 H 217.442 2.31988 3.01473 0
M  V30 2267 H 218.754 2.86512 4.08304 0
M  V30 2268 H 217.908 1.37649 5.90879 0
M  V30 2269 H 216.647 0.728202 4.82233 0
M  V30 2270 H 215.652 3.02165 4.59322 0
M  V30 2271 H 216.877 3.66964 5.71414 0
M  V30 2272 H 214.823 1.52665 6.37989 0
M  V30 2273 H 214.74 3.19185 6.85315 0
M  V30 2274 H 216.008 2.1832 7.48303 0
M  V30 2275 N 220.237 -1.11381 1.11499 0
M  V30 2276 C 221.486 -1.82494 0.858993 0
M  V30 2277 C 221.799 -1.85605 -0.617278 0
M  V30 2278 O 223.005 -2.52824 -0.989552 0
M  V30 2279 C 221.461 -3.27745 1.48699 0
M  V30 2280 C 221.069 -3.32961 2.99735 0
M  V30 2281 C 222.813 -4.03754 1.31085 0
M  V30 2282 C 220.72 -4.72612 3.55516 0
M  V30 2283 H 219.65 -0.683802 0.317696 0
M  V30 2284 H 222.301 -1.25331 1.34031 0
M  V30 2285 H 220.683 -3.84844 0.933339 0
M  V30 2286 H 221.857 -2.85741 3.61509 0
M  V30 2287 H 220.172 -2.70433 3.16631 0
M  V30 2288 H 222.769 -5.06891 1.70192 0
M  V30 2289 H 223.112 -4.15527 0.253496 0
M  V30 2290 H 223.645 -3.53043 1.83318 0
M  V30 2291 H 220.384 -4.66036 4.60967 0
M  V30 2292 H 219.904 -5.2024 2.98513 0
M  V30 2293 H 221.583 -5.4157 3.53992 0
M  V30 2294 N 221.715 -0.905404 -1.28997 0
M  V30 2295 C 222.962 -0.534248 -1.95325 0
M  V30 2296 C 223.29 0.920535 -1.71337 0
M  V30 2297 O 222.545 1.66861 -1.02254 0
M  V30 2298 C 222.844 -0.779906 -3.48787 0
M  V30 2299 C 222.51 -2.21293 -3.92861 0
M  V30 2300 C 221.172 -2.60475 -4.04606 0
M  V30 2301 C 223.524 -3.14587 -4.15553 0
M  V30 2302 C 220.852 -3.9212 -4.36416 0
M  V30 2303 C 223.204 -4.45787 -4.48839 0
M  V30 2304 C 221.868 -4.84834 -4.58794 0
M  V30 2305 H 221.138 -0.195495 -0.714747 0
M  V30 2306 H 223.785 -1.14514 -1.53488 0
M  V30 2307 H 222.09 -0.0861365 -3.91705 0
M  V30 2308 H 223.787 -0.472029 -3.98212 0
M  V30 2309 H 220.377 -1.89887 -3.84241 0
M  V30 2310 H 224.561 -2.85528 -4.0594 0
M  V30 2311 H 219.817 -4.22086 -4.42327 0
M  V30 2312 H 223.991 -5.18098 -4.65346 0
M  V30 2313 H 221.618 -5.86877 -4.83197 0
M  V30 2314 N 223.193 1.4272 -0.668489 0
M  V30 2315 C 224.123 2.335 -0.000100175 0
M  V30 2316 C 225.104 1.50328 0.795964 0
M  V30 2317 O 226.289 1.78949 0.754385 0
M  V30 2318 C 223.419 3.33874 0.956302 0
M  V30 2319 C 222.373 4.27152 0.269278 0
M  V30 2320 C 221.699 5.17684 1.33818 0
M  V30 2321 C 222.999 5.15373 -0.847805 0
M  V30 2322 H 224.693 2.89639 -0.758244 0
M  V30 2323 H 222.239 1.39269 -0.366079 0
M  V30 2324 H 224.192 3.9629 1.43292 0
M  V30 2325 H 222.916 2.76025 1.74579 0
M  V30 2326 H 221.575 3.66123 -0.187042 0
M  V30 2327 H 221.223 4.56165 2.1195 0
M  V30 2328 H 220.923 5.80918 0.883659 0
M  V30 2329 H 222.447 5.82974 1.81586 0
M  V30 2330 H 223.861 5.7151 -0.452681 0
M  V30 2331 H 222.258 5.87407 -1.22773 0
M  V30 2332 H 223.328 4.5415 -1.69929 0
M  V30 2333 N 224.671 0.411399 1.52136 0
M  V30 2334 C 225.896 -0.165538 2.06738 0
M  V30 2335 C 226.321 -1.379 1.27926 0
M  V30 2336 O 225.679 -1.78628 0.310114 0
M  V30 2337 C 225.727 -0.492124 3.57226 0
M  V30 2338 O 224.831 -1.58276 3.80818 0
M  V30 2339 H 224.172 -0.0132132 0.663869 0
M  V30 2340 H 226.702 0.585253 1.96051 0
M  V30 2341 H 226.712 -0.750104 4.01045 0
M  V30 2342 H 225.387 0.394922 4.14021 0
M  V30 2343 H 223.964 -1.31677 3.48877 0
M  V30 2344 N 226.149 -1.5696 0.141893 0
M  V30 2345 C 227.379 -2.00031 -0.516828 0
M  V30 2346 C 227.787 -1.02091 -1.59293 0
M  V30 2347 O 227.13 -0.00909657 -1.83698 0
M  V30 2348 C 227.192 -3.39534 -1.1814 0
M  V30 2349 C 226.856 -4.56313 -0.250513 0
M  V30 2350 C 227.853 -5.17295 0.519839 0
M  V30 2351 C 225.538 -5.02061 -0.154907 0
M  V30 2352 C 227.532 -6.2243 1.3733 0
M  V30 2353 C 225.219 -6.07053 0.702161 0
M  V30 2354 C 226.217 -6.67106 1.46487 0
M  V30 2355 O 225.905 -7.70066 2.30767 0
M  V30 2356 H 225.637 -0.661451 -0.139493 0
M  V30 2357 H 228.191 -2.04086 0.231926 0
M  V30 2358 H 226.421 -3.32302 -1.97769 0
M  V30 2359 H 228.11 -3.66745 -1.73933 0
M  V30 2360 H 228.876 -4.82852 0.45598 0
M  V30 2361 H 224.755 -4.5505 -0.7383 0
M  V30 2362 H 228.299 -6.69233 1.96909 0
M  V30 2363 H 224.196 -6.40923 0.76733 0
M  V30 2364 H 224.964 -7.87264 2.23959 0
M  V30 2365 N 227.627 0.131896 -1.57047 0
M  V30 2366 C 228.574 1.16236 -1.99393 0
M  V30 2367 C 229.544 1.41863 -0.863943 0
M  V30 2368 O 230.729 1.53946 -1.12718 0
M  V30 2369 C 227.869 2.48708 -2.39245 0
M  V30 2370 C 226.982 2.30127 -3.65603 0
M  V30 2371 C 226.117 3.55738 -3.94492 0
M  V30 2372 C 225.156 3.32259 -5.14073 0
M  V30 2373 N 224.293 4.50039 -5.38896 0
M  V30 2374 H 229.133 0.794251 -2.87221 0
M  V30 2375 H 226.67 0.380707 -1.42088 0
M  V30 2376 H 228.628 3.25969 -2.60384 0
M  V30 2377 H 227.258 2.83437 -1.54478 0
M  V30 2378 H 226.31 1.43845 -3.52154 0
M  V30 2379 H 227.622 2.08746 -4.5302 0
M  V30 2380 H 226.776 4.41423 -4.1621 0
M  V30 2381 H 225.515 3.80138 -3.05526 0
M  V30 2382 H 224.52 2.44963 -4.92212 0
M  V30 2383 H 225.745 3.09242 -6.04604 0
M  V30 2384 H 223.691 4.74584 -4.52886 0
M  V30 2385 H 223.608 4.31716 -6.2061 0
M  V30 2386 H 224.876 5.36895 -5.65123 0
M  V30 2387 N 229.106 1.52395 0.401703 0
M  V30 2388 C 230.054 1.7689 1.51039 0
M  V30 2389 C 231.048 0.636298 1.56996 0
M  V30 2390 O 232.254 0.818507 1.60314 0
M  V30 2391 H 228.629 0.559502 0.502456 0
M  V30 2392 H 230.6 2.69757 1.27568 0
M  V30 2393 C 229.349 1.94331 2.88324 0
M  V30 2394 H 228.672 2.80905 2.84486 0
M  V30 2395 H 230.112 2.15466 3.65172 0
M  V30 2396 C 228.571 0.712396 3.29282 0
M  V30 2397 O 229.101 -0.116218 4.01532 0
M  V30 2398 N 227.307 0.546154 2.85422 0
M  V30 2399 H 226.854 1.22156 2.26794 0
M  V30 2400 H 226.812 -0.276113 3.13185 0
M  V30 2401 N 230.584 -0.659388 1.43143 0
M  V30 2402 C 231.831 -1.41935 1.44433 0
M  V30 2403 C 232.159 -1.94387 0.0663522 0
M  V30 2404 O 231.414 -1.72314 -0.927706 0
M  V30 2405 C 231.713 -2.62206 2.42864 0
M  V30 2406 C 231.379 -2.28208 3.88886 0
M  V30 2407 C 230.041 -2.18647 4.28657 0
M  V30 2408 C 232.393 -2.00887 4.8093 0
M  V30 2409 C 229.721 -1.79914 5.58433 0
M  V30 2410 C 232.073 -1.63653 6.11065 0
M  V30 2411 C 230.737 -1.52614 6.49819 0
M  V30 2412 H 230.007 -0.519376 0.528517 0
M  V30 2413 H 232.654 -0.750453 1.76183 0
M  V30 2414 H 230.959 -3.34199 2.04495 0
M  V30 2415 H 232.656 -3.2041 2.41119 0
M  V30 2416 H 229.246 -2.36557 3.57406 0
M  V30 2417 H 233.43 -2.07198 4.5098 0
M  V30 2418 H 228.686 -1.69948 5.87305 0
M  V30 2419 H 232.86 -1.41543 6.81864 0
M  V30 2420 H 230.487 -1.22371 7.50286 0
M  V30 2421 N 232.062 -1.29571 -0.897171 0
M  V30 2422 C 233.309 -1.17689 -1.6479 0
M  V30 2423 C 233.637 0.27107 -1.92602 0
M  V30 2424 O 232.892 1.21193 -1.53658 0
M  V30 2425 C 233.191 -1.9382 -3.00281 0
M  V30 2426 C 232.857 -3.43522 -2.92068 0
M  V30 2427 C 231.519 -3.84348 -2.89535 0
M  V30 2428 C 233.871 -4.38906 -2.81089 0
M  V30 2429 C 231.199 -5.18869 -2.73846 0
M  V30 2430 C 233.551 -5.73521 -2.66939 0
M  V30 2431 C 232.215 -6.13601 -2.62774 0
M  V30 2432 H 231.485 -0.430654 -0.603008 0
M  V30 2433 H 234.132 -1.60536 -1.04404 0
M  V30 2434 H 232.437 -1.4357 -3.64547 0
M  V30 2435 H 234.134 -1.82028 -3.57305 0
M  V30 2436 H 230.724 -3.11072 -2.94842 0
M  V30 2437 H 234.908 -4.08315 -2.82121 0
M  V30 2438 H 230.164 -5.4903 -2.69027 0
M  V30 2439 H 234.338 -6.47078 -2.57416 0
M  V30 2440 H 231.965 -7.17786 -2.50375 0
M  V30 2441 N 233.54 1.10788 -1.12088 0
M  V30 2442 C 234.788 1.8231 -0.872205 0
M  V30 2443 C 235.109 1.85419 0.603709 0
M  V30 2444 O 234.379 1.32963 1.43867 0
M  V30 2445 H 232.959 0.675137 -0.319686 0
M  V30 2446 H 235.621 1.34068 -1.41463 0
M  V30 2447 H 234.717 2.85955 -1.25045 0
M  V30 2448 N 235.018 0.912232 1.28515 0
M  V30 2449 C 236.264 0.545405 1.95328 0
M  V30 2450 C 236.597 -0.908313 1.71649 0
M  V30 2451 O 235.872 -1.64575 1.03659 0
M  V30 2452 C 236.155 0.853483 3.4984 0
M  V30 2453 C 236.008 2.35982 3.82926 0
M  V30 2454 C 237.327 0.348589 4.38717 0
M  V30 2455 H 234.446 0.199626 0.709449 0
M  V30 2456 H 237.088 1.1412 1.5191 0
M  V30 2457 H 235.238 0.34643 3.86952 0
M  V30 2458 H 236.91 2.93738 3.55691 0
M  V30 2459 H 235.153 2.81543 3.30024 0
M  V30 2460 H 235.824 2.52593 4.90816 0
M  V30 2461 H 238.3 0.78294 4.08668 0
M  V30 2462 H 237.176 0.593242 5.45685 0
M  V30 2463 H 237.437 -0.751049 4.35674 0
M  V30 2464 N 236.496 -1.42363 0.676048 0
M  V30 2465 C 237.773 -1.95183 0.127726 0
M  V30 2466 C 238.153 -1.61641 -1.35777 0
M  V30 2467 O 237.501 -0.913216 -2.09458 0
M  V30 2468 C 237.711 -3.46721 0.398199 0
M  V30 2469 C 239.059 -4.23427 0.315383 0
M  V30 2470 O 240.083 -3.54649 0.332016 0
M  V30 2471 O 238.942 -5.45888 0.25865 0
M  V30 2472 H 236.036 -0.826992 0.00359427 0
M  V30 2473 H 238.582 -1.52184 0.750864 0
M  V30 2474 H 237.354 -3.64344 1.4272 0
M  V30 2475 H 236.977 -3.96769 -0.256885 0
M  V30 2476 N 237.974 -0.419461 -1.51915 0
M  V30 2477 C 239.251 0.211999 -1.94448 0
M  V30 2478 C 239.631 1.61703 -1.35703 0
M  V30 2479 O 238.979 2.22102 -0.536931 0
M  V30 2480 C 239.189 0.207872 -3.4838 0
M  V30 2481 C 240.537 0.422192 -4.22496 0
M  V30 2482 O 241.561 0.286778 -3.55044 0
M  V30 2483 O 240.42 0.690009 -5.42126 0
M  V30 2484 H 237.514 0.139586 -0.815135 0
M  V30 2485 H 240.06 -0.476151 -1.62883 0
M  V30 2486 H 238.832 -0.775102 -3.83546 0
M  V30 2487 H 238.455 0.939688 -3.86336 0
M  V30 2488 N 239.452 1.56882 -0.150215 0
M  V30 2489 C 240.7 1.9584 0.499105 0
M  V30 2490 C 241.021 1.03623 1.65188 0
M  V30 2491 O 240.291 0.0984084 1.95653 0
M  V30 2492 H 238.871 0.723119 0.187373 0
M  V30 2493 H 241.533 1.9358 -0.226466 0
M  V30 2494 H 240.629 2.99638 0.873122 0
M  V30 2495 N 240.93 -0.123565 1.57115 0
M  V30 2496 C 241.84 -1.17074 2.033 0
M  V30 2497 C 242.856 -1.4561 0.952559 0
M  V30 2498 O 244.032 -1.56817 1.26374 0
M  V30 2499 C 241.097 -2.47857 2.42421 0
M  V30 2500 C 240.158 -2.26758 3.64526 0
M  V30 2501 C 239.391 -3.51305 4.01771 0
M  V30 2502 O 239.614 -4.5843 3.39409 0
M  V30 2503 O 238.548 -3.42578 4.94898 0
M  V30 2504 H 242.374 -0.808555 2.92739 0
M  V30 2505 H 239.959 -0.334027 1.45618 0
M  V30 2506 H 241.841 -3.2492 2.68338 0
M  V30 2507 H 240.516 -2.83558 1.5613 0
M  V30 2508 H 239.423 -1.47569 3.43765 0
M  V30 2509 H 240.756 -1.95963 4.51508 0
M  V30 2510 N 242.408 -1.52605 -0.393616 0
M  V30 2511 C 243.341 -1.71798 -1.50202 0
M  V30 2512 C 244.319 -0.565743 -1.52441 0
M  V30 2513 O 245.503 -0.794987 -1.70916 0
M  V30 2514 C 242.63 -1.7714 -2.88685 0
M  V30 2515 C 241.676 -2.98845 -3.04292 0
M  V30 2516 S 242.509 -4.58909 -2.75976 0
M  V30 2517 C 243.665 -4.6706 -4.1666 0
M  V30 2518 H 243.898 -2.65542 -1.33696 0
M  V30 2519 H 241.431 -1.42839 -0.586195 0
M  V30 2520 H 243.389 -1.80903 -3.68489 0
M  V30 2521 H 242.05 -0.844969 -3.02521 0
M  V30 2522 H 241.243 -2.99111 -4.05646 0
M  V30 2523 H 240.845 -2.9305 -2.32374 0
M  V30 2524 H 243.137 -4.45391 -5.10523 0
M  V30 2525 H 244.08 -5.6905 -4.21412 0
M  V30 2526 H 244.488 -3.95944 -4.02354 0
M  V30 2527 N 243.887 0.651787 -1.4349 0
M  V30 2528 C 245.117 1.43728 -1.48411 0
M  V30 2529 C 245.525 1.8893 -0.10103 0
M  V30 2530 O 244.868 1.60182 0.899307 0
M  V30 2531 C 244.93 2.70411 -2.36893 0
M  V30 2532 C 244.594 2.4714 -3.8441 0
M  V30 2533 C 245.591 2.10271 -4.75481 0
M  V30 2534 C 243.276 2.6142 -4.28912 0
M  V30 2535 C 245.27 1.87982 -6.0905 0
M  V30 2536 C 242.957 2.38746 -5.62533 0
M  V30 2537 C 243.955 2.02083 -6.5242 0
M  V30 2538 O 243.643 1.79647 -7.8357 0
M  V30 2539 H 243.375 0.447962 -0.506267 0
M  V30 2540 H 245.929 0.80624 -1.88915 0
M  V30 2541 H 244.159 3.36079 -1.91278 0
M  V30 2542 H 245.848 3.32364 -2.33 0
M  V30 2543 H 246.614 1.98814 -4.42378 0
M  V30 2544 H 242.493 2.88931 -3.59222 0
M  V30 2545 H 246.037 1.5929 -6.7917 0
M  V30 2546 H 241.934 2.49806 -5.95203 0
M  V30 2547 H 242.702 1.9406 -7.95162 0
M  V30 2548 N 245.365 1.30045 0.890287 0
M  V30 2549 C 246.297 1.11786 2.00091 0
M  V30 2550 C 247.31 0.0626307 1.62679 0
M  V30 2551 O 248.499 0.308112 1.75821 0
M  V30 2552 C 245.599 0.681527 3.31977 0
M  V30 2553 C 244.772 1.81735 3.97858 0
M  V30 2554 C 243.831 1.37045 5.08041 0
M  V30 2555 O 242.857 2.07677 5.29961 0
M  V30 2556 N 244.059 0.246525 5.79976 0
M  V30 2557 H 246.824 2.07441 2.16306 0
M  V30 2558 H 244.385 1.2211 1.06305 0
M  V30 2559 H 246.377 0.365675 4.03045 0
M  V30 2560 H 244.947 -0.182828 3.12065 0
M  V30 2561 H 244.167 2.30159 3.20032 0
M  V30 2562 H 245.455 2.57865 4.38615 0
M  V30 2563 H 244.853 -0.34215 5.64664 0
M  V30 2564 H 243.41 -0.00990438 6.51799 0
M  V30 2565 N 246.843 -1.10192 1.12674 0
M  V30 2566 C 248.071 -1.85983 0.906527 0
M  V30 2567 C 248.486 -1.80783 -0.544333 0
M  V30 2568 O 247.843 -1.19834 -1.37645 0
M  V30 2569 C 247.894 -3.34281 1.37618 0
M  V30 2570 O 247.615 -3.39401 2.77017 0
M  V30 2571 C 249.116 -4.26938 1.19325 0
M  V30 2572 H 246.336 -0.587716 0.323775 0
M  V30 2573 H 248.88 -1.39284 1.49734 0
M  V30 2574 H 247.035 -3.78436 0.828539 0
M  V30 2575 H 247.449 -4.31838 2.97684 0
M  V30 2576 H 248.923 -5.29181 1.57071 0
M  V30 2577 H 249.4 -4.38995 0.134097 0
M  V30 2578 H 250.006 -3.8859 1.72852 0
M  V30 2579 N 248.321 -0.919034 -1.28029 0
M  V30 2580 C 249.251 -0.428581 -2.29533 0
M  V30 2581 C 250.232 0.50659 -1.62381 0
M  V30 2582 O 251.417 0.413195 -1.89753 0
M  V30 2583 C 248.547 0.327388 -3.45753 0
M  V30 2584 C 247.501 -0.519137 -4.2484 0
M  V30 2585 C 246.827 0.365486 -5.33449 0
M  V30 2586 C 248.127 -1.77914 -4.91064 0
M  V30 2587 H 249.821 -1.27687 -2.70807 0
M  V30 2588 H 247.367 -0.615428 -1.30186 0
M  V30 2589 H 249.32 0.681378 -4.15855 0
M  V30 2590 H 248.044 1.20963 -3.03374 0
M  V30 2591 H 246.703 -0.855717 -3.56473 0
M  V30 2592 H 246.351 1.24642 -4.87312 0
M  V30 2593 H 246.051 -0.197356 -5.87268 0
M  V30 2594 H 247.575 0.715241 -6.06396 0
M  V30 2595 H 248.989 -1.49374 -5.53498 0
M  V30 2596 H 247.386 -2.2848 -5.54903 0
M  V30 2597 H 248.456 -2.50382 -4.15255 0
M  V30 2598 N 249.799 1.42003 -0.683588 0
M  V30 2599 C 251.215 1.55625 -0.353976 0
M  V30 2600 C 251.415 1.66151 1.14 0
M  V30 2601 O 250.471 1.63329 1.92561 0
M  V30 2602 C 251.784 2.80171 -1.092 0
M  V30 2603 C 253.332 2.93954 -1.07518 0
M  V30 2604 C 253.807 4.21372 -1.79471 0
M  V30 2605 N 255.298 4.28303 -1.76381 0
M  V30 2606 C 256.033 5.25729 -2.28904 0
M  V30 2607 N 255.529 6.29254 -2.89846 0
M  V30 2608 N 257.322 5.17586 -2.19228 0
M  V30 2609 H 249.473 1.33415 -1.6527 0
M  V30 2610 H 251.736 0.64282 -0.696769 0
M  V30 2611 H 251.442 2.78561 -2.14701 0
M  V30 2612 H 251.316 3.7133 -0.662862 0
M  V30 2613 H 253.703 2.95086 -0.028475 0
M  V30 2614 H 253.784 2.04002 -1.54328 0
M  V30 2615 H 253.428 4.21001 -2.84114 0
M  V30 2616 H 253.358 5.10275 -1.30104 0
M  V30 2617 H 255.849 3.54119 -1.31939 0
M  V30 2618 H 256.162 6.99964 -3.27522 0
M  V30 2619 H 254.507 6.29791 -2.93919 0
M  V30 2620 H 257.698 4.35631 -1.71299 0
M  V30 2621 H 257.871 5.93348 -2.60466 0
M  V30 2622 N 251.277 0.427512 1.51691 0
M  V30 2623 C 252.207 -0.3796 2.30394 0
M  V30 2624 C 253.188 -1.02982 1.35384 0
M  V30 2625 O 254.373 -1.03534 1.643 0
M  V30 2626 C 251.503 -1.48649 3.1388 0
M  V30 2627 C 250.457 -0.960294 4.17088 0
M  V30 2628 C 249.783 -2.16219 4.89033 0
M  V30 2629 C 251.083 -0.00153679 5.223 0
M  V30 2630 H 252.777 0.277164 2.98114 0
M  V30 2631 H 250.323 0.134739 1.43368 0
M  V30 2632 H 252.276 -2.05826 3.67714 0
M  V30 2633 H 251 -2.1714 2.43962 0
M  V30 2634 H 249.659 -0.410806 3.64291 0
M  V30 2635 H 249.307 -2.83307 4.15628 0
M  V30 2636 H 249.007 -1.81654 5.58816 0
M  V30 2637 H 250.531 -2.73968 5.45687 0
M  V30 2638 H 251.945 -0.482687 5.71264 0
M  V30 2639 H 250.342 0.256199 5.99553 0
M  V30 2640 H 251.412 0.938174 4.75738 0
M  V30 2641 N 252.755 -1.56801 0.158532 0
M  V30 2642 C 253.718 -2.16138 -0.762705 0
M  V30 2643 C 254.718 -1.1061 -1.16713 0
M  V30 2644 O 255.908 -1.36191 -1.08617 0
M  V30 2645 C 253.04 -2.73386 -2.03649 0
M  V30 2646 H 254.233 -2.98886 -0.246354 0
M  V30 2647 H 251.786 -1.56035 -0.0909744 0
M  V30 2648 H 252.521 -1.94335 -2.59623 0
M  V30 2649 H 252.306 -3.50601 -1.75559 0
M  V30 2650 H 253.796 -3.19065 -2.6942 0
M  V30 2651 N 254.233 0.115231 -1.57178 0
M  V30 2652 C 255.18 1.14115 -2.00615 0
M  V30 2653 C 256.15 1.40939 -0.878941 0
M  V30 2654 O 257.335 1.52741 -1.14345 0
M  V30 2655 C 254.475 2.46156 -2.4187 0
M  V30 2656 C 253.588 2.26236 -3.68024 0
M  V30 2657 C 252.723 3.51534 -3.98243 0
M  V30 2658 C 251.762 3.26787 -5.17568 0
M  V30 2659 N 250.899 4.44298 -5.43639 0
M  V30 2660 H 255.739 0.763743 -2.88047 0
M  V30 2661 H 253.276 0.365615 -1.42484 0
M  V30 2662 H 255.234 3.23189 -2.63827 0
M  V30 2663 H 253.864 2.81783 -1.57475 0
M  V30 2664 H 252.916 1.40102 -3.5366 0
M  V30 2665 H 254.228 2.03929 -4.55208 0
M  V30 2666 H 253.382 4.36984 -4.20868 0
M  V30 2667 H 252.121 3.76876 -3.09541 0
M  V30 2668 H 251.126 2.39729 -4.94783 0
M  V30 2669 H 252.351 3.02812 -6.0785 0
M  V30 2670 H 250.297 4.69754 -4.57895 0
M  V30 2671 H 250.214 4.25109 -6.25154 0
M  V30 2672 H 251.482 5.3087 -5.70786 0
M  V30 2673 N 255.711 1.52812 0.385517 0
M  V30 2674 C 256.621 1.80766 1.49535 0
M  V30 2675 C 257.637 0.694651 1.59532 0
M  V30 2676 O 258.813 0.982611 1.75803 0
M  V30 2677 C 255.878 1.97381 2.85029 0
M  V30 2678 C 254.939 3.21295 2.84724 0
M  V30 2679 C 254.172 3.37108 4.13756 0
M  V30 2680 O 254.395 2.5765 5.08893 0
M  V30 2681 O 253.329 4.30378 4.20783 0
M  V30 2682 H 257.155 2.75015 1.28842 0
M  V30 2683 H 254.74 1.37946 0.573697 0
M  V30 2684 H 256.622 2.09996 3.65349 0
M  V30 2685 H 255.297 1.06322 3.05741 0
M  V30 2686 H 254.204 3.1412 2.03174 0
M  V30 2687 H 255.537 4.12212 2.68965 0
M  V30 2688 N 257.189 -0.644168 1.43834 0
M  V30 2689 C 258.119 -1.76814 1.52509 0
M  V30 2690 C 259.1 -1.65823 0.379052 0
M  V30 2691 O 260.285 -1.84781 0.597466 0
M  V30 2692 C 257.415 -3.15288 1.4564 0
M  V30 2693 C 256.369 -3.41053 2.58586 0
M  V30 2694 C 255.695 -4.79421 2.36769 0
M  V30 2695 C 256.995 -3.34902 4.00797 0
M  V30 2696 H 258.689 -1.69812 2.46586 0
M  V30 2697 H 256.235 -0.815542 1.1868 0
M  V30 2698 H 258.188 -3.93681 1.50311 0
M  V30 2699 H 256.912 -3.23043 0.480725 0
M  V30 2700 H 255.571 -2.65035 2.53282 0
M  V30 2701 H 255.219 -4.83863 1.37424 0
M  V30 2702 H 254.919 -4.9762 3.12487 0
M  V30 2703 H 256.443 -5.6006 2.43238 0
M  V30 2704 H 257.857 -4.03218 4.07539 0
M  V30 2705 H 256.254 -3.64637 4.76613 0
M  V30 2706 H 257.324 -2.32928 4.25291 0
M  V30 2707 N 258.668 -1.30515 -0.883378 0
M  V30 2708 C 259.916 -1.19194 -1.63209 0
M  V30 2709 C 260.237 0.253205 -1.93349 0
M  V30 2710 O 259.507 1.17025 -1.57105 0
M  V30 2711 H 258.087 -0.438148 -0.605009 0
M  V30 2712 H 260.749 -1.63663 -1.05832 0
M  V30 2713 H 259.845 -1.75396 -2.58153 0
M  V30 2714 N 260.146 1.09593 -1.13257 0
M  V30 2715 C 261.392 1.82003 -0.89458 0
M  V30 2716 C 261.725 1.85402 0.577906 0
M  V30 2717 O 261 1.32099 1.42759 0
M  V30 2718 C 261.283 3.28237 -1.48096 0
M  V30 2719 C 261.136 3.3312 -3.02244 0
M  V30 2720 C 262.455 4.24871 -1.14774 0
M  V30 2721 H 259.574 0.66077 -0.326424 0
M  V30 2722 H 262.216 1.28389 -1.40058 0
M  V30 2723 H 260.366 3.74024 -1.05062 0
M  V30 2724 H 262.038 2.95748 -3.54021 0
M  V30 2725 H 260.281 2.72756 -3.37323 0
M  V30 2726 H 260.952 4.3613 -3.38371 0
M  V30 2727 H 263.428 3.87361 -1.51957 0
M  V30 2728 H 262.304 5.25532 -1.58452 0
M  V30 2729 H 262.565 4.42058 -0.0611849 0
M  V30 2730 N 261.624 0.925811 1.2754 0
M  V30 2731 C 262.873 0.561084 1.93739 0
M  V30 2732 C 263.186 -0.901685 1.73577 0
M  V30 2733 O 264.392 -1.37511 2.34101 0
M  V30 2734 C 262.848 0.952668 3.47062 0
M  V30 2735 C 262.456 2.43599 3.75983 0
M  V30 2736 C 264.2 0.659103 4.19352 0
M  V30 2737 C 262.107 2.76707 5.22673 0
M  V30 2738 H 261.037 0.206122 0.725279 0
M  V30 2739 H 263.688 1.12637 1.44863 0
M  V30 2740 H 262.07 0.316053 3.94737 0
M  V30 2741 H 263.244 3.12035 3.39073 0
M  V30 2742 H 261.559 2.70125 3.16893 0
M  V30 2743 H 264.156 0.882985 5.27359 0
M  V30 2744 H 264.499 -0.403607 4.14339 0
M  V30 2745 H 265.032 1.25473 3.77494 0
M  V30 2746 H 261.771 3.8188 5.32774 0
M  V30 2747 H 261.291 2.12919 5.60737 0
M  V30 2748 H 262.97 2.6435 5.90532 0
M  V30 2749 N 263.102 -1.41638 0.69111 0
M  V30 2750 C 264.348 -2.01598 0.220519 0
M  V30 2751 C 264.681 -1.54594 -1.17535 0
M  V30 2752 O 263.956 -0.755177 -1.79241 0
M  V30 2753 C 264.239 -3.59062 0.273243 0
M  V30 2754 C 264.092 -4.16203 1.70573 0
M  V30 2755 C 265.411 -4.38546 -0.369457 0
M  V30 2756 H 262.53 -0.732468 0.0816045 0
M  V30 2757 H 265.172 -1.68445 0.878986 0
M  V30 2758 H 263.322 -3.87435 -0.287411 0
M  V30 2759 H 264.994 -3.98722 2.31989 0
M  V30 2760 H 263.237 -3.71414 2.2413 0
M  V30 2761 H 263.908 -5.25358 1.69419 0
M  V30 2762 H 266.384 -4.1596 0.107977 0
M  V30 2763 H 265.26 -5.48069 -0.302002 0
M  V30 2764 H 265.521 -4.17662 -1.44951 0
M  V30 2765 N 264.58 -0.43555 -1.51462 0
M  V30 2766 C 265.808 0.130242 -2.0649 0
M  V30 2767 C 266.223 1.36614 -1.30315 0
M  V30 2768 O 265.58 1.78869 -0.362223 0
M  V30 2769 C 265.631 0.454253 -3.58635 0
M  V30 2770 O 265.352 -0.73259 -4.31931 0
M  V30 2771 C 266.853 1.07091 -4.3017 0
M  V30 2772 H 264.073 0.00871669 -0.670943 0
M  V30 2773 H 266.617 -0.614117 -1.95061 0
M  V30 2774 H 264.772 1.14851 -3.69984 0
M  V30 2775 H 265.186 -0.455787 -5.22516 0
M  V30 2776 H 266.66 1.24764 -5.37716 0
M  V30 2777 H 267.137 2.05144 -3.88346 0
M  V30 2778 H 267.743 0.416089 -4.2326 0
M  V30 2779 N 266.058 1.56714 -0.166846 0
M  V30 2780 C 267.021 2.16539 0.751232 0
M  V30 2781 C 268.021 1.11228 1.16125 0
M  V30 2782 O 269.211 1.36765 1.07894 0
M  V30 2783 C 266.343 2.74462 2.02196 0
M  V30 2784 H 267.536 2.99013 0.230499 0
M  V30 2785 H 265.089 1.56081 0.0826982 0
M  V30 2786 H 265.824 1.95709 2.58589 0
M  V30 2787 H 265.609 3.51527 1.73698 0
M  V30 2788 H 267.099 3.20489 2.67725 0
M  V30 2789 N 267.536 -0.106894 1.57237 0
M  V30 2790 C 268.486 -1.1366 1.9765 0
M  V30 2791 C 269.47 -1.36416 0.853203 0
M  V30 2792 O 270.662 -1.37305 1.11697 0
M  V30 2793 C 267.791 -2.46 2.39455 0
M  V30 2794 C 266.877 -2.26668 3.58445 0
M  V30 2795 N 267.268 -1.77176 4.73754 0
M  V30 2796 C 265.566 -2.57279 3.64312 0
M  V30 2797 C 266.267 -1.71836 5.5574 0
M  V30 2798 N 265.243 -2.16623 4.98573 0
M  V30 2799 H 269.045 -0.74669 2.84256 0
M  V30 2800 H 266.559 -0.314483 1.59326 0
M  V30 2801 H 268.556 -3.2049 2.6663 0
M  V30 2802 H 267.216 -2.85738 1.54219 0
M  V30 2803 H 268.227 -1.46545 4.96734 0
M  V30 2804 H 264.904 -3.00622 2.89711 0
M  V30 2805 H 266.294 -1.34723 6.58255 0
M  V30 2806 N 269.014 -1.53014 -0.377408 0
M  V30 2807 C 270.254 -1.70318 -1.1301 0
M  V30 2808 C 270.618 -0.439538 -1.86901 0
M  V30 2809 O 271.819 -0.489095 -2.64313 0
M  V30 2810 C 270.09 -2.91125 -2.07319 0
M  V30 2811 S 271.649 -3.29075 -2.90268 0
M  V30 2812 H 268.467 -0.599426 -0.382374 0
M  V30 2813 H 271.069 -1.91089 -0.412933 0
M  V30 2814 H 269.773 -3.81303 -1.51777 0
M  V30 2815 H 269.304 -2.7272 -2.83526 0
M  V30 2816 H 271.319 -2.80165 -4.09539 0
M  V30 2817 N 270.492 0.636531 -1.44174 0
M  V30 2818 C 271.402 1.77754 -1.53103 0
M  V30 2819 C 272.418 1.68928 -0.417034 0
M  V30 2820 O 273.594 1.89801 -0.6736 0
M  V30 2821 C 270.659 3.14115 -1.46741 0
M  V30 2822 C 269.72 3.34612 -2.68948 0
M  V30 2823 C 268.953 4.64467 -2.6288 0
M  V30 2824 O 269.176 5.44919 -1.68581 0
M  V30 2825 O 268.11 4.87049 -3.53648 0
M  V30 2826 H 271.936 1.73174 -2.49489 0
M  V30 2827 H 269.521 0.79709 -1.2636 0
M  V30 2828 H 271.403 3.95412 -1.45696 0
M  V30 2829 H 270.078 3.19249 -0.534975 0
M  V30 2830 H 268.985 2.53014 -2.75562 0
M  V30 2831 H 270.318 3.34336 -3.61221 0
M  V30 2832 N 271.97 1.30982 0.876444 0
M  V30 2833 C 272.918 1.18006 2.00443 0
M  V30 2834 C 273.912 0.0898871 1.69161 0
M  V30 2835 O 275.118 0.251333 1.78237 0
M  V30 2836 H 271.493 0.365196 0.65737 0
M  V30 2837 H 273.464 2.13453 2.0852 0
M  V30 2838 C 272.213 0.897521 3.35916 0
M  V30 2839 H 271.536 1.7285 3.60504 0
M  V30 2840 H 272.976 0.846874 4.15456 0
M  V30 2841 C 271.435 -0.399674 3.34521 0
M  V30 2842 O 271.965 -1.41852 3.7582 0
M  V30 2843 N 270.171 -0.413893 2.87637 0
M  V30 2844 H 269.718 0.41571 2.54224 0
M  V30 2845 H 269.676 -1.28175 2.87086 0
M  V30 2846 N 273.449 -1.08991 1.13837 0
M  V30 2847 C 274.412 -2.13925 0.822715 0
M  V30 2848 C 275.412 -1.599 -0.1699 0
M  V30 2849 O 276.602 -1.74104 0.0577251 0
M  V30 2850 C 273.734 -3.40155 0.225318 0
M  V30 2851 H 274.927 -2.43358 1.75262 0
M  V30 2852 H 272.48 -1.24603 0.943594 0
M  V30 2853 H 273.215 -3.16352 -0.713594 0
M  V30 2854 H 273 -3.80661 0.940193 0
M  V30 2855 H 274.49 -4.17594 0.0214784 0
M  V30 2856 N 274.927 -0.932562 -1.27047 0
M  V30 2857 C 275.837 -0.441219 -2.30414 0
M  V30 2858 C 276.853 0.480525 -1.67233 0
M  V30 2859 O 278.029 0.362151 -1.98117 0
M  V30 2860 C 275.094 0.293651 -3.45454 0
M  V30 2861 C 274.155 -0.663601 -4.2414 0
M  V30 2862 C 273.388 0.0362932 -5.33688 0
M  V30 2863 O 273.611 1.2548 -5.56427 0
M  V30 2864 O 272.545 -0.638015 -5.98509 0
M  V30 2865 H 276.371 -1.29962 -2.74488 0
M  V30 2866 H 273.956 -0.6981 -1.32087 0
M  V30 2867 H 275.838 0.707951 -4.15411 0
M  V30 2868 H 274.513 1.12758 -3.03426 0
M  V30 2869 H 273.42 -1.12768 -3.56699 0
M  V30 2870 H 274.753 -1.46489 -4.69896 0
M  V30 2871 N 276.405 1.4127 -0.698611 0
M  V30 2872 C 277.335 2.33447 -0.049629 0
M  V30 2873 C 278.316 1.51982 0.763898 0
M  V30 2874 O 279.501 1.80509 0.716257 0
M  V30 2875 C 276.631 3.35828 0.885267 0
M  V30 2876 C 275.585 4.27627 0.178613 0
M  V30 2877 C 274.911 5.20406 1.22807 0
M  V30 2878 C 276.211 5.13459 -0.956933 0
M  V30 2879 H 277.905 2.87966 -0.81951 0
M  V30 2880 H 275.451 1.38461 -0.395538 0
M  V30 2881 H 277.404 3.9924 1.34854 0
M  V30 2882 H 276.128 2.79666 1.68685 0
M  V30 2883 H 274.787 3.65643 -0.26466 0
M  V30 2884 H 274.435 4.60558 2.02226 0
M  V30 2885 H 274.135 5.82661 0.760239 0
M  V30 2886 H 275.659 5.86695 1.69179 0
M  V30 2887 H 277.073 5.70421 -0.573805 0
M  V30 2888 H 275.47 5.8467 -1.35205 0
M  V30 2889 H 276.54 4.50443 -1.79524 0
M  V30 2890 N 277.883 0.443576 1.51229 0
M  V30 2891 C 279.129 -0.120975 2.02439 0
M  V30 2892 C 279.462 -1.41815 1.32674 0
M  V30 2893 O 278.737 -1.89373 0.443622 0
M  V30 2894 C 279.02 -0.333291 3.58554 0
M  V30 2895 C 278.873 0.982968 4.38928 0
M  V30 2896 C 280.192 -1.10028 4.26124 0
M  V30 2897 H 277.311 -0.0424923 0.735774 0
M  V30 2898 H 279.953 0.583794 1.80809 0
M  V30 2899 H 278.103 -0.933614 3.77115 0
M  V30 2900 H 279.775 1.61775 4.32003 0
M  V30 2901 H 278.018 1.58611 4.03763 0
M  V30 2902 H 278.689 0.788379 5.46341 0
M  V30 2903 H 281.165 -0.591711 4.11871 0
M  V30 2904 H 280.041 -1.21761 5.35225 0
M  V30 2905 H 280.302 -2.12996 3.87408 0
M  V30 2906 N 279.361 -1.56624 0.175154 0
M  V30 2907 C 280.609 -1.96609 -0.467885 0
M  V30 2908 C 280.93 -1.06238 -1.63519 0
M  V30 2909 O 280.2 -0.129523 -1.95471 0
M  V30 2910 H 278.78 -0.726008 -0.175845 0
M  V30 2911 H 281.442 -1.93195 0.257234 0
M  V30 2912 H 280.538 -3.00989 -0.825342 0
M  V30 2913 N 280.839 0.0985539 -1.57292 0
M  V30 2914 C 282.255 0.45267 -1.53046 0
M  V30 2915 C 282.455 1.80713 -0.891342 0
M  V30 2916 O 281.511 2.4785 -0.482375 0
M  V30 2917 C 282.824 0.418341 -2.97776 0
M  V30 2918 C 284.372 0.500443 -3.08973 0
M  V30 2919 C 284.847 0.496297 -4.55303 0
M  V30 2920 N 286.338 0.557151 -4.59837 0
M  V30 2921 C 287.073 0.575726 -5.70502 0
M  V30 2922 N 286.569 0.550714 -6.90608 0
M  V30 2923 N 288.362 0.620277 -5.58667 0
M  V30 2924 H 280.513 -0.788673 -1.97215 0
M  V30 2925 H 282.776 -0.293188 -0.901524 0
M  V30 2926 H 282.482 -0.509659 -3.47988 0
M  V30 2927 H 282.356 1.2386 -3.56284 0
M  V30 2928 H 284.743 1.41886 -2.58751 0
M  V30 2929 H 284.824 -0.347894 -2.53423 0
M  V30 2930 H 284.468 -0.418162 -5.06176 0
M  V30 2931 H 284.398 1.3618 -5.08687 0
M  V30 2932 H 286.889 0.581816 -3.73394 0
M  V30 2933 H 287.202 0.568075 -7.70709 0
M  V30 2934 H 285.547 0.517816 -6.93068 0
M  V30 2935 H 288.738 0.637322 -4.63741 0
M  V30 2936 H 288.911 0.631283 -6.44918 0
M  V30 2937 N 282.317 1.53212 0.369288 0
M  V30 2938 C 283.247 1.82365 1.45826 0
M  V30 2939 C 284.228 0.676907 1.56051 0
M  V30 2940 O 285.413 0.926401 1.70679 0
M  V30 2941 C 282.543 2.01023 2.83208 0
M  V30 2942 C 281.497 3.1678 2.8781 0
M  V30 2943 C 280.823 3.20724 4.27832 0
M  V30 2944 C 282.123 4.55447 2.55667 0
M  V30 2945 H 283.817 2.73559 1.21678 0
M  V30 2946 H 281.363 1.3163 0.583911 0
M  V30 2947 H 283.316 2.20001 3.59413 0
M  V30 2948 H 282.04 1.06536 3.08736 0
M  V30 2949 H 280.699 2.97616 2.14056 0
M  V30 2950 H 280.347 2.23882 4.50429 0
M  V30 2951 H 280.047 3.98496 4.31827 0
M  V30 2952 H 281.571 3.41881 5.05915 0
M  V30 2953 H 282.985 4.74611 3.21586 0
M  V30 2954 H 281.382 5.35432 2.70984 0
M  V30 2955 H 282.452 4.60812 1.5093 0
M  V30 2956 N 283.795 -0.628877 1.44509 0
M  V30 2957 C 284.727 -1.754 1.47538 0
M  V30 2958 C 285.74 -1.58575 0.368506 0
M  V30 2959 O 286.929 -1.66847 0.634376 0
M  V30 2960 C 284.029 -3.1315 1.29577 0
M  V30 2961 C 283.202 -3.56413 2.53551 0
M  V30 2962 C 282.261 -4.7305 2.30457 0
M  V30 2963 O 281.287 -4.81247 3.03957 0
M  V30 2964 N 282.489 -5.64903 1.3366 0
M  V30 2965 H 285.254 -1.73272 2.44534 0
M  V30 2966 H 282.815 -0.813512 1.39977 0
M  V30 2967 H 284.807 -3.88902 1.11971 0
M  V30 2968 H 283.377 -3.09908 0.409371 0
M  V30 2969 H 282.597 -2.70847 2.86419 0
M  V30 2970 H 283.885 -3.82071 3.36005 0
M  V30 2971 H 283.283 -5.60975 0.729604 0
M  V30 2972 H 281.84 -6.40275 1.22032 0
M  V30 2973 N 285.273 -1.31445 -0.869486 0
M  V30 2974 C 286.205 -1.14955 -1.98287 0
M  V30 2975 C 287.218 -0.0885037 -1.62559 0
M  V30 2976 O 288.407 -0.336044 -1.75308 0
M  V30 2977 C 285.507 -0.734255 -3.3085 0
M  V30 2978 C 284.68 -1.88042 -3.94917 0
M  V30 2979 C 283.739 -1.4511 -5.05796 0
M  V30 2980 O 282.765 -2.16082 -5.2659 0
M  V30 2981 N 283.967 -0.338763 -5.79511 0
M  V30 2982 H 286.732 -2.10856 -2.12979 0
M  V30 2983 H 284.293 -1.23786 -1.04349 0
M  V30 2984 H 286.285 -0.42975 -4.02412 0
M  V30 2985 H 284.855 0.133158 -3.12316 0
M  V30 2986 H 284.075 -2.35222 -3.1633 0
M  V30 2987 H 285.363 -2.6481 -4.34457 0
M  V30 2988 H 284.761 0.252274 -5.65137 0
M  V30 2989 H 283.318 -0.0937925 -6.51733 0
M  V30 2990 N 286.751 1.08385 -1.14413 0
M  V30 2991 C 287.698 2.15311 -0.831265 0
M  V30 2992 C 288.668 1.64751 0.211292 0
M  V30 2993 O 289.853 1.90627 0.0811674 0
M  V30 2994 C 286.993 3.43658 -0.315143 0
M  V30 2995 C 286.106 4.08064 -1.41802 0
M  V30 2996 C 285.241 5.24207 -0.859126 0
M  V30 2997 C 284.28 5.80554 -1.93967 0
M  V30 2998 N 283.417 6.88042 -1.39793 0
M  V30 2999 H 288.257 2.41415 -1.74708 0
M  V30 3000 H 285.794 1.18474 -0.871909 0
M  V30 3001 H 287.752 4.172 0.00230884 0
M  V30 3002 H 286.382 3.17839 0.56378 0
M  V30 3003 H 285.434 3.3228 -1.85187 0
M  V30 3004 H 286.746 4.45962 -2.23427 0
M  V30 3005 H 285.9 6.04689 -0.49359 0
M  V30 3006 H 284.639 4.87699 -0.011932 0
M  V30 3007 H 283.644 4.98725 -2.31415 0
M  V30 3008 H 284.869 6.19121 -2.79046 0
M  V30 3009 H 282.815 6.53493 -0.572919 0
M  V30 3010 H 282.732 7.24767 -2.15054 0
M  V30 3011 H 284 7.72255 -1.0603 0
M  V30 3012 N 288.23 0.939286 1.26551 0
M  V30 3013 C 289.16 0.465044 2.28822 0
M  V30 3014 C 290.141 -0.480692 1.63167 0
M  V30 3015 O 291.326 -0.382955 1.90387 0
M  V30 3016 C 288.456 -0.27234 3.46231 0
M  V30 3017 C 287.41 0.58666 4.2396 0
M  V30 3018 C 286.736 -0.280573 5.33963 0
M  V30 3019 C 288.036 1.85704 4.88171 0
M  V30 3020 H 289.73 1.31979 2.68741 0
M  V30 3021 H 287.276 0.636061 1.29191 0
M  V30 3022 H 289.229 -0.615133 4.16886 0
M  V30 3023 H 287.953 -1.16121 3.0526 0
M  V30 3024 H 286.612 0.91232 3.55067 0
M  V30 3025 H 286.26 -1.16874 4.89234 0
M  V30 3026 H 285.96 0.29076 5.8688 0
M  V30 3027 H 287.484 -0.618678 6.07458 0
M  V30 3028 H 288.898 1.58161 5.51052 0
M  V30 3029 H 287.295 2.37279 5.51197 0
M  V30 3030 H 288.365 2.56957 4.11219 0
M  V30 3031 N 289.708 -1.40897 0.706093 0
M  V30 3032 C 290.638 -2.33418 0.0620085 0
M  V30 3033 C 291.619 -1.52385 -0.755827 0
M  V30 3034 O 292.804 -1.80886 -0.706674 0
M  V30 3035 C 289.934 -3.36293 -0.867445 0
M  V30 3036 C 288.888 -4.27716 -0.155932 0
M  V30 3037 C 288.214 -5.2105 -1.20046 0
M  V30 3038 C 289.514 -5.12944 0.984149 0
M  V30 3039 H 291.208 -2.87527 0.83477 0
M  V30 3040 H 288.754 -1.38249 0.402875 0
M  V30 3041 H 290.707 -3.99949 -1.32735 0
M  V30 3042 H 289.431 -2.80556 -1.67199 0
M  V30 3043 H 288.09 -3.65498 0.284047 0
M  V30 3044 H 287.738 -4.61624 -1.99781 0
M  V30 3045 H 287.438 -5.83056 -0.729328 0
M  V30 3046 H 288.962 -5.87584 -1.66066 0
M  V30 3047 H 290.376 -5.70109 0.604048 0
M  V30 3048 H 288.773 -5.83945 1.38304 0
M  V30 3049 H 289.843 -4.49485 1.81911 0
M  V30 3050 N 291.186 -0.45159 -1.50991 0
M  V30 3051 C 292.411 0.110667 -2.07105 0
M  V30 3052 C 292.836 1.3446 -1.31538 0
M  V30 3053 O 292.194 1.77743 -0.357365 0
M  V30 3054 C 292.242 0.397238 -3.58405 0
M  V30 3055 O 291.346 1.48124 -3.84881 0
M  V30 3056 H 290.687 -0.00439271 -0.663985 0
M  V30 3057 H 293.217 -0.637026 -1.9443 0
M  V30 3058 H 293.227 0.64351 -4.02893 0
M  V30 3059 H 291.902 -0.504553 -4.12828 0
M  V30 3060 H 290.479 1.22381 -3.52246 0
M  V30 3061 N 292.664 1.56529 -0.183458 0
M  V30 3062 C 293.574 2.22144 0.754272 0
M  V30 3063 C 294.59 1.21684 1.24374 0
M  V30 3064 O 295.766 1.54385 1.29333 0
M  V30 3065 C 292.831 2.85884 1.96141 0
M  V30 3066 C 291.892 4.01579 1.51765 0
M  V30 3067 C 291.125 4.6227 2.66725 0
M  V30 3068 O 291.348 4.21865 3.83909 0
M  V30 3069 O 290.282 5.51936 2.40104 0
M  V30 3070 H 294.108 3.02861 0.225527 0
M  V30 3071 H 291.693 1.49331 0.0453032 0
M  V30 3072 H 293.575 3.26253 2.66715 0
M  V30 3073 H 292.25 2.08154 2.47899 0
M  V30 3074 H 291.157 3.65856 0.781049 0
M  V30 3075 H 292.49 4.80938 1.04686 0
M  V30 3076 N 294.142 -0.090211 1.57342 0
M  V30 3077 C 295.39 -0.791241 1.85967 0
M  V30 3078 C 295.711 -1.7903 0.772859 0
M  V30 3079 O 294.981 -1.94872 -0.200398 0
M  V30 3080 H 293.561 -0.295205 0.686195 0
M  V30 3081 H 296.223 -0.0706782 1.94772 0
M  V30 3082 H 295.319 -1.31882 2.82867 0
M  V30 3083 N 295.62 -1.53406 -0.361157 0
M  V30 3084 C 296.567 -1.80156 -1.44265 0
M  V30 3085 C 297.537 -0.646183 -1.53015 0
M  V30 3086 O 298.722 -0.888818 -1.68833 0
M  V30 3087 C 295.862 -2.00116 -2.81154 0
M  V30 3088 C 294.975 -3.27833 -2.81335 0
M  V30 3089 C 294.11 -3.37957 -4.09828 0
M  V30 3090 C 293.149 -4.59689 -4.04168 0
M  V30 3091 N 292.286 -4.66942 -5.24318 0
M  V30 3092 H 297.126 -2.72438 -1.20754 0
M  V30 3093 H 294.663 -1.34954 -0.585296 0
M  V30 3094 H 296.621 -2.09677 -3.60682 0
M  V30 3095 H 295.251 -1.11167 -3.03054 0
M  V30 3096 H 294.303 -3.27204 -1.94014 0
M  V30 3097 H 295.615 -4.17442 -2.73027 0
M  V30 3098 H 294.769 -3.46853 -4.97773 0
M  V30 3099 H 293.508 -2.46372 -4.20894 0
M  V30 3100 H 292.513 -4.50889 -3.14609 0
M  V30 3101 H 293.738 -5.5262 -3.947 0
M  V30 3102 H 291.684 -3.7826 -5.35962 0
M  V30 3103 H 291.601 -5.50462 -5.18197 0
M  V30 3104 H 292.869 -4.80127 -6.14084 0
M  V30 3105 N 297.098 0.621204 -1.44841 0
M  V30 3106 C 298.326 1.40752 -1.51646 0
M  V30 3107 C 298.741 1.88246 -0.144549 0
M  V30 3108 O 298.098 1.61422 0.851416 0
M  V30 3109 C 298.149 2.62119 -2.4895 0
M  V30 3110 O 297.87 2.16602 -3.80808 0
M  V30 3111 C 299.371 3.55135 -2.65319 0
M  V30 3112 H 296.591 0.431325 -0.514004 0
M  V30 3113 H 299.135 0.758835 -1.899 0
M  V30 3114 H 297.29 3.23058 -2.13805 0
M  V30 3115 H 297.704 2.95358 -4.33433 0
M  V30 3116 H 299.178 4.36874 -3.37409 0
M  V30 3117 H 299.655 4.04592 -1.70886 0
M  V30 3118 H 300.261 3.00058 -3.01405 0
M  V30 3119 N 298.576 1.31904 0.862503 0
M  V30 3120 C 299.824 1.21776 1.61292 0
M  V30 3121 C 300.145 -0.222413 1.93727 0
M  V30 3122 O 299.415 -1.1451 1.58947 0
M  V30 3123 H 297.995 0.447717 0.597962 0
M  V30 3124 H 300.657 1.65326 1.03215 0
M  V30 3125 H 299.753 1.7948 2.5533 0
M  V30 3126 N 300.054 -1.07777 1.14986 0
M  V30 3127 C 301.465 -1.61766 0.932127 0
M  V30 3128 C 301.816 -1.88974 -0.527581 0
M  V30 3129 O 300.941 -1.65198 -1.39781 0
M  V30 3130 C 301.536 -2.93891 1.68563 0
M  V30 3131 C 300.095 -3.44639 1.5133 0
M  V30 3132 C 299.242 -2.18767 1.704 0
M  V30 3133 H 302.193 -0.909201 1.30074 0
M  V30 3134 H 302.214 -3.62623 1.15259 0
M  V30 3135 H 301.726 -2.74057 2.74799 0
M  V30 3136 H 299.827 -3.69564 0.474702 0
M  V30 3137 H 299.94 -4.20966 2.28746 0
M  V30 3138 H 298.304 -2.28253 1.13016 0
M  V30 3139 H 299.087 -2.01433 2.77992 0
M  V30 3140 N 301.532 -0.945985 -1.26051 0
M  V30 3141 C 302.442 -0.465633 -2.29933 0
M  V30 3142 C 303.458 0.462761 -1.67733 0
M  V30 3143 O 304.634 0.341118 -1.9849 0
M  V30 3144 C 301.699 0.256994 -3.45746 0
M  V30 3145 C 300.76 -0.708549 -4.23412 0
M  V30 3146 C 299.993 -0.0203135 -5.33696 0
M  V30 3147 O 300.216 1.19571 -5.57726 0
M  V30 3148 O 299.15 -0.701459 -5.97799 0
M  V30 3149 H 302.976 -1.32866 -2.73094 0
M  V30 3150 H 300.561 -0.712071 -1.31339 0
M  V30 3151 H 302.443 0.663852 -4.16138 0
M  V30 3152 H 301.118 1.09533 -3.04605 0
M  V30 3153 H 300.025 -1.16545 -3.55483 0
M  V30 3154 H 301.358 -1.51465 -4.68315 0
M  V30 3155 N 303.011 1.40521 -0.713556 0
M  V30 3156 C 304.257 2.01714 -0.261382 0
M  V30 3157 C 304.612 1.55562 1.13217 0
M  V30 3158 O 303.905 0.764893 1.7567 0
M  V30 3159 C 304.099 3.56317 -0.278 0
M  V30 3160 C 303.928 4.17476 -1.67163 0
M  V30 3161 C 302.698 4.50998 -2.2788 0
M  V30 3162 C 304.896 4.42472 -2.6215 0
M  V30 3163 N 302.878 4.9754 -3.5962 0
M  V30 3164 C 304.249 4.90985 -3.78594 0
M  V30 3165 C 306.304 4.24508 -2.60188 0
M  V30 3166 C 305.007 5.2342 -4.9338 0
M  V30 3167 C 307.033 4.58043 -3.741 0
M  V30 3168 C 306.395 5.06743 -4.89276 0
M  V30 3169 H 302.494 0.769104 -0.141434 0
M  V30 3170 H 305.078 1.70785 -0.934915 0
M  V30 3171 H 303.249 3.8668 0.36509 0
M  V30 3172 H 304.981 4.0425 0.190695 0
M  V30 3173 H 301.736 4.38062 -1.79997 0
M  V30 3174 H 302.16 5.25196 -4.27198 0
M  V30 3175 H 306.802 3.86078 -1.72348 0
M  V30 3176 H 304.52 5.60765 -5.81866 0
M  V30 3177 H 308.106 4.45785 -3.73854 0
M  V30 3178 H 306.986 5.32204 -5.75959 0
M  V30 3179 N 304.489 0.459591 1.5075 0
M  V30 3180 C 305.439 -0.358926 2.25157 0
M  V30 3181 C 306.423 -0.971285 1.28276 0
M  V30 3182 O 307.615 -0.885739 1.53244 0
M  V30 3183 C 304.744 -1.44695 3.11317 0
M  V30 3184 C 303.83 -0.842894 4.15639 0
M  V30 3185 N 304.221 0.0299373 5.05791 0
M  V30 3186 C 302.519 -1.10809 4.32015 0
M  V30 3187 C 303.22 0.371563 5.80512 0
M  V30 3188 N 302.196 -0.250409 5.43023 0
M  V30 3189 H 305.998 0.313636 2.92222 0
M  V30 3190 H 303.512 0.273021 1.60089 0
M  V30 3191 H 305.509 -2.04641 3.63218 0
M  V30 3192 H 304.169 -2.12162 2.45799 0
M  V30 3193 H 305.18 0.39797 5.16369 0
M  V30 3194 H 301.857 -1.7786 3.77719 0
M  V30 3195 H 303.247 1.08319 6.63111 0
M  V30 3196 N 305.967 -1.56429 0.191757 0
M  V30 3197 C 306.877 -2.22541 -0.742481 0
M  V30 3198 C 307.893 -1.22342 -1.23727 0
M  V30 3199 O 309.069 -1.55069 -1.28513 0
M  V30 3200 C 306.134 -2.8692 -1.94623 0
M  V30 3201 C 305.195 -4.02378 -1.49633 0
M  V30 3202 C 304.428 -4.63678 -2.6427 0
M  V30 3203 O 304.651 -4.23895 -3.81666 0
M  V30 3204 O 303.585 -5.53202 -2.37174 0
M  V30 3205 H 307.411 -3.02977 -0.209462 0
M  V30 3206 H 304.996 -1.49353 -0.0373832 0
M  V30 3207 H 306.878 -3.27663 -2.64982 0
M  V30 3208 H 305.553 -2.09466 -2.46791 0
M  V30 3209 H 304.46 -3.66265 -0.761636 0
M  V30 3210 H 305.793 -4.81487 -1.02134 0
M  V30 3211 N 307.445 0.0818655 -1.57387 0
M  V30 3212 C 308.856 0.634871 -1.75574 0
M  V30 3213 C 309.207 1.78435 -0.815809 0
M  V30 3214 O 308.332 2.164 0.0025366 0
M  V30 3215 C 308.927 1.15845 -3.18379 0
M  V30 3216 C 307.486 1.65741 -3.37945 0
M  V30 3217 C 306.633 0.572549 -2.71325 0
M  V30 3218 H 309.584 -0.144268 -1.58043 0
M  V30 3219 H 309.605 2.02751 -3.21982 0
M  V30 3220 H 309.117 0.321631 -3.86765 0
M  V30 3221 H 307.218 2.51781 -2.74658 0
M  V30 3222 H 307.331 1.74129 -4.46336 0
M  V30 3223 H 305.695 1.01518 -2.33594 0
M  V30 3224 H 306.478 -0.253918 -3.4236 0
M  V30 3225 N 308.923 1.53595 0.353017 0
M  V30 3226 C 310.148 1.7462 1.11904 0
M  V30 3227 C 310.573 0.479721 1.8188 0
M  V30 3228 O 309.931 -0.567066 1.72204 0
M  V30 3229 C 309.979 2.92029 2.11545 0
M  V30 3230 O 309.083 2.61516 3.18878 0
M  V30 3231 H 308.424 0.579531 0.324099 0
M  V30 3232 H 310.954 2.00525 0.406301 0
M  V30 3233 H 310.964 3.18551 2.5493 0
M  V30 3234 H 309.639 3.83888 1.60008 0
M  V30 3235 H 308.216 2.45852 2.80377 0
M  V30 3236 N 310.401 -0.613514 1.45168 0
M  V30 3237 C 311.817 -0.933629 1.29443 0
M  V30 3238 C 312.017 -2.00028 0.243101 0
M  V30 3239 O 311.073 -2.49848 -0.364992 0
M  V30 3240 C 312.386 -1.38018 2.67155 0
M  V30 3241 C 313.934 -1.49471 2.75004 0
M  V30 3242 C 314.409 -1.97503 4.13227 0
M  V30 3243 N 315.9 -2.04746 4.15491 0
M  V30 3244 C 316.635 -2.43121 5.19307 0
M  V30 3245 N 316.131 -2.80506 6.33473 0
M  V30 3246 N 317.924 -2.43408 5.06664 0
M  V30 3247 H 310.075 0.0916097 2.12202 0
M  V30 3248 H 312.338 -0.0216655 0.947752 0
M  V30 3249 H 312.044 -0.670625 3.45247 0
M  V30 3250 H 311.918 -2.34784 2.95222 0
M  V30 3251 H 314.305 -2.19519 1.9722 0
M  V30 3252 H 314.386 -0.510342 2.50657 0
M  V30 3253 H 314.03 -1.28045 4.91495 0
M  V30 3254 H 313.96 -2.96843 4.34962 0
M  V30 3255 H 316.451 -1.78468 3.33103 0
M  V30 3256 H 316.764 -3.08652 7.08487 0
M  V30 3257 H 315.109 -2.78216 6.36884 0
M  V30 3258 H 318.3 -2.13604 4.16523 0
M  V30 3259 H 318.473 -2.72989 5.87691 0
M  V30 3260 N 311.879 -1.3236 -0.855495 0
M  V30 3261 C 313.29 -1.2056 -1.42556 0
M  V30 3262 C 313.641 0.182209 -1.95352 0
M  V30 3263 O 312.766 1.08088 -1.87472 0
M  V30 3264 C 313.361 -2.1826 -2.59129 0
M  V30 3265 C 311.92 -2.10351 -3.12137 0
M  V30 3266 C 311.067 -2.06674 -1.84882 0
M  V30 3267 H 314.018 -1.442 -0.662727 0
M  V30 3268 H 314.039 -1.78064 -3.36264 0
M  V30 3269 H 313.551 -3.19257 -2.20673 0
M  V30 3270 H 311.652 -1.12599 -3.55179 0
M  V30 3271 H 311.765 -3.00135 -3.73438 0
M  V30 3272 H 310.129 -1.51901 -2.04446 0
M  V30 3273 H 310.912 -3.09451 -1.48643 0
M  V30 3274 N 313.357 1.07166 -1.15556 0
M  V30 3275 C 314.267 2.17947 -0.868116 0
M  V30 3276 C 315.283 1.73297 0.156297 0
M  V30 3277 O 316.459 2.01392 -0.0182327 0
M  V30 3278 C 313.524 3.44789 -0.36355 0
M  V30 3279 C 312.585 4.03996 -1.45209 0
M  V30 3280 C 311.818 5.24783 -0.971508 0
M  V30 3281 O 312.041 5.70109 0.182194 0
M  V30 3282 O 310.975 5.75715 -1.75603 0
M  V30 3283 H 314.801 2.4503 -1.79427 0
M  V30 3284 H 312.386 1.16539 -0.934824 0
M  V30 3285 H 314.268 4.21307 -0.0887113 0
M  V30 3286 H 312.943 3.19253 0.534708 0
M  V30 3287 H 311.85 3.29009 -1.78056 0
M  V30 3288 H 313.183 4.33808 -2.32533 0
M  V30 3289 N 314.835 0.952656 1.25548 0
M  V30 3290 C 315.798 0.475794 2.24207 0
M  V30 3291 C 316.798 -0.419428 1.55234 0
M  V30 3292 O 317.988 -0.216994 1.72843 0
M  V30 3293 C 315.12 -0.312814 3.39462 0
M  V30 3294 H 316.313 1.34779 2.67908 0
M  V30 3295 H 313.866 0.735739 1.37901 0
M  V30 3296 H 314.601 -1.20257 3.01179 0
M  V30 3297 H 314.386 0.329404 3.90714 0
M  V30 3298 H 315.876 -0.635986 4.12729 0
M  V30 3299 N 316.313 -1.40141 0.720998 0
M  V30 3300 C 317.559 -2.01084 0.263231 0
M  V30 3301 C 317.892 -1.57052 -1.14229 0
M  V30 3302 O 317.167 -0.793027 -1.77599 0
M  V30 3303 C 317.45 -3.58401 0.349344 0
M  V30 3304 C 317.303 -4.12491 1.79363 0
M  V30 3305 C 318.622 -4.39231 -0.276351 0
M  V30 3306 H 315.741 -0.730572 0.0971228 0
M  V30 3307 H 318.383 -1.66543 0.914518 0
M  V30 3308 H 316.533 -3.87958 -0.205165 0
M  V30 3309 H 318.205 -3.93711 2.40394 0
M  V30 3310 H 316.448 -3.66576 2.31958 0
M  V30 3311 H 317.119 -5.21646 1.80524 0
M  V30 3312 H 319.595 -4.15637 0.196184 0
M  V30 3313 H 318.471 -5.48586 -0.185681 0
M  V30 3314 H 318.732 -4.20643 -1.36059 0
M  V30 3315 N 317.792 -0.46758 -1.50504 0
M  V30 3316 C 318.702 0.33382 -2.32213 0
M  V30 3317 C 319.718 0.999323 -1.42441 0
M  V30 3318 O 320.894 0.988068 -1.75497 0
M  V30 3319 C 317.959 1.4035 -3.17022 0
M  V30 3320 C 317.02 0.754961 -4.2261 0
M  V30 3321 C 316.253 1.77367 -5.03365 0
M  V30 3322 O 316.476 2.99976 -4.8515 0
M  V30 3323 O 315.41 1.34744 -5.86624 0
M  V30 3324 H 319.236 -0.334067 -3.01857 0
M  V30 3325 H 316.821 -0.229496 -1.47627 0
M  V30 3326 H 318.703 2.02318 -3.69656 0
M  V30 3327 H 317.378 2.05492 -2.5011 0
M  V30 3328 H 316.285 0.0964244 -3.73976 0
M  V30 3329 H 317.618 0.146545 -4.91982 0
M  V30 3330 N 319.27 1.56325 -0.20005 0
M  V30 3331 C 320.233 2.18084 0.705132 0
M  V30 3332 C 321.233 1.13666 1.1374 0
M  V30 3333 O 322.423 1.39023 1.04968 0
M  V30 3334 C 319.555 2.78689 1.96329 0
M  V30 3335 H 320.748 2.99435 0.167023 0
M  V30 3336 H 318.301 1.56221 0.0495725 0
M  V30 3337 H 319.036 2.0115 2.5438 0
M  V30 3338 H 318.821 3.55133 1.66202 0
M  V30 3339 H 320.311 3.26096 2.60866 0
M  V30 3340 N 320.748 -0.0735177 1.57428 0
M  V30 3341 C 321.658 -1.10547 2.06922 0
M  V30 3342 C 322.674 -1.42506 0.998402 0
M  V30 3343 O 323.85 -1.52717 1.31299 0
M  V30 3344 C 320.915 -2.40019 2.50184 0
M  V30 3345 C 319.976 -2.15046 3.71556 0
M  V30 3346 C 319.209 -3.38345 4.12745 0
M  V30 3347 O 319.432 -4.47399 3.53822 0
M  V30 3348 O 318.366 -3.2666 5.05546 0
M  V30 3349 H 322.192 -0.715013 2.95163 0
M  V30 3350 H 319.777 -0.287531 1.46607 0
M  V30 3351 H 321.659 -3.16218 2.78539 0
M  V30 3352 H 320.334 -2.78447 1.65072 0
M  V30 3353 H 319.241 -1.36558 3.48285 0
M  V30 3354 H 320.574 -1.81499 4.57514 0
M  V30 3355 N 322.226 -1.5378 -0.344866 0
M  V30 3356 C 323.474 -1.70625 -1.08311 0
M  V30 3357 C 323.795 -0.471447 -1.89215 0
M  V30 3358 O 323.065 0.514616 -1.8902 0
M  V30 3359 H 321.645 -0.629058 -0.402859 0
M  V30 3360 H 324.307 -1.9103 -0.386459 0
M  V30 3361 H 323.403 -2.57656 -1.76124 0
M  V30 3362 N 323.704 0.605807 -1.45491 0
M  V30 3363 C 324.932 1.39136 -1.5313 0
M  V30 3364 C 325.347 1.88082 -0.164507 0
M  V30 3365 O 324.704 1.62316 0.834247 0
M  V30 3366 C 324.755 2.59463 -2.51716 0
M  V30 3367 O 324.476 2.12551 -3.83084 0
M  V30 3368 C 325.977 3.52301 -2.6907 0
M  V30 3369 H 323.197 0.425849 -0.51855 0
M  V30 3370 H 325.741 0.73865 -1.90694 0
M  V30 3371 H 323.896 3.20772 -2.17219 0
M  V30 3372 H 324.31 2.90744 -4.36541 0
M  V30 3373 H 325.784 4.33271 -3.42024 0
M  V30 3374 H 326.261 4.02757 -1.75167 0
M  V30 3375 H 326.867 2.96845 -3.04571 0
M  V30 3376 N 325.182 1.32811 0.848464 0
M  V30 3377 C 326.145 1.22194 1.9391 0
M  V30 3378 C 327.145 0.143404 1.60159 0
M  V30 3379 O 328.335 0.394253 1.6968 0
M  V30 3380 C 325.467 0.88067 3.29328 0
M  V30 3381 H 326.66 2.19127 2.04752 0
M  V30 3382 H 324.213 1.16731 1.0394 0
M  V30 3383 H 324.948 -0.0865776 3.24184 0
M  V30 3384 H 324.733 1.66052 3.55203 0
M  V30 3385 H 326.223 0.830871 4.09251 0
M  V30 3386 N 326.66 -1.06551 1.16123 0
M  V30 3387 C 328.076 -1.3142 0.905585 0
M  V30 3388 C 328.276 -1.96571 -0.442964 0
M  V30 3389 O 327.332 -2.23068 -1.18308 0
M  V30 3390 C 328.645 -2.19741 2.05267 0
M  V30 3391 C 330.193 -2.33165 2.08813 0
M  V30 3392 C 330.668 -3.24838 3.22868 0
M  V30 3393 N 332.159 -3.32421 3.22568 0
M  V30 3394 C 332.894 -4.0344 4.0746 0
M  V30 3395 N 332.39 -4.77003 5.02434 0
M  V30 3396 N 334.183 -3.99464 3.95456 0
M  V30 3397 H 326.334 -0.626548 2.02949 0
M  V30 3398 H 328.597 -0.338777 0.8854 0
M  V30 3399 H 328.303 -1.79142 3.02657 0
M  V30 3400 H 328.177 -3.20313 1.99198 0
M  V30 3401 H 330.564 -2.73013 1.12018 0
M  V30 3402 H 330.645 -1.3227 2.18948 0
M  V30 3403 H 330.289 -2.85708 4.19921 0
M  V30 3404 H 330.219 -4.25707 3.0997 0
M  V30 3405 H 332.71 -2.79994 2.53795 0
M  V30 3406 H 333.023 -5.28712 5.63634 0
M  V30 3407 H 331.368 -4.75992 5.06415 0
M  V30 3408 H 334.559 -3.4111 3.20564 0
M  V30 3409 H 334.732 -4.54544 4.61837 0
M  V30 3410 N 328.138 -0.959301 -1.25041 0
M  V30 3411 C 329.385 -0.616611 -1.92884 0
M  V30 3412 C 329.713 0.847036 -1.75087 0
M  V30 3413 O 328.968 1.62374 -1.09239 0
M  V30 3414 C 329.267 -0.927136 -3.45165 0
M  V30 3415 C 328.933 -2.37757 -3.83122 0
M  V30 3416 C 327.595 -2.77402 -3.93194 0
M  V30 3417 C 329.947 -3.31929 -4.01836 0
M  V30 3418 C 327.275 -4.10277 -4.19392 0
M  V30 3419 C 329.627 -4.64423 -4.29528 0
M  V30 3420 C 328.291 -5.03857 -4.37818 0
M  V30 3421 H 327.561 -0.225634 -0.705812 0
M  V30 3422 H 330.208 -1.20921 -1.48493 0
M  V30 3423 H 328.513 -0.252195 -3.90987 0
M  V30 3424 H 330.21 -0.6405 -3.95852 0
M  V30 3425 H 326.8 -2.06013 -3.75841 0
M  V30 3426 H 330.984 -3.02488 -3.93465 0
M  V30 3427 H 326.24 -4.40467 -4.24027 0
M  V30 3428 H 330.414 -5.37369 -4.42953 0
M  V30 3429 H 328.041 -6.06843 -4.57871 0
M  V30 3430 N 329.616 1.39756 -0.72842 0
M  V30 3431 C 330.579 2.29012 -0.0927297 0
M  V30 3432 C 331.579 1.45992 0.674025 0
M  V30 3433 O 332.769 1.66749 0.50402 0
M  V30 3434 C 329.901 3.29396 0.878137 0
M  V30 3435 H 331.094 2.86729 -0.879011 0
M  V30 3436 H 328.647 1.48293 -0.493847 0
M  V30 3437 H 329.382 2.76722 1.69101 0
M  V30 3438 H 329.167 3.907 0.331051 0
M  V30 3439 H 330.657 3.96199 1.3197 0
M  V30 3440 N 331.094 0.475555 1.50254 0
M  V30 3441 C 332.322 -0.0754493 2.06762 0
M  V30 3442 C 332.737 -1.33111 1.33891 0
M  V30 3443 O 332.094 -1.77846 0.40952 0
M  V30 3444 C 332.145 -0.359008 3.59713 0
M  V30 3445 O 331.866 0.846851 4.29837 0
M  V30 3446 C 333.367 -0.956484 4.32858 0
M  V30 3447 H 330.587 0.00907525 0.670939 0
M  V30 3448 H 333.131 0.665618 1.93364 0
M  V30 3449 H 331.286 -1.05001 3.72899 0
M  V30 3450 H 331.7 0.594162 5.21124 0
M  V30 3451 H 333.174 -1.10463 5.40834 0
M  V30 3452 H 333.651 -1.94775 3.93649 0
M  V30 3453 H 334.257 -0.303723 4.24214 0
M  V30 3454 N 332.573 -1.56217 0.208337 0
M  V30 3455 C 333.82 -1.97949 -0.42692 0
M  V30 3456 C 334.148 -1.09562 -1.60706 0
M  V30 3457 O 333.403 -0.137616 -1.95216 0
M  V30 3458 C 333.702 -3.45441 -0.916797 0
M  V30 3459 C 333.368 -4.50646 0.151391 0
M  V30 3460 C 332.03 -4.79139 0.444867 0
M  V30 3461 C 334.382 -5.13811 0.874492 0
M  V30 3462 C 331.71 -5.68084 1.46619 0
M  V30 3463 C 334.062 -6.03861 1.88506 0
M  V30 3464 C 332.726 -6.30704 2.18559 0
M  V30 3465 H 331.996 -0.724345 -0.156221 0
M  V30 3466 H 334.643 -1.89006 0.308084 0
M  V30 3467 H 332.948 -3.51521 -1.73032 0
M  V30 3468 H 334.645 -3.75094 -1.41794 0
M  V30 3469 H 331.235 -4.28511 -0.0875068 0
M  V30 3470 H 335.419 -4.91879 0.660996 0
M  V30 3471 H 330.675 -5.87151 1.7048 0
M  V30 3472 H 334.849 -6.51861 2.45051 0
M  V30 3473 H 332.476 -6.99424 2.97843 0
M  V30 3474 N 334.051 0.0651679 -1.57465 0
M  V30 3475 C 334.981 1.07693 -2.07182 0
M  V30 3476 C 335.962 1.39962 -0.966673 0
M  V30 3477 O 337.147 1.49475 -1.2398 0
M  V30 3478 C 334.277 2.3885 -2.52127 0
M  V30 3479 C 333.231 2.20917 -3.66579 0
M  V30 3480 C 332.557 3.57515 -3.97601 0
M  V30 3481 C 333.857 1.62493 -4.9638 0
M  V30 3482 H 335.551 0.663199 -2.91962 0
M  V30 3483 H 333.097 0.317569 -1.40455 0
M  V30 3484 H 335.05 3.09928 -2.85522 0
M  V30 3485 H 333.774 2.82215 -1.64384 0
M  V30 3486 H 332.433 1.52279 -3.33477 0
M  V30 3487 H 332.081 3.98463 -3.06979 0
M  V30 3488 H 331.781 3.46353 -4.74672 0
M  V30 3489 H 333.305 4.30013 -4.33499 0
M  V30 3490 H 334.719 2.23445 -5.27963 0
M  V30 3491 H 333.116 1.62009 -5.77818 0
M  V30 3492 H 334.186 0.587041 -4.81333 0
M  V30 3493 N 335.529 1.53961 0.336706 0
M  V30 3494 C 336.439 1.85432 1.43708 0
M  V30 3495 C 337.455 0.745053 1.57242 0
M  V30 3496 O 338.631 1.03804 1.72588 0
M  V30 3497 C 335.696 2.06349 2.78605 0
M  V30 3498 C 334.757 3.30191 2.74358 0
M  V30 3499 C 333.99 3.50101 4.02822 0
M  V30 3500 O 334.213 2.7371 5.00439 0
M  V30 3501 O 333.147 4.43547 4.06878 0
M  V30 3502 H 336.973 2.78975 1.20028 0
M  V30 3503 H 334.558 1.39701 0.52952 0
M  V30 3504 H 336.44 2.21513 3.58483 0
M  V30 3505 H 335.115 1.15995 3.02203 0
M  V30 3506 H 334.022 3.20425 1.93078 0
M  V30 3507 H 335.355 4.2056 2.55715 0
M  V30 3508 N 337.007 -0.598083 1.45811 0
M  V30 3509 C 338.235 -1.38322 1.53866 0
M  V30 3510 C 338.65 -1.87992 0.174479 0
M  V30 3511 O 338.007 -1.62756 -0.825627 0
M  V30 3512 C 338.058 -2.58125 2.53089 0
M  V30 3513 O 337.779 -2.10516 3.84206 0
M  V30 3514 C 339.28 -3.50869 2.70935 0
M  V30 3515 H 336.5 -0.423093 0.520801 0
M  V30 3516 H 339.044 -0.728527 1.91083 0
M  V30 3517 H 337.199 -3.19615 2.18917 0
M  V30 3518 H 337.613 -2.88425 4.38077 0
M  V30 3519 H 339.087 -4.31451 3.44317 0
M  V30 3520 H 339.564 -4.01822 1.77301 0
M  V30 3521 H 340.17 -2.95225 3.06141 0
M  V30 3522 N 338.485 -1.33259 -0.841409 0
M  V30 3523 C 339.713 -1.27605 -1.62864 0
M  V30 3524 C 340.128 0.153507 -1.88175 0
M  V30 3525 O 339.485 1.09485 -1.46011 0
M  V30 3526 C 339.536 -2.04596 -2.98031 0
M  V30 3527 O 339.257 -3.41975 -2.73834 0
M  V30 3528 C 340.758 -2.06122 -3.92465 0
M  V30 3529 H 337.978 -0.439718 -0.506842 0
M  V30 3530 H 340.522 -1.75591 -1.04824 0
M  V30 3531 H 338.677 -1.60299 -3.5268 0
M  V30 3532 H 339.091 -3.81549 -3.59889 0
M  V30 3533 H 340.565 -2.64451 -4.84531 0
M  V30 3534 H 341.042 -1.05083 -4.26444 0
M  V30 3535 H 341.648 -2.50427 -3.43753 0
M  V30 3536 N 339.963 1.05934 -1.16686 0
M  V30 3537 C 341.211 1.78447 -0.948744 0
M  V30 3538 C 341.532 1.87813 0.524523 0
M  V30 3539 O 340.802 1.38945 1.38098 0
M  V30 3540 H 339.382 0.660971 -0.348033 0
M  V30 3541 H 342.044 1.27947 -1.47022 0
M  V30 3542 H 341.14 2.80394 -1.37061 0
M  V30 3543 N 341.441 0.965919 1.2453 0
M  V30 3544 C 342.404 0.499547 2.2369 0
M  V30 3545 C 343.404 -0.40294 1.5567 0
M  V30 3546 O 344.594 -0.19865 1.73064 0
M  V30 3547 C 341.726 -0.276792 3.39774 0
M  V30 3548 H 342.919 1.37613 2.66463 0
M  V30 3549 H 340.472 0.750324 1.37112 0
M  V30 3550 H 341.207 -1.17055 3.02438 0
M  V30 3551 H 340.992 0.370826 3.90343 0
M  V30 3552 H 342.482 -0.592175 4.1338 0
M  V30 3553 N 342.919 -1.39368 0.735821 0
M  V30 3554 C 344.147 -2.04795 0.294393 0
M  V30 3555 C 344.562 -1.55478 -1.07107 0
M  V30 3556 O 343.919 -0.720038 -1.67695 0
M  V30 3557 C 343.97 -3.6035 0.288071 0
M  V30 3558 O 343.691 -4.07852 1.59963 0
M  V30 3559 C 345.192 -4.42976 -0.169422 0
M  V30 3560 H 342.412 -0.658571 0.128551 0
M  V30 3561 H 344.956 -1.78399 0.999701 0
M  V30 3562 H 343.111 -3.85645 -0.368355 0
M  V30 3563 H 343.525 -5.02181 1.51375 0
M  V30 3564 H 344.999 -5.51864 -0.122687 0
M  V30 3565 H 345.476 -4.22068 -1.21472 0
M  V30 3566 H 346.082 -4.22832 0.457469 0
M  V30 3567 N 344.397 -0.483516 -1.5 0
M  V30 3568 C 345.645 0.067027 -2.01989 0
M  V30 3569 C 345.966 1.3909 -1.36671 0
M  V30 3570 O 345.236 1.88978 -0.516152 0
M  V30 3571 H 343.816 0.0277606 -0.746484 0
M  V30 3572 H 346.478 -0.636773 -1.84204 0
M  V30 3573 H 345.574 0.209484 -3.11396 0
M  V30 3574 N 345.875 1.56104 -0.216619 0
M  V30 3575 C 347.105 2.02269 0.420802 0
M  V30 3576 C 347.513 1.09575 1.5424 0
M  V30 3577 O 346.856 0.0967308 1.83445 0
M  V30 3578 C 346.918 3.44784 1.01806 0
M  V30 3579 C 346.582 4.56988 0.0325154 0
M  V30 3580 C 347.579 5.14225 -0.766055 0
M  V30 3581 C 345.264 5.02228 -0.0848092 0
M  V30 3582 C 347.258 6.15169 -1.6687 0
M  V30 3583 C 344.945 6.03011 -0.990994 0
M  V30 3584 C 345.943 6.59357 -1.78149 0
M  V30 3585 O 345.631 7.58179 -2.67245 0
M  V30 3586 H 345.363 0.667353 0.107776 0
M  V30 3587 H 347.917 2.02747 -0.329034 0
M  V30 3588 H 346.147 3.41359 1.81689 0
M  V30 3589 H 347.836 3.74626 1.56237 0
M  V30 3590 H 348.602 4.80126 -0.685836 0
M  V30 3591 H 344.481 4.58054 0.520349 0
M  V30 3592 H 348.025 6.59076 -2.28615 0
M  V30 3593 H 343.922 6.36532 -1.07225 0
M  V30 3594 H 344.69 7.75682 -2.61265 0
M  V30 3595 N 347.353 -0.0568162 1.57498 0
M  V30 3596 C 348.599 -0.75422 1.88253 0
M  V30 3597 C 348.932 -1.76461 0.810865 0
M  V30 3598 O 348.207 -1.93691 -0.177259 0
M  V30 3599 C 348.49 -1.44878 3.2967 0
M  V30 3600 C 348.343 -0.453789 4.47505 0
M  V30 3601 C 349.662 -2.38994 3.69554 0
M  V30 3602 H 346.781 -0.272724 0.684683 0
M  V30 3603 H 349.423 -0.0172113 1.89992 0
M  V30 3604 H 347.573 -2.077 3.28318 0
M  V30 3605 H 349.245 0.170371 4.60985 0
M  V30 3606 H 347.488 0.229552 4.33192 0
M  V30 3607 H 348.159 -0.977699 5.43273 0
M  V30 3608 H 350.635 -1.86239 3.72095 0
M  V30 3609 H 349.511 -2.84587 4.69363 0
M  V30 3610 H 349.772 -3.24461 3.00296 0
M  V30 3611 N 348.832 -1.54138 -0.328536 0
M  V30 3612 C 350.078 -1.7236 -1.06865 0
M  V30 3613 C 350.411 -0.493231 -1.87832 0
M  V30 3614 O 349.686 0.5098 -1.877 0
M  V30 3615 C 349.969 -2.99621 -1.99747 0
M  V30 3616 C 349.822 -4.32899 -1.22143 0
M  V30 3617 C 351.141 -3.22615 -2.99345 0
M  V30 3618 H 348.26 -0.627151 -0.387105 0
M  V30 3619 H 350.902 -1.86827 -0.345767 0
M  V30 3620 H 349.052 -2.87418 -2.61387 0
M  V30 3621 H 350.724 -4.56978 -0.630017 0
M  V30 3622 H 348.967 -4.30628 -0.523628 0
M  V30 3623 H 349.638 -5.18154 -1.90318 0
M  V30 3624 H 352.114 -3.34248 -2.47826 0
M  V30 3625 H 350.99 -4.13027 -3.61524 0
M  V30 3626 H 351.251 -2.3961 -3.71536 0
M  V30 3627 N 350.31 0.590341 -1.46126 0
M  V30 3628 C 351.26 1.69466 -1.5253 0
M  V30 3629 C 352.244 1.56179 -0.386917 0
M  V30 3630 O 353.436 1.65223 -0.634858 0
M  V30 3631 C 350.565 3.08245 -1.5113 0
M  V30 3632 C 349.651 3.26856 -2.70233 0
M  V30 3633 N 350.042 3.15657 -3.95214 0
M  V30 3634 C 348.34 3.57775 -2.66296 0
M  V30 3635 C 349.041 3.36066 -4.74799 0
M  V30 3636 N 348.017 3.60865 -4.06543 0
M  V30 3637 H 351.819 1.59326 -2.46966 0
M  V30 3638 H 349.333 0.79414 -1.41659 0
M  V30 3639 H 351.33 3.87492 -1.53804 0
M  V30 3640 H 349.99 3.19521 -0.577636 0
M  V30 3641 H 351.001 2.93686 -4.26578 0
M  V30 3642 H 347.678 3.75782 -1.81918 0
M  V30 3643 H 349.068 3.32655 -5.83772 0
M  V30 3644 N 351.788 1.33704 0.83433 0
M  V30 3645 C 352.718 1.26967 1.95963 0
M  V30 3646 C 353.699 0.149337 1.69443 0
M  V30 3647 O 354.884 0.339852 1.91203 0
M  V30 3648 C 352.014 1.01275 3.32206 0
M  V30 3649 C 350.968 2.09652 3.73136 0
M  V30 3650 C 350.294 1.69166 5.07235 0
M  V30 3651 C 351.594 3.51372 3.86439 0
M  V30 3652 H 353.288 2.2112 2.01857 0
M  V30 3653 H 350.834 1.06447 0.969793 0
M  V30 3654 H 352.787 0.952106 4.10503 0
M  V30 3655 H 351.511 0.0356203 3.26581 0
M  V30 3656 H 350.17 2.14766 2.97104 0
M  V30 3657 H 349.818 0.701437 4.98085 0
M  V30 3658 H 349.518 2.41694 5.35591 0
M  V30 3659 H 351.042 1.64576 5.88003 0
M  V30 3660 H 352.456 3.48734 4.55036 0
M  V30 3661 H 350.853 4.22425 4.26236 0
M  V30 3662 H 351.923 3.89546 2.88759 0
M  V30 3663 N 353.266 -1.05314 1.17247 0
M  V30 3664 C 354.491 -1.82509 0.985148 0
M  V30 3665 C 354.916 -1.82343 -0.461788 0
M  V30 3666 O 354.274 -1.23151 -1.33055 0
M  V30 3667 C 354.322 -3.26566 1.52929 0
M  V30 3668 O 353.426 -4.05666 0.742225 0
M  V30 3669 H 352.767 -0.564347 0.349869 0
M  V30 3670 H 355.297 -1.32718 1.55715 0
M  V30 3671 H 355.307 -3.77369 1.55103 0
M  V30 3672 H 353.982 -3.26001 2.58256 0
M  V30 3673 H 352.559 -3.64397 0.791794 0
M  V30 3674 N 354.744 -0.972509 -1.24016 0
M  V30 3675 C 355.984 -0.644951 -1.93958 0
M  V30 3676 C 356.348 0.80559 -1.74282 0
M  V30 3677 O 357.549 1.2436 -2.38302 0
M  V30 3678 C 355.82 -1.01521 -3.42678 0
M  V30 3679 S 357.379 -0.802927 -4.31391 0
M  V30 3680 H 354.197 -0.236452 -0.670531 0
M  V30 3681 H 356.799 -1.25048 -1.50277 0
M  V30 3682 H 355.503 -2.06769 -3.54506 0
M  V30 3683 H 355.034 -0.400648 -3.91355 0
M  V30 3684 H 357.049 0.317256 -4.95185 0
M  V30 3685 N 356.222 1.38976 -0.743202 0
M  V30 3686 C 357.169 2.30544 -0.10861 0
M  V30 3687 C 358.139 1.49642 0.720869 0
M  V30 3688 O 359.324 1.78304 0.679142 0
M  V30 3689 C 356.464 3.36018 0.786496 0
M  V30 3690 C 355.577 4.31963 -0.0564849 0
M  V30 3691 C 354.712 5.24506 0.840657 0
M  V30 3692 C 353.751 6.121 -0.00658363 0
M  V30 3693 N 352.888 6.96973 0.846943 0
M  V30 3694 H 357.728 2.8424 -0.895088 0
M  V30 3695 H 355.265 1.3995 -0.453048 0
M  V30 3696 H 357.223 3.95768 1.31999 0
M  V30 3697 H 355.853 2.83758 1.53887 0
M  V30 3698 H 354.905 3.73763 -0.707492 0
M  V30 3699 H 356.217 4.93703 -0.711229 0
M  V30 3700 H 355.371 5.89322 1.4417 0
M  V30 3701 H 354.11 4.63107 1.52916 0
M  V30 3702 H 353.115 5.46289 -0.620366 0
M  V30 3703 H 354.34 6.75565 -0.691992 0
M  V30 3704 H 352.286 6.38133 1.52059 0
M  V30 3705 H 352.203 7.5559 0.248864 0
M  V30 3706 H 353.471 7.6621 1.43328 0
M  V30 3707 N 357.7 0.491464 1.49741 0
M  V30 3708 C 359.111 0.0413169 1.86654 0
M  V30 3709 C 359.462 -1.36985 1.40462 0
M  V30 3710 O 358.587 -2.01917 0.778354 0
M  V30 3711 C 359.182 0.0682023 3.38731 0
M  V30 3712 C 357.741 -0.32656 3.74981 0
M  V30 3713 C 356.888 0.444888 2.73708 0
M  V30 3714 H 359.839 0.704733 1.42194 0
M  V30 3715 H 359.86 -0.729322 3.73445 0
M  V30 3716 H 359.372 1.09539 3.72321 0
M  V30 3717 H 357.473 -1.35734 3.46997 0
M  V30 3718 H 357.586 -0.013741 4.79098 0
M  V30 3719 H 355.95 -0.104062 2.54487 0
M  V30 3720 H 356.733 1.47197 3.10142 0
M  V30 3721 N 359.178 -1.55987 0.224894 0
M  V30 3722 C 360.141 -2.19178 -0.670348 0
M  V30 3723 C 361.141 -1.15461 -1.11917 0
M  V30 3724 O 362.331 -1.40675 -1.02743 0
M  V30 3725 C 359.463 -2.81777 -1.9187 0
M  V30 3726 H 360.656 -2.99662 -0.119364 0
M  V30 3727 H 358.209 -1.5628 -0.0247128 0
M  V30 3728 H 358.944 -2.05172 -2.51147 0
M  V30 3729 H 358.729 -3.57732 -1.60531 0
M  V30 3730 H 360.219 -3.30205 -2.55645 0
M  V30 3731 N 360.656 0.0484629 -1.57525 0
M  V30 3732 C 361.586 1.0549 -2.08313 0
M  V30 3733 C 362.567 1.38929 -0.981463 0
M  V30 3734 O 363.752 1.48151 -1.25558 0
M  V30 3735 C 360.882 2.36162 -2.54646 0
M  V30 3736 C 359.836 2.17016 -3.68901 0
M  V30 3737 C 359.162 3.53278 -4.01371 0
M  V30 3738 C 360.462 1.57219 -4.98076 0
M  V30 3739 H 362.156 0.632195 -2.92649 0
M  V30 3740 H 359.702 0.302654 -1.40784 0
M  V30 3741 H 361.655 3.06882 -2.88793 0
M  V30 3742 H 360.379 2.80456 -1.67368 0
M  V30 3743 H 359.038 1.48733 -3.35073 0
M  V30 3744 H 358.686 3.95185 -3.11188 0
M  V30 3745 H 358.386 3.41299 -4.78318 0
M  V30 3746 H 359.91 4.25391 -4.38035 0
M  V30 3747 H 361.324 2.17832 -5.30304 0
M  V30 3748 H 359.721 1.55871 -5.79503 0
M  V30 3749 H 360.791 0.535956 -4.81929 0
M  V30 3750 N 362.134 1.5431 0.320358 0
M  V30 3751 C 363.411 1.63322 1.07635 0
M  V30 3752 C 363.791 0.46912 2.05821 0
M  V30 3753 O 363.139 -0.536274 2.22118 0
M  V30 3754 C 363.349 3.00465 1.77544 0
M  V30 3755 C 364.697 3.56621 2.30449 0
M  V30 3756 O 365.721 3.02791 1.87606 0
M  V30 3757 O 364.58 4.5083 3.08892 0
M  V30 3758 H 361.674 0.661502 0.496331 0
M  V30 3759 H 364.22 1.66656 0.319992 0
M  V30 3760 H 362.992 3.76629 1.06143 0
M  V30 3761 H 362.615 3.00824 2.59982 0
M  V30 3762 N 363.613 -0.582584 1.46437 0
M  V30 3763 C 364.576 -1.67366 1.56592 0
M  V30 3764 C 365.576 -1.54575 0.443072 0
M  V30 3765 O 366.766 -1.59191 0.707381 0
M  V30 3766 C 363.898 -3.06791 1.48634 0
M  V30 3767 H 365.091 -1.5972 2.5383 0
M  V30 3768 H 362.644 -0.800432 1.34249 0
M  V30 3769 H 363.379 -3.19993 0.526763 0
M  V30 3770 H 363.164 -3.17484 2.30101 0
M  V30 3771 H 364.654 -3.86218 1.58826 0
M  V30 3772 N 365.091 -1.34144 -0.827227 0
M  V30 3773 C 366.054 -1.25264 -1.91942 0
M  V30 3774 C 367.054 -0.168866 -1.59911 0
M  V30 3775 O 368.244 -0.421198 -1.69031 0
M  V30 3776 C 365.376 -0.932952 -3.27885 0
M  V30 3777 H 366.569 -2.22357 -2.0124 0
M  V30 3778 H 364.122 -1.1837 -1.0207 0
M  V30 3779 H 364.857 0.0349917 -3.24281 0
M  V30 3780 H 364.642 -1.71682 -3.52516 0
M  V30 3781 H 366.132 -0.895874 -4.07877 0
M  V30 3782 N 366.569 1.04691 -1.17803 0
M  V30 3783 C 367.502 2.12068 -0.842765 0
M  V30 3784 C 368.48 1.61455 0.192608 0
M  V30 3785 O 369.664 1.88359 0.072995 0
M  V30 3786 C 366.791 3.37715 -0.258063 0
M  V30 3787 C 365.837 4.07164 -1.26962 0
M  V30 3788 S 366.67 4.55047 -2.82299 0
M  V30 3789 C 367.826 5.83935 -2.25323 0
M  V30 3790 H 368.059 2.4018 -1.75217 0
M  V30 3791 H 365.592 1.17366 -1.00323 0
M  V30 3792 H 367.55 4.10435 0.0727935 0
M  V30 3793 H 366.211 3.0773 0.629357 0
M  V30 3794 H 365.404 4.9746 -0.809263 0
M  V30 3795 H 365.006 3.40533 -1.54639 0
M  V30 3796 H 367.298 6.57552 -1.63192 0
M  V30 3797 H 368.241 6.34725 -3.13894 0
M  V30 3798 H 368.649 5.3874 -1.68582 0
M  V30 3799 N 368.047 0.979072 1.23499 0
M  V30 3800 C 369.01 0.523244 2.23147 0
M  V30 3801 C 370.01 -0.386406 1.56088 0
M  V30 3802 O 371.2 -0.180283 1.73265 0
M  V30 3803 C 368.332 -0.240739 3.40049 0
M  V30 3804 H 369.525 1.40432 2.64989 0
M  V30 3805 H 367.078 0.764824 1.36309 0
M  V30 3806 H 367.813 -1.13841 3.03662 0
M  V30 3807 H 367.598 0.412207 3.89927 0
M  V30 3808 H 369.088 -0.548297 4.13985 0
M  V30 3809 N 369.525 -1.3858 0.750561 0
M  V30 3810 C 370.488 -2.28836 0.129152 0
M  V30 3811 C 371.488 -1.47045 -0.650714 0
M  V30 3812 O 372.678 -1.6753 -0.477428 0
M  V30 3813 C 369.81 -3.30751 -0.825622 0
M  V30 3814 H 371.003 -2.85294 0.924516 0
M  V30 3815 H 368.556 -1.47489 0.517376 0
M  V30 3816 H 369.291 -2.79378 -1.64677 0
M  V30 3817 H 369.076 -3.91177 -0.268852 0
M  V30 3818 H 370.566 -3.98249 -1.2565 0
M  V30 3819 N 371.003 -0.499398 -1.49478 0
M  V30 3820 C 371.95 0.279881 -2.29097 0
M  V30 3821 C 372.92 0.961805 -1.3542 0
M  V30 3822 O 374.105 0.968777 -1.64376 0
M  V30 3823 C 371.245 1.33932 -3.18051 0
M  V30 3824 C 370.358 0.669333 -4.26783 0
M  V30 3825 C 369.493 1.70907 -5.02955 0
M  V30 3826 C 368.532 1.02087 -6.03527 0
M  V30 3827 N 367.669 2.00474 -6.7287 0
M  V30 3828 H 372.509 -0.405317 -2.95231 0
M  V30 3829 H 370.046 -0.211726 -1.45568 0
M  V30 3830 H 372.004 1.96553 -3.67998 0
M  V30 3831 H 370.634 1.9933 -2.53904 0
M  V30 3832 H 369.686 -0.0701234 -3.80335 0
M  V30 3833 H 370.998 0.127503 -4.98637 0
M  V30 3834 H 370.152 2.41037 -5.56764 0
M  V30 3835 H 368.891 2.28476 -4.30871 0
M  V30 3836 H 367.896 0.305338 -5.48951 0
M  V30 3837 H 369.121 0.451708 -6.77596 0
M  V30 3838 H 367.067 2.57007 -6.03559 0
M  V30 3839 H 366.984 1.51353 -7.40694 0
M  V30 3840 H 368.252 2.69897 -7.31284 0
M  V30 3841 N 372.481 1.55866 -0.233164 0
M  V30 3842 C 373.444 2.1953 0.658715 0
M  V30 3843 C 374.444 1.16053 1.11303 0
M  V30 3844 O 375.634 1.41218 1.01996 0
M  V30 3845 C 372.766 2.82791 1.90373 0
M  V30 3846 H 373.959 2.99721 0.10347 0
M  V30 3847 H 371.512 1.56291 0.0164245 0
M  V30 3848 H 372.247 2.06501 2.50056 0
M  V30 3849 H 372.032 3.58578 1.58632 0
M  V30 3850 H 373.522 3.31556 2.53891 0
M  V30 3851 N 373.959 -0.0401083 1.57549 0
M  V30 3852 C 375.375 -0.395556 1.54621 0
M  V30 3853 C 375.575 -1.77281 0.957799 0
M  V30 3854 O 374.631 -2.45888 0.574031 0
M  V30 3855 C 375.944 -0.307535 2.99123 0
M  V30 3856 C 377.492 -0.385425 3.10618 0
M  V30 3857 C 377.967 -0.326973 4.56831 0
M  V30 3858 N 379.458 -0.386102 4.61588 0
M  V30 3859 C 380.193 -0.363591 5.72246 0
M  V30 3860 N 379.689 -0.29402 6.92176 0
M  V30 3861 N 381.482 -0.412503 5.60584 0
M  V30 3862 H 373.633 0.861325 1.94152 0
M  V30 3863 H 375.896 0.326445 0.890021 0
M  V30 3864 H 375.602 0.638461 3.45856 0
M  V30 3865 H 375.476 -1.10552 3.60636 0
M  V30 3866 H 377.863 -1.32185 2.63839 0
M  V30 3867 H 377.944 0.44171 2.51957 0
M  V30 3868 H 377.588 0.605738 5.04275 0
M  V30 3869 H 377.518 -1.17207 5.13391 0
M  V30 3870 H 380.009 -0.442832 3.75296 0
M  V30 3871 H 380.322 -0.28164 7.72287 0
M  V30 3872 H 378.667 -0.260232 6.94513 0
M  V30 3873 H 381.858 -0.464769 4.65787 0
M  V30 3874 H 382.031 -0.391492 6.46816 0
M  V30 3875 N 375.437 -1.54477 -0.31217 0
M  V30 3876 C 376.685 -1.72884 -1.04668 0
M  V30 3877 C 377.006 -0.511477 -1.88173 0
M  V30 3878 O 376.276 0.474407 -1.90069 0
M  V30 3879 H 374.856 -0.637461 -0.389425 0
M  V30 3880 H 377.518 -1.91807 -0.345852 0
M  V30 3881 H 376.614 -2.61334 -1.70619 0
M  V30 3882 N 376.915 0.57481 -1.46744 0
M  V30 3883 C 378.161 1.3347 -1.52688 0
M  V30 3884 C 378.494 1.93353 -0.181229 0
M  V30 3885 O 377.769 1.76912 0.808237 0
M  V30 3886 C 378.052 2.45811 -2.63152 0
M  V30 3887 C 377.905 1.90912 -4.07275 0
M  V30 3888 C 379.224 3.47822 -2.69644 0
M  V30 3889 H 376.343 0.483935 -0.555856 0
M  V30 3890 H 378.985 0.644968 -1.78718 0
M  V30 3891 H 377.135 3.04646 -2.41088 0
M  V30 3892 H 378.807 1.36473 -4.4065 0
M  V30 3893 H 377.05 1.21691 -4.16382 0
M  V30 3894 H 377.721 2.72042 -4.80309 0
M  V30 3895 H 380.197 2.9888 -2.895 0
M  V30 3896 H 379.073 4.23876 -3.48742 0
M  V30 3897 H 379.334 4.05555 -1.76005 0
M  V30 3898 N 378.394 1.34581 0.820102 0
M  V30 3899 C 379.805 1.24298 1.39309 0
M  V30 3900 C 380.156 -0.130351 1.95767 0
M  V30 3901 O 379.281 -1.0308 1.90272 0
M  V30 3902 C 379.876 2.25054 2.53251 0
M  V30 3903 C 378.435 2.18552 3.0645 0
M  V30 3904 C 377.582 2.11503 1.79337 0
M  V30 3905 H 380.533 1.45906 0.624262 0
M  V30 3906 H 380.554 1.86917 3.31425 0
M  V30 3907 H 380.066 3.24996 2.1213 0
M  V30 3908 H 378.167 1.21976 3.52069 0
M  V30 3909 H 378.28 3.0993 3.65349 0
M  V30 3910 H 376.644 1.57268 2.00347 0
M  V30 3911 H 377.427 3.13284 1.40386 0
M  V30 3912 N 379.872 -1.04064 1.18357 0
M  V30 3913 C 381.121 -1.76662 0.973313 0
M  V30 3914 C 381.434 -1.89154 -0.497991 0
M  V30 3915 O 382.64 -2.58606 -0.826762 0
M  V30 3916 C 381.096 -3.17624 1.69242 0
M  V30 3917 C 380.704 -3.13225 3.20303 0
M  V30 3918 C 382.448 -3.946 1.56497 0
M  V30 3919 C 380.355 -4.49046 3.84853 0
M  V30 3920 H 379.285 -0.662214 0.36054 0
M  V30 3921 H 381.936 -1.16553 1.41731 0
M  V30 3922 H 380.318 -3.78129 1.1762 0
M  V30 3923 H 381.492 -2.62172 3.78949 0
M  V30 3924 H 379.807 -2.49749 3.33189 0
M  V30 3925 H 382.404 -4.95042 2.02084 0
M  V30 3926 H 382.747 -4.13074 0.517243 0
M  V30 3927 H 383.28 -3.4067 2.05399 0
M  V30 3928 H 380.019 -4.35777 4.89672 0
M  V30 3929 H 379.539 -5.00203 3.30994 0
M  V30 3930 H 381.218 -5.17961 3.87718 0
M  V30 3931 N 381.35 -0.985608 -1.22978 0
M  V30 3932 C 382.58 -0.674603 -1.95276 0
M  V30 3933 C 382.988 0.763483 -1.73111 0
M  V30 3934 O 382.331 1.52601 -1.02268 0
M  V30 3935 C 382.393 -0.891597 -3.48268 0
M  V30 3936 C 382.057 -2.31275 -3.94158 0
M  V30 3937 C 383.054 -3.29179 -4.02415 0
M  V30 3938 C 380.739 -2.64524 -4.27004 0
M  V30 3939 C 382.733 -4.58407 -4.42879 0
M  V30 3940 C 380.42 -3.93974 -4.67149 0
M  V30 3941 C 381.418 -4.90727 -4.75053 0
M  V30 3942 O 381.106 -6.17865 -5.14294 0
M  V30 3943 H 380.838 -0.249251 -0.628371 0
M  V30 3944 H 383.392 -1.32106 -1.5728 0
M  V30 3945 H 381.622 -0.187962 -3.86243 0
M  V30 3946 H 383.311 -0.576957 -4.01779 0
M  V30 3947 H 384.077 -3.04823 -3.77237 0
M  V30 3948 H 379.956 -1.89923 -4.2006 0
M  V30 3949 H 383.5 -5.33926 -4.48964 0
M  V30 3950 H 379.397 -4.18122 -4.91777 0
M  V30 3951 H 380.165 -6.21694 -5.32389 0
M  V30 3952 N 382.828 1.3818 -0.7579 0
M  V30 3953 C 384.077 1.99261 -0.312744 0
M  V30 3954 C 384.39 1.60846 1.11301 0
M  V30 3955 O 385.596 2.14929 1.65885 0
M  V30 3956 C 384.052 3.56294 -0.50821 0
M  V30 3957 C 383.66 4.03657 -1.94333 0
M  V30 3958 C 385.404 4.24313 -0.125982 0
M  V30 3959 C 383.311 5.53347 -2.08712 0
M  V30 3960 H 382.241 0.745456 -0.113185 0
M  V30 3961 H 384.892 1.57889 -0.935056 0
M  V30 3962 H 383.274 3.95575 0.183353 0
M  V30 3963 H 384.448 3.75655 -2.66871 0
M  V30 3964 H 382.763 3.48376 -2.28086 0
M  V30 3965 H 385.36 5.34279 -0.212125 0
M  V30 3966 H 385.703 4.05962 0.921964 0
M  V30 3967 H 386.236 3.90285 -0.769563 0
M  V30 3968 H 382.975 5.76607 -3.11777 0
M  V30 3969 H 382.495 5.83078 -1.4064 0
M  V30 3970 H 384.174 6.19111 -1.87912 0
M  V30 3971 N 384.306 0.507319 1.49211 0
M  V30 3972 C 385.216 -0.272136 2.33016 0
M  V30 3973 C 386.232 -0.961206 1.45041 0
M  V30 3974 O 387.408 -0.941191 1.78055 0
M  V30 3975 C 384.473 -1.31895 3.20631 0
M  V30 3976 C 383.534 -0.642648 4.24463 0
M  V30 3977 C 382.767 -1.63959 5.07891 0
M  V30 3978 O 382.99 -2.87007 4.92933 0
M  V30 3979 O 381.924 -1.19143 5.8999 0
M  V30 3980 H 385.75 0.413982 3.00865 0
M  V30 3981 H 383.335 0.268556 1.46966 0
M  V30 3982 H 385.217 -1.92446 3.7489 0
M  V30 3983 H 383.892 -1.98788 2.5547 0
M  V30 3984 H 382.799 0.00276252 3.741 0
M  V30 3985 H 384.132 -0.0160534 4.92197 0
M  V30 3986 N 385.784 -1.5574 0.241426 0
M  V30 3987 C 387.009 -2.0366 -0.392111 0
M  V30 3988 C 387.434 -1.11969 -1.51144 0
M  V30 3989 O 386.792 -0.111594 -1.80956 0
M  V30 3990 C 386.84 -3.49638 -0.882371 0
M  V30 3991 O 385.944 -3.6108 -1.99235 0
M  V30 3992 H 385.285 -0.658379 -0.0862122 0
M  V30 3993 H 387.815 -2.01302 0.365881 0
M  V30 3994 H 387.825 -3.90351 -1.18702 0
M  V30 3995 H 386.5 -4.15852 -0.0632361 0
M  V30 3996 H 385.077 -3.32262 -1.69282 0
M  V30 3997 N 387.262 0.0317525 -1.57568 0
M  V30 3998 C 388.508 0.724175 -1.8943 0
M  V30 3999 C 388.841 1.75149 -0.838836 0
M  V30 4000 O 388.116 1.93948 0.146422 0
M  V30 4001 C 388.399 1.39615 -3.31933 0
M  V30 4002 C 388.252 0.382537 -4.4817 0
M  V30 4003 C 389.571 2.33084 -3.73309 0
M  V30 4004 H 386.69 0.261797 -0.688935 0
M  V30 4005 H 389.332 -0.013017 -1.89996 0
M  V30 4006 H 387.482 2.02451 -3.31581 0
M  V30 4007 H 389.154 -0.243689 -4.60656 0
M  V30 4008 H 387.397 -0.29844 -4.32772 0
M  V30 4009 H 388.068 0.891145 -5.44759 0
M  V30 4010 H 390.544 1.80295 -3.7501 0
M  V30 4011 H 389.42 2.77084 -4.73831 0
M  V30 4012 H 389.681 3.19643 -3.05419 0
M  V30 4013 N 388.74 1.54641 0.303973 0
M  V30 4014 C 389.989 1.7299 1.03717 0
M  V30 4015 C 390.302 0.521168 1.88529 0
M  V30 4016 O 391.508 0.586408 2.65092 0
M  V30 4017 C 389.964 3.06051 1.89369 0
M  V30 4018 C 389.572 4.34393 1.09574 0
M  V30 4019 C 391.316 3.3376 2.62306 0
M  V30 4020 C 389.223 5.58506 1.94486 0
M  V30 4021 H 388.153 0.64473 0.390947 0
M  V30 4022 H 390.804 1.81124 0.294328 0
M  V30 4023 H 389.186 2.91874 2.67629 0
M  V30 4024 H 390.36 4.59396 0.359485 0
M  V30 4025 H 388.675 4.13597 0.482324 0
M  V30 4026 H 391.272 4.23687 3.26181 0
M  V30 4027 H 391.615 2.52503 3.3098 0
M  V30 4028 H 392.148 3.48894 1.91097 0
M  V30 4029 H 388.887 6.42422 1.30287 0
M  V30 4030 H 388.407 5.37694 2.65792 0
M  V30 4031 H 390.086 5.95651 2.52605 0
M  V30 4032 N 390.218 -0.567019 1.47046 0
M  V30 4033 C 391.629 -1.14916 1.47143 0
M  V30 4034 C 391.98 -1.94954 0.220767 0
M  V30 4035 O 391.105 -2.05602 -0.67505 0
M  V30 4036 C 391.7 -2.09069 2.666 0
M  V30 4037 C 390.259 -2.62575 2.69687 0
M  V30 4038 C 389.406 -1.38755 2.40088 0
M  V30 4039 H 392.357 -0.354126 1.54699 0
M  V30 4040 H 392.378 -2.92789 2.43011 0
M  V30 4041 H 391.89 -1.50789 3.57609 0
M  V30 4042 H 389.991 -3.24681 1.82792 0
M  V30 4043 H 390.104 -3.04239 3.70102 0
M  V30 4044 H 388.468 -1.69098 1.90468 0
M  V30 4045 H 389.251 -0.822822 3.33293 0
M  V30 4046 N 391.696 -1.35014 -0.812953 0
M  V30 4047 C 392.646 -1.23959 -1.91359 0
M  V30 4048 C 393.63 -0.136306 -1.60322 0
M  V30 4049 O 394.822 -0.366925 -1.73155 0
M  V30 4050 C 391.951 -1.00736 -3.28188 0
M  V30 4051 C 391.037 -2.15426 -3.65311 0
M  V30 4052 N 391.428 -3.40612 -3.73921 0
M  V30 4053 C 389.726 -2.06672 -3.95225 0
M  V30 4054 C 390.427 -4.15994 -4.06601 0
M  V30 4055 N 389.403 -3.44685 -4.20349 0
M  V30 4056 H 393.205 -2.18815 -1.96208 0
M  V30 4057 H 390.719 -1.27395 -1.00718 0
M  V30 4058 H 392.716 -0.909052 -4.06868 0
M  V30 4059 H 391.376 -0.067586 -3.2463 0
M  V30 4060 H 392.387 -3.75043 -3.5716 0
M  V30 4061 H 389.064 -1.20511 -3.99729 0
M  V30 4062 H 390.454 -5.24145 -4.20382 0
M  V30 4063 N 393.175 1.03435 -1.18907 0
M  V30 4064 C 394.422 1.76743 -0.988334 0
M  V30 4065 C 394.75 1.88447 0.481441 0
M  V30 4066 O 394.005 1.39383 1.37371 0
M  V30 4067 C 394.304 3.19792 -1.59586 0
M  V30 4068 C 393.97 3.28108 -3.09283 0
M  V30 4069 C 392.632 3.30084 -3.5014 0
M  V30 4070 C 394.984 3.27696 -4.05296 0
M  V30 4071 C 392.312 3.29299 -4.85571 0
M  V30 4072 C 394.664 3.28451 -5.4065 0
M  V30 4073 C 393.328 3.28723 -5.80946 0
M  V30 4074 H 392.598 0.64675 -0.361657 0
M  V30 4075 H 395.245 1.21442 -1.48068 0
M  V30 4076 H 393.55 3.78136 -1.02568 0
M  V30 4077 H 395.247 3.75171 -1.41589 0
M  V30 4078 H 391.837 3.27294 -2.76725 0
M  V30 4079 H 396.021 3.25354 -3.74778 0
M  V30 4080 H 391.277 3.2783 -5.16079 0
M  V30 4081 H 395.451 3.27082 -6.14809 0
M  V30 4082 H 393.078 3.27868 -6.85862 0
M  V30 4083 N 394.653 0.992116 1.22453 0
M  V30 4084 C 395.583 0.561677 2.26644 0
M  V30 4085 C 396.564 -0.411055 1.65059 0
M  V30 4086 O 397.749 -0.301861 1.9184 0
M  V30 4087 C 394.879 -0.125247 3.47074 0
M  V30 4088 C 393.833 0.765948 4.21091 0
M  V30 4089 C 393.159 -0.0538484 5.34673 0
M  V30 4090 C 394.459 2.06242 4.79856 0
M  V30 4091 H 396.153 1.43259 2.62902 0
M  V30 4092 H 393.699 0.690283 1.26377 0
M  V30 4093 H 395.652 -0.437764 4.1912 0
M  V30 4094 H 394.376 -1.03069 3.0991 0
M  V30 4095 H 393.035 1.0621 3.50878 0
M  V30 4096 H 392.683 -0.960188 4.9375 0
M  V30 4097 H 392.383 0.539415 5.85119 0
M  V30 4098 H 393.907 -0.360477 6.09535 0
M  V30 4099 H 395.321 1.8139 5.43848 0
M  V30 4100 H 393.718 2.60444 5.40638 0
M  V30 4101 H 394.788 2.74167 3.99951 0
M  V30 4102 N 396.131 -1.37776 0.765217 0
M  V30 4103 C 397.061 -2.32945 0.160953 0
M  V30 4104 C 398.042 -1.55454 -0.690516 0
M  V30 4105 O 399.227 -1.83721 -0.629318 0
M  V30 4106 C 396.357 -3.39669 -0.724031 0
M  V30 4107 C 395.311 -4.27992 0.0256173 0
M  V30 4108 C 394.637 -5.25673 -0.978383 0
M  V30 4109 C 395.937 -5.08309 1.20082 0
M  V30 4110 H 397.631 -2.83728 0.955969 0
M  V30 4111 H 395.177 -1.36416 0.461149 0
M  V30 4112 H 397.13 -4.05219 -1.15652 0
M  V30 4113 H 395.854 -2.87396 -1.5515 0
M  V30 4114 H 394.513 -3.63964 0.438812 0
M  V30 4115 H 394.161 -4.69682 -1.80022 0
M  V30 4116 H 393.861 -5.85625 -0.481378 0
M  V30 4117 H 395.385 -5.94098 -1.40995 0
M  V30 4118 H 396.799 -5.67034 0.845307 0
M  V30 4119 H 395.196 -5.77554 1.62947 0
M  V30 4120 H 396.266 -4.41365 2.00811 0
M  V30 4121 N 397.609 -0.515225 -1.4894 0
M  V30 4122 C 398.886 0.0879088 -1.95402 0
M  V30 4123 C 399.266 1.52745 -1.45712 0
M  V30 4124 O 398.614 2.18238 -0.677093 0
M  V30 4125 C 398.824 -0.0141055 -3.48997 0
M  V30 4126 C 400.172 0.152646 -4.24326 0
M  V30 4127 O 401.196 0.0604025 -3.56149 0
M  V30 4128 O 400.055 0.34384 -5.45417 0
M  V30 4129 H 397.149 0.0874636 -0.822362 0
M  V30 4130 H 399.695 -0.578775 -1.59525 0
M  V30 4131 H 398.467 -1.01745 -3.77841 0
M  V30 4132 H 398.09 0.692091 -3.9153 0
M  V30 4133 N 399.087 1.5561 -0.249682 0
M  V30 4134 C 400.034 2.21496 0.648694 0
M  V30 4135 C 401.004 1.17977 1.16921 0
M  V30 4136 O 402.189 1.46434 1.22318 0
M  V30 4137 C 399.329 2.92039 1.83868 0
M  V30 4138 C 398.442 4.10219 1.35442 0
M  V30 4139 C 397.577 4.6847 2.50419 0
M  V30 4140 C 396.616 5.78893 1.98869 0
M  V30 4141 N 395.753 6.31315 3.07223 0
M  V30 4142 H 400.593 2.97892 0.0801582 0
M  V30 4143 H 398.13 1.47074 0.0278031 0
M  V30 4144 H 400.088 3.31138 2.53778 0
M  V30 4145 H 398.718 2.18111 2.37965 0
M  V30 4146 H 397.77 3.76413 0.54928 0
M  V30 4147 H 399.082 4.89927 0.936649 0
M  V30 4148 H 398.236 5.10158 3.28366 0
M  V30 4149 H 396.975 3.87984 2.95499 0
M  V30 4150 H 395.98 5.3668 1.19393 0
M  V30 4151 H 397.205 6.61232 1.54755 0
M  V30 4152 H 395.151 5.53733 3.51732 0
M  V30 4153 H 395.068 7.06224 2.69784 0
M  V30 4154 H 396.336 6.77662 3.8522 0
M  V30 4155 N 400.565 -0.0233959 1.57583 0
M  V30 4156 C 401.793 -0.724682 1.93794 0
M  V30 4157 C 402.208 -1.68588 0.849912 0
M  V30 4158 O 401.565 -1.81676 -0.173204 0
M  V30 4159 C 401.616 -1.47684 3.29957 0
M  V30 4160 O 401.337 -0.554222 4.3458 0
M  V30 4161 C 402.838 -2.27477 3.80485 0
M  V30 4162 H 400.058 -0.203317 0.639455 0
M  V30 4163 H 402.602 0.0207653 2.04489 0
M  V30 4164 H 400.757 -2.17412 3.20641 0
M  V30 4165 H 401.171 -1.08232 5.13212 0
M  V30 4166 H 402.645 -2.7564 4.78254 0
M  V30 4167 H 403.122 -3.09144 3.11972 0
M  V30 4168 H 403.728 -1.62813 3.92902 0
M  V30 4169 N 402.043 -1.548 -0.295768 0
M  V30 4170 C 403.273 -1.78069 -1.04762 0
M  V30 4171 C 403.681 -0.542847 -1.81245 0
M  V30 4172 O 403.024 0.497051 -1.76848 0
M  V30 4173 C 403.086 -2.93881 -2.07061 0
M  V30 4174 C 402.75 -4.31777 -1.49725 0
M  V30 4175 C 403.747 -5.11613 -0.924581 0
M  V30 4176 C 401.432 -4.78389 -1.5313 0
M  V30 4177 C 403.426 -6.36184 -0.393594 0
M  V30 4178 C 401.113 -6.02921 -0.996447 0
M  V30 4179 C 402.111 -6.81654 -0.428569 0
M  V30 4180 O 401.799 -8.0384 0.0981593 0
M  V30 4181 H 401.531 -0.597475 -0.316226 0
M  V30 4182 H 404.085 -2.02584 -0.338973 0
M  V30 4183 H 402.315 -2.65003 -2.81621 0
M  V30 4184 H 404.004 -3.04679 -2.6819 0
M  V30 4185 H 404.77 -4.76743 -0.891136 0
M  V30 4186 H 400.649 -4.17132 -1.9627 0
M  V30 4187 H 404.193 -6.97582 0.0503014 0
M  V30 4188 H 400.09 -6.37277 -1.02706 0
M  V30 4189 H 400.858 -8.18499 -0.0146455 0
M  V30 4190 N 403.521 0.559213 -1.47345 0
M  V30 4191 C 404.484 1.64854 -1.59235 0
M  V30 4192 C 405.484 1.53851 -0.467607 0
M  V30 4193 O 406.674 1.58045 -0.732617 0
M  V30 4194 C 403.806 3.04388 -1.53496 0
M  V30 4195 H 404.999 1.55662 -2.56339 0
M  V30 4196 H 402.552 0.778973 -1.35505 0
M  V30 4197 H 403.287 3.19115 -0.577604 0
M  V30 4198 H 403.072 3.13783 -2.35123 0
M  V30 4199 H 404.562 3.83642 -1.6495 0
M  V30 4200 N 404.999 1.35443 0.805782 0
M  V30 4201 C 405.909 1.30546 1.94923 0
M  V30 4202 C 406.925 0.210233 1.72725 0
M  V30 4203 O 408.101 0.43975 1.9654 0
M  V30 4204 C 405.166 1.07782 3.29521 0
M  V30 4205 C 404.227 2.26625 3.64609 0
M  V30 4206 C 403.46 2.04938 4.92784 0
M  V30 4207 O 403.683 1.01624 5.61274 0
M  V30 4208 O 402.617 2.9232 5.26149 0
M  V30 4209 H 406.443 2.26779 2.02002 0
M  V30 4210 H 404.028 1.15823 0.943682 0
M  V30 4211 H 405.91 0.969392 4.10098 0
M  V30 4212 H 404.585 0.146003 3.23371 0
M  V30 4213 H 403.492 2.43033 2.84404 0
M  V30 4214 H 404.825 3.18257 3.75464 0
M  V30 4215 N 406.477 -1.02803 1.19454 0
M  V30 4216 C 407.893 -1.28473 0.946937 0
M  V30 4217 C 408.093 -1.97881 -0.380202 0
M  V30 4218 O 407.149 -2.26719 -1.11151 0
M  V30 4219 C 408.462 -2.13099 2.12154 0
M  V30 4220 C 410.01 -2.26404 2.16126 0
M  V30 4221 C 410.485 -3.14402 3.33039 0
M  V30 4222 N 411.976 -3.21991 3.32981 0
M  V30 4223 C 412.711 -3.90272 4.20089 0
M  V30 4224 N 412.207 -4.60777 5.17355 0
M  V30 4225 N 414 -3.8668 4.07964 0
M  V30 4226 H 406.151 -0.561665 2.04839 0
M  V30 4227 H 408.414 -0.310438 0.89573 0
M  V30 4228 H 408.12 -1.69422 3.08203 0
M  V30 4229 H 407.994 -3.13813 2.09287 0
M  V30 4230 H 410.381 -2.69311 1.20647 0
M  V30 4231 H 410.462 -1.25237 2.23045 0
M  V30 4232 H 410.106 -2.72204 4.28798 0
M  V30 4233 H 410.036 -4.1563 3.23356 0
M  V30 4234 H 412.527 -2.71778 2.62574 0
M  V30 4235 H 412.84 -5.10513 5.80169 0
M  V30 4236 H 411.185 -4.5964 5.21302 0
M  V30 4237 H 414.376 -3.30739 3.31254 0
M  V30 4238 H 414.549 -4.39621 4.76064 0
M  V30 4239 N 407.956 -0.998596 -1.21925 0
M  V30 4240 C 409.204 -0.676325 -1.90448 0
M  V30 4241 C 409.525 0.794719 -1.78071 0
M  V30 4242 O 408.795 1.5701 -1.17152 0
M  V30 4243 H 407.375 -0.247165 -0.704925 0
M  V30 4244 H 410.037 -1.26633 -1.48156 0
M  V30 4245 H 409.133 -0.943858 -2.97486 0
M  V30 4246 N 409.434 1.37368 -0.772513 0
M  V30 4247 C 410.682 1.99279 -0.336516 0
M  V30 4248 C 411.003 1.6163 1.09091 0
M  V30 4249 O 410.273 0.882109 1.74916 0
M  V30 4250 H 408.853 0.737063 -0.121435 0
M  V30 4251 H 411.515 1.67836 -0.990809 0
M  V30 4252 H 410.611 3.09332 -0.414763 0
M  V30 4253 N 410.912 0.523116 1.48665 0
M  V30 4254 C 412.158 -0.0134963 2.02796 0
M  V30 4255 C 412.491 -1.34582 1.40004 0
M  V30 4256 O 411.766 -1.86756 0.543381 0
M  V30 4257 C 412.049 -0.14276 3.59817 0
M  V30 4258 C 411.902 1.21425 4.331 0
M  V30 4259 C 413.221 -0.872856 4.31357 0
M  V30 4260 H 410.34 -0.00343074 0.736992 0
M  V30 4261 H 412.982 0.678816 1.7746 0
M  V30 4262 H 411.132 -0.732401 3.81534 0
M  V30 4263 H 412.804 1.84447 4.2282 0
M  V30 4264 H 411.047 1.79791 3.94788 0
M  V30 4265 H 411.718 1.07687 5.41394 0
M  V30 4266 H 414.194 -0.372555 4.14429 0
M  V30 4267 H 413.07 -0.932185 5.40927 0
M  V30 4268 H 413.331 -1.92161 3.98154 0
M  V30 4269 N 412.39 -1.55475 0.257931 0
M  V30 4270 C 413.3 -2.2549 -0.647425 0
M  V30 4271 C 414.316 -1.2748 -1.18427 0
M  V30 4272 O 415.492 -1.6038 -1.2182 0
M  V30 4273 C 412.557 -2.94916 -1.82278 0
M  V30 4274 C 411.618 -4.08363 -1.32432 0
M  V30 4275 C 410.851 -4.74469 -2.44366 0
M  V30 4276 O 411.074 -4.39701 -3.63344 0
M  V30 4277 O 410.008 -5.62763 -2.13497 0
M  V30 4278 H 413.834 -3.03593 -0.0807707 0
M  V30 4279 H 411.419 -1.49377 0.0259962 0
M  V30 4280 H 413.301 -3.38606 -2.50846 0
M  V30 4281 H 411.976 -2.19744 -2.37685 0
M  V30 4282 H 410.883 -3.69166 -0.605605 0
M  V30 4283 H 412.216 -4.85385 -0.816211 0
M  V30 4284 N 413.868 0.0150385 -1.57593 0
M  V30 4285 C 414.831 0.995996 -2.06428 0
M  V30 4286 C 415.831 1.2818 -0.970903 0
M  V30 4287 O 417.021 1.22949 -1.23406 0
M  V30 4288 C 414.153 2.32506 -2.49307 0
M  V30 4289 H 415.346 0.573873 -2.94358 0
M  V30 4290 H 412.899 0.262186 -1.54085 0
M  V30 4291 H 413.634 2.79438 -1.64575 0
M  V30 4292 H 413.419 2.13087 -3.29145 0
M  V30 4293 H 414.909 3.02906 -2.87468 0
M  V30 4294 N 415.346 1.54954 0.287554 0
M  V30 4295 C 416.279 1.81737 1.3801 0
M  V30 4296 C 417.257 0.669412 1.48181 0
M  V30 4297 O 418.441 0.910839 1.65033 0
M  V30 4298 C 415.568 1.96606 2.75796 0
M  V30 4299 C 414.614 3.19098 2.82982 0
M  V30 4300 S 415.447 4.7683 2.43707 0
M  V30 4301 C 416.603 4.94653 3.83496 0
M  V30 4302 H 416.836 2.74122 1.15085 0
M  V30 4303 H 414.369 1.46538 0.486403 0
M  V30 4304 H 416.327 2.05858 3.55152 0
M  V30 4305 H 414.988 1.05136 2.95982 0
M  V30 4306 H 414.181 3.26344 3.84077 0
M  V30 4307 H 413.783 3.08361 2.11635 0
M  V30 4308 H 416.075 4.79502 4.78628 0
M  V30 4309 H 417.018 5.96728 3.8121 0
M  V30 4310 H 417.426 4.2272 3.74123 0
M  V30 4311 N 416.824 -0.551391 1.4764 0
M  V30 4312 C 417.771 -1.65796 1.60563 0
M  V30 4313 C 418.741 -1.59932 0.448428 0
M  V30 4314 O 419.926 -1.78679 0.669222 0
M  V30 4315 C 417.066 -3.04108 1.63133 0
M  V30 4316 C 416.179 -3.20365 2.89811 0
M  V30 4317 C 415.314 -4.49109 2.8368 0
M  V30 4318 C 414.353 -4.58819 4.05156 0
M  V30 4319 N 413.49 -5.78926 3.97227 0
M  V30 4320 H 418.33 -1.54088 2.5507 0
M  V30 4321 H 415.867 -0.75052 1.26513 0
M  V30 4322 H 417.825 -3.84207 1.62606 0
M  V30 4323 H 416.455 -3.14637 0.721341 0
M  V30 4324 H 415.507 -2.33659 3.00179 0
M  V30 4325 H 416.819 -3.23402 3.79753 0
M  V30 4326 H 415.973 -5.37475 2.81434 0
M  V30 4327 H 414.712 -4.4856 1.91431 0
M  V30 4328 H 413.717 -3.68864 4.077 0
M  V30 4329 H 414.942 -4.61124 4.98539 0
M  V30 4330 H 412.888 -5.79314 3.07785 0
M  V30 4331 H 412.805 -5.83367 4.80853 0
M  V30 4332 H 414.073 -6.69637 3.99007 0
M  V30 4333 N 418.302 -1.35869 -0.798587 0
M  V30 4334 C 419.532 -1.32529 -1.58491 0
M  V30 4335 C 419.94 0.0975405 -1.88948 0
M  V30 4336 O 419.283 1.06224 -1.49874 0
M  V30 4337 C 419.345 -2.07247 -2.9375 0
M  V30 4338 C 419.009 -3.56391 -2.86068 0
M  V30 4339 C 420.006 -4.50824 -2.58947 0
M  V30 4340 C 417.691 -3.9915 -3.04933 0
M  V30 4341 C 419.685 -5.85993 -2.5078 0
M  V30 4342 C 417.372 -5.34413 -2.96389 0
M  V30 4343 C 418.37 -6.27646 -2.69349 0
M  V30 4344 O 418.058 -7.60426 -2.60782 0
M  V30 4345 H 417.79 -0.456529 -0.498556 0
M  V30 4346 H 420.344 -1.79425 -0.999799 0
M  V30 4347 H 418.574 -1.55001 -3.54276 0
M  V30 4348 H 420.263 -1.96883 -3.54954 0
M  V30 4349 H 421.029 -4.19104 -2.44084 0
M  V30 4350 H 416.908 -3.26961 -3.24989 0
M  V30 4351 H 420.452 -6.58735 -2.29595 0
M  V30 4352 H 416.349 -5.65743 -3.10813 0
M  V30 4353 H 417.117 -7.70444 -2.76331 0
M  V30 4354 N 419.78 1.02168 -1.19998 0
M  V30 4355 C 421.029 1.75091 -1.0013 0
M  V30 4356 C 421.342 1.89923 0.467835 0
M  V30 4357 O 422.548 2.59888 0.785515 0
M  V30 4358 C 421.004 3.14892 -1.74273 0
M  V30 4359 C 420.612 3.0809 -3.25245 0
M  V30 4360 C 422.356 3.9206 -1.62755 0
M  V30 4361 C 420.263 4.42867 -3.91948 0
M  V30 4362 H 419.193 0.656394 -0.37103 0
M  V30 4363 H 421.844 1.14284 -1.43567 0
M  V30 4364 H 420.226 3.7621 -1.2362 0
M  V30 4365 H 421.4 2.5611 -3.83072 0
M  V30 4366 H 419.715 2.44416 -3.3712 0
M  V30 4367 H 422.312 4.91764 -2.09934 0
M  V30 4368 H 422.655 4.12199 -0.582894 0
M  V30 4369 H 423.188 3.37359 -2.10793 0
M  V30 4370 H 419.927 4.27931 -4.96543 0
M  V30 4371 H 419.447 4.94874 -3.3891 0
M  V30 4372 H 421.126 5.11728 -3.95909 0
M  V30 4373 N 421.258 1.00505 1.21394 0
M  V30 4374 C 422.191 0.51032 2.22421 0
M  V30 4375 C 423.169 -0.436 1.56645 0
M  V30 4376 O 424.353 -0.358709 1.85055 0
M  V30 4377 C 421.48 -0.258733 3.3771 0
M  V30 4378 C 420.526 0.635395 4.2174 0
M  V30 4379 S 421.359 2.09783 4.92698 0
M  V30 4380 C 422.515 1.33862 6.11418 0
M  V30 4381 H 422.748 1.36637 2.64041 0
M  V30 4382 H 420.281 0.812991 1.31262 0
M  V30 4383 H 422.239 -0.696372 4.0455 0
M  V30 4384 H 420.9 -1.0902 2.94573 0
M  V30 4385 H 420.093 0.0430189 5.03982 0
M  V30 4386 H 419.695 1.01031 3.60095 0
M  V30 4387 H 421.987 0.612541 6.74725 0
M  V30 4388 H 422.93 2.13675 6.75092 0
M  V30 4389 H 423.338 0.846568 5.58116 0
M  V30 4390 N 422.737 -1.36956 0.779787 0
M  V30 4391 C 423.962 -2.04283 0.358224 0
M  V30 4392 C 424.387 -1.58422 -1.01411 0
M  V30 4393 O 423.745 -0.748179 -1.65142 0
M  V30 4394 C 423.793 -3.58152 0.419479 0
M  V30 4395 O 422.897 -4.08342 -0.577142 0
M  V30 4396 H 422.238 -0.645967 0.153698 0
M  V30 4397 H 424.768 -1.75108 1.05822 0
M  V30 4398 H 424.778 -4.07041 0.279636 0
M  V30 4399 H 423.453 -3.90886 1.42061 0
M  V30 4400 H 422.03 -3.70751 -0.399755 0
M  V30 4401 N 424.215 -0.530993 -1.48385 0
M  V30 4402 C 425.626 -0.0907905 -1.86479 0
M  V30 4403 C 425.977 1.33213 -1.44044 0
M  V30 4404 O 425.102 1.99783 -0.831615 0
M  V30 4405 C 425.697 -0.157987 -3.38431 0
M  V30 4406 C 424.256 0.227026 -3.75715 0
M  V30 4407 C 423.403 -0.5173 -2.72432 0
M  V30 4408 H 426.354 -0.742186 -1.40276 0
M  V30 4409 H 426.375 0.630053 -3.75247 0
M  V30 4410 H 425.887 -1.19372 -3.69286 0
M  V30 4411 H 423.988 1.26486 -3.50474 0
M  V30 4412 H 424.101 -0.113288 -4.78966 0
M  V30 4413 H 422.465 0.0365527 -2.54674 0
M  V30 4414 H 423.248 -1.55368 -3.0613 0
M  V30 4415 N 425.693 1.55336 -0.266172 0
M  V30 4416 C 427.104 1.85236 0.233315 0
M  V30 4417 C 427.455 1.18816 1.56132 0
M  V30 4418 O 426.58 0.473307 2.11161 0
M  V30 4419 C 427.175 3.36059 0.430113 0
M  V30 4420 C 425.734 3.66116 0.873842 0
M  V30 4421 C 424.881 2.77274 -0.0380016 0
M  V30 4422 H 427.832 1.51004 -0.488214 0
M  V30 4423 H 427.853 3.58681 1.26998 0
M  V30 4424 H 427.365 3.84373 -0.536588 0
M  V30 4425 H 425.466 3.23295 1.85233 0
M  V30 4426 H 425.579 4.73699 0.717358 0
M  V30 4427 H 423.943 2.50198 0.476759 0
M  V30 4428 H 424.726 3.284 -1.00042 0
M  V30 4429 N 427.171 -0.0066808 1.57599 0
M  V30 4430 C 428.101 -0.999296 2.11036 0
M  V30 4431 C 429.082 -1.36278 1.01795 0
M  V30 4432 O 430.267 -1.4477 1.29442 0
M  V30 4433 C 427.397 -2.29328 2.60818 0
M  V30 4434 C 426.351 -2.07159 3.74525 0
M  V30 4435 C 425.677 -3.42512 4.10596 0
M  V30 4436 C 426.977 -1.43959 5.02069 0
M  V30 4437 H 428.671 -0.554382 2.94223 0
M  V30 4438 H 426.217 -0.265221 1.41536 0
M  V30 4439 H 428.17 -2.99117 2.96828 0
M  V30 4440 H 426.894 -2.7592 1.74745 0
M  V30 4441 H 425.553 -1.39797 3.38899 0
M  V30 4442 H 425.201 -3.86795 3.21556 0
M  V30 4443 H 424.901 -3.28498 4.87199 0
M  V30 4444 H 426.425 -4.13628 4.4916 0
M  V30 4445 H 427.839 -2.03696 5.35893 0
M  V30 4446 H 426.236 -1.40452 5.83432 0
M  V30 4447 H 427.306 -0.407992 4.83181 0
M  V30 4448 N 428.649 -1.55105 -0.279332 0
M  V30 4449 C 430.065 -1.46803 -0.626187 0
M  V30 4450 C 430.265 -0.676939 -1.89789 0
M  V30 4451 O 429.321 -0.19326 -2.51759 0
M  V30 4452 C 430.634 -2.90962 -0.759034 0
M  V30 4453 C 432.182 -3.01138 -0.853504 0
M  V30 4454 C 432.657 -4.46539 -1.01818 0
M  V30 4455 N 434.148 -4.50341 -1.08386 0
M  V30 4456 C 434.883 -5.60053 -1.22996 0
M  V30 4457 N 434.379 -6.79645 -1.34366 0
M  V30 4458 N 436.172 -5.47783 -1.26056 0
M  V30 4459 H 428.323 -2.04996 0.555921 0
M  V30 4460 H 430.586 -0.929325 0.187239 0
M  V30 4461 H 430.292 -3.51544 0.104852 0
M  V30 4462 H 430.166 -3.39619 -1.64131 0
M  V30 4463 H 432.553 -2.40658 -1.70786 0
M  V30 4464 H 432.634 -2.55745 0.0532466 0
M  V30 4465 H 432.278 -5.0762 -0.168504 0
M  V30 4466 H 432.208 -4.89583 -1.93948 0
M  V30 4467 H 434.699 -3.64191 -1.00864 0
M  V30 4468 H 435.012 -7.59012 -1.4533 0
M  V30 4469 H 433.357 -6.82469 -1.31382 0
M  V30 4470 H 436.548 -4.53294 -1.168 0
M  V30 4471 H 436.721 -6.33331 -1.37098 0
M  V30 4472 N 430.127 0.543554 -1.4793 0
M  V30 4473 C 431.404 1.30458 -1.4574 0
M  V30 4474 C 431.784 2.1048 -0.161692 0
M  V30 4475 O 431.132 2.11831 0.856734 0
M  V30 4476 C 431.342 2.19754 -2.71126 0
M  V30 4477 C 432.69 2.80334 -3.18901 0
M  V30 4478 O 433.714 2.30049 -2.71948 0
M  V30 4479 O 432.573 3.71766 -4.00565 0
M  V30 4480 H 429.667 0.588117 -0.581418 0
M  V30 4481 H 432.213 0.561328 -1.60147 0
M  V30 4482 H 430.985 1.60316 -3.56952 0
M  V30 4483 H 430.608 3.01351 -2.59371 0
M  V30 4484 N 431.605 1.3629 0.791371 0
M  V30 4485 C 432.552 1.30458 1.90393 0
M  V30 4486 C 433.522 0.173632 1.6519 0
M  V30 4487 O 434.707 0.35983 1.87376 0
M  V30 4488 C 431.847 1.09777 3.27174 0
M  V30 4489 C 430.96 2.31929 3.64462 0
M  V30 4490 C 430.095 2.04276 4.90352 0
M  V30 4491 C 429.134 3.224 5.20312 0
M  V30 4492 N 428.271 2.94424 6.37385 0
M  V30 4493 H 433.111 2.25589 1.94714 0
M  V30 4494 H 430.648 1.12122 0.952216 0
M  V30 4495 H 432.606 0.958133 4.06049 0
M  V30 4496 H 431.236 0.183014 3.22281 0
M  V30 4497 H 430.288 2.56703 2.80727 0
M  V30 4498 H 431.6 3.20085 3.82553 0
M  V30 4499 H 430.754 1.87231 5.77087 0
M  V30 4500 H 429.493 1.13428 4.74326 0
M  V30 4501 H 428.498 3.40005 4.32061 0
M  V30 4502 H 429.723 4.14071 5.38258 0
M  V30 4503 H 427.669 2.06185 6.22755 0
M  V30 4504 H 427.586 3.76118 6.55798 0
M  V30 4505 H 428.854 2.80953 7.27108 0
M  V30 4506 N 433.083 -1.0153 1.20538 0
M  V30 4507 C 434.499 -1.27461 0.96051 0
M  V30 4508 C 434.699 -1.98273 -0.359193 0
M  V30 4509 O 433.755 -2.27886 -1.0874 0
M  V30 4510 C 435.068 -2.10837 2.14402 0
M  V30 4511 C 436.616 -2.24099 2.18515 0
M  V30 4512 C 437.091 -3.10852 3.36355 0
M  V30 4513 N 438.582 -3.18441 3.36377 0
M  V30 4514 C 439.317 -3.85795 4.24205 0
M  V30 4515 N 438.813 -4.55264 5.22213 0
M  V30 4516 N 440.606 -3.82331 4.12043 0
M  V30 4517 H 432.757 -0.539907 2.05423 0
M  V30 4518 H 435.02 -0.30092 0.898972 0
M  V30 4519 H 434.726 -1.66144 3.09983 0
M  V30 4520 H 434.6 -3.11576 2.12604 0
M  V30 4521 H 436.987 -2.68016 1.23497 0
M  V30 4522 H 437.068 -1.22865 2.24361 0
M  V30 4523 H 436.712 -2.6764 4.31661 0
M  V30 4524 H 436.642 -4.12177 3.27746 0
M  V30 4525 H 439.133 -2.68978 2.65442 0
M  V30 4526 H 439.446 -5.04331 5.85551 0
M  V30 4527 H 437.791 -4.54085 5.26148 0
M  V30 4528 H 440.982 -3.27207 3.34743 0
M  V30 4529 H 441.155 -4.34547 4.807 0
M  V30 4530 N 434.561 -1.01147 -1.20859 0
M  V30 4531 C 435.509 -0.57059 -2.25493 0
M  V30 4532 C 436.503 0.388109 -1.64894 0
M  V30 4533 O 437.709 0.258592 -1.78133 0
M  V30 4534 H 434.084 -0.166191 -0.733406 0
M  V30 4535 H 436.055 -1.46411 -2.60012 0
M  V30 4536 C 434.804 0.0805241 -3.47607 0
M  V30 4537 H 434.127 -0.648156 -3.94511 0
M  V30 4538 H 435.567 0.352197 -4.22535 0
M  V30 4539 C 434.026 1.32175 -3.09889 0
M  V30 4540 O 434.556 2.41553 -3.20959 0
M  V30 4541 N 432.762 1.20392 -2.64488 0
M  V30 4542 H 432.309 0.313905 -2.5568 0
M  V30 4543 H 432.267 2.03541 -2.39621 0
M  V30 4544 N 436.039 1.36541 -0.78704 0
M  V30 4545 C 436.971 2.28761 -0.141773 0
M  V30 4546 C 437.984 1.49365 0.647599 0
M  V30 4547 O 439.173 1.71836 0.483173 0
M  V30 4548 C 436.273 3.28771 0.822368 0
M  V30 4549 C 435.446 4.3732 0.0835594 0
M  V30 4550 C 434.505 5.17307 0.963296 0
M  V30 4551 O 433.531 5.67638 0.421419 0
M  V30 4552 N 434.733 5.33515 2.28784 0
M  V30 4553 H 437.498 2.84777 -0.933919 0
M  V30 4554 H 435.059 1.48682 -0.640735 0
M  V30 4555 H 437.051 3.79169 1.41468 0
M  V30 4556 H 435.621 2.73412 1.5154 0
M  V30 4557 H 434.841 3.88118 -0.689809 0
M  V30 4558 H 436.129 5.0701 -0.426358 0
M  V30 4559 H 435.527 4.94234 2.75226 0
M  V30 4560 H 434.084 5.87165 2.82985 0
M  V30 4561 N 437.518 0.538854 1.48102 0
M  V30 4562 C 438.465 -0.219042 2.29758 0
M  V30 4563 C 439.435 -0.925562 1.37922 0
M  V30 4564 O 440.62 -0.924855 1.66886 0
M  V30 4565 C 437.76 -1.25452 3.2149 0
M  V30 4566 C 436.873 -0.555943 4.28408 0
M  V30 4567 C 436.008 -1.57512 5.0731 0
M  V30 4568 C 435.047 -0.860498 6.06021 0
M  V30 4569 N 434.184 -1.82564 6.77949 0
M  V30 4570 H 439.024 0.483449 2.94052 0
M  V30 4571 H 436.561 0.250247 1.44956 0
M  V30 4572 H 438.519 -1.86727 3.7308 0
M  V30 4573 H 437.149 -1.92528 2.591 0
M  V30 4574 H 436.201 0.170938 3.80016 0
M  V30 4575 H 437.513 0.00474616 4.988 0
M  V30 4576 H 436.667 -2.26191 5.62959 0
M  V30 4577 H 435.406 -2.16972 4.36778 0
M  V30 4578 H 434.411 -0.159686 5.49568 0
M  V30 4579 H 435.636 -0.271897 6.78555 0
M  V30 4580 H 433.582 -2.40915 6.10161 0
M  V30 4581 H 433.499 -1.31662 7.44447 0
M  V30 4582 H 434.767 -2.50414 7.38182 0
M  V30 4583 N 438.996 -1.55193 0.274407 0
M  V30 4584 C 440.242 -1.99877 -0.343086 0
M  V30 4585 C 440.575 -1.16256 -1.55558 0
M  V30 4586 O 439.85 -0.232462 -1.93106 0
M  V30 4587 C 440.133 -3.52706 -0.725965 0
M  V30 4588 C 439.986 -4.47081 0.493818 0
M  V30 4589 C 441.305 -4.11422 -1.56268 0
M  V30 4590 H 438.424 -0.726625 -0.123229 0
M  V30 4591 H 441.066 -1.86136 0.38121 0
M  V30 4592 H 439.216 -3.64546 -1.34307 0
M  V30 4593 H 440.888 -4.47186 1.13237 0
M  V30 4594 H 439.131 -4.1877 1.13201 0
M  V30 4595 H 439.802 -5.51699 0.18217 0
M  V30 4596 H 442.278 -4.02855 -1.04151 0
M  V30 4597 H 441.154 -5.18568 -1.79939 0
M  V30 4598 H 441.415 -3.61607 -2.54348 0
M  V30 4599 N 440.474 -0.00167713 -1.576 0
M  V30 4600 C 441.404 0.988091 -2.11563 0
M  V30 4601 C 442.385 1.35736 -1.02517 0
M  V30 4602 O 443.57 1.44082 -1.30208 0
M  V30 4603 C 440.7 2.27941 -2.62031 0
M  V30 4604 C 439.654 2.0517 -3.75619 0
M  V30 4605 C 438.98 3.4033 -4.12407 0
M  V30 4606 C 440.28 1.41294 -5.02825 0
M  V30 4607 H 441.974 0.538771 -2.94513 0
M  V30 4608 H 439.52 0.257712 -1.41675 0
M  V30 4609 H 441.473 2.97539 -2.9841 0
M  V30 4610 H 440.197 2.74989 -1.76205 0
M  V30 4611 H 438.856 1.37998 -3.39635 0
M  V30 4612 H 438.504 3.85085 -3.23603 0
M  V30 4613 H 438.204 3.25909 -4.88935 0
M  V30 4614 H 439.728 4.1124 -4.51347 0
M  V30 4615 H 441.142 2.00851 -5.36965 0
M  V30 4616 H 439.539 1.37356 -5.84169 0
M  V30 4617 H 440.609 0.382362 -4.8339 0
M  V30 4618 N 441.952 1.55251 0.271103 0
M  V30 4619 C 443.198 1.7713 0.999832 0
M  V30 4620 C 443.553 0.56659 1.83868 0
M  V30 4621 O 442.846 -0.44069 1.86463 0
M  V30 4622 C 443.04 3.01879 1.91321 0
M  V30 4623 C 442.869 4.34368 1.16426 0
M  V30 4624 C 441.639 4.97593 0.879169 0
M  V30 4625 C 443.837 5.1131 0.553749 0
M  V30 4626 N 441.819 6.13813 0.103618 0
M  V30 4627 C 443.19 6.19938 -0.0875442 0
M  V30 4628 C 445.245 4.95754 0.461782 0
M  V30 4629 C 443.948 7.14703 -0.811942 0
M  V30 4630 C 445.974 5.90875 -0.249027 0
M  V30 4631 C 445.336 6.98893 -0.879051 0
M  V30 4632 H 441.435 0.700407 0.347784 0
M  V30 4633 H 444.019 1.92744 0.275314 0
M  V30 4634 H 442.19 2.87637 2.60997 0
M  V30 4635 H 443.922 3.12154 2.57569 0
M  V30 4636 H 440.677 4.58538 1.18491 0
M  V30 4637 H 441.101 6.76455 -0.271543 0
M  V30 4638 H 445.743 4.12342 0.934552 0
M  V30 4639 H 443.461 7.97634 -1.29639 0
M  V30 4640 H 447.047 5.80916 -0.320529 0
M  V30 4641 H 445.927 7.71231 -1.42031 0
M  V30 4642 N 443.43 -0.535701 1.48216 0
M  V30 4643 C 444.707 -1.29683 1.46429 0
M  V30 4644 C 445.087 -2.10391 0.172852 0
M  V30 4645 O 444.435 -2.12282 -0.845488 0
M  V30 4646 C 444.645 -2.18313 2.72287 0
M  V30 4647 C 445.993 -2.78639 3.20383 0
M  V30 4648 O 447.017 -2.28604 2.73164 0
M  V30 4649 O 445.876 -3.69636 4.02531 0
M  V30 4650 H 442.97 -0.585026 0.584529 0
M  V30 4651 H 445.516 -0.552827 1.60443 0
M  V30 4652 H 444.288 -1.58421 3.57797 0
M  V30 4653 H 443.911 -2.99971 2.60966 0
M  V30 4654 N 444.908 -1.36708 -0.784132 0
M  V30 4655 C 445.871 -1.31307 -1.87859 0
M  V30 4656 C 446.871 -0.219654 -1.59293 0
M  V30 4657 O 448.061 -0.47476 -1.67606 0
M  V30 4658 C 445.193 -1.03679 -3.24751 0
M  V30 4659 H 446.386 -2.28647 -1.94064 0
M  V30 4660 H 443.939 -1.21558 -0.98252 0
M  V30 4661 H 444.674 -0.0681936 -3.24228 0
M  V30 4662 H 444.459 -1.82811 -3.46876 0
M  V30 4663 H 445.949 -1.02518 -4.04821 0
M  V30 4664 N 446.386 1.0089 -1.21074 0
M  V30 4665 C 447.316 2.1145 -0.990523 0
M  V30 4666 C 448.297 1.69897 0.0831699 0
M  V30 4667 O 449.482 1.94052 -0.0758853 0
M  V30 4668 C 446.612 3.42914 -0.550177 0
M  V30 4669 C 445.566 3.98244 -1.56799 0
M  V30 4670 C 444.892 5.25568 -0.984013 0
M  V30 4671 C 446.192 4.30752 -2.95381 0
M  V30 4672 H 447.886 2.3013 -1.91521 0
M  V30 4673 H 445.432 1.10592 -0.92225 0
M  V30 4674 H 447.385 4.19653 -0.383305 0
M  V30 4675 H 446.109 3.24014 0.41015 0
M  V30 4676 H 444.768 3.23621 -1.72236 0
M  V30 4677 H 444.416 5.02998 -0.0155216 0
M  V30 4678 H 444.116 5.63551 -1.66384 0
M  V30 4679 H 445.64 6.04955 -0.828378 0
M  V30 4680 H 447.054 4.98349 -2.8341 0
M  V30 4681 H 445.451 4.79869 -3.60341 0
M  V30 4682 H 446.521 3.39192 -3.46521 0
M  V30 4683 N 447.864 1.01787 1.20321 0
M  V30 4684 C 448.827 0.593972 2.2137 0
M  V30 4685 C 449.827 -0.336553 1.57239 0
M  V30 4686 O 451.017 -0.125069 1.7375 0
M  V30 4687 C 448.149 -0.132433 3.40643 0
M  V30 4688 H 449.342 1.48791 2.60387 0
M  V30 4689 H 446.895 0.807803 1.33807 0
M  V30 4690 H 447.63 -1.04123 3.0713 0
M  V30 4691 H 447.415 0.53605 3.88418 0
M  V30 4692 H 448.905 -0.416314 4.1552 0
M  V30 4693 N 449.342 -1.36122 0.79427 0
M  V30 4694 C 450.274 -2.28683 0.153903 0
M  V30 4695 C 451.287 -1.49707 -0.639669 0
M  V30 4696 O 452.476 -1.7209 -0.474054 0
M  V30 4697 C 449.576 -3.29202 -0.804921 0
M  V30 4698 C 448.749 -4.37358 -0.060366 0
M  V30 4699 C 447.808 -5.17811 -0.935849 0
M  V30 4700 O 446.834 -5.67853 -0.391309 0
M  V30 4701 N 448.036 -5.34721 -2.25951 0
M  V30 4702 H 450.801 -2.84278 0.949008 0
M  V30 4703 H 448.362 -1.4834 0.648611 0
M  V30 4704 H 450.354 -3.79914 -1.39455 0
M  V30 4705 H 448.924 -2.74212 -1.50088 0
M  V30 4706 H 448.144 -3.87746 0.710382 0
M  V30 4707 H 449.432 -5.06777 0.45324 0
M  V30 4708 H 448.83 -4.95687 -2.72601 0
M  V30 4709 H 447.387 -5.88657 -2.79867 0
M  V30 4710 N 450.82 -0.546701 -1.47814 0
M  V30 4711 C 452.068 -0.0187037 -2.02091 0
M  V30 4712 C 452.389 1.33168 -1.42447 0
M  V30 4713 O 451.659 1.86619 -0.595839 0
M  V30 4714 H 450.239 -0.00392531 -0.74699 0
M  V30 4715 H 452.901 -0.714327 -1.81338 0
M  V30 4716 H 451.997 0.0772219 -3.12004 0
M  V30 4717 N 452.299 1.55045 -0.282633 0
M  V30 4718 C 453.546 1.9976 0.33199 0
M  V30 4719 C 453.874 1.17105 1.55295 0
M  V30 4720 O 453.129 0.230599 1.94337 0
M  V30 4721 C 453.428 3.49422 0.750938 0
M  V30 4722 C 453.094 4.4941 -0.366228 0
M  V30 4723 C 451.756 4.76471 -0.672964 0
M  V30 4724 C 454.108 5.09054 -1.11864 0
M  V30 4725 C 451.436 5.60442 -1.73556 0
M  V30 4726 C 453.788 5.9418 -2.17102 0
M  V30 4727 C 452.452 6.19558 -2.48402 0
M  V30 4728 H 451.722 0.730974 0.121484 0
M  V30 4729 H 454.369 1.8732 -0.39791 0
M  V30 4730 H 452.674 3.59377 1.56063 0
M  V30 4731 H 454.371 3.81432 1.23736 0
M  V30 4732 H 450.961 4.2844 -0.117041 0
M  V30 4733 H 455.145 4.88165 -0.894925 0
M  V30 4734 H 450.401 5.78349 -1.983 0
M  V30 4735 H 454.575 6.39427 -2.75873 0
M  V30 4736 H 452.202 6.84417 -3.30874 0
M  V30 4737 N 453.777 0.010035 1.57597 0
M  V30 4738 C 455.026 -0.671945 1.90178 0
M  V30 4739 C 455.339 -1.74376 0.886131 0
M  V30 4740 O 456.545 -2.48107 1.10252 0
M  V30 4741 C 455.001 -1.24636 3.3763 0
M  V30 4742 C 454.609 -0.208838 4.47513 0
M  V30 4743 C 456.353 -1.90595 3.79307 0
M  V30 4744 C 454.26 -0.793814 5.86048 0
M  V30 4745 H 453.19 -0.25474 0.709665 0
M  V30 4746 H 455.841 0.0722206 1.83358 0
M  V30 4747 H 454.223 -2.04152 3.3932 0
M  V30 4748 H 455.397 0.562463 4.57354 0
M  V30 4749 H 453.712 0.350889 4.14919 0
M  V30 4750 H 456.309 -2.35284 4.80151 0
M  V30 4751 H 456.652 -2.74074 3.13352 0
M  V30 4752 H 457.185 -1.17798 3.79958 0
M  V30 4753 H 453.924 0.00240855 6.555 0
M  V30 4754 H 453.444 -1.53404 5.79851 0
M  V30 4755 H 455.123 -1.2894 6.34022 0
M  V30 4756 N 455.255 -1.55392 -0.262866 0
M  V30 4757 C 456.532 -1.67204 -1.01499 0
M  V30 4758 C 456.912 -0.545186 -2.03939 0
M  V30 4759 O 456.26 0.453467 -2.23955 0
M  V30 4760 C 456.47 -3.06847 -1.6627 0
M  V30 4761 C 457.818 -3.64928 -2.17054 0
M  V30 4762 O 458.842 -3.09545 -1.76239 0
M  V30 4763 O 457.701 -4.61984 -2.91947 0
M  V30 4764 H 454.795 -0.679467 -0.471438 0
M  V30 4765 H 457.341 -1.67729 -0.257918 0
M  V30 4766 H 456.113 -3.80309 -0.920915 0
M  V30 4767 H 455.736 -3.10266 -2.48638 0
M  V30 4768 N 456.733 0.527833 -1.48498 0
M  V30 4769 C 457.961 1.30823 -1.6029 0
M  V30 4770 C 458.376 1.86945 -0.263974 0
M  V30 4771 O 457.733 1.6651 0.747034 0
M  V30 4772 C 457.784 2.45756 -2.65116 0
M  V30 4773 O 457.505 1.91946 -3.93813 0
M  V30 4774 C 459.006 3.37543 -2.87367 0
M  V30 4775 H 456.226 0.397763 -0.540394 0
M  V30 4776 H 458.77 0.636529 -1.94341 0
M  V30 4777 H 456.925 3.08806 -2.33917 0
M  V30 4778 H 457.339 2.67195 -4.51339 0
M  V30 4779 H 458.813 4.14532 -3.6451 0
M  V30 4780 H 459.29 3.92905 -1.9627 0
M  V30 4781 H 459.896 2.80283 -3.19878 0
M  V30 4782 N 458.211 1.37122 0.776871 0
M  V30 4783 C 459.457 1.32243 1.53752 0
M  V30 4784 C 459.79 -0.0944745 1.9397 0
M  V30 4785 O 459.065 -1.05068 1.6368 0
M  V30 4786 C 459.348 2.25681 2.80607 0
M  V30 4787 C 459.201 3.76127 2.46676 0
M  V30 4788 C 460.52 2.17657 3.82509 0
M  V30 4789 H 457.639 0.481704 0.557791 0
M  V30 4790 H 460.281 1.6778 0.891612 0
M  V30 4791 H 458.431 1.95505 3.35723 0
M  V30 4792 H 460.103 4.16877 1.97513 0
M  V30 4793 H 458.346 3.94946 1.79443 0
M  V30 4794 H 459.017 4.36933 3.37333 0
M  V30 4795 H 461.493 2.44245 3.36873 0
M  V30 4796 H 460.369 2.85185 4.69 0
M  V30 4797 H 460.63 1.16785 4.26396 0
M  V30 4798 N 459.689 -1.00246 1.21608 0
M  V30 4799 C 460.937 -1.73717 1.0328 0
M  V30 4800 C 461.258 -1.90102 -0.434318 0
M  V30 4801 O 460.528 -1.45376 -1.31311 0
M  V30 4802 H 459.108 -0.643613 0.379172 0
M  V30 4803 H 461.77 -1.20787 1.52959 0
M  V30 4804 H 460.866 -2.73535 1.50283 0
M  V30 4805 N 461.167 -1.02423 -1.1978 0
M  V30 4806 C 462.395 -0.737456 -1.93311 0
M  V30 4807 C 462.81 0.703023 -1.75223 0
M  V30 4808 O 462.167 1.47761 -1.07112 0
M  V30 4809 C 462.218 -1.0733 -3.45199 0
M  V30 4810 O 461.939 -2.4572 -3.62702 0
M  V30 4811 C 463.44 -0.80866 -4.35862 0
M  V30 4812 H 460.66 -0.2702 -0.614193 0
M  V30 4813 H 463.204 -1.36747 -1.52054 0
M  V30 4814 H 461.359 -0.488545 -3.84307 0
M  V30 4815 H 461.773 -2.58081 -4.56612 0
M  V30 4816 H 463.247 -1.09365 -5.41057 0
M  V30 4817 H 463.724 0.257025 -4.38447 0
M  V30 4818 H 464.33 -1.37592 -4.02428 0
M  V30 4819 N 462.645 1.35699 -0.801477 0
M  V30 4820 C 463.922 1.9324 -0.302937 0
M  V30 4821 C 464.302 1.73209 1.20672 0
M  V30 4822 O 463.65 1.09809 2.00385 0
M  V30 4823 C 463.86 3.41728 -0.708747 0
M  V30 4824 C 465.208 4.18868 -0.695328 0
M  V30 4825 O 466.232 3.5022 -0.649971 0
M  V30 4826 O 465.091 5.41342 -0.749081 0
M  V30 4827 H 462.185 0.82331 -0.0780367 0
M  V30 4828 H 464.731 1.44806 -0.884832 0
M  V30 4829 H 463.503 3.50015 -1.74944 0
M  V30 4830 H 463.126 3.97471 -0.101384 0
M  V30 4831 N 464.123 0.554532 1.47522 0
M  V30 4832 C 465.073 -0.215008 2.26984 0
M  V30 4833 C 466.057 -0.88774 1.34194 0
M  V30 4834 O 467.249 -0.786489 1.58567 0
M  V30 4835 C 464.378 -1.24604 3.19889 0
M  V30 4836 C 463.464 -0.576857 4.20159 0
M  V30 4837 N 463.855 0.351541 5.04577 0
M  V30 4838 C 462.153 -0.831104 4.38188 0
M  V30 4839 C 462.854 0.739995 5.76974 0
M  V30 4840 N 461.83 0.0954407 5.43516 0
M  V30 4841 H 465.632 0.498843 2.89636 0
M  V30 4842 H 463.146 0.374279 1.58028 0
M  V30 4843 H 465.143 -1.81128 3.75498 0
M  V30 4844 H 463.803 -1.96101 2.58794 0
M  V30 4845 H 464.814 0.725556 5.12792 0
M  V30 4846 H 461.491 -1.53479 3.88266 0
M  V30 4847 H 462.881 1.50271 6.5488 0
M  V30 4848 N 465.601 -1.54893 0.290851 0
M  V30 4849 C 466.841 -2.01842 -0.322388 0
M  V30 4850 C 467.205 -1.17477 -1.51865 0
M  V30 4851 O 468.406 -1.54077 -2.20258 0
M  V30 4852 C 466.677 -3.50874 -0.679844 0
M  V30 4853 S 468.236 -4.19796 -1.27739 0
M  V30 4854 H 465.054 -0.704005 -0.0994866 0
M  V30 4855 H 467.656 -1.91015 0.416358 0
M  V30 4856 H 466.36 -4.09915 0.199435 0
M  V30 4857 H 465.891 -3.65717 -1.44964 0
M  V30 4858 H 467.906 -4.24729 -2.56554 0
M  V30 4859 N 467.08 -0.0183926 -1.57589 0
M  V30 4860 C 468.491 0.521927 -1.79256 0
M  V30 4861 C 468.842 1.72885 -0.927636 0
M  V30 4862 O 467.967 2.15978 -0.135091 0
M  V30 4863 C 468.562 0.953632 -3.25102 0
M  V30 4864 C 467.121 1.43913 -3.47801 0
M  V30 4865 C 466.268 0.398837 -2.74417 0
M  V30 4866 H 469.219 -0.244485 -1.56805 0
M  V30 4867 H 469.24 1.81863 -3.34224 0
M  V30 4868 H 468.752 0.0750123 -3.88028 0
M  V30 4869 H 466.853 2.33804 -2.90115 0
M  V30 4870 H 466.966 1.45391 -4.56507 0
M  V30 4871 H 465.33 0.864572 -2.39577 0
M  V30 4872 H 466.113 -0.471132 -3.40052 0
M  V30 4873 N 468.558 1.5553 0.254621 0
M  V30 4874 C 469.805 1.77 0.983736 0
M  V30 4875 C 470.133 0.58133 1.85609 0
M  V30 4876 O 469.388 -0.435621 1.9079 0
M  V30 4877 C 469.687 3.03891 1.88109 0
M  V30 4878 C 469.353 4.35597 1.16472 0
M  V30 4879 C 468.015 4.7139 0.966714 0
M  V30 4880 C 470.367 5.1705 0.656387 0
M  V30 4881 C 467.695 5.86176 0.247942 0
M  V30 4882 C 470.047 6.32581 -0.0488807 0
M  V30 4883 C 468.711 6.67 -0.258438 0
M  V30 4884 H 467.981 0.647688 0.359974 0
M  V30 4885 H 470.628 1.89802 0.254463 0
M  V30 4886 H 468.933 2.86068 2.67717 0
M  V30 4887 H 470.63 3.17701 2.44677 0
M  V30 4888 H 467.22 4.07475 1.32899 0
M  V30 4889 H 471.404 4.8986 0.796933 0
M  V30 4890 H 466.66 6.11354 0.075035 0
M  V30 4891 H 470.834 6.94942 -0.450444 0
M  V30 4892 H 468.461 7.55793 -0.817358 0
M  V30 4893 N 470.036 -0.519951 1.48776 0
M  V30 4894 C 471.313 -1.28123 1.47797 0
M  V30 4895 C 471.693 -2.10196 0.195157 0
M  V30 4896 O 471.041 -2.13167 -0.822925 0
M  V30 4897 C 471.251 -2.15413 2.74587 0
M  V30 4898 C 472.599 -2.75225 3.23321 0
M  V30 4899 O 473.623 -2.25694 2.75574 0
M  V30 4900 O 472.482 -3.65346 4.06429 0
M  V30 4901 H 469.576 -0.578793 0.590701 0
M  V30 4902 H 472.122 -0.535779 1.6102 0
M  V30 4903 H 470.894 -1.54617 3.59457 0
M  V30 4904 H 470.517 -2.97186 2.64132 0
M  V30 4905 N 471.514 -1.37532 -0.769588 0
M  V30 4906 C 472.742 -1.36059 -1.55871 0
M  V30 4907 C 473.157 0.053544 -1.88724 0
M  V30 4908 O 472.514 1.01591 -1.5161 0
M  V30 4909 C 472.565 -2.20107 -2.86767 0
M  V30 4910 O 472.286 -3.56009 -2.55321 0
M  V30 4911 C 473.787 -2.26636 -3.80987 0
M  V30 4912 H 471.007 -0.465967 -0.482821 0
M  V30 4913 H 473.551 -1.80901 -0.953686 0
M  V30 4914 H 471.706 -1.78768 -3.43687 0
M  V30 4915 H 472.12 -4.0009 -3.39158 0
M  V30 4916 H 473.594 -2.89763 -4.69831 0
M  V30 4917 H 474.071 -1.2754 -4.20274 0
M  V30 4918 H 474.677 -2.68296 -3.29996 0
M  V30 4919 N 472.992 0.995999 -1.22138 0
M  V30 4920 C 473.902 2.11985 -1.00496 0
M  V30 4921 C 474.918 1.7394 0.0457701 0
M  V30 4922 O 476.094 2.00868 -0.146273 0
M  V30 4923 C 473.159 3.41779 -0.582086 0
M  V30 4924 C 472.22 3.93943 -1.70608 0
M  V30 4925 C 471.453 5.17542 -1.30328 0
M  V30 4926 O 471.676 5.70114 -0.180743 0
M  V30 4927 O 470.61 5.63382 -2.11861 0
M  V30 4928 H 474.436 2.33123 -1.94647 0
M  V30 4929 H 472.021 1.10358 -1.00705 0
M  V30 4930 H 473.903 4.1989 -0.356467 0
M  V30 4931 H 472.578 3.22007 0.330592 0
M  V30 4932 H 471.485 3.17019 -1.98619 0
M  V30 4933 H 472.818 4.18141 -2.59651 0
M  V30 4934 N 474.47 1.03057 1.19235 0
M  V30 4935 C 475.402 0.570932 2.21975 0
M  V30 4936 C 476.415 -0.354088 1.58903 0
M  V30 4937 O 477.604 -0.150211 1.77867 0
M  V30 4938 C 474.704 -0.187152 3.38383 0
M  V30 4939 C 473.877 0.743231 4.31039 0
M  V30 4940 C 472.936 0.0302493 5.26191 0
M  V30 4941 O 471.962 0.657371 5.65391 0
M  V30 4942 N 473.164 -1.23991 5.67104 0
M  V30 4943 H 475.929 1.45456 2.62036 0
M  V30 4944 H 473.49 0.909807 1.33918 0
M  V30 4945 H 475.482 -0.673715 3.99053 0
M  V30 4946 H 474.052 -0.972205 2.97098 0
M  V30 4947 H 473.272 1.40985 3.68126 0
M  V30 4948 H 474.56 1.3755 4.89854 0
M  V30 4949 H 473.958 -1.77011 5.37293 0
M  V30 4950 H 472.515 -1.67093 6.30018 0
M  V30 4951 N 475.948 -1.35272 0.808662 0
M  V30 4952 C 476.895 -2.29764 0.218482 0
M  V30 4953 C 477.865 -1.52911 -0.648652 0
M  V30 4954 O 479.05 -1.81341 -0.593297 0
M  V30 4955 C 476.19 -3.39388 -0.625282 0
M  V30 4956 C 475.303 -4.31202 0.262516 0
M  V30 4957 C 474.438 -5.27919 -0.589451 0
M  V30 4958 C 473.477 -6.11371 0.298617 0
M  V30 4959 N 472.614 -7.0022 -0.513443 0
M  V30 4960 H 477.454 -2.79645 1.02968 0
M  V30 4961 H 474.991 -1.37629 0.519303 0
M  V30 4962 H 476.949 -4.01615 -1.12966 0
M  V30 4963 H 475.579 -2.90777 -1.40173 0
M  V30 4964 H 474.631 -3.69962 0.885013 0
M  V30 4965 H 475.943 -4.89748 0.945971 0
M  V30 4966 H 475.097 -5.95529 -1.15888 0
M  V30 4967 H 473.836 -4.69875 -1.30647 0
M  V30 4968 H 472.841 -5.42707 0.880301 0
M  V30 4969 H 474.066 -6.71494 1.01352 0
M  V30 4970 H 472.012 -6.44662 -1.21439 0
M  V30 4971 H 471.929 -7.55917 0.111922 0
M  V30 4972 H 473.197 -7.72175 -1.06608 0
M  V30 4973 N 477.426 -0.562348 -1.47226 0
M  V30 4974 C 478.356 0.170627 -2.32876 0
M  V30 4975 C 479.337 0.903748 -1.44106 0
M  V30 4976 O 480.522 0.883206 -1.72954 0
M  V30 4977 C 477.652 1.19786 -3.25989 0
M  V30 4978 C 476.606 0.580875 -4.2404 0
M  V30 4979 C 475.932 1.71311 -5.06514 0
M  V30 4980 C 477.232 -0.468714 -5.20193 0
M  V30 4981 H 478.926 -0.544441 -2.94408 0
M  V30 4982 H 476.472 -0.263271 -1.41573 0
M  V30 4983 H 478.425 1.71884 -3.84752 0
M  V30 4984 H 477.149 1.94294 -2.62521 0
M  V30 4985 H 475.808 0.0811538 -3.6651 0
M  V30 4986 H 475.456 2.44736 -4.39447 0
M  V30 4987 H 475.156 1.30604 -5.72902 0
M  V30 4988 H 476.68 2.23725 -5.68137 0
M  V30 4989 H 478.094 -0.0336028 -5.7329 0
M  V30 4990 H 476.491 -0.794957 -5.94811 0
M  V30 4991 H 477.561 -1.36269 -4.65359 0
M  V30 4992 N 478.904 1.54736 -0.299062 0
M  V30 4993 C 479.834 2.26409 0.571085 0
M  V30 4994 C 480.815 1.2629 1.13951 0
M  V30 4995 O 482 1.55059 1.16921 0
M  V30 4996 C 479.13 3.00338 1.74396 0
M  V30 4997 C 478.084 4.07588 1.30599 0
M  V30 4998 C 477.41 4.69222 2.56387 0
M  V30 4999 C 478.71 5.20455 0.438645 0
M  V30 5000 H 480.404 2.99388 -0.0266991 0
M  V30 5001 H 477.95 1.43993 -0.0142812 0
M  V30 5002 H 479.903 3.49198 2.35878 0
M  V30 5003 H 478.627 2.24934 2.36796 0
M  V30 5004 H 477.286 3.59575 0.71424 0
M  V30 5005 H 476.934 3.9046 3.17097 0
M  V30 5006 H 476.634 5.41653 2.27784 0
M  V30 5007 H 478.158 5.20844 3.18675 0
M  V30 5008 H 479.572 5.65221 0.959085 0
M  V30 5009 H 477.969 5.99594 0.246466 0
M  V30 5010 H 479.039 4.8192 -0.536738 0
M  V30 5011 N 480.382 0.0267497 1.57577 0
M  V30 5012 C 481.63 -0.651116 1.91324 0
M  V30 5013 C 481.951 -1.72804 0.90353 0
M  V30 5014 O 481.221 -1.95822 -0.0552946 0
M  V30 5015 H 479.801 -0.243491 0.706202 0
M  V30 5016 H 482.463 0.0739935 1.94759 0
M  V30 5017 H 481.559 -1.10536 2.9187 0
M  V30 5018 N 481.861 -1.55662 -0.24637 0
M  V30 5019 C 482.808 -1.90361 -1.30504 0
M  V30 5020 C 483.778 -0.757905 -1.47801 0
M  V30 5021 O 484.963 -1.01161 -1.61775 0
M  V30 5022 C 482.103 -2.2042 -2.65535 0
M  V30 5023 C 481.216 -3.47799 -2.56242 0
M  V30 5024 C 480.351 -3.67426 -3.8363 0
M  V30 5025 C 479.39 -4.88403 -3.68956 0
M  V30 5026 N 478.527 -5.04548 -4.88237 0
M  V30 5027 H 483.367 -2.80645 -1.00213 0
M  V30 5028 H 480.904 -1.38924 -0.483577 0
M  V30 5029 H 482.862 -2.35853 -3.44135 0
M  V30 5030 H 481.492 -1.3334 -2.93973 0
M  V30 5031 H 480.544 -3.40694 -1.69208 0
M  V30 5032 H 481.856 -4.36544 -2.4131 0
M  V30 5033 H 481.01 -3.82821 -4.70673 0
M  V30 5034 H 479.749 -2.76914 -4.01459 0
M  V30 5035 H 478.754 -4.72984 -2.80296 0
M  V30 5036 H 479.979 -5.80375 -3.52621 0
M  V30 5037 H 477.925 -4.16974 -5.06427 0
M  V30 5038 H 477.842 -5.87384 -4.75937 0
M  V30 5039 H 479.11 -5.24355 -5.76777 0
M  V30 5040 N 483.339 0.512053 -1.4905 0
M  V30 5041 C 484.249 1.64139 -1.67617 0
M  V30 5042 C 485.265 1.64786 -0.558701 0
M  V30 5043 O 486.441 1.8341 -0.832034 0
M  V30 5044 C 483.506 3.00548 -1.72835 0
M  V30 5045 C 482.567 3.10615 -2.96339 0
M  V30 5046 C 481.8 4.40517 -3.01298 0
M  V30 5047 O 482.023 5.28671 -2.14157 0
M  V30 5048 O 480.957 4.55325 -3.93653 0
M  V30 5049 H 484.783 1.51407 -2.63267 0
M  V30 5050 H 482.368 0.687131 -1.32661 0
M  V30 5051 H 484.25 3.81641 -1.78683 0
M  V30 5052 H 482.925 3.13566 -0.803616 0
M  V30 5053 H 481.832 2.2875 -2.96014 0
M  V30 5054 H 483.165 3.0252 -3.88256 0
M  V30 5055 N 484.817 1.37938 0.762283 0
M  V30 5056 C 485.78 1.34279 1.85747 0
M  V30 5057 C 486.78 0.244969 1.58923 0
M  V30 5058 O 487.97 0.501365 1.66829 0
M  V30 5059 C 485.102 1.08833 3.23061 0
M  V30 5060 H 486.295 2.31705 1.90401 0
M  V30 5061 H 483.848 1.23105 0.963057 0
M  V30 5062 H 484.583 0.119767 3.24079 0
M  V30 5063 H 484.368 1.88306 3.43923 0
M  V30 5064 H 485.858 1.08946 4.03138 0
M  V30 5065 N 486.295 -0.989507 1.22664 0
M  V30 5066 C 487.542 -1.72953 1.05325 0
M  V30 5067 C 487.87 -1.90104 -0.411168 0
M  V30 5068 O 487.125 -1.44386 -1.32103 0
M  V30 5069 C 487.424 -3.13649 1.71345 0
M  V30 5070 C 487.09 -3.16403 3.21248 0
M  V30 5071 C 485.752 -3.16862 3.62149 0
M  V30 5072 C 488.104 -3.12428 4.17179 0
M  V30 5073 C 485.432 -3.11051 4.97458 0
M  V30 5074 C 487.784 -3.08159 5.52468 0
M  V30 5075 C 486.448 -3.06935 5.92746 0
M  V30 5076 H 485.718 -0.632881 0.385412 0
M  V30 5077 H 488.365 -1.15863 1.52473 0
M  V30 5078 H 486.67 -3.74069 1.16532 0
M  V30 5079 H 488.367 -3.69658 1.55416 0
M  V30 5080 H 484.957 -3.16798 2.88682 0
M  V30 5081 H 489.141 -3.11221 3.86595 0
M  V30 5082 H 484.397 -3.0845 5.27891 0
M  V30 5083 H 488.571 -3.04039 6.26525 0
M  V30 5084 H 486.198 -3.02186 6.97558 0
M  V30 5085 N 487.773 -1.03688 -1.18687 0
M  V30 5086 C 489.001 -0.757918 -1.92518 0
M  V30 5087 C 489.416 0.684398 -1.75959 0
M  V30 5088 O 488.773 1.46617 -1.08673 0
M  V30 5089 C 488.824 -1.10985 -3.44042 0
M  V30 5090 O 488.545 -2.49554 -3.60076 0
M  V30 5091 C 490.046 -0.854844 -4.3498 0
M  V30 5092 H 487.266 -0.276699 -0.611293 0
M  V30 5093 H 489.81 -1.38352 -1.50595 0
M  V30 5094 H 487.965 -0.529279 -3.83767 0
M  V30 5095 H 488.379 -2.6291 -4.53849 0
M  V30 5096 H 489.853 -1.15098 -5.39867 0
M  V30 5097 H 490.33 0.210507 -4.38695 0
M  V30 5098 H 490.936 -1.41853 -4.00946 0
M  V30 5099 N 489.251 1.34841 -0.815825 0
M  V30 5100 C 490.214 2.27959 -0.238185 0
M  V30 5101 C 491.214 1.49983 0.579816 0
M  V30 5102 O 492.404 1.69617 0.396953 0
M  V30 5103 C 489.536 3.34314 0.666876 0
M  V30 5104 H 490.729 2.80558 -1.05958 0
M  V30 5105 H 488.282 1.44852 -0.587156 0
M  V30 5106 H 489.017 2.86916 1.5116 0
M  V30 5107 H 488.802 3.92014 0.0819106 0
M  V30 5108 H 490.292 4.0379 1.06506 0
M  V30 5109 N 490.729 0.570148 1.46925 0
M  V30 5110 C 491.978 0.0487352 2.01641 0
M  V30 5111 C 492.291 -1.31433 1.44861 0
M  V30 5112 O 493.497 -1.92638 1.91318 0
M  V30 5113 C 491.953 0.0365817 3.59881 0
M  V30 5114 C 491.561 1.39719 4.25655 0
M  V30 5115 C 493.305 -0.431545 4.22301 0
M  V30 5116 C 491.212 1.34345 5.75939 0
M  V30 5117 H 490.142 0.0144492 0.753862 0
M  V30 5118 H 492.793 0.719928 1.68788 0
M  V30 5119 H 491.175 -0.700522 3.89755 0
M  V30 5120 H 492.349 2.15303 4.07408 0
M  V30 5121 H 490.664 1.80431 3.75278 0
M  V30 5122 H 493.261 -0.490354 5.32447 0
M  V30 5123 H 493.604 -1.44638 3.90366 0
M  V30 5124 H 494.137 0.251102 3.97007 0
M  V30 5125 H 490.876 2.33469 6.12513 0
M  V30 5126 H 490.396 0.629615 5.96486 0
M  V30 5127 H 492.075 1.051 6.38407 0
M  V30 5128 N 492.207 -1.54576 0.307264 0
M  V30 5129 C 493.618 -1.8579 -0.184121 0
M  V30 5130 C 493.969 -1.22914 -1.52927 0
M  V30 5131 O 493.094 -0.529126 -2.09831 0
M  V30 5132 C 493.689 -3.37081 -0.340862 0
M  V30 5133 C 492.248 -3.68304 -0.776465 0
M  V30 5134 C 491.395 -2.77076 0.111503 0
M  V30 5135 H 494.346 -1.49656 0.528078 0
M  V30 5136 H 494.367 -3.61922 -1.17443 0
M  V30 5137 H 493.879 -3.82815 0.638309 0
M  V30 5138 H 491.98 -3.28092 -1.76596 0
M  V30 5139 H 492.093 -4.75434 -0.591512 0
M  V30 5140 H 490.457 -2.51374 -0.410256 0
M  V30 5141 H 491.24 -3.25632 1.08714 0
M  V30 5142 N 493.685 -0.035106 -1.57561 0
M  V30 5143 C 494.633 0.962707 -2.11742 0
M  V30 5144 C 495.627 1.33296 -1.0454 0
M  V30 5145 O 496.833 1.31449 -1.22968 0
M  V30 5146 H 493.208 0.32826 -0.676572 0
M  V30 5147 H 495.179 0.48048 -2.94506 0
M  V30 5148 C 493.928 2.23388 -2.66445 0
M  V30 5149 H 493.251 1.95774 -3.48587 0
M  V30 5150 H 494.691 2.91402 -3.07995 0
M  V30 5151 C 493.15 2.96769 -1.59467 0
M  V30 5152 O 493.68 3.89105 -0.998 0
M  V30 5153 N 491.886 2.59212 -1.31369 0
M  V30 5154 H 491.433 1.84202 -1.80076 0
M  V30 5155 H 491.391 3.08618 -0.600173 0
M  V30 5156 N 495.163 1.55791 0.238111 0
M  V30 5157 C 496.411 1.77681 0.963001 0
M  V30 5158 C 496.732 0.600674 1.85518 0
M  V30 5159 O 496.002 -0.383182 1.92116 0
M  V30 5160 H 494.582 0.655315 0.358568 0
M  V30 5161 H 497.244 1.93239 0.253945 0
M  V30 5162 H 496.34 2.69177 1.57956 0
M  V30 5163 N 496.642 -0.504142 1.49319 0
M  V30 5164 C 497.891 -1.25507 1.57895 0
M  V30 5165 C 498.204 -1.93735 0.269433 0
M  V30 5166 O 499.41 -2.70492 0.233706 0
M  V30 5167 C 497.866 -2.27869 2.78574 0
M  V30 5168 C 497.474 -1.65594 4.16272 0
M  V30 5169 C 499.218 -3.0381 2.96479 0
M  V30 5170 C 497.125 -2.66048 5.28178 0
M  V30 5171 H 496.055 -0.47212 0.587894 0
M  V30 5172 H 498.706 -0.52931 1.757 0
M  V30 5173 H 497.088 -3.03594 2.54257 0
M  V30 5174 H 498.262 -0.958826 4.50714 0
M  V30 5175 H 496.577 -1.02055 4.037 0
M  V30 5176 H 499.174 -3.78925 3.77253 0
M  V30 5177 H 499.517 -3.61235 2.06918 0
M  V30 5178 H 500.05 -2.352 3.20821 0
M  V30 5179 H 496.789 -2.13408 6.19788 0
M  V30 5180 H 496.309 -3.34009 4.98195 0
M  V30 5181 H 497.988 -3.28536 5.57381 0
M  V30 5182 N 498.12 -1.38341 -0.754957 0
M  V30 5183 C 499.531 -1.30803 -1.3322 0
M  V30 5184 C 499.882 0.0368 -1.96165 0
M  V30 5185 O 499.007 0.938844 -1.94974 0
M  V30 5186 C 499.602 -2.3688 -2.42225 0
M  V30 5187 C 498.161 -2.32925 -2.95674 0
M  V30 5188 C 497.308 -2.19819 -1.69042 0
M  V30 5189 H 500.259 -1.48719 -0.553937 0
M  V30 5190 H 500.28 -2.02517 -3.22129 0
M  V30 5191 H 499.792 -3.34747 -1.96383 0
M  V30 5192 H 497.893 -1.38635 -3.45848 0
M  V30 5193 H 498.006 -3.27008 -3.50146 0
M  V30 5194 H 496.37 -1.66648 -1.92615 0
M  V30 5195 H 497.153 -3.19625 -1.25279 0
M  V30 5196 N 499.598 0.982988 -1.23187 0
M  V30 5197 C 500.561 2.05649 -1.01198 0
M  V30 5198 C 501.561 1.6078 0.0252464 0
M  V30 5199 O 502.751 1.72878 -0.214243 0
M  V30 5200 C 499.883 3.36744 -0.530656 0
M  V30 5201 H 501.076 2.2659 -1.96461 0
M  V30 5202 H 498.629 1.15602 -1.05195 0
M  V30 5203 H 499.364 3.21492 0.425873 0
M  V30 5204 H 499.149 3.7065 -1.2791 0
M  V30 5205 H 500.639 4.15705 -0.397366 0
M  V30 5206 N 501.076 1.04316 1.18135 0
M  V30 5207 C 502.325 0.74319 1.87509 0
M  V30 5208 C 502.638 -0.732136 1.81381 0
M  V30 5209 O 503.844 -1.14572 2.46141 0
M  V30 5210 C 502.3 1.27913 3.36402 0
M  V30 5211 C 501.908 2.78326 3.51053 0
M  V30 5212 C 503.652 1.0558 4.11161 0
M  V30 5213 C 501.559 3.25266 4.93919 0
M  V30 5214 H 500.489 0.274313 0.702331 0
M  V30 5215 H 503.14 1.25931 1.33467 0
M  V30 5216 H 501.522 0.690853 3.89927 0
M  V30 5217 H 502.696 3.42933 3.07788 0
M  V30 5218 H 501.011 2.991 2.89704 0
M  V30 5219 H 503.608 1.38161 5.16542 0
M  V30 5220 H 503.951 -0.00684729 4.16299 0
M  V30 5221 H 504.484 1.60882 3.63816 0
M  V30 5222 H 501.223 4.30922 4.9395 0
M  V30 5223 H 500.743 2.65396 5.3789 0
M  V30 5224 H 502.422 3.19433 5.62647 0
M  V30 5225 N 502.554 -1.34406 0.822964 0
M  V30 5226 C 503.464 -2.33298 0.246838 0
M  V30 5227 C 504.48 -1.62625 -0.618797 0
M  V30 5228 O 505.656 -1.94391 -0.526685 0
M  V30 5229 C 502.721 -3.41785 -0.581731 0
M  V30 5230 C 501.782 -4.28206 0.306309 0
M  V30 5231 C 501.015 -5.31512 -0.48281 0
M  V30 5232 O 501.238 -5.43973 -1.71607 0
M  V30 5233 O 500.172 -6.01749 0.134884 0
M  V30 5234 H 503.998 -2.84401 1.06534 0
M  V30 5235 H 501.583 -1.37466 0.585108 0
M  V30 5236 H 503.465 -4.08028 -1.05313 0
M  V30 5237 H 502.14 -2.92925 -1.37756 0
M  V30 5238 H 501.047 -3.64885 0.825199 0
M  V30 5239 H 502.38 -4.80507 1.06649 0
M  V30 5240 N 504.032 -0.577932 -1.46621 0
M  V30 5241 C 505.309 0.00495287 -1.95599 0
M  V30 5242 C 505.689 1.46428 -1.5206 0
M  V30 5243 O 505.037 2.1517 -0.769046 0
M  V30 5244 C 505.247 -0.162114 -3.48623 0
M  V30 5245 C 506.595 -0.0274623 -4.24591 0
M  V30 5246 O 507.619 -0.0907067 -3.56084 0
M  V30 5247 O 506.478 0.1122 -5.46385 0
M  V30 5248 H 503.572 0.0525057 -0.825332 0
M  V30 5249 H 506.118 -0.645914 -1.56927 0
M  V30 5250 H 504.89 -1.17679 -3.73185 0
M  V30 5251 H 504.513 0.525407 -3.94113 0
M  V30 5252 N 505.51 1.54411 -0.315457 0
M  V30 5253 C 506.926 1.59556 0.037464 0
M  V30 5254 C 507.126 1.33217 1.5118 0
M  V30 5255 O 506.182 1.11264 2.26664 0
M  V30 5256 C 507.495 2.98372 -0.373477 0
M  V30 5257 C 509.043 3.11324 -0.323452 0
M  V30 5258 C 509.518 4.52472 -0.709433 0
M  V30 5259 N 511.009 4.58437 -0.662524 0
M  V30 5260 C 511.744 5.65751 -0.933474 0
M  V30 5261 N 511.24 6.81039 -1.27114 0
M  V30 5262 N 513.033 5.55489 -0.859573 0
M  V30 5263 H 505.184 1.6979 -1.27614 0
M  V30 5264 H 507.447 0.793732 -0.518356 0
M  V30 5265 H 507.153 3.22618 -1.40037 0
M  V30 5266 H 507.027 3.76264 0.265615 0
M  V30 5267 H 509.414 2.86818 0.694223 0
M  V30 5268 H 509.495 2.35555 -0.997367 0
M  V30 5269 H 509.139 4.7771 -1.72498 0
M  V30 5270 H 509.069 5.26598 -0.0132923 0
M  V30 5271 H 511.56 3.75636 -0.413065 0
M  V30 5272 H 511.873 7.58816 -1.46348 0
M  V30 5273 H 510.218 6.82555 -1.30932 0
M  V30 5274 H 513.409 4.64299 -0.595324 0
M  V30 5275 H 513.582 6.39036 -1.0741 0
M  V30 5276 N 506.988 0.0434614 1.5754 0
M  V30 5277 C 508.234 -0.632971 1.92669 0
M  V30 5278 C 508.567 -1.70947 0.921446 0
M  V30 5279 O 507.842 -1.94426 -0.0537202 0
M  V30 5280 C 508.125 -1.23619 3.38216 0
M  V30 5281 C 507.978 -0.168274 4.49485 0
M  V30 5282 C 509.297 -2.15008 3.84005 0
M  V30 5283 H 506.416 -0.228629 0.700641 0
M  V30 5284 H 509.058 0.103651 1.89717 0
M  V30 5285 H 507.208 -1.864 3.40863 0
M  V30 5286 H 508.88 0.463196 4.58969 0
M  V30 5287 H 507.123 0.504581 4.30855 0
M  V30 5288 H 507.794 -0.630218 5.48391 0
M  V30 5289 H 510.27 -1.62198 3.83185 0
M  V30 5290 H 509.146 -2.54161 4.86511 0
M  V30 5291 H 509.407 -3.04707 3.20322 0
M  V30 5292 N 508.466 -1.55915 -0.229846 0
M  V30 5293 C 509.414 -1.9258 -1.30444 0
M  V30 5294 C 510.408 -0.806839 -1.48951 0
M  V30 5295 O 511.614 -0.991606 -1.50224 0
M  V30 5296 H 507.989 -0.611878 -0.437161 0
M  V30 5297 H 509.96 -2.82264 -0.96797 0
M  V30 5298 C 508.709 -2.25171 -2.6494 0
M  V30 5299 H 508.032 -3.10782 -2.51504 0
M  V30 5300 H 509.472 -2.54716 -3.38963 0
M  V30 5301 C 507.931 -1.07394 -3.19324 0
M  V30 5302 O 508.461 -0.330759 -4.00336 0
M  V30 5303 N 506.667 -0.859984 -2.77584 0
M  V30 5304 H 506.214 -1.46605 -2.11813 0
M  V30 5305 H 506.172 -0.0736671 -3.14314 0
M  V30 5306 N 509.944 0.496216 -1.49584 0
M  V30 5307 C 510.874 1.60576 -1.69521 0
M  V30 5308 C 511.855 1.61169 -0.543933 0
M  V30 5309 O 513.04 1.77834 -0.78031 0
M  V30 5310 C 510.17 2.99038 -1.76616 0
M  V30 5311 C 509.124 3.13312 -2.91581 0
M  V30 5312 C 508.45 4.53172 -2.83794 0
M  V30 5313 C 509.75 2.92886 -4.32452 0
M  V30 5314 H 511.444 1.44146 -2.62416 0
M  V30 5315 H 508.99 0.692024 -1.26282 0
M  V30 5316 H 510.943 3.76564 -1.8915 0
M  V30 5317 H 509.667 3.16568 -0.80324 0
M  V30 5318 H 508.326 2.38213 -2.78658 0
M  V30 5319 H 507.974 4.67585 -1.854 0
M  V30 5320 H 507.674 4.63662 -3.60958 0
M  V30 5321 H 509.198 5.32752 -2.98342 0
M  V30 5322 H 510.612 3.60178 -4.46032 0
M  V30 5323 H 509.009 3.14844 -5.10875 0
M  V30 5324 H 510.079 1.88966 -4.46565 0
M  V30 5325 N 511.423 1.38739 0.74761 0
M  V30 5326 C 512.353 1.39173 1.87492 0
M  V30 5327 C 513.334 0.256794 1.6815 0
M  V30 5328 O 514.519 0.460762 1.88655 0
M  V30 5329 C 511.649 1.22197 3.25093 0
M  V30 5330 C 510.603 2.32957 3.59047 0
M  V30 5331 C 509.929 2.01082 4.95449 0
M  V30 5332 C 511.229 3.75237 3.6331 0
M  V30 5333 H 512.923 2.3351 1.87386 0
M  V30 5334 H 510.469 1.12399 0.900134 0
M  V30 5335 H 512.422 1.21124 4.03617 0
M  V30 5336 H 511.146 0.243241 3.25693 0
M  V30 5337 H 509.805 2.33226 2.82845 0
M  V30 5338 H 509.453 1.01678 4.92616 0
M  V30 5339 H 509.153 2.75267 5.19136 0
M  V30 5340 H 510.677 2.01638 5.76346 0
M  V30 5341 H 512.091 3.76966 4.31937 0
M  V30 5342 H 510.488 4.48677 3.98509 0
M  V30 5343 H 511.558 4.07122 2.634 0
M  V30 5344 N 512.901 -0.976442 1.23707 0
M  V30 5345 C 514.131 -1.75087 1.09673 0
M  V30 5346 C 514.539 -1.85852 -0.354344 0
M  V30 5347 O 513.882 -1.33985 -1.25673 0
M  V30 5348 C 513.944 -3.19272 1.65245 0
M  V30 5349 C 513.608 -3.32004 3.14042 0
M  V30 5350 C 514.605 -3.18017 4.11292 0
M  V30 5351 C 512.29 -3.56525 3.53829 0
M  V30 5352 C 514.284 -3.28363 5.46312 0
M  V30 5353 C 511.971 -3.6651 4.88993 0
M  V30 5354 C 512.969 -3.52439 5.85043 0
M  V30 5355 O 512.657 -3.62063 7.1775 0
M  V30 5356 H 512.389 -0.556164 0.384262 0
M  V30 5357 H 514.943 -1.23518 1.64111 0
M  V30 5358 H 513.173 -3.72107 1.05231 0
M  V30 5359 H 514.862 -3.7849 1.46629 0
M  V30 5360 H 515.628 -2.98966 3.81896 0
M  V30 5361 H 511.507 -3.66547 2.79579 0
M  V30 5362 H 515.051 -3.17297 6.21263 0
M  V30 5363 H 510.948 -3.85072 5.18063 0
M  V30 5364 H 511.716 -3.78833 7.25553 0
M  V30 5365 N 514.379 -1.04941 -1.1758 0
M  V30 5366 C 515.607 -0.778294 -1.91703 0
M  V30 5367 C 516.022 0.665697 -1.76675 0
M  V30 5368 O 515.379 1.45456 -1.10222 0
M  V30 5369 C 515.43 -1.14628 -3.42845 0
M  V30 5370 O 515.151 -2.53359 -3.57409 0
M  V30 5371 C 516.652 -0.900931 -4.34049 0
M  V30 5372 H 513.872 -0.283167 -0.608323 0
M  V30 5373 H 516.416 -1.39942 -1.49119 0
M  V30 5374 H 514.571 -0.569953 -3.83184 0
M  V30 5375 H 514.985 -2.67709 -4.51035 0
M  V30 5376 H 516.459 -1.20817 -5.38616 0
M  V30 5377 H 516.936 0.163966 -4.38894 0
M  V30 5378 H 517.542 -1.46097 -3.99419 0
M  V30 5379 N 515.857 1.33968 -0.830081 0
M  V30 5380 C 517.087 2.01987 -0.434142 0
M  V30 5381 C 517.495 1.62639 0.96671 0
M  V30 5382 O 516.838 0.831151 1.63822 0
M  V30 5383 C 516.9 3.5648 -0.465018 0
M  V30 5384 C 516.564 4.19176 -1.82045 0
M  V30 5385 C 517.561 4.39181 -2.78237 0
M  V30 5386 C 515.246 4.55792 -2.11089 0
M  V30 5387 C 517.24 4.94937 -4.01642 0
M  V30 5388 C 514.927 5.11258 -3.34752 0
M  V30 5389 C 515.925 5.30775 -4.29845 0
M  V30 5390 O 515.613 5.85064 -5.51322 0
M  V30 5391 H 515.345 0.653847 -0.171639 0
M  V30 5392 H 517.899 1.72066 -1.12171 0
M  V30 5393 H 516.129 3.8569 0.279284 0
M  V30 5394 H 517.818 4.05804 -0.0881334 0
M  V30 5395 H 518.584 4.11249 -2.57097 0
M  V30 5396 H 514.463 4.39901 -1.3787 0
M  V30 5397 H 518.007 5.10086 -4.75876 0
M  V30 5398 H 513.904 5.38619 -3.55753 0
M  V30 5399 H 514.672 6.03489 -5.5294 0
M  V30 5400 N 517.335 0.585699 1.46312 0
M  V30 5401 C 518.583 0.072278 2.01971 0
M  V30 5402 C 518.904 -1.29345 1.45928 0
M  V30 5403 O 518.174 -1.84973 0.645109 0
M  V30 5404 H 516.754 0.023729 0.746623 0
M  V30 5405 H 519.416 0.762155 1.7938 0
M  V30 5406 H 518.512 0.00552767 3.121 0
M  V30 5407 N 518.813 -1.54241 0.323641 0
M  V30 5408 C 520.059 -2.00867 -0.279323 0
M  V30 5409 C 520.392 -1.21146 -1.5178 0
M  V30 5410 O 519.667 -0.29378 -1.92269 0
M  V30 5411 C 519.95 -3.54837 -0.613387 0
M  V30 5412 C 519.803 -4.45284 0.635803 0
M  V30 5413 C 521.122 -4.16186 -1.43099 0
M  V30 5414 H 518.241 -0.730177 -0.100049 0
M  V30 5415 H 520.883 -1.84829 0.440235 0
M  V30 5416 H 519.033 -3.68634 -1.22641 0
M  V30 5417 H 520.705 -4.43357 1.27406 0
M  V30 5418 H 518.948 -4.14956 1.26466 0
M  V30 5419 H 519.619 -5.5084 0.357597 0
M  V30 5420 H 522.095 -4.05964 -0.912814 0
M  V30 5421 H 520.971 -5.24031 -1.6335 0
M  V30 5422 H 521.232 -3.69516 -2.42715 0
M  V30 5423 N 520.291 -0.0518155 -1.57515 0
M  V30 5424 C 521.516 0.634896 -1.97443 0
M  V30 5425 C 521.941 1.63546 -0.929207 0
M  V30 5426 O 521.299 1.80981 0.107484 0
M  V30 5427 C 521.347 1.29765 -3.36442 0
M  V30 5428 O 520.451 2.41333 -3.34413 0
M  V30 5429 H 519.792 0.164994 -0.643174 0
M  V30 5430 H 522.322 -0.120407 -2.04245 0
M  V30 5431 H 522.332 1.64918 -3.73184 0
M  V30 5432 H 521.007 0.564361 -4.12053 0
M  V30 5433 H 519.584 2.08122 -3.09418 0
M  V30 5434 N 521.769 1.56035 0.221574 0
M  V30 5435 C 523.185 1.49026 0.571271 0
M  V30 5436 C 523.385 0.746912 1.87146 0
M  V30 5437 O 522.441 0.286566 2.50869 0
M  V30 5438 C 523.754 2.93579 0.650522 0
M  V30 5439 C 525.302 3.04099 0.741151 0
M  V30 5440 C 525.777 4.5001 0.851747 0
M  V30 5441 N 527.268 4.54053 0.915968 0
M  V30 5442 C 528.003 5.64232 1.02125 0
M  V30 5443 N 527.499 6.84164 1.09049 0
M  V30 5444 N 529.292 5.52084 1.05639 0
M  V30 5445 H 521.443 2.02791 -0.63162 0
M  V30 5446 H 523.706 0.921736 -0.221602 0
M  V30 5447 H 523.412 3.50912 -0.235253 0
M  V30 5448 H 523.286 3.45476 1.51413 0
M  V30 5449 H 525.673 2.4683 1.61737 0
M  V30 5450 H 525.754 2.55371 -0.148128 0
M  V30 5451 H 525.398 5.07896 -0.0200117 0
M  V30 5452 H 525.328 4.96444 1.75644 0
M  V30 5453 H 527.819 3.67683 0.872782 0
M  V30 5454 H 528.132 7.63883 1.1706 0
M  V30 5455 H 526.477 6.86875 1.05962 0
M  V30 5456 H 529.668 4.57317 0.998953 0
M  V30 5457 H 529.841 6.37983 1.13498 0
M  V30 5458 N 523.247 -0.488276 1.49845 0
M  V30 5459 C 524.495 -1.23911 1.59657 0
M  V30 5460 C 524.816 -1.92816 0.291005 0
M  V30 5461 O 524.086 -1.83328 -0.690485 0
M  V30 5462 H 522.666 -0.460357 0.588286 0
M  V30 5463 H 525.328 -0.564794 1.86537 0
M  V30 5464 H 524.424 -1.99625 2.39909 0
M  V30 5465 N 524.725 -1.39134 -0.740242 0
M  V30 5466 C 526.141 -1.20623 -1.0451 0
M  V30 5467 C 526.341 -0.0641651 -2.01398 0
M  V30 5468 O 525.397 0.585843 -2.4561 0
M  V30 5469 C 526.71 -2.53815 -1.6124 0
M  V30 5470 C 528.258 -2.60615 -1.73346 0
M  V30 5471 C 528.733 -3.94015 -2.33486 0
M  V30 5472 N 530.224 -3.95627 -2.40902 0
M  V30 5473 C 530.959 -4.95616 -2.88361 0
M  V30 5474 N 530.455 -6.06003 -3.35756 0
M  V30 5475 N 532.248 -4.82998 -2.87523 0
M  V30 5476 H 524.399 -2.12176 -0.0975576 0
M  V30 5477 H 526.662 -0.942066 -0.105904 0
M  V30 5478 H 526.368 -3.37911 -0.975144 0
M  V30 5479 H 526.242 -2.73162 -2.6012 0
M  V30 5480 H 528.629 -1.76906 -2.36195 0
M  V30 5481 H 528.71 -2.45123 -0.731336 0
M  V30 5482 H 528.354 -4.78153 -1.71267 0
M  V30 5483 H 528.284 -4.06825 -3.34366 0
M  V30 5484 H 530.775 -3.15903 -2.07398 0
M  V30 5485 H 531.088 -6.78215 -3.70464 0
M  V30 5486 H 529.433 -6.09604 -3.33778 0
M  V30 5487 H 532.624 -3.95866 -2.49816 0
M  V30 5488 H 532.797 -5.61072 -3.24196 0
M  V30 5489 N 526.204 0.969867 -1.24223 0
M  V30 5490 C 527.134 2.08191 -1.05729 0
M  V30 5491 C 528.115 1.70075 0.0290765 0
M  V30 5492 O 529.3 1.93712 -0.137583 0
M  V30 5493 C 526.43 3.40991 -0.658995 0
M  V30 5494 C 525.384 3.93054 -1.69389 0
M  V30 5495 C 524.71 5.22171 -1.15072 0
M  V30 5496 C 526.01 4.21137 -3.08935 0
M  V30 5497 H 527.704 2.23921 -1.98746 0
M  V30 5498 H 525.25 1.07602 -0.956967 0
M  V30 5499 H 527.203 4.18221 -0.51662 0
M  V30 5500 H 525.927 3.25155 0.30686 0
M  V30 5501 H 524.586 3.17977 -1.82444 0
M  V30 5502 H 524.234 5.02694 -0.175539 0
M  V30 5503 H 523.934 5.57973 -1.84229 0
M  V30 5504 H 525.458 6.02013 -1.02042 0
M  V30 5505 H 526.872 4.8908 -2.99121 0
M  V30 5506 H 525.269 4.68163 -3.75425 0
M  V30 5507 H 526.339 3.27996 -3.57137 0
M  V30 5508 N 527.682 1.05563 1.17022 0
M  V30 5509 C 528.959 0.68165 1.83338 0
M  V30 5510 C 529.339 -0.837665 1.93769 0
M  V30 5511 O 528.687 -1.74507 1.47511 0
M  V30 5512 C 528.897 1.375 3.20772 0
M  V30 5513 C 530.245 1.51545 3.96635 0
M  V30 5514 O 531.269 1.33431 3.30264 0
M  V30 5515 O 530.128 1.812 5.15586 0
M  V30 5516 H 527.222 0.240412 0.791285 0
M  V30 5517 H 529.768 1.15545 1.24288 0
M  V30 5518 H 528.54 2.41135 3.08171 0
M  V30 5519 H 528.163 0.890798 3.87493 0
M  V30 5520 N 529.16 -1.33526 0.837174 0
M  V30 5521 C 530.409 -1.97098 0.428387 0
M  V30 5522 C 530.722 -1.67062 -1.01734 0
M  V30 5523 O 531.928 -2.24235 -1.53072 0
M  V30 5524 C 530.384 -3.52725 0.715075 0
M  V30 5525 C 529.992 -3.9164 2.17537 0
M  V30 5526 C 531.736 -4.22857 0.373154 0
M  V30 5527 C 529.643 -5.40237 2.40619 0
M  V30 5528 H 528.573 -0.737589 0.156455 0
M  V30 5529 H 531.224 -1.52169 1.02552 0
M  V30 5530 H 529.606 -3.95971 0.0475904 0
M  V30 5531 H 530.78 -3.59456 2.88319 0
M  V30 5532 H 529.095 -3.34485 2.4801 0
M  V30 5533 H 531.692 -5.32133 0.523264 0
M  V30 5534 H 532.035 -4.10647 -0.683708 0
M  V30 5535 H 532.568 -3.85135 0.995801 0
M  V30 5536 H 529.307 -5.57449 3.44864 0
M  V30 5537 H 528.827 -5.73887 1.74396 0
M  V30 5538 H 530.506 -6.07102 2.23688 0
M  V30 5539 N 530.638 -0.59345 -1.46 0
M  V30 5540 C 531.588 0.154751 -2.27474 0
M  V30 5541 C 532.572 0.851849 -1.365 0
M  V30 5542 O 533.764 0.744171 -1.60596 0
M  V30 5543 C 530.893 1.16079 -3.2308 0
M  V30 5544 C 529.979 0.465256 -4.2154 0
M  V30 5545 N 530.37 -0.485197 -5.03467 0
M  V30 5546 C 528.668 0.714634 -4.40237 0
M  V30 5547 C 529.369 -0.892709 -5.74809 0
M  V30 5548 N 528.345 -0.239511 -5.43072 0
M  V30 5549 H 532.147 -0.57546 -2.88211 0
M  V30 5550 H 529.661 -0.416046 -1.5698 0
M  V30 5551 H 531.658 1.71108 -3.80168 0
M  V30 5552 H 530.318 1.89171 -2.63903 0
M  V30 5553 H 531.329 -0.861258 -5.10689 0
M  V30 5554 H 528.006 1.43131 -3.92199 0
M  V30 5555 H 529.396 -1.67581 -6.50666 0
M  V30 5556 N 532.116 1.54067 -0.331816 0
M  V30 5557 C 533.532 1.59587 0.0205388 0
M  V30 5558 C 533.732 1.34813 1.49759 0
M  V30 5559 O 532.788 1.13661 2.25471 0
M  V30 5560 C 534.101 2.97959 -0.405103 0
M  V30 5561 C 535.649 3.10964 -0.356454 0
M  V30 5562 C 536.124 4.51694 -0.757384 0
M  V30 5563 N 537.615 4.57709 -0.71111 0
M  V30 5564 C 538.35 5.64729 -0.993427 0
M  V30 5565 N 537.846 6.79652 -1.3433 0
M  V30 5566 N 539.639 5.54546 -0.918442 0
M  V30 5567 H 531.79 1.68426 -1.29407 0
M  V30 5568 H 534.053 0.78819 -0.526745 0
M  V30 5569 H 533.759 3.21115 -1.43451 0
M  V30 5570 H 533.633 3.76524 0.225692 0
M  V30 5571 H 536.02 2.87538 0.663763 0
M  V30 5572 H 536.101 2.34484 -1.02229 0
M  V30 5573 H 535.745 4.75853 -1.77555 0
M  V30 5574 H 535.675 5.26555 -0.0691444 0
M  V30 5575 H 538.166 3.75176 -0.452883 0
M  V30 5576 H 538.479 7.57221 -1.54388 0
M  V30 5577 H 536.824 6.81128 -1.38164 0
M  V30 5578 H 540.015 4.63641 -0.644536 0
M  V30 5579 H 540.188 6.37861 -1.14181 0
M  V30 5580 N 533.594 0.0601682 1.57485 0
M  V30 5581 C 534.841 -0.611594 1.93043 0
M  V30 5582 C 535.169 -1.70317 0.939274 0
M  V30 5583 O 534.424 -1.95644 -0.046996 0
M  V30 5584 C 534.723 -1.23831 3.35262 0
M  V30 5585 C 534.389 -0.274037 4.50066 0
M  V30 5586 C 533.051 -0.00872394 4.81199 0
M  V30 5587 C 535.403 0.386308 5.19766 0
M  V30 5588 C 532.731 0.924218 5.79375 0
M  V30 5589 C 535.083 1.3075 6.1894 0
M  V30 5590 C 533.747 1.58139 6.48497 0
M  V30 5591 H 533.017 -0.223798 0.706396 0
M  V30 5592 H 535.664 0.128566 1.91068 0
M  V30 5593 H 533.969 -2.05394 3.33647 0
M  V30 5594 H 535.666 -1.76517 3.60059 0
M  V30 5595 H 532.256 -0.491008 4.25778 0
M  V30 5596 H 536.44 0.194436 4.95919 0
M  V30 5597 H 531.696 1.1438 6.00606 0
M  V30 5598 H 535.87 1.82519 6.72056 0
M  V30 5599 H 533.497 2.30593 7.24383 0
M  V30 5600 N 535.072 -1.5615 -0.213296 0
M  V30 5601 C 536.318 -1.79812 -0.937849 0
M  V30 5602 C 536.651 -0.631201 -1.83656 0
M  V30 5603 O 535.926 0.369165 -1.90964 0
M  V30 5604 C 536.209 -3.13613 -1.76972 0
M  V30 5605 C 536.062 -4.40766 -0.89695 0
M  V30 5606 C 537.381 -3.43931 -2.7459 0
M  V30 5607 H 534.5 -0.654138 -0.339518 0
M  V30 5608 H 537.142 -1.88877 -0.20623 0
M  V30 5609 H 535.292 -3.06015 -2.39347 0
M  V30 5610 H 536.964 -4.60392 -0.289306 0
M  V30 5611 H 535.207 -4.33326 -0.202756 0
M  V30 5612 H 535.878 -5.30843 -1.51358 0
M  V30 5613 H 538.354 -3.5171 -2.22349 0
M  V30 5614 H 537.23 -4.38706 -3.29891 0
M  V30 5615 H 537.491 -2.6651 -3.52739 0
M  V30 5616 N 536.55 0.480323 -1.50102 0
M  V30 5617 C 537.827 1.24159 -1.51142 0
M  V30 5618 C 538.207 2.09605 -0.250818 0
M  V30 5619 O 537.555 2.15274 0.766118 0
M  V30 5620 C 537.765 2.08057 -2.80202 0
M  V30 5621 C 539.113 2.66556 -3.30504 0
M  V30 5622 O 540.137 2.18308 -2.81461 0
M  V30 5623 O 538.996 3.54442 -4.15973 0
M  V30 5624 H 536.09 0.562928 -0.605839 0
M  V30 5625 H 538.636 0.492899 -1.62384 0
M  V30 5626 H 537.408 1.45032 -3.6343 0
M  V30 5627 H 537.031 2.90079 -2.71919 0
M  V30 5628 N 538.028 1.39524 0.732853 0
M  V30 5629 C 538.991 1.38189 1.82857 0
M  V30 5630 C 539.991 0.278624 1.58368 0
M  V30 5631 O 541.181 0.536639 1.65728 0
M  V30 5632 C 538.313 1.15661 3.2068 0
M  V30 5633 H 539.506 2.35692 1.85444 0
M  V30 5634 H 537.059 1.2512 0.936728 0
M  V30 5635 H 537.794 0.188482 3.23752 0
M  V30 5636 H 537.579 1.95559 3.39852 0
M  V30 5637 H 539.069 1.17472 4.00737 0
M  V30 5638 N 539.506 -0.963266 1.24736 0
M  V30 5639 C 540.469 -2.04013 1.04457 0
M  V30 5640 C 541.469 -1.608 0.000335555 0
M  V30 5641 O 542.659 -1.72515 0.241719 0
M  V30 5642 C 539.791 -3.35858 0.584162 0
M  V30 5643 H 540.984 -2.23436 2.00041 0
M  V30 5644 H 538.537 -1.13914 1.07021 0
M  V30 5645 H 539.272 -3.22128 -0.374673 0
M  V30 5646 H 539.057 -3.68568 1.3379 0
M  V30 5647 H 540.547 -4.1502 0.463451 0
M  V30 5648 N 540.985 -1.06182 -1.16461 0
M  V30 5649 C 542.21 -0.798599 -1.91408 0
M  V30 5650 C 542.635 0.640987 -1.76842 0
M  V30 5651 O 541.993 1.44652 -1.09296 0
M  V30 5652 C 542.041 -1.19665 -3.40165 0
M  V30 5653 O 541.145 -0.334768 -4.11039 0
M  V30 5654 H 540.486 -0.291961 -0.596368 0
M  V30 5655 H 543.016 -1.41732 -1.47557 0
M  V30 5656 H 543.026 -1.16772 -3.90933 0
M  V30 5657 H 541.701 -2.24526 -3.50087 0
M  V30 5658 H 540.278 -0.425168 -3.70468 0
M  V30 5659 N 542.463 1.3308 -0.844243 0
M  V30 5660 C 543.691 2.01808 -0.456203 0
M  V30 5661 C 544.106 1.63498 0.944131 0
M  V30 5662 O 543.463 0.85102 1.61443 0
M  V30 5663 C 543.514 3.56922 -0.573513 0
M  V30 5664 O 543.235 3.93851 -1.91868 0
M  V30 5665 C 544.736 4.42922 -0.183125 0
M  V30 5666 H 541.956 0.646273 -0.180477 0
M  V30 5667 H 544.5 1.69891 -1.1383 0
M  V30 5668 H 542.655 3.87352 0.0607367 0
M  V30 5669 H 543.069 4.88564 -1.90802 0
M  V30 5670 H 544.543 5.51093 -0.316241 0
M  V30 5671 H 545.02 4.30386 0.875477 0
M  V30 5672 H 545.626 4.1786 -0.792027 0
M  V30 5673 N 543.941 0.601185 1.45683 0
M  V30 5674 C 544.888 -0.121396 2.30481 0
M  V30 5675 C 545.858 -0.866232 1.41724 0
M  V30 5676 O 547.043 -0.85324 1.70659 0
M  V30 5677 C 544.183 -1.11704 3.26521 0
M  V30 5678 C 543.296 -0.373741 4.3038 0
M  V30 5679 C 542.431 -1.35854 5.13534 0
M  V30 5680 C 541.47 -0.602689 6.09126 0
M  V30 5681 N 540.607 -1.53645 6.85082 0
M  V30 5682 H 545.447 0.607732 2.91737 0
M  V30 5683 H 542.984 0.311502 1.43764 0
M  V30 5684 H 544.942 -1.70735 3.80664 0
M  V30 5685 H 543.572 -1.81366 2.67032 0
M  V30 5686 H 542.624 0.331962 3.78949 0
M  V30 5687 H 543.936 0.2163 4.98331 0
M  V30 5688 H 543.09 -2.02111 5.72046 0
M  V30 5689 H 541.829 -1.98251 4.45587 0
M  V30 5690 H 540.834 0.0735482 5.49751 0
M  V30 5691 H 542.059 0.0161467 6.79098 0
M  V30 5692 H 540.005 -2.14819 6.1983 0
M  V30 5693 H 539.922 -0.999688 7.49361 0
M  V30 5694 H 541.19 -2.1888 7.48139 0
M  V30 5695 N 545.419 -1.53889 0.339982 0
M  V30 5696 C 546.382 -2.23547 -0.50592 0
M  V30 5697 C 547.382 -1.23445 -1.03044 0
M  V30 5698 O 548.572 -1.47909 -0.920253 0
M  V30 5699 C 545.704 -2.95234 -1.7044 0
M  V30 5700 H 546.897 -2.99722 0.103247 0
M  V30 5701 H 544.45 -1.56033 0.0912804 0
M  V30 5702 H 545.185 -2.23236 -2.35236 0
M  V30 5703 H 544.97 -3.68654 -1.33553 0
M  V30 5704 H 546.46 -3.48258 -2.30447 0
M  V30 5705 N 546.897 -0.0685191 -1.57451 0
M  V30 5706 C 547.86 0.885173 -2.11417 0
M  V30 5707 C 548.86 1.22853 -1.03748 0
M  V30 5708 O 550.05 1.16235 -1.2975 0
M  V30 5709 C 547.182 2.18964 -2.61281 0
M  V30 5710 H 548.375 0.417034 -2.96986 0
M  V30 5711 H 545.928 0.18014 -1.55258 0
M  V30 5712 H 546.663 2.70321 -1.79156 0
M  V30 5713 H 546.448 1.9534 -3.39977 0
M  V30 5714 H 547.938 2.87242 -3.0312 0
M  V30 5715 N 548.375 1.56261 0.205012 0
M  V30 5716 C 549.322 1.93754 1.25411 0
M  V30 5717 C 550.292 0.796826 1.45739 0
M  V30 5718 O 551.477 1.05414 1.59036 0
M  V30 5719 C 548.617 2.27383 2.59598 0
M  V30 5720 C 547.73 3.5447 2.46931 0
M  V30 5721 C 546.865 3.77468 3.73753 0
M  V30 5722 C 545.904 4.98014 3.55877 0
M  V30 5723 N 545.041 5.17316 4.74688 0
M  V30 5724 H 549.881 2.83203 0.92737 0
M  V30 5725 H 547.418 1.40158 0.446574 0
M  V30 5726 H 549.376 2.44895 3.37761 0
M  V30 5727 H 548.006 1.41088 2.90335 0
M  V30 5728 H 547.058 3.45061 1.60116 0
M  V30 5729 H 548.37 4.42789 2.29651 0
M  V30 5730 H 547.524 3.95165 4.60358 0
M  V30 5731 H 546.263 2.87461 3.93976 0
M  V30 5732 H 545.268 4.80249 2.67657 0
M  V30 5733 H 546.493 5.8952 3.37109 0
M  V30 5734 H 544.439 4.30255 4.95194 0
M  V30 5735 H 544.356 5.99796 4.60197 0
M  V30 5736 H 545.624 5.39463 5.62672 0
M  V30 5737 N 549.853 -0.472356 1.50355 0
M  V30 5738 C 550.783 -1.57859 1.72055 0
M  V30 5739 C 551.764 -1.60283 0.569505 0
M  V30 5740 O 552.949 -1.7657 0.808503 0
M  V30 5741 C 550.079 -2.96191 1.81351 0
M  V30 5742 C 549.033 -3.08633 2.96529 0
M  V30 5743 C 548.359 -4.486 2.90968 0
M  V30 5744 C 549.659 -2.85969 4.37057 0
M  V30 5745 H 551.353 -1.39953 2.64676 0
M  V30 5746 H 548.899 -0.671846 1.27367 0
M  V30 5747 H 550.852 -3.73507 1.95117 0
M  V30 5748 H 549.576 -3.15251 0.853502 0
M  V30 5749 H 548.235 -2.33749 2.82413 0
M  V30 5750 H 547.883 -4.64577 1.92815 0
M  V30 5751 H 547.583 -4.57861 3.68289 0
M  V30 5752 H 549.107 -5.27938 3.0678 0
M  V30 5753 H 550.521 -3.53036 4.51706 0
M  V30 5754 H 548.918 -3.06677 5.15819 0
M  V30 5755 H 549.988 -1.81838 4.49514 0
M  V30 5756 N 551.331 -1.39911 -0.725443 0
M  V30 5757 C 552.578 -1.37654 -1.48518 0
M  V30 5758 C 552.906 0.0243982 -1.94485 0
M  V30 5759 O 552.161 1.00708 -1.67799 0
M  V30 5760 C 552.46 -2.30368 -2.7325 0
M  V30 5761 C 552.126 -3.77817 -2.461 0
M  V30 5762 C 550.788 -4.17991 -2.38405 0
M  V30 5763 C 553.14 -4.71036 -2.23103 0
M  V30 5764 C 550.468 -5.49433 -2.05768 0
M  V30 5765 C 552.82 -6.02766 -1.9198 0
M  V30 5766 C 551.484 -6.41993 -1.82761 0
M  V30 5767 H 550.754 -0.503713 -0.543465 0
M  V30 5768 H 553.401 -1.7249 -0.831822 0
M  V30 5769 H 551.706 -1.88683 -3.43375 0
M  V30 5770 H 553.403 -2.2591 -3.31309 0
M  V30 5771 H 549.993 -3.45982 -2.52972 0
M  V30 5772 H 554.177 -4.40823 -2.2801 0
M  V30 5773 H 549.433 -5.78738 -1.9716 0
M  V30 5774 H 553.607 -6.74519 -1.73197 0
M  V30 5775 H 551.234 -7.43761 -1.57237 0
M  V30 5776 N 552.809 0.956637 -1.25245 0
M  V30 5777 C 554.057 1.69764 -1.09657 0
M  V30 5778 C 554.378 1.91583 0.363464 0
M  V30 5779 O 553.648 1.50149 1.25825 0
M  V30 5780 H 552.228 0.629097 -0.402798 0
M  V30 5781 H 554.89 1.15026 -1.57337 0
M  V30 5782 H 553.986 2.67769 -1.60331 0
M  V30 5783 N 554.287 1.06798 1.15896 0
M  V30 5784 C 555.217 0.704677 2.22613 0
M  V30 5785 C 556.198 -0.305252 1.67339 0
M  V30 5786 O 557.383 -0.179247 1.93371 0
M  V30 5787 C 554.513 0.0957325 3.47168 0
M  V30 5788 C 553.467 1.0322 4.15367 0
M  V30 5789 C 552.793 0.286293 5.33933 0
M  V30 5790 C 554.093 2.36341 4.65768 0
M  V30 5791 H 555.787 1.59688 2.53259 0
M  V30 5792 H 553.333 0.769257 1.21731 0
M  V30 5793 H 555.286 -0.170333 4.21056 0
M  V30 5794 H 554.01 -0.831516 3.15838 0
M  V30 5795 H 552.669 1.28309 3.43413 0
M  V30 5796 H 552.317 -0.644237 4.98857 0
M  V30 5797 H 552.017 0.910436 5.80504 0
M  V30 5798 H 553.541 0.0278938 6.10594 0
M  V30 5799 H 554.955 2.1561 5.31211 0
M  V30 5800 H 553.352 2.94299 5.2298 0
M  V30 5801 H 554.422 2.99047 3.81705 0
M  V30 5802 N 555.766 -1.3263 0.851289 0
M  V30 5803 C 557.013 -1.97368 0.453023 0
M  V30 5804 C 557.341 -1.67384 -0.990596 0
M  V30 5805 O 556.596 -0.952665 -1.70947 0
M  V30 5806 C 556.895 -3.51713 0.635015 0
M  V30 5807 C 556.561 -4.01676 2.04859 0
M  V30 5808 C 555.223 -4.15031 2.43522 0
M  V30 5809 C 557.575 -4.28206 2.97135 0
M  V30 5810 C 554.903 -4.52257 3.73739 0
M  V30 5811 C 557.255 -4.66889 4.26846 0
M  V30 5812 C 555.919 -4.7845 4.65448 0
M  V30 5813 H 555.189 -0.722219 0.165773 0
M  V30 5814 H 557.836 -1.58092 1.0807 0
M  V30 5815 H 556.141 -3.91726 -0.0759081 0
M  V30 5816 H 557.838 -3.99823 0.306964 0
M  V30 5817 H 554.428 -3.91764 1.73836 0
M  V30 5818 H 558.612 -4.174 2.68498 0
M  V30 5819 H 553.868 -4.59402 4.03435 0
M  V30 5820 H 558.042 -4.86372 4.98413 0
M  V30 5821 H 555.669 -5.07052 5.66395 0
M  V30 5822 N 557.244 -0.608902 -1.45362 0
M  V30 5823 C 558.655 -0.189511 -1.85736 0
M  V30 5824 C 559.006 1.2539 -1.50903 0
M  V30 5825 O 558.131 1.95094 -0.936347 0
M  V30 5826 C 558.726 -0.33716 -3.37118 0
M  V30 5827 C 557.285 0.0275487 -3.7639 0
M  V30 5828 C 556.432 -0.660983 -2.69307 0
M  V30 5829 H 559.383 -0.815499 -1.36144 0
M  V30 5830 H 559.404 0.430257 -3.7806 0
M  V30 5831 H 558.916 -1.38779 -3.62439 0
M  V30 5832 H 557.017 1.0773 -3.56686 0
M  V30 5833 H 557.13 -0.367018 -4.77692 0
M  V30 5834 H 555.494 -0.0984958 -2.54509 0
M  V30 5835 H 556.277 -1.71377 -2.97464 0
M  V30 5836 N 558.722 1.53707 -0.348139 0
M  V30 5837 C 560.138 1.596 0.00361134 0
M  V30 5838 C 560.338 1.36394 1.4832 0
M  V30 5839 O 559.394 1.16046 2.24253 0
M  V30 5840 C 560.707 2.97512 -0.436682 0
M  V30 5841 C 562.255 3.10568 -0.389416 0
M  V30 5842 C 562.73 4.50866 -0.805249 0
M  V30 5843 N 564.221 4.56929 -0.759616 0
M  V30 5844 C 564.956 5.63643 -1.05327 0
M  V30 5845 N 564.452 6.78189 -1.41531 0
M  V30 5846 N 566.245 5.5354 -0.977207 0
M  V30 5847 H 558.396 1.67044 -1.31187 0
M  V30 5848 H 560.659 0.782559 -0.535075 0
M  V30 5849 H 560.365 3.19575 -1.46849 0
M  V30 5850 H 560.239 3.76742 0.185744 0
M  V30 5851 H 562.626 2.88226 0.633228 0
M  V30 5852 H 562.707 2.33387 -1.04711 0
M  V30 5853 H 562.351 4.73943 -1.82593 0
M  V30 5854 H 562.281 5.26452 -0.124989 0
M  V30 5855 H 564.772 3.74675 -0.49265 0
M  V30 5856 H 565.085 7.55541 -1.62411 0
M  V30 5857 H 563.43 6.79624 -1.45381 0
M  V30 5858 H 566.621 4.62932 -0.693675 0
M  V30 5859 H 566.794 6.36614 -1.2094 0
M  V30 5860 N 560.2 0.0768682 1.57412 0
M  V30 5861 C 561.147 -0.888577 2.13009 0
M  V30 5862 C 562.117 -1.29198 1.0439 0
M  V30 5863 O 563.302 -1.37694 1.3208 0
M  V30 5864 C 560.442 -2.14899 2.70023 0
M  V30 5865 C 559.555 -1.79777 3.92816 0
M  V30 5866 C 558.69 -3.00467 4.38056 0
M  V30 5867 C 557.729 -2.61385 5.53484 0
M  V30 5868 N 556.866 -3.74851 5.93659 0
M  V30 5869 H 561.706 -0.407593 2.95199 0
M  V30 5870 H 559.243 -0.189534 1.45874 0
M  V30 5871 H 561.201 -2.88688 3.0119 0
M  V30 5872 H 559.831 -2.60529 1.9059 0
M  V30 5873 H 558.883 -0.960301 3.68079 0
M  V30 5874 H 560.195 -1.47027 4.76639 0
M  V30 5875 H 559.349 -3.82529 4.7091 0
M  V30 5876 H 558.088 -3.36413 3.53097 0
M  V30 5877 H 557.093 -1.77746 5.20275 0
M  V30 5878 H 558.318 -2.26603 6.40178 0
M  V30 5879 H 556.264 -4.1055 5.11649 0
M  V30 5880 H 556.181 -3.45887 6.72234 0
M  V30 5881 H 557.449 -4.57477 6.31138 0
M  V30 5882 N 561.678 -1.56367 -0.196722 0
M  V30 5883 C 562.926 -1.80172 -0.915554 0
M  V30 5884 C 563.247 -0.649649 -1.8386 0
M  V30 5885 O 562.517 0.332111 -1.93064 0
M  V30 5886 H 561.097 -0.664592 -0.341067 0
M  V30 5887 H 563.759 -1.93844 -0.202622 0
M  V30 5888 H 562.855 -2.7327 -1.50764 0
M  V30 5889 N 563.156 0.464375 -1.50603 0
M  V30 5890 C 564.384 1.23907 -1.65695 0
M  V30 5891 C 564.799 1.85658 -0.343027 0
M  V30 5892 O 564.156 1.69529 0.675739 0
M  V30 5893 C 564.207 2.3429 -2.75301 0
M  V30 5894 O 563.928 1.7507 -4.01599 0
M  V30 5895 C 565.429 3.25051 -3.01424 0
M  V30 5896 H 562.649 0.374485 -0.556778 0
M  V30 5897 H 565.193 0.55353 -1.96866 0
M  V30 5898 H 563.348 2.98607 -2.46804 0
M  V30 5899 H 563.762 2.47812 -4.62266 0
M  V30 5900 H 565.236 3.98699 -3.81763 0
M  V30 5901 H 565.713 3.84227 -2.12758 0
M  V30 5902 H 566.319 2.66463 -3.31477 0
M  V30 5903 N 564.634 1.40294 0.718013 0
M  V30 5904 C 565.883 1.37746 1.4734 0
M  V30 5905 C 566.196 -0.0180754 1.95592 0
M  V30 5906 O 567.402 -0.166166 2.70991 0
M  V30 5907 C 565.858 2.4208 2.66318 0
M  V30 5908 C 565.466 3.87432 2.24945 0
M  V30 5909 C 567.21 2.48635 3.44065 0
M  V30 5910 C 565.117 4.83368 3.40748 0
M  V30 5911 H 564.047 0.512165 0.553356 0
M  V30 5912 H 566.698 1.66019 0.781661 0
M  V30 5913 H 565.08 2.06903 3.3765 0
M  V30 5914 H 566.254 4.3174 1.6105 0
M  V30 5915 H 564.569 3.8433 1.60249 0
M  V30 5916 H 567.166 3.17499 4.30231 0
M  V30 5917 H 567.509 1.51611 3.87711 0
M  V30 5918 H 568.042 2.82791 2.79775 0
M  V30 5919 H 564.781 5.81716 3.02136 0
M  V30 5920 H 564.301 4.43726 4.03568 0
M  V30 5921 H 565.98 5.03074 4.06848 0
M  V30 5922 N 566.112 -0.949982 1.2575 0
M  V30 5923 C 567.075 -2.02894 1.06615 0
M  V30 5924 C 568.075 -1.60791 0.0173905 0
M  V30 5925 O 569.265 -1.72249 0.260003 0
M  V30 5926 C 566.397 -3.35219 0.619751 0
M  V30 5927 H 567.59 -2.21302 2.02399 0
M  V30 5928 H 565.143 -1.12772 1.08223 0
M  V30 5929 H 565.878 -3.22508 -0.340486 0
M  V30 5930 H 565.663 -3.67129 1.37692 0
M  V30 5931 H 567.153 -4.14505 0.507443 0
M  V30 5932 N 567.59 -1.07411 -1.15328 0
M  V30 5933 C 568.836 -0.798831 -1.86404 0
M  V30 5934 C 569.169 0.673433 -1.8215 0
M  V30 5935 O 568.444 1.49428 -1.24505 0
M  V30 5936 C 568.727 -1.30846 -3.35487 0
M  V30 5937 C 568.58 -2.84532 -3.4837 0
M  V30 5938 C 569.899 -0.925486 -4.30259 0
M  V30 5939 H 567.018 -0.291659 -0.676834 0
M  V30 5940 H 569.66 -1.332 -1.35491 0
M  V30 5941 H 567.81 -0.854916 -3.78977 0
M  V30 5942 H 569.482 -3.3818 -3.13739 0
M  V30 5943 H 567.725 -3.22699 -2.8991 0
M  V30 5944 H 568.396 -3.15259 -4.53118 0
M  V30 5945 H 570.872 -1.3163 -3.94731 0
M  V30 5946 H 569.748 -1.3094 -5.33053 0
M  V30 5947 H 570.009 0.168525 -4.41779 0
M  V30 5948 N 569.068 1.32177 -0.85831 0
M  V30 5949 C 570.316 1.96735 -0.462568 0
M  V30 5950 C 570.637 1.6824 0.985911 0
M  V30 5951 O 569.907 0.991564 1.68952 0
M  V30 5952 H 568.487 0.727849 -0.168064 0
M  V30 5953 H 571.149 1.61195 -1.09554 0
M  V30 5954 H 570.245 3.06068 -0.610647 0
M  V30 5955 N 570.547 0.616602 1.45037 0
M  V30 5956 C 571.772 0.120192 2.07051 0
M  V30 5957 C 572.197 -1.19008 1.45666 0
M  V30 5958 O 571.555 -1.7267 0.552692 0
M  V30 5959 C 571.603 0.00354901 3.606 0
M  V30 5960 O 570.707 -1.04431 3.98958 0
M  V30 5961 H 570.048 0.0781599 0.659384 0
M  V30 5962 H 572.578 0.849167 1.86146 0
M  V30 5963 H 572.588 -0.191754 4.07549 0
M  V30 5964 H 571.263 0.960239 4.04663 0
M  V30 5965 H 569.84 -0.824749 3.63665 0
M  V30 5966 N 572.025 -1.5352 0.356285 0
M  V30 5967 C 573.302 -1.93405 -0.292223 0
M  V30 5968 C 573.682 -1.28901 -1.67176 0
M  V30 5969 O 573.03 -0.444632 -2.24132 0
M  V30 5970 C 573.24 -3.47223 -0.35175 0
M  V30 5971 C 574.588 -4.20389 -0.596534 0
M  V30 5972 O 575.612 -3.53554 -0.433344 0
M  V30 5973 O 574.471 -5.3881 -0.913589 0
M  V30 5974 H 571.565 -0.808666 -0.173172 0
M  V30 5975 H 574.111 -1.64713 0.408391 0
M  V30 5976 H 572.883 -3.86423 0.615841 0
M  V30 5977 H 572.506 -3.8212 -1.09864 0
M  V30 5978 N 573.503 -0.0852151 -1.57369 0
M  V30 5979 C 574.466 0.8627 -2.12344 0
M  V30 5980 C 575.466 1.21746 -1.05046 0
M  V30 5981 O 576.656 1.14852 -1.30976 0
M  V30 5982 C 573.788 2.1618 -2.63589 0
M  V30 5983 H 574.981 0.385511 -2.97412 0
M  V30 5984 H 572.534 0.163663 -1.55441 0
M  V30 5985 H 573.269 2.68406 -1.82013 0
M  V30 5986 H 573.054 1.91723 -3.4203 0
M  V30 5987 H 574.544 2.84011 -3.06149 0
M  V30 5988 N 574.981 1.5647 0.188427 0
M  V30 5989 C 576.258 1.71857 0.934058 0
M  V30 5990 C 576.638 0.641867 2.01105 0
M  V30 5991 O 575.986 -0.346098 2.25864 0
M  V30 5992 C 576.196 3.14431 1.5144 0
M  V30 5993 C 577.544 3.74869 1.99396 0
M  V30 5994 O 578.568 3.17601 1.61269 0
M  V30 5995 O 577.427 4.75387 2.69573 0
M  V30 5996 H 574.521 0.701186 0.438483 0
M  V30 5997 H 577.067 1.68768 0.177599 0
M  V30 5998 H 575.839 3.8427 0.738416 0
M  V30 5999 H 575.462 3.21775 2.33552 0
M  V30 6000 N 576.459 -0.456382 1.50847 0
M  V30 6001 C 577.389 -1.56025 1.73719 0
M  V30 6002 C 578.37 -1.5967 0.586473 0
M  V30 6003 O 579.555 -1.75702 0.827185 0
M  V30 6004 C 576.685 -2.94251 1.84483 0
M  V30 6005 C 575.639 -3.05471 2.99786 0
M  V30 6006 C 574.965 -4.45489 2.95709 0
M  V30 6007 C 576.265 -2.81318 4.40065 0
M  V30 6008 H 577.959 -1.37138 2.66146 0
M  V30 6009 H 575.505 -0.658299 1.28072 0
M  V30 6010 H 577.458 -3.71417 1.99067 0
M  V30 6011 H 576.182 -3.14328 0.886891 0
M  V30 6012 H 574.841 -2.30741 2.84876 0
M  V30 6013 H 574.489 -4.62505 1.97732 0
M  V30 6014 H 574.189 -4.53929 3.73125 0
M  V30 6015 H 575.713 -5.24655 3.12362 0
M  V30 6016 H 577.127 -3.48226 4.55425 0
M  V30 6017 H 575.524 -3.01188 5.19043 0
M  V30 6018 H 576.594 -1.7706 4.51418 0
M  V30 6019 N 577.937 -1.40673 -0.710563 0
M  V30 6020 C 579.183 -1.39428 -1.47267 0
M  V30 6021 C 579.516 0.00182129 -1.942 0
M  V30 6022 O 578.791 0.971387 -1.68506 0
M  V30 6023 C 579.074 -2.38812 -2.6952 0
M  V30 6024 C 578.927 -3.87467 -2.28449 0
M  V30 6025 C 580.246 -2.3566 -3.71689 0
M  V30 6026 H 577.365 -0.507768 -0.534173 0
M  V30 6027 H 580.007 -1.71843 -0.810547 0
M  V30 6028 H 578.157 -2.113 -3.26013 0
M  V30 6029 H 579.829 -4.25825 -1.77399 0
M  V30 6030 H 578.072 -4.03058 -1.60395 0
M  V30 6031 H 578.743 -4.5253 -3.16103 0
M  V30 6032 H 581.219 -2.6004 -3.24836 0
M  V30 6033 H 580.095 -3.07237 -4.54859 0
M  V30 6034 H 580.356 -1.36996 -4.20339 0
M  V30 6035 N 579.415 0.9433 -1.26252 0
M  V30 6036 C 580.661 1.69175 -1.11837 0
M  V30 6037 C 580.994 1.91238 0.337891 0
M  V30 6038 O 580.269 1.49152 1.24836 0
M  V30 6039 C 580.552 3.06783 -1.88563 0
M  V30 6040 C 580.405 2.9206 -3.42083 0
M  V30 6041 C 581.724 4.06865 -1.67776 0
M  V30 6042 H 578.843 0.61399 -0.407658 0
M  V30 6043 H 581.485 1.09572 -1.55222 0
M  V30 6044 H 579.635 3.57663 -1.51689 0
M  V30 6045 H 581.307 2.48419 -3.88698 0
M  V30 6046 H 579.55 2.27731 -3.69217 0
M  V30 6047 H 580.221 3.89651 -3.90994 0
M  V30 6048 H 582.697 3.64939 -1.99897 0
M  V30 6049 H 581.573 5.01168 -2.23879 0
M  V30 6050 H 581.834 4.37705 -0.621816 0
M  V30 6051 N 580.893 1.08022 1.14757 0
M  V30 6052 C 582.123 0.827646 1.89298 0
M  V30 6053 C 582.531 -0.623506 1.78631 0
M  V30 6054 O 581.874 -1.43991 1.14071 0
M  V30 6055 C 581.936 1.16553 3.40082 0
M  V30 6056 C 581.6 2.61866 3.74533 0
M  V30 6057 C 582.597 3.60116 3.74984 0
M  V30 6058 C 580.282 2.97619 4.04633 0
M  V30 6059 C 582.276 4.92151 4.05051 0
M  V30 6060 C 579.963 4.2985 4.34364 0
M  V30 6061 C 580.961 5.26926 4.34555 0
M  V30 6062 O 580.649 6.5678 4.63568 0
M  V30 6063 H 580.381 0.298396 0.606577 0
M  V30 6064 H 582.935 1.44187 1.46285 0
M  V30 6065 H 581.165 0.494296 3.83528 0
M  V30 6066 H 582.854 0.894407 3.95923 0
M  V30 6067 H 583.62 3.33837 3.51821 0
M  V30 6068 H 579.499 2.22702 4.03639 0
M  V30 6069 H 583.043 5.67915 4.05115 0
M  V30 6070 H 578.94 4.55879 4.56995 0
M  V30 6071 H 579.708 6.62035 4.81303 0
M  V30 6072 N 582.371 -1.3172 0.865308 0
M  V30 6073 C 583.648 -1.91574 0.394789 0
M  V30 6074 C 584.028 -1.78769 -1.12271 0
M  V30 6075 O 583.376 -1.19245 -1.94918 0
M  V30 6076 C 583.586 -3.37957 0.870982 0
M  V30 6077 C 584.934 -4.15073 0.894384 0
M  V30 6078 O 585.958 -3.4672 0.816325 0
M  V30 6079 O 584.817 -5.37151 1.00651 0
M  V30 6080 H 581.911 -0.818649 0.117229 0
M  V30 6081 H 584.457 -1.4042 0.952913 0
M  V30 6082 H 583.229 -3.41269 1.91444 0
M  V30 6083 H 582.852 -3.96534 0.290907 0
M  V30 6084 N 583.85 -0.624285 -1.44708 0
M  V30 6085 C 585.26 -0.2092 -1.85524 0
M  V30 6086 C 585.611 1.23783 -1.52225 0
M  V30 6087 O 584.736 1.94089 -0.956986 0
M  V30 6088 C 585.332 -0.372897 -3.36742 0
M  V30 6089 C 583.891 -0.012374 -3.76398 0
M  V30 6090 C 583.038 -0.68951 -2.68591 0
M  V30 6091 H 585.989 -0.829894 -1.35272 0
M  V30 6092 H 586.01 0.390134 -3.78495 0
M  V30 6093 H 585.522 -1.42615 -3.60947 0
M  V30 6094 H 583.623 1.03941 -3.57809 0
M  V30 6095 H 583.736 -0.417663 -4.77276 0
M  V30 6096 H 582.1 -0.125484 -2.54391 0
M  V30 6097 H 582.883 -1.74522 -2.9563 0
M  V30 6098 N 585.328 1.53329 -0.364422 0
M  V30 6099 C 586.26 2.23286 0.517293 0
M  V30 6100 C 587.273 1.24657 1.04711 0
M  V30 6101 O 588.462 1.50887 0.95369 0
M  V30 6102 C 585.562 2.91604 1.72685 0
M  V30 6103 C 584.735 4.1673 1.32873 0
M  V30 6104 C 583.794 4.68269 2.40022 0
M  V30 6105 O 582.82 5.31976 2.02461 0
M  V30 6106 N 584.022 4.45983 3.7159 0
M  V30 6107 H 586.787 2.99588 -0.0819391 0
M  V30 6108 H 584.348 1.60787 -0.189544 0
M  V30 6109 H 586.34 3.22992 2.4384 0
M  V30 6110 H 584.91 2.18763 2.23297 0
M  V30 6111 H 584.13 3.91657 0.447069 0
M  V30 6112 H 585.418 4.98078 1.03902 0
M  V30 6113 H 584.816 3.95077 4.04883 0
M  V30 6114 H 583.373 4.81924 4.38854 0
M  V30 6115 N 586.806 0.0935595 1.57322 0
M  V30 6116 C 588.036 -0.578095 1.98347 0
M  V30 6117 C 588.444 -1.62357 0.971441 0
M  V30 6118 O 587.787 -1.83639 -0.0473959 0
M  V30 6119 C 587.849 -1.28525 3.3574 0
M  V30 6120 C 587.513 -0.390714 4.55327 0
M  V30 6121 C 588.51 0.360522 5.18648 0
M  V30 6122 C 586.195 -0.309221 5.01347 0
M  V30 6123 C 588.189 1.18125 6.26359 0
M  V30 6124 C 585.876 0.515157 6.08925 0
M  V30 6125 C 586.874 1.25904 6.71295 0
M  V30 6126 O 586.562 2.06978 7.76798 0
M  V30 6127 H 586.294 -0.159767 0.656849 0
M  V30 6128 H 588.848 0.169058 2.04703 0
M  V30 6129 H 587.078 -2.07894 3.26063 0
M  V30 6130 H 588.767 -1.85128 3.61223 0
M  V30 6131 H 589.533 0.307285 4.84026 0
M  V30 6132 H 585.412 -0.877881 4.52564 0
M  V30 6133 H 588.956 1.76236 6.74971 0
M  V30 6134 H 584.853 0.56988 6.42979 0
M  V30 6135 H 585.621 1.99644 7.93779 0
M  V30 6136 N 588.284 -1.56567 -0.180126 0
M  V30 6137 C 589.7 -1.50488 -0.531559 0
M  V30 6138 C 589.9 -0.796267 -1.851 0
M  V30 6139 O 588.956 -0.352978 -2.50021 0
M  V30 6140 C 590.269 -2.95201 -0.572456 0
M  V30 6141 C 591.817 -3.05957 -0.660264 0
M  V30 6142 C 592.292 -4.5211 -0.732135 0
M  V30 6143 N 593.783 -4.56322 -0.795262 0
M  V30 6144 C 594.518 -5.66742 -0.871296 0
M  V30 6145 N 594.014 -6.86815 -0.908708 0
M  V30 6146 N 595.807 -5.54691 -0.909639 0
M  V30 6147 H 587.958 -2.01045 0.685165 0
M  V30 6148 H 590.221 -0.915536 0.245962 0
M  V30 6149 H 589.927 -3.50165 0.328208 0
M  V30 6150 H 589.801 -3.49369 -1.422 0
M  V30 6151 H 592.188 -2.51032 -1.55136 0
M  V30 6152 H 592.269 -2.54888 0.215783 0
M  V30 6153 H 591.913 -5.07664 0.154664 0
M  V30 6154 H 591.843 -5.00926 -1.6242 0
M  V30 6155 H 594.334 -3.69868 -0.77499 0
M  V30 6156 H 594.647 -7.66718 -0.967654 0
M  V30 6157 H 592.992 -6.89443 -0.877132 0
M  V30 6158 H 596.183 -4.59804 -0.877353 0
M  V30 6159 H 596.356 -6.40768 -0.965434 0
M  V30 6160 N 589.762 0.448376 -1.51087 0
M  V30 6161 C 591.01 1.19635 -1.62886 0
M  V30 6162 C 591.331 1.91977 -0.342024 0
M  V30 6163 O 590.601 1.85094 0.641636 0
M  V30 6164 H 589.181 0.444598 -0.600285 0
M  V30 6165 H 591.843 0.515138 -1.87969 0
M  V30 6166 H 590.939 1.93194 -2.45117 0
M  V30 6167 N 591.24 1.41047 0.703093 0
M  V30 6168 C 592.468 1.4334 1.49202 0
M  V30 6169 C 592.883 0.0365596 1.88765 0
M  V30 6170 O 592.24 -0.942419 1.56284 0
M  V30 6171 C 592.291 2.33538 2.75939 0
M  V30 6172 O 592.012 3.67786 2.38045 0
M  V30 6173 C 593.513 2.44555 3.6974 0
M  V30 6174 H 590.733 0.488472 0.460039 0
M  V30 6175 H 593.277 1.85245 0.86629 0
M  V30 6176 H 591.432 1.94962 3.34766 0
M  V30 6177 H 591.846 4.15816 3.19683 0
M  V30 6178 H 593.32 3.11849 4.55471 0
M  V30 6179 H 593.797 1.47447 4.1371 0
M  V30 6180 H 594.403 2.83735 3.16819 0
M  V30 6181 N 592.718 -0.936591 1.26751 0
M  V30 6182 C 593.967 -1.67778 1.11953 0
M  V30 6183 C 594.28 -1.92694 -0.33589 0
M  V30 6184 O 595.486 -2.64682 -0.604618 0
M  V30 6185 C 593.942 -3.02138 1.95551 0
M  V30 6186 C 593.55 -2.84953 3.45696 0
M  V30 6187 C 595.294 -3.79917 1.89377 0
M  V30 6188 C 593.201 -4.14814 4.21525 0
M  V30 6189 H 592.131 -0.629275 0.415366 0
M  V30 6190 H 594.782 -1.04122 1.51099 0
M  V30 6191 H 593.164 -3.668 1.49243 0
M  V30 6192 H 594.338 -2.29112 3.99805 0
M  V30 6193 H 592.653 -2.20612 3.53156 0
M  V30 6194 H 595.25 -4.76134 2.43312 0
M  V30 6195 H 595.593 -4.07204 0.865464 0
M  V30 6196 H 596.126 -3.22037 2.33532 0
M  V30 6197 H 592.865 -3.92709 5.24843 0
M  V30 6198 H 592.385 -4.70352 3.72195 0
M  V30 6199 H 594.064 -4.83239 4.3022 0
M  V30 6200 N 594.196 -1.08629 -1.14182 0
M  V30 6201 C 595.421 -0.83902 -1.89671 0
M  V30 6202 C 595.846 0.603332 -1.78161 0
M  V30 6203 O 595.204 1.42301 -1.12339 0
M  V30 6204 C 595.252 -1.26854 -3.37551 0
M  V30 6205 O 594.356 -0.42188 -4.10236 0
M  V30 6206 H 593.697 -0.304545 -0.590041 0
M  V30 6207 H 596.227 -1.4483 -1.44518 0
M  V30 6208 H 596.237 -1.25038 -3.88368 0
M  V30 6209 H 594.912 -2.31901 -3.45246 0
M  V30 6210 H 593.489 -0.503654 -3.69483 0
M  V30 6211 N 595.674 1.31259 -0.872281 0
M  V30 6212 C 596.92 1.96913 -0.485083 0
M  V30 6213 C 597.253 1.68774 0.960667 0
M  V30 6214 O 596.528 0.985495 1.67685 0
M  V30 6215 C 596.811 3.52299 -0.745502 0
M  V30 6216 C 596.664 3.90002 -2.24095 0
M  V30 6217 C 597.983 4.39582 -0.213516 0
M  V30 6218 H 595.102 0.715252 -0.177716 0
M  V30 6219 H 597.744 1.55347 -1.09395 0
M  V30 6220 H 595.894 3.87835 -0.227276 0
M  V30 6221 H 597.566 3.64555 -2.82661 0
M  V30 6222 H 595.809 3.38526 -2.71261 0
M  V30 6223 H 596.48 4.98352 -2.37381 0
M  V30 6224 H 598.956 4.10882 -0.656902 0
M  V30 6225 H 597.832 5.47251 -0.42516 0
M  V30 6226 H 598.093 4.33158 0.884666 0
M  V30 6227 N 597.152 0.631951 1.44375 0
M  V30 6228 C 598.099 -0.0724807 2.30686 0
M  V30 6229 C 599.069 -0.835975 1.43529 0
M  V30 6230 O 600.254 -0.816849 1.7243 0
M  V30 6231 C 597.394 -1.04753 3.28817 0
M  V30 6232 C 596.507 -0.282367 4.31076 0
M  V30 6233 C 595.642 -1.2493 5.163 0
M  V30 6234 C 594.681 -0.473349 6.10267 0
M  V30 6235 N 593.818 -1.39079 6.88187 0
M  V30 6236 H 598.658 0.669477 2.90383 0
M  V30 6237 H 596.195 0.341927 1.43071 0
M  V30 6238 H 598.153 -1.62623 3.842 0
M  V30 6239 H 596.783 -1.75661 2.70819 0
M  V30 6240 H 595.835 0.412268 3.78159 0
M  V30 6241 H 597.147 0.321955 4.9776 0
M  V30 6242 H 596.301 -1.89931 5.76204 0
M  V30 6243 H 595.04 -1.88755 4.49692 0
M  V30 6244 H 594.045 0.190142 5.49471 0
M  V30 6245 H 595.27 0.16019 6.78911 0
M  V30 6246 H 593.216 -2.01623 6.24247 0
M  V30 6247 H 593.133 -0.840513 7.51313 0
M  V30 6248 H 594.401 -2.02961 7.52613 0
M  V30 6249 N 598.631 -1.53133 0.372548 0
M  V30 6250 C 599.859 -2.05774 -0.215515 0
M  V30 6251 C 600.274 -1.24555 -1.41886 0
M  V30 6252 O 599.631 -0.287951 -1.80214 0
M  V30 6253 C 599.682 -3.5645 -0.602161 0
M  V30 6254 O 599.403 -4.34591 0.553359 0
M  V30 6255 C 600.904 -4.25374 -1.24787 0
M  V30 6256 H 598.124 -0.670009 -0.0364529 0
M  V30 6257 H 600.668 -1.97434 0.532934 0
M  V30 6258 H 598.823 -3.64918 -1.30052 0
M  V30 6259 H 599.237 -5.23954 0.239336 0
M  V30 6260 H 600.711 -5.32097 -1.46891 0
M  V30 6261 H 601.188 -3.79531 -2.21026 0
M  V30 6262 H 601.794 -4.21177 -0.590752 0
M  V30 6263 N 600.109 -0.101901 -1.5727 0
M  V30 6264 C 601.041 0.884723 -2.11436 0
M  V30 6265 C 602.054 1.24149 -1.05314 0
M  V30 6266 O 603.243 1.19341 -1.3274 0
M  V30 6267 C 600.343 2.19179 -2.58484 0
M  V30 6268 C 599.516 2.00933 -3.88516 0
M  V30 6269 C 598.575 3.15213 -4.2134 0
M  V30 6270 O 597.601 2.88877 -4.90448 0
M  V30 6271 N 598.803 4.41174 -3.77288 0
M  V30 6272 H 601.568 0.422058 -2.96713 0
M  V30 6273 H 599.129 0.0830128 -1.61687 0
M  V30 6274 H 601.121 2.94593 -2.77484 0
M  V30 6275 H 599.691 2.56847 -1.7818 0
M  V30 6276 H 598.911 1.09809 -3.78597 0
M  V30 6277 H 600.199 1.86026 -4.73573 0
M  V30 6278 H 599.597 4.6545 -3.21516 0
M  V30 6279 H 598.154 5.13515 -4.01429 0
M  V30 6280 N 601.587 1.56661 0.17182 0
M  V30 6281 C 602.537 1.92781 1.21736 0
M  V30 6282 C 603.521 0.796065 1.39827 0
M  V30 6283 O 604.713 1.05924 1.41806 0
M  V30 6284 C 601.842 2.29079 2.55691 0
M  V30 6285 C 600.928 3.48765 2.41296 0
M  V30 6286 N 601.319 4.66022 1.96614 0
M  V30 6287 C 599.617 3.53362 2.72124 0
M  V30 6288 C 600.318 5.48159 1.94669 0
M  V30 6289 N 599.294 4.89189 2.37054 0
M  V30 6290 H 603.096 2.80926 0.863592 0
M  V30 6291 H 600.61 1.57889 0.380096 0
M  V30 6292 H 602.607 2.5315 3.31241 0
M  V30 6293 H 601.267 1.42272 2.91871 0
M  V30 6294 H 602.278 4.9025 1.66959 0
M  V30 6295 H 598.955 2.77033 3.12345 0
M  V30 6296 H 600.345 6.52121 1.61826 0
M  V30 6297 N 603.065 -0.440357 1.51323 0
M  V30 6298 C 604.311 -1.19181 1.64085 0
M  V30 6299 C 604.644 -1.90936 0.354575 0
M  V30 6300 O 603.919 -1.8347 -0.645675 0
M  V30 6301 C 604.202 -2.2112 2.84215 0
M  V30 6302 C 604.055 -1.53468 4.22809 0
M  V30 6303 C 605.374 -3.22133 2.99864 0
M  V30 6304 H 602.493 -0.431924 0.597169 0
M  V30 6305 H 605.135 -0.481443 1.83799 0
M  V30 6306 H 603.285 -2.81703 2.67537 0
M  V30 6307 H 604.957 -0.962455 4.51148 0
M  V30 6308 H 603.2 -0.837086 4.25647 0
M  V30 6309 H 603.871 -2.27694 5.02852 0
M  V30 6310 H 606.347 -2.71601 3.15233 0
M  V30 6311 H 605.223 -3.90756 3.85488 0
M  V30 6312 H 605.484 -3.88061 2.11804 0
M  V30 6313 N 604.543 -1.41418 -0.695603 0
M  V30 6314 C 605.491 -1.43467 -1.83084 0
M  V30 6315 C 606.485 -0.312719 -1.66489 0
M  V30 6316 O 607.691 -0.484744 -1.7335 0
M  V30 6317 H 604.066 -0.448891 -0.603325 0
M  V30 6318 H 606.037 -2.39144 -1.78473 0
M  V30 6319 C 604.786 -1.3337 -3.21104 0
M  V30 6320 H 604.109 -2.18989 -3.3449 0
M  V30 6321 H 605.549 -1.38865 -4.00615 0
M  V30 6322 C 604.008 -0.0460484 -3.36869 0
M  V30 6323 O 604.538 0.909258 -3.91274 0
M  V30 6324 N 602.744 0.0300222 -2.90584 0
M  V30 6325 H 602.291 -0.748129 -2.46497 0
M  V30 6326 H 602.249 0.890991 -3.01511 0
M  V30 6327 N 606.021 0.929856 -1.27246 0
M  V30 6328 C 606.969 2.05151 -1.09616 0
M  V30 6329 C 607.963 1.69388 -0.0198617 0
M  V30 6330 O 609.169 1.79124 -0.177417 0
M  V30 6331 H 605.544 0.671909 -0.337701 0
M  V30 6332 H 607.515 2.17168 -2.04648 0
M  V30 6333 C 606.264 3.3934 -0.757851 0
M  V30 6334 H 605.587 3.67343 -1.57795 0
M  V30 6335 H 607.027 4.18603 -0.674358 0
M  V30 6336 C 605.486 3.32582 0.537658 0
M  V30 6337 O 606.016 3.69633 1.57271 0
M  V30 6338 N 604.222 2.8568 0.532478 0
M  V30 6339 H 603.769 2.55725 -0.310233 0
M  V30 6340 H 603.727 2.81541 1.39936 0
M  V30 6341 N 607.499 1.09233 1.13605 0
M  V30 6342 C 608.776 0.739633 1.81077 0
M  V30 6343 C 609.156 -0.775595 1.96336 0
M  V30 6344 O 608.504 -1.69726 1.52988 0
M  V30 6345 C 608.714 1.47636 3.16235 0
M  V30 6346 C 610.062 1.64087 3.91613 0
M  V30 6347 O 611.086 1.43871 3.25852 0
M  V30 6348 O 609.945 1.97511 5.0956 0
M  V30 6349 H 607.039 0.265464 0.783236 0
M  V30 6350 H 609.585 1.19441 1.20549 0
M  V30 6351 H 608.357 2.50818 3.00344 0
M  V30 6352 H 607.98 1.01362 3.84462 0
M  V30 6353 N 608.977 -1.30795 0.87923 0
M  V30 6354 C 610.207 -2.00237 0.50881 0
M  V30 6355 C 610.615 -1.66115 -0.905682 0
M  V30 6356 O 609.958 -0.89138 -1.60624 0
M  V30 6357 C 610.02 -3.54508 0.597003 0
M  V30 6358 C 609.684 -4.12131 1.97477 0
M  V30 6359 C 610.681 -4.28552 2.94346 0
M  V30 6360 C 608.366 -4.47644 2.2786 0
M  V30 6361 C 610.36 -4.79689 4.19735 0
M  V30 6362 C 608.047 -4.98481 3.53496 0
M  V30 6363 C 609.045 -5.14456 4.49248 0
M  V30 6364 O 608.733 -5.64199 5.72656 0
M  V30 6365 H 608.465 -0.647026 0.195788 0
M  V30 6366 H 611.019 -1.67785 1.1848 0
M  V30 6367 H 609.249 -3.86461 -0.135945 0
M  V30 6368 H 610.938 -4.05198 0.238684 0
M  V30 6369 H 611.704 -4.01424 2.72183 0
M  V30 6370 H 607.583 -4.34481 1.54102 0
M  V30 6371 H 611.127 -4.92073 4.9448 0
M  V30 6372 H 607.024 -5.25044 3.75498 0
M  V30 6373 H 607.792 -5.82551 5.74957 0
M  V30 6374 N 610.455 -0.639598 -1.44038 0
M  V30 6375 C 611.403 0.0723409 -2.32487 0
M  V30 6376 C 612.397 0.827129 -1.47834 0
M  V30 6377 O 613.603 0.73907 -1.64127 0
M  V30 6378 H 609.978 0.0421696 -0.750817 0
M  V30 6379 H 611.949 -0.691593 -2.90275 0
M  V30 6380 C 610.698 1.03452 -3.31953 0
M  V30 6381 H 610.021 0.46315 -3.97108 0
M  V30 6382 H 611.461 1.502 -3.96505 0
M  V30 6383 C 609.92 2.12392 -2.61518 0
M  V30 6384 O 610.45 3.2059 -2.42044 0
M  V30 6385 N 608.656 1.88563 -2.21116 0
M  V30 6386 H 608.203 1.00577 -2.37154 0
M  V30 6387 H 608.161 2.61651 -1.74316 0
M  V30 6388 N 611.933 1.52934 -0.380664 0
M  V30 6389 C 613.181 2.01069 0.203874 0
M  V30 6390 C 613.502 1.26922 1.4804 0
M  V30 6391 O 612.772 0.386787 1.92044 0
M  V30 6392 H 611.352 0.742882 0.0783279 0
M  V30 6393 H 614.014 1.88099 -0.510368 0
M  V30 6394 H 613.11 3.09258 0.42021 0
M  V30 6395 N 613.412 0.11024 1.57214 0
M  V30 6396 C 614.659 -0.54987 1.94891 0
M  V30 6397 C 614.987 -1.67243 0.992984 0
M  V30 6398 O 614.242 -1.95694 0.0152703 0
M  V30 6399 C 614.541 -1.13102 3.39032 0
M  V30 6400 C 614.207 -0.130713 4.5071 0
M  V30 6401 C 612.869 0.14437 4.80983 0
M  V30 6402 C 615.221 0.551472 5.18274 0
M  V30 6403 C 612.549 1.10807 5.76141 0
M  V30 6404 C 614.901 1.50375 6.14467 0
M  V30 6405 C 613.565 1.78691 6.43138 0
M  V30 6406 H 612.835 -0.201212 0.713158 0
M  V30 6407 H 615.482 0.189288 1.90562 0
M  V30 6408 H 613.787 -1.94675 3.40013 0
M  V30 6409 H 615.484 -1.64973 3.65493 0
M  V30 6410 H 612.074 -0.355301 4.27125 0
M  V30 6411 H 616.258 0.35211 4.95049 0
M  V30 6412 H 611.514 1.3343 5.96663 0
M  V30 6413 H 615.688 2.03808 6.65909 0
M  V30 6414 H 613.315 2.53522 7.1668 0
M  V30 6415 N 614.89 -1.56749 -0.16351 0
M  V30 6416 C 615.8 -2.00255 -1.2221 0
M  V30 6417 C 616.816 -0.915194 -1.47987 0
M  V30 6418 O 617.992 -1.22342 -1.59982 0
M  V30 6419 C 615.057 -2.36035 -2.53946 0
M  V30 6420 C 614.118 -3.58637 -2.35962 0
M  V30 6421 C 613.351 -3.92701 -3.61416 0
M  V30 6422 O 613.574 -3.27632 -4.66919 0
M  V30 6423 O 612.508 -4.86019 -3.55062 0
M  V30 6424 H 616.334 -2.90586 -0.882794 0
M  V30 6425 H 613.919 -1.44721 -0.370978 0
M  V30 6426 H 615.801 -2.59982 -3.31643 0
M  V30 6427 H 614.476 -1.48863 -2.8744 0
M  V30 6428 H 613.383 -3.39898 -1.5627 0
M  V30 6429 H 614.716 -4.46374 -2.0739 0
M  V30 6430 N 616.368 0.432326 -1.51554 0
M  V30 6431 C 617.616 1.17901 -1.64146 0
M  V30 6432 C 617.937 1.91604 -0.362367 0
M  V30 6433 O 617.207 1.85764 0.621968 0
M  V30 6434 H 615.787 0.438206 -0.604966 0
M  V30 6435 H 618.449 0.495172 -1.88505 0
M  V30 6436 H 617.545 1.90584 -2.47152 0
M  V30 6437 N 617.846 1.41785 0.688094 0
M  V30 6438 C 619.093 1.41544 1.44816 0
M  V30 6439 C 619.421 0.0271746 1.94481 0
M  V30 6440 O 618.676 -0.962235 1.7041 0
M  V30 6441 C 618.975 2.37532 2.67046 0
M  V30 6442 C 618.641 3.84209 2.35996 0
M  V30 6443 C 617.303 4.24165 2.27239 0
M  V30 6444 C 619.655 4.76785 2.10536 0
M  V30 6445 C 616.983 5.54695 1.91128 0
M  V30 6446 C 619.335 6.07644 1.75931 0
M  V30 6447 C 617.999 6.46613 1.65675 0
M  V30 6448 H 617.269 0.517945 0.529919 0
M  V30 6449 H 619.916 1.74635 0.785797 0
M  V30 6450 H 618.221 1.9772 3.38251 0
M  V30 6451 H 619.918 2.34615 3.25203 0
M  V30 6452 H 616.508 3.52567 2.4371 0
M  V30 6453 H 620.692 4.46714 2.16242 0
M  V30 6454 H 615.948 5.83762 1.81746 0
M  V30 6455 H 620.122 6.78874 1.55252 0
M  V30 6456 H 617.749 7.47668 1.37463 0
M  V30 6457 N 619.324 -0.923095 1.27737 0
M  V30 6458 C 620.234 -2.05765 1.12685 0
M  V30 6459 C 621.25 -1.73911 0.0557197 0
M  V30 6460 O 622.426 -1.99674 0.263137 0
M  V30 6461 C 619.491 -3.37804 0.780363 0
M  V30 6462 C 618.552 -3.83326 1.93286 0
M  V30 6463 C 617.785 -5.09064 1.60281 0
M  V30 6464 O 618.008 -5.6809 0.512828 0
M  V30 6465 O 616.942 -5.50071 2.44347 0
M  V30 6466 H 620.768 -2.21378 2.07907 0
M  V30 6467 H 618.353 -1.04299 1.06968 0
M  V30 6468 H 620.235 -4.17097 0.600668 0
M  V30 6469 H 618.91 -3.23387 -0.142291 0
M  V30 6470 H 617.817 -3.049 2.16764 0
M  V30 6471 H 619.15 -4.02292 2.83588 0
M  V30 6472 N 620.802 -1.09834 -1.13024 0
M  V30 6473 C 622.051 -0.831806 -1.83749 0
M  V30 6474 C 622.364 0.644763 -1.84668 0
M  V30 6475 O 623.57 1.02697 -2.51327 0
M  V30 6476 C 622.026 -1.43817 -3.29916 0
M  V30 6477 C 621.634 -2.94759 -3.37374 0
M  V30 6478 C 623.378 -1.25077 -4.05655 0
M  V30 6479 C 621.285 -3.48461 -4.77838 0
M  V30 6480 H 620.215 -0.30751 -0.688443 0
M  V30 6481 H 622.866 -1.32156 -1.27307 0
M  V30 6482 H 621.248 -0.876106 -3.86187 0
M  V30 6483 H 622.422 -3.57228 -2.91076 0
M  V30 6484 H 620.737 -3.12581 -2.75103 0
M  V30 6485 H 623.334 -1.62649 -5.09362 0
M  V30 6486 H 623.677 -0.191782 -4.15858 0
M  V30 6487 H 624.21 -1.78057 -3.55725 0
M  V30 6488 H 620.949 -4.53998 -4.72828 0
M  V30 6489 H 620.469 -2.90757 -5.24615 0
M  V30 6490 H 622.148 -3.45914 -5.46766 0
M  V30 6491 N 622.28 1.30327 -0.886154 0
M  V30 6492 C 623.557 1.90922 -0.425217 0
M  V30 6493 C 623.937 1.80533 1.09413 0
M  V30 6494 O 623.285 1.2233 1.92996 0
M  V30 6495 C 623.495 3.36529 -0.924638 0
M  V30 6496 C 624.843 4.13598 -0.960305 0
M  V30 6497 O 625.867 3.45377 -0.871382 0
M  V30 6498 O 624.726 5.35482 -1.09184 0
M  V30 6499 H 621.82 0.81668 -0.130238 0
M  V30 6500 H 624.366 1.38886 -0.975132 0
M  V30 6501 H 623.138 3.38181 -1.96849 0
M  V30 6502 H 622.761 3.96021 -0.353955 0
M  V30 6503 N 623.758 0.647228 1.43697 0
M  V30 6504 C 625.006 0.157876 2.01482 0
M  V30 6505 C 625.327 -1.23039 1.51282 0
M  V30 6506 O 624.597 -1.82071 0.722982 0
M  V30 6507 H 623.177 0.0553745 0.744945 0
M  V30 6508 H 625.839 0.83755 1.75986 0
M  V30 6509 H 624.935 0.137895 3.11795 0
M  V30 6510 N 625.236 -1.5273 0.388769 0
M  V30 6511 C 626.652 -1.59553 0.0387049 0
M  V30 6512 C 626.852 -1.40278 -1.44652 0
M  V30 6513 O 625.908 -1.21951 -2.21098 0
M  V30 6514 C 627.221 -2.9625 0.515409 0
M  V30 6515 C 628.769 -3.09426 0.471621 0
M  V30 6516 C 629.244 -4.48572 0.924505 0
M  V30 6517 N 630.735 -4.54754 0.880496 0
M  V30 6518 C 631.47 -5.60653 1.20234 0
M  V30 6519 N 630.966 -6.74198 1.59463 0
M  V30 6520 N 632.759 -5.50755 1.12363 0
M  V30 6521 H 624.91 -1.63508 1.35569 0
M  V30 6522 H 627.173 -0.768097 0.555636 0
M  V30 6523 H 626.879 -3.15569 1.5527 0
M  V30 6524 H 626.753 -3.77102 -0.085792 0
M  V30 6525 H 629.14 -2.89804 -0.556588 0
M  V30 6526 H 629.221 -2.30528 1.10862 0
M  V30 6527 H 628.865 -4.68936 1.95094 0
M  V30 6528 H 628.795 -5.25935 0.264524 0
M  V30 6529 H 631.286 -3.73237 0.591815 0
M  V30 6530 H 631.599 -7.5097 1.82385 0
M  V30 6531 H 629.944 -6.75531 1.63349 0
M  V30 6532 H 633.135 -4.6093 0.816169 0
M  V30 6533 H 633.308 -6.33184 1.37777 0
M  V30 6534 N 626.714 -0.118576 -1.57153 0
M  V30 6535 C 628.125 0.40687 -1.82213 0
M  V30 6536 C 628.476 1.66636 -1.03571 0
M  V30 6537 O 627.601 2.14682 -0.272171 0
M  V30 6538 C 628.196 0.744949 -3.30509 0
M  V30 6539 C 626.755 1.21503 -3.5625 0
M  V30 6540 C 625.902 0.223511 -2.76398 0
M  V30 6541 H 628.853 -0.343712 -1.54933 0
M  V30 6542 H 628.874 1.6024 -3.45114 0
M  V30 6543 H 628.386 -0.171911 -3.87719 0
M  V30 6544 H 626.487 2.1488 -3.04396 0
M  V30 6545 H 626.6 1.16065 -4.64829 0
M  V30 6546 H 624.964 0.71046 -2.44591 0
M  V30 6547 H 625.747 -0.686439 -3.36367 0
M  V30 6548 N 628.193 1.56834 0.155195 0
M  V30 6549 C 629.418 1.87412 0.888337 0
M  V30 6550 C 629.843 0.70671 1.74319 0
M  V30 6551 O 629.201 -0.343892 1.78009 0
M  V30 6552 C 629.249 3.1652 1.72765 0
M  V30 6553 O 628.353 2.99877 2.83103 0
M  V30 6554 H 627.694 0.615983 0.247914 0
M  V30 6555 H 630.224 2.04061 0.148478 0
M  V30 6556 H 630.234 3.48334 2.12433 0
M  V30 6557 H 628.909 4.01094 1.09985 0
M  V30 6558 H 627.486 2.79453 2.46902 0
M  V30 6559 N 629.671 -0.424282 1.51781 0
M  V30 6560 C 630.917 -1.17434 1.6534 0
M  V30 6561 C 631.25 -1.90549 0.374806 0
M  V30 6562 O 630.525 -1.84145 -0.626179 0
M  V30 6563 C 630.808 -2.18093 2.86544 0
M  V30 6564 C 630.661 -1.48975 4.24413 0
M  V30 6565 C 631.98 -3.18934 3.03264 0
M  V30 6566 H 629.099 -0.425566 0.601716 0
M  V30 6567 H 631.741 -0.461921 1.84299 0
M  V30 6568 H 629.891 -2.78849 2.7051 0
M  V30 6569 H 631.563 -0.914551 4.52143 0
M  V30 6570 H 629.806 -0.791893 4.26511 0
M  V30 6571 H 630.477 -2.22347 5.05238 0
M  V30 6572 H 632.953 -2.68243 3.18096 0
M  V30 6573 H 631.829 -3.86645 3.89611 0
M  V30 6574 H 632.09 -3.85793 2.15908 0
M  V30 6575 N 631.149 -1.42148 -0.680565 0
M  V30 6576 C 632.395 -1.42521 -1.44277 0
M  V30 6577 C 632.728 -0.0393718 -1.9416 0
M  V30 6578 O 632.003 0.935425 -1.70529 0
M  V30 6579 C 632.286 -2.44475 -2.64394 0
M  V30 6580 C 632.139 -3.92226 -2.20179 0
M  V30 6581 C 633.458 -2.43491 -3.66606 0
M  V30 6582 H 630.577 -0.518985 -0.523282 0
M  V30 6583 H 633.219 -1.73524 -0.773914 0
M  V30 6584 H 631.369 -2.18168 -3.21458 0
M  V30 6585 H 633.041 -4.29493 -1.68327 0
M  V30 6586 H 631.284 -4.0637 -1.5181 0
M  V30 6587 H 631.955 -4.59133 -3.06433 0
M  V30 6588 H 634.431 -2.66872 -3.19247 0
M  V30 6589 H 633.307 -3.16816 -4.4824 0
M  V30 6590 H 633.568 -1.45881 -4.17338 0
M  V30 6591 N 632.627 0.916307 -1.28225 0
M  V30 6592 C 633.855 1.69901 -1.18073 0
M  V30 6593 C 634.27 1.86988 0.260968 0
M  V30 6594 O 633.627 1.39505 1.17663 0
M  V30 6595 C 633.678 3.09254 -1.87201 0
M  V30 6596 O 633.399 2.92959 -3.2574 0
M  V30 6597 C 634.9 4.0362 -1.83319 0
M  V30 6598 H 632.12 0.531181 -0.409985 0
M  V30 6599 H 634.664 1.14703 -1.69303 0
M  V30 6600 H 632.819 3.61277 -1.39848 0
M  V30 6601 H 633.233 3.81139 -3.60324 0
M  V30 6602 H 634.707 4.98873 -2.36282 0
M  V30 6603 H 635.184 4.3176 -0.805007 0
M  V30 6604 H 635.79 3.57524 -2.3034 0
M  V30 6605 N 634.105 1.10431 1.1244 0
M  V30 6606 C 635.351 0.847972 1.84221 0
M  V30 6607 C 635.684 -0.624903 1.83871 0
M  V30 6608 O 634.959 -1.46074 1.28423 0
M  V30 6609 C 635.242 1.39695 3.319 0
M  V30 6610 C 635.095 2.93668 3.40704 0
M  V30 6611 C 636.414 1.03924 4.27654 0
M  V30 6612 H 633.533 0.309502 0.668863 0
M  V30 6613 H 636.175 1.36745 1.31912 0
M  V30 6614 H 634.325 0.955095 3.76577 0
M  V30 6615 H 635.997 3.46379 3.04662 0
M  V30 6616 H 634.24 3.30272 2.81252 0
M  V30 6617 H 634.911 3.27162 4.446 0
M  V30 6618 H 637.387 1.42049 3.91102 0
M  V30 6619 H 636.263 1.45027 5.29394 0
M  V30 6620 H 636.524 -0.051336 4.4207 0
M  V30 6621 N 635.583 -1.29855 0.893053 0
M  V30 6622 C 636.999 -1.48366 0.588199 0
M  V30 6623 C 637.199 -1.81654 -0.872018 0
M  V30 6624 O 636.255 -1.909 -1.65268 0
M  V30 6625 C 637.568 -2.60136 1.5083 0
M  V30 6626 C 639.116 -2.74014 1.51279 0
M  V30 6627 C 639.591 -3.88905 2.41902 0
M  V30 6628 N 641.082 -3.96228 2.39911 0
M  V30 6629 C 641.817 -4.84458 3.06738 0
M  V30 6630 N 641.313 -5.77426 3.8282 0
M  V30 6631 N 643.106 -4.77894 2.95929 0
M  V30 6632 H 635.257 -1.06522 1.83757 0
M  V30 6633 H 637.52 -0.528495 0.787018 0
M  V30 6634 H 637.226 -2.42383 2.54839 0
M  V30 6635 H 637.1 -3.56793 1.22388 0
M  V30 6636 H 639.487 -2.91167 0.480179 0
M  V30 6637 H 639.568 -1.77952 1.83757 0
M  V30 6638 H 639.212 -3.72508 3.45253 0
M  V30 6639 H 639.142 -4.84322 2.06737 0
M  V30 6640 H 641.633 -3.29728 1.84629 0
M  V30 6641 H 641.946 -6.41529 4.30883 0
M  V30 6642 H 640.291 -5.77332 3.86927 0
M  V30 6643 H 643.482 -4.04248 2.36012 0
M  V30 6644 H 643.655 -5.46444 3.48286 0
M  V30 6645 N 637.061 -0.65484 -1.43351 0
M  V30 6646 C 638.309 -0.168559 -2.01396 0
M  V30 6647 C 638.63 1.22235 -1.51933 0
M  V30 6648 O 637.9 1.81685 -0.732627 0
M  V30 6649 H 636.48 -0.0593244 -0.744641 0
M  V30 6650 H 639.142 -0.846871 -1.75539 0
M  V30 6651 H 638.238 -0.154428 -3.11718 0
M  V30 6652 N 638.539 1.52521 -0.396863 0
M  V30 6653 C 639.486 2.26671 0.434624 0
M  V30 6654 C 640.456 1.28584 1.05144 0
M  V30 6655 O 641.641 1.57426 1.07804 0
M  V30 6656 C 638.781 3.08234 1.55196 0
M  V30 6657 C 637.894 4.21261 0.957262 0
M  V30 6658 C 637.029 4.90205 2.04627 0
M  V30 6659 C 636.068 5.95213 1.42787 0
M  V30 6660 N 635.205 6.57723 2.45651 0
M  V30 6661 H 640.045 2.973 -0.204139 0
M  V30 6662 H 637.582 1.46669 -0.112505 0
M  V30 6663 H 639.54 3.53819 2.2106 0
M  V30 6664 H 638.17 2.398 2.16092 0
M  V30 6665 H 637.222 3.79935 0.188005 0
M  V30 6666 H 638.534 4.96624 0.465416 0
M  V30 6667 H 637.688 5.39133 2.78246 0
M  V30 6668 H 636.427 4.14383 2.57174 0
M  V30 6669 H 635.432 5.45616 0.676968 0
M  V30 6670 H 636.657 6.72972 0.910255 0
M  V30 6671 H 634.603 5.84737 2.97353 0
M  V30 6672 H 634.52 7.28723 2.01243 0
M  V30 6673 H 635.788 7.11293 3.18876 0
M  V30 6674 N 640.017 0.126909 1.57088 0
M  V30 6675 C 641.263 -0.529952 1.95753 0
M  V30 6676 C 641.596 -1.65823 1.01077 0
M  V30 6677 O 640.871 -1.94437 0.0494162 0
M  V30 6678 C 641.154 -1.05517 3.44294 0
M  V30 6679 C 641.007 0.0702253 4.49745 0
M  V30 6680 C 642.326 -1.9435 3.94862 0
M  V30 6681 H 639.445 -0.191168 0.711775 0
M  V30 6682 H 642.087 0.204071 1.88901 0
M  V30 6683 H 640.237 -1.68069 3.50264 0
M  V30 6684 H 641.909 0.705834 4.55868 0
M  V30 6685 H 640.152 0.732259 4.27575 0
M  V30 6686 H 640.823 -0.338642 5.5096 0
M  V30 6687 H 643.299 -1.41658 3.91244 0
M  V30 6688 H 642.175 -2.28015 4.993 0
M  V30 6689 H 642.436 -2.87299 3.36024 0
M  V30 6690 N 641.495 -1.56914 -0.146875 0
M  V30 6691 C 642.458 -1.97368 -1.16526 0
M  V30 6692 C 643.458 -0.860223 -1.35856 0
M  V30 6693 O 644.648 -1.12684 -1.32846 0
M  V30 6694 C 641.78 -2.28974 -2.52555 0
M  V30 6695 H 642.973 -2.88523 -0.818209 0
M  V30 6696 H 640.526 -1.5135 -0.390221 0
M  V30 6697 H 641.261 -1.40611 -2.92231 0
M  V30 6698 H 641.046 -3.10157 -2.39886 0
M  V30 6699 H 642.536 -2.61109 -3.25902 0
M  V30 6700 N 642.974 0.416227 -1.52004 0
M  V30 6701 C 644.22 1.16555 -1.6596 0
M  V30 6702 C 644.553 1.90347 -0.384906 0
M  V30 6703 O 643.828 1.84474 0.616405 0
M  V30 6704 C 644.111 2.1657 -2.87696 0
M  V30 6705 C 643.964 1.46722 -4.25197 0
M  V30 6706 C 645.283 3.17321 -3.04951 0
M  V30 6707 H 642.402 0.422369 -0.603965 0
M  V30 6708 H 645.044 0.452141 -1.84542 0
M  V30 6709 H 643.194 2.77411 -2.71985 0
M  V30 6710 H 644.866 0.89056 -4.52622 0
M  V30 6711 H 643.109 0.769263 -4.26925 0
M  V30 6712 H 643.78 2.19665 -5.0641 0
M  V30 6713 H 646.256 2.66552 -3.19514 0
M  V30 6714 H 645.132 3.84573 -3.91656 0
M  V30 6715 H 645.393 3.84643 -2.17951 0
M  V30 6716 N 644.452 1.42507 0.673017 0
M  V30 6717 C 645.868 1.25472 0.986355 0
M  V30 6718 C 646.068 0.160181 2.00862 0
M  V30 6719 O 645.124 -0.467993 2.48125 0
M  V30 6720 C 646.437 2.61219 1.48947 0
M  V30 6721 C 647.985 2.68589 1.60715 0
M  V30 6722 C 648.46 4.04707 2.14422 0
M  V30 6723 N 649.951 4.0667 2.21752 0
M  V30 6724 C 650.686 5.0881 2.64386 0
M  V30 6725 N 650.182 6.21332 3.0646 0
M  V30 6726 N 651.975 4.96166 2.64151 0
M  V30 6727 H 644.126 2.124 -0.00378532 0
M  V30 6728 H 646.389 0.946046 0.0608367 0
M  V30 6729 H 646.095 3.42179 0.812812 0
M  V30 6730 H 645.969 2.85261 2.46791 0
M  V30 6731 H 648.356 1.87974 2.27486 0
M  V30 6732 H 648.437 2.48333 0.613552 0
M  V30 6733 H 648.081 4.8578 1.48258 0
M  V30 6734 H 648.011 4.22315 3.14575 0
M  V30 6735 H 650.502 3.25438 1.92089 0
M  V30 6736 H 650.815 6.95118 3.37684 0
M  V30 6737 H 649.16 6.24835 3.04313 0
M  V30 6738 H 652.351 4.07334 2.30644 0
M  V30 6739 H 652.524 5.759 2.97057 0
M  V30 6740 N 645.93 -0.909495 1.28709 0
M  V30 6741 C 647.207 -1.63865 1.06806 0
M  V30 6742 C 647.587 -2.07445 -0.391143 0
M  V30 6743 O 646.935 -1.82269 -1.37805 0
M  V30 6744 C 647.145 -2.82692 2.04661 0
M  V30 6745 C 648.493 -3.5361 2.35042 0
M  V30 6746 O 649.517 -2.92847 2.02779 0
M  V30 6747 O 648.376 -4.63131 2.90124 0
M  V30 6748 H 645.47 -0.719065 0.408502 0
M  V30 6749 H 648.016 -0.958424 1.40044 0
M  V30 6750 H 646.788 -2.47614 3.0299 0
M  V30 6751 H 646.411 -3.58426 1.72095 0
M  V30 6752 N 647.408 -1.11026 -1.11852 0
M  V30 6753 C 648.656 -0.854769 -1.83134 0
M  V30 6754 C 648.977 0.621375 -1.84835 0
M  V30 6755 O 648.247 1.45129 -1.31584 0
M  V30 6756 H 646.827 -0.313229 -0.678157 0
M  V30 6757 H 649.489 -1.40178 -1.35411 0
M  V30 6758 H 648.585 -1.22311 -2.87135 0
M  V30 6759 N 648.886 1.2938 -0.899927 0
M  V30 6760 C 649.818 2.26737 -0.335139 0
M  V30 6761 C 650.831 1.54316 0.518681 0
M  V30 6762 O 652.02 1.75313 0.335803 0
M  V30 6763 C 649.12 3.34558 0.540774 0
M  V30 6764 C 648.293 4.36455 -0.287372 0
M  V30 6765 C 647.352 5.2361 0.52141 0
M  V30 6766 O 646.378 5.69167 -0.0611735 0
M  V30 6767 N 647.58 5.50985 1.82745 0
M  V30 6768 H 650.345 2.75838 -1.17191 0
M  V30 6769 H 647.906 1.42716 -0.764438 0
M  V30 6770 H 649.898 3.89794 1.08825 0
M  V30 6771 H 648.468 2.85272 1.27823 0
M  V30 6772 H 647.688 3.80875 -1.01626 0
M  V30 6773 H 648.976 5.01573 -0.854518 0
M  V30 6774 H 648.374 5.15781 2.32349 0
M  V30 6775 H 646.931 6.09036 2.32204 0
M  V30 6776 N 650.364 0.662433 1.43002 0
M  V30 6777 C 651.611 0.179591 2.01702 0
M  V30 6778 C 651.939 -1.20964 1.52309 0
M  V30 6779 O 651.194 -1.82343 0.7106 0
M  V30 6780 C 651.493 0.149363 3.57088 0
M  V30 6781 C 651.159 1.48158 4.25864 0
M  V30 6782 C 649.821 1.84638 4.44367 0
M  V30 6783 C 652.173 2.35953 4.64732 0
M  V30 6784 C 649.501 3.08561 4.99006 0
M  V30 6785 C 651.853 3.59176 5.20745 0
M  V30 6786 C 650.517 3.95841 5.37463 0
M  V30 6787 H 649.787 0.0657172 0.73808 0
M  V30 6788 H 652.434 0.854968 1.71355 0
M  V30 6789 H 650.739 -0.609491 3.8703 0
M  V30 6790 H 652.436 -0.241241 4.00274 0
M  V30 6791 H 649.026 1.18777 4.11813 0
M  V30 6792 H 653.21 2.09058 4.50121 0
M  V30 6793 H 648.466 3.37005 5.10135 0
M  V30 6794 H 652.64 4.27417 5.49807 0
M  V30 6795 H 650.267 4.91942 5.79566 0
M  V30 6796 N 651.842 -1.52309 0.404946 0
M  V30 6797 C 653.088 -2.02065 -0.172455 0
M  V30 6798 C 653.421 -1.29022 -1.45145 0
M  V30 6799 O 652.696 -0.395284 -1.90441 0
M  V30 6800 C 652.979 -3.5759 -0.424433 0
M  V30 6801 C 652.832 -4.41287 0.870945 0
M  V30 6802 C 654.151 -4.23186 -1.20837 0
M  V30 6803 H 651.27 -0.734454 -0.0612035 0
M  V30 6804 H 653.912 -1.82236 0.53759 0
M  V30 6805 H 652.062 -3.74617 -1.02929 0
M  V30 6806 H 653.734 -4.3598 1.50729 0
M  V30 6807 H 651.977 -4.07669 1.48284 0
M  V30 6808 H 652.648 -5.48171 0.649083 0
M  V30 6809 H 655.124 -4.10232 -0.696338 0
M  V30 6810 H 654 -5.31953 -1.35343 0
M  V30 6811 H 654.261 -3.81862 -2.22786 0
M  V30 6812 N 653.32 -0.135238 -1.57019 0
M  V30 6813 C 654.568 0.51777 -1.95355 0
M  V30 6814 C 654.889 1.6617 -1.02042 0
M  V30 6815 O 654.159 1.95738 -0.0797343 0
M  V30 6816 H 652.739 0.194264 -0.721298 0
M  V30 6817 H 655.401 -0.207983 -1.93787 0
M  V30 6818 H 654.497 0.901675 -2.98791 0
M  V30 6819 N 654.798 1.5699 0.138552 0
M  V30 6820 C 655.708 2.02174 1.19008 0
M  V30 6821 C 656.724 0.938622 1.46512 0
M  V30 6822 O 657.9 1.24872 1.58016 0
M  V30 6823 C 654.965 2.40045 2.50159 0
M  V30 6824 C 654.026 3.62346 2.30226 0
M  V30 6825 C 653.259 3.98401 3.55123 0
M  V30 6826 O 653.482 3.35019 4.61647 0
M  V30 6827 O 652.416 4.91606 3.47285 0
M  V30 6828 H 656.242 2.91954 0.836452 0
M  V30 6829 H 653.827 1.45293 0.347907 0
M  V30 6830 H 655.709 2.65225 3.27465 0
M  V30 6831 H 654.384 1.53417 2.85035 0
M  V30 6832 H 653.291 3.42341 1.50843 0
M  V30 6833 H 654.624 4.49617 2.00262 0
M  V30 6834 N 656.276 -0.40816 1.52223 0
M  V30 6835 C 657.223 -1.49737 1.75635 0
M  V30 6836 C 658.193 -1.5493 0.598824 0
M  V30 6837 O 659.378 -1.71487 0.83648 0
M  V30 6838 C 656.518 -2.87174 1.91376 0
M  V30 6839 C 655.631 -2.91283 3.19027 0
M  V30 6840 C 654.766 -4.20026 3.25195 0
M  V30 6841 C 653.805 -4.18113 4.47044 0
M  V30 6842 N 652.942 -5.38429 4.50598 0
M  V30 6843 H 657.782 -1.29075 2.68596 0
M  V30 6844 H 655.319 -0.626518 1.33091 0
M  V30 6845 H 657.277 -3.66959 1.98486 0
M  V30 6846 H 655.907 -3.06329 1.01795 0
M  V30 6847 H 654.959 -2.03984 3.21084 0
M  V30 6848 H 656.271 -2.85734 4.08849 0
M  V30 6849 H 655.425 -5.08204 3.31382 0
M  V30 6850 H 654.164 -4.28271 2.33313 0
M  V30 6851 H 653.169 -3.28325 4.41002 0
M  V30 6852 H 654.394 -4.11507 5.40221 0
M  V30 6853 H 652.34 -5.4734 3.616 0
M  V30 6854 H 652.257 -5.34879 5.34266 0
M  V30 6855 H 653.525 -6.28557 4.61016 0
M  V30 6856 N 657.755 -1.42862 -0.66545 0
M  V30 6857 C 659.003 -1.43546 -1.42264 0
M  V30 6858 C 659.324 -0.0563116 -1.94919 0
M  V30 6859 O 658.594 0.906568 -1.73661 0
M  V30 6860 H 657.174 -0.528464 -0.527953 0
M  V30 6861 H 659.836 -1.78363 -0.785665 0
M  V30 6862 H 658.932 -2.14079 -2.27105 0
M  V30 6863 N 659.233 0.902656 -1.29189 0
M  V30 6864 C 660.479 1.6555 -1.18172 0
M  V30 6865 C 660.834 1.90569 0.264788 0
M  V30 6866 O 660.127 1.50292 1.1884 0
M  V30 6867 C 660.321 3.011 -1.92545 0
M  V30 6868 C 660.15 2.89312 -3.4428 0
M  V30 6869 C 658.92 2.90239 -4.1363 0
M  V30 6870 C 661.118 2.6656 -4.3983 0
M  V30 6871 N 659.1 2.69156 -5.5175 0
M  V30 6872 C 660.471 2.54429 -5.6539 0
M  V30 6873 C 662.526 2.51644 -4.29627 0
M  V30 6874 C 661.229 2.289 -6.81907 0
M  V30 6875 C 663.255 2.27498 -5.45892 0
M  V30 6876 C 662.617 2.16129 -6.70423 0
M  V30 6877 H 658.716 0.611519 -0.48741 0
M  V30 6878 H 661.3 1.06514 -1.62981 0
M  V30 6879 H 659.471 3.58202 -1.50154 0
M  V30 6880 H 661.203 3.65471 -1.73818 0
M  V30 6881 H 657.958 3.01412 -3.65305 0
M  V30 6882 H 658.382 2.61676 -6.24383 0
M  V30 6883 H 663.024 2.59178 -3.34045 0
M  V30 6884 H 660.742 2.20104 -7.77547 0
M  V30 6885 H 664.328 2.16805 -5.39895 0
M  V30 6886 H 663.208 1.97703 -7.5887 0
M  V30 6887 N 660.711 1.11618 1.11262 0
M  V30 6888 C 661.959 0.864469 1.82678 0
M  V30 6889 C 662.28 -0.611564 1.85162 0
M  V30 6890 O 661.55 -1.44429 1.32352 0
M  V30 6891 H 660.13 0.316821 0.676486 0
M  V30 6892 H 662.792 1.40894 1.34666 0
M  V30 6893 H 661.888 1.23832 2.86482 0
M  V30 6894 N 662.189 -1.289 0.906776 0
M  V30 6895 C 663.136 -2.2751 0.388313 0
M  V30 6896 C 664.106 -1.57301 -0.533439 0
M  V30 6897 O 665.291 -1.85243 -0.457148 0
M  V30 6898 C 662.431 -3.43091 -0.37181 0
M  V30 6899 C 661.544 -4.28066 0.581647 0
M  V30 6900 C 660.679 -5.30837 -0.19623 0
M  V30 6901 C 659.718 -6.07472 0.751294 0
M  V30 6902 N 658.855 -7.021 0.00737727 0
M  V30 6903 H 663.695 -2.71237 1.23428 0
M  V30 6904 H 661.232 -1.33397 0.619962 0
M  V30 6905 H 663.19 -4.08888 -0.828641 0
M  V30 6906 H 661.82 -3.00374 -1.18218 0
M  V30 6907 H 660.872 -3.62378 1.157 0
M  V30 6908 H 662.184 -4.81382 1.30665 0
M  V30 6909 H 661.338 -6.02485 -0.71394 0
M  V30 6910 H 660.077 -4.78272 -0.954324 0
M  V30 6911 H 659.082 -5.34682 1.28044 0
M  V30 6912 H 660.307 -6.62126 1.50883 0
M  V30 6913 H 658.253 -6.51894 -0.732854 0
M  V30 6914 H 658.17 -7.53004 0.672334 0
M  V30 6915 H 659.438 -7.77956 -0.490365 0
M  V30 6916 N 663.667 -0.670007 -1.42649 0
M  V30 6917 C 664.597 -0.00258501 -2.335 0
M  V30 6918 C 665.578 0.794364 -1.50412 0
M  V30 6919 O 666.763 0.75248 -1.79029 0
M  V30 6920 C 663.893 0.952748 -3.33976 0
M  V30 6921 C 662.847 0.264733 -4.2718 0
M  V30 6922 C 662.173 1.33267 -5.17826 0
M  V30 6923 C 663.473 -0.853289 -5.15283 0
M  V30 6924 H 665.167 -0.761326 -2.89559 0
M  V30 6925 H 662.713 -0.367561 -1.3923 0
M  V30 6926 H 664.666 1.4287 -3.96442 0
M  V30 6927 H 663.39 1.74285 -2.7621 0
M  V30 6928 H 662.049 -0.190938 -3.66102 0
M  V30 6929 H 661.697 2.11464 -4.5639 0
M  V30 6930 H 661.397 0.877476 -5.81011 0
M  V30 6931 H 662.921 1.80965 -5.83167 0
M  V30 6932 H 664.335 -0.458763 -5.71462 0
M  V30 6933 H 662.732 -1.23398 -5.87276 0
M  V30 6934 H 663.802 -1.70412 -4.53969 0
M  V30 6935 N 665.145 1.52092 -0.413018 0
M  V30 6936 C 666.075 2.30021 0.401567 0
M  V30 6937 C 667.056 1.34395 1.04269 0
M  V30 6938 O 668.241 1.63304 1.05097 0
M  V30 6939 C 665.371 3.12447 1.51638 0
M  V30 6940 C 664.325 4.16153 1.00005 0
M  V30 6941 C 663.651 4.86948 2.20875 0
M  V30 6942 C 664.951 5.22275 0.0513757 0
M  V30 6943 H 666.645 2.98365 -0.248704 0
M  V30 6944 H 664.191 1.4349 -0.121052 0
M  V30 6945 H 666.144 3.65733 2.09326 0
M  V30 6946 H 664.868 2.41879 2.19458 0
M  V30 6947 H 663.527 3.63882 0.445549 0
M  V30 6948 H 663.175 4.12905 2.8726 0
M  V30 6949 H 662.875 5.57057 1.86978 0
M  V30 6950 H 664.399 5.43048 2.79162 0
M  V30 6951 H 665.813 5.70778 0.537176 0
M  V30 6952 H 664.21 5.9977 -0.198977 0
M  V30 6953 H 665.28 4.76611 -0.892736 0
M  V30 6954 N 666.623 0.143563 1.56945 0
M  V30 6955 C 668.039 -0.212877 1.58174 0
M  V30 6956 C 668.239 -1.64926 1.15766 0
M  V30 6957 O 667.295 -2.37535 0.856361 0
M  V30 6958 C 668.608 0.0427573 3.0067 0
M  V30 6959 C 670.156 -0.0212221 3.12993 0
M  V30 6960 C 670.631 0.207036 4.57532 0
M  V30 6961 N 672.122 0.153845 4.62944 0
M  V30 6962 C 672.857 0.305018 5.72588 0
M  V30 6963 N 672.353 0.513722 6.90893 0
M  V30 6964 N 674.146 0.242862 5.61575 0
M  V30 6965 H 666.297 1.08148 1.82805 0
M  V30 6966 H 668.56 0.427831 0.84597 0
M  V30 6967 H 668.266 1.03672 3.36073 0
M  V30 6968 H 668.14 -0.678195 3.71053 0
M  V30 6969 H 670.527 -1.00574 2.77433 0
M  V30 6970 H 670.608 0.732004 2.45103 0
M  V30 6971 H 670.252 1.18863 4.93795 0
M  V30 6972 H 670.182 -0.566473 5.23544 0
M  V30 6973 H 672.673 -0.00294866 3.779 0
M  V30 6974 H 672.986 0.619273 7.70315 0
M  V30 6975 H 671.331 0.550001 6.9282 0
M  V30 6976 H 674.522 0.0806015 4.68031 0
M  V30 6977 H 674.695 0.364112 6.46976 0
M  V30 6978 N 668.101 -1.57061 -0.130224 0
M  V30 6979 C 669.517 -1.52103 -0.483413 0
M  V30 6980 C 669.717 -0.854752 -1.82473 0
M  V30 6981 O 668.773 -0.432342 -2.48771 0
M  V30 6982 C 670.086 -2.96872 -0.47825 0
M  V30 6983 C 671.634 -3.07902 -0.562592 0
M  V30 6984 C 672.109 -4.54211 -0.587929 0
M  V30 6985 N 673.6 -4.58621 -0.649684 0
M  V30 6986 C 674.335 -5.69227 -0.690551 0
M  V30 6987 N 673.831 -6.89358 -0.689743 0
M  V30 6988 N 675.624 -5.57304 -0.732708 0
M  V30 6989 H 667.775 -1.98764 0.748779 0
M  V30 6990 H 670.038 -0.907248 0.274965 0
M  V30 6991 H 669.744 -3.48944 0.439444 0
M  V30 6992 H 669.618 -3.53716 -1.31013 0
M  V30 6993 H 672.005 -2.5584 -1.47071 0
M  V30 6994 H 672.086 -2.54073 0.296764 0
M  V30 6995 H 671.73 -5.06915 0.316096 0
M  V30 6996 H 671.66 -5.0584 -1.46401 0
M  V30 6997 H 674.151 -3.72146 -0.656927 0
M  V30 6998 H 674.464 -7.69408 -0.723239 0
M  V30 6999 H 672.809 -6.91884 -0.657347 0
M  V30 7000 H 676 -4.62363 -0.730625 0
M  V30 7001 H 676.173 -6.43515 -0.76109 0
M  V30 7002 N 669.579 0.400081 -1.52437 0
M  V30 7003 C 670.489 1.51253 -1.79331 0
M  V30 7004 C 671.505 1.60188 -0.679396 0
M  V30 7005 O 672.681 1.76733 -0.965791 0
M  V30 7006 C 669.746 2.869 -1.94652 0
M  V30 7007 C 668.807 2.87777 -3.18564 0
M  V30 7008 C 668.04 4.16954 -3.33145 0
M  V30 7009 O 668.263 5.11329 -2.52783 0
M  V30 7010 O 667.197 4.2487 -4.26343 0
M  V30 7011 H 671.023 1.31461 -2.73773 0
M  V30 7012 H 668.608 0.586834 -1.37392 0
M  V30 7013 H 670.49 3.67336 -2.065 0
M  V30 7014 H 669.165 3.06741 -1.034 0
M  V30 7015 H 668.072 2.06162 -3.12167 0
M  V30 7016 H 669.405 2.72886 -4.09627 0
M  V30 7017 N 671.057 1.43213 0.657864 0
M  V30 7018 C 672.468 1.39669 1.23893 0
M  V30 7019 C 672.819 0.0984217 1.95953 0
M  V30 7020 O 671.944 -0.8023 2.00978 0
M  V30 7021 C 672.539 2.53004 2.25332 0
M  V30 7022 C 671.098 2.5274 2.78926 0
M  V30 7023 C 670.245 2.30941 1.53497 0
M  V30 7024 H 673.196 1.52181 0.450172 0
M  V30 7025 H 673.217 2.24226 3.07413 0
M  V30 7026 H 672.729 3.4748 1.72856 0
M  V30 7027 H 670.83 1.6213 3.35477 0
M  V30 7028 H 670.943 3.50352 3.26787 0
M  V30 7029 H 669.307 1.7952 1.80678 0
M  V30 7030 H 670.09 3.27496 1.02963 0
M  V30 7031 N 672.536 -0.895792 1.29666 0
M  V30 7032 C 673.469 -2.00238 1.09453 0
M  V30 7033 C 674.447 -1.62599 0.00527044 0
M  V30 7034 O 675.631 -1.87847 0.156729 0
M  V30 7035 C 672.758 -3.32066 0.667054 0
M  V30 7036 C 671.804 -3.88691 1.7556 0
M  V30 7037 S 672.637 -4.17317 3.35569 0
M  V30 7038 C 673.793 -5.52181 2.94698 0
M  V30 7039 H 674.026 -2.17076 2.03138 0
M  V30 7040 H 671.559 -1.04287 1.13858 0
M  V30 7041 H 673.517 -4.08272 0.427136 0
M  V30 7042 H 672.178 -3.13101 -0.250256 0
M  V30 7043 H 671.371 -4.83918 1.40853 0
M  V30 7044 H 670.973 -3.19187 1.94924 0
M  V30 7045 H 673.265 -6.3281 2.41986 0
M  V30 7046 H 674.208 -5.91817 3.88791 0
M  V30 7047 H 674.616 -5.14225 2.32879 0
M  V30 7048 N 674.014 -1.12206 -1.10668 0
M  V30 7049 C 675.244 -0.897332 -1.86095 0
M  V30 7050 C 675.652 0.556778 -1.80822 0
M  V30 7051 O 674.995 1.39658 -1.19337 0
M  V30 7052 C 675.057 -1.29095 -3.35522 0
M  V30 7053 C 674.721 -2.75586 -3.64556 0
M  V30 7054 C 675.718 -3.73785 -3.6136 0
M  V30 7055 C 673.403 -3.12432 -3.93309 0
M  V30 7056 C 675.397 -5.06845 -3.86506 0
M  V30 7057 C 673.084 -4.45675 -4.18111 0
M  V30 7058 C 674.082 -5.42691 -4.147 0
M  V30 7059 O 673.77 -6.73532 -4.38873 0
M  V30 7060 H 673.502 -0.320704 -0.595084 0
M  V30 7061 H 676.056 -1.49517 -1.40833 0
M  V30 7062 H 674.286 -0.636299 -3.81429 0
M  V30 7063 H 675.975 -1.04073 -3.92331 0
M  V30 7064 H 676.741 -3.46664 -3.39189 0
M  V30 7065 H 672.62 -2.3753 -3.95096 0
M  V30 7066 H 676.164 -5.82559 -3.83758 0
M  V30 7067 H 672.061 -4.72526 -4.39761 0
M  V30 7068 H 672.829 -6.79442 -4.564 0
M  V30 7069 N 675.492 1.28418 -0.913599 0
M  V30 7070 C 676.739 1.94981 -0.546674 0
M  V30 7071 C 677.067 1.7192 0.909606 0
M  V30 7072 O 676.322 1.03314 1.66207 0
M  V30 7073 C 676.621 3.48283 -0.802099 0
M  V30 7074 C 676.287 3.91444 -2.2379 0
M  V30 7075 C 674.949 4.02939 -2.63046 0
M  V30 7076 C 677.301 4.13542 -3.17227 0
M  V30 7077 C 674.629 4.3391 -3.94891 0
M  V30 7078 C 676.981 4.45992 -4.48636 0
M  V30 7079 C 675.645 4.55698 -4.87746 0
M  V30 7080 H 674.915 0.713487 -0.200042 0
M  V30 7081 H 677.562 1.52756 -1.15489 0
M  V30 7082 H 675.867 3.91643 -0.111076 0
M  V30 7083 H 677.564 3.97903 -0.497375 0
M  V30 7084 H 674.154 3.83024 -1.9233 0
M  V30 7085 H 678.338 4.04114 -2.88107 0
M  V30 7086 H 673.594 4.39631 -4.24894 0
M  V30 7087 H 677.768 4.62038 -5.21051 0
M  V30 7088 H 675.395 4.79451 -5.89942 0
M  V30 7089 O 677.009 0.816646 1.39331 0
M  V30 7090 H 677.7 0.396491 1.89599 0
M  V30 END ATOM
M  V30 BEGIN BOND
M  V30 END BOND
M  V30 END CTAB
M  END
$$$$
