drugbank_target|Q7WUJ1 Myo-inositol hexaphosphate phosphohydrolase (DB01666)
 OpenBabel12092120223D

  0  0  0     0  0            999 V3000
M  V30 BEGIN CTAB
M  V30 COUNTS 5542 5624 0 0 0
M  V30 BEGIN ATOM
M  V30 1 H -0.908 1.98254 -0.117106 0
M  V30 2 N 0 1.576 0 0
M  V30 3 C 0.933 2.03868 1.02534 0
M  V30 4 C 1.911 0.928543 1.3348 0
M  V30 5 O 3.095 1.19667 1.45644 0
M  V30 6 C 0.222 2.43627 2.35294 0
M  V30 7 C -0.732 3.65373 2.2001 0
M  V30 8 S 0.101 5.13292 1.52614 0
M  V30 9 C 1.257 5.56322 2.86805 0
M  V30 10 H 1.49 2.90518 0.631377 0
M  V30 11 H -0.977 1.52953 0.210867 0
M  V30 12 H 0.981 2.67203 3.11629 0
M  V30 13 H -0.358 1.57376 2.7183 0
M  V30 14 H -1.165 3.90944 3.18086 0
M  V30 15 H -1.563 3.418 1.51819 0
M  V30 16 H 0.729 5.58782 3.83104 0
M  V30 17 H 1.672 6.56266 2.65933 0
M  V30 18 H 2.08 4.83886 2.90714 0
M  V30 19 N 1.4781 -0.272755 1.55222 0
M  V30 20 C 2.4251 -1.33716 1.88119 0
M  V30 21 C 3.3951 -1.49066 0.73271 0
M  V30 22 O 4.5801 -1.63469 0.984002 0
M  V30 23 C 1.7201 -2.69238 2.15882 0
M  V30 24 C 0.8331 -2.62108 3.43399 0
M  V30 25 C -0.0319 -3.89811 3.60861 0
M  V30 26 C -0.9929 -3.77193 4.8207 0
M  V30 27 N -1.8559 -4.9673 4.96189 0
M  V30 28 H 2.9841 -1.04962 2.78903 0
M  V30 29 H 0.5211 -0.507088 1.38083 0
M  V30 30 H 2.4791 -3.48089 2.29978 0
M  V30 31 H 1.1091 -2.96194 1.28331 0
M  V30 32 H 0.1611 -1.74967 3.37773 0
M  V30 33 H 1.4731 -2.48685 4.32386 0
M  V30 34 H 0.6271 -4.77103 3.74777 0
M  V30 35 H -0.6339 -4.06102 2.7006 0
M  V30 36 H -1.6289 -2.88284 4.68159 0
M  V30 37 H -0.4039 -3.62421 5.74307 0
M  V30 38 H -2.4579 -5.13431 4.08319 0
M  V30 39 H -2.5409 -4.85839 5.79221 0
M  V30 40 H -1.2729 -5.85594 5.1449 0
M  V30 41 N 2.9562 -1.48159 -0.537278 0
M  V30 42 C 4.1862 -1.59223 -1.3165 0
M  V30 43 C 4.5942 -0.248849 -1.87556 0
M  V30 44 O 3.9372 0.770949 -1.6674 0
M  V30 45 C 3.9992 -2.57365 -2.51005 0
M  V30 46 C 3.6632 -4.02603 -2.16239 0
M  V30 47 C 4.6602 -4.90503 -1.72344 0
M  V30 48 C 2.3452 -4.48088 -2.26986 0
M  V30 49 C 4.3392 -6.21913 -1.39651 0
M  V30 50 C 2.0262 -5.7952 -1.93906 0
M  V30 51 C 3.0242 -6.66255 -1.50309 0
M  V30 52 O 2.7122 -7.95243 -1.17659 0
M  V30 53 H 2.4442 -0.539831 -0.406889 0
M  V30 54 H 4.9982 -1.94655 -0.655641 0
M  V30 55 H 3.2282 -2.1704 -3.20048 0
M  V30 56 H 4.9172 -2.58342 -3.13072 0
M  V30 57 H 5.6832 -4.56604 -1.63517 0
M  V30 58 H 1.5622 -3.80769 -2.59877 0
M  V30 59 H 5.1062 -6.89569 -1.0555 0
M  V30 60 H 1.0032 -6.12957 -2.02371 0
M  V30 61 H 1.7712 -8.0793 -1.31119 0
M  V30 62 N 4.4343 0.785586 -1.36625 0
M  V30 63 C 5.6803 1.5452 -1.32269 0
M  V30 64 C 6.0353 1.92159 0.0962266 0
M  V30 65 O 5.3283 1.60158 1.05167 0
M  V30 66 C 5.5223 2.83007 -2.1827 0
M  V30 67 C 5.3513 2.57925 -3.68382 0
M  V30 68 C 4.1213 2.52752 -4.37544 0
M  V30 69 C 6.3193 2.26861 -4.61561 0
M  V30 70 N 4.3013 2.19608 -5.73276 0
M  V30 71 C 5.6723 2.03738 -5.85569 0
M  V30 72 C 7.7273 2.129 -4.50087 0
M  V30 73 C 6.4303 1.68065 -6.9939 0
M  V30 74 C 8.4563 1.78626 -5.63779 0
M  V30 75 C 7.8183 1.56353 -6.86828 0
M  V30 76 H 3.9173 0.566301 -0.539283 0
M  V30 77 H 6.5013 0.917736 -1.71714 0
M  V30 78 H 4.6723 3.43614 -1.81063 0
M  V30 79 H 6.4043 3.48775 -2.05275 0
M  V30 80 H 3.1593 2.6813 -3.90389 0
M  V30 81 H 3.5833 2.05771 -6.44971 0
M  V30 82 H 8.2253 2.28808 -3.55537 0
M  V30 83 H 5.9433 1.50895 -7.93887 0
M  V30 84 H 9.5293 1.68502 -5.56865 0
M  V30 85 H 8.4093 1.30223 -7.73312 0
M  V30 86 N 5.9124 1.20967 1.01018 0
M  V30 87 C 6.8444 0.922059 2.09835 0
M  V30 88 C 7.8574 -0.0927106 1.62536 0
M  V30 89 O 9.0464 0.139127 1.77957 0
M  V30 90 C 6.1464 0.362004 3.36961 0
M  V30 91 C 5.3194 1.42986 4.13369 0
M  V30 92 C 4.3784 0.879976 5.1879 0
M  V30 93 O 3.4044 1.56219 5.47343 0
M  V30 94 N 4.6064 -0.307396 5.79686 0
M  V30 95 H 7.3714 1.8588 2.35093 0
M  V30 96 H 4.9324 1.11422 1.1746 0
M  V30 97 H 6.9244 -0.0201474 4.04695 0
M  V30 98 H 5.4944 -0.479437 3.08902 0
M  V30 99 H 4.7144 1.98608 3.40512 0
M  V30 100 H 6.0024 2.14885 4.61196 0
M  V30 101 H 5.4004 -0.878796 5.58832 0
M  V30 102 H 3.9574 -0.631115 6.48737 0
M  V30 103 N 7.3905 -1.2043 1.01659 0
M  V30 104 C 8.3375 -2.23215 0.586822 0
M  V30 105 C 9.3075 -1.61382 -0.393085 0
M  V30 106 O 10.4925 -1.88544 -0.292525 0
M  V30 107 C 7.6325 -3.45032 -0.0687464 0
M  V30 108 C 6.7455 -4.21296 0.955724 0
M  V30 109 C 5.8805 -5.30507 0.271208 0
M  V30 110 C 4.9195 -5.98515 1.28244 0
M  V30 111 N 4.0565 -6.99316 0.62459 0
M  V30 112 H 8.8965 -2.59336 1.46796 0
M  V30 113 H 6.4335 -1.27431 0.734836 0
M  V30 114 H 8.3915 -4.1459 -0.465965 0
M  V30 115 H 7.0215 -3.09604 -0.913529 0
M  V30 116 H 6.0735 -3.50803 1.4711 0
M  V30 117 H 7.3855 -4.6803 1.72479 0
M  V30 118 H 6.5395 -6.06428 -0.18151 0
M  V30 119 H 5.2785 -4.8481 -0.530163 0
M  V30 120 H 4.2835 -5.21355 1.74554 0
M  V30 121 H 5.5085 -6.46298 2.08509 0
M  V30 122 H 3.4545 -6.55812 -0.156914 0
M  V30 123 H 3.3715 -7.44178 1.33172 0
M  V30 124 H 4.6395 -7.79255 0.195462 0
M  V30 125 N 8.8686 -0.792821 -1.36206 0
M  V30 126 C 9.8186 -0.166598 -2.27391 0
M  V30 127 C 10.8026 0.651479 -1.47121 0
M  V30 128 O 11.9946 0.510994 -1.69463 0
M  V30 129 C 9.1236 0.695033 -3.36191 0
M  V30 130 C 8.2096 -0.132019 -4.23894 0
M  V30 131 N 8.6006 -1.18822 -4.91645 0
M  V30 132 C 6.8986 0.0885952 -4.45912 0
M  V30 133 C 7.5996 -1.69198 -5.56549 0
M  V30 134 N 6.5756 -1.00065 -5.34311 0
M  V30 135 H 10.3776 -0.974947 -2.77258 0
M  V30 136 H 7.8916 -0.632616 -1.49572 0
M  V30 137 H 9.8886 1.1596 -4.00448 0
M  V30 138 H 8.5486 1.50189 -2.87877 0
M  V30 139 H 9.5596 -1.57069 -4.93507 0
M  V30 140 H 6.2366 0.865688 -4.08426 0
M  V30 141 H 7.6266 -2.57395 -6.20643 0
M  V30 142 N 10.3467 1.47872 -0.545128 0
M  V30 143 C 11.3097 2.28337 0.198717 0
M  V30 144 C 12.3097 1.36255 0.853888 0
M  V30 145 O 13.4997 1.59003 0.711606 0
M  V30 146 C 10.6317 3.15585 1.28915 0
M  V30 147 H 11.8247 2.95567 -0.507941 0
M  V30 148 H 9.3777 1.53362 -0.301616 0
M  V30 149 H 10.1127 2.53019 2.02859 0
M  V30 150 H 9.8977 3.83337 0.824309 0
M  V30 151 H 11.3877 3.76243 1.81194 0
M  V30 152 N 11.8248 0.280983 1.55075 0
M  V30 153 C 13.0708 -0.33461 2.00021 0
M  V30 154 C 13.4038 -1.55063 1.16915 0
M  V30 155 O 12.6788 -1.93006 0.240646 0
M  V30 156 C 12.9618 -0.711007 3.53011 0
M  V30 157 C 12.8148 0.512766 4.46868 0
M  V30 158 C 14.1338 -1.54522 4.12081 0
M  V30 159 H 11.2528 -0.120147 0.727141 0
M  V30 160 H 13.8948 0.389097 1.85973 0
M  V30 161 H 12.0448 -1.32761 3.65112 0
M  V30 162 H 13.7168 1.15131 4.46702 0
M  V30 163 H 11.9598 1.14975 4.18286 0
M  V30 164 H 12.6308 0.205556 5.51617 0
M  V30 165 H 15.1068 -1.02442 4.03293 0
M  V30 166 H 13.9828 -1.77739 5.19327 0
M  V30 167 H 14.2438 -2.52813 3.62682 0
M  V30 168 N 13.3029 -1.57598 0.00835791 0
M  V30 169 C 14.2329 -2.1198 -0.979113 0
M  V30 170 C 15.2139 -1.03091 -1.35301 0
M  V30 171 O 16.3989 -1.30818 -1.43528 0
M  V30 172 C 13.5289 -2.62995 -2.26828 0
M  V30 173 C 12.4829 -3.76485 -2.03576 0
M  V30 174 C 11.8089 -4.13846 -3.38579 0
M  V30 175 C 13.1089 -5.0342 -1.39161 0
M  V30 176 H 14.8029 -2.94738 -0.526281 0
M  V30 177 H 12.3489 -1.41783 -0.251704 0
M  V30 178 H 14.3019 -2.99669 -2.96271 0
M  V30 179 H 13.0259 -1.7737 -2.7424 0
M  V30 180 H 11.6849 -3.40217 -1.36557 0
M  V30 181 H 11.3329 -3.25232 -3.83709 0
M  V30 182 H 11.0329 -4.90312 -3.23834 0
M  V30 183 H 12.5569 -4.53086 -4.09323 0
M  V30 184 H 13.9709 -5.37812 -1.98573 0
M  V30 185 H 12.3679 -5.84746 -1.34878 0
M  V30 186 H 13.4379 -4.83548 -0.361868 0
M  V30 187 N 14.781 0.264519 -1.55364 0
M  V30 188 C 16.021 1.00254 -1.78125 0
M  V30 189 C 16.385 1.83187 -0.575017 0
M  V30 190 O 17.586 2.60029 -0.681042 0
M  V30 191 C 15.857 1.85478 -3.05504 0
M  V30 192 S 17.416 2.6543 -3.49417 0
M  V30 193 H 14.234 0.337522 -0.625779 0
M  V30 194 H 16.836 0.272111 -1.93597 0
M  V30 195 H 15.54 1.23491 -3.9138 0
M  V30 196 H 15.071 2.62827 -2.92721 0
M  V30 197 H 17.086 3.87958 -3.09359 0
M  V30 198 N 16.2591 1.48442 0.529413 0
M  V30 199 C 17.4841 1.60406 1.31471 0
M  V30 200 C 17.9091 0.264738 1.86228 0
M  V30 201 O 17.2671 -0.763668 1.64432 0
M  V30 202 C 17.3151 2.65419 2.44101 0
M  V30 203 O 16.4191 2.22618 3.47153 0
M  V30 204 H 15.7601 0.537863 0.389357 0
M  V30 205 H 18.2901 1.94432 0.636965 0
M  V30 206 H 18.3001 2.86709 2.90279 0
M  V30 207 H 16.9751 3.62652 2.03608 0
M  V30 208 H 15.5521 2.11543 3.0709 0
M  V30 209 N 17.7372 -0.778329 1.37039 0
M  V30 210 C 18.6672 -1.90546 1.34962 0
M  V30 211 C 19.6482 -1.68681 0.219274 0
M  V30 212 O 20.8332 -1.89634 0.418624 0
M  V30 213 C 17.9632 -3.27734 1.14925 0
M  V30 214 C 16.9172 -3.64147 2.24902 0
M  V30 215 C 16.2432 -4.99806 1.89996 0
M  V30 216 C 17.5432 -3.71579 3.67051 0
M  V30 217 H 19.2372 -1.92541 2.29277 0
M  V30 218 H 16.7832 -0.924948 1.10366 0
M  V30 219 H 18.7362 -4.06215 1.12104 0
M  V30 220 H 17.4602 -3.26154 0.170631 0
M  V30 221 H 16.1192 -2.8797 2.26868 0
M  V30 222 H 15.7672 -4.94759 0.906796 0
M  V30 223 H 15.4672 -5.25139 2.63634 0
M  V30 224 H 16.9912 -5.80694 1.88749 0
M  V30 225 H 18.4052 -4.40227 3.67251 0
M  V30 226 H 16.8022 -4.08405 4.39688 0
M  V30 227 H 17.8722 -2.72404 4.01154 0
M  V30 228 N 19.2153 -1.21501 -1.00376 0
M  V30 229 C 20.1453 -0.999478 -2.11028 0
M  V30 230 C 21.1263 0.0759671 -1.6993 0
M  V30 231 O 22.3113 -0.0841106 -1.94018 0
M  V30 232 C 19.4413 -0.564709 -3.42678 0
M  V30 233 C 18.3953 -1.58486 -3.97576 0
M  V30 234 C 17.7213 -1.00628 -5.25146 0
M  V30 235 C 19.0213 -2.97204 -4.29496 0
M  V30 236 H 20.7153 -1.92495 -2.29317 0
M  V30 237 H 18.2613 -0.92693 -1.102 0
M  V30 238 H 20.2143 -0.401091 -4.19487 0
M  V30 239 H 18.9383 0.396411 -3.24185 0
M  V30 240 H 17.5973 -1.73606 -3.22888 0
M  V30 241 H 17.2453 -0.0368439 -5.02987 0
M  V30 242 H 16.9453 -1.68771 -5.62841 0
M  V30 243 H 18.4693 -0.854015 -6.04598 0
M  V30 244 H 19.8833 -2.8552 -4.97143 0
M  V30 245 H 18.2803 -3.62372 -4.78338 0
M  V30 246 H 19.3503 -3.47956 -3.3772 0
M  V30 247 N 20.6934 1.19889 -1.02296 0
M  V30 248 C 21.9394 1.89701 -0.717033 0
M  V30 249 C 22.2724 1.7905 0.751989 0
M  V30 250 O 21.5474 1.17891 1.547 0
M  V30 251 C 21.8304 3.40858 -1.16136 0
M  V30 252 C 21.6834 3.60411 -2.69117 0
M  V30 253 C 23.0024 4.33876 -0.737549 0
M  V30 254 H 20.1214 0.688874 -0.261957 0
M  V30 255 H 22.7634 1.41154 -1.27183 0
M  V30 256 H 20.9134 3.82335 -0.689342 0
M  V30 257 H 22.5854 3.28145 -3.2422 0
M  V30 258 H 20.8284 3.03665 -3.0979 0
M  V30 259 H 21.4994 4.66396 -2.95261 0
M  V30 260 H 23.9754 4.00081 -1.14344 0
M  V30 261 H 22.8514 5.38242 -1.0764 0
M  V30 262 H 23.1124 4.40628 0.360436 0
M  V30 263 N 22.1715 0.800033 1.35784 0
M  V30 264 C 23.4195 0.376597 1.9856 0
M  V30 265 C 23.7405 -1.05812 1.63795 0
M  V30 266 O 23.0105 -1.73103 0.917171 0
M  V30 267 H 21.5905 0.136261 0.734467 0
M  V30 268 H 24.2525 1.02442 1.65806 0
M  V30 269 H 23.3485 0.477002 3.08433 0
M  V30 270 N 23.6496 -1.47581 0.552962 0
M  V30 271 C 24.6126 -2.28439 -0.186605 0
M  V30 272 C 25.6126 -1.36706 -0.84665 0
M  V30 273 O 26.8026 -1.59378 -0.703164 0
M  V30 274 C 23.9346 -3.16264 -1.2724 0
M  V30 275 H 25.1276 -2.95294 0.523609 0
M  V30 276 H 22.6806 -1.532 0.309745 0
M  V30 277 H 23.4156 -2.54091 -2.01514 0
M  V30 278 H 23.2006 -3.83769 -0.803968 0
M  V30 279 H 24.6906 -3.77198 -1.79196 0
M  V30 280 N 25.1277 -0.289203 -1.54924 0
M  V30 281 C 26.3527 0.329299 -2.04769 0
M  V30 282 C 26.7777 1.4763 -1.16564 0
M  V30 283 O 26.1357 1.80527 -0.167186 0
M  V30 284 C 26.1837 0.774438 -3.52186 0
M  V30 285 O 25.2877 1.88038 -3.67036 0
M  V30 286 H 24.6287 0.0659259 -0.660719 0
M  V30 287 H 27.1587 -0.42761 -2.00082 0
M  V30 288 H 27.1687 1.06642 -3.93816 0
M  V30 289 H 25.8437 -0.0646707 -4.1585 0
M  V30 290 H 24.4207 1.58985 -3.3731 0
M  V30 291 N 26.6058 1.57591 -0.0167156 0
M  V30 292 C 27.5358 2.12496 0.967858 0
M  V30 293 C 28.5168 1.03807 1.34752 0
M  V30 294 O 29.7018 1.31577 1.42833 0
M  V30 295 C 26.8318 2.64194 2.25431 0
M  V30 296 C 25.7858 3.77559 2.01576 0
M  V30 297 C 25.1118 4.15636 3.36379 0
M  V30 298 C 26.4118 5.04151 1.36489 0
M  V30 299 H 28.1058 2.95013 0.510643 0
M  V30 300 H 25.6518 1.41915 0.244181 0
M  V30 301 H 27.6048 3.01236 2.94678 0
M  V30 302 H 26.3288 1.78821 2.73296 0
M  V30 303 H 24.9878 3.40937 1.34751 0
M  V30 304 H 24.6358 3.27263 3.81979 0
M  V30 305 H 24.3358 4.92022 3.21229 0
M  V30 306 H 25.8598 4.5525 4.06915 0
M  V30 307 H 27.2738 5.38857 1.95718 0
M  V30 308 H 25.6708 5.85453 1.31776 0
M  V30 309 H 26.7408 4.83733 0.336219 0
M  V30 310 N 28.0839 -0.256276 1.55502 0
M  V30 311 C 29.3299 -0.982884 1.78076 0
M  V30 312 C 29.6849 -1.83319 0.584109 0
M  V30 313 O 28.9779 -1.86875 -0.422877 0
M  V30 314 C 29.1719 -1.88432 3.03691 0
M  V30 315 C 29.0009 -1.12276 4.35459 0
M  V30 316 C 27.7709 -0.831647 4.98409 0
M  V30 317 C 29.9689 -0.504933 5.11815 0
M  V30 318 N 27.9509 -0.0450423 6.13883 0
M  V30 319 C 29.3219 0.146696 6.19826 0
M  V30 320 C 31.3769 -0.414455 4.96172 0
M  V30 321 C 30.0799 0.880103 7.13895 0
M  V30 322 C 32.1059 0.305398 5.90611 0
M  V30 323 C 31.4679 0.945701 6.98023 0
M  V30 324 H 27.5669 -0.341084 0.703694 0
M  V30 325 H 30.1509 -0.256909 1.92998 0
M  V30 326 H 28.3219 -2.58241 2.90114 0
M  V30 327 H 30.0539 -2.54579 3.14598 0
M  V30 328 H 26.8089 -1.14111 4.59647 0
M  V30 329 H 27.2329 0.336079 6.76165 0
M  V30 330 H 31.8749 -0.895163 4.13215 0
M  V30 331 H 29.5929 1.37244 7.9636 0
M  V30 332 H 33.1789 0.375946 5.80584 0
M  V30 333 H 32.0589 1.49383 7.6984 0
M  V30 334 N 29.562 -1.4872 -0.521534 0
M  V30 335 C 30.811 -1.56419 -1.27341 0
M  V30 336 C 31.124 -0.246805 -1.94037 0
M  V30 337 O 32.33 -0.202122 -2.70747 0
M  V30 338 C 30.786 -2.75896 -2.31105 0
M  V30 339 C 30.394 -4.14311 -1.70441 0
M  V30 340 C 32.138 -2.92913 -3.07249 0
M  V30 341 C 30.045 -5.25038 -2.72194 0
M  V30 342 H 28.975 -0.582344 -0.478949 0
M  V30 343 H 31.626 -1.75071 -0.549779 0
M  V30 344 H 30.008 -2.50697 -3.06541 0
M  V30 345 H 31.182 -4.49564 -1.01136 0
M  V30 346 H 29.497 -4.02482 -1.06759 0
M  V30 347 H 32.094 -3.72805 -3.83302 0
M  V30 348 H 32.437 -2.02689 -3.63625 0
M  V30 349 H 32.97 -3.18054 -2.38928 0
M  V30 350 H 29.709 -6.17255 -2.20627 0
M  V30 351 H 29.229 -4.94263 -3.39801 0
M  V30 352 H 30.908 -5.53508 -3.35019 0
M  V30 353 N 31.0401 0.771051 -1.3745 0
M  V30 354 C 31.9701 1.89827 -1.3597 0
M  V30 355 C 32.9511 1.68562 -0.228216 0
M  V30 356 O 34.1361 1.8941 -0.428675 0
M  V30 357 C 31.2661 3.2712 -1.16662 0
M  V30 358 C 30.2201 3.6295 -2.2683 0
M  V30 359 C 29.5461 4.98791 -1.92644 0
M  V30 360 C 30.8461 3.69627 -3.69017 0
M  V30 361 H 32.5401 1.91323 -2.30295 0
M  V30 362 H 30.0861 0.919082 -1.10855 0
M  V30 363 H 32.0391 4.05615 -1.14256 0
M  V30 364 H 30.7631 3.26059 -0.187926 0
M  V30 365 H 29.4221 2.86763 -2.28392 0
M  V30 366 H 29.0701 4.94271 -0.933021 0
M  V30 367 H 28.7701 5.23733 -2.66416 0
M  V30 368 H 30.2941 5.79685 -1.91826 0
M  V30 369 H 31.7081 4.38273 -3.69581 0
M  V30 370 H 30.1051 4.06067 -4.41848 0
M  V30 371 H 31.1751 2.70273 -4.02592 0
M  V30 372 N 32.5182 1.22032 0.997298 0
M  V30 373 C 33.9292 1.0397 1.55071 0
M  V30 374 C 34.2802 -0.398192 1.92117 0
M  V30 375 O 33.4052 -1.28254 1.74298 0
M  V30 376 C 34.0002 1.88109 2.81781 0
M  V30 377 C 32.5592 1.74357 3.33581 0
M  V30 378 C 31.7062 1.84846 2.06706 0
M  V30 379 H 34.6572 1.35941 0.818883 0
M  V30 380 H 34.6782 1.39589 3.53971 0
M  V30 381 H 34.1902 2.92754 2.54787 0
M  V30 382 H 32.2912 0.72427 3.65493 0
M  V30 383 H 32.4042 2.56772 4.04481 0
M  V30 384 H 30.7682 1.28238 2.20062 0
M  V30 385 H 31.5512 2.91014 1.82114 0
M  V30 386 N 33.9963 -1.19345 1.0293 0
M  V30 387 C 34.9283 -2.22036 0.56857 0
M  V30 388 C 35.9413 -1.58865 -0.355779 0
M  V30 389 O 37.1303 -1.77851 -0.152103 0
M  V30 390 C 34.2303 -3.38363 -0.190752 0
M  V30 391 C 33.4033 -4.31118 0.738643 0
M  V30 392 C 32.4623 -5.26194 0.0246497 0
M  V30 393 O 31.4883 -5.65461 0.651354 0
M  V30 394 N 32.6903 -5.66971 -1.24594 0
M  V30 395 H 35.4553 -2.6219 1.45177 0
M  V30 396 H 33.0163 -1.34015 0.908381 0
M  V30 397 H 35.0083 -3.98981 -0.677961 0
M  V30 398 H 33.5783 -2.96994 -0.975366 0
M  V30 399 H 32.7983 -3.68276 1.40593 0
M  V30 400 H 34.0863 -4.90001 1.37029 0
M  V30 401 H 33.4843 -5.37104 -1.77583 0
M  V30 402 H 32.0413 -6.2984 -1.67764 0
M  V30 403 N 35.4744 -0.807222 -1.35358 0
M  V30 404 C 36.4374 -0.223665 -2.28106 0
M  V30 405 C 37.4374 0.589354 -1.4961 0
M  V30 406 O 38.6274 0.407745 -1.69361 0
M  V30 407 C 35.7594 0.688149 -3.33882 0
M  V30 408 H 36.9524 -1.04169 -2.81227 0
M  V30 409 H 34.5054 -0.577921 -1.45223 0
M  V30 410 H 35.2404 1.52984 -2.85948 0
M  V30 411 H 35.0254 0.10687 -3.91954 0
M  V30 412 H 36.5154 1.09075 -4.03104 0
M  V30 413 N 36.9525 1.47285 -0.560781 0
M  V30 414 C 38.2295 1.9558 0.0277798 0
M  V30 415 C 38.6095 1.5034 1.48192 0
M  V30 416 O 37.9575 0.743882 2.16052 0
M  V30 417 C 38.1675 3.48789 -0.121418 0
M  V30 418 C 39.5155 4.24594 0.0220912 0
M  V30 419 O 40.5395 3.56166 -0.0491439 0
M  V30 420 O 39.3985 5.46217 0.175958 0
M  V30 421 H 36.4925 0.824663 0.0621342 0
M  V30 422 H 39.0385 1.5767 -0.627556 0
M  V30 423 H 37.8105 3.74533 -1.13316 0
M  V30 424 H 37.4335 3.93473 0.571366 0
M  V30 425 N 38.4306 0.297415 1.54768 0
M  V30 426 C 39.3936 -0.567375 2.22066 0
M  V30 427 C 40.3936 -1.06409 1.20556 0
M  V30 428 O 41.5836 -0.960691 1.45315 0
M  V30 429 C 38.7156 -1.78517 2.90421 0
M  V30 430 H 39.9086 0.0205534 2.99893 0
M  V30 431 H 37.4616 0.0482163 1.56226 0
M  V30 432 H 38.1966 -2.41303 2.16664 0
M  V30 433 H 37.9816 -1.43669 3.64831 0
M  V30 434 H 39.4716 -2.39964 3.41771 0
M  V30 435 N 39.9087 -1.5758 0.0250728 0
M  V30 436 C 40.8717 -2.08896 -0.943139 0
M  V30 437 C 41.8717 -1.00321 -1.25668 0
M  V30 438 O 43.0617 -1.26495 -1.19769 0
M  V30 439 C 40.1937 -2.55143 -2.26086 0
M  V30 440 H 41.3867 -2.95723 -0.498775 0
M  V30 441 H 38.9397 -1.54703 -0.222888 0
M  V30 442 H 39.6747 -1.71633 -2.75159 0
M  V30 443 H 39.4597 -3.34461 -2.04641 0
M  V30 444 H 40.9497 -2.95083 -2.95492 0
M  V30 445 N 41.3868 0.248026 -1.55636 0
M  V30 446 C 42.3338 1.30707 -1.90222 0
M  V30 447 C 43.3038 1.47881 -0.756332 0
M  V30 448 O 44.4888 1.61883 -1.00988 0
M  V30 449 C 41.6288 2.65769 -2.20138 0
M  V30 450 C 40.7418 2.56612 -3.47526 0
M  V30 451 C 39.8768 3.8402 -3.67017 0
M  V30 452 C 38.9158 3.69476 -4.8801 0
M  V30 453 N 38.0528 4.88774 -5.04029 0
M  V30 454 H 42.8928 1.00512 -2.80538 0
M  V30 455 H 40.4298 0.485055 -1.38873 0
M  V30 456 H 42.3878 3.44386 -2.35487 0
M  V30 457 H 41.0178 2.94115 -1.33027 0
M  V30 458 H 40.0698 1.69571 -3.40514 0
M  V30 459 H 41.3818 2.41774 -4.36287 0
M  V30 460 H 40.5358 4.7108 -3.8232 0
M  V30 461 H 39.2748 4.01754 -2.76487 0
M  V30 462 H 38.2798 2.80799 -4.72686 0
M  V30 463 H 39.5048 3.53238 -5.8 0
M  V30 464 H 37.4508 5.0687 -4.16435 0
M  V30 465 H 37.3678 4.76562 -5.86877 0
M  V30 466 H 38.6358 5.77335 -5.23741 0
M  V30 467 N 42.8649 1.48995 0.513639 0
M  V30 468 C 43.8279 1.64229 1.59879 0
M  V30 469 C 44.8279 0.514696 1.5234 0
M  V30 470 O 46.0179 0.78087 1.55718 0
M  V30 471 C 43.1499 1.62783 2.99524 0
M  V30 472 H 44.3429 2.61004 1.47705 0
M  V30 473 H 41.8959 1.37837 0.736936 0
M  V30 474 H 42.6309 0.675461 3.17188 0
M  V30 475 H 42.4159 2.4466 3.06404 0
M  V30 476 H 43.9059 1.76669 3.78388 0
M  V30 477 N 44.343 -0.763751 1.37857 0
M  V30 478 C 45.754 -1.3405 1.29952 0
M  V30 479 C 46.105 -1.96138 -0.0492898 0
M  V30 480 O 45.23 -1.94372 -0.951239 0
M  V30 481 C 45.825 -2.43729 2.35333 0
M  V30 482 C 44.384 -2.97151 2.31037 0
M  V30 483 C 43.531 -1.70438 2.18738 0
M  V30 484 H 46.482 -0.563396 1.48363 0
M  V30 485 H 46.503 -3.23412 2.00462 0
M  V30 486 H 46.015 -1.9851 3.33489 0
M  V30 487 H 44.116 -3.46724 1.3643 0
M  V30 488 H 44.229 -3.52221 3.24772 0
M  V30 489 H 42.593 -1.93673 1.65418 0
M  V30 490 H 43.376 -1.27312 3.18821 0
M  V30 491 N 45.8211 -1.22559 -0.990812 0
M  V30 492 C 46.7311 -1.01394 -2.11557 0
M  V30 493 C 47.7471 0.0383962 -1.73958 0
M  V30 494 O 48.9231 -0.154787 -2.00804 0
M  V30 495 C 45.9881 -0.596569 -3.41529 0
M  V30 496 C 45.0491 -1.72276 -3.93217 0
M  V30 497 C 44.2821 -1.32521 -5.16985 0
M  V30 498 O 44.5051 -0.204909 -5.70032 0
M  V30 499 O 43.4391 -2.14247 -5.62478 0
M  V30 500 H 47.2651 -1.95633 -2.32296 0
M  V30 501 H 44.8501 -1.01172 -1.0993 0
M  V30 502 H 46.7321 -0.374263 -4.19735 0
M  V30 503 H 45.4071 0.316939 -3.22145 0
M  V30 504 H 44.3141 -1.99961 -3.16174 0
M  V30 505 H 45.6471 -2.61421 -4.17037 0
M  V30 506 N 47.2992 1.18797 -1.03562 0
M  V30 507 C 48.2312 2.21731 -0.580337 0
M  V30 508 C 49.2442 1.59051 0.347349 0
M  V30 509 O 50.4332 1.77929 0.142669 0
M  V30 510 C 47.5332 3.38459 0.172805 0
M  V30 511 C 46.7062 4.3072 -0.761496 0
M  V30 512 C 45.7652 5.26174 -0.0525547 0
M  V30 513 O 44.7912 5.65108 -0.681333 0
M  V30 514 N 45.9932 5.67624 1.21586 0
M  V30 515 H 48.7582 2.61417 -1.46565 0
M  V30 516 H 46.3192 1.33531 -0.915476 0
M  V30 517 H 48.3112 3.99335 0.656793 0
M  V30 518 H 46.8812 2.97507 0.959602 0
M  V30 519 H 46.1012 3.67525 -1.42544 0
M  V30 520 H 47.3892 4.89267 -1.39626 0
M  V30 521 H 46.7872 5.38038 1.74732 0
M  V30 522 H 45.3442 6.30721 1.64421 0
M  V30 523 N 48.7773 0.814389 1.34928 0
M  V30 524 C 50.0053 0.411136 2.02774 0
M  V30 525 C 50.4203 -0.980316 1.61354 0
M  V30 526 O 49.7773 -1.63299 0.814847 0
M  V30 527 C 49.8283 0.493865 3.58111 0
M  V30 528 O 49.5493 1.83047 3.98027 0
M  V30 529 C 51.0503 0.0844174 4.4322 0
M  V30 530 H 48.2703 0.166037 0.650133 0
M  V30 531 H 50.8143 1.10018 1.72384 0
M  V30 532 H 48.9693 -0.147006 3.87121 0
M  V30 533 H 49.3833 1.79872 4.92693 0
M  V30 534 H 50.8573 0.193404 5.51661 0
M  V30 535 H 51.3343 -0.97113 4.28329 0
M  V30 536 H 51.9403 0.69875 4.19521 0
M  V30 537 N 50.2554 -1.46986 0.568584 0
M  V30 538 C 51.5014 -2.02741 0.0488709 0
M  V30 539 C 51.8344 -1.44077 -1.30214 0
M  V30 540 O 51.1094 -0.600552 -1.84996 0
M  V30 541 C 51.3924 -3.60086 -0.032047 0
M  V30 542 C 51.2454 -4.29162 1.34686 0
M  V30 543 C 52.5644 -4.33838 -0.739798 0
M  V30 544 H 49.6834 -0.736749 0.0192338 0
M  V30 545 H 52.3254 -1.75289 0.733065 0
M  V30 546 H 50.4754 -3.83606 -0.61473 0
M  V30 547 H 52.1474 -4.16948 1.97362 0
M  V30 548 H 50.3904 -3.89073 1.91846 0
M  V30 549 H 51.0614 -5.37826 1.24285 0
M  V30 550 H 53.5374 -4.15378 -0.244939 0
M  V30 551 H 52.4134 -5.43537 -0.765406 0
M  V30 552 H 52.6744 -4.03875 -1.79827 0
M  V30 553 N 51.7335 -0.305618 -1.54608 0
M  V30 554 C 52.9615 0.304775 -2.04643 0
M  V30 555 C 53.3765 1.47167 -1.18268 0
M  V30 556 O 52.7335 1.81296 -0.209328 0
M  V30 557 C 52.7845 0.756564 -3.53495 0
M  V30 558 O 52.5055 -0.36389 -4.36586 0
M  V30 559 C 54.0065 1.43163 -4.19546 0
M  V30 560 H 51.2265 0.0655481 -0.667791 0
M  V30 561 H 53.7705 -0.446592 -1.99564 0
M  V30 562 H 51.9255 1.45794 -3.58919 0
M  V30 563 H 52.3395 -0.0113121 -5.24499 0
M  V30 564 H 53.8135 1.69886 -5.25207 0
M  V30 565 H 54.2905 2.37318 -3.69563 0
M  V30 566 H 54.8965 0.773307 -4.18211 0
M  V30 567 N 53.2116 1.57565 -0.0334293 0
M  V30 568 C 54.1216 2.13943 0.962572 0
M  V30 569 C 55.1376 1.09276 1.35406 0
M  V30 570 O 56.3136 1.41355 1.4346 0
M  V30 571 C 53.3786 2.65887 2.22497 0
M  V30 572 C 52.4396 3.85286 1.8935 0
M  V30 573 C 51.6726 4.34743 3.09571 0
M  V30 574 O 51.8956 3.83352 4.22371 0
M  V30 575 O 50.8296 5.26538 2.91618 0
M  V30 576 H 54.6556 2.99333 0.513169 0
M  V30 577 H 52.2406 1.4822 0.18743 0
M  V30 578 H 54.1226 2.99346 2.96598 0
M  V30 579 H 52.7976 1.83578 2.6661 0
M  V30 580 H 51.7046 3.56746 1.1262 0
M  V30 581 H 53.0376 4.68771 1.5005 0
M  V30 582 N 54.6897 -0.239769 1.55765 0
M  V30 583 C 56.1007 -0.808263 1.68297 0
M  V30 584 C 56.4517 -1.85736 0.632181 0
M  V30 585 O 55.5767 -2.15277 -0.220204 0
M  V30 586 C 56.1717 -1.47284 3.05111 0
M  V30 587 C 54.7307 -1.98895 3.19559 0
M  V30 588 C 53.8777 -0.842575 2.64189 0
M  V30 589 H 56.8287 -0.0154422 1.58692 0
M  V30 590 H 56.8497 -2.34111 2.99954 0
M  V30 591 H 56.3617 -0.709053 3.81568 0
M  V30 592 H 54.4627 -2.78132 2.47938 0
M  V30 593 H 54.5757 -2.18143 4.26556 0
M  V30 594 H 52.9397 -1.24501 2.22197 0
M  V30 595 H 53.7227 -0.0917552 3.43177 0
M  V30 596 N 56.1678 -1.49265 -0.50573 0
M  V30 597 C 57.4138 -1.58748 -1.26202 0
M  V30 598 C 57.7468 -0.271227 -1.92297 0
M  V30 599 O 57.0218 0.724831 -1.80489 0
M  V30 600 C 57.3048 -2.74332 -2.33268 0
M  V30 601 C 57.1578 -4.15737 -1.71705 0
M  V30 602 C 58.4768 -2.85576 -3.34865 0
M  V30 603 H 55.5958 -0.577826 -0.457478 0
M  V30 604 H 58.2378 -1.81532 -0.560897 0
M  V30 605 H 56.3878 -2.55036 -2.93068 0
M  V30 606 H 58.0598 -4.46537 -1.15769 0
M  V30 607 H 56.3028 -4.21605 -1.02135 0
M  V30 608 H 56.9738 -4.92477 -2.49341 0
M  V30 609 H 59.4498 -3.03127 -2.8505 0
M  V30 610 H 58.3258 -3.68135 -4.07146 0
M  V30 611 H 58.5868 -1.94732 -3.96903 0
M  V30 612 N 57.6459 0.756429 -1.3826 0
M  V30 613 C 58.8939 1.51248 -1.34047 0
M  V30 614 C 59.2149 1.94875 0.0698372 0
M  V30 615 O 58.4849 1.67436 1.01696 0
M  V30 616 H 57.0649 0.561018 -0.493222 0
M  V30 617 H 59.7269 0.899347 -1.7291 0
M  V30 618 H 58.8229 2.40472 -1.98947 0
M  V30 619 N 59.124 1.23083 0.984299 0
M  V30 620 C 60.349 1.088 1.76571 0
M  V30 621 C 60.774 -0.356657 1.84688 0
M  V30 622 O 60.132 -1.25788 1.30565 0
M  V30 623 C 60.18 1.71371 3.17277 0
M  V30 624 O 59.284 0.973213 4.00752 0
M  V30 625 H 58.625 0.381599 0.543395 0
M  V30 626 H 61.155 1.63057 1.23587 0
M  V30 627 H 61.165 1.76449 3.67872 0
M  V30 628 H 59.84 2.76493 3.10684 0
M  V30 629 H 58.417 0.999078 3.59267 0
M  V30 630 N 60.6021 -1.18246 1.0419 0
M  V30 631 C 61.8321 -1.91916 0.764961 0
M  V30 632 C 62.2401 -1.76485 -0.681898 0
M  V30 633 O 61.5831 -1.09275 -1.47664 0
M  V30 634 C 61.6451 -3.4373 1.05309 0
M  V30 635 C 61.3091 -3.8294 2.4941 0
M  V30 636 C 62.3061 -3.86621 3.47592 0
M  V30 637 C 59.9911 -4.142 2.84155 0
M  V30 638 C 61.9851 -4.21013 4.78568 0
M  V30 639 C 59.6721 -4.48262 4.15337 0
M  V30 640 C 60.6701 -4.51645 5.12353 0
M  V30 641 O 60.3581 -4.84911 6.41183 0
M  V30 642 H 60.0901 -0.61606 0.278292 0
M  V30 643 H 62.6441 -1.50947 1.39299 0
M  V30 644 H 60.8741 -3.84946 0.367933 0
M  V30 645 H 62.5631 -3.9865 0.763752 0
M  V30 646 H 63.3291 -3.62607 3.22089 0
M  V30 647 H 59.2081 -4.10743 2.09311 0
M  V30 648 H 62.7521 -4.23568 5.54289 0
M  V30 649 H 58.6491 -4.71737 4.40607 0
M  V30 650 H 59.4171 -5.02809 6.45852 0
M  V30 651 N 62.0802 -0.821533 -1.34494 0
M  V30 652 C 63.0432 -0.247847 -2.27856 0
M  V30 653 C 64.0432 0.573453 -1.50227 0
M  V30 654 O 65.2332 0.389759 -1.69784 0
M  V30 655 C 62.3652 0.652698 -3.34593 0
M  V30 656 H 63.5582 -1.07146 -2.80107 0
M  V30 657 H 61.1112 -0.593291 -1.44602 0
M  V30 658 H 61.8462 1.49943 -2.87555 0
M  V30 659 H 61.6312 0.065292 -3.92046 0
M  V30 660 H 63.1212 1.04793 -4.04238 0
M  V30 661 N 63.5583 1.46682 -0.576371 0
M  V30 662 C 64.9743 1.57822 -0.237562 0
M  V30 663 C 65.1743 1.57237 1.26011 0
M  V30 664 O 64.2303 1.48596 2.04146 0
M  V30 665 C 65.5433 2.87499 -0.881168 0
M  V30 666 C 67.0913 3.01119 -0.85417 0
M  V30 667 C 67.5663 4.33524 -1.4772 0
M  V30 668 N 69.0573 4.40207 -1.44125 0
M  V30 669 C 69.7923 5.4126 -1.89276 0
M  V30 670 N 69.2883 6.49021 -2.42371 0
M  V30 671 N 71.0813 5.32422 -1.80231 0
M  V30 672 H 63.2323 1.45306 -1.54919 0
M  V30 673 H 65.4953 0.692733 -0.647167 0
M  V30 674 H 65.2013 2.9372 -1.93447 0
M  V30 675 H 65.0753 3.75224 -0.385592 0
M  V30 676 H 67.4623 2.94485 0.190491 0
M  V30 677 H 67.5433 2.14887 -1.3877 0
M  V30 678 H 67.1873 4.40916 -2.52103 0
M  V30 679 H 67.1173 5.1852 -0.918947 0
M  V30 680 H 69.6083 3.62931 -1.05307 0
M  V30 681 H 69.9213 7.2233 -2.74698 0
M  V30 682 H 68.2663 6.49858 -2.46393 0
M  V30 683 H 71.4573 4.47137 -1.38514 0
M  V30 684 H 71.6303 6.11034 -2.15735 0
M  V30 685 N 65.0364 0.313813 1.54444 0
M  V30 686 C 65.9994 -0.54379 2.22656 0
M  V30 687 C 66.9994 -1.05124 1.21678 0
M  V30 688 O 68.1894 -0.945225 1.46325 0
M  V30 689 C 65.3214 -1.75427 2.92298 0
M  V30 690 H 66.5144 0.0523599 2.99854 0
M  V30 691 H 64.0674 0.0647834 1.56166 0
M  V30 692 H 64.8024 -2.38991 2.19211 0
M  V30 693 H 64.5874 -1.39791 3.66334 0
M  V30 694 H 66.0774 -2.36325 3.44297 0
M  V30 695 N 66.5145 -1.57545 0.0417849 0
M  V30 696 C 67.4245 -2.14451 -0.951213 0
M  V30 697 C 68.4405 -1.09992 -1.34825 0
M  V30 698 O 69.6165 -1.42114 -1.42708 0
M  V30 699 C 66.6815 -2.67063 -2.21084 0
M  V30 700 C 65.7425 -3.86284 -1.87304 0
M  V30 701 C 64.9755 -4.36378 -3.07261 0
M  V30 702 O 65.1985 -3.85587 -4.20332 0
M  V30 703 O 64.1325 -5.28077 -2.88822 0
M  V30 704 H 67.9585 -2.99601 -0.497287 0
M  V30 705 H 65.5435 -1.48317 -0.179567 0
M  V30 706 H 67.4255 -3.00914 -2.95006 0
M  V30 707 H 66.1005 -1.84989 -2.65633 0
M  V30 708 H 65.0075 -3.57338 -1.10727 0
M  V30 709 H 66.3405 -4.6956 -1.47562 0
M  V30 710 N 67.9926 0.231505 -1.5589 0
M  V30 711 C 69.4086 0.580748 -1.48659 0
M  V30 712 C 69.6086 1.87617 -0.73498 0
M  V30 713 O 68.6646 2.51046 -0.270586 0
M  V30 714 C 69.9776 0.669202 -2.93159 0
M  V30 715 C 71.5256 0.760499 -3.03621 0
M  V30 716 C 72.0006 0.880383 -4.49459 0
M  V30 717 N 73.4916 0.944861 -4.53461 0
M  V30 718 C 74.2266 1.05716 -5.63571 0
M  V30 719 N 73.7226 1.13403 -6.83456 0
M  V30 720 N 75.5156 1.09152 -5.514 0
M  V30 721 H 67.6666 -0.618695 -2.03189 0
M  V30 722 H 69.9296 -0.215728 -0.923128 0
M  V30 723 H 69.6356 -0.212904 -3.51055 0
M  V30 724 H 69.5096 1.5361 -3.44505 0
M  V30 725 H 71.8966 1.63305 -2.45796 0
M  V30 726 H 71.9776 -0.131864 -2.5546 0
M  V30 727 H 71.6216 0.0123284 -5.07899 0
M  V30 728 H 71.5516 1.78802 -4.95316 0
M  V30 729 H 74.0426 0.896176 -3.6712 0
M  V30 730 H 74.3556 1.21921 -7.63122 0
M  V30 731 H 72.7006 1.10333 -6.86186 0
M  V30 732 H 75.8916 1.02805 -4.56671 0
M  V30 733 H 76.0646 1.17558 -6.37247 0
M  V30 734 N 69.4707 1.49531 0.497807 0
M  V30 735 C 70.8817 1.52344 1.07927 0
M  V30 736 C 71.2327 0.311469 1.93712 0
M  V30 737 O 70.3577 -0.578405 2.08527 0
M  V30 738 C 70.9527 2.76062 1.96405 0
M  V30 739 C 69.5117 2.81643 2.49709 0
M  V30 740 C 68.6587 2.46299 1.27404 0
M  V30 741 H 71.6097 1.56182 0.281576 0
M  V30 742 H 71.6307 2.56405 2.81135 0
M  V30 743 H 71.1427 3.64254 1.33943 0
M  V30 744 H 69.2437 1.97739 3.15801 0
M  V30 745 H 69.3567 3.83891 2.86643 0
M  V30 746 H 67.7207 1.98148 1.60029 0
M  V30 747 H 68.5037 3.36769 0.66645 0
M  V30 748 N 70.9488 -0.749086 1.3866 0
M  V30 749 C 71.8808 -1.87273 1.32142 0
M  V30 750 C 72.8938 -1.61127 0.232787 0
M  V30 751 O 74.0828 -1.71623 0.49069 0
M  V30 752 C 71.1828 -3.23005 1.02571 0
M  V30 753 C 70.3558 -3.7662 2.22433 0
M  V30 754 C 69.4148 -4.90879 1.89537 0
M  V30 755 O 68.4408 -5.05276 2.62078 0
M  V30 756 N 69.6428 -5.74198 0.853031 0
M  V30 757 H 72.4078 -1.93373 2.28969 0
M  V30 758 H 69.9688 -0.929216 1.32579 0
M  V30 759 H 71.9608 -3.96992 0.786085 0
M  V30 760 H 70.5308 -3.12262 0.145249 0
M  V30 761 H 69.7508 -2.94147 2.62434 0
M  V30 762 H 71.0388 -4.09173 3.02415 0
M  V30 763 H 70.4368 -5.6514 0.25155 0
M  V30 764 H 68.9938 -6.48313 0.67329 0
M  V30 765 N 72.4269 -1.23603 -0.977757 0
M  V30 766 C 73.7039 -0.977897 -1.69401 0
M  V30 767 C 74.0839 0.502738 -2.05026 0
M  V30 768 O 73.4319 1.47459 -1.74551 0
M  V30 769 C 73.6419 -1.89077 -2.93345 0
M  V30 770 C 74.9899 -2.15579 -3.65802 0
M  V30 771 O 76.0139 -1.86648 -3.03383 0
M  V30 772 O 74.8729 -2.64658 -4.78141 0
M  V30 773 H 71.9669 -0.369025 -0.740101 0
M  V30 774 H 74.5129 -1.34657 -1.03274 0
M  V30 775 H 73.2849 -2.89158 -2.63634 0
M  V30 776 H 72.9079 -1.52463 -3.67207 0
M  V30 777 N 73.905 1.17692 -1.04816 0
M  V30 778 C 75.152 1.87859 -0.75599 0
M  V30 779 C 75.48 1.80812 0.716752 0
M  V30 780 O 74.735 1.20819 1.53952 0
M  V30 781 C 75.034 3.37462 -1.17703 0
M  V30 782 C 74.7 3.64713 -2.65133 0
M  V30 783 C 73.362 3.71859 -3.05408 0
M  V30 784 C 75.714 3.76492 -3.60421 0
M  V30 785 C 73.042 3.88271 -4.39843 0
M  V30 786 C 75.394 3.94421 -4.94585 0
M  V30 787 C 74.058 3.99806 -5.3452 0
M  V30 788 H 73.328 0.687425 -0.276636 0
M  V30 789 H 75.975 1.39255 -1.31455 0
M  V30 790 H 74.28 3.88097 -0.537395 0
M  V30 791 H 75.977 3.90109 -0.928218 0
M  V30 792 H 72.567 3.59772 -2.32942 0
M  V30 793 H 76.751 3.70295 -3.30447 0
M  V30 794 H 72.007 3.90687 -4.70291 0
M  V30 795 H 76.181 4.02477 -5.68318 0
M  V30 796 H 73.808 4.12276 -6.38696 0
M  V30 797 N 75.3831 0.828654 1.34056 0
M  V30 798 C 76.2931 0.256725 2.33191 0
M  V30 799 C 77.3091 -0.611898 1.62886 0
M  V30 800 O 78.4851 -0.51844 1.94613 0
M  V30 801 C 75.5501 -0.567238 3.42028 0
M  V30 802 C 74.6111 0.324458 4.28072 0
M  V30 803 C 73.8441 -0.460274 5.31712 0
M  V30 804 O 74.0671 -1.693 5.44696 0
M  V30 805 O 73.0011 0.160391 6.01686 0
M  V30 806 H 76.8271 1.07739 2.83947 0
M  V30 807 H 74.4121 0.59093 1.37217 0
M  V30 808 H 76.2941 -1.03582 4.08471 0
M  V30 809 H 74.9691 -1.36513 2.93506 0
M  V30 810 H 73.8761 0.840659 3.64532 0
M  V30 811 H 75.2091 1.08685 4.8005 0
M  V30 812 N 76.8612 -1.46375 0.584142 0
M  V30 813 C 78.1092 -2.01978 0.0701287 0
M  V30 814 C 78.4302 -1.4579 -1.295 0
M  V30 815 O 77.7002 -0.64314 -1.85042 0
M  V30 816 H 76.2802 -0.746648 0.0229345 0
M  V30 817 H 78.9422 -1.79461 0.760245 0
M  V30 818 H 78.0382 -3.121 0.0022064 0
M  V30 819 N 78.3393 -0.321999 -1.54275 0
M  V30 820 C 79.5863 0.281044 -2.0054 0
M  V30 821 C 79.9143 1.52265 -1.21019 0
M  V30 822 O 79.1693 1.93687 -0.279982 0
M  V30 823 C 79.4683 0.661769 -3.5122 0
M  V30 824 C 79.1343 -0.480482 -4.48333 0
M  V30 825 C 77.7963 -0.794005 -4.74604 0
M  V30 826 C 80.1483 -1.24783 -5.06042 0
M  V30 827 C 77.4763 -1.87763 -5.55844 0
M  V30 828 C 79.8283 -2.32153 -5.88462 0
M  V30 829 C 78.4923 -2.64089 -6.13036 0
M  V30 830 H 77.7623 0.102841 -0.733829 0
M  V30 831 H 80.4093 -0.445453 -1.86247 0
M  V30 832 H 78.7143 1.46867 -3.63232 0
M  V30 833 H 80.4113 1.13989 -3.84457 0
M  V30 834 H 77.0013 -0.226039 -4.28004 0
M  V30 835 H 81.1853 -1.01887 -4.85729 0
M  V30 836 H 76.4413 -2.12954 -5.73115 0
M  V30 837 H 80.6153 -2.92057 -6.32199 0
M  V30 838 H 78.2423 -3.48185 -6.75775 0
M  V30 839 N 79.8174 1.5752 -0.0501392 0
M  V30 840 C 81.0634 1.92936 0.624798 0
M  V30 841 C 81.3964 0.928685 1.70555 0
M  V30 842 O 80.6714 -0.0454779 1.94447 0
M  V30 843 C 80.9544 3.38737 1.22185 0
M  V30 844 C 80.8074 4.49552 0.149218 0
M  V30 845 C 82.1264 3.84913 2.13378 0
M  V30 846 H 79.2454 0.701604 0.225657 0
M  V30 847 H 81.8874 1.89671 -0.111693 0
M  V30 848 H 80.0374 3.4165 1.84953 0
M  V30 849 H 81.7094 4.58768 -0.482648 0
M  V30 850 H 79.9524 4.30638 -0.522841 0
M  V30 851 H 80.6234 5.48653 0.606966 0
M  V30 852 H 83.0994 3.8387 1.60572 0
M  V30 853 H 81.9754 4.87584 2.52097 0
M  V30 854 H 82.2364 3.21611 3.03346 0
M  V30 855 N 81.2955 -0.223234 1.56011 0
M  V30 856 C 82.5415 -0.944891 1.8012 0
M  V30 857 C 82.8965 -1.82039 0.622862 0
M  V30 858 O 82.1895 -1.8773 -0.383143 0
M  V30 859 C 82.3835 -1.81948 3.0762 0
M  V30 860 C 82.2125 -1.03014 4.37742 0
M  V30 861 C 80.9825 -0.72574 5.00061 0
M  V30 862 C 83.1805 -0.396256 5.12771 0
M  V30 863 N 81.1625 0.0851816 6.13841 0
M  V30 864 C 82.5335 0.278137 6.19376 0
M  V30 865 C 84.5885 -0.309117 4.9694 0
M  V30 866 C 83.2915 1.03133 7.11868 0
M  V30 867 C 85.3175 0.430607 5.8983 0
M  V30 868 C 84.6795 1.09355 6.9586 0
M  V30 869 H 80.7785 -0.326081 0.710771 0
M  V30 870 H 83.3625 -0.215914 1.93499 0
M  V30 871 H 81.5335 -2.52029 2.95527 0
M  V30 872 H 83.2655 -2.47848 3.19927 0
M  V30 873 H 80.0205 -1.04335 4.61964 0
M  V30 874 H 80.4445 0.479428 6.753 0
M  V30 875 H 85.0865 -0.807313 4.15021 0
M  V30 876 H 82.8045 1.54105 7.9327 0
M  V30 877 H 86.3905 0.499012 5.79656 0
M  V30 878 H 85.2705 1.65679 7.66499 0
M  V30 879 N 82.7736 -1.49793 -0.48987 0
M  V30 880 C 84.1896 -1.36803 -0.822022 0
M  V30 881 C 84.3896 -0.409652 -1.97292 0
M  V30 882 O 83.4456 0.154614 -2.52026 0
M  V30 883 C 84.7586 -2.77768 -1.15175 0
M  V30 884 C 86.3066 -2.86549 -1.25931 0
M  V30 885 C 86.7816 -4.28306 -1.62228 0
M  V30 886 N 88.2726 -4.31169 -1.69256 0
M  V30 887 C 89.0076 -5.37832 -1.98807 0
M  V30 888 N 88.5036 -6.54726 -2.26507 0
M  V30 889 N 90.2966 -5.25258 -2.00152 0
M  V30 890 H 82.4476 -2.10691 0.268881 0
M  V30 891 H 84.7106 -0.946241 0.057728 0
M  V30 892 H 84.4166 -3.49648 -0.379335 0
M  V30 893 H 84.2906 -3.13836 -2.09253 0
M  V30 894 H 86.6776 -2.14899 -2.02243 0
M  V30 895 H 86.7586 -2.54049 -0.298776 0
M  V30 896 H 86.4026 -5.00486 -0.864622 0
M  V30 897 H 86.3326 -4.58279 -2.594 0
M  V30 898 H 88.8236 -3.4687 -1.49965 0
M  V30 899 H 89.1366 -7.31833 -2.48276 0
M  V30 900 H 87.4816 -6.57933 -2.23939 0
M  V30 901 H 90.6726 -4.32938 -1.77996 0
M  V30 902 H 90.8456 -6.08476 -2.22848 0
M  V30 903 N 84.2517 0.741722 -1.39055 0
M  V30 904 C 85.1817 1.869 -1.39966 0
M  V30 905 C 86.1627 1.6804 -0.26392 0
M  V30 906 O 87.3477 1.88458 -0.468755 0
M  V30 907 C 84.4777 3.24572 -1.23574 0
M  V30 908 C 83.4317 3.58056 -2.34477 0
M  V30 909 C 82.7577 4.94593 -2.0318 0
M  V30 910 C 84.0577 3.61716 -3.76774 0
M  V30 911 H 85.7517 1.86395 -2.34302 0
M  V30 912 H 83.2977 0.895361 -1.1278 0
M  V30 913 H 85.2507 4.031 -1.22834 0
M  V30 914 H 83.9747 3.25587 -0.257045 0
M  V30 915 H 82.6337 2.81854 -2.34423 0
M  V30 916 H 82.2817 4.92181 -1.03765 0
M  V30 917 H 81.9817 5.17964 -2.77465 0
M  V30 918 H 83.5057 5.75486 -2.04079 0
M  V30 919 H 84.9197 4.30335 -3.78794 0
M  V30 920 H 83.3167 3.96603 -4.50362 0
M  V30 921 H 84.3867 2.61672 -4.08235 0
M  V30 922 N 85.7298 1.2412 0.971189 0
M  V30 923 C 87.0068 0.986867 1.6888 0
M  V30 924 C 87.3868 -0.491857 2.0529 0
M  V30 925 O 86.7348 -1.46531 1.75331 0
M  V30 926 C 86.9448 1.9063 2.92338 0
M  V30 927 C 88.2928 2.17515 3.64654 0
M  V30 928 O 89.3168 1.88254 3.02388 0
M  V30 929 O 88.1758 2.6719 4.7673 0
M  V30 930 H 85.2698 0.372944 0.738134 0
M  V30 931 H 87.8158 1.35203 1.02559 0
M  V30 932 H 86.5878 2.90552 2.62097 0
M  V30 933 H 86.2108 1.54408 3.66393 0
M  V30 934 N 87.2079 -1.17134 1.05439 0
M  V30 935 C 88.1559 -2.23289 0.651511 0
M  V30 936 C 89.1499 -1.66186 -0.328411 0
M  V30 937 O 90.3559 -1.78949 -0.194206 0
M  V30 938 H 86.7309 -0.726938 0.192523 0
M  V30 939 H 88.7019 -2.54565 1.55689 0
M  V30 940 C 87.4509 -3.47671 0.0448436 0
M  V30 941 H 86.7739 -3.91918 0.78996 0
M  V30 942 H 88.2139 -4.2353 -0.19964 0
M  V30 943 C 86.6729 -3.14453 -1.20918 0
M  V30 944 O 87.2029 -3.29459 -2.29825 0
M  V30 945 N 85.4089 -2.68657 -1.10779 0
M  V30 946 H 84.9559 -2.56646 -0.221526 0
M  V30 947 H 84.9139 -2.46804 -1.9477 0
M  V30 948 N 88.686 -0.835752 -1.33615 0
M  V30 949 C 89.963 -0.352017 -1.92406 0
M  V30 950 C 90.343 1.16225 -1.76224 0
M  V30 951 O 89.691 1.97526 -1.14873 0
M  V30 952 C 89.901 -0.795485 -3.39813 0
M  V30 953 C 91.249 -0.801703 -4.16963 0
M  V30 954 O 92.273 -0.738889 -3.48452 0
M  V30 955 O 91.132 -0.886607 -5.3926 0
M  V30 956 H 88.226 -0.0989641 -0.821057 0
M  V30 957 H 90.772 -0.921397 -1.42507 0
M  V30 958 H 89.544 -1.83795 -3.45449 0
M  V30 959 H 89.167 -0.202505 -3.97084 0
M  V30 960 N 90.1641 1.46063 -0.591896 0
M  V30 961 C 91.4121 2.01938 -0.0808391 0
M  V30 962 C 91.7331 1.46475 1.28725 0
M  V30 963 O 91.0031 0.652944 1.84698 0
M  V30 964 H 89.5831 0.746516 -0.0268938 0
M  V30 965 H 92.2451 1.79055 -0.769752 0
M  V30 966 H 91.3411 3.12094 -0.0187578 0
M  V30 967 N 91.6422 0.330177 1.54103 0
M  V30 968 C 92.5892 -0.532762 2.24567 0
M  V30 969 C 93.5592 -1.10635 1.23892 0
M  V30 970 O 94.7442 -1.14546 1.5259 0
M  V30 971 C 91.8842 -1.6845 3.01195 0
M  V30 972 C 90.9972 -1.13951 4.167 0
M  V30 973 C 90.1322 -2.25746 4.80845 0
M  V30 974 C 89.1712 -1.6853 5.88442 0
M  V30 975 N 88.3082 -2.74014 6.46421 0
M  V30 976 H 93.1482 0.0746905 2.97906 0
M  V30 977 H 90.6852 0.048632 1.4702 0
M  V30 978 H 92.6432 -2.36234 3.43874 0
M  V30 979 H 91.2732 -2.26314 2.30178 0
M  V30 980 H 90.3252 -0.35301 3.78758 0
M  V30 981 H 91.6372 -0.680892 4.94131 0
M  V30 982 H 90.7912 -3.01422 5.26526 0
M  V30 983 H 89.5302 -2.74947 4.0281 0
M  V30 984 H 88.5352 -0.913543 5.42157 0
M  V30 985 H 89.7602 -1.20198 6.68378 0
M  V30 986 H 87.7062 -3.22494 5.71256 0
M  V30 987 H 87.6232 -2.32735 7.19285 0
M  V30 988 H 88.8912 -3.49499 6.96757 0
M  V30 989 N 93.1203 -1.57491 0.0584922 0
M  V30 990 C 94.0303 -2.15448 -0.928414 0
M  V30 991 C 95.0463 -1.11416 -1.3365 0
M  V30 992 O 96.2223 -1.4362 -1.41193 0
M  V30 993 C 93.2873 -2.69393 -2.18239 0
M  V30 994 C 92.3483 -3.88249 -1.83196 0
M  V30 995 C 91.5813 -4.39613 -3.02616 0
M  V30 996 O 91.8043 -3.90023 -4.16219 0
M  V30 997 O 90.7383 -5.31111 -2.83204 0
M  V30 998 H 94.5643 -3.00112 -0.465483 0
M  V30 999 H 92.1493 -1.48499 -0.163826 0
M  V30 1000 H 94.0313 -3.04026 -2.91798 0
M  V30 1001 H 92.7063 -1.87796 -2.63656 0
M  V30 1002 H 91.6133 -3.58492 -1.06931 0
M  V30 1003 H 92.9463 -4.71098 -1.42573 0
M  V30 1004 N 94.5984 0.214957 -1.56127 0
M  V30 1005 C 95.5614 1.24997 -1.92116 0
M  V30 1006 C 96.5614 1.39467 -0.800344 0
M  V30 1007 O 97.7514 1.37619 -1.06802 0
M  V30 1008 C 94.8834 2.62271 -2.17777 0
M  V30 1009 H 96.0764 0.942875 -2.84693 0
M  V30 1010 H 93.6294 0.455654 -1.49511 0
M  V30 1011 H 94.3644 2.98068 -1.27773 0
M  V30 1012 H 94.1494 2.53143 -2.99434 0
M  V30 1013 H 95.6394 3.36946 -2.46693 0
M  V30 1014 N 96.0765 1.50051 0.48192 0
M  V30 1015 C 97.0065 1.71046 1.58951 0
M  V30 1016 C 97.9875 0.559288 1.60642 0
M  V30 1017 O 99.1725 0.797243 1.77081 0
M  V30 1018 C 96.3025 1.79462 2.97339 0
M  V30 1019 C 95.2565 2.94558 3.10515 0
M  V30 1020 C 94.5825 2.88105 4.50444 0
M  V30 1021 C 95.8825 4.35227 2.88747 0
M  V30 1022 H 97.5765 2.6378 1.41635 0
M  V30 1023 H 95.1225 1.26936 0.679942 0
M  V30 1024 H 97.0755 1.92734 3.74742 0
M  V30 1025 H 95.7995 0.833412 3.15788 0
M  V30 1026 H 94.4585 2.80918 2.35543 0
M  V30 1027 H 94.1065 1.89853 4.65795 0
M  V30 1028 H 93.8065 3.65366 4.60197 0
M  V30 1029 H 95.3305 3.03412 5.29881 0
M  V30 1030 H 96.7445 4.49449 3.55905 0
M  V30 1031 H 95.1415 5.13856 3.09955 0
M  V30 1032 H 96.2115 4.48347 1.84696 0
M  V30 1033 N 97.5546 -0.734337 1.39446 0
M  V30 1034 C 98.9656 -1.31264 1.32766 0
M  V30 1035 C 99.3166 -1.96198 -0.00767497 0
M  V30 1036 O 98.4416 -1.96346 -0.909796 0
M  V30 1037 C 99.0366 -2.38682 2.4045 0
M  V30 1038 C 97.5956 -2.92184 2.37288 0
M  V30 1039 C 96.7426 -1.6576 2.22304 0
M  V30 1040 H 99.6936 -0.531799 1.49525 0
M  V30 1041 H 99.7146 -3.19087 2.07276 0
M  V30 1042 H 99.2266 -1.91392 3.37625 0
M  V30 1043 H 97.3276 -3.43752 1.43754 0
M  V30 1044 H 97.4406 -3.45253 3.3217 0
M  V30 1045 H 95.8046 -1.9012 1.69489 0
M  V30 1046 H 96.5876 -1.20521 3.21449 0
M  V30 1047 N 99.0327 -1.24633 -0.964593 0
M  V30 1048 C 100.449 -1.01239 -1.2338 0
M  V30 1049 C 100.649 0.2769 -1.99588 0
M  V30 1050 O 99.7047 0.992241 -2.32187 0
M  V30 1051 C 101.018 -2.22937 -2.01791 0
M  V30 1052 C 102.566 -2.27594 -2.14872 0
M  V30 1053 C 103.041 -3.48921 -2.96678 0
M  V30 1054 N 104.532 -3.49257 -3.04259 0
M  V30 1055 C 105.267 -4.39795 -3.67924 0
M  V30 1056 N 104.763 -5.40591 -4.33281 0
M  V30 1057 N 106.556 -4.275 -3.64966 0
M  V30 1058 H 98.7067 -2.0748 -0.454502 0
M  V30 1059 H 100.97 -0.910647 -0.26349 0
M  V30 1060 H 100.676 -3.16587 -1.53184 0
M  V30 1061 H 100.55 -2.25306 -3.02518 0
M  V30 1062 H 102.937 -1.34473 -2.6268 0
M  V30 1063 H 103.018 -2.2925 -1.13482 0
M  V30 1064 H 102.662 -4.42359 -2.49562 0
M  V30 1065 H 102.592 -3.4451 -3.98272 0
M  V30 1066 H 105.083 -2.76337 -2.57771 0
M  V30 1067 H 105.396 -6.05904 -4.79687 0
M  V30 1068 H 103.741 -5.44475 -4.3194 0
M  V30 1069 H 106.932 -3.47987 -3.13086 0
M  V30 1070 H 107.105 -4.98258 -4.14298 0
M  V30 1071 N 100.511 1.16574 -1.06058 0
M  V30 1072 C 101.459 2.22941 -0.663343 0
M  V30 1073 C 102.453 1.66358 0.319593 0
M  V30 1074 O 103.659 1.7905 0.184713 0
M  V30 1075 H 100.034 0.725907 -0.196376 0
M  V30 1076 H 102.005 2.53736 -1.57037 0
M  V30 1077 C 100.754 3.47642 -0.0632808 0
M  V30 1078 H 100.077 3.91493 -0.810733 0
M  V30 1079 H 101.517 4.2363 0.177177 0
M  V30 1080 C 99.9758 3.1509 1.19248 0
M  V30 1081 O 100.506 3.30673 2.28075 0
M  V30 1082 N 98.7118 2.6924 1.09353 0
M  V30 1083 H 98.2588 2.5676 0.207912 0
M  V30 1084 H 98.2168 2.47833 1.93458 0
M  V30 1085 N 101.989 0.842826 1.3317 0
M  V30 1086 C 103.236 0.440447 1.97652 0
M  V30 1087 C 103.564 -1.00123 1.6675 0
M  V30 1088 O 102.819 -1.7155 0.941761 0
M  V30 1089 C 103.118 0.612607 3.52111 0
M  V30 1090 C 102.784 2.02297 4.02972 0
M  V30 1091 C 101.446 2.40874 4.16573 0
M  V30 1092 C 103.798 2.94402 4.30089 0
M  V30 1093 C 101.126 3.70852 4.54627 0
M  V30 1094 C 103.478 4.23865 4.69597 0
M  V30 1095 C 102.142 4.62392 4.81404 0
M  V30 1096 H 101.412 0.161171 0.72326 0
M  V30 1097 H 104.059 1.07061 1.58777 0
M  V30 1098 H 102.364 -0.100849 3.9167 0
M  V30 1099 H 104.061 0.2815 4.00011 0
M  V30 1100 H 100.651 1.71338 3.92863 0
M  V30 1101 H 104.835 2.65835 4.19101 0
M  V30 1102 H 100.091 4.00501 4.61962 0
M  V30 1103 H 104.265 4.95306 4.89536 0
M  V30 1104 H 101.892 5.63154 5.10648 0
M  V30 1105 N 103.467 -1.45747 0.599634 0
M  V30 1106 C 104.883 -1.57424 0.26264 0
M  V30 1107 C 105.083 -1.59222 -1.23493 0
M  V30 1108 O 104.139 -1.51825 -2.01756 0
M  V30 1109 C 105.452 -2.86061 0.926795 0
M  V30 1110 C 107 -2.99722 0.901967 0
M  V30 1111 C 107.475 -4.31119 1.54598 0
M  V30 1112 N 108.966 -4.37858 1.5111 0
M  V30 1113 C 109.701 -5.3818 1.97863 0
M  V30 1114 N 109.197 -6.45083 2.52666 0
M  V30 1115 N 110.99 -5.29487 1.88679 0
M  V30 1116 H 103.141 -1.42823 1.57211 0
M  V30 1117 H 105.404 -0.68235 0.658105 0
M  V30 1118 H 105.11 -2.90605 1.98095 0
M  V30 1119 H 104.984 -3.74563 0.445238 0
M  V30 1120 H 107.371 -2.9475 -0.143617 0
M  V30 1121 H 107.452 -2.12652 1.42171 0
M  V30 1122 H 107.096 -4.36849 2.59085 0
M  V30 1123 H 107.026 -5.16992 1.00132 0
M  V30 1124 H 109.517 -3.61209 1.11068 0
M  V30 1125 H 109.83 -7.17869 2.86155 0
M  V30 1126 H 108.175 -6.45856 2.56701 0
M  V30 1127 H 111.366 -4.44877 1.4561 0
M  V30 1128 H 111.539 -6.07524 2.25429 0
M  V30 1129 N 104.945 -0.338344 -1.53925 0
M  V30 1130 C 106.173 0.261298 -2.05243 0
M  V30 1131 C 106.588 1.44625 -1.21363 0
M  V30 1132 O 105.945 1.80811 -0.247736 0
M  V30 1133 C 105.996 0.681412 -3.5502 0
M  V30 1134 O 105.717 -0.456414 -4.35716 0
M  V30 1135 C 107.218 1.34232 -4.22489 0
M  V30 1136 H 104.438 0.0513685 -0.669031 0
M  V30 1137 H 106.982 -0.488822 -1.98572 0
M  V30 1138 H 105.137 1.38148 -3.61931 0
M  V30 1139 H 105.551 -0.122564 -5.24357 0
M  V30 1140 H 107.025 1.58708 -5.28693 0
M  V30 1141 H 107.502 2.29426 -3.74514 0
M  V30 1142 H 108.108 0.684424 -4.19757 0
M  V30 1143 N 106.423 1.57458 -0.0668435 0
M  V30 1144 C 107.648 1.9804 0.616027 0
M  V30 1145 C 108.073 0.944771 1.62652 0
M  V30 1146 O 107.431 -0.0902094 1.81075 0
M  V30 1147 C 107.479 3.37665 1.26549 0
M  V30 1148 O 106.583 3.36701 2.38131 0
M  V30 1149 H 105.924 0.644719 0.158849 0
M  V30 1150 H 108.454 2.04121 -0.139891 0
M  V30 1151 H 108.464 3.7474 1.6135 0
M  V30 1152 H 107.139 4.12573 0.525016 0
M  V30 1153 H 105.716 3.1139 2.0516 0
M  V30 1154 N 107.901 -0.206675 1.56239 0
M  V30 1155 C 108.864 -1.23976 1.92776 0
M  V30 1156 C 109.864 -1.39041 0.807729 0
M  V30 1157 O 111.054 -1.37051 1.0753 0
M  V30 1158 C 108.186 -2.61112 2.19165 0
M  V30 1159 H 109.379 -0.927764 2.85189 0
M  V30 1160 H 106.932 -0.447718 1.4975 0
M  V30 1161 H 107.667 -2.97386 1.29352 0
M  V30 1162 H 107.452 -2.51552 3.00772 0
M  V30 1163 H 108.942 -3.35633 2.48476 0
M  V30 1164 N 109.379 -1.50304 -0.473955 0
M  V30 1165 C 110.656 -1.51667 -1.23518 0
M  V30 1166 C 111.036 -0.259701 -2.09496 0
M  V30 1167 O 110.384 0.756986 -2.15597 0
M  V30 1168 C 110.594 -2.81082 -2.06868 0
M  V30 1169 C 111.942 -3.31631 -2.65153 0
M  V30 1170 O 112.966 -2.82384 -2.17113 0
M  V30 1171 O 111.825 -4.17471 -3.52675 0
M  V30 1172 H 108.919 -0.60822 -0.560355 0
M  V30 1173 H 111.465 -1.62592 -0.486011 0
M  V30 1174 H 110.237 -3.64041 -1.4349 0
M  V30 1175 H 109.86 -2.73146 -2.88924 0
M  V30 1176 N 110.857 0.726932 -1.39834 0
M  V30 1177 C 111.82 1.82269 -1.38962 0
M  V30 1178 C 112.82 1.58248 -0.285334 0
M  V30 1179 O 114.01 1.65499 -0.54366 0
M  V30 1180 C 111.142 3.20186 -1.17019 0
M  V30 1181 H 112.335 1.84443 -2.36476 0
M  V30 1182 H 109.888 0.931416 -1.25516 0
M  V30 1183 H 110.623 3.23669 -0.202204 0
M  V30 1184 H 110.408 3.3902 -1.96998 0
M  V30 1185 H 111.898 4.00235 -1.1917 0
M  V30 1186 N 112.336 1.25143 0.95797 0
M  V30 1187 C 113.266 1.07711 2.07173 0
M  V30 1188 C 114.247 -0.0128462 1.70095 0
M  V30 1189 O 115.432 0.156061 1.93572 0
M  V30 1190 C 112.562 0.691503 3.40346 0
M  V30 1191 C 111.516 1.73132 3.9142 0
M  V30 1192 C 110.842 1.20049 5.21049 0
M  V30 1193 C 112.142 3.1294 4.1817 0
M  V30 1194 H 113.836 2.00873 2.22014 0
M  V30 1195 H 111.382 0.967191 1.06684 0
M  V30 1196 H 113.335 0.556505 4.17709 0
M  V30 1197 H 112.059 -0.275819 3.25433 0
M  V30 1198 H 110.718 1.8547 3.16222 0
M  V30 1199 H 110.366 0.223499 5.02503 0
M  V30 1200 H 110.066 1.89545 5.56189 0
M  V30 1201 H 111.59 1.07782 6.01012 0
M  V30 1202 H 113.004 3.03775 4.86203 0
M  V30 1203 H 111.401 3.79875 4.64559 0
M  V30 1204 H 112.471 3.6025 3.24573 0
M  V30 1205 N 113.814 -1.1601 1.06675 0
M  V30 1206 C 115.23 -1.38622 0.790948 0
M  V30 1207 C 115.43 -1.92109 -0.607965 0
M  V30 1208 O 114.486 -2.12239 -1.36787 0
M  V30 1209 C 115.799 -2.36347 1.85905 0
M  V30 1210 C 117.347 -2.50023 1.88301 0
M  V30 1211 C 117.822 -3.51033 2.94176 0
M  V30 1212 N 119.313 -3.58563 2.93235 0
M  V30 1213 C 120.048 -4.36521 3.71803 0
M  V30 1214 N 119.544 -5.17869 4.602 0
M  V30 1215 N 121.337 -4.31541 3.60178 0
M  V30 1216 H 113.488 -0.796294 1.96908 0
M  V30 1217 H 115.751 -0.412597 0.853503 0
M  V30 1218 H 115.457 -2.04147 2.86386 0
M  V30 1219 H 115.331 -3.36042 1.71334 0
M  V30 1220 H 117.718 -2.81524 0.884769 0
M  V30 1221 H 117.799 -1.5035 2.06951 0
M  V30 1222 H 117.443 -3.20268 3.94196 0
M  V30 1223 H 117.373 -4.50445 2.72776 0
M  V30 1224 H 119.864 -3.00496 2.29152 0
M  V30 1225 H 120.177 -5.74578 5.16797 0
M  V30 1226 H 118.522 -5.17199 4.64253 0
M  V30 1227 H 121.713 -3.67051 2.90502 0
M  V30 1228 H 121.886 -4.9205 4.21653 0
M  V30 1229 N 115.292 -0.849877 -1.32721 0
M  V30 1230 C 116.255 -0.296122 -2.27279 0
M  V30 1231 C 117.255 0.541458 -1.5141 0
M  V30 1232 O 118.445 0.353658 -1.70572 0
M  V30 1233 C 115.577 0.581579 -3.35902 0
M  V30 1234 H 116.77 -1.13064 -2.77771 0
M  V30 1235 H 114.323 -0.62383 -1.43311 0
M  V30 1236 H 115.058 1.43809 -2.9067 0
M  V30 1237 H 114.843 -0.0178814 -3.92096 0
M  V30 1238 H 116.333 0.961951 -4.0637 0
M  V30 1239 N 116.77 1.45427 -0.607355 0
M  V30 1240 C 118.181 1.85756 -0.187535 0
M  V30 1241 C 118.532 1.5077 1.25551 0
M  V30 1242 O 117.657 0.93427 1.95193 0
M  V30 1243 C 118.252 3.37154 -0.333572 0
M  V30 1244 C 116.811 3.76387 0.0315542 0
M  V30 1245 C 115.958 2.69377 -0.658117 0
M  V30 1246 H 118.909 1.36231 -0.81405 0
M  V30 1247 H 118.93 3.78014 0.43428 0
M  V30 1248 H 118.442 3.62586 -1.38393 0
M  V30 1249 H 116.543 3.56571 1.0811 0
M  V30 1250 H 116.656 4.77731 -0.361935 0
M  V30 1251 H 115.02 2.5452 -0.0957873 0
M  V30 1252 H 115.803 2.97646 -1.7106 0
M  V30 1253 N 118.248 0.346503 1.53744 0
M  V30 1254 C 119.158 -0.517293 2.28826 0
M  V30 1255 C 120.174 -1.10935 1.3405 0
M  V30 1256 O 121.35 -1.1244 1.6709 0
M  V30 1257 C 118.415 -1.65098 3.04866 0
M  V30 1258 C 117.476 -1.0884 4.15274 0
M  V30 1259 C 116.709 -2.16806 4.87679 0
M  V30 1260 O 116.932 -3.3758 4.59778 0
M  V30 1261 O 115.866 -1.80934 5.74061 0
M  V30 1262 H 119.692 0.0931396 3.03557 0
M  V30 1263 H 117.277 0.111458 1.48984 0
M  V30 1264 H 119.159 -2.31053 3.5241 0
M  V30 1265 H 117.834 -2.24717 2.32989 0
M  V30 1266 H 116.741 -0.3933 3.72027 0
M  V30 1267 H 118.074 -0.537036 4.89261 0
M  V30 1268 N 119.726 -1.57421 0.075193 0
M  V30 1269 C 120.673 -2.12915 -0.890843 0
M  V30 1270 C 121.643 -1.04252 -1.29309 0
M  V30 1271 O 122.828 -1.31933 -1.37834 0
M  V30 1272 C 119.968 -2.69795 -2.15186 0
M  V30 1273 C 119.081 -3.92624 -1.80194 0
M  V30 1274 C 118.216 -4.37736 -3.00933 0
M  V30 1275 C 117.255 -5.53205 -2.61974 0
M  V30 1276 N 116.392 -5.9326 -3.75483 0
M  V30 1277 H 121.232 -2.95156 -0.410735 0
M  V30 1278 H 118.769 -1.45854 -0.191086 0
M  V30 1279 H 120.727 -3.00883 -2.89008 0
M  V30 1280 H 119.357 -1.90313 -2.60731 0
M  V30 1281 H 118.409 -3.67977 -0.964218 0
M  V30 1282 H 119.721 -4.76482 -1.47534 0
M  V30 1283 H 118.875 -4.70503 -3.8303 0
M  V30 1284 H 117.614 -3.52739 -3.36789 0
M  V30 1285 H 116.619 -5.20086 -1.783 0
M  V30 1286 H 117.844 -6.39936 -2.27284 0
M  V30 1287 H 115.79 -5.11212 -4.11094 0
M  V30 1288 H 115.707 -6.71865 -3.46602 0
M  V30 1289 H 116.975 -6.30651 -4.58148 0
M  V30 1290 N 121.204 0.198386 -1.56346 0
M  V30 1291 C 122.151 1.24589 -1.94284 0
M  V30 1292 C 123.121 1.454 -0.802997 0
M  V30 1293 O 124.306 1.58588 -1.06087 0
M  V30 1294 C 121.446 2.58631 -2.28482 0
M  V30 1295 C 120.559 2.45426 -3.55514 0
M  V30 1296 C 119.694 3.7215 -3.79049 0
M  V30 1297 C 118.733 3.53763 -4.99518 0
M  V30 1298 N 117.87 4.72491 -5.19323 0
M  V30 1299 H 122.71 0.915356 -2.83593 0
M  V30 1300 H 120.247 0.440629 -1.40346 0
M  V30 1301 H 122.205 3.3672 -2.46324 0
M  V30 1302 H 120.835 2.89734 -1.42317 0
M  V30 1303 H 119.887 1.58652 -3.45737 0
M  V30 1304 H 121.199 2.27772 -4.43758 0
M  V30 1305 H 120.353 4.58679 -3.97113 0
M  V30 1306 H 119.092 3.92754 -2.89129 0
M  V30 1307 H 118.097 2.65619 -4.8138 0
M  V30 1308 H 119.322 3.34607 -5.90944 0
M  V30 1309 H 117.268 4.93365 -4.3235 0
M  V30 1310 H 117.185 4.5765 -6.01741 0
M  V30 1311 H 118.453 5.6038 -5.41843 0
M  V30 1312 N 122.682 1.50554 0.465978 0
M  V30 1313 C 123.929 1.61798 1.21768 0
M  V30 1314 C 124.257 0.320696 1.91838 0
M  V30 1315 O 123.512 -0.693724 1.82992 0
M  V30 1316 C 123.811 2.75152 2.28093 0
M  V30 1317 C 123.477 4.15454 1.75239 0
M  V30 1318 C 122.139 4.53628 1.60546 0
M  V30 1319 C 124.491 5.03121 1.36083 0
M  V30 1320 C 121.819 5.77204 1.05128 0
M  V30 1321 C 124.171 6.27249 0.821056 0
M  V30 1322 C 122.835 6.64221 0.660795 0
M  V30 1323 H 122.105 0.592063 0.445582 0
M  V30 1324 H 124.752 1.84503 0.512927 0
M  V30 1325 H 123.057 2.46556 3.04496 0
M  V30 1326 H 124.754 2.81055 2.86023 0
M  V30 1327 H 121.344 3.85341 1.87644 0
M  V30 1328 H 125.528 4.74257 1.46267 0
M  V30 1329 H 120.784 6.0452 0.91462 0
M  V30 1330 H 124.958 6.94537 0.509018 0
M  V30 1331 H 122.585 7.59854 0.229226 0
M  V30 1332 N 124.16 -0.719506 1.40217 0
M  V30 1333 C 125.11 -1.8251 1.36653 0
M  V30 1334 C 126.094 -1.59028 0.244732 0
M  V30 1335 O 127.286 -1.70268 0.483524 0
M  V30 1336 C 124.415 -3.20599 1.22763 0
M  V30 1337 C 123.501 -3.49858 2.39708 0
M  V30 1338 N 123.892 -3.49957 3.6519 0
M  V30 1339 C 122.19 -3.80297 2.33002 0
M  V30 1340 C 122.891 -3.77449 4.42614 0
M  V30 1341 N 121.867 -3.96002 3.72402 0
M  V30 1342 H 125.669 -1.80914 2.31619 0
M  V30 1343 H 123.183 -0.918455 1.33933 0
M  V30 1344 H 125.18 -3.99766 1.18292 0
M  V30 1345 H 123.84 -3.23424 0.287614 0
M  V30 1346 H 124.851 -3.309 3.98404 0
M  V30 1347 H 121.528 -3.90635 1.47346 0
M  V30 1348 H 122.918 -3.83863 5.51451 0
M  V30 1349 N 125.638 -1.25649 -0.95132 0
M  V30 1350 C 126.568 -1.08808 -2.06599 0
M  V30 1351 C 127.549 0.00382547 -1.701 0
M  V30 1352 O 128.734 -0.166325 -1.93486 0
M  V30 1353 C 125.864 -0.709542 -3.39975 0
M  V30 1354 C 124.818 -1.75206 -3.90496 0
M  V30 1355 C 124.144 -1.22811 -5.20405 0
M  V30 1356 C 125.444 -3.15153 -4.16504 0
M  V30 1357 H 127.138 -2.02048 -2.20946 0
M  V30 1358 H 124.684 -0.972835 -1.06169 0
M  V30 1359 H 126.637 -0.578649 -4.17408 0
M  V30 1360 H 125.361 0.258556 -3.25575 0
M  V30 1361 H 124.02 -1.87145 -3.15234 0
M  V30 1362 H 123.668 -0.250145 -5.02378 0
M  V30 1363 H 123.368 -1.92492 -5.55176 0
M  V30 1364 H 124.892 -1.10968 -6.00432 0
M  V30 1365 H 126.306 -3.06349 -4.84586 0
M  V30 1366 H 124.703 -3.82333 -4.62538 0
M  V30 1367 H 125.773 -3.61966 -3.22658 0
M  V30 1368 N 127.117 1.15442 -1.07289 0
M  V30 1369 C 128.394 1.82306 -0.708792 0
M  V30 1370 C 128.774 1.94991 0.808807 0
M  V30 1371 O 128.122 1.50085 1.72298 0
M  V30 1372 C 128.332 3.18695 -1.42247 0
M  V30 1373 C 129.68 3.94341 -1.57417 0
M  V30 1374 O 130.704 3.28247 -1.38319 0
M  V30 1375 O 129.563 5.12839 -1.88834 0
M  V30 1376 H 126.657 0.787628 -0.252132 0
M  V30 1377 H 129.203 1.22559 -1.17377 0
M  V30 1378 H 127.975 3.04557 -2.45684 0
M  V30 1379 H 127.598 3.86128 -0.948223 0
M  V30 1380 N 128.595 0.856903 1.32268 0
M  V30 1381 C 129.558 0.308171 2.27119 0
M  V30 1382 C 130.558 -0.533421 1.51695 0
M  V30 1383 O 131.748 -0.344607 1.70757 0
M  V30 1384 C 128.88 -0.563757 3.36206 0
M  V30 1385 H 130.073 1.14535 2.77167 0
M  V30 1386 H 127.626 0.631421 1.42978 0
M  V30 1387 H 128.361 -1.42266 2.91429 0
M  V30 1388 H 128.146 0.0386749 3.92081 0
M  V30 1389 H 129.636 -0.940386 4.06874 0
M  V30 1390 N 130.073 -1.45103 0.615059 0
M  V30 1391 C 131.036 -2.29025 -0.0895485 0
M  V30 1392 C 132.036 -1.40174 -0.787906 0
M  V30 1393 O 133.226 -1.62217 -0.634933 0
M  V30 1394 C 130.358 -3.21376 -1.13711 0
M  V30 1395 H 131.551 -2.92807 0.648382 0
M  V30 1396 H 129.104 -1.51749 0.374444 0
M  V30 1397 H 129.839 -2.6241 -1.90556 0
M  V30 1398 H 129.624 -3.86834 -0.640475 0
M  V30 1399 H 131.114 -3.84459 -1.63036 0
M  V30 1400 N 131.551 -0.354651 -1.53558 0
M  V30 1401 C 132.781 0.239167 -2.05211 0
M  V30 1402 C 133.189 1.43879 -1.22863 0
M  V30 1403 O 132.532 1.81857 -0.259565 0
M  V30 1404 C 132.594 0.707251 -3.52474 0
M  V30 1405 C 132.258 -0.374212 -4.55465 0
M  V30 1406 C 133.255 -1.22054 -5.0537 0
M  V30 1407 C 130.94 -0.531323 -4.99482 0
M  V30 1408 C 132.934 -2.20942 -5.97882 0
M  V30 1409 C 130.621 -1.52358 -5.91802 0
M  V30 1410 C 131.619 -2.36108 -6.40892 0
M  V30 1411 O 131.307 -3.33643 -7.31394 0
M  V30 1412 H 131.039 0.0479716 -0.674296 0
M  V30 1413 H 133.593 -0.508121 -1.99016 0
M  V30 1414 H 131.823 1.50596 -3.56171 0
M  V30 1415 H 133.512 1.22285 -3.87042 0
M  V30 1416 H 134.278 -1.1103 -4.7212 0
M  V30 1417 H 130.157 0.110738 -4.60867 0
M  V30 1418 H 133.701 -2.86348 -6.36121 0
M  V30 1419 H 129.598 -1.63434 -6.24467 0
M  V30 1420 H 130.366 -3.29244 -7.4936 0
M  V30 1421 N 133.029 1.57378 -0.0835403 0
M  V30 1422 C 134.275 1.94217 0.583733 0
M  V30 1423 C 134.608 0.964653 1.68547 0
M  V30 1424 O 133.883 -0.00422258 1.945 0
M  V30 1425 C 134.166 3.41253 1.14972 0
M  V30 1426 C 134.019 4.49768 0.0538277 0
M  V30 1427 C 135.338 3.89352 2.05166 0
M  V30 1428 H 132.457 0.706233 0.210724 0
M  V30 1429 H 135.099 1.89392 -0.1519 0
M  V30 1430 H 133.249 3.45496 1.77665 0
M  V30 1431 H 134.921 4.57641 -0.579851 0
M  V30 1432 H 133.164 4.29432 -0.614068 0
M  V30 1433 H 133.835 5.49817 0.490452 0
M  V30 1434 H 136.311 3.87189 1.52393 0
M  V30 1435 H 135.187 4.92822 2.41698 0
M  V30 1436 H 135.448 3.27973 2.96456 0
M  V30 1437 N 134.507 -0.190092 1.56449 0
M  V30 1438 C 135.918 -0.754312 1.70784 0
M  V30 1439 C 136.269 -1.83631 0.690951 0
M  V30 1440 O 135.394 -2.15868 -0.151604 0
M  V30 1441 C 135.989 -1.37503 3.09642 0
M  V30 1442 C 134.548 -1.88628 3.25725 0
M  V30 1443 C 133.695 -0.758098 2.66736 0
M  V30 1444 H 136.646 0.0350524 1.58661 0
M  V30 1445 H 136.667 -2.2445 3.0725 0
M  V30 1446 H 136.179 -0.587302 3.83631 0
M  V30 1447 H 134.28 -2.70103 2.56661 0
M  V30 1448 H 134.393 -2.04462 4.3328 0
M  V30 1449 H 132.757 -1.17369 2.26046 0
M  V30 1450 H 133.54 0.0174705 3.43296 0
M  V30 1451 N 135.985 -1.50799 -0.457987 0
M  V30 1452 C 137.21 -1.66496 -1.23668 0
M  V30 1453 C 137.635 -0.353288 -1.84752 0
M  V30 1454 O 136.993 0.684346 -1.67888 0
M  V30 1455 C 137.041 -2.76763 -2.3116 0
M  V30 1456 O 136.145 -2.38928 -3.36136 0
M  V30 1457 H 135.486 -0.555828 -0.363252 0
M  V30 1458 H 138.016 -1.9725 -0.543474 0
M  V30 1459 H 138.026 -3.00232 -2.76269 0
M  V30 1460 H 136.701 -3.71954 -1.86073 0
M  V30 1461 H 135.278 -2.25953 -2.96647 0
M  V30 1462 N 137.463 0.71206 -1.40597 0
M  V30 1463 C 138.879 1.02058 -1.22704 0
M  V30 1464 C 139.079 2.01228 -0.104729 0
M  V30 1465 O 138.135 2.4674 0.53624 0
M  V30 1466 C 139.448 1.56094 -2.57012 0
M  V30 1467 C 140.996 1.6806 -2.64054 0
M  V30 1468 C 141.471 2.25501 -3.9864 0
M  V30 1469 N 142.962 2.32882 -4.004 0
M  V30 1470 C 143.697 2.78317 -5.01325 0
M  V30 1471 N 143.193 3.23478 -6.12645 0
M  V30 1472 N 144.986 2.77733 -4.88693 0
M  V30 1473 H 137.137 0.0547896 -2.12329 0
M  V30 1474 H 139.4 0.0869027 -0.944008 0
M  V30 1475 H 139.106 0.906865 -3.39807 0
M  V30 1476 H 138.98 2.54564 -2.78347 0
M  V30 1477 H 141.367 2.32583 -1.81629 0
M  V30 1478 H 141.448 0.681802 -2.46546 0
M  V30 1479 H 141.092 1.61598 -4.81506 0
M  V30 1480 H 141.022 3.26102 -4.13479 0
M  V30 1481 H 143.513 2.00991 -3.20017 0
M  V30 1482 H 143.826 3.56725 -6.85542 0
M  V30 1483 H 142.171 3.21429 -6.16205 0
M  V30 1484 H 145.362 2.4179 -4.00818 0
M  V30 1485 H 145.535 3.12826 -5.67489 0
M  V30 1486 N 138.941 1.26152 0.944643 0
M  V30 1487 C 139.851 1.09176 2.07648 0
M  V30 1488 C 140.867 0.0261935 1.7398 0
M  V30 1489 O 142.043 0.229208 2.00091 0
M  V30 1490 C 139.108 0.722915 3.39079 0
M  V30 1491 C 138.169 1.86752 3.86552 0
M  V30 1492 C 137.402 1.51617 5.11711 0
M  V30 1493 O 137.625 0.416331 5.68879 0
M  V30 1494 O 136.559 2.34975 5.54139 0
M  V30 1495 H 140.385 2.0412 2.24875 0
M  V30 1496 H 137.97 1.05182 1.061 0
M  V30 1497 H 139.852 0.529787 4.18056 0
M  V30 1498 H 138.527 -0.197159 3.23099 0
M  V30 1499 H 137.434 2.11558 3.08535 0
M  V30 1500 H 138.767 2.76719 4.07047 0
M  V30 1501 N 140.419 -1.14872 1.07899 0
M  V30 1502 C 141.667 -1.85422 0.803941 0
M  V30 1503 C 141.988 -1.83051 -0.67211 0
M  V30 1504 O 141.258 -1.27532 -1.48703 0
M  V30 1505 H 139.838 -0.686537 0.294408 0
M  V30 1506 H 142.5 -1.39226 1.3639 0
M  V30 1507 H 141.596 -2.90399 1.14346 0
M  V30 1508 N 141.898 -0.863906 -1.31812 0
M  V30 1509 C 142.831 -0.259963 -2.26714 0
M  V30 1510 C 143.809 0.607392 -1.50829 0
M  V30 1511 O 144.993 0.562155 -1.79922 0
M  V30 1512 C 142.12 0.632456 -3.32743 0
M  V30 1513 C 141.166 -0.162743 -4.26189 0
M  V30 1514 S 141.999 -1.53726 -5.12961 0
M  V30 1515 C 143.155 -0.650803 -6.22507 0
M  V30 1516 H 143.388 -1.06445 -2.77591 0
M  V30 1517 H 140.921 -0.662071 -1.39485 0
M  V30 1518 H 142.879 1.14167 -3.94305 0
M  V30 1519 H 141.54 1.41083 -2.80632 0
M  V30 1520 H 140.733 0.517366 -5.01338 0
M  V30 1521 H 140.335 -0.60385 -3.69093 0
M  V30 1522 H 142.627 0.141134 -6.77353 0
M  V30 1523 H 143.57 -1.37322 -6.94657 0
M  V30 1524 H 143.978 -0.221041 -5.64067 0
M  V30 1525 N 143.376 1.44774 -0.622745 0
M  V30 1526 C 144.653 1.95522 -0.0551974 0
M  V30 1527 C 145.033 1.5649 1.41683 0
M  V30 1528 O 144.381 0.834848 2.12703 0
M  V30 1529 C 144.591 3.4796 -0.269242 0
M  V30 1530 C 145.939 4.24306 -0.158014 0
M  V30 1531 O 146.963 3.55637 -0.200162 0
M  V30 1532 O 145.822 5.46471 -0.0558693 0
M  V30 1533 H 142.916 0.826556 0.0271015 0
M  V30 1534 H 145.462 1.54866 -0.693864 0
M  V30 1535 H 144.234 3.6939 -1.29099 0
M  V30 1536 H 143.857 3.95543 0.403966 0
M  V30 1537 N 144.854 0.36279 1.53368 0
M  V30 1538 C 145.817 -0.472679 2.24273 0
M  V30 1539 C 146.817 -1.012 1.24961 0
M  V30 1540 O 148.007 -0.898194 1.49259 0
M  V30 1541 C 145.139 -1.66039 2.97731 0
M  V30 1542 H 146.332 0.14773 2.99536 0
M  V30 1543 H 143.885 0.114434 1.55881 0
M  V30 1544 H 144.62 -2.31896 2.26704 0
M  V30 1545 H 144.405 -1.28066 3.70596 0
M  V30 1546 H 145.895 -2.25252 3.51641 0
M  V30 1547 N 146.332 -1.57332 0.0918853 0
M  V30 1548 C 147.262 -2.16872 -0.865371 0
M  V30 1549 C 148.243 -1.10118 -1.29646 0
M  V30 1550 O 149.428 -1.38242 -1.36392 0
M  V30 1551 C 146.558 -2.74649 -2.12569 0
M  V30 1552 C 145.512 -3.86747 -1.83333 0
M  V30 1553 C 144.838 -4.31212 -3.16166 0
M  V30 1554 C 146.138 -5.10089 -1.1228 0
M  V30 1555 H 147.832 -2.97114 -0.369307 0
M  V30 1556 H 145.378 -1.42918 -0.176194 0
M  V30 1557 H 147.331 -3.14952 -2.7997 0
M  V30 1558 H 146.055 -1.91657 -2.64452 0
M  V30 1559 H 144.714 -3.46978 -1.18331 0
M  V30 1560 H 144.362 -3.45115 -3.6593 0
M  V30 1561 H 144.062 -5.06788 -2.97388 0
M  V30 1562 H 145.586 -4.74146 -3.84731 0
M  V30 1563 H 147 -5.47582 -1.69785 0
M  V30 1564 H 145.397 -5.91073 -1.03693 0
M  V30 1565 H 146.467 -4.84786 -0.105041 0
M  V30 1566 N 147.81 0.181792 -1.56548 0
M  V30 1567 C 148.76 1.22961 -1.92002 0
M  V30 1568 C 149.744 1.40331 -0.787146 0
M  V30 1569 O 150.936 1.42478 -1.05019 0
M  V30 1570 C 148.065 2.57144 -2.27446 0
M  V30 1571 C 147.151 2.43512 -3.47222 0
M  V30 1572 N 147.542 1.99577 -4.64761 0
M  V30 1573 C 145.84 2.74368 -3.51622 0
M  V30 1574 C 146.541 1.98156 -5.46909 0
M  V30 1575 N 145.517 2.40164 -4.8767 0
M  V30 1576 H 149.319 0.881462 -2.8037 0
M  V30 1577 H 146.833 0.390141 -1.57644 0
M  V30 1578 H 148.83 3.32847 -2.51035 0
M  V30 1579 H 147.49 2.92771 -1.40411 0
M  V30 1580 H 148.501 1.70078 -4.89177 0
M  V30 1581 H 145.178 3.14102 -2.75038 0
M  V30 1582 H 146.568 1.65975 -6.51077 0
M  V30 1583 N 149.288 1.51039 0.449983 0
M  V30 1584 C 150.537 1.62317 1.19733 0
M  V30 1585 C 150.85 0.339101 1.92638 0
M  V30 1586 O 152.056 0.331069 2.69474 0
M  V30 1587 C 150.512 2.86608 2.17678 0
M  V30 1588 C 150.12 4.21972 1.50479 0
M  V30 1589 C 151.864 3.07239 2.92924 0
M  V30 1590 C 149.771 5.37426 2.46834 0
M  V30 1591 H 148.701 0.604532 0.450619 0
M  V30 1592 H 151.352 1.77494 0.465625 0
M  V30 1593 H 149.734 2.65037 2.94231 0
M  V30 1594 H 150.908 4.53878 0.795716 0
M  V30 1595 H 149.223 4.07117 0.874344 0
M  V30 1596 H 151.82 3.90668 3.65079 0
M  V30 1597 H 152.163 2.19807 3.5354 0
M  V30 1598 H 152.696 3.29091 2.23481 0
M  V30 1599 H 149.435 6.27079 1.90926 0
M  V30 1600 H 148.955 5.09912 3.15832 0
M  V30 1601 H 150.634 5.68862 3.08228 0
M  V30 1602 N 150.766 -0.704594 1.40972 0
M  V30 1603 C 151.991 -1.49858 1.43378 0
M  V30 1604 C 152.416 -1.88061 0.038184 0
M  V30 1605 O 151.774 -1.5402 -0.956425 0
M  V30 1606 C 151.822 -2.74333 2.34038 0
M  V30 1607 O 150.926 -3.7147 1.7912 0
M  V30 1608 H 150.267 -0.45139 0.486974 0
M  V30 1609 H 152.797 -0.866832 1.8533 0
M  V30 1610 H 152.807 -3.22741 2.49604 0
M  V30 1611 H 151.482 -2.45863 3.35446 0
M  V30 1612 H 150.059 -3.30363 1.72958 0
M  V30 1613 N 152.244 -1.26651 -0.937939 0
M  V30 1614 C 153.492 -1.12165 -1.68118 0
M  V30 1615 C 153.813 0.334983 -1.92101 0
M  V30 1616 O 153.083 1.23583 -1.52 0
M  V30 1617 H 151.663 -0.412093 -0.623048 0
M  V30 1618 H 154.325 -1.59027 -1.12678 0
M  V30 1619 H 153.421 -1.64289 -2.6536 0
M  V30 1620 N 153.722 1.14298 -1.08507 0
M  V30 1621 C 154.947 1.8976 -0.837001 0
M  V30 1622 C 155.372 1.78097 0.605228 0
M  V30 1623 O 154.73 1.12188 1.4242 0
M  V30 1624 C 154.778 3.37685 -1.26495 0
M  V30 1625 O 153.882 4.10281 -0.417514 0
M  V30 1626 H 153.223 0.590365 -0.303917 0
M  V30 1627 H 155.753 1.44672 -1.44676 0
M  V30 1628 H 155.763 3.88501 -1.24625 0
M  V30 1629 H 154.438 3.45492 -2.31534 0
M  V30 1630 H 153.015 3.69536 -0.499722 0
M  V30 1631 N 155.201 0.870884 1.31352 0
M  V30 1632 C 156.426 0.495957 2.01383 0
M  V30 1633 C 156.851 -0.904324 1.64935 0
M  V30 1634 O 156.209 -1.59687 0.858466 0
M  V30 1635 C 156.257 0.661433 3.54482 0
M  V30 1636 O 155.361 -0.298851 4.11316 0
M  V30 1637 H 154.702 0.197158 0.634054 0
M  V30 1638 H 157.232 1.17455 1.67527 0
M  V30 1639 H 157.242 0.555072 4.04207 0
M  V30 1640 H 155.917 1.68246 3.8035 0
M  V30 1641 H 154.494 -0.147368 3.72609 0
M  V30 1642 N 156.679 -1.44442 0.630414 0
M  V30 1643 C 157.642 -2.29107 -0.0652523 0
M  V30 1644 C 158.642 -1.41002 -0.772995 0
M  V30 1645 O 159.832 -1.62881 -0.617692 0
M  V30 1646 C 156.964 -3.22564 -1.10296 0
M  V30 1647 H 158.157 -2.92103 0.679401 0
M  V30 1648 H 155.71 -1.51343 0.390517 0
M  V30 1649 H 156.445 -2.64416 -1.87762 0
M  V30 1650 H 156.23 -3.87491 -0.59941 0
M  V30 1651 H 157.72 -3.86167 -1.5895 0
M  V30 1652 N 158.157 -0.370918 -1.53173 0
M  V30 1653 C 159.404 0.217102 -2.01333 0
M  V30 1654 C 159.732 1.48338 -1.25802 0
M  V30 1655 O 158.987 1.92698 -0.34146 0
M  V30 1656 C 159.286 0.549696 -3.53147 0
M  V30 1657 C 158.952 -0.622872 -4.46577 0
M  V30 1658 C 157.614 -0.944595 -4.71838 0
M  V30 1659 C 159.966 -1.40819 -5.01816 0
M  V30 1660 C 157.294 -2.05351 -5.49589 0
M  V30 1661 C 159.646 -2.50757 -5.80778 0
M  V30 1662 C 158.31 -2.83458 -6.04324 0
M  V30 1663 H 157.58 0.0794431 -0.736729 0
M  V30 1664 H 160.227 -0.504481 -1.84736 0
M  V30 1665 H 158.532 1.35237 -3.6772 0
M  V30 1666 H 160.229 1.017 -3.87889 0
M  V30 1667 H 156.819 -0.36209 -4.27068 0
M  V30 1668 H 161.003 -1.17289 -4.82242 0
M  V30 1669 H 156.259 -2.3108 -5.6605 0
M  V30 1670 H 160.433 -3.12022 -6.22588 0
M  V30 1671 H 158.06 -3.69508 -6.64355 0
M  V30 1672 N 159.635 1.57281 -0.100228 0
M  V30 1673 C 160.863 1.98879 0.570509 0
M  V30 1674 C 161.278 0.979476 1.61405 0
M  V30 1675 O 160.635 -0.0302288 1.82475 0
M  V30 1676 C 160.686 3.4052 1.2136 0
M  V30 1677 O 160.407 4.37588 0.211786 0
M  V30 1678 C 161.908 3.97149 1.96945 0
M  V30 1679 H 159.128 0.653428 0.152555 0
M  V30 1680 H 161.672 2.03697 -0.18103 0
M  V30 1681 H 159.827 3.367 1.91603 0
M  V30 1682 H 160.241 5.20118 0.676607 0
M  V30 1683 H 161.715 4.98393 2.37294 0
M  V30 1684 H 162.192 3.3525 2.83733 0
M  V30 1685 H 162.798 4.04458 1.31506 0
M  V30 1686 N 161.113 -0.173488 1.56642 0
M  V30 1687 C 162.524 -0.736155 1.71574 0
M  V30 1688 C 162.875 -1.82888 0.710389 0
M  V30 1689 O 162 -2.16017 -0.1287 0
M  V30 1690 C 162.595 -1.34211 3.11083 0
M  V30 1691 C 161.154 -1.85162 3.27707 0
M  V30 1692 C 160.301 -0.729765 2.67525 0
M  V30 1693 H 163.252 0.0518786 1.58615 0
M  V30 1694 H 163.273 -2.21178 3.09613 0
M  V30 1695 H 162.785 -0.546579 3.84232 0
M  V30 1696 H 160.886 -2.67366 2.59512 0
M  V30 1697 H 160.999 -1.99855 4.35425 0
M  V30 1698 H 159.363 -1.14965 2.27278 0
M  V30 1699 H 160.146 0.0538806 3.43258 0
M  V30 1700 N 162.591 -1.51276 -0.441967 0
M  V30 1701 C 163.554 -1.7167 -1.51862 0
M  V30 1702 C 164.554 -0.586793 -1.49711 0
M  V30 1703 O 165.744 -0.854276 -1.51815 0
M  V30 1704 C 162.876 -1.76889 -2.91416 0
M  V30 1705 H 164.069 -2.67754 -1.35084 0
M  V30 1706 H 161.622 -1.41196 -0.670333 0
M  V30 1707 H 162.357 -0.826026 -3.13604 0
M  V30 1708 H 162.142 -2.59001 -2.94382 0
M  V30 1709 H 163.632 -1.94522 -3.69528 0
M  V30 1710 N 164.069 0.697108 -1.41344 0
M  V30 1711 C 165.001 1.8224 -1.39001 0
M  V30 1712 C 166.014 1.60152 -0.292428 0
M  V30 1713 O 167.203 1.69684 -0.554048 0
M  V30 1714 C 164.303 3.18976 -1.14489 0
M  V30 1715 C 163.476 3.68105 -2.36258 0
M  V30 1716 C 162.535 4.83506 -2.07625 0
M  V30 1717 O 161.561 4.95201 -2.8065 0
M  V30 1718 N 162.763 5.70637 -1.06555 0
M  V30 1719 H 165.528 1.84742 -2.35988 0
M  V30 1720 H 163.089 0.87937 -1.35936 0
M  V30 1721 H 165.081 3.93801 -0.932885 0
M  V30 1722 H 163.651 3.11508 -0.261043 0
M  V30 1723 H 162.871 2.84204 -2.7317 0
M  V30 1724 H 164.159 3.97667 -3.17393 0
M  V30 1725 H 163.557 5.63817 -0.461125 0
M  V30 1726 H 162.114 6.45368 -0.913444 0
M  V30 1727 N 165.547 1.27147 0.931209 0
M  V30 1728 C 166.477 1.12081 2.04842 0
M  V30 1729 C 167.458 0.0232364 1.70084 0
M  V30 1730 O 168.643 0.197085 1.93197 0
M  V30 1731 C 165.773 0.76354 3.38803 0
M  V30 1732 C 164.727 1.81396 3.87659 0
M  V30 1733 C 164.053 1.31075 5.18385 0
M  V30 1734 C 165.353 3.21739 4.11438 0
M  V30 1735 H 167.047 2.05537 2.17703 0
M  V30 1736 H 164.593 0.989603 1.04608 0
M  V30 1737 H 166.546 0.644982 4.16435 0
M  V30 1738 H 165.27 -0.206727 3.25945 0
M  V30 1739 H 163.929 1.92136 3.12217 0
M  V30 1740 H 163.577 0.330037 5.01916 0
M  V30 1741 H 163.277 2.013 5.52044 0
M  V30 1742 H 164.801 1.20506 5.98591 0
M  V30 1743 H 166.215 3.14019 4.79651 0
M  V30 1744 H 164.612 3.89644 4.56397 0
M  V30 1745 H 165.682 3.67054 3.16859 0
M  V30 1746 N 167.025 -1.13721 1.09112 0
M  V30 1747 C 167.972 -2.19031 0.727591 0
M  V30 1748 C 168.942 -1.63555 -0.289656 0
M  V30 1749 O 170.127 -1.90023 -0.172026 0
M  V30 1750 C 167.267 -3.4477 0.15082 0
M  V30 1751 C 166.38 -4.14365 1.22172 0
M  V30 1752 C 165.515 -5.27709 0.608042 0
M  V30 1753 C 164.554 -5.89147 1.66047 0
M  V30 1754 N 163.691 -6.93929 1.06806 0
M  V30 1755 H 168.531 -2.49475 1.62991 0
M  V30 1756 H 166.068 -1.22499 0.81439 0
M  V30 1757 H 168.026 -4.16714 -0.201358 0
M  V30 1758 H 166.656 -3.14787 -0.714783 0
M  V30 1759 H 165.708 -3.40737 1.69122 0
M  V30 1760 H 167.02 -4.56114 2.01895 0
M  V30 1761 H 166.174 -6.06355 0.204523 0
M  V30 1762 H 164.913 -4.872 -0.220769 0
M  V30 1763 H 163.918 -5.09198 2.07357 0
M  V30 1764 H 165.143 -6.31729 2.49189 0
M  V30 1765 H 163.089 -6.55483 0.260476 0
M  V30 1766 H 163.006 -7.34202 1.8023 0
M  V30 1767 H 164.274 -7.76434 0.690644 0
M  V30 1768 N 168.503 -0.877838 -1.30888 0
M  V30 1769 C 169.451 -0.328662 -2.30266 0
M  V30 1770 C 170.445 0.560496 -1.59859 0
M  V30 1771 O 171.651 0.445722 -1.74394 0
M  V30 1772 H 168.026 -0.0876142 -0.746879 0
M  V30 1773 H 169.997 -1.18061 -2.74051 0
M  V30 1774 C 168.746 0.448071 -3.44801 0
M  V30 1775 H 168.069 -0.226859 -3.99156 0
M  V30 1776 H 169.509 0.797541 -4.16432 0
M  V30 1777 C 167.968 1.64239 -2.94155 0
M  V30 1778 O 168.498 2.74175 -2.93583 0
M  V30 1779 N 166.704 1.47716 -2.50256 0
M  V30 1780 H 166.251 0.582821 -2.5092 0
M  V30 1781 H 166.209 2.27765 -2.16727 0
M  V30 1782 N 169.982 1.44106 -0.638065 0
M  V30 1783 C 171.228 2.02277 -0.145546 0
M  V30 1784 C 171.561 1.50125 1.23191 0
M  V30 1785 O 170.836 0.688133 1.8192 0
M  V30 1786 C 171.119 3.59829 -0.139791 0
M  V30 1787 C 170.972 4.22247 -1.55008 0
M  V30 1788 C 172.291 4.36873 0.531966 0
M  V30 1789 H 169.41 0.734992 -0.0543632 0
M  V30 1790 H 172.052 1.71592 -0.815863 0
M  V30 1791 H 170.202 3.86102 0.431007 0
M  V30 1792 H 171.874 4.07057 -2.1703 0
M  V30 1793 H 170.117 3.79476 -2.10191 0
M  V30 1794 H 170.788 5.31284 -1.49804 0
M  V30 1795 H 173.264 4.16074 0.0464781 0
M  V30 1796 H 172.14 5.4657 0.505206 0
M  V30 1797 H 172.401 4.11995 1.60352 0
M  V30 1798 N 171.46 0.379036 1.52974 0
M  V30 1799 C 172.423 -0.448865 2.24762 0
M  V30 1800 C 173.423 -0.998689 1.26027 0
M  V30 1801 O 174.613 -0.882313 1.50203 0
M  V30 1802 C 171.745 -1.62872 2.99476 0
M  V30 1803 H 172.938 0.179491 2.99362 0
M  V30 1804 H 170.491 0.13096 1.5575 0
M  V30 1805 H 171.226 -2.29479 2.29151 0
M  V30 1806 H 171.011 -1.24128 3.71934 0
M  V30 1807 H 172.501 -2.2151 3.5401 0
M  V30 1808 N 172.938 -1.57226 0.108567 0
M  V30 1809 C 173.901 -2.13602 -0.831082 0
M  V30 1810 C 174.901 -1.06841 -1.20173 0
M  V30 1811 O 176.091 -1.32666 -1.12895 0
M  V30 1812 C 173.223 -2.66769 -2.12243 0
M  V30 1813 H 174.416 -2.97951 -0.341317 0
M  V30 1814 H 171.969 -1.55667 -0.14057 0
M  V30 1815 H 172.704 -1.85977 -2.65675 0
M  V30 1816 H 172.489 -3.44839 -1.86625 0
M  V30 1817 H 173.979 -3.10332 -2.79435 0
M  V30 1818 N 174.416 0.165178 -1.56732 0
M  V30 1819 C 175.363 1.2044 -1.96883 0
M  V30 1820 C 176.333 1.43664 -0.833657 0
M  V30 1821 O 177.518 1.56302 -1.09427 0
M  V30 1822 C 174.658 2.53727 -2.33916 0
M  V30 1823 C 173.771 2.3783 -3.6064 0
M  V30 1824 C 172.906 3.64026 -3.86857 0
M  V30 1825 C 171.945 3.43088 -5.06909 0
M  V30 1826 N 171.082 4.61369 -5.29229 0
M  V30 1827 H 175.922 0.854996 -2.85471 0
M  V30 1828 H 173.459 0.41076 -1.41249 0
M  V30 1829 H 175.417 3.31419 -2.53411 0
M  V30 1830 H 174.047 2.8665 -1.48431 0
M  V30 1831 H 173.099 1.51282 -3.49024 0
M  V30 1832 H 174.411 2.18308 -4.4849 0
M  V30 1833 H 173.565 4.50152 -4.06753 0
M  V30 1834 H 172.304 3.86533 -2.97394 0
M  V30 1835 H 171.309 2.55349 -4.86906 0
M  V30 1836 H 172.534 3.21997 -5.97909 0
M  V30 1837 H 170.48 4.84084 -4.42718 0
M  V30 1838 H 170.397 4.44783 -6.11313 0
M  V30 1839 H 171.665 5.48761 -5.53608 0
M  V30 1840 N 175.894 1.51508 0.433938 0
M  V30 1841 C 176.824 1.76016 1.53429 0
M  V30 1842 C 177.805 0.610112 1.58782 0
M  V30 1843 O 178.99 0.853177 1.74455 0
M  V30 1844 C 176.12 1.88831 2.9148 0
M  V30 1845 C 175.074 3.04288 3.00987 0
M  V30 1846 C 174.4 3.0229 4.4105 0
M  V30 1847 C 175.7 4.44193 2.74754 0
M  V30 1848 H 177.394 2.68152 1.33171 0
M  V30 1849 H 174.94 1.29035 0.639214 0
M  V30 1850 H 176.893 2.04559 3.6842 0
M  V30 1851 H 175.617 0.933455 3.12976 0
M  V30 1852 H 174.276 2.8827 2.26486 0
M  V30 1853 H 173.924 2.04576 4.59519 0
M  V30 1854 H 173.624 3.79822 4.4834 0
M  V30 1855 H 175.148 3.20116 5.1996 0
M  V30 1856 H 176.562 4.60544 3.41426 0
M  V30 1857 H 174.959 5.23457 2.9345 0
M  V30 1858 H 176.029 4.53996 1.70339 0
M  V30 1859 N 177.372 -0.689602 1.41712 0
M  V30 1860 C 178.788 -1.00093 1.24312 0
M  V30 1861 C 178.988 -2.01036 0.136729 0
M  V30 1862 O 178.044 -2.47562 -0.496918 0
M  V30 1863 C 179.357 -1.51985 2.59463 0
M  V30 1864 C 180.905 -1.63838 2.66695 0
M  V30 1865 C 181.38 -2.1913 4.02177 0
M  V30 1866 N 182.871 -2.26483 4.04054 0
M  V30 1867 C 183.606 -2.70306 5.0569 0
M  V30 1868 N 183.102 -3.13691 6.17713 0
M  V30 1869 N 184.895 -2.69923 4.9305 0
M  V30 1870 H 177.046 -0.0210029 2.1239 0
M  V30 1871 H 179.309 -0.0718733 0.945272 0
M  V30 1872 H 179.015 -0.85269 3.41207 0
M  V30 1873 H 178.889 -2.50103 2.82362 0
M  V30 1874 H 181.276 -2.29664 1.85306 0
M  V30 1875 H 181.357 -0.642492 2.476 0
M  V30 1876 H 181.001 -1.53918 4.84016 0
M  V30 1877 H 180.931 -3.19482 4.18615 0
M  V30 1878 H 183.422 -1.95874 3.23174 0
M  V30 1879 H 183.735 -3.45773 6.9113 0
M  V30 1880 H 182.08 -3.11585 6.21241 0
M  V30 1881 H 185.271 -2.35382 4.04614 0
M  V30 1882 H 185.444 -3.03758 5.72394 0
M  V30 1883 N 178.85 -1.27639 -0.924453 0
M  V30 1884 C 179.76 -1.12466 -2.05885 0
M  V30 1885 C 180.776 -0.053869 -1.73917 0
M  V30 1886 O 181.952 -0.261012 -1.99702 0
M  V30 1887 C 179.017 -0.776768 -3.37886 0
M  V30 1888 C 178.078 -1.92878 -3.83532 0
M  V30 1889 C 177.311 -1.59739 -5.09234 0
M  V30 1890 O 177.534 -0.506782 -5.68144 0
M  V30 1891 O 176.468 -2.43761 -5.50331 0
M  V30 1892 H 180.294 -2.07671 -2.21599 0
M  V30 1893 H 177.879 -1.06857 -1.04413 0
M  V30 1894 H 179.761 -0.596229 -4.17161 0
M  V30 1895 H 178.436 0.145732 -3.23372 0
M  V30 1896 H 177.343 -2.1644 -3.0513 0
M  V30 1897 H 178.676 -2.8316 -4.02593 0
M  V30 1898 N 180.328 1.1314 -1.09713 0
M  V30 1899 C 181.275 2.18642 -0.739196 0
M  V30 1900 C 182.245 1.63706 0.280978 0
M  V30 1901 O 183.43 1.90111 0.161946 0
M  V30 1902 C 180.57 3.44685 -0.169102 0
M  V30 1903 C 179.683 4.13711 -1.24367 0
M  V30 1904 C 178.818 5.27379 -0.636019 0
M  V30 1905 C 177.857 5.88259 -1.69169 0
M  V30 1906 N 176.994 6.93352 -1.10485 0
M  V30 1907 H 181.834 2.48607 -1.64312 0
M  V30 1908 H 179.371 1.22066 -0.820875 0
M  V30 1909 H 181.329 4.16815 0.179256 0
M  V30 1910 H 179.959 3.15161 0.698079 0
M  V30 1911 H 179.011 3.39835 -1.70927 0
M  V30 1912 H 180.323 4.55037 -2.04311 0
M  V30 1913 H 179.477 6.06238 -0.236677 0
M  V30 1914 H 178.216 4.8731 0.194928 0
M  V30 1915 H 177.221 5.08092 -2.10055 0
M  V30 1916 H 178.446 6.30399 -2.52536 0
M  V30 1917 H 176.392 6.55335 -0.295234 0
M  V30 1918 H 176.309 7.33236 -1.84121 0
M  V30 1919 H 177.577 7.76057 -0.73181 0
M  V30 1920 N 181.806 0.884767 1.30421 0
M  V30 1921 C 183.034 0.518044 2.0031 0
M  V30 1922 C 183.449 -0.893408 1.66324 0
M  V30 1923 O 182.806 -1.5875 0.900262 0
M  V30 1924 C 182.857 0.682997 3.54989 0
M  V30 1925 O 182.578 2.03888 3.87764 0
M  V30 1926 C 184.079 0.31924 4.42149 0
M  V30 1927 H 181.299 0.200265 0.640418 0
M  V30 1928 H 183.843 1.19001 1.6631 0
M  V30 1929 H 181.998 0.0584052 3.87356 0
M  V30 1930 H 182.412 2.05735 4.82466 0
M  V30 1931 H 183.886 0.485555 5.4986 0
M  V30 1932 H 184.363 -0.742717 4.32875 0
M  V30 1933 H 184.969 0.920147 4.15227 0
M  V30 1934 N 183.284 -1.43765 0.645699 0
M  V30 1935 C 184.247 -2.29163 -0.0409488 0
M  V30 1936 C 185.247 -1.41813 -0.757996 0
M  V30 1937 O 186.437 -1.63527 -0.600382 0
M  V30 1938 C 183.569 -3.23716 -1.06869 0
M  V30 1939 H 184.762 -2.91366 0.710345 0
M  V30 1940 H 182.315 -1.5092 0.406547 0
M  V30 1941 H 183.05 -2.66393 -1.84947 0
M  V30 1942 H 182.835 -3.88105 -0.558277 0
M  V30 1943 H 184.325 -3.87831 -1.54845 0
M  V30 1944 N 184.763 -0.387143 -1.52771 0
M  V30 1945 C 186.011 0.195349 -2.01154 0
M  V30 1946 C 186.332 1.475 -1.27549 0
M  V30 1947 O 185.602 1.91878 -0.394924 0
M  V30 1948 H 184.182 0.075178 -0.743207 0
M  V30 1949 H 186.844 -0.518337 -1.87881 0
M  V30 1950 H 185.94 0.407096 -3.09434 0
M  V30 1951 N 186.241 1.57166 -0.116904 0
M  V30 1952 C 187.652 1.82169 0.408809 0
M  V30 1953 C 188.003 1.03393 1.66746 0
M  V30 1954 O 187.128 0.269886 2.1471 0
M  V30 1955 C 187.723 3.30429 0.748466 0
M  V30 1956 C 186.282 3.5612 1.21882 0
M  V30 1957 C 185.429 2.76374 0.226452 0
M  V30 1958 H 188.38 1.5497 -0.342063 0
M  V30 1959 H 188.401 3.44943 1.60607 0
M  V30 1960 H 187.913 3.87737 -0.167784 0
M  V30 1961 H 186.014 3.04168 2.15204 0
M  V30 1962 H 186.127 4.64705 1.16559 0
M  V30 1963 H 184.491 2.44515 0.713063 0
M  V30 1964 H 185.274 3.3644 -0.682859 0
M  V30 1965 N 187.719 -0.156864 1.56817 0
M  V30 1966 C 188.968 -0.869504 1.81996 0
M  V30 1967 C 189.281 -1.82777 0.696545 0
M  V30 1968 O 190.487 -2.58384 0.833658 0
M  V30 1969 C 188.943 -1.59679 3.22538 0
M  V30 1970 C 188.551 -0.681431 4.42787 0
M  V30 1971 C 190.295 -2.2968 3.56997 0
M  V30 1972 C 188.202 -1.40978 5.74351 0
M  V30 1973 H 187.132 -0.328438 0.678708 0
M  V30 1974 H 189.783 -0.1223 1.83092 0
M  V30 1975 H 188.165 -2.38927 3.158 0
M  V30 1976 H 189.339 0.0751166 4.60739 0
M  V30 1977 H 187.654 -0.0903431 4.16302 0
M  V30 1978 H 190.251 -2.84794 4.52544 0
M  V30 1979 H 190.594 -3.05707 2.82576 0
M  V30 1980 H 191.127 -1.57361 3.65352 0
M  V30 1981 H 187.866 -0.691561 6.51842 0
M  V30 1982 H 187.386 -2.13929 5.60352 0
M  V30 1983 H 189.065 -1.95337 6.16808 0
M  V30 1984 N 189.197 -1.51736 -0.425897 0
M  V30 1985 C 190.427 -1.68549 -1.19476 0
M  V30 1986 C 190.835 -0.387288 -1.85194 0
M  V30 1987 O 190.178 0.645142 -1.71999 0
M  V30 1988 C 190.24 -2.75275 -2.31223 0
M  V30 1989 C 189.904 -4.17534 -1.8578 0
M  V30 1990 C 190.901 -5.01936 -1.35485 0
M  V30 1991 C 188.586 -4.6369 -1.93123 0
M  V30 1992 C 190.58 -6.30559 -0.931347 0
M  V30 1993 C 188.267 -5.92307 -1.50384 0
M  V30 1994 C 189.265 -6.75569 -1.00473 0
M  V30 1995 O 188.953 -8.0178 -0.583452 0
M  V30 1996 H 188.685 -0.568525 -0.365725 0
M  V30 1997 H 191.239 -1.98982 -0.509444 0
M  V30 1998 H 189.469 -2.40182 -3.03067 0
M  V30 1999 H 191.158 -2.80853 -2.93047 0
M  V30 2000 H 191.924 -4.67475 -1.29197 0
M  V30 2001 H 187.803 -3.98997 -2.30916 0
M  V30 2002 H 191.347 -6.95498 -0.541084 0
M  V30 2003 H 187.244 -6.2628 -1.56346 0
M  V30 2004 H 188.012 -8.1543 -0.708275 0
M  V30 2005 N 190.675 0.682077 -1.42076 0
M  V30 2006 C 191.952 1.43755 -1.32642 0
M  V30 2007 C 192.332 2.11063 0.0396611 0
M  V30 2008 O 191.68 2.02701 1.05474 0
M  V30 2009 C 191.89 2.44596 -2.48946 0
M  V30 2010 C 193.238 3.09454 -2.9073 0
M  V30 2011 O 194.262 2.54922 -2.48783 0
M  V30 2012 O 193.121 4.08253 -3.63307 0
M  V30 2013 H 190.215 0.640857 -0.522715 0
M  V30 2014 H 192.761 0.711415 -1.54068 0
M  V30 2015 H 191.533 1.93609 -3.40046 0
M  V30 2016 H 191.156 3.24701 -2.29467 0
M  V30 2017 N 192.153 1.28127 0.917671 0
M  V30 2018 C 193.399 1.15223 1.66888 0
M  V30 2019 C 193.732 -0.299293 1.9188 0
M  V30 2020 O 193.007 -1.21805 1.51637 0
M  V30 2021 C 193.29 1.94706 3.02922 0
M  V30 2022 C 193.143 3.47898 2.85109 0
M  V30 2023 C 194.462 1.75939 4.03402 0
M  V30 2024 H 191.581 0.419946 0.605652 0
M  V30 2025 H 194.223 1.57398 1.06423 0
M  V30 2026 H 192.373 1.58864 3.54534 0
M  V30 2027 H 194.045 3.93624 2.40537 0
M  V30 2028 H 192.288 3.7373 2.20246 0
M  V30 2029 H 192.959 3.98765 3.81694 0
M  V30 2030 H 195.435 2.07209 3.60837 0
M  V30 2031 H 194.311 2.33931 4.96556 0
M  V30 2032 H 194.572 0.709877 4.36364 0
M  V30 2033 N 193.631 -1.12557 1.10312 0
M  V30 2034 C 194.908 -1.80363 0.756878 0
M  V30 2035 C 195.288 -1.97067 -0.756824 0
M  V30 2036 O 194.636 -1.54601 -1.68259 0
M  V30 2037 C 194.846 -3.14812 1.50647 0
M  V30 2038 C 196.194 -3.90029 1.67817 0
M  V30 2039 O 197.218 -3.24464 1.46974 0
M  V30 2040 O 196.077 -5.07652 2.02365 0
M  V30 2041 H 193.171 -0.780667 0.272926 0
M  V30 2042 H 195.717 -1.19404 1.20586 0
M  V30 2043 H 194.489 -2.97936 2.53672 0
M  V30 2044 H 194.112 -3.83478 1.05026 0
M  V30 2045 N 195.109 -0.891671 -1.2995 0
M  V30 2046 C 196.039 -0.379797 -2.30391 0
M  V30 2047 C 197.02 0.540919 -1.6127 0
M  V30 2048 O 198.205 0.453352 -1.88834 0
M  V30 2049 C 195.335 0.400654 -3.44981 0
M  V30 2050 C 194.289 -0.428905 -4.25846 0
M  V30 2051 C 193.615 0.478557 -5.32554 0
M  V30 2052 C 194.915 -1.67458 -4.94727 0
M  V30 2053 H 196.609 -1.21914 -2.73454 0
M  V30 2054 H 194.155 -0.587675 -1.31462 0
M  V30 2055 H 196.108 0.769434 -4.14316 0
M  V30 2056 H 194.832 1.27371 -3.0074 0
M  V30 2057 H 193.491 -0.779911 -3.58208 0
M  V30 2058 H 193.139 1.34951 -4.84559 0
M  V30 2059 H 192.839 -0.0727433 -5.87555 0
M  V30 2060 H 194.363 0.843705 -6.04743 0
M  V30 2061 H 195.777 -1.376 -5.56542 0
M  V30 2062 H 194.174 -2.16659 -5.59624 0
M  V30 2063 H 195.244 -2.41518 -4.20473 0
M  V30 2064 N 196.587 1.43421 -0.653314 0
M  V30 2065 C 198.003 1.56341 -0.320886 0
M  V30 2066 C 198.203 1.63696 1.17499 0
M  V30 2067 O 197.259 1.59208 1.95982 0
M  V30 2068 C 198.572 2.82424 -1.03233 0
M  V30 2069 C 200.12 2.96168 -1.01259 0
M  V30 2070 C 200.595 4.25084 -1.70492 0
M  V30 2071 N 202.086 4.31948 -1.67257 0
M  V30 2072 C 202.821 5.30466 -2.17701 0
M  V30 2073 N 202.317 6.35261 -2.76434 0
M  V30 2074 N 204.11 5.2212 -2.082 0
M  V30 2075 H 196.261 1.3689 -1.62403 0
M  V30 2076 H 198.524 0.657455 -0.682977 0
M  V30 2077 H 198.23 2.83053 -2.08744 0
M  V30 2078 H 198.104 3.72653 -0.583948 0
M  V30 2079 H 200.491 2.9508 0.0341235 0
M  V30 2080 H 200.572 2.07229 -1.49966 0
M  V30 2081 H 200.216 4.26932 -2.7512 0
M  V30 2082 H 200.146 5.1292 -1.19251 0
M  V30 2083 H 202.637 3.56838 -1.24398 0
M  V30 2084 H 202.95 7.06754 -3.12601 0
M  V30 2085 H 201.295 6.35884 -2.80495 0
M  V30 2086 H 204.486 4.39166 -1.62021 0
M  V30 2087 H 204.659 5.98739 -2.47822 0
M  V30 2088 N 198.065 0.39524 1.52563 0
M  V30 2089 C 198.997 -0.472201 2.24283 0
M  V30 2090 C 200.01 -1.02178 1.26742 0
M  V30 2091 O 201.199 -0.923097 1.52778 0
M  V30 2092 C 198.299 -1.66775 2.95024 0
M  V30 2093 C 197.472 -1.2445 4.19322 0
M  V30 2094 C 196.531 -2.30539 4.7301 0
M  V30 2095 O 195.557 -1.91702 5.35947 0
M  V30 2096 N 196.759 -3.6253 4.53379 0
M  V30 2097 H 199.524 0.142282 2.99362 0
M  V30 2098 H 197.085 0.2219 1.60372 0
M  V30 2099 H 199.077 -2.37283 3.27839 0
M  V30 2100 H 197.647 -2.18845 2.23217 0
M  V30 2101 H 196.867 -0.368069 3.92478 0
M  V30 2102 H 198.155 -0.938457 5.0007 0
M  V30 2103 H 197.553 -3.96841 4.03154 0
M  V30 2104 H 196.11 -4.29055 4.90668 0
M  V30 2105 N 199.544 -1.57102 0.125237 0
M  V30 2106 C 200.454 -2.19191 -0.8362 0
M  V30 2107 C 201.47 -1.16985 -1.28805 0
M  V30 2108 O 202.646 -1.49479 -1.34974 0
M  V30 2109 C 199.711 -2.78407 -2.06617 0
M  V30 2110 C 198.772 -3.9567 -1.66565 0
M  V30 2111 C 198.005 -4.52052 -2.83698 0
M  V30 2112 O 198.228 -4.07326 -3.99302 0
M  V30 2113 O 197.162 -5.42645 -2.60423 0
M  V30 2114 H 200.988 -3.01816 -0.337776 0
M  V30 2115 H 198.573 -1.4906 -0.100695 0
M  V30 2116 H 200.455 -3.16129 -2.7864 0
M  V30 2117 H 199.13 -1.9881 -2.55453 0
M  V30 2118 H 198.037 -3.62705 -0.916296 0
M  V30 2119 H 199.37 -4.76722 -1.22464 0
M  V30 2120 N 201.022 0.148545 -1.56898 0
M  V30 2121 C 202.247 0.880385 -1.87787 0
M  V30 2122 C 202.672 1.74018 -0.714093 0
M  V30 2123 O 202.03 1.78153 0.336343 0
M  V30 2124 C 202.078 1.71422 -3.17249 0
M  V30 2125 O 201.182 2.8183 -3.01074 0
M  V30 2126 H 200.523 0.245301 -0.617028 0
M  V30 2127 H 203.053 0.139826 -2.04122 0
M  V30 2128 H 203.063 2.10954 -3.49231 0
M  V30 2129 H 201.738 1.08284 -4.01556 0
M  V30 2130 H 200.315 2.45715 -2.80497 0
M  V30 2131 N 202.5 1.5196 0.417844 0
M  V30 2132 C 203.45 1.7106 1.5074 0
M  V30 2133 C 204.434 0.564487 1.50673 0
M  V30 2134 O 205.626 0.821206 1.56797 0
M  V30 2135 C 202.755 1.85677 2.88754 0
M  V30 2136 C 201.841 3.06133 2.93502 0
M  V30 2137 N 202.232 4.28987 2.67962 0
M  V30 2138 C 200.53 3.05787 3.24669 0
M  V30 2139 C 201.231 5.10395 2.79055 0
M  V30 2140 N 200.207 4.45455 3.11561 0
M  V30 2141 H 204.009 2.63696 1.29775 0
M  V30 2142 H 201.523 1.49873 0.625436 0
M  V30 2143 H 203.52 1.97475 3.67164 0
M  V30 2144 H 202.18 0.942348 3.10725 0
M  V30 2145 H 203.191 4.57607 2.4252 0
M  V30 2146 H 199.868 2.2405 3.52289 0
M  V30 2147 H 201.258 6.18247 2.63097 0
M  V30 2148 N 203.978 -0.674533 1.42435 0
M  V30 2149 C 205.226 -1.43175 1.42637 0
M  V30 2150 C 205.547 -1.94951 0.0438992 0
M  V30 2151 O 204.817 -1.7308 -0.917607 0
M  V30 2152 H 203.397 -0.531307 0.525092 0
M  V30 2153 H 206.059 -0.797006 1.77859 0
M  V30 2154 H 205.155 -2.28463 2.12629 0
M  V30 2155 N 205.456 -1.28612 -0.910864 0
M  V30 2156 C 206.686 -1.1862 -1.69153 0
M  V30 2157 C 207.094 0.257324 -1.87442 0
M  V30 2158 O 206.437 1.18543 -1.40332 0
M  V30 2159 C 206.499 -1.81606 -3.10257 0
M  V30 2160 C 206.163 -3.30864 -3.15243 0
M  V30 2161 C 207.16 -4.27256 -2.96223 0
M  V30 2162 C 204.845 -3.71871 -3.37664 0
M  V30 2163 C 206.839 -5.62631 -2.99541 0
M  V30 2164 C 204.526 -5.07371 -3.40614 0
M  V30 2165 C 205.524 -6.02561 -3.21573 0
M  V30 2166 O 205.212 -7.35589 -3.2429 0
M  V30 2167 H 204.944 -0.412633 -0.535453 0
M  V30 2168 H 207.498 -1.70306 -1.14827 0
M  V30 2169 H 205.728 -1.24418 -3.66138 0
M  V30 2170 H 207.417 -1.66092 -3.70362 0
M  V30 2171 H 208.183 -3.9691 -2.78725 0
M  V30 2172 H 204.062 -2.98241 -3.5153 0
M  V30 2173 H 207.606 -6.36907 -2.84597 0
M  V30 2174 H 203.503 -5.37366 -3.57642 0
M  V30 2175 H 204.271 -7.44252 -3.40633 0
M  V30 2176 N 206.934 1.1197 -1.10907 0
M  V30 2177 C 207.864 2.19928 -0.784473 0
M  V30 2178 C 208.845 1.6833 0.244726 0
M  V30 2179 O 210.03 1.93892 0.109418 0
M  V30 2180 C 207.16 3.46597 -0.220827 0
M  V30 2181 C 206.114 4.11376 -1.18127 0
M  V30 2182 C 205.44 5.32554 -0.478594 0
M  V30 2183 C 206.74 4.56945 -2.52979 0
M  V30 2184 H 208.434 2.47337 -1.68715 0
M  V30 2185 H 205.98 1.18879 -0.812642 0
M  V30 2186 H 207.933 4.21396 0.0184278 0
M  V30 2187 H 206.657 3.1863 0.717113 0
M  V30 2188 H 205.316 3.38564 -1.40606 0
M  V30 2189 H 204.964 5.00856 0.463976 0
M  V30 2190 H 204.664 5.76844 -1.11912 0
M  V30 2191 H 206.188 6.10096 -0.248 0
M  V30 2192 H 207.602 5.23093 -2.3462 0
M  V30 2193 H 205.999 5.1203 -3.12962 0
M  V30 2194 H 207.069 3.70676 -3.12614 0
M  V30 2195 N 208.412 0.89855 1.29475 0
M  V30 2196 C 209.689 0.443416 1.90508 0
M  V30 2197 C 210.069 -1.07685 1.81569 0
M  V30 2198 O 209.417 -1.9182 1.24166 0
M  V30 2199 C 209.627 0.956708 3.35631 0
M  V30 2200 C 210.975 0.999728 4.12663 0
M  V30 2201 O 211.999 0.904299 3.4453 0
M  V30 2202 O 210.858 1.14289 5.34416 0
M  V30 2203 H 207.952 0.138025 0.815401 0
M  V30 2204 H 210.498 0.98834 1.37949 0
M  V30 2205 H 209.27 2.00067 3.36287 0
M  V30 2206 H 208.893 0.391728 3.95666 0
M  V30 2207 N 209.89 -1.43072 0.660911 0
M  V30 2208 C 211.138 -2.01323 0.177094 0
M  V30 2209 C 211.459 -1.5245 -1.2159 0
M  V30 2210 O 210.729 -0.740322 -1.81373 0
M  V30 2211 H 209.309 -0.744382 0.0624804 0
M  V30 2212 H 211.971 -1.75179 0.854305 0
M  V30 2213 H 211.067 -3.11649 0.167641 0
M  V30 2214 N 211.368 -0.403325 -1.52352 0
M  V30 2215 C 212.617 0.175668 -2.00934 0
M  V30 2216 C 212.93 1.46718 -1.29356 0
M  V30 2217 O 214.136 2.12708 -1.68724 0
M  V30 2218 C 212.592 0.363612 -3.58058 0
M  V30 2219 C 212.2 -0.915472 -4.38547 0
M  V30 2220 C 213.944 0.89821 -4.14888 0
M  V30 2221 C 211.851 -0.695035 -5.87302 0
M  V30 2222 H 210.781 0.0694234 -0.750797 0
M  V30 2223 H 213.432 -0.527879 -1.75743 0
M  V30 2224 H 211.814 1.12935 -3.79555 0
M  V30 2225 H 212.988 -1.68691 -4.28812 0
M  V30 2226 H 211.303 -1.37606 -3.93006 0
M  V30 2227 H 213.9 1.07907 -5.23699 0
M  V30 2228 H 214.243 1.87126 -3.71873 0
M  V30 2229 H 214.776 0.191681 -3.97338 0
M  V30 2230 H 211.515 -1.63948 -6.34666 0
M  V30 2231 H 211.035 0.0372116 -5.99788 0
M  V30 2232 H 212.714 -0.33497 -6.46132 0
M  V30 2233 N 212.846 1.57033 -0.133567 0
M  V30 2234 C 214.257 1.82593 0.389464 0
M  V30 2235 C 214.608 1.05156 1.6564 0
M  V30 2236 O 213.733 0.292644 2.14412 0
M  V30 2237 C 214.328 3.31204 0.713377 0
M  V30 2238 C 212.887 3.57393 1.18098 0
M  V30 2239 C 212.034 2.76598 0.197126 0
M  V30 2240 H 214.985 1.54598 -0.358481 0
M  V30 2241 H 215.006 3.46627 1.56939 0
M  V30 2242 H 214.518 3.87537 -0.2089 0
M  V30 2243 H 212.619 3.06433 2.11966 0
M  V30 2244 H 212.732 4.65915 1.11624 0
M  V30 2245 H 211.096 2.45257 0.687088 0
M  V30 2246 H 211.879 3.35697 -0.718504 0
M  V30 2247 N 214.325 -0.140222 1.56975 0
M  V30 2248 C 215.571 -0.852949 1.83991 0
M  V30 2249 C 215.904 -1.80512 0.716187 0
M  V30 2250 O 215.179 -1.92479 -0.279681 0
M  V30 2251 C 215.462 -1.6215 3.21527 0
M  V30 2252 C 215.315 -0.690363 4.4447 0
M  V30 2253 C 216.634 -2.58247 3.56366 0
M  V30 2254 H 213.753 -0.308634 0.669264 0
M  V30 2255 H 216.395 -0.117898 1.89634 0
M  V30 2256 H 214.545 -2.24812 3.16847 0
M  V30 2257 H 216.217 -0.0742264 4.6124 0
M  V30 2258 H 214.46 -0.000396433 4.338 0
M  V30 2259 H 215.131 -1.2643 5.37326 0
M  V30 2260 H 217.607 -2.05701 3.61699 0
M  V30 2261 H 216.483 -3.09067 4.53617 0
M  V30 2262 H 216.744 -3.39923 2.82674 0
M  V30 2263 N 215.803 -1.52179 -0.40978 0
M  V30 2264 C 217.028 -1.70347 -1.18308 0
M  V30 2265 C 217.453 -0.411887 -1.83535 0
M  V30 2266 O 216.811 0.630587 -1.6998 0
M  V30 2267 C 216.859 -2.83977 -2.22238 0
M  V30 2268 O 215.963 -2.495 -3.28365 0
M  V30 2269 H 215.304 -0.567103 -0.345384 0
M  V30 2270 H 217.834 -1.98879 -0.480445 0
M  V30 2271 H 217.844 -3.0887 -2.66577 0
M  V30 2272 H 216.519 -3.77685 -1.74146 0
M  V30 2273 H 215.096 -2.35277 -2.89308 0
M  V30 2274 N 217.281 0.66697 -1.42791 0
M  V30 2275 C 218.527 1.42754 -1.44889 0
M  V30 2276 C 218.882 1.92283 -0.0669755 0
M  V30 2277 O 218.175 1.68494 0.912154 0
M  V30 2278 C 218.369 2.6349 -2.4147 0
M  V30 2279 C 218.198 2.25776 -3.88915 0
M  V30 2280 C 216.968 2.1476 -4.57391 0
M  V30 2281 C 219.166 1.86927 -4.79127 0
M  V30 2282 N 217.148 1.70232 -5.89826 0
M  V30 2283 C 218.519 1.53378 -6.00729 0
M  V30 2284 C 220.574 1.73989 -4.66511 0
M  V30 2285 C 219.277 1.08187 -7.11117 0
M  V30 2286 C 221.303 1.30203 -5.76889 0
M  V30 2287 C 220.665 0.975818 -6.97608 0
M  V30 2288 H 216.764 0.518559 -0.585338 0
M  V30 2289 H 219.348 0.768906 -1.78874 0
M  V30 2290 H 217.519 3.27033 -2.09533 0
M  V30 2291 H 219.251 3.30123 -2.34096 0
M  V30 2292 H 216.006 2.3408 -4.11708 0
M  V30 2293 H 216.43 1.50369 -6.6009 0
M  V30 2294 H 221.072 1.97853 -3.7365 0
M  V30 2295 H 218.79 0.830701 -8.03819 0
M  V30 2296 H 222.376 1.20701 -5.69142 0
M  V30 2297 H 221.256 0.642157 -7.81566 0
M  V30 2298 N 218.759 1.29093 0.90403 0
M  V30 2299 C 219.989 1.19516 1.68522 0
M  V30 2300 C 220.397 -0.24738 1.87576 0
M  V30 2301 O 219.74 -1.17798 1.40959 0
M  V30 2302 C 219.802 1.83249 3.0929 0
M  V30 2303 C 219.466 3.32531 3.13484 0
M  V30 2304 C 220.463 4.28821 2.93953 0
M  V30 2305 C 218.148 3.73656 3.35688 0
M  V30 2306 C 220.142 5.64212 2.96553 0
M  V30 2307 C 217.829 5.0917 3.37919 0
M  V30 2308 C 218.827 6.04258 3.18373 0
M  V30 2309 O 218.515 7.37298 3.20385 0
M  V30 2310 H 218.247 0.415467 0.533257 0
M  V30 2311 H 220.801 1.70912 1.13922 0
M  V30 2312 H 219.031 1.26358 3.65473 0
M  V30 2313 H 220.72 1.68054 3.69476 0
M  V30 2314 H 221.486 3.98382 2.76616 0
M  V30 2315 H 217.365 3.00101 3.49943 0
M  V30 2316 H 220.909 6.38407 2.81216 0
M  V30 2317 H 216.806 5.39256 3.54787 0
M  V30 2318 H 217.574 7.46048 3.36681 0
M  V30 2319 N 220.237 -1.11381 1.11499 0
M  V30 2320 C 221.485 -1.8277 0.862524 0
M  V30 2321 C 221.806 -1.85097 -0.613534 0
M  V30 2322 O 221.076 -1.32198 -1.4457 0
M  V30 2323 H 219.656 -0.676823 0.316101 0
M  V30 2324 H 222.318 -1.34816 1.4075 0
M  V30 2325 H 221.414 -2.86614 1.23527 0
M  V30 2326 N 221.715 -0.905404 -1.28997 0
M  V30 2327 C 222.625 -0.392246 -2.31298 0
M  V30 2328 C 223.641 0.515889 -1.66176 0
M  V30 2329 O 224.817 0.404093 -1.97304 0
M  V30 2330 C 221.882 0.36686 -3.44754 0
M  V30 2331 C 220.943 -0.573485 -4.25452 0
M  V30 2332 C 220.176 0.149488 -5.33491 0
M  V30 2333 O 220.399 1.37255 -5.5364 0
M  V30 2334 O 219.333 -0.510919 -5.99728 0
M  V30 2335 H 223.159 -1.2411 -2.77183 0
M  V30 2336 H 220.744 -0.669926 -1.33538 0
M  V30 2337 H 222.626 0.795907 -4.13816 0
M  V30 2338 H 221.301 1.19169 -3.00966 0
M  V30 2339 H 220.208 -1.05176 -3.59011 0
M  V30 2340 H 221.541 -1.36489 -4.72897 0
M  V30 2341 N 223.193 1.4272 -0.668489 0
M  V30 2342 C 224.609 1.55992 -0.33745 0
M  V30 2343 C 224.809 1.64933 1.15756 0
M  V30 2344 O 223.865 1.61278 1.94282 0
M  V30 2345 C 225.178 2.81314 -1.06222 0
M  V30 2346 C 226.726 2.95078 -1.04394 0
M  V30 2347 C 227.201 4.23252 -1.74991 0
M  V30 2348 N 228.692 4.3015 -1.71829 0
M  V30 2349 C 229.427 5.28127 -2.23315 0
M  V30 2350 N 228.923 6.32293 -2.83156 0
M  V30 2351 N 230.716 5.19882 -2.13726 0
M  V30 2352 H 222.867 1.3516 -1.63846 0
M  V30 2353 H 225.13 0.650174 -0.689912 0
M  V30 2354 H 224.836 2.80823 -2.11734 0
M  V30 2355 H 224.71 3.72012 -0.62344 0
M  V30 2356 H 227.097 2.951 0.0028244 0
M  V30 2357 H 227.178 2.05627 -1.52155 0
M  V30 2358 H 226.822 4.2399 -2.79633 0
M  V30 2359 H 226.752 5.11626 -1.24685 0
M  V30 2360 H 229.243 3.55499 -1.28175 0
M  V30 2361 H 229.556 7.03398 -3.20079 0
M  V30 2362 H 227.901 6.32873 -2.87223 0
M  V30 2363 H 231.092 4.37423 -1.66669 0
M  V30 2364 H 231.265 5.96077 -2.54158 0
M  V30 2365 N 224.671 0.411399 1.52136 0
M  V30 2366 C 225.948 -0.222308 1.94333 0
M  V30 2367 C 226.328 -1.6242 1.34844 0
M  V30 2368 O 225.676 -2.22384 0.525145 0
M  V30 2369 C 225.886 -0.226345 3.48265 0
M  V30 2370 C 227.234 -0.444592 4.22266 0
M  V30 2371 O 228.258 -0.305602 3.54887 0
M  V30 2372 O 227.117 -0.718749 5.41753 0
M  V30 2373 H 224.211 -0.143907 0.814383 0
M  V30 2374 H 226.757 0.467506 1.63133 0
M  V30 2375 H 225.529 0.75475 3.83952 0
M  V30 2376 H 225.152 -0.960163 3.85832 0
M  V30 2377 N 226.149 -1.5696 0.141893 0
M  V30 2378 C 227.395 -1.97034 -0.504884 0
M  V30 2379 C 227.75 -1.02518 -1.62812 0
M  V30 2380 O 227.043 -0.0592943 -1.91508 0
M  V30 2381 C 227.237 -3.41242 -1.06249 0
M  V30 2382 C 227.066 -4.497 0.00519653 0
M  V30 2383 C 225.836 -5.03338 0.444873 0
M  V30 2384 C 228.034 -5.08122 0.794767 0
M  V30 2385 N 226.016 -5.95395 1.49593 0
M  V30 2386 C 227.387 -5.96339 1.69645 0
M  V30 2387 C 229.442 -4.9071 0.843122 0
M  V30 2388 C 228.145 -6.69009 2.64233 0
M  V30 2389 C 230.171 -5.64077 1.77681 0
M  V30 2390 C 229.533 -6.51999 2.66603 0
M  V30 2391 H 225.632 -0.766745 -0.153707 0
M  V30 2392 H 228.216 -1.93273 0.235313 0
M  V30 2393 H 226.387 -3.45606 -1.77231 0
M  V30 2394 H 228.119 -3.68389 -1.67546 0
M  V30 2395 H 224.874 -4.73576 0.0480959 0
M  V30 2396 H 225.298 -6.46128 2.02107 0
M  V30 2397 H 229.94 -4.22459 0.169732 0
M  V30 2398 H 227.658 -7.36492 3.32575 0
M  V30 2399 H 231.244 -5.52602 1.81996 0
M  V30 2400 H 230.124 -7.07775 3.37675 0
M  V30 2401 N 227.627 0.131896 -1.57047 0
M  V30 2402 C 228.59 1.14638 -1.98471 0
M  V30 2403 C 229.59 1.35029 -0.873148 0
M  V30 2404 O 230.78 1.31764 -1.13946 0
M  V30 2405 C 227.912 2.50358 -2.31373 0
M  V30 2406 H 229.105 0.79064 -2.8929 0
M  V30 2407 H 226.658 0.375761 -1.51716 0
M  V30 2408 H 227.393 2.90876 -1.43393 0
M  V30 2409 H 227.178 2.36915 -3.12432 0
M  V30 2410 H 228.668 3.23395 -2.64207 0
M  V30 2411 N 229.106 1.52395 0.401703 0
M  V30 2412 C 230.054 1.7689 1.51039 0
M  V30 2413 C 231.048 0.636298 1.56996 0
M  V30 2414 O 232.254 0.818507 1.60314 0
M  V30 2415 H 228.629 0.559502 0.502456 0
M  V30 2416 H 230.6 2.69757 1.27568 0
M  V30 2417 C 229.349 1.94331 2.88324 0
M  V30 2418 H 228.672 2.80905 2.84486 0
M  V30 2419 H 230.112 2.15466 3.65172 0
M  V30 2420 C 228.571 0.712396 3.29282 0
M  V30 2421 O 229.101 -0.116218 4.01532 0
M  V30 2422 N 227.307 0.546154 2.85422 0
M  V30 2423 H 226.854 1.22156 2.26794 0
M  V30 2424 H 226.812 -0.276113 3.13185 0
M  V30 2425 N 230.584 -0.659388 1.43143 0
M  V30 2426 C 231.514 -1.78422 1.50625 0
M  V30 2427 C 232.495 -1.66216 0.361443 0
M  V30 2428 O 233.68 -1.85404 0.577834 0
M  V30 2429 C 230.81 -3.16815 1.42287 0
M  V30 2430 C 229.764 -3.43777 2.54954 0
M  V30 2431 C 229.09 -4.81905 2.31671 0
M  V30 2432 C 230.39 -3.39134 3.97222 0
M  V30 2433 H 232.084 -1.72417 2.44771 0
M  V30 2434 H 229.63 -0.828084 1.17808 0
M  V30 2435 H 231.583 -3.95253 1.46127 0
M  V30 2436 H 230.307 -3.23534 0.446435 0
M  V30 2437 H 228.966 -2.67707 2.50457 0
M  V30 2438 H 228.614 -4.85294 1.32284 0
M  V30 2439 H 228.314 -5.00906 3.07192 0
M  V30 2440 H 229.838 -5.62609 2.37284 0
M  V30 2441 H 231.252 -4.07518 4.03239 0
M  V30 2442 H 229.649 -3.69671 4.72719 0
M  V30 2443 H 230.719 -2.37426 4.22797 0
M  V30 2444 N 232.062 -1.29571 -0.897171 0
M  V30 2445 C 233.31 -1.17456 -1.64464 0
M  V30 2446 C 233.631 0.273698 -1.9307 0
M  V30 2447 O 232.901 1.18684 -1.55855 0
M  V30 2448 H 231.481 -0.431706 -0.609622 0
M  V30 2449 H 234.143 -1.62531 -1.07562 0
M  V30 2450 H 233.239 -1.72648 -2.59998 0
M  V30 2451 N 233.54 1.10788 -1.12088 0
M  V30 2452 C 234.487 2.17025 -0.785407 0
M  V30 2453 C 235.457 1.64265 0.246191 0
M  V30 2454 O 236.642 1.90412 0.121584 0
M  V30 2455 C 233.782 3.44249 -0.242177 0
M  V30 2456 C 232.895 4.1098 -1.33115 0
M  V30 2457 C 232.03 5.25911 -0.747741 0
M  V30 2458 C 231.069 5.84538 -1.81609 0
M  V30 2459 N 230.206 6.90853 -1.25167 0
M  V30 2460 H 235.046 2.45066 -1.69548 0
M  V30 2461 H 232.583 1.20297 -0.846582 0
M  V30 2462 H 234.541 4.17101 0.0908026 0
M  V30 2463 H 233.171 3.16571 0.631072 0
M  V30 2464 H 232.223 3.36133 -1.78097 0
M  V30 2465 H 233.535 4.50601 -2.13917 0
M  V30 2466 H 232.689 6.056 -0.365216 0
M  V30 2467 H 231.428 4.87614 0.0915188 0
M  V30 2468 H 230.433 5.03522 -2.20785 0
M  V30 2469 H 231.658 6.249 -2.6585 0
M  V30 2470 H 229.604 6.54562 -0.434174 0
M  V30 2471 H 229.521 7.29166 -1.99633 0
M  V30 2472 H 230.789 7.7433 -0.896259 0
M  V30 2473 N 235.018 0.912232 1.28515 0
M  V30 2474 C 236.243 0.559774 1.99703 0
M  V30 2475 C 236.668 -0.851393 1.67729 0
M  V30 2476 O 236.026 -1.56875 0.908834 0
M  V30 2477 C 236.074 0.773874 3.52198 0
M  V30 2478 O 235.178 -0.167842 4.12058 0
M  V30 2479 H 234.519 0.21723 0.627461 0
M  V30 2480 H 237.049 1.22725 1.63706 0
M  V30 2481 H 237.059 0.683386 4.02236 0
M  V30 2482 H 235.734 1.80261 3.74805 0
M  V30 2483 H 234.311 -0.0287509 3.72889 0
M  V30 2484 N 236.496 -1.42363 0.676048 0
M  V30 2485 C 237.428 -2.29164 -0.0404605 0
M  V30 2486 C 238.441 -1.43747 -0.764245 0
M  V30 2487 O 239.63 -1.67453 -0.618195 0
M  V30 2488 C 236.73 -3.21196 -1.08103 0
M  V30 2489 C 235.903 -4.35273 -0.430812 0
M  V30 2490 C 234.962 -5.08017 -1.37133 0
M  V30 2491 O 233.988 -5.62494 -0.87116 0
M  V30 2492 N 235.19 -5.13647 -2.70456 0
M  V30 2493 H 237.955 -2.91298 0.704667 0
M  V30 2494 H 235.516 -1.53303 0.520559 0
M  V30 2495 H 237.508 -3.66728 -1.71152 0
M  V30 2496 H 236.078 -2.60505 -1.72788 0
M  V30 2497 H 235.298 -3.92372 0.379209 0
M  V30 2498 H 236.586 -5.08795 0.0221132 0
M  V30 2499 H 235.984 -4.708 -3.1363 0
M  V30 2500 H 234.541 -5.62821 -3.28749 0
M  V30 2501 N 237.974 -0.419461 -1.51915 0
M  V30 2502 C 238.924 0.418496 -2.24126 0
M  V30 2503 C 239.908 1.00495 -1.25656 0
M  V30 2504 O 241.1 0.926058 -1.50842 0
M  V30 2505 C 238.229 1.52899 -3.07371 0
M  V30 2506 C 237.315 0.952797 -4.13258 0
M  V30 2507 N 237.706 0.104175 -5.05693 0
M  V30 2508 C 236.004 1.22224 -4.28926 0
M  V30 2509 C 236.705 -0.21752 -5.81293 0
M  V30 2510 N 235.681 0.394293 -5.42168 0
M  V30 2511 H 239.483 -0.236048 -2.92951 0
M  V30 2512 H 236.997 -0.230481 -1.60756 0
M  V30 2513 H 238.994 2.14199 -3.57665 0
M  V30 2514 H 237.654 2.18605 -2.40088 0
M  V30 2515 H 238.665 -0.260924 -5.17242 0
M  V30 2516 H 235.342 1.87812 -3.72871 0
M  V30 2517 H 236.732 -0.906992 -6.6575 0
M  V30 2518 N 239.452 1.56882 -0.150215 0
M  V30 2519 C 240.362 2.20494 0.801222 0
M  V30 2520 C 241.378 1.19019 1.26927 0
M  V30 2521 O 242.554 1.51607 1.32579 0
M  V30 2522 C 239.619 2.81659 2.02161 0
M  V30 2523 C 238.68 3.9827 1.60249 0
M  V30 2524 C 237.913 4.56508 2.7647 0
M  V30 2525 O 238.136 4.13627 3.92771 0
M  V30 2526 O 237.07 5.46719 2.51757 0
M  V30 2527 H 240.896 3.02315 0.289717 0
M  V30 2528 H 238.481 1.49202 0.0769684 0
M  V30 2529 H 240.363 3.20522 2.73576 0
M  V30 2530 H 239.038 2.02849 2.52258 0
M  V30 2531 H 237.945 3.64117 0.858477 0
M  V30 2532 H 239.278 4.78609 1.14864 0
M  V30 2533 N 240.93 -0.123565 1.57115 0
M  V30 2534 C 241.893 -1.13583 1.99076 0
M  V30 2535 C 242.893 -1.34564 0.880296 0
M  V30 2536 O 244.083 -1.31158 1.14644 0
M  V30 2537 C 241.215 -2.49128 2.32698 0
M  V30 2538 H 242.408 -0.775287 2.89706 0
M  V30 2539 H 239.961 -0.36771 1.51913 0
M  V30 2540 H 240.696 -2.90111 1.44934 0
M  V30 2541 H 240.481 -2.35255 3.13684 0
M  V30 2542 H 241.971 -3.2199 2.65918 0
M  V30 2543 N 242.408 -1.52605 -0.393616 0
M  V30 2544 C 243.338 -1.80022 -1.48709 0
M  V30 2545 C 244.319 -0.651995 -1.57108 0
M  V30 2546 O 245.504 -0.89913 -1.72132 0
M  V30 2547 C 242.634 -1.96492 -2.86371 0
M  V30 2548 C 241.588 -3.12161 -2.92813 0
M  V30 2549 C 240.914 -3.13877 -4.3288 0
M  V30 2550 C 242.214 -4.51322 -2.6288 0
M  V30 2551 H 243.908 -2.71589 -1.26015 0
M  V30 2552 H 241.454 -1.30684 -0.604778 0
M  V30 2553 H 243.407 -2.14255 -3.62867 0
M  V30 2554 H 242.131 -1.01611 -3.10391 0
M  V30 2555 H 240.79 -2.94173 -2.18764 0
M  V30 2556 H 240.438 -2.16687 -4.53933 0
M  V30 2557 H 240.138 -3.91576 -4.38112 0
M  V30 2558 H 241.662 -3.33789 -5.1129 0
M  V30 2559 H 243.076 -4.69435 -3.29096 0
M  V30 2560 H 241.473 -5.31053 -2.79468 0
M  V30 2561 H 242.543 -4.58353 -1.58242 0
M  V30 2562 N 243.887 0.651787 -1.4349 0
M  V30 2563 C 244.85 1.74647 -1.48429 0
M  V30 2564 C 245.85 1.56513 -0.368817 0
M  V30 2565 O 247.04 1.62385 -0.630623 0
M  V30 2566 C 244.172 3.13533 -1.33827 0
M  V30 2567 H 245.365 1.71649 -2.4592 0
M  V30 2568 H 242.918 0.863573 -1.30277 0
M  V30 2569 H 243.653 3.22142 -0.37349 0
M  V30 2570 H 243.438 3.28101 -2.14691 0
M  V30 2571 H 244.928 3.93356 -1.40218 0
M  V30 2572 N 245.365 1.30045 0.890287 0
M  V30 2573 C 246.642 1.09227 1.62262 0
M  V30 2574 C 247.022 -0.360305 2.08002 0
M  V30 2575 O 246.37 -1.35084 1.84295 0
M  V30 2576 C 246.58 2.08835 2.79623 0
M  V30 2577 C 247.928 2.40266 3.50082 0
M  V30 2578 O 248.952 2.07104 2.89804 0
M  V30 2579 O 247.811 2.96967 4.58773 0
M  V30 2580 H 244.905 0.419132 0.712922 0
M  V30 2581 H 247.451 1.41451 0.937529 0
M  V30 2582 H 246.223 3.06633 2.43089 0
M  V30 2583 H 245.846 1.77397 3.55832 0
M  V30 2584 N 246.843 -1.10192 1.12674 0
M  V30 2585 C 247.753 -2.20172 0.810026 0
M  V30 2586 C 248.769 -1.72821 -0.202188 0
M  V30 2587 O 249.945 -2.01369 -0.0351691 0
M  V30 2588 C 247.01 -3.45631 0.272007 0
M  V30 2589 C 246.071 -4.07704 1.34447 0
M  V30 2590 C 245.304 -5.27175 0.832029 0
M  V30 2591 O 245.527 -5.69425 -0.333284 0
M  V30 2592 O 244.461 -5.80168 1.60277 0
M  V30 2593 H 248.287 -2.49701 1.72867 0
M  V30 2594 H 245.872 -1.18977 0.903597 0
M  V30 2595 H 247.754 -4.21394 -0.0230219 0
M  V30 2596 H 246.429 -3.17723 -0.619164 0
M  V30 2597 H 245.336 -3.33614 1.6927 0
M  V30 2598 H 246.669 -4.3982 2.2095 0
M  V30 2599 N 248.321 -0.919034 -1.28029 0
M  V30 2600 C 249.737 -0.617972 -1.4715 0
M  V30 2601 C 249.937 0.835242 -1.83374 0
M  V30 2602 O 248.993 1.61388 -1.94191 0
M  V30 2603 C 250.306 -1.56041 -2.57044 0
M  V30 2604 C 251.854 -1.56769 -2.7091 0
M  V30 2605 C 252.329 -2.49688 -3.83953 0
M  V30 2606 N 253.82 -2.47845 -3.91314 0
M  V30 2607 C 254.555 -3.16437 -4.78179 0
M  V30 2608 N 254.051 -3.94376 -5.69596 0
M  V30 2609 N 255.844 -3.05498 -4.71834 0
M  V30 2610 H 247.995 -1.85866 -1.02798 0
M  V30 2611 H 250.258 -0.797506 -0.512531 0
M  V30 2612 H 249.964 -2.59671 -2.372 0
M  V30 2613 H 249.838 -1.29551 -3.54255 0
M  V30 2614 H 252.225 -0.538745 -2.90141 0
M  V30 2615 H 252.306 -1.87305 -1.74214 0
M  V30 2616 H 251.95 -3.52688 -3.65477 0
M  V30 2617 H 251.88 -2.16453 -4.80058 0
M  V30 2618 H 254.371 -1.91234 -3.25941 0
M  V30 2619 H 254.684 -4.43721 -6.32718 0
M  V30 2620 H 253.029 -3.98481 -5.69419 0
M  V30 2621 H 256.22 -2.44108 -3.99411 0
M  V30 2622 H 256.393 -3.59225 -5.39316 0
M  V30 2623 N 249.799 1.42003 -0.683588 0
M  V30 2624 C 250.749 2.27997 0.0121992 0
M  V30 2625 C 251.733 1.4156 0.764822 0
M  V30 2626 O 252.925 1.64935 0.642287 0
M  V30 2627 C 250.054 3.29706 0.956482 0
M  V30 2628 C 249.14 4.23625 0.200739 0
M  V30 2629 N 249.531 4.99448 -0.799087 0
M  V30 2630 C 247.829 4.43845 0.437937 0
M  V30 2631 C 248.53 5.68102 -1.25041 0
M  V30 2632 N 247.506 5.40511 -0.578648 0
M  V30 2633 H 251.308 2.84048 -0.754564 0
M  V30 2634 H 248.822 1.54071 -0.513398 0
M  V30 2635 H 250.819 3.90124 1.47 0
M  V30 2636 H 249.479 2.75216 1.72297 0
M  V30 2637 H 250.49 5.04303 -1.17893 0
M  V30 2638 H 247.167 4.00382 1.18325 0
M  V30 2639 H 248.557 6.38913 -2.07942 0
M  V30 2640 N 251.277 0.427512 1.51691 0
M  V30 2641 C 252.693 0.0792977 1.59403 0
M  V30 2642 C 252.893 -1.41035 1.43914 0
M  V30 2643 O 251.949 -2.17922 1.27539 0
M  V30 2644 C 253.262 0.590636 2.94842 0
M  V30 2645 C 254.81 0.550215 3.08126 0
M  V30 2646 C 255.285 1.03836 4.46074 0
M  V30 2647 N 256.776 0.995943 4.52366 0
M  V30 2648 C 257.511 1.34463 5.57411 0
M  V30 2649 N 257.007 1.76569 6.69922 0
M  V30 2650 N 258.8 1.26343 5.47717 0
M  V30 2651 H 250.951 1.39687 1.60004 0
M  V30 2652 H 253.214 0.575003 0.753708 0
M  V30 2653 H 252.92 1.63251 3.11516 0
M  V30 2654 H 252.794 0.0102061 3.77199 0
M  V30 2655 H 255.181 -0.482654 2.91126 0
M  V30 2656 H 255.262 1.16693 2.27632 0
M  V30 2657 H 254.906 2.06965 4.63819 0
M  V30 2658 H 254.836 0.398286 5.25092 0
M  V30 2659 H 257.327 0.68661 3.7161 0
M  V30 2660 H 257.64 2.01438 7.46085 0
M  V30 2661 H 255.985 1.80488 6.71155 0
M  V30 2662 H 259.176 0.933209 4.58703 0
M  V30 2663 H 259.349 1.53846 6.29472 0
M  V30 2664 N 252.755 -1.56801 0.158532 0
M  V30 2665 C 253.685 -2.20347 -0.772609 0
M  V30 2666 C 254.666 -1.15518 -1.24859 0
M  V30 2667 O 255.851 -1.43902 -1.30406 0
M  V30 2668 C 252.981 -2.83417 -2.00729 0
M  V30 2669 C 251.935 -3.94174 -1.66765 0
M  V30 2670 C 251.261 -4.44233 -2.97592 0
M  V30 2671 C 252.561 -5.14392 -0.905447 0
M  V30 2672 H 254.255 -2.98413 -0.242959 0
M  V30 2673 H 251.801 -1.43537 -0.115419 0
M  V30 2674 H 253.754 -3.26543 -2.6636 0
M  V30 2675 H 252.478 -2.02701 -2.56086 0
M  V30 2676 H 251.137 -3.51684 -1.03508 0
M  V30 2677 H 250.785 -3.60325 -3.50963 0
M  V30 2678 H 250.485 -5.18945 -2.75626 0
M  V30 2679 H 252.009 -4.90037 -3.64274 0
M  V30 2680 H 253.423 -5.5429 -1.46408 0
M  V30 2681 H 251.82 -5.9494 -0.7853 0
M  V30 2682 H 252.89 -4.84795 0.100668 0
M  V30 2683 N 254.233 0.115231 -1.57178 0
M  V30 2684 C 255.183 1.14707 -1.97044 0
M  V30 2685 C 256.167 1.36866 -0.845957 0
M  V30 2686 O 257.359 1.37895 -1.10968 0
M  V30 2687 C 254.488 2.47266 -2.38148 0
M  V30 2688 C 253.574 2.28566 -3.57237 0
M  V30 2689 N 253.965 1.79685 -4.72807 0
M  V30 2690 C 252.263 2.59208 -3.62943 0
M  V30 2691 C 252.964 1.74781 -5.54821 0
M  V30 2692 N 251.94 2.19264 -4.97417 0
M  V30 2693 H 255.742 0.761754 -2.83857 0
M  V30 2694 H 253.256 0.322928 -1.59157 0
M  V30 2695 H 255.253 3.219 -2.64927 0
M  V30 2696 H 253.913 2.86552 -1.52702 0
M  V30 2697 H 254.924 1.49177 -4.9595 0
M  V30 2698 H 251.601 3.02154 -2.88113 0
M  V30 2699 H 252.991 1.38212 -6.57531 0
M  V30 2700 N 255.711 1.52812 0.385517 0
M  V30 2701 C 256.674 1.77188 1.45386 0
M  V30 2702 C 257.674 0.641953 1.4743 0
M  V30 2703 O 258.864 0.910033 1.4854 0
M  V30 2704 C 255.996 1.87582 2.8465 0
M  V30 2705 H 257.189 2.72583 1.25054 0
M  V30 2706 H 254.742 1.43586 0.617467 0
M  V30 2707 H 255.477 0.941849 3.10322 0
M  V30 2708 H 255.262 2.69748 2.84567 0
M  V30 2709 H 256.752 2.08102 3.62054 0
M  V30 2710 N 257.189 -0.644168 1.43834 0
M  V30 2711 C 258.152 -1.73857 1.49353 0
M  V30 2712 C 259.152 -1.56315 0.377112 0
M  V30 2713 O 260.342 -1.62048 0.639226 0
M  V30 2714 C 257.474 -3.12819 1.35488 0
M  V30 2715 H 258.667 -1.70342 2.46827 0
M  V30 2716 H 256.22 -0.856652 1.30733 0
M  V30 2717 H 256.955 -3.2194 0.390569 0
M  V30 2718 H 256.74 -3.26958 2.16428 0
M  V30 2719 H 258.23 -3.92606 1.42302 0
M  V30 2720 N 258.668 -1.30515 -0.883378 0
M  V30 2721 C 259.598 -1.19607 -2.00541 0
M  V30 2722 C 260.579 -0.086346 -1.69881 0
M  V30 2723 O 261.764 -0.268654 -1.92333 0
M  V30 2724 C 258.894 -0.888758 -3.35736 0
M  V30 2725 C 257.848 -1.95659 -3.8066 0
M  V30 2726 C 257.174 -1.50224 -5.13164 0
M  V30 2727 C 258.474 -3.36788 -3.99213 0
M  V30 2728 H 260.168 -2.13476 -2.09925 0
M  V30 2729 H 257.714 -1.02775 -1.00863 0
M  V30 2730 H 259.667 -0.799094 -4.13754 0
M  V30 2731 H 258.391 0.0856125 -3.26488 0
M  V30 2732 H 257.05 -2.03591 -3.04871 0
M  V30 2733 H 256.698 -0.516092 -5.00345 0
M  V30 2734 H 256.398 -2.2165 -5.44192 0
M  V30 2735 H 257.922 -1.42639 -5.93706 0
M  V30 2736 H 259.336 -3.31605 -4.67665 0
M  V30 2737 H 257.733 -4.06314 -4.41621 0
M  V30 2738 H 258.803 -3.78561 -3.03017 0
M  V30 2739 N 260.146 1.09593 -1.13257 0
M  V30 2740 C 261.096 2.14345 -0.777179 0
M  V30 2741 C 262.08 1.59277 0.227966 0
M  V30 2742 O 263.272 1.76971 0.0321413 0
M  V30 2743 C 260.401 3.42439 -0.242991 0
M  V30 2744 C 259.487 4.04419 -1.27694 0
M  V30 2745 N 259.878 4.40979 -2.47732 0
M  V30 2746 C 258.176 4.31596 -1.12432 0
M  V30 2747 C 258.877 4.89784 -3.13826 0
M  V30 2748 N 257.853 4.87133 -2.41252 0
M  V30 2749 H 261.655 2.40415 -1.69049 0
M  V30 2750 H 259.169 1.26803 -1.01463 0
M  V30 2751 H 261.166 4.16889 0.0298496 0
M  V30 2752 H 259.826 3.17824 0.66467 0
M  V30 2753 H 260.837 4.32396 -2.85051 0
M  V30 2754 H 257.514 4.16595 -0.274684 0
M  V30 2755 H 258.904 5.2755 -4.16102 0
M  V30 2756 N 261.624 0.925811 1.2754 0
M  V30 2757 C 262.571 0.422045 2.26908 0
M  V30 2758 C 263.541 -0.510029 1.58076 0
M  V30 2759 O 264.726 -0.429599 1.85901 0
M  V30 2760 C 261.866 -0.320837 3.43605 0
M  V30 2761 C 260.979 0.64513 4.27156 0
M  V30 2762 C 260.114 -0.117405 5.3107 0
M  V30 2763 C 259.153 0.841391 6.0629 0
M  V30 2764 N 258.29 0.111604 7.02011 0
M  V30 2765 H 263.13 1.27441 2.69375 0
M  V30 2766 H 260.667 0.639697 1.32462 0
M  V30 2767 H 262.625 -0.76785 4.10073 0
M  V30 2768 H 261.255 -1.13745 3.02096 0
M  V30 2769 H 260.307 1.21067 3.6062 0
M  V30 2770 H 261.619 1.37797 4.79389 0
M  V30 2771 H 260.773 -0.624422 6.03478 0
M  V30 2772 H 259.512 -0.883219 4.79636 0
M  V30 2773 H 258.517 1.35967 5.32722 0
M  V30 2774 H 259.742 1.60696 6.59813 0
M  V30 2775 H 257.688 -0.635999 6.5291 0
M  V30 2776 H 257.605 0.784044 7.51923 0
M  V30 2777 H 258.873 -0.374823 7.78598 0
M  V30 2778 N 263.102 -1.41638 0.69111 0
M  V30 2779 C 264.33 -2.05628 0.22909 0
M  V30 2780 C 264.745 -1.51992 -1.11999 0
M  V30 2781 O 264.102 -0.666322 -1.69901 0
M  V30 2782 C 264.153 -3.61084 0.173283 0
M  V30 2783 O 263.874 -4.12735 1.46907 0
M  V30 2784 C 265.375 -4.42213 -0.310266 0
M  V30 2785 H 262.595 -0.662327 0.107534 0
M  V30 2786 H 265.139 -1.81489 0.942438 0
M  V30 2787 H 263.294 -3.84278 -0.490858 0
M  V30 2788 H 263.708 -5.06743 1.35322 0
M  V30 2789 H 265.182 -5.51194 -0.298196 0
M  V30 2790 H 265.659 -4.1799 -1.34838 0
M  V30 2791 H 266.265 -4.24074 0.322716 0
M  V30 2792 N 264.58 -0.43555 -1.51462 0
M  V30 2793 C 265.826 0.131709 -2.02372 0
M  V30 2794 C 266.159 1.42516 -1.3192 0
M  V30 2795 O 265.434 1.89606 -0.433573 0
M  V30 2796 C 265.717 0.352301 -3.58373 0
M  V30 2797 C 265.57 -0.959676 -4.39443 0
M  V30 2798 C 266.889 1.12286 -4.25535 0
M  V30 2799 H 264.008 0.0463936 -0.735538 0
M  V30 2800 H 266.65 -0.574197 -1.81116 0
M  V30 2801 H 264.8 0.9536 -3.76615 0
M  V30 2802 H 266.472 -1.59482 -4.32855 0
M  V30 2803 H 264.715 -1.56468 -4.04599 0
M  V30 2804 H 265.386 -0.759394 -5.46752 0
M  V30 2805 H 267.862 0.613545 -4.11552 0
M  V30 2806 H 266.738 1.24598 -5.34571 0
M  V30 2807 H 266.999 2.15048 -3.86273 0
M  V30 2808 N 266.058 1.56714 -0.166846 0
M  V30 2809 C 267.288 2.00828 0.48494 0
M  V30 2810 C 267.696 1.04612 1.57648 0
M  V30 2811 O 267.039 0.0383201 1.8366 0
M  V30 2812 C 267.101 3.4137 1.12723 0
M  V30 2813 C 266.765 4.56654 0.177886 0
M  V30 2814 C 267.762 5.16402 -0.60207 0
M  V30 2815 C 265.447 5.02244 0.0750139 0
M  V30 2816 C 267.441 6.20167 -1.47215 0
M  V30 2817 C 265.128 6.05859 -0.798649 0
M  V30 2818 C 266.126 6.64691 -1.57082 0
M  V30 2819 O 265.814 7.66297 -2.42989 0
M  V30 2820 H 265.546 0.663587 0.128953 0
M  V30 2821 H 268.1 2.03692 -0.264365 0
M  V30 2822 H 266.33 3.35406 1.92457 0
M  V30 2823 H 268.019 3.69466 1.68076 0
M  V30 2824 H 268.785 4.82065 -0.53274 0
M  V30 2825 H 264.664 4.56167 0.665812 0
M  V30 2826 H 268.208 6.66016 -2.07531 0
M  V30 2827 H 264.105 6.39621 -0.869199 0
M  V30 2828 H 264.873 7.83601 -2.36455 0
M  V30 2829 N 267.536 -0.106894 1.57237 0
M  V30 2830 C 268.785 -0.811163 1.8467 0
M  V30 2831 C 269.098 -1.80469 0.754342 0
M  V30 2832 O 270.304 -2.55601 0.915439 0
M  V30 2833 C 268.76 -1.49337 3.27454 0
M  V30 2834 C 268.368 -0.540217 4.44731 0
M  V30 2835 C 270.112 -2.18206 3.64124 0
M  V30 2836 C 268.019 -1.22634 5.78545 0
M  V30 2837 H 266.949 -0.306679 0.688813 0
M  V30 2838 H 269.6 -0.0639887 1.83388 0
M  V30 2839 H 267.982 -2.2876 3.23241 0
M  V30 2840 H 269.156 0.221659 4.60267 0
M  V30 2841 H 267.471 0.042146 4.16379 0
M  V30 2842 H 270.068 -2.70253 4.61376 0
M  V30 2843 H 270.411 -2.96562 2.92158 0
M  V30 2844 H 270.944 -1.45658 3.70174 0
M  V30 2845 H 267.683 -0.483832 6.53712 0
M  V30 2846 H 267.203 -1.95993 5.66874 0
M  V30 2847 H 268.882 -1.75615 6.2271 0
M  V30 2848 N 269.014 -1.53014 -0.377408 0
M  V30 2849 C 269.977 -1.77957 -1.44444 0
M  V30 2850 C 270.977 -0.649763 -1.47087 0
M  V30 2851 O 272.167 -0.917897 -1.48055 0
M  V30 2852 C 269.299 -1.89089 -2.83651 0
M  V30 2853 H 270.492 -2.73243 -1.23606 0
M  V30 2854 H 268.045 -1.43912 -0.609844 0
M  V30 2855 H 268.78 -0.958293 -3.09818 0
M  V30 2856 H 268.565 -2.71254 -2.83132 0
M  V30 2857 H 270.055 -2.1002 -3.60945 0
M  V30 2858 N 270.492 0.636531 -1.44174 0
M  V30 2859 C 271.903 1.21806 -1.41493 0
M  V30 2860 C 272.254 1.95785 -0.1275 0
M  V30 2861 O 271.379 2.02147 0.772376 0
M  V30 2862 C 271.974 2.21551 -2.56321 0
M  V30 2863 C 270.533 2.75143 -2.56853 0
M  V30 2864 C 269.68 1.50052 -2.33195 0
M  V30 2865 H 272.631 0.427531 -1.52833 0
M  V30 2866 H 272.652 3.0405 -2.28765 0
M  V30 2867 H 272.164 1.67679 -3.50008 0
M  V30 2868 H 270.265 3.33033 -1.67093 0
M  V30 2869 H 270.378 3.2155 -3.55165 0
M  V30 2870 H 268.742 1.77993 -1.82183 0
M  V30 2871 H 269.525 0.980903 -3.28988 0
M  V30 2872 N 271.97 1.30982 0.876444 0
M  V30 2873 C 272.9 1.20668 1.99903 0
M  V30 2874 C 273.881 0.095354 1.69833 0
M  V30 2875 O 275.066 0.27885 1.92188 0
M  V30 2876 C 272.196 0.90655 3.3526 0
M  V30 2877 C 271.15 1.97675 3.79617 0
M  V30 2878 C 270.476 1.52943 5.1236 0
M  V30 2879 C 271.776 3.389 3.97422 0
M  V30 2880 H 273.47 2.14586 2.0879 0
M  V30 2881 H 271.016 1.03308 1.00317 0
M  V30 2882 H 272.969 0.821025 4.13324 0
M  V30 2883 H 271.693 -0.0682969 3.26529 0
M  V30 2884 H 270.352 2.05205 3.03787 0
M  V30 2885 H 270 0.54262 5.00065 0
M  V30 2886 H 269.7 2.24532 5.43009 0
M  V30 2887 H 271.224 1.45786 5.92941 0
M  V30 2888 H 272.638 3.34081 4.659 0
M  V30 2889 H 271.035 4.0865 4.3946 0
M  V30 2890 H 272.105 3.80163 3.01006 0
M  V30 2891 N 273.449 -1.08991 1.13837 0
M  V30 2892 C 274.697 -1.80899 0.901098 0
M  V30 2893 C 275.018 -1.86356 -0.574134 0
M  V30 2894 O 274.288 -1.35235 -1.41733 0
M  V30 2895 H 272.868 -0.669966 0.330386 0
M  V30 2896 H 275.53 -1.318 1.43578 0
M  V30 2897 H 274.626 -2.83929 1.29578 0
M  V30 2898 N 274.927 -0.932562 -1.27047 0
M  V30 2899 C 275.874 -0.434072 -2.26681 0
M  V30 2900 C 276.844 0.501639 -1.58344 0
M  V30 2901 O 278.029 0.419734 -1.86126 0
M  V30 2902 C 275.169 0.30261 -3.43771 0
M  V30 2903 C 274.282 -0.667774 -4.26808 0
M  V30 2904 C 273.417 0.0892393 -5.31125 0
M  V30 2905 C 272.456 -0.873532 -6.05835 0
M  V30 2906 N 271.593 -0.148832 -7.01942 0
M  V30 2907 H 276.433 -1.28868 -2.68695 0
M  V30 2908 H 273.97 -0.646713 -1.32121 0
M  V30 2909 H 275.928 0.746092 -4.10474 0
M  V30 2910 H 274.558 1.12142 -3.02695 0
M  V30 2911 H 273.61 -1.22978 -3.59973 0
M  V30 2912 H 274.922 -1.40337 -4.78651 0
M  V30 2913 H 274.076 0.592409 -6.03801 0
M  V30 2914 H 272.815 0.85777 -4.80097 0
M  V30 2915 H 271.82 -1.38791 -5.31994 0
M  V30 2916 H 273.045 -1.64193 -6.58952 0
M  V30 2917 H 270.991 0.601365 -6.53238 0
M  V30 2918 H 270.908 -0.82391 -7.51497 0
M  V30 2919 H 272.176 0.333527 -7.78786 0
M  V30 2920 N 276.405 1.4127 -0.698611 0
M  V30 2921 C 277.355 2.27997 -0.0119836 0
M  V30 2922 C 278.339 1.42363 0.749765 0
M  V30 2923 O 279.531 1.65607 0.624758 0
M  V30 2924 C 276.66 3.30702 0.921458 0
M  V30 2925 C 275.746 4.23814 0.155796 0
M  V30 2926 N 276.137 4.98572 -0.852015 0
M  V30 2927 C 274.435 4.44284 0.390836 0
M  V30 2928 C 275.136 5.66744 -1.3106 0
M  V30 2929 N 274.112 5.39867 -0.635944 0
M  V30 2930 H 277.914 2.83232 -0.784649 0
M  V30 2931 H 275.428 1.53518 -0.529711 0
M  V30 2932 H 277.425 3.91661 1.42854 0
M  V30 2933 H 276.085 2.77028 1.69369 0
M  V30 2934 H 277.096 5.03024 -1.23235 0
M  V30 2935 H 273.773 4.01614 1.14071 0
M  V30 2936 H 275.163 6.36672 -2.14707 0
M  V30 2937 N 277.883 0.443576 1.51229 0
M  V30 2938 C 278.83 -0.364716 2.279 0
M  V30 2939 C 279.8 -1.0114 1.31757 0
M  V30 2940 O 280.985 -1.02912 1.60667 0
M  V30 2941 C 278.125 -1.45644 3.12861 0
M  V30 2942 C 277.238 -0.827269 4.24005 0
M  V30 2943 C 276.373 -1.89456 4.96266 0
M  V30 2944 C 275.412 -1.24416 5.99322 0
M  V30 2945 N 274.549 -2.25309 6.64966 0
M  V30 2946 H 279.389 0.295464 2.96532 0
M  V30 2947 H 276.926 0.157554 1.46254 0
M  V30 2948 H 278.884 -2.10076 3.6045 0
M  V30 2949 H 277.514 -2.08616 2.46331 0
M  V30 2950 H 276.566 -0.0710839 3.80334 0
M  V30 2951 H 277.878 -0.312481 4.9782 0
M  V30 2952 H 277.032 -2.61535 5.47434 0
M  V30 2953 H 275.771 -2.4431 4.22095 0
M  V30 2954 H 274.776 -0.508868 5.4744 0
M  V30 2955 H 276.001 -0.702882 6.75453 0
M  V30 2956 H 273.947 -2.79231 5.93604 0
M  V30 2957 H 273.864 -1.78739 7.34567 0
M  V30 2958 H 275.132 -2.96853 7.20763 0
M  V30 2959 N 279.361 -1.56624 0.175154 0
M  V30 2960 C 280.291 -2.21155 -0.749195 0
M  V30 2961 C 281.272 -1.16836 -1.23626 0
M  V30 2962 O 282.457 -1.45277 -1.28873 0
M  V30 2963 C 279.587 -2.8553 -1.97711 0
M  V30 2964 C 278.541 -3.95921 -1.62575 0
M  V30 2965 C 277.867 -4.47365 -2.92864 0
M  V30 2966 C 279.167 -5.15323 -0.850838 0
M  V30 2967 H 280.861 -2.98653 -0.211295 0
M  V30 2968 H 278.407 -1.43651 -0.100188 0
M  V30 2969 H 280.36 -3.2935 -2.62881 0
M  V30 2970 H 279.084 -2.05406 -2.53921 0
M  V30 2971 H 277.743 -3.52762 -0.997719 0
M  V30 2972 H 277.391 -3.64027 -3.47122 0
M  V30 2973 H 277.091 -5.21839 -2.70106 0
M  V30 2974 H 278.615 -4.93873 -3.59056 0
M  V30 2975 H 280.029 -5.55812 -1.40521 0
M  V30 2976 H 278.426 -5.95739 -0.722154 0
M  V30 2977 H 279.496 -4.84661 0.152082 0
M  V30 2978 N 280.839 0.0985539 -1.57292 0
M  V30 2979 C 282.25 0.653457 -1.74891 0
M  V30 2980 C 282.601 1.7929 -0.796838 0
M  V30 2981 O 281.726 2.16385 0.0254886 0
M  V30 2982 C 282.321 1.19216 -3.17133 0
M  V30 2983 C 280.88 1.69316 -3.36168 0
M  V30 2984 C 280.027 0.601294 -2.70702 0
M  V30 2985 H 282.978 -0.127497 -1.58187 0
M  V30 2986 H 282.999 2.06154 -3.19814 0
M  V30 2987 H 282.511 0.362635 -3.86402 0
M  V30 2988 H 280.612 2.5468 -2.71972 0
M  V30 2989 H 280.725 1.78853 -4.44464 0
M  V30 2990 H 279.089 1.0399 -2.32504 0
M  V30 2991 H 279.872 -0.217592 -3.4261 0
M  V30 2992 N 282.317 1.53212 0.369288 0
M  V30 2993 C 283.227 1.82342 1.47609 0
M  V30 2994 C 284.243 0.711532 1.58787 0
M  V30 2995 O 285.419 1.0012 1.74751 0
M  V30 2996 C 282.484 2.00393 2.8292 0
M  V30 2997 C 281.545 3.24297 2.81301 0
M  V30 2998 C 280.778 3.41478 4.10157 0
M  V30 2999 O 281.001 2.63033 5.06132 0
M  V30 3000 O 279.935 4.34817 4.16194 0
M  V30 3001 H 283.761 2.76366 1.25918 0
M  V30 3002 H 281.346 1.38547 0.559034 0
M  V30 3003 H 283.228 2.13859 3.63101 0
M  V30 3004 H 281.903 1.09559 3.04596 0
M  V30 3005 H 280.81 3.16257 1.99831 0
M  V30 3006 H 282.143 4.15041 2.64578 0
M  V30 3007 N 283.795 -0.628877 1.44509 0
M  V30 3008 C 285.043 -1.38565 1.4712 0
M  V30 3009 C 285.364 -1.94712 0.105899 0
M  V30 3010 O 284.634 -1.75912 -0.862079 0
M  V30 3011 H 283.214 -0.514333 0.541729 0
M  V30 3012 H 285.876 -0.740018 1.80305 0
M  V30 3013 H 284.972 -2.21583 2.19789 0
M  V30 3014 N 285.273 -1.31445 -0.869486 0
M  V30 3015 C 286.521 -1.20918 -1.61936 0
M  V30 3016 C 286.842 0.232683 -1.93607 0
M  V30 3017 O 286.112 1.15352 -1.58338 0
M  V30 3018 H 284.692 -0.44454 -0.600328 0
M  V30 3019 H 287.354 -1.64776 -1.0409 0
M  V30 3020 H 286.45 -1.78124 -2.56278 0
M  V30 3021 N 286.751 1.08385 -1.14413 0
M  V30 3022 C 287.661 2.18856 -0.844951 0
M  V30 3023 C 288.677 1.73121 0.174668 0
M  V30 3024 O 289.853 2.014 0.00312857 0
M  V30 3025 C 286.918 3.45155 -0.32696 0
M  V30 3026 C 285.979 4.05513 -1.40916 0
M  V30 3027 C 285.212 5.25784 -0.915793 0
M  V30 3028 O 285.435 5.69884 0.242651 0
M  V30 3029 O 284.369 5.77545 -1.69487 0
M  V30 3030 H 288.195 2.46919 -1.76818 0
M  V30 3031 H 285.78 1.17524 -0.922411 0
M  V30 3032 H 287.662 4.21377 -0.0440211 0
M  V30 3033 H 286.337 3.18668 0.568539 0
M  V30 3034 H 285.244 3.30879 -1.74556 0
M  V30 3035 H 286.577 4.3625 -2.27919 0
M  V30 3036 N 288.23 0.939286 1.26551 0
M  V30 3037 C 289.476 0.586715 1.94128 0
M  V30 3038 C 289.809 -0.8717 1.73537 0
M  V30 3039 O 289.084 -1.62339 1.07127 0
M  V30 3040 C 289.367 0.927497 3.4795 0
M  V30 3041 C 289.22 2.44052 3.77834 0
M  V30 3042 C 290.539 0.441569 4.37879 0
M  V30 3043 H 287.658 0.21463 0.705055 0
M  V30 3044 H 290.3 1.17316 1.49455 0
M  V30 3045 H 288.45 0.428431 3.8613 0
M  V30 3046 H 290.122 3.01216 3.4938 0
M  V30 3047 H 288.365 2.8848 3.23978 0
M  V30 3048 H 289.036 2.62947 4.85348 0
M  V30 3049 H 291.512 0.869448 4.06915 0
M  V30 3050 H 290.388 0.708856 5.44304 0
M  V30 3051 H 290.649 -0.658467 4.37169 0
M  V30 3052 N 289.708 -1.40897 0.706093 0
M  V30 3053 C 291.124 -1.55042 0.37869 0
M  V30 3054 C 291.324 -1.67944 -1.11342 0
M  V30 3055 O 290.38 -1.66372 -1.89938 0
M  V30 3056 C 291.693 -2.78398 1.13643 0
M  V30 3057 C 293.241 -2.92206 1.12181 0
M  V30 3058 C 293.716 -4.18463 1.86152 0
M  V30 3059 N 295.207 -4.25443 1.83173 0
M  V30 3060 C 295.942 -5.2202 2.37239 0
M  V30 3061 N 295.438 -6.24563 2.99821 0
M  V30 3062 N 297.231 -5.14033 2.27435 0
M  V30 3063 H 289.382 -1.30769 1.67372 0
M  V30 3064 H 291.645 -0.631653 0.706907 0
M  V30 3065 H 291.351 -2.7511 2.19106 0
M  V30 3066 H 291.225 -3.70228 0.721853 0
M  V30 3067 H 293.612 -2.95004 0.0754171 0
M  V30 3068 H 293.693 -2.01521 1.57554 0
M  V30 3069 H 293.337 -4.16427 2.90776 0
M  V30 3070 H 293.267 -5.08141 1.38206 0
M  V30 3071 H 295.758 -3.51976 1.37556 0
M  V30 3072 H 296.071 -6.94665 3.38616 0
M  V30 3073 H 294.416 -6.25035 3.03902 0
M  V30 3074 H 297.607 -4.3285 1.78208 0
M  V30 3075 H 297.78 -5.89129 2.69873 0
M  V30 3076 N 291.186 -0.45159 -1.50991 0
M  V30 3077 C 292.602 -0.104647 -1.59257 0
M  V30 3078 C 292.802 1.38728 -1.4614 0
M  V30 3079 O 291.858 2.15866 -1.30989 0
M  V30 3080 C 293.171 -0.637468 -2.93865 0
M  V30 3081 C 294.719 -0.599166 -3.07212 0
M  V30 3082 C 295.194 -1.1092 -4.44366 0
M  V30 3083 N 296.685 -1.06778 -4.50725 0
M  V30 3084 C 297.42 -1.43314 -5.55201 0
M  V30 3085 N 296.916 -1.87204 -6.67028 0
M  V30 3086 N 298.709 -1.3504 -5.45638 0
M  V30 3087 H 290.86 -1.42214 -1.57762 0
M  V30 3088 H 293.123 -0.586921 -0.744465 0
M  V30 3089 H 292.829 -1.68187 -3.08879 0
M  V30 3090 H 292.703 -0.0702139 -3.77135 0
M  V30 3091 H 295.09 0.436277 -2.91857 0
M  V30 3092 H 295.171 -1.20299 -2.25747 0
M  V30 3093 H 294.815 -2.14318 -4.60467 0
M  V30 3094 H 294.745 -0.481773 -5.24392 0
M  V30 3095 H 297.236 -0.745643 -3.70471 0
M  V30 3096 H 297.549 -2.13282 -7.42786 0
M  V30 3097 H 295.894 -1.91142 -6.68199 0
M  V30 3098 H 299.085 -1.00607 -4.57161 0
M  V30 3099 H 299.258 -1.63841 -6.26945 0
M  V30 3100 N 292.664 1.56529 -0.183458 0
M  V30 3101 C 293.91 1.97537 0.459036 0
M  V30 3102 C 294.243 1.06989 1.62071 0
M  V30 3103 O 293.518 0.11948 1.94133 0
M  V30 3104 C 293.801 3.47874 0.930368 0
M  V30 3105 C 293.654 4.492 -0.232317 0
M  V30 3106 C 294.973 4.01612 1.79989 0
M  V30 3107 H 292.092 0.718204 0.165383 0
M  V30 3108 H 294.734 1.88042 -0.272038 0
M  V30 3109 H 292.884 3.56095 1.55333 0
M  V30 3110 H 294.556 4.53027 -0.86972 0
M  V30 3111 H 292.799 4.24657 -0.885928 0
M  V30 3112 H 293.47 5.51823 0.139796 0
M  V30 3113 H 295.946 3.96097 1.27461 0
M  V30 3114 H 294.822 5.07195 2.09867 0
M  V30 3115 H 295.083 3.46163 2.74998 0
M  V30 3116 N 294.142 -0.090211 1.57342 0
M  V30 3117 C 295.074 -1.13541 1.99101 0
M  V30 3118 C 296.087 -1.3604 0.894258 0
M  V30 3119 O 297.276 -1.34606 1.17233 0
M  V30 3120 C 294.376 -2.49001 2.29895 0
M  V30 3121 C 293.549 -2.46712 3.61182 0
M  V30 3122 C 292.608 -3.64136 3.79857 0
M  V30 3123 O 291.634 -3.46405 4.51655 0
M  V30 3124 N 292.836 -4.83802 3.20806 0
M  V30 3125 H 295.601 -0.779942 2.89373 0
M  V30 3126 H 293.162 -0.279125 1.59476 0
M  V30 3127 H 295.154 -3.26166 2.39578 0
M  V30 3128 H 293.724 -2.76619 1.45605 0
M  V30 3129 H 292.944 -1.55058 3.62423 0
M  V30 3130 H 294.232 -2.42265 4.4742 0
M  V30 3131 H 293.63 -5.01112 2.62494 0
M  V30 3132 H 292.187 -5.58543 3.35966 0
M  V30 3133 N 295.62 -1.53406 -0.361157 0
M  V30 3134 C 296.567 -1.80156 -1.44265 0
M  V30 3135 C 297.537 -0.646183 -1.53015 0
M  V30 3136 O 298.722 -0.888818 -1.68833 0
M  V30 3137 C 295.862 -2.00116 -2.81154 0
M  V30 3138 C 294.975 -3.27833 -2.81335 0
M  V30 3139 C 294.11 -3.37957 -4.09828 0
M  V30 3140 C 293.149 -4.59689 -4.04168 0
M  V30 3141 N 292.286 -4.66942 -5.24318 0
M  V30 3142 H 297.126 -2.72438 -1.20754 0
M  V30 3143 H 294.663 -1.34954 -0.585296 0
M  V30 3144 H 296.621 -2.09677 -3.60682 0
M  V30 3145 H 295.251 -1.11167 -3.03054 0
M  V30 3146 H 294.303 -3.27204 -1.94014 0
M  V30 3147 H 295.615 -4.17442 -2.73027 0
M  V30 3148 H 294.769 -3.46853 -4.97773 0
M  V30 3149 H 293.508 -2.46372 -4.20894 0
M  V30 3150 H 292.513 -4.50889 -3.14609 0
M  V30 3151 H 293.738 -5.5262 -3.947 0
M  V30 3152 H 291.684 -3.7826 -5.35962 0
M  V30 3153 H 291.601 -5.50462 -5.18197 0
M  V30 3154 H 292.869 -4.80127 -6.14084 0
M  V30 3155 N 297.098 0.621204 -1.44841 0
M  V30 3156 C 298.344 1.3826 -1.48365 0
M  V30 3157 C 298.677 1.93831 -0.119624 0
M  V30 3158 O 297.952 1.74251 0.864111 0
M  V30 3159 C 298.235 2.54058 -2.55199 0
M  V30 3160 C 298.088 2.03772 -4.00995 0
M  V30 3161 C 299.407 3.56225 -2.58442 0
M  V30 3162 H 296.526 0.501374 -0.540179 0
M  V30 3163 H 299.168 0.7015 -1.76576 0
M  V30 3164 H 297.318 3.12162 -2.31274 0
M  V30 3165 H 298.99 1.50423 -4.36086 0
M  V30 3166 H 297.233 1.34876 -4.12299 0
M  V30 3167 H 297.904 2.87185 -4.71411 0
M  V30 3168 H 300.38 3.07939 -2.79844 0
M  V30 3169 H 299.256 4.34756 -3.3508 0
M  V30 3170 H 299.517 4.10949 -1.63013 0
M  V30 3171 N 298.576 1.31904 0.862503 0
M  V30 3172 C 299.508 1.16005 1.97675 0
M  V30 3173 C 300.521 0.0971234 1.6251 0
M  V30 3174 O 301.71 0.345337 1.75128 0
M  V30 3175 C 298.81 0.751791 3.30456 0
M  V30 3176 C 297.983 1.90133 3.93914 0
M  V30 3177 C 297.042 1.4779 5.05019 0
M  V30 3178 O 296.068 2.18872 5.25437 0
M  V30 3179 N 297.27 0.369491 5.79323 0
M  V30 3180 H 300.035 2.11982 2.11857 0
M  V30 3181 H 297.596 1.24337 1.03691 0
M  V30 3182 H 299.588 0.451084 4.02178 0
M  V30 3183 H 298.158 -0.116593 3.12382 0
M  V30 3184 H 297.378 2.36896 3.15078 0
M  V30 3185 H 298.666 2.67111 4.33047 0
M  V30 3186 H 298.064 -0.222299 5.65263 0
M  V30 3187 H 296.621 0.128354 6.51674 0
M  V30 3188 N 300.054 -1.07777 1.14986 0
M  V30 3189 C 301.282 -1.84018 0.945773 0
M  V30 3190 C 301.697 -1.81897 -0.505863 0
M  V30 3191 O 301.054 -1.22726 -1.35072 0
M  V30 3192 C 301.105 -3.31287 1.44677 0
M  V30 3193 O 300.826 -3.33449 2.84154 0
M  V30 3194 C 302.327 -4.24311 1.28355 0
M  V30 3195 H 299.547 -0.580716 0.336169 0
M  V30 3196 H 302.091 -1.36077 1.52654 0
M  V30 3197 H 300.246 -3.76594 0.908625 0
M  V30 3198 H 300.66 -4.25427 3.06777 0
M  V30 3199 H 302.134 -5.2573 1.68261 0
M  V30 3200 H 302.611 -4.38612 0.227184 0
M  V30 3201 H 303.217 -3.84836 1.81056 0
M  V30 3202 N 301.532 -0.945985 -1.26051 0
M  V30 3203 C 302.442 -0.465633 -2.29933 0
M  V30 3204 C 303.458 0.462761 -1.67733 0
M  V30 3205 O 304.634 0.341118 -1.9849 0
M  V30 3206 C 301.699 0.256994 -3.45746 0
M  V30 3207 C 300.76 -0.708549 -4.23412 0
M  V30 3208 C 299.993 -0.0203135 -5.33696 0
M  V30 3209 O 300.216 1.19571 -5.57726 0
M  V30 3210 O 299.15 -0.701459 -5.97799 0
M  V30 3211 H 302.976 -1.32866 -2.73094 0
M  V30 3212 H 300.561 -0.712071 -1.31339 0
M  V30 3213 H 302.443 0.663852 -4.16138 0
M  V30 3214 H 301.118 1.09533 -3.04605 0
M  V30 3215 H 300.025 -1.16545 -3.55483 0
M  V30 3216 H 301.358 -1.51465 -4.68315 0
M  V30 3217 N 303.011 1.40521 -0.713556 0
M  V30 3218 C 303.943 2.29191 -0.0203126 0
M  V30 3219 C 304.956 1.45723 0.725864 0
M  V30 3220 O 306.145 1.69033 0.573581 0
M  V30 3221 C 303.245 3.2395 0.995486 0
M  V30 3222 C 302.418 4.36262 0.315256 0
M  V30 3223 C 301.477 5.11474 1.23616 0
M  V30 3224 O 300.503 5.64606 0.721719 0
M  V30 3225 N 301.705 5.20638 2.56743 0
M  V30 3226 H 304.47 2.89327 -0.781652 0
M  V30 3227 H 302.031 1.51869 -0.561022 0
M  V30 3228 H 304.023 3.71137 1.61368 0
M  V30 3229 H 302.593 2.64995 1.6582 0
M  V30 3230 H 301.813 3.91228 -0.483106 0
M  V30 3231 H 303.101 5.08558 -0.157004 0
M  V30 3232 H 302.499 4.7895 3.01037 0
M  V30 3233 H 301.056 5.71339 3.13712 0
M  V30 3234 N 304.489 0.459591 1.5075 0
M  V30 3235 C 305.399 -0.34613 2.32033 0
M  V30 3236 C 306.415 -1.00686 1.41909 0
M  V30 3237 O 307.591 -0.997361 1.7497 0
M  V30 3238 C 304.656 -1.42029 3.16273 0
M  V30 3239 C 303.717 -0.777362 4.22203 0
M  V30 3240 C 302.95 -1.80034 5.02418 0
M  V30 3241 O 303.173 -3.02544 4.83553 0
M  V30 3242 O 302.107 -1.37853 5.85901 0
M  V30 3243 H 305.933 0.318054 3.0203 0
M  V30 3244 H 303.518 0.221663 1.47746 0
M  V30 3245 H 305.4 -2.04275 3.68578 0
M  V30 3246 H 304.075 -2.06815 2.49016 0
M  V30 3247 H 302.982 -0.116256 3.73919 0
M  V30 3248 H 304.315 -0.172634 4.91897 0
M  V30 3249 N 305.967 -1.56429 0.191757 0
M  V30 3250 C 307.213 -1.97777 -0.448554 0
M  V30 3251 C 307.546 -1.07847 -1.61501 0
M  V30 3252 O 306.821 -0.129774 -1.94067 0
M  V30 3253 C 307.104 -3.48362 -0.911906 0
M  V30 3254 C 306.957 -4.4907 0.256136 0
M  V30 3255 C 308.276 -4.02561 -1.77857 0
M  V30 3256 H 305.395 -0.719071 -0.161572 0
M  V30 3257 H 308.037 -1.87896 0.282007 0
M  V30 3258 H 306.187 -3.56914 -1.53442 0
M  V30 3259 H 307.859 -4.5256 0.893733 0
M  V30 3260 H 306.102 -4.24181 0.908436 0
M  V30 3261 H 306.773 -5.51889 -0.11053 0
M  V30 3262 H 309.249 -3.96767 -1.25359 0
M  V30 3263 H 308.125 -5.08301 -2.07174 0
M  V30 3264 H 308.386 -3.47616 -2.73158 0
M  V30 3265 N 307.445 0.0818655 -1.57387 0
M  V30 3266 C 308.408 1.08265 -2.02018 0
M  V30 3267 C 309.408 1.32183 -0.915664 0
M  V30 3268 O 310.598 1.28073 -1.18081 0
M  V30 3269 C 307.73 2.42871 -2.39221 0
M  V30 3270 H 308.923 0.698204 -2.91659 0
M  V30 3271 H 306.476 0.327303 -1.52835 0
M  V30 3272 H 307.211 2.86167 -1.52575 0
M  V30 3273 H 306.996 2.26855 -3.19811 0
M  V30 3274 H 308.486 3.14826 -2.74362 0
M  V30 3275 N 308.923 1.53595 0.353017 0
M  V30 3276 C 309.833 1.83897 1.45667 0
M  V30 3277 C 310.849 0.728334 1.58023 0
M  V30 3278 O 312.025 1.01968 1.73679 0
M  V30 3279 C 309.09 2.03383 2.80778 0
M  V30 3280 C 308.151 3.27262 2.77845 0
M  V30 3281 C 307.384 3.45809 4.06512 0
M  V30 3282 O 307.607 2.68387 5.03314 0
M  V30 3283 O 306.541 4.39207 4.11559 0
M  V30 3284 H 310.367 2.77686 1.2298 0
M  V30 3285 H 307.952 1.39132 0.544308 0
M  V30 3286 H 309.834 2.17698 3.60812 0
M  V30 3287 H 308.509 1.12783 3.03417 0
M  V30 3288 H 307.416 3.18359 1.96465 0
M  V30 3289 H 308.749 4.17824 2.60161 0
M  V30 3290 N 310.401 -0.613514 1.45168 0
M  V30 3291 C 311.364 -1.7065 1.53007 0
M  V30 3292 C 312.364 -1.5548 0.410184 0
M  V30 3293 O 313.554 -1.60656 0.673455 0
M  V30 3294 C 310.686 -3.09875 1.42093 0
M  V30 3295 H 311.879 -1.65068 2.50385 0
M  V30 3296 H 309.432 -0.828728 1.32521 0
M  V30 3297 H 310.167 -3.21039 0.458769 0
M  V30 3298 H 309.952 -3.22293 2.23315 0
M  V30 3299 H 311.442 -3.895 1.50598 0
M  V30 3300 N 311.879 -1.3236 -0.855495 0
M  V30 3301 C 312.842 -1.21164 -1.94556 0
M  V30 3302 C 313.842 -0.134908 -1.60233 0
M  V30 3303 O 315.032 -0.385249 -1.69887 0
M  V30 3304 C 312.164 -0.863192 -3.29791 0
M  V30 3305 H 313.357 -2.18038 -2.05911 0
M  V30 3306 H 310.91 -1.16179 -1.04557 0
M  V30 3307 H 311.645 0.103769 -3.24134 0
M  V30 3308 H 311.43 -1.64166 -3.56078 0
M  V30 3309 H 312.92 -0.809156 -4.09686 0
M  V30 3310 N 313.357 1.07166 -1.15556 0
M  V30 3311 C 314.605 1.79443 -0.929764 0
M  V30 3312 C 314.926 1.87246 0.544414 0
M  V30 3313 O 314.196 1.37473 1.39564 0
M  V30 3314 H 312.776 0.664625 -0.341003 0
M  V30 3315 H 315.438 1.29499 -1.45657 0
M  V30 3316 H 314.534 2.81832 -1.34079 0
M  V30 3317 N 314.835 0.952656 1.25548 0
M  V30 3318 C 315.768 0.415525 2.24385 0
M  V30 3319 C 316.746 -0.502046 1.54655 0
M  V30 3320 O 317.93 -0.436875 1.83368 0
M  V30 3321 C 315.057 -0.401734 3.36309 0
M  V30 3322 C 314.103 0.455949 4.24056 0
M  V30 3323 S 314.936 1.88698 5.01152 0
M  V30 3324 C 316.092 1.07809 6.16545 0
M  V30 3325 H 316.325 1.25315 2.69599 0
M  V30 3326 H 313.858 0.756587 1.34592 0
M  V30 3327 H 315.816 -0.867329 4.01233 0
M  V30 3328 H 314.477 -1.21416 2.89684 0
M  V30 3329 H 313.67 -0.170776 5.03711 0
M  V30 3330 H 313.272 0.856675 3.64056 0
M  V30 3331 H 315.564 0.325816 6.76716 0
M  V30 3332 H 316.507 1.84849 6.83547 0
M  V30 3333 H 316.915 0.60909 5.61204 0
M  V30 3334 N 316.313 -1.40141 0.720998 0
M  V30 3335 C 317.729 -1.54632 0.395113 0
M  V30 3336 C 317.929 -1.69115 -1.09555 0
M  V30 3337 O 316.985 -1.68377 -1.88163 0
M  V30 3338 C 318.298 -2.77177 1.1659 0
M  V30 3339 C 319.846 -2.91 1.15274 0
M  V30 3340 C 320.321 -4.16465 1.90579 0
M  V30 3341 N 321.812 -4.23476 1.87675 0
M  V30 3342 C 322.547 -5.19475 2.42762 0
M  V30 3343 N 322.043 -6.21348 3.06428 0
M  V30 3344 N 323.836 -5.11592 2.32874 0
M  V30 3345 H 315.987 -1.28986 1.68749 0
M  V30 3346 H 318.25 -0.62412 0.713567 0
M  V30 3347 H 317.956 -2.72771 2.22011 0
M  V30 3348 H 317.83 -3.69442 0.76108 0
M  V30 3349 H 320.217 -2.94907 0.106702 0
M  V30 3350 H 320.298 -1.99838 1.59682 0
M  V30 3351 H 319.942 -4.1332 2.95176 0
M  V30 3352 H 319.872 -5.06646 1.43587 0
M  V30 3353 H 322.363 -3.50497 1.41281 0
M  V30 3354 H 322.676 -6.91034 3.45965 0
M  V30 3355 H 321.021 -6.21777 3.10514 0
M  V30 3356 H 324.212 -4.30936 1.82789 0
M  V30 3357 H 324.385 -5.86233 2.76106 0
M  V30 3358 N 317.792 -0.46758 -1.50504 0
M  V30 3359 C 319.022 0.086288 -2.0642 0
M  V30 3360 C 319.43 1.34369 -1.33197 0
M  V30 3361 O 318.773 1.79431 -0.393747 0
M  V30 3362 C 318.835 0.443846 -3.5675 0
M  V30 3363 C 318.499 -0.711035 -4.51435 0
M  V30 3364 C 319.496 -1.59205 -4.94924 0
M  V30 3365 C 317.181 -0.900363 -4.94165 0
M  V30 3366 C 319.175 -2.64683 -5.79846 0
M  V30 3367 C 316.862 -1.95837 -5.7887 0
M  V30 3368 C 317.86 -2.82997 -6.21612 0
M  V30 3369 O 317.548 -3.86977 -7.0463 0
M  V30 3370 H 317.28 -0.00217814 -0.675996 0
M  V30 3371 H 319.834 -0.654346 -1.94698 0
M  V30 3372 H 318.064 1.23762 -3.6636 0
M  V30 3373 H 319.753 0.932386 -3.95046 0
M  V30 3374 H 320.519 -1.45745 -4.62583 0
M  V30 3375 H 316.398 -0.231427 -4.60419 0
M  V30 3376 H 319.942 -3.32745 -6.13128 0
M  V30 3377 H 315.839 -2.09305 -6.10624 0
M  V30 3378 H 316.607 -3.83923 -7.22873 0
M  V30 3379 N 319.27 1.56325 -0.20005 0
M  V30 3380 C 320.517 1.97719 0.437411 0
M  V30 3381 C 320.845 1.08709 1.61284 0
M  V30 3382 O 320.1 0.127261 1.95286 0
M  V30 3383 C 320.399 3.4495 0.935103 0
M  V30 3384 C 320.065 4.5072 -0.12749 0
M  V30 3385 C 318.727 4.79368 -0.419451 0
M  V30 3386 C 321.079 5.14268 -0.847231 0
M  V30 3387 C 318.407 5.68854 -1.43604 0
M  V30 3388 C 320.759 6.04852 -1.85301 0
M  V30 3389 C 319.423 6.31855 -2.15211 0
M  V30 3390 H 318.693 0.723507 0.16006 0
M  V30 3391 H 321.34 1.89166 -0.298056 0
M  V30 3392 H 319.645 3.50599 1.74894 0
M  V30 3393 H 321.342 3.74337 1.43781 0
M  V30 3394 H 317.932 4.28458 0.11023 0
M  V30 3395 H 322.116 4.92222 -0.634901 0
M  V30 3396 H 317.372 5.88047 -1.67364 0
M  V30 3397 H 321.546 6.53152 -2.41591 0
M  V30 3398 H 319.173 7.00994 -2.94129 0
M  V30 3399 N 320.748 -0.0735177 1.57428 0
M  V30 3400 C 322.164 -0.428264 1.53747 0
M  V30 3401 C 322.364 -1.79272 0.91998 0
M  V30 3402 O 321.42 -2.47051 0.521745 0
M  V30 3403 C 322.733 -0.370914 2.98404 0
M  V30 3404 C 324.281 -0.451224 3.0973 0
M  V30 3405 C 324.756 -0.4238 4.56035 0
M  V30 3406 N 326.247 -0.483925 4.60665 0
M  V30 3407 C 326.982 -0.484891 5.71346 0
M  V30 3408 N 326.478 -0.440775 6.91396 0
M  V30 3409 N 328.271 -0.531319 5.59583 0
M  V30 3410 H 320.422 0.819949 1.95935 0
M  V30 3411 H 322.685 0.307493 0.896745 0
M  V30 3412 H 322.391 0.564956 3.47133 0
M  V30 3413 H 322.265 -1.18176 3.5821 0
M  V30 3414 H 324.652 -1.37752 2.60976 0
M  V30 3415 H 324.733 0.388167 2.52838 0
M  V30 3416 H 324.377 0.498638 5.05446 0
M  V30 3417 H 324.307 -1.2807 5.10789 0
M  V30 3418 H 326.798 -0.522338 3.74273 0
M  V30 3419 H 327.111 -0.44539 7.71515 0
M  V30 3420 H 325.456 -0.40749 6.93804 0
M  V30 3421 H 328.647 -0.563464 4.64696 0
M  V30 3422 H 328.82 -0.528603 6.4584 0
M  V30 3423 N 322.226 -1.5378 -0.344866 0
M  V30 3424 C 323.475 -1.7018 -1.08267 0
M  V30 3425 C 323.788 -0.471 -1.89845 0
M  V30 3426 O 324.994 -0.515917 -2.66553 0
M  V30 3427 C 323.45 -3.00923 -1.97417 0
M  V30 3428 C 323.058 -4.31335 -1.21053 0
M  V30 3429 C 324.802 -3.26688 -2.71063 0
M  V30 3430 C 322.709 -5.53153 -2.09225 0
M  V30 3431 H 321.639 -0.634138 -0.407903 0
M  V30 3432 H 324.29 -1.8028 -0.342246 0
M  V30 3433 H 322.672 -2.84676 -2.75274 0
M  V30 3434 H 323.846 -4.58281 -0.481159 0
M  V30 3435 H 322.161 -4.12173 -0.591813 0
M  V30 3436 H 324.758 -4.1489 -3.37299 0
M  V30 3437 H 325.101 -2.43639 -3.37558 0
M  V30 3438 H 325.634 -3.43705 -2.0028 0
M  V30 3439 H 322.373 -6.38741 -1.47274 0
M  V30 3440 H 321.893 -5.30458 -2.79955 0
M  V30 3441 H 323.572 -5.88744 -2.68308 0
M  V30 3442 N 323.704 0.605807 -1.45491 0
M  V30 3443 C 324.667 1.69836 -1.5391 0
M  V30 3444 C 325.667 1.55261 -0.418424 0
M  V30 3445 O 326.857 1.60296 -0.681965 0
M  V30 3446 C 323.989 3.09117 -1.43734 0
M  V30 3447 H 325.182 1.63738 -2.51257 0
M  V30 3448 H 322.735 0.821689 -1.32959 0
M  V30 3449 H 323.47 3.20791 -0.475788 0
M  V30 3450 H 323.255 3.21104 -2.25021 0
M  V30 3451 H 324.745 3.88696 -1.52661 0
M  V30 3452 N 325.182 1.32811 0.848464 0
M  V30 3453 C 326.145 1.22194 1.9391 0
M  V30 3454 C 327.145 0.143404 1.60159 0
M  V30 3455 O 328.335 0.394253 1.6968 0
M  V30 3456 C 325.467 0.88067 3.29328 0
M  V30 3457 H 326.66 2.19127 2.04752 0
M  V30 3458 H 324.213 1.16731 1.0394 0
M  V30 3459 H 324.948 -0.0865776 3.24184 0
M  V30 3460 H 324.733 1.66052 3.55203 0
M  V30 3461 H 326.223 0.830871 4.09251 0
M  V30 3462 N 326.66 -1.06551 1.16123 0
M  V30 3463 C 327.888 -1.83005 0.965237 0
M  V30 3464 C 328.303 -1.82423 -0.486542 0
M  V30 3465 O 327.66 -1.24152 -1.33763 0
M  V30 3466 C 327.711 -3.29733 1.48183 0
M  V30 3467 O 327.432 -3.30416 2.87674 0
M  V30 3468 C 328.933 -4.22926 1.32848 0
M  V30 3469 H 326.153 -0.577118 0.342309 0
M  V30 3470 H 328.697 -1.3445 1.54089 0
M  V30 3471 H 326.852 -3.75609 0.948517 0
M  V30 3472 H 327.266 -4.22149 3.11272 0
M  V30 3473 H 328.74 -5.23916 1.73827 0
M  V30 3474 H 329.217 -4.38346 0.273692 0
M  V30 3475 H 329.823 -3.82894 1.85127 0
M  V30 3476 N 328.138 -0.959301 -1.25041 0
M  V30 3477 C 329.415 -0.533805 -1.88175 0
M  V30 3478 C 329.795 0.988994 -1.865 0
M  V30 3479 O 329.143 1.85677 -1.33177 0
M  V30 3480 C 329.353 -1.11575 -3.30684 0
M  V30 3481 C 330.701 -1.19548 -4.07423 0
M  V30 3482 O 331.725 -1.06765 -3.39823 0
M  V30 3483 O 330.584 -1.39656 -5.28354 0
M  V30 3484 H 327.678 -0.176772 -0.807887 0
M  V30 3485 H 330.224 -1.05303 -1.33076 0
M  V30 3486 H 328.996 -2.15884 -3.26358 0
M  V30 3487 H 328.619 -0.580059 -3.93346 0
M  V30 3488 N 329.616 1.39756 -0.72842 0
M  V30 3489 C 330.566 2.2792 -0.0603424 0
M  V30 3490 C 331.55 1.43922 0.719399 0
M  V30 3491 O 332.742 1.66895 0.589489 0
M  V30 3492 C 329.871 3.32582 0.851104 0
M  V30 3493 C 328.957 4.24049 0.0658641 0
M  V30 3494 N 329.348 4.96653 -0.957578 0
M  V30 3495 C 327.646 4.45013 0.296509 0
M  V30 3496 C 328.347 5.63836 -1.43052 0
M  V30 3497 N 327.323 5.38397 -0.750315 0
M  V30 3498 H 331.125 2.81504 -0.84455 0
M  V30 3499 H 328.639 1.5236 -0.562155 0
M  V30 3500 H 330.636 3.94603 1.34514 0
M  V30 3501 H 329.296 2.80558 1.63454 0
M  V30 3502 H 330.307 5.00297 -1.33877 0
M  V30 3503 H 326.984 4.03943 1.05527 0
M  V30 3504 H 328.374 6.31974 -2.28163 0
M  V30 3505 N 331.094 0.475555 1.50254 0
M  V30 3506 C 332.34 -0.0780073 2.0265 0
M  V30 3507 C 332.673 -1.38968 1.35652 0
M  V30 3508 O 331.948 -1.8839 0.483691 0
M  V30 3509 C 332.231 -0.257161 3.59181 0
M  V30 3510 C 332.084 1.07585 4.36744 0
M  V30 3511 C 333.403 -1.00965 4.28362 0
M  V30 3512 H 330.522 -0.0268758 0.73651 0
M  V30 3513 H 333.164 0.622015 1.7953 0
M  V30 3514 H 331.314 -0.853412 3.79011 0
M  V30 3515 H 332.986 1.70902 4.28474 0
M  V30 3516 H 331.229 1.6714 4.00308 0
M  V30 3517 H 331.9 0.904088 5.44546 0
M  V30 3518 H 334.376 -0.504214 4.13034 0
M  V30 3519 H 333.252 -1.10381 5.37687 0
M  V30 3520 H 333.513 -2.04731 3.91839 0
M  V30 3521 N 332.573 -1.56217 0.208337 0
M  V30 3522 C 333.819 -1.98998 -0.42086 0
M  V30 3523 C 334.174 -1.09331 -1.58317 0
M  V30 3524 O 333.467 -0.140466 -1.91084 0
M  V30 3525 C 333.661 -3.45441 -0.916797 0
M  V30 3526 C 333.49 -4.49273 0.195925 0
M  V30 3527 C 332.26 -5.00998 0.657956 0
M  V30 3528 C 334.458 -5.04294 1.00956 0
M  V30 3529 N 332.44 -5.88514 1.74712 0
M  V30 3530 C 333.811 -5.88607 1.94785 0
M  V30 3531 C 335.866 -4.86692 1.05049 0
M  V30 3532 C 334.569 -6.572 2.9237 0
M  V30 3533 C 336.595 -5.56034 2.01446 0
M  V30 3534 C 335.957 -6.40105 2.94016 0
M  V30 3535 H 332.056 -0.772574 -0.121048 0
M  V30 3536 H 334.64 -1.92101 0.317075 0
M  V30 3537 H 332.811 -3.52812 -1.62413 0
M  V30 3538 H 334.543 -3.75164 -1.51771 0
M  V30 3539 H 331.298 -4.72945 0.248912 0
M  V30 3540 H 331.722 -6.36975 2.2933 0
M  V30 3541 H 336.364 -4.21359 0.348759 0
M  V30 3542 H 334.082 -7.21723 3.63512 0
M  V30 3543 H 337.668 -5.44385 2.0527 0
M  V30 3544 H 336.548 -6.92816 3.6739 0
M  V30 3545 N 334.051 0.0651679 -1.57465 0
M  V30 3546 C 335.462 0.616213 -1.76238 0
M  V30 3547 C 335.813 1.7756 -0.834689 0
M  V30 3548 O 334.938 2.1639 -0.0204156 0
M  V30 3549 C 335.533 1.12462 -3.1959 0
M  V30 3550 C 334.092 1.62147 -3.39684 0
M  V30 3551 C 333.239 0.543739 -2.71917 0
M  V30 3552 H 336.19 -0.161022 -1.57881 0
M  V30 3553 H 336.211 1.99324 -3.24114 0
M  V30 3554 H 335.723 0.280592 -3.87084 0
M  V30 3555 H 333.824 2.48854 -2.77313 0
M  V30 3556 H 333.937 1.69385 -4.48158 0
M  V30 3557 H 332.301 0.990352 -2.34657 0
M  V30 3558 H 333.084 -0.290216 -3.42071 0
M  V30 3559 N 335.529 1.53961 0.336706 0
M  V30 3560 C 336.757 1.75483 1.09605 0
M  V30 3561 C 337.172 0.4972 1.82136 0
M  V30 3562 O 336.529 -0.53149 1.74589 0
M  V30 3563 C 336.58 2.93943 2.10428 0
M  V30 3564 O 336.301 4.14842 1.40846 0
M  V30 3565 C 337.802 3.27571 2.98684 0
M  V30 3566 H 335.022 0.586166 0.326574 0
M  V30 3567 H 337.566 2.00808 0.38683 0
M  V30 3568 H 335.721 2.70929 2.76905 0
M  V30 3569 H 336.135 4.81383 2.08255 0
M  V30 3570 H 337.609 4.13791 3.6535 0
M  V30 3571 H 338.086 2.44168 3.65074 0
M  V30 3572 H 338.692 3.52615 2.37787 0
M  V30 3573 N 337.007 -0.598083 1.45811 0
M  V30 3574 C 338.418 -1.18011 1.44673 0
M  V30 3575 C 338.769 -1.95378 0.179364 0
M  V30 3576 O 337.894 -2.04124 -0.718509 0
M  V30 3577 C 338.489 -2.14677 2.62105 0
M  V30 3578 C 337.048 -2.68236 2.64057 0
M  V30 3579 C 336.195 -1.43816 2.37091 0
M  V30 3580 H 339.146 -0.38686 1.53913 0
M  V30 3581 H 339.167 -2.97878 2.36746 0
M  V30 3582 H 338.679 -1.5834 3.5433 0
M  V30 3583 H 336.78 -3.28486 1.75864 0
M  V30 3584 H 336.893 -3.12021 3.63566 0
M  V30 3585 H 335.257 -1.731 1.86838 0
M  V30 3586 H 336.04 -0.893333 3.31473 0
M  V30 3587 N 338.485 -1.33259 -0.841409 0
M  V30 3588 C 339.395 -1.25332 -1.98316 0
M  V30 3589 C 340.411 -0.164364 -1.73222 0
M  V30 3590 O 341.587 -0.387486 -1.97637 0
M  V30 3591 C 338.652 -0.990078 -3.32262 0
M  V30 3592 C 337.713 -2.16879 -3.70489 0
M  V30 3593 C 336.946 -1.91801 -4.98044 0
M  V30 3594 O 337.169 -0.867075 -5.63771 0
M  V30 3595 O 336.103 -2.78267 -5.33714 0
M  V30 3596 H 339.929 -2.21344 -2.07944 0
M  V30 3597 H 337.514 -1.1328 -0.974058 0
M  V30 3598 H 339.396 -0.860321 -4.12524 0
M  V30 3599 H 338.071 -0.0602155 -3.23644 0
M  V30 3600 H 336.978 -2.35407 -2.90748 0
M  V30 3601 H 338.311 -3.0819 -3.8377 0
M  V30 3602 N 339.963 1.05934 -1.16686 0
M  V30 3603 C 340.911 2.15603 -0.872817 0
M  V30 3604 C 341.905 1.68647 0.159576 0
M  V30 3605 O 343.111 1.79995 0.0132125 0
M  V30 3606 H 339.486 0.703885 -0.264671 0
M  V30 3607 H 341.457 2.37613 -1.80507 0
M  V30 3608 C 340.206 3.45457 -0.394344 0
M  V30 3609 H 339.529 3.81984 -1.18019 0
M  V30 3610 H 340.969 4.2339 -0.227408 0
M  V30 3611 C 339.428 3.25021 0.88673 0
M  V30 3612 O 339.958 3.50906 1.95519 0
M  V30 3613 N 338.164 2.78437 0.831925 0
M  V30 3614 H 337.711 2.57572 -0.0377619 0
M  V30 3615 H 337.669 2.65144 1.68956 0
M  V30 3616 N 341.441 0.965919 1.2453 0
M  V30 3617 C 342.69 0.622437 1.91856 0
M  V30 3618 C 343.003 -0.846006 1.76358 0
M  V30 3619 O 344.209 -1.29993 2.38357 0
M  V30 3620 C 342.665 1.0626 3.43856 0
M  V30 3621 C 342.273 2.55437 3.68043 0
M  V30 3622 C 344.017 0.792183 4.17043 0
M  V30 3623 C 341.924 2.93196 5.13605 0
M  V30 3624 H 340.854 0.229092 0.718354 0
M  V30 3625 H 343.505 1.17189 1.41206 0
M  V30 3626 H 341.887 0.441476 3.93531 0
M  V30 3627 H 343.061 3.22665 3.28974 0
M  V30 3628 H 341.376 2.8007 3.08139 0
M  V30 3629 H 343.973 1.05031 5.24283 0
M  V30 3630 H 344.316 -0.271584 4.15413 0
M  V30 3631 H 344.849 1.37419 3.73311 0
M  V30 3632 H 341.588 3.98636 5.20355 0
M  V30 3633 H 341.108 2.30651 5.53679 0
M  V30 3634 H 342.787 2.83004 5.81823 0
M  V30 3635 N 342.919 -1.39368 0.735821 0
M  V30 3636 C 344.196 -1.94465 0.210395 0
M  V30 3637 C 344.576 -1.67254 -1.28799 0
M  V30 3638 O 343.924 -1.00123 -2.05396 0
M  V30 3639 C 344.134 -3.4472 0.544897 0
M  V30 3640 C 345.482 -4.21708 0.494689 0
M  V30 3641 O 346.506 -3.52922 0.482136 0
M  V30 3642 O 345.365 -5.44299 0.489947 0
M  V30 3643 H 342.459 -0.826096 0.0386666 0
M  V30 3644 H 345.005 -1.48863 0.814735 0
M  V30 3645 H 343.777 -3.57963 1.58045 0
M  V30 3646 H 343.4 -3.97502 -0.08837 0
M  V30 3647 N 344.397 -0.483516 -1.5 0
M  V30 3648 C 345.813 -0.138404 -1.58999 0
M  V30 3649 C 346.013 1.35597 -1.4905 0
M  V30 3650 O 345.069 2.13039 -1.35539 0
M  V30 3651 C 346.382 -0.699658 -2.92447 0
M  V30 3652 C 347.93 -0.664195 -3.05872 0
M  V30 3653 C 348.405 -1.20321 -4.41913 0
M  V30 3654 N 349.896 -1.16315 -4.48358 0
M  V30 3655 C 350.631 -1.55058 -5.52037 0
M  V30 3656 N 350.127 -2.01311 -6.62907 0
M  V30 3657 N 351.92 -1.46584 -5.42651 0
M  V30 3658 H 344.071 -1.45529 -1.5471 0
M  V30 3659 H 346.334 -0.60258 -0.731848 0
M  V30 3660 H 346.04 -1.747 -3.05242 0
M  V30 3661 H 345.914 -0.150194 -3.76901 0
M  V30 3662 H 348.301 0.374272 -2.92717 0
M  V30 3663 H 348.382 -1.25061 -2.23144 0
M  V30 3664 H 348.026 -2.24037 -4.55818 0
M  V30 3665 H 347.956 -0.592896 -5.23252 0
M  V30 3666 H 350.447 -0.824058 -3.68806 0
M  V30 3667 H 350.76 -2.2899 -7.38095 0
M  V30 3668 H 349.105 -2.05273 -6.63994 0
M  V30 3669 H 352.296 -1.10281 -4.54924 0
M  V30 3670 H 352.469 -1.77103 -6.23329 0
M  V30 3671 N 345.875 1.56104 -0.216619 0
M  V30 3672 C 347.122 1.98172 0.416416 0
M  V30 3673 C 347.45 1.10413 1.60122 0
M  V30 3674 O 346.705 0.147967 1.9514 0
M  V30 3675 C 347.004 3.45923 0.898464 0
M  V30 3676 C 346.67 4.50559 -0.175288 0
M  V30 3677 C 345.332 4.78897 -0.470271 0
M  V30 3678 C 347.684 5.1334 -0.901728 0
M  V30 3679 C 345.012 5.67299 -1.4963 0
M  V30 3680 C 347.364 6.02853 -1.91705 0
M  V30 3681 C 346.028 6.29537 -2.21901 0
M  V30 3682 H 345.298 0.725164 0.152377 0
M  V30 3683 H 347.945 1.88839 -0.318103 0
M  V30 3684 H 346.25 3.52434 1.71165 0
M  V30 3685 H 347.947 3.75841 1.39803 0
M  V30 3686 H 344.537 4.28551 0.0647806 0
M  V30 3687 H 348.721 4.91521 -0.687072 0
M  V30 3688 H 343.977 5.86239 -1.73592 0
M  V30 3689 H 348.151 6.50552 -2.48505 0
M  V30 3690 H 345.778 6.97835 -3.01548 0
M  V30 3691 N 347.353 -0.0568162 1.57498 0
M  V30 3692 C 348.283 -1.06593 2.0775 0
M  V30 3693 C 349.264 -1.39448 0.974082 0
M  V30 3694 O 350.449 -1.48815 1.24771 0
M  V30 3695 C 347.579 -2.37509 2.5339 0
M  V30 3696 C 346.533 -2.1897 3.67745 0
M  V30 3697 C 345.859 -3.55402 3.99492 0
M  V30 3698 C 347.159 -1.59859 4.97235 0
M  V30 3699 H 348.853 -0.647706 2.9231 0
M  V30 3700 H 346.399 -0.310116 1.40621 0
M  V30 3701 H 348.352 -3.08409 2.87162 0
M  V30 3702 H 347.076 -2.8134 1.65878 0
M  V30 3703 H 345.735 -1.50508 3.3428 0
M  V30 3704 H 345.383 -3.9683 3.09088 0
M  V30 3705 H 345.083 -3.43831 4.76502 0
M  V30 3706 H 346.607 -4.27708 4.35773 0
M  V30 3707 H 348.021 -2.20642 5.29141 0
M  V30 3708 H 346.418 -1.58942 5.78669 0
M  V30 3709 H 347.488 -0.561506 4.81638 0
M  V30 3710 N 348.832 -1.54138 -0.328536 0
M  V30 3711 C 349.795 -1.82462 -1.38709 0
M  V30 3712 C 350.795 -0.696229 -1.44946 0
M  V30 3713 O 351.985 -0.964535 -1.4506 0
M  V30 3714 C 349.117 -1.98018 -2.77492 0
M  V30 3715 H 350.31 -2.77037 -1.14851 0
M  V30 3716 H 347.863 -1.45779 -0.563751 0
M  V30 3717 H 348.598 -1.05637 -3.06613 0
M  V30 3718 H 348.383 -2.80124 -2.74359 0
M  V30 3719 H 349.873 -2.21396 -3.54081 0
M  V30 3720 N 350.31 0.590341 -1.46126 0
M  V30 3721 C 351.557 1.34882 -1.5104 0
M  V30 3722 C 351.885 1.93849 -0.159021 0
M  V30 3723 O 351.14 1.76544 0.844436 0
M  V30 3724 C 351.439 2.5032 -2.55097 0
M  V30 3725 C 351.105 2.09394 -3.99331 0
M  V30 3726 C 349.767 1.97947 -4.38601 0
M  V30 3727 C 352.119 1.77712 -4.89967 0
M  V30 3728 C 349.447 1.53065 -5.66381 0
M  V30 3729 C 351.799 1.34312 -6.18177 0
M  V30 3730 C 350.463 1.21436 -6.56361 0
M  V30 3731 H 349.733 0.493568 -0.552695 0
M  V30 3732 H 352.38 0.665539 -1.79563 0
M  V30 3733 H 350.685 3.24062 -2.20207 0
M  V30 3734 H 352.382 3.08541 -2.56132 0
M  V30 3735 H 348.972 2.19235 -3.68285 0
M  V30 3736 H 353.156 1.85445 -4.60352 0
M  V30 3737 H 348.412 1.41733 -5.94745 0
M  V30 3738 H 352.586 1.08849 -6.87841 0
M  V30 3739 H 350.213 0.864345 -7.5527 0
M  V30 3740 N 351.788 1.33704 0.83433 0
M  V30 3741 C 353.018 1.28281 1.6195 0
M  V30 3742 C 353.426 -0.147603 1.88623 0
M  V30 3743 O 352.769 -1.1016 1.47005 0
M  V30 3744 C 352.831 1.99386 2.99141 0
M  V30 3745 C 352.495 3.48681 2.95416 0
M  V30 3746 C 353.492 4.438 2.70809 0
M  V30 3747 C 351.177 3.90925 3.15409 0
M  V30 3748 C 353.171 5.79138 2.66229 0
M  V30 3749 C 350.858 5.26366 3.10454 0
M  V30 3750 C 351.856 6.20284 2.85895 0
M  V30 3751 O 351.544 7.53245 2.80852 0
M  V30 3752 H 351.276 0.44315 0.510484 0
M  V30 3753 H 353.83 1.76711 1.04702 0
M  V30 3754 H 352.06 1.45554 3.58261 0
M  V30 3755 H 353.749 1.87403 3.60049 0
M  V30 3756 H 354.515 4.12485 2.5511 0
M  V30 3757 H 350.394 3.18229 3.33543 0
M  V30 3758 H 353.938 6.52416 2.4698 0
M  V30 3759 H 349.835 5.57304 3.25703 0
M  V30 3760 H 350.603 7.62846 2.96661 0
M  V30 3761 N 353.266 -1.05314 1.17247 0
M  V30 3762 C 354.682 -1.30452 0.919473 0
M  V30 3763 C 354.882 -1.9703 -0.42209 0
M  V30 3764 O 353.938 -2.24311 -1.15935 0
M  V30 3765 C 355.251 -2.17551 2.07586 0
M  V30 3766 C 356.799 -2.30937 2.11275 0
M  V30 3767 C 357.274 -3.21396 3.26296 0
M  V30 3768 N 358.765 -3.28981 3.26076 0
M  V30 3769 C 359.5 -3.99095 4.11716 0
M  V30 3770 N 358.996 -4.71648 5.07465 0
M  V30 3771 N 360.789 -3.95247 3.9967 0
M  V30 3772 H 352.94 -0.604988 2.03602 0
M  V30 3773 H 355.203 -0.329368 0.888944 0
M  V30 3774 H 354.909 -1.75921 3.0454 0
M  V30 3775 H 354.783 -3.18182 2.02584 0
M  V30 3776 H 357.17 -2.71809 1.14907 0
M  V30 3777 H 357.251 -1.2994 2.20339 0
M  V30 3778 H 356.895 -2.81238 4.22927 0
M  V30 3779 H 356.825 -4.22395 3.14467 0
M  V30 3780 H 359.316 -2.77286 2.5675 0
M  V30 3781 H 359.629 -5.22705 5.6921 0
M  V30 3782 H 357.974 -4.70594 5.11435 0
M  V30 3783 H 361.165 -3.37691 3.24164 0
M  V30 3784 H 361.338 -4.4962 4.66632 0
M  V30 3785 N 354.744 -0.972509 -1.24016 0
M  V30 3786 C 355.972 -0.654803 -1.96265 0
M  V30 3787 C 356.387 0.776708 -1.72083 0
M  V30 3788 O 355.744 1.52171 -1.00748 0
M  V30 3789 C 355.795 -0.92592 -3.49441 0
M  V30 3790 O 355.516 -2.30116 -3.72798 0
M  V30 3791 C 357.017 -0.623068 -4.38899 0
M  V30 3792 H 354.237 -0.243907 -0.6251 0
M  V30 3793 H 356.781 -1.30175 -1.57717 0
M  V30 3794 H 354.936 -0.325108 -3.86033 0
M  V30 3795 H 355.35 -2.38483 -4.67147 0
M  V30 3796 H 356.824 -0.863189 -5.45209 0
M  V30 3797 H 357.301 0.442754 -4.36963 0
M  V30 3798 H 357.907 -1.204 -4.07902 0
M  V30 3799 N 356.222 1.38976 -0.743202 0
M  V30 3800 C 357.152 2.33171 -0.123873 0
M  V30 3801 C 358.133 1.54336 0.71516 0
M  V30 3802 O 359.318 1.82696 0.658467 0
M  V30 3803 C 356.448 3.38474 0.777978 0
M  V30 3804 C 355.402 4.27979 0.0424758 0
M  V30 3805 C 354.728 5.2405 1.06189 0
M  V30 3806 C 356.028 5.10155 -1.1198 0
M  V30 3807 H 357.722 2.85213 -0.910709 0
M  V30 3808 H 355.268 1.37133 -0.439388 0
M  V30 3809 H 357.221 4.03328 1.22084 0
M  V30 3810 H 355.945 2.84891 1.59702 0
M  V30 3811 H 354.604 3.64616 -0.380853 0
M  V30 3812 H 354.252 4.66758 1.87472 0
M  V30 3813 H 353.952 5.84785 0.574485 0
M  V30 3814 H 355.476 5.9178 1.50428 0
M  V30 3815 H 356.89 5.68307 -0.75499 0
M  V30 3816 H 355.287 5.80073 -1.53738 0
M  V30 3817 H 356.357 4.44504 -1.93764 0
M  V30 3818 N 357.7 0.491464 1.49741 0
M  V30 3819 C 359.111 0.0413169 1.86654 0
M  V30 3820 C 359.462 -1.36985 1.40462 0
M  V30 3821 O 358.587 -2.01917 0.778354 0
M  V30 3822 C 359.182 0.0682023 3.38731 0
M  V30 3823 C 357.741 -0.32656 3.74981 0
M  V30 3824 C 356.888 0.444888 2.73708 0
M  V30 3825 H 359.839 0.704733 1.42194 0
M  V30 3826 H 359.86 -0.729322 3.73445 0
M  V30 3827 H 359.372 1.09539 3.72321 0
M  V30 3828 H 357.473 -1.35734 3.46997 0
M  V30 3829 H 357.586 -0.013741 4.79098 0
M  V30 3830 H 355.95 -0.104062 2.54487 0
M  V30 3831 H 356.733 1.47197 3.10142 0
M  V30 3832 N 359.178 -1.55987 0.224894 0
M  V30 3833 C 360.11 -2.17722 -0.716224 0
M  V30 3834 C 361.123 -1.14723 -1.15509 0
M  V30 3835 O 362.312 -1.41688 -1.08567 0
M  V30 3836 C 359.412 -2.74873 -1.98238 0
M  V30 3837 C 358.585 -4.03074 -1.69853 0
M  V30 3838 C 357.644 -4.44757 -2.81208 0
M  V30 3839 O 356.67 -5.11587 -2.49534 0
M  V30 3840 N 357.872 -4.10716 -4.10235 0
M  V30 3841 H 360.637 -2.99109 -0.188123 0
M  V30 3842 H 358.198 -1.6184 0.0440123 0
M  V30 3843 H 360.19 -2.99727 -2.7193 0
M  V30 3844 H 358.76 -1.9777 -2.42086 0
M  V30 3845 H 357.98 -3.86041 -0.797875 0
M  V30 3846 H 359.268 -4.86701 -1.48324 0
M  V30 3847 H 358.666 -3.57019 -4.38809 0
M  V30 3848 H 357.223 -4.40455 -4.80461 0
M  V30 3849 N 360.656 0.0484629 -1.57525 0
M  V30 3850 C 361.933 0.777447 -1.79486 0
M  V30 3851 C 362.313 1.94597 -0.818251 0
M  V30 3852 O 361.661 2.28047 0.143767 0
M  V30 3853 C 361.871 1.22864 -3.26658 0
M  V30 3854 C 363.219 1.65251 -3.91123 0
M  V30 3855 O 364.243 1.32372 -3.3069 0
M  V30 3856 O 363.102 2.26207 -4.97486 0
M  V30 3857 H 360.196 0.374357 -0.737419 0
M  V30 3858 H 362.742 0.0267359 -1.69679 0
M  V30 3859 H 361.514 0.393589 -3.89316 0
M  V30 3860 H 361.137 2.03996 -3.41279 0
M  V30 3861 N 362.134 1.5431 0.320358 0
M  V30 3862 C 363.097 1.83195 1.3774 0
M  V30 3863 C 364.097 0.703906 1.44575 0
M  V30 3864 O 365.287 0.972214 1.44546 0
M  V30 3865 C 362.419 1.99487 2.76438 0
M  V30 3866 H 363.612 2.77642 1.1338 0
M  V30 3867 H 361.165 1.46076 0.556012 0
M  V30 3868 H 361.9 1.07262 3.06048 0
M  V30 3869 H 361.685 2.81575 2.7287 0
M  V30 3870 H 363.175 2.23271 3.52902 0
M  V30 3871 N 363.613 -0.582584 1.46437 0
M  V30 3872 C 364.859 -1.34064 1.52965 0
M  V30 3873 C 365.214 -1.91566 0.178968 0
M  V30 3874 O 364.507 -1.73526 -0.812365 0
M  V30 3875 C 364.701 -2.48964 2.56421 0
M  V30 3876 C 364.53 -2.02717 4.01417 0
M  V30 3877 C 363.3 -1.87728 4.69134 0
M  V30 3878 C 365.498 -1.58675 4.8921 0
M  V30 3879 N 363.48 -1.35554 5.98747 0
M  V30 3880 C 364.851 -1.18093 6.08649 0
M  V30 3881 C 366.906 -1.46494 4.75861 0
M  V30 3882 C 365.609 -0.665427 7.16215 0
M  V30 3883 C 367.635 -0.96347 5.83499 0
M  V30 3884 C 366.997 -0.567432 7.02111 0
M  V30 3885 H 363.096 -0.483551 0.614575 0
M  V30 3886 H 365.68 -0.663309 1.83053 0
M  V30 3887 H 363.851 -3.1426 2.28244 0
M  V30 3888 H 365.583 -3.15913 2.52944 0
M  V30 3889 H 362.338 -2.09678 4.24655 0
M  V30 3890 H 362.762 -1.11628 6.67734 0
M  V30 3891 H 367.404 -1.75731 3.8455 0
M  V30 3892 H 365.122 -0.360639 8.07295 0
M  V30 3893 H 368.708 -0.873129 5.75211 0
M  V30 3894 H 367.588 -0.185389 7.83981 0
M  V30 3895 N 365.091 -1.34144 -0.827227 0
M  V30 3896 C 366.021 -1.28005 -1.95287 0
M  V30 3897 C 367.002 -0.158321 -1.69362 0
M  V30 3898 O 368.187 -0.349987 -1.9102 0
M  V30 3899 C 365.317 -1.03036 -3.31664 0
M  V30 3900 C 364.271 -2.11628 -3.72019 0
M  V30 3901 C 363.597 -1.71854 -5.0633 0
M  V30 3902 C 364.897 -3.53417 -3.8457 0
M  V30 3903 H 366.591 -2.22187 -2.00682 0
M  V30 3904 H 364.137 -1.0696 -0.964135 0
M  V30 3905 H 366.09 -0.973863 -4.09993 0
M  V30 3906 H 364.814 -0.0529391 -3.26557 0
M  V30 3907 H 363.473 -2.16339 -2.95961 0
M  V30 3908 H 363.121 -0.727841 -4.97706 0
M  V30 3909 H 362.821 -2.44531 -5.34302 0
M  V30 3910 H 364.345 -1.67692 -5.87122 0
M  V30 3911 H 365.759 -3.51142 -4.5318 0
M  V30 3912 H 364.156 -4.24679 -4.2399 0
M  V30 3913 H 365.226 -3.91072 -2.86689 0
M  V30 3914 N 366.569 1.04691 -1.17803 0
M  V30 3915 C 367.519 2.10856 -0.867391 0
M  V30 3916 C 368.503 1.601 0.160206 0
M  V30 3917 O 369.695 1.76948 -0.042947 0
M  V30 3918 C 366.824 3.411 -0.388012 0
M  V30 3919 C 365.91 3.9864 -1.44732 0
M  V30 3920 N 366.301 4.30075 -2.66212 0
M  V30 3921 C 364.599 4.26439 -1.30637 0
M  V30 3922 C 365.3 4.76033 -3.34317 0
M  V30 3923 N 364.276 4.76462 -2.61696 0
M  V30 3924 H 368.078 2.33029 -1.79094 0
M  V30 3925 H 365.592 1.22386 -1.0675 0
M  V30 3926 H 367.589 4.16641 -0.146994 0
M  V30 3927 H 366.249 3.20357 0.529271 0
M  V30 3928 H 367.26 4.19917 -3.03134 0
M  V30 3929 H 363.937 4.15056 -0.451129 0
M  V30 3930 H 365.327 5.09427 -4.38103 0
M  V30 3931 N 368.047 0.979072 1.23499 0
M  V30 3932 C 369.294 0.647219 1.91878 0
M  V30 3933 C 369.622 -0.819074 1.76413 0
M  V30 3934 O 368.877 -1.60616 1.11808 0
M  V30 3935 C 369.176 0.981932 3.43646 0
M  V30 3936 C 368.842 2.43822 3.79291 0
M  V30 3937 C 367.504 2.83622 3.88731 0
M  V30 3938 C 369.856 3.3828 3.96505 0
M  V30 3939 C 367.184 4.16897 4.12812 0
M  V30 3940 C 369.536 4.71197 4.22085 0
M  V30 3941 C 368.2 5.10758 4.29747 0
M  V30 3942 H 367.47 0.236834 0.702133 0
M  V30 3943 H 370.117 1.23268 1.46551 0
M  V30 3944 H 368.422 0.314365 3.90537 0
M  V30 3945 H 370.119 0.703395 3.94783 0
M  V30 3946 H 366.709 2.11966 3.72516 0
M  V30 3947 H 370.893 3.0871 3.88603 0
M  V30 3948 H 366.149 4.47157 4.16966 0
M  V30 3949 H 370.323 5.44348 4.34348 0
M  V30 3950 H 367.95 6.1405 4.48159 0
M  V30 3951 N 369.525 -1.3858 0.750561 0
M  V30 3952 C 370.475 -2.27795 0.0965949 0
M  V30 3953 C 371.459 -1.45048 -0.696411 0
M  V30 3954 O 372.651 -1.67812 -0.562863 0
M  V30 3955 C 369.78 -3.33894 -0.798085 0
M  V30 3956 C 368.866 -4.241 0.0016067 0
M  V30 3957 N 369.257 -4.95067 1.03647 0
M  V30 3958 C 367.555 -4.45429 -0.225674 0
M  V30 3959 C 368.256 -5.61489 1.52004 0
M  V30 3960 N 367.232 -5.37135 0.835874 0
M  V30 3961 H 371.034 -2.80125 0.889228 0
M  V30 3962 H 368.548 -1.51446 0.586323 0
M  V30 3963 H 370.545 -3.96693 -1.28219 0
M  V30 3964 H 369.205 -2.83123 -1.5897 0
M  V30 3965 H 370.216 -4.98104 1.41819 0
M  V30 3966 H 366.893 -4.05571 -0.990872 0
M  V30 3967 H 368.283 -6.28264 2.38188 0
M  V30 3968 N 371.003 -0.499398 -1.49478 0
M  V30 3969 C 372.243 0.0440751 -2.04352 0
M  V30 3970 C 372.607 1.34423 -1.37093 0
M  V30 3971 O 373.808 1.97184 -1.82679 0
M  V30 3972 C 372.079 0.194918 -3.56868 0
M  V30 3973 S 373.638 0.69287 -4.33295 0
M  V30 3974 H 370.456 0.00253458 -0.710995 0
M  V30 3975 H 373.058 -0.673 -1.83551 0
M  V30 3976 H 371.762 -0.756672 -4.03364 0
M  V30 3977 H 371.293 0.93728 -3.82071 0
M  V30 3978 H 373.308 1.96226 -4.55752 0
M  V30 3979 N 372.481 1.55866 -0.233164 0
M  V30 3980 C 373.391 2.24431 0.683217 0
M  V30 3981 C 374.407 1.2558 1.2044 0
M  V30 3982 O 375.583 1.58422 1.24356 0
M  V30 3983 C 372.648 2.91979 1.86947 0
M  V30 3984 C 371.709 4.06204 1.38912 0
M  V30 3985 C 370.942 4.70522 2.51883 0
M  V30 3986 O 371.165 4.33865 3.70293 0
M  V30 3987 O 370.099 5.59296 2.22423 0
M  V30 3988 H 373.925 3.03426 0.129059 0
M  V30 3989 H 371.51 1.494 -0.0022283 0
M  V30 3990 H 373.392 3.34573 2.56201 0
M  V30 3991 H 372.067 2.15935 2.41151 0
M  V30 3992 H 370.974 3.68155 0.664259 0
M  V30 3993 H 372.307 4.84025 0.893328 0
M  V30 3994 N 373.959 -0.0401083 1.57549 0
M  V30 3995 C 374.922 -1.02871 2.04817 0
M  V30 3996 C 375.922 -1.29708 0.950388 0
M  V30 3997 O 377.112 -1.24897 1.21435 0
M  V30 3998 C 374.244 -2.36443 2.45576 0
M  V30 3999 H 375.437 -0.620631 2.93408 0
M  V30 4000 H 372.99 -0.286667 1.53649 0
M  V30 4001 H 373.725 -2.82021 1.60108 0
M  V30 4002 H 373.51 -2.18296 3.25713 0
M  V30 4003 H 375 -3.07441 2.82612 0
M  V30 4004 N 375.437 -1.54477 -0.31217 0
M  V30 4005 C 376.685 -1.72884 -1.04668 0
M  V30 4006 C 377.006 -0.511477 -1.88173 0
M  V30 4007 O 376.276 0.474407 -1.90069 0
M  V30 4008 H 374.856 -0.637461 -0.389425 0
M  V30 4009 H 377.518 -1.91807 -0.345852 0
M  V30 4010 H 376.614 -2.61334 -1.70619 0
M  V30 4011 N 376.915 0.57481 -1.46744 0
M  V30 4012 C 378.161 1.3347 -1.52688 0
M  V30 4013 C 378.494 1.93353 -0.181229 0
M  V30 4014 O 377.769 1.76912 0.808237 0
M  V30 4015 C 378.052 2.45811 -2.63152 0
M  V30 4016 C 377.905 1.90912 -4.07275 0
M  V30 4017 C 379.224 3.47822 -2.69644 0
M  V30 4018 H 376.343 0.483935 -0.555856 0
M  V30 4019 H 378.985 0.644968 -1.78718 0
M  V30 4020 H 377.135 3.04646 -2.41088 0
M  V30 4021 H 378.807 1.36473 -4.4065 0
M  V30 4022 H 377.05 1.21691 -4.16382 0
M  V30 4023 H 377.721 2.72042 -4.80309 0
M  V30 4024 H 380.197 2.9888 -2.895 0
M  V30 4025 H 379.073 4.23876 -3.48742 0
M  V30 4026 H 379.334 4.05555 -1.76005 0
M  V30 4027 N 378.394 1.34581 0.820102 0
M  V30 4028 C 379.642 1.26845 1.57336 0
M  V30 4029 C 379.963 -0.160667 1.94337 0
M  V30 4030 O 379.233 -1.09396 1.6251 0
M  V30 4031 H 377.813 0.466514 0.583415 0
M  V30 4032 H 380.475 1.68526 0.979027 0
M  V30 4033 H 379.571 1.87513 2.4949 0
M  V30 4034 N 379.872 -1.04064 1.18357 0
M  V30 4035 C 381.288 -1.2947 0.933258 0
M  V30 4036 C 381.488 -1.97466 -0.401169 0
M  V30 4037 O 380.544 -2.25528 -1.13549 0
M  V30 4038 C 381.857 -2.15337 2.09882 0
M  V30 4039 C 383.405 -2.28683 2.13712 0
M  V30 4040 C 383.88 -3.17917 3.29686 0
M  V30 4041 N 385.371 -3.25504 3.29547 0
M  V30 4042 C 386.106 -3.94706 4.15926 0
M  V30 4043 N 385.602 -4.66239 5.12439 0
M  V30 4044 N 387.395 -3.90986 4.0384 0
M  V30 4045 H 379.546 -0.583359 2.04232 0
M  V30 4046 H 381.809 -0.319921 0.892387 0
M  V30 4047 H 381.515 -1.72682 3.06389 0
M  V30 4048 H 381.389 -3.16015 2.05947 0
M  V30 4049 H 383.776 -2.70575 1.17784 0
M  V30 4050 H 383.857 -1.27596 2.21705 0
M  V30 4051 H 383.501 -2.76736 4.25887 0
M  V30 4052 H 383.431 -4.19036 3.1893 0
M  V30 4053 H 385.922 -2.74547 2.59677 0
M  V30 4054 H 386.235 -5.16638 5.74722 0
M  V30 4055 H 384.58 -4.65143 5.16398 0
M  V30 4056 H 387.771 -3.34234 3.27727 0
M  V30 4057 H 387.944 -4.44646 4.71375 0
M  V30 4058 N 381.35 -0.985608 -1.22978 0
M  V30 4059 C 382.578 -0.675582 -1.95559 0
M  V30 4060 C 382.993 0.758413 -1.72897 0
M  V30 4061 O 382.35 1.51094 -1.02357 0
M  V30 4062 C 382.401 -0.96293 -3.48439 0
M  V30 4063 O 382.122 -2.34057 -3.70336 0
M  V30 4064 C 383.623 -0.669585 -4.38214 0
M  V30 4065 H 380.843 -0.250523 -0.622478 0
M  V30 4066 H 383.387 -1.3184 -1.56328 0
M  V30 4067 H 381.542 -0.366033 -3.85667 0
M  V30 4068 H 381.956 -2.43424 -4.64591 0
M  V30 4069 H 383.43 -0.920967 -5.44263 0
M  V30 4070 H 383.907 0.396383 -4.37408 0
M  V30 4071 H 384.513 -1.2472 -4.06602 0
M  V30 4072 N 382.828 1.3818 -0.7579 0
M  V30 4073 C 384.056 2.04301 -0.326937 0
M  V30 4074 C 384.471 1.57163 1.0462 0
M  V30 4075 O 383.828 0.746626 1.66529 0
M  V30 4076 C 383.879 3.59846 -0.345363 0
M  V30 4077 O 383.6 4.05256 -1.66432 0
M  V30 4078 C 385.101 4.4319 0.098927 0
M  V30 4079 H 382.321 0.656443 -0.139012 0
M  V30 4080 H 384.865 1.76786 -1.02796 0
M  V30 4081 H 383.02 3.86182 0.306955 0
M  V30 4082 H 383.434 4.99709 -1.59345 0
M  V30 4083 H 384.908 5.51989 0.0348745 0
M  V30 4084 H 385.385 4.23947 1.14741 0
M  V30 4085 H 385.991 4.22051 -0.52468 0
M  V30 4086 N 384.306 0.507319 1.49211 0
M  V30 4087 C 385.269 -0.256763 2.27757 0
M  V30 4088 C 386.269 -0.888287 1.34038 0
M  V30 4089 O 387.459 -0.751841 1.5714 0
M  V30 4090 C 384.591 -1.36905 3.12202 0
M  V30 4091 H 385.784 0.432557 2.96764 0
M  V30 4092 H 383.337 0.262488 1.5408 0
M  V30 4093 H 384.072 -2.09233 2.47775 0
M  V30 4094 H 383.857 -0.921599 3.81115 0
M  V30 4095 H 385.347 -1.9071 3.7151 0
M  V30 4096 N 385.784 -1.5574 0.241426 0
M  V30 4097 C 387.031 -1.9881 -0.384836 0
M  V30 4098 C 387.359 -1.12947 -1.58346 0
M  V30 4099 O 386.614 -0.178993 -1.9488 0
M  V30 4100 C 386.913 -3.47308 -0.843317 0
M  V30 4101 C 386.579 -4.50223 0.246946 0
M  V30 4102 C 385.241 -4.78088 0.546399 0
M  V30 4103 C 387.593 -5.11841 0.983282 0
M  V30 4104 C 384.921 -5.64846 1.58636 0
M  V30 4105 C 387.273 -5.99727 2.01272 0
M  V30 4106 C 385.937 -6.25927 2.31888 0
M  V30 4107 H 385.207 -0.727496 -0.140821 0
M  V30 4108 H 387.854 -1.8831 0.348106 0
M  V30 4109 H 386.159 -3.55112 -1.65537 0
M  V30 4110 H 387.856 -3.78017 -1.33806 0
M  V30 4111 H 384.446 -4.286 0.00340639 0
M  V30 4112 H 388.63 -4.90366 0.765182 0
M  V30 4113 H 383.886 -5.83403 1.82896 0
M  V30 4114 H 388.06 -6.46517 2.58823 0
M  V30 4115 H 385.687 -6.92949 3.12611 0
M  V30 4116 N 387.262 0.0317525 -1.57568 0
M  V30 4117 C 388.195 1.06621 -2.0176 0
M  V30 4118 C 389.173 1.35323 -0.901462 0
M  V30 4119 O 390.357 1.48025 -1.16708 0
M  V30 4120 C 387.484 2.40155 -2.38837 0
M  V30 4121 C 386.53 2.27327 -3.60867 0
M  V30 4122 S 387.363 1.62925 -5.10113 0
M  V30 4123 C 388.519 2.97955 -5.5043 0
M  V30 4124 H 388.752 0.689781 -2.89187 0
M  V30 4125 H 386.285 0.24164 -1.52497 0
M  V30 4126 H 388.243 3.1695 -2.6087 0
M  V30 4127 H 386.904 2.74946 -1.51867 0
M  V30 4128 H 386.097 3.25898 -3.84456 0
M  V30 4129 H 385.699 1.58675 -3.38671 0
M  V30 4130 H 387.991 3.94285 -5.5095 0
M  V30 4131 H 388.934 2.79102 -6.50775 0
M  V30 4132 H 389.342 3.00404 -4.77931 0
M  V30 4133 N 388.74 1.54641 0.303973 0
M  V30 4134 C 389.986 1.74038 1.04109 0
M  V30 4135 C 390.319 0.523051 1.87024 0
M  V30 4136 O 389.594 -0.479874 1.88487 0
M  V30 4137 C 389.877 3.02761 1.94955 0
M  V30 4138 C 389.73 4.34787 1.1524 0
M  V30 4139 C 391.049 3.27336 2.94175 0
M  V30 4140 H 388.168 0.63323 0.377079 0
M  V30 4141 H 390.81 1.87354 0.316001 0
M  V30 4142 H 388.96 2.9154 2.56782 0
M  V30 4143 H 390.632 4.57922 0.557236 0
M  V30 4144 H 388.875 4.31407 0.455053 0
M  V30 4145 H 389.546 5.21116 1.8205 0
M  V30 4146 H 392.022 3.38148 2.42477 0
M  V30 4147 H 390.898 4.18726 3.54908 0
M  V30 4148 H 391.159 2.45491 3.67677 0
M  V30 4149 N 390.218 -0.567019 1.47046 0
M  V30 4150 C 391.151 -1.69016 1.53326 0
M  V30 4151 C 392.129 -1.57949 0.386126 0
M  V30 4152 O 393.313 -1.78945 0.592529 0
M  V30 4153 C 390.44 -3.07191 1.42658 0
M  V30 4154 C 389.486 -3.36733 2.6175 0
M  V30 4155 S 390.319 -3.27069 4.24012 0
M  V30 4156 C 391.475 -4.67755 4.1588 0
M  V30 4157 H 391.708 -1.63434 2.48348 0
M  V30 4158 H 389.241 -0.747048 1.35124 0
M  V30 4159 H 391.199 -3.86897 1.37191 0
M  V30 4160 H 389.86 -3.10249 0.490369 0
M  V30 4161 H 389.053 -4.37441 2.50323 0
M  V30 4162 H 388.655 -2.64627 2.64289 0
M  V30 4163 H 390.947 -5.58491 3.83529 0
M  V30 4164 H 391.89 -4.84239 5.16641 0
M  V30 4165 H 392.298 -4.45341 3.46889 0
M  V30 4166 N 391.696 -1.35014 -0.812953 0
M  V30 4167 C 392.924 -1.31031 -1.6012 0
M  V30 4168 C 393.339 0.113558 -1.88458 0
M  V30 4169 O 392.696 1.06363 -1.48301 0
M  V30 4170 C 392.747 -2.10872 -2.93624 0
M  V30 4171 O 392.468 -3.47706 -2.66518 0
M  V30 4172 C 393.969 -2.14401 -3.88004 0
M  V30 4173 H 391.189 -0.45037 -0.497401 0
M  V30 4174 H 393.733 -1.77775 -1.01076 0
M  V30 4175 H 391.888 -1.67744 -3.492 0
M  V30 4176 H 392.302 -3.89097 -3.51715 0
M  V30 4177 H 393.776 -2.74669 -4.78812 0
M  V30 4178 H 394.253 -1.14105 -4.24119 0
M  V30 4179 H 394.859 -2.57662 -3.38364 0
M  V30 4180 N 393.175 1.03435 -1.18907 0
M  V30 4181 C 394.452 1.73778 -0.89781 0
M  V30 4182 C 394.832 2.02458 0.597832 0
M  V30 4183 O 394.18 1.67482 1.55441 0
M  V30 4184 C 394.39 3.01845 -1.75187 0
M  V30 4185 C 395.738 3.7546 -1.9828 0
M  V30 4186 O 396.762 3.11759 -1.72293 0
M  V30 4187 O 395.621 4.89966 -2.42065 0
M  V30 4188 H 392.715 0.75651 -0.334098 0
M  V30 4189 H 395.261 1.09444 -1.29693 0
M  V30 4190 H 394.033 2.76836 -2.76545 0
M  V30 4191 H 393.656 3.73919 -1.35167 0
M  V30 4192 N 394.653 0.992116 1.22453 0
M  V30 4193 C 395.586 0.486701 2.22949 0
M  V30 4194 C 396.564 -0.45259 1.56174 0
M  V30 4195 O 397.748 -0.378317 1.84665 0
M  V30 4196 C 394.875 -0.294537 3.37417 0
M  V30 4197 C 393.921 0.590628 4.22391 0
M  V30 4198 S 394.754 2.04546 4.94895 0
M  V30 4199 C 395.91 1.27369 6.12803 0
M  V30 4200 H 396.143 1.33828 2.65475 0
M  V30 4201 H 393.676 0.799023 1.32117 0
M  V30 4202 H 395.634 -0.739241 4.03789 0
M  V30 4203 H 394.295 -1.12139 2.934 0
M  V30 4204 H 393.488 -0.0104375 5.03999 0
M  V30 4205 H 393.09 0.972064 3.61147 0
M  V30 4206 H 395.382 0.540943 6.75337 0
M  V30 4207 H 396.325 2.06502 6.7732 0
M  V30 4208 H 396.733 0.787324 5.58983 0
M  V30 4209 N 396.131 -1.37776 0.765217 0
M  V30 4210 C 397.061 -2.32945 0.160953 0
M  V30 4211 C 398.042 -1.55454 -0.690516 0
M  V30 4212 O 399.227 -1.83721 -0.629318 0
M  V30 4213 C 396.357 -3.39669 -0.724031 0
M  V30 4214 C 395.311 -4.27992 0.0256173 0
M  V30 4215 C 394.637 -5.25673 -0.978383 0
M  V30 4216 C 395.937 -5.08309 1.20082 0
M  V30 4217 H 397.631 -2.83728 0.955969 0
M  V30 4218 H 395.177 -1.36416 0.461149 0
M  V30 4219 H 397.13 -4.05219 -1.15652 0
M  V30 4220 H 395.854 -2.87396 -1.5515 0
M  V30 4221 H 394.513 -3.63964 0.438812 0
M  V30 4222 H 394.161 -4.69682 -1.80022 0
M  V30 4223 H 393.861 -5.85625 -0.481378 0
M  V30 4224 H 395.385 -5.94098 -1.40995 0
M  V30 4225 H 396.799 -5.67034 0.845307 0
M  V30 4226 H 395.196 -5.77554 1.62947 0
M  V30 4227 H 396.266 -4.41365 2.00811 0
M  V30 4228 N 397.609 -0.515225 -1.4894 0
M  V30 4229 C 398.556 0.255567 -2.29381 0
M  V30 4230 C 399.526 0.947387 -1.36432 0
M  V30 4231 O 400.711 0.951288 -1.65394 0
M  V30 4232 C 397.851 1.30551 -3.19453 0
M  V30 4233 C 396.964 0.624029 -4.27469 0
M  V30 4234 C 396.099 1.65563 -5.0474 0
M  V30 4235 C 395.138 0.956802 -6.04576 0
M  V30 4236 N 394.275 1.93326 -6.74959 0
M  V30 4237 H 399.115 -0.436607 -2.94784 0
M  V30 4238 H 396.652 -0.227154 -1.45336 0
M  V30 4239 H 398.61 1.92639 -3.70062 0
M  V30 4240 H 397.24 1.96626 -2.56004 0
M  V30 4241 H 396.292 -0.110459 -3.8024 0
M  V30 4242 H 397.604 0.0746092 -4.98744 0
M  V30 4243 H 396.758 2.35119 -5.59289 0
M  V30 4244 H 395.497 2.23893 -4.3327 0
M  V30 4245 H 394.502 0.247097 -5.49244 0
M  V30 4246 H 395.727 0.379814 -6.78037 0
M  V30 4247 H 393.673 2.50591 -6.06251 0
M  V30 4248 H 393.59 1.43489 -7.42258 0
M  V30 4249 H 394.858 2.62126 -7.34105 0
M  V30 4250 N 399.087 1.5561 -0.249682 0
M  V30 4251 C 400.035 2.22894 0.664906 0
M  V30 4252 C 401.029 1.21743 1.17792 0
M  V30 4253 O 402.235 1.39748 1.13449 0
M  V30 4254 H 398.61 0.715022 0.232912 0
M  V30 4255 H 400.581 2.98307 0.0742998 0
M  V30 4256 C 399.33 2.94424 1.84959 0
M  V30 4257 H 398.653 3.72031 1.46399 0
M  V30 4258 H 400.093 3.44862 2.4667 0
M  V30 4259 C 398.552 1.98454 2.72245 0
M  V30 4260 O 399.082 1.51939 3.71857 0
M  V30 4261 N 397.288 1.65496 2.38871 0
M  V30 4262 H 396.835 2.03517 1.57919 0
M  V30 4263 H 396.793 1.0155 2.97548 0
M  V30 4264 N 400.565 -0.0233959 1.57583 0
M  V30 4265 C 401.976 -0.56927 1.77809 0
M  V30 4266 C 402.327 -1.75284 0.881472 0
M  V30 4267 O 401.452 -2.1626 0.0777805 0
M  V30 4268 C 402.047 -1.03949 3.22459 0
M  V30 4269 C 400.606 -1.53084 3.43864 0
M  V30 4270 C 399.753 -0.471454 2.73263 0
M  V30 4271 H 402.704 0.202825 1.57399 0
M  V30 4272 H 402.725 -1.90661 3.29285 0
M  V30 4273 H 402.237 -0.177865 3.87692 0
M  V30 4274 H 400.338 -2.41414 2.83814 0
M  V30 4275 H 400.451 -1.57443 4.52491 0
M  V30 4276 H 398.815 -0.927788 2.37201 0
M  V30 4277 H 399.598 0.380808 3.41181 0
M  V30 4278 N 402.043 -1.548 -0.295768 0
M  V30 4279 C 403.268 -1.78653 -1.05346 0
M  V30 4280 C 403.693 -0.546894 -1.79974 0
M  V30 4281 O 403.051 0.502763 -1.7419 0
M  V30 4282 C 403.099 -2.99679 -2.00561 0
M  V30 4283 O 402.203 -2.7317 -3.08953 0
M  V30 4284 H 401.544 -0.59116 -0.302367 0
M  V30 4285 H 404.074 -2.01895 -0.331598 0
M  V30 4286 H 404.084 -3.27793 -2.42932 0
M  V30 4287 H 402.759 -3.89562 -1.4565 0
M  V30 4288 H 401.336 -2.56089 -2.71059 0
M  V30 4289 N 403.521 0.559213 -1.47345 0
M  V30 4290 C 404.767 1.31843 -1.54095 0
M  V30 4291 C 405.1 1.93149 -0.201726 0
M  V30 4292 O 404.375 1.77759 0.789428 0
M  V30 4293 C 404.658 2.43006 -2.65744 0
M  V30 4294 C 404.511 1.86581 -4.09277 0
M  V30 4295 C 405.83 3.44943 -2.73318 0
M  V30 4296 H 402.949 0.478012 -0.560957 0
M  V30 4297 H 405.591 0.625977 -1.79392 0
M  V30 4298 H 403.741 3.02072 -2.44305 0
M  V30 4299 H 405.413 1.31792 -4.42073 0
M  V30 4300 H 403.656 1.17268 -4.17649 0
M  V30 4301 H 404.327 2.66933 -4.83168 0
M  V30 4302 H 406.803 2.95793 -2.92653 0
M  V30 4303 H 405.679 4.20153 -3.53218 0
M  V30 4304 H 405.94 4.03665 -1.80296 0
M  V30 4305 N 404.999 1.35443 0.805782 0
M  V30 4306 C 406.224 1.32037 1.59941 0
M  V30 4307 C 406.649 -0.0994215 1.87837 0
M  V30 4308 O 406.007 -1.06648 1.46615 0
M  V30 4309 C 406.055 2.13354 2.90711 0
M  V30 4310 O 405.159 1.5148 3.83572 0
M  V30 4311 H 404.5 0.452666 0.485787 0
M  V30 4312 H 407.03 1.78496 1.00002 0
M  V30 4313 H 407.04 2.25338 3.40128 0
M  V30 4314 H 405.715 3.16572 2.69732 0
M  V30 4315 H 404.292 1.4834 3.42125 0
M  V30 4316 N 406.477 -1.02803 1.19454 0
M  V30 4317 C 407.407 -2.12999 0.956758 0
M  V30 4318 C 408.388 -1.69743 -0.110188 0
M  V30 4319 O 409.573 -1.94148 0.0450038 0
M  V30 4320 C 406.703 -3.43746 0.495553 0
M  V30 4321 C 405.657 -4.00688 1.50443 0
M  V30 4322 C 404.983 -5.27067 0.900275 0
M  V30 4323 C 406.283 -4.35397 2.8849 0
M  V30 4324 H 407.977 -2.33148 1.87836 0
M  V30 4325 H 405.523 -1.12045 0.904539 0
M  V30 4326 H 407.476 -4.2021 0.316493 0
M  V30 4327 H 406.2 -3.23321 -0.461646 0
M  V30 4328 H 404.859 -3.2632 1.67065 0
M  V30 4329 H 404.507 -5.02959 -0.064503 0
M  V30 4330 H 404.207 -5.66127 1.57397 0
M  V30 4331 H 405.731 -6.06196 0.73203 0
M  V30 4332 H 407.145 -5.02795 2.75446 0
M  V30 4333 H 405.542 -4.85541 3.52661 0
M  V30 4334 H 406.612 -3.44662 3.41081 0
M  V30 4335 N 407.956 -0.998596 -1.21925 0
M  V30 4336 C 408.903 -0.553621 -2.24062 0
M  V30 4337 C 409.873 0.416999 -1.6078 0
M  V30 4338 O 411.058 0.320482 -1.88089 0
M  V30 4339 C 408.198 0.119959 -3.44891 0
M  V30 4340 C 407.311 -0.893077 -4.22668 0
M  V30 4341 C 406.446 -0.192424 -5.30851 0
M  V30 4342 C 405.485 -1.19344 -6.00353 0
M  V30 4343 N 404.622 -0.520707 -7.00166 0
M  V30 4344 H 409.462 -1.4293 -2.61486 0
M  V30 4345 H 406.999 -0.715838 -1.28507 0
M  V30 4346 H 408.957 0.527459 -4.13852 0
M  V30 4347 H 407.587 0.959389 -3.08214 0
M  V30 4348 H 406.639 -1.41886 -3.52948 0
M  V30 4349 H 407.951 -1.65512 -4.70539 0
M  V30 4350 H 407.105 0.271515 -6.06092 0
M  V30 4351 H 405.844 0.602075 -4.83969 0
M  V30 4352 H 404.849 -1.66795 -5.23889 0
M  V30 4353 H 406.074 -1.98891 -6.49322 0
M  V30 4354 H 404.02 0.254252 -6.55507 0
M  V30 4355 H 403.937 -1.2211 -7.46073 0
M  V30 4356 H 405.205 -0.0797596 -7.79459 0
M  V30 4357 N 409.434 1.37368 -0.772513 0
M  V30 4358 C 410.711 1.93839 -0.26188 0
M  V30 4359 C 411.091 1.7061 1.24319 0
M  V30 4360 O 410.439 1.05534 2.02669 0
M  V30 4361 C 410.649 3.43154 -0.636102 0
M  V30 4362 C 411.997 4.20249 -0.606324 0
M  V30 4363 O 413.021 3.5152 -0.575538 0
M  V30 4364 O 411.88 5.42809 -0.634086 0
M  V30 4365 H 408.974 0.82478 -0.0605555 0
M  V30 4366 H 411.52 1.4665 -0.853917 0
M  V30 4367 H 410.292 3.53647 -1.6748 0
M  V30 4368 H 409.915 3.97596 -0.0170516 0
M  V30 4369 N 410.912 0.523116 1.48665 0
M  V30 4370 C 412.161 -0.01544 2.01694 0
M  V30 4371 C 412.474 -1.35975 1.40606 0
M  V30 4372 O 413.68 -1.98627 1.85093 0
M  V30 4373 C 412.136 -0.0779303 3.59816 0
M  V30 4374 C 411.744 1.26107 4.29885 0
M  V30 4375 C 413.488 -0.565678 4.20714 0
M  V30 4376 C 411.395 1.15954 5.79921 0
M  V30 4377 H 410.325 -0.00954163 0.75394 0
M  V30 4378 H 412.976 0.665865 1.70993 0
M  V30 4379 H 411.358 -0.824165 3.87329 0
M  V30 4380 H 412.532 2.02233 4.14051 0
M  V30 4381 H 410.847 1.68401 3.80828 0
M  V30 4382 H 413.444 -0.6595 5.30617 0
M  V30 4383 H 413.787 -1.56984 3.85567 0
M  V30 4384 H 414.32 0.12467 3.97605 0
M  V30 4385 H 411.059 2.13864 6.19631 0
M  V30 4386 H 410.579 0.439529 5.98187 0
M  V30 4387 H 412.258 0.847361 6.41427 0
M  V30 4388 N 412.39 -1.55475 0.257931 0
M  V30 4389 C 413.32 -2.24815 -0.630912 0
M  V30 4390 C 414.301 -1.23224 -1.17259 0
M  V30 4391 O 415.486 -1.51904 -1.20991 0
M  V30 4392 C 412.616 -2.95609 -1.82298 0
M  V30 4393 C 411.57 -4.03982 -1.41359 0
M  V30 4394 C 410.896 -4.6226 -2.68738 0
M  V30 4395 C 412.196 -5.19109 -0.57648 0
M  V30 4396 H 413.89 -2.99354 -0.0526878 0
M  V30 4397 H 411.436 -1.4398 -0.023901 0
M  V30 4398 H 413.389 -3.42822 -2.45054 0
M  V30 4399 H 412.113 -2.18577 -2.42676 0
M  V30 4400 H 410.772 -3.57555 -0.809324 0
M  V30 4401 H 410.42 -3.81915 -3.27338 0
M  V30 4402 H 410.12 -5.35424 -2.42065 0
M  V30 4403 H 411.644 -5.12212 -3.32372 0
M  V30 4404 H 413.058 -5.62479 -1.10861 0
M  V30 4405 H 411.455 -5.98729 -0.405351 0
M  V30 4406 H 412.525 -4.83174 0.408776 0
M  V30 4407 N 413.868 0.0150385 -1.57593 0
M  V30 4408 C 415.098 0.713359 -1.93894 0
M  V30 4409 C 415.506 1.68663 -0.857289 0
M  V30 4410 O 414.849 1.82876 0.173788 0
M  V30 4411 C 414.911 1.51348 -3.26089 0
M  V30 4412 C 414.575 0.703451 -4.51554 0
M  V30 4413 C 415.572 -0.00237924 -5.199 0
M  V30 4414 C 413.257 0.653854 -4.98026 0
M  V30 4415 C 415.251 -0.746955 -6.33008 0
M  V30 4416 C 412.938 -0.0944578 -6.11027 0
M  V30 4417 C 413.936 -0.793609 -6.78374 0
M  V30 4418 O 413.624 -1.52974 -7.89211 0
M  V30 4419 H 413.356 0.204637 -0.644282 0
M  V30 4420 H 415.91 -0.0276411 -2.05381 0
M  V30 4421 H 414.14 2.29862 -3.10967 0
M  V30 4422 H 415.829 2.09572 -3.47612 0
M  V30 4423 H 416.595 0.0268803 -4.84993 0
M  V30 4424 H 412.474 1.18756 -4.45441 0
M  V30 4425 H 416.018 -1.2932 -6.85509 0
M  V30 4426 H 411.915 -0.125591 -6.45378 0
M  V30 4427 H 412.683 -1.44488 -8.05646 0
M  V30 4428 N 415.346 1.54954 0.287554 0
M  V30 4429 C 416.762 1.46469 0.633964 0
M  V30 4430 C 416.962 0.666865 1.90145 0
M  V30 4431 O 416.018 0.179906 2.51858 0
M  V30 4432 C 417.331 2.90556 0.774454 0
M  V30 4433 C 418.879 3.00681 0.869462 0
M  V30 4434 C 419.354 4.45993 1.04184 0
M  V30 4435 N 420.845 4.4976 1.10772 0
M  V30 4436 C 421.58 5.59393 1.25964 0
M  V30 4437 N 421.076 6.78923 1.37968 0
M  V30 4438 N 422.869 5.47107 1.28959 0
M  V30 4439 H 415.02 2.05288 -0.545041 0
M  V30 4440 H 417.283 0.930305 -0.182308 0
M  V30 4441 H 416.989 3.51594 -0.086207 0
M  V30 4442 H 416.863 3.38743 1.6593 0
M  V30 4443 H 419.25 2.39749 1.7206 0
M  V30 4444 H 419.331 2.55769 -0.0396831 0
M  V30 4445 H 418.975 5.07524 0.195422 0
M  V30 4446 H 418.905 4.88548 1.96542 0
M  V30 4447 H 421.396 3.63651 1.02794 0
M  V30 4448 H 421.709 7.58231 1.49353 0
M  V30 4449 H 420.054 6.81763 1.34999 0
M  V30 4450 H 423.245 4.52668 1.19202 0
M  V30 4451 H 423.418 6.32595 1.40455 0
M  V30 4452 N 416.824 -0.551391 1.4764 0
M  V30 4453 C 417.756 -1.67333 1.56628 0
M  V30 4454 C 418.769 -1.56398 0.452045 0
M  V30 4455 O 419.958 -1.6325 0.721926 0
M  V30 4456 C 417.058 -3.05841 1.45994 0
M  V30 4457 C 416.231 -3.42472 2.72088 0
M  V30 4458 C 415.29 -4.60168 2.55209 0
M  V30 4459 O 414.316 -4.64458 3.2904 0
M  V30 4460 N 415.518 -5.57024 1.63416 0
M  V30 4461 H 418.283 -1.60066 2.53375 0
M  V30 4462 H 415.844 -0.738169 1.44093 0
M  V30 4463 H 417.836 -3.8242 1.32428 0
M  V30 4464 H 416.406 -3.07302 0.573071 0
M  V30 4465 H 415.626 -2.55284 3.00373 0
M  V30 4466 H 416.914 -3.63723 3.55785 0
M  V30 4467 H 416.312 -5.56319 1.02594 0
M  V30 4468 H 414.869 -6.32906 1.558 0
M  V30 4469 N 418.302 -1.35869 -0.798587 0
M  V30 4470 C 419.252 -1.25982 -1.90033 0
M  V30 4471 C 420.236 -0.153303 -1.60168 0
M  V30 4472 O 421.428 -0.38527 -1.72756 0
M  V30 4473 C 418.557 -1.04211 -3.27101 0
M  V30 4474 C 417.643 -2.19289 -3.63006 0
M  V30 4475 N 418.034 -3.44559 -3.70287 0
M  V30 4476 C 416.332 -2.10852 -3.93011 0
M  V30 4477 C 417.033 -4.20283 -4.02166 0
M  V30 4478 N 416.009 -3.49124 -4.16669 0
M  V30 4479 H 419.811 -2.20883 -1.93876 0
M  V30 4480 H 417.325 -1.28457 -0.993614 0
M  V30 4481 H 419.322 -0.952155 -4.05881 0
M  V30 4482 H 417.982 -0.102013 -3.2454 0
M  V30 4483 H 418.993 -3.7881 -3.53162 0
M  V30 4484 H 415.67 -1.24744 -3.98428 0
M  V30 4485 H 417.06 -5.28575 -4.14799 0
M  V30 4486 N 419.78 1.02168 -1.19998 0
M  V30 4487 C 420.69 2.14069 -0.959774 0
M  V30 4488 C 421.706 1.73804 0.082655 0
M  V30 4489 O 422.882 2.01133 -0.103633 0
M  V30 4490 C 419.947 3.42936 -0.509459 0
M  V30 4491 C 419.008 3.97474 -1.62213 0
M  V30 4492 C 418.241 5.2019 -1.19321 0
M  V30 4493 O 418.464 5.70369 -0.0597726 0
M  V30 4494 O 417.398 5.67749 -1.99863 0
M  V30 4495 H 421.224 2.37199 -1.89658 0
M  V30 4496 H 418.809 1.12469 -0.983411 0
M  V30 4497 H 420.691 4.20551 -0.267322 0
M  V30 4498 H 419.366 3.21234 0.398821 0
M  V30 4499 H 418.273 3.21161 -1.9185 0
M  V30 4500 H 419.606 4.23555 -2.50723 0
M  V30 4501 N 421.258 1.00505 1.21394 0
M  V30 4502 C 422.507 0.683159 1.89778 0
M  V30 4503 C 422.82 -0.789471 1.7896 0
M  V30 4504 O 424.026 -1.22344 2.42372 0
M  V30 4505 C 422.482 1.17146 3.40301 0
M  V30 4506 C 422.09 2.67017 3.5973 0
M  V30 4507 C 423.834 0.924461 4.14311 0
M  V30 4508 C 421.741 3.09387 5.04017 0
M  V30 4509 H 420.671 0.25183 0.710702 0
M  V30 4510 H 423.322 1.21622 1.37406 0
M  V30 4511 H 421.704 0.566451 3.91928 0
M  V30 4512 H 422.878 3.32968 3.18542 0
M  V30 4513 H 421.193 2.89732 2.99073 0
M  V30 4514 H 423.79 1.21658 5.20676 0
M  V30 4515 H 424.133 -0.139286 4.16067 0
M  V30 4516 H 424.666 1.49226 3.6875 0
M  V30 4517 H 421.405 4.14989 5.07409 0
M  V30 4518 H 420.925 2.48149 5.46061 0
M  V30 4519 H 422.604 3.01371 5.72525 0
M  V30 4520 N 422.737 -1.36956 0.779787 0
M  V30 4521 C 423.985 -1.99097 0.347079 0
M  V30 4522 C 424.306 -1.62206 -1.08232 0
M  V30 4523 O 423.576 -0.891373 -1.74446 0
M  V30 4524 H 422.156 -0.736409 0.125342 0
M  V30 4525 H 424.818 -1.67308 0.999696 0
M  V30 4526 H 423.914 -3.09107 0.431162 0
M  V30 4527 N 424.215 -0.530993 -1.48385 0
M  V30 4528 C 425.463 0.00273189 -2.021 0
M  V30 4529 C 425.784 1.34672 -1.41027 0
M  V30 4530 O 425.054 1.8724 -0.576012 0
M  V30 4531 H 423.634 0.00399774 -0.746989 0
M  V30 4532 H 426.296 -0.695054 -1.82085 0
M  V30 4533 H 425.392 0.11031 -3.11905 0
M  V30 4534 N 425.693 1.55336 -0.266172 0
M  V30 4535 C 426.94 1.99397 0.353158 0
M  V30 4536 C 427.268 1.15451 1.56529 0
M  V30 4537 O 426.523 0.209974 1.9457 0
M  V30 4538 C 426.822 3.48606 0.787957 0
M  V30 4539 C 426.488 4.49773 -0.318541 0
M  V30 4540 C 425.15 4.77158 -0.62239 0
M  V30 4541 C 427.502 5.10212 -1.06459 0
M  V30 4542 C 424.83 5.62251 -1.67602 0
M  V30 4543 C 427.182 5.96449 -2.10788 0
M  V30 4544 C 425.846 6.22158 -2.41817 0
M  V30 4545 H 425.116 0.729644 0.12923 0
M  V30 4546 H 427.763 1.87732 -0.37802 0
M  V30 4547 H 426.068 3.57701 1.59866 0
M  V30 4548 H 427.765 3.80098 1.27775 0
M  V30 4549 H 424.355 4.2854 -0.0715925 0
M  V30 4550 H 428.539 4.89086 -0.843098 0
M  V30 4551 H 423.795 5.80419 -1.92155 0
M  V30 4552 H 427.969 6.42317 -2.69076 0
M  V30 4553 H 425.596 6.87888 -3.23596 0
M  V30 4554 N 427.171 -0.0066808 1.57599 0
M  V30 4555 C 428.401 -0.703066 1.94269 0
M  V30 4556 C 428.809 -1.68206 0.866222 0
M  V30 4557 O 428.152 -1.82966 -0.164087 0
M  V30 4558 C 428.214 -1.49616 3.26887 0
M  V30 4559 C 427.878 -0.679494 4.5192 0
M  V30 4560 C 428.875 0.0299508 5.19891 0
M  V30 4561 C 426.56 -0.627433 4.98366 0
M  V30 4562 C 428.554 0.780514 6.32603 0
M  V30 4563 C 426.241 0.126861 6.10968 0
M  V30 4564 C 427.239 0.829574 6.77943 0
M  V30 4565 O 426.927 1.57157 7.88389 0
M  V30 4566 H 426.659 -0.201217 0.645359 0
M  V30 4567 H 429.213 0.0385326 2.05364 0
M  V30 4568 H 427.443 -2.28209 3.12182 0
M  V30 4569 H 429.132 -2.07726 3.48719 0
M  V30 4570 H 429.898 -0.00115963 4.85 0
M  V30 4571 H 425.777 -1.16392 4.46065 0
M  V30 4572 H 429.321 1.32954 6.84813 0
M  V30 4573 H 425.218 0.159815 6.45302 0
M  V30 4574 H 425.986 1.48758 8.04868 0
M  V30 4575 N 428.649 -1.55105 -0.279332 0
M  V30 4576 C 429.879 -1.7917 -1.02867 0
M  V30 4577 C 430.287 -0.56204 -1.80659 0
M  V30 4578 O 429.63 0.478266 -1.77365 0
M  V30 4579 C 429.692 -2.96061 -2.03932 0
M  V30 4580 C 429.356 -4.33341 -1.45137 0
M  V30 4581 C 430.353 -5.12565 -0.870266 0
M  V30 4582 C 428.038 -4.79987 -1.48048 0
M  V30 4583 C 430.032 -6.36565 -0.326097 0
M  V30 4584 C 427.719 -6.03944 -0.932443 0
M  V30 4585 C 428.717 -6.8207 -0.356247 0
M  V30 4586 O 428.405 -8.03691 0.183412 0
M  V30 4587 H 428.137 -0.600796 -0.309872 0
M  V30 4588 H 430.691 -2.02932 -0.317468 0
M  V30 4589 H 428.921 -2.67975 -2.78794 0
M  V30 4590 H 430.61 -3.07506 -2.64943 0
M  V30 4591 H 431.376 -4.77661 -0.840521 0
M  V30 4592 H 427.255 -4.1919 -1.91835 0
M  V30 4593 H 430.799 -6.97489 0.124286 0
M  V30 4594 H 426.696 -6.3833 -0.959407 0
M  V30 4595 H 427.464 -8.18468 0.0721681 0
M  V30 4596 N 430.127 0.543554 -1.4793 0
M  V30 4597 C 431.375 1.29752 -1.54948 0
M  V30 4598 C 431.696 1.93764 -0.219242 0
M  V30 4599 O 430.966 1.80639 0.75805 0
M  V30 4600 H 429.546 0.481874 -0.570795 0
M  V30 4601 H 432.208 0.633636 -1.84312 0
M  V30 4602 H 431.304 2.08392 -2.32334 0
M  V30 4603 N 431.605 1.3629 0.791371 0
M  V30 4604 C 432.515 1.32606 1.93527 0
M  V30 4605 C 433.531 0.228541 1.72493 0
M  V30 4606 O 434.707 0.460571 1.96063 0
M  V30 4607 C 431.772 1.11271 3.28359 0
M  V30 4608 C 430.833 2.3048 3.62185 0
M  V30 4609 C 430.066 2.10154 4.90583 0
M  V30 4610 O 430.289 1.07572 5.60165 0
M  V30 4611 O 429.223 2.97884 5.23019 0
M  V30 4612 H 433.049 2.28909 1.99585 0
M  V30 4613 H 430.634 1.16818 0.931344 0
M  V30 4614 H 432.516 1.01283 4.09047 0
M  V30 4615 H 431.191 0.180292 3.23198 0
M  V30 4616 H 430.098 2.46036 2.81811 0
M  V30 4617 H 431.431 3.22221 3.72068 0
M  V30 4618 N 433.083 -1.0153 1.20538 0
M  V30 4619 C 434.33 -1.75149 1.01633 0
M  V30 4620 C 434.658 -1.89189 -0.451399 0
M  V30 4621 O 433.913 -1.41551 -1.35136 0
M  V30 4622 C 434.212 -3.17213 1.64654 0
M  V30 4623 C 433.878 -3.23146 3.14464 0
M  V30 4624 C 432.54 -3.24472 3.55347 0
M  V30 4625 C 434.892 -3.21207 4.10458 0
M  V30 4626 C 432.22 -3.21532 4.90748 0
M  V30 4627 C 434.572 -3.19808 5.45807 0
M  V30 4628 C 433.236 -3.19439 5.86102 0
M  V30 4629 H 432.506 -0.640914 0.3719 0
M  V30 4630 H 435.153 -1.19071 1.49981 0
M  V30 4631 H 433.458 -3.76457 1.08571 0
M  V30 4632 H 435.155 -3.72871 1.4754 0
M  V30 4633 H 431.745 -3.2285 2.81897 0
M  V30 4634 H 435.929 -3.19351 3.79906 0
M  V30 4635 H 431.185 -3.19578 5.21229 0
M  V30 4636 H 435.359 -3.1726 6.19935 0
M  V30 4637 H 432.986 -3.16915 6.90991 0
M  V30 4638 N 434.561 -1.01147 -1.20859 0
M  V30 4639 C 435.972 -0.730205 -1.71828 0
M  V30 4640 C 436.323 0.751662 -1.8123 0
M  V30 4641 O 435.448 1.58686 -1.47132 0
M  V30 4642 C 436.043 -1.31885 -3.12077 0
M  V30 4643 C 434.602 -1.08656 -3.60376 0
M  V30 4644 C 433.749 -1.42769 -2.37723 0
M  V30 4645 H 436.7 -1.18158 -1.05945 0
M  V30 4646 H 436.721 -0.706793 -3.73878 0
M  V30 4647 H 436.233 -2.39737 -3.05201 0
M  V30 4648 H 434.334 -0.0254814 -3.72591 0
M  V30 4649 H 434.447 -1.76301 -4.45483 0
M  V30 4650 H 432.811 -0.846603 -2.40218 0
M  V30 4651 H 433.594 -2.51666 -2.33493 0
M  V30 4652 N 436.039 1.36541 -0.78704 0
M  V30 4653 C 437.288 1.98552 -0.35494 0
M  V30 4654 C 437.601 1.63171 1.07864 0
M  V30 4655 O 438.807 2.18399 1.61289 0
M  V30 4656 C 437.263 3.55136 -0.583671 0
M  V30 4657 C 436.871 3.99444 -2.02851 0
M  V30 4658 C 438.615 4.2395 -0.215957 0
M  V30 4659 C 436.522 5.48796 -2.20403 0
M  V30 4660 H 435.452 0.742888 -0.128972 0
M  V30 4661 H 438.103 1.5587 -0.968337 0
M  V30 4662 H 436.485 3.95875 0.0994046 0
M  V30 4663 H 437.659 3.6991 -2.74779 0
M  V30 4664 H 435.974 3.43459 -2.35425 0
M  V30 4665 H 438.571 5.33709 -0.325405 0
M  V30 4666 H 438.914 4.07827 0.835646 0
M  V30 4667 H 439.447 3.88565 -0.852175 0
M  V30 4668 H 436.186 5.69864 -3.23937 0
M  V30 4669 H 435.706 5.79964 -1.52977 0
M  V30 4670 H 437.385 6.14986 -2.01002 0
M  V30 4671 N 437.518 0.538854 1.48102 0
M  V30 4672 C 438.465 -0.219042 2.29758 0
M  V30 4673 C 439.435 -0.925562 1.37922 0
M  V30 4674 O 440.62 -0.924855 1.66886 0
M  V30 4675 C 437.76 -1.25452 3.2149 0
M  V30 4676 C 436.873 -0.555943 4.28408 0
M  V30 4677 C 436.008 -1.57512 5.0731 0
M  V30 4678 C 435.047 -0.860498 6.06021 0
M  V30 4679 N 434.184 -1.82564 6.77949 0
M  V30 4680 H 439.024 0.483449 2.94052 0
M  V30 4681 H 436.561 0.250247 1.44956 0
M  V30 4682 H 438.519 -1.86727 3.7308 0
M  V30 4683 H 437.149 -1.92528 2.591 0
M  V30 4684 H 436.201 0.170938 3.80016 0
M  V30 4685 H 437.513 0.00474616 4.988 0
M  V30 4686 H 436.667 -2.26191 5.62959 0
M  V30 4687 H 435.406 -2.16972 4.36778 0
M  V30 4688 H 434.411 -0.159686 5.49568 0
M  V30 4689 H 435.636 -0.271897 6.78555 0
M  V30 4690 H 433.582 -2.40915 6.10161 0
M  V30 4691 H 433.499 -1.31662 7.44447 0
M  V30 4692 H 434.767 -2.50414 7.38182 0
M  V30 4693 N 438.996 -1.55193 0.274407 0
M  V30 4694 C 440.224 -2.03987 -0.345943 0
M  V30 4695 C 440.639 -1.15279 -1.4952 0
M  V30 4696 O 439.996 -0.172759 -1.8168 0
M  V30 4697 C 440.047 -3.51898 -0.827631 0
M  V30 4698 O 439.768 -4.37231 0.275855 0
M  V30 4699 C 441.269 -4.16577 -1.51587 0
M  V30 4700 H 438.489 -0.666335 -0.0789892 0
M  V30 4701 H 441.033 -2.00423 0.406294 0
M  V30 4702 H 439.188 -3.55909 -1.52996 0
M  V30 4703 H 439.602 -5.24415 -0.0943638 0
M  V30 4704 H 441.076 -5.21678 -1.80433 0
M  V30 4705 H 441.553 -3.64707 -2.44716 0
M  V30 4706 H 442.159 -4.16568 -0.857409 0
M  V30 4707 N 440.474 -0.00167713 -1.576 0
M  V30 4708 C 441.421 0.989195 -2.08527 0
M  V30 4709 C 442.391 1.34031 -0.981065 0
M  V30 4710 O 443.576 1.43839 -1.2536 0
M  V30 4711 C 440.716 2.27537 -2.59463 0
M  V30 4712 C 439.829 1.98314 -3.83791 0
M  V30 4713 C 438.964 3.21025 -4.23222 0
M  V30 4714 C 438.003 2.87495 -5.40382 0
M  V30 4715 N 437.14 4.02749 -5.75098 0
M  V30 4716 H 441.98 0.547973 -2.92919 0
M  V30 4717 H 439.517 0.258917 -1.44803 0
M  V30 4718 H 441.475 3.02729 -2.87073 0
M  V30 4719 H 440.105 2.69325 -1.77943 0
M  V30 4720 H 439.157 1.13482 -3.63078 0
M  V30 4721 H 440.469 1.69601 -4.69081 0
M  V30 4722 H 439.623 4.04561 -4.52123 0
M  V30 4723 H 438.362 3.52877 -3.36644 0
M  V30 4724 H 437.367 2.02367 -5.11202 0
M  V30 4725 H 438.592 2.56889 -6.28637 0
M  V30 4726 H 436.538 4.34494 -4.91478 0
M  V30 4727 H 436.455 3.77566 -6.54966 0
M  V30 4728 H 437.723 4.87068 -6.08592 0
M  V30 4729 N 441.952 1.55251 0.271103 0
M  V30 4730 C 443.229 1.66664 1.02384 0
M  V30 4731 C 443.609 0.534363 2.04225 0
M  V30 4732 O 442.957 -0.465337 2.23712 0
M  V30 4733 C 443.167 3.05961 1.67895 0
M  V30 4734 C 444.515 3.63772 2.18986 0
M  V30 4735 O 445.539 3.08606 1.77878 0
M  V30 4736 O 444.398 4.60429 2.94393 0
M  V30 4737 H 441.492 0.676957 0.475035 0
M  V30 4738 H 444.038 1.67589 0.26681 0
M  V30 4739 H 442.81 3.79815 0.941071 0
M  V30 4740 H 442.433 3.08943 2.5028 0
M  V30 4741 N 443.43 -0.535701 1.48216 0
M  V30 4742 C 444.377 -1.64083 1.62312 0
M  V30 4743 C 445.347 -1.59448 0.465365 0
M  V30 4744 O 446.532 -1.77959 0.688135 0
M  V30 4745 C 443.672 -3.0236 1.66349 0
M  V30 4746 C 442.785 -3.17273 2.93193 0
M  V30 4747 C 441.92 -4.46075 2.88427 0
M  V30 4748 C 440.959 -4.54496 4.1 0
M  V30 4749 N 440.096 -5.7468 4.03345 0
M  V30 4750 H 444.936 -1.51374 2.5669 0
M  V30 4751 H 442.473 -0.737059 1.27302 0
M  V30 4752 H 444.431 -3.82461 1.66672 0
M  V30 4753 H 443.061 -3.13854 0.754672 0
M  V30 4754 H 442.113 -2.30462 3.02641 0
M  V30 4755 H 443.425 -3.19357 3.83162 0
M  V30 4756 H 442.579 -5.3446 2.87119 0
M  V30 4757 H 441.318 -4.46504 1.96177 0
M  V30 4758 H 440.323 -3.64519 4.11589 0
M  V30 4759 H 441.548 -4.5581 5.03402 0
M  V30 4760 H 439.494 -5.76017 3.13912 0
M  V30 4761 H 439.411 -5.78234 4.87013 0
M  V30 4762 H 440.679 -6.65367 4.06087 0
M  V30 4763 N 444.908 -1.36708 -0.784132 0
M  V30 4764 C 446.185 -1.21776 -1.53069 0
M  V30 4765 C 446.565 0.193876 -2.10208 0
M  V30 4766 O 445.913 1.20012 -1.94446 0
M  V30 4767 C 446.123 -2.30395 -2.62143 0
M  V30 4768 C 447.471 -2.67325 -3.29882 0
M  V30 4769 O 448.495 -2.29478 -2.7243 0
M  V30 4770 O 447.354 -3.32485 -4.33724 0
M  V30 4771 H 444.448 -0.474459 -0.677361 0
M  V30 4772 H 446.994 -1.48454 -0.82216 0
M  V30 4773 H 445.766 -3.2498 -2.17953 0
M  V30 4774 H 445.389 -2.05112 -3.40609 0
M  V30 4775 N 446.386 1.0089 -1.21074 0
M  V30 4776 C 447.611 1.78727 -1.05221 0
M  V30 4777 C 448.036 1.83932 0.393795 0
M  V30 4778 O 447.394 1.28004 1.28393 0
M  V30 4779 C 447.442 3.20665 -1.64944 0
M  V30 4780 O 446.546 4.02632 -0.892273 0
M  V30 4781 H 445.887 0.550973 -0.370574 0
M  V30 4782 H 448.417 1.26847 -1.60534 0
M  V30 4783 H 448.427 3.71352 -1.69002 0
M  V30 4784 H 447.102 3.16191 -2.70177 0
M  V30 4785 H 445.679 3.61207 -0.926492 0
M  V30 4786 N 447.864 1.01787 1.20321 0
M  V30 4787 C 449.11 0.718699 1.90279 0
M  V30 4788 C 449.465 -0.743669 1.77447 0
M  V30 4789 O 448.758 -1.53345 1.14874 0
M  V30 4790 C 448.952 1.09076 3.40349 0
M  V30 4791 C 448.781 2.58775 3.67784 0
M  V30 4792 C 447.551 3.25578 3.86428 0
M  V30 4793 C 449.749 3.56966 3.70243 0
M  V30 4794 N 447.731 4.64495 4.01395 0
M  V30 4795 C 449.102 4.8145 3.90649 0
M  V30 4796 C 451.157 3.5092 3.53213 0
M  V30 4797 C 449.86 6.00619 3.95789 0
M  V30 4798 C 451.886 4.69493 3.59625 0
M  V30 4799 C 451.248 5.92786 3.80505 0
M  V30 4800 H 447.347 0.31468 0.715891 0
M  V30 4801 H 449.931 1.30295 1.44677 0
M  V30 4802 H 448.102 0.534839 3.847 0
M  V30 4803 H 449.834 0.744997 3.97784 0
M  V30 4804 H 446.589 2.76003 3.84862 0
M  V30 4805 H 447.013 5.36624 4.12752 0
M  V30 4806 H 451.655 2.56593 3.36035 0
M  V30 4807 H 449.373 6.95326 4.11762 0
M  V30 4808 H 452.959 4.66432 3.47754 0
M  V30 4809 H 451.839 6.83003 3.85327 0
M  V30 4810 N 449.342 -1.36122 0.79427 0
M  V30 4811 C 450.289 -2.29982 0.194101 0
M  V30 4812 C 451.259 -1.52214 -0.664833 0
M  V30 4813 O 452.444 -1.80702 -0.612498 0
M  V30 4814 C 449.584 -3.38706 -0.661244 0
M  V30 4815 C 448.697 -4.31456 0.216766 0
M  V30 4816 C 447.832 -5.27265 -0.645411 0
M  V30 4817 C 446.871 -6.11653 0.233756 0
M  V30 4818 N 446.008 -6.99636 -0.587682 0
M  V30 4819 H 450.848 -2.80722 0.999965 0
M  V30 4820 H 448.385 -1.38172 0.504677 0
M  V30 4821 H 450.343 -4.00394 -1.17219 0
M  V30 4822 H 448.973 -2.89274 -1.43249 0
M  V30 4823 H 448.025 -3.7088 0.845724 0
M  V30 4824 H 449.337 -4.90724 0.893973 0
M  V30 4825 H 448.491 -5.94266 -1.22198 0
M  V30 4826 H 447.23 -4.68463 -1.35623 0
M  V30 4827 H 446.235 -5.4361 0.82269 0
M  V30 4828 H 447.46 -6.72531 0.942247 0
M  V30 4829 H 445.406 -6.43337 -1.2827 0
M  V30 4830 H 445.323 -7.55993 0.0317402 0
M  V30 4831 H 446.591 -7.71001 -1.14792 0
M  V30 4832 N 450.82 -0.546701 -1.47814 0
M  V30 4833 C 452.048 -0.0232857 -2.06887 0
M  V30 4834 C 452.463 1.26571 -1.4009 0
M  V30 4835 O 451.82 1.7569 -0.493906 0
M  V30 4836 C 451.871 0.186975 -3.61016 0
M  V30 4837 O 451.592 -1.05097 -4.25307 0
M  V30 4838 C 453.093 0.748872 -4.36929 0
M  V30 4839 H 450.313 -0.0410763 -0.669742 0
M  V30 4840 H 452.857 -0.757117 -1.89968 0
M  V30 4841 H 451.012 0.870903 -3.77484 0
M  V30 4842 H 451.426 -0.842121 -5.17695 0
M  V30 4843 H 452.9 0.845334 -5.45489 0
M  V30 4844 H 453.377 1.75772 -4.02493 0
M  V30 4845 H 453.983 0.100979 -4.2518 0
M  V30 4846 N 452.299 1.55045 -0.282633 0
M  V30 4847 C 453.246 2.22822 0.601566 0
M  V30 4848 C 454.216 1.20431 1.14392 0
M  V30 4849 O 455.401 1.48996 1.19184 0
M  V30 4850 C 452.541 2.95873 1.77632 0
M  V30 4851 C 451.654 4.12999 1.26711 0
M  V30 4852 C 450.789 4.73676 2.40426 0
M  V30 4853 C 449.828 5.82981 1.86545 0
M  V30 4854 N 448.965 6.3769 2.93762 0
M  V30 4855 H 453.805 2.97995 0.0169528 0
M  V30 4856 H 451.342 1.471 -0.00339964 0
M  V30 4857 H 453.3 3.36447 2.46697 0
M  V30 4858 H 451.93 2.2311 2.33285 0
M  V30 4859 H 450.982 3.77494 0.469314 0
M  V30 4860 H 452.294 4.91803 0.832518 0
M  V30 4861 H 451.448 5.17008 3.17471 0
M  V30 4862 H 450.187 3.94164 2.87203 0
M  V30 4863 H 449.192 5.39092 1.07983 0
M  V30 4864 H 450.417 6.64366 1.40694 0
M  V30 4865 H 448.363 5.61069 3.39908 0
M  V30 4866 H 448.28 7.11788 2.54744 0
M  V30 4867 H 449.548 6.8568 3.7076 0
M  V30 4868 N 453.777 0.010035 1.57597 0
M  V30 4869 C 455.007 -0.682422 1.95004 0
M  V30 4870 C 455.415 -1.67278 0.884014 0
M  V30 4871 O 454.758 -1.83129 -0.144672 0
M  V30 4872 C 454.82 -1.46141 3.28456 0
M  V30 4873 C 454.484 -0.631523 4.52615 0
M  V30 4874 C 455.481 0.0850905 5.1983 0
M  V30 4875 C 453.166 -0.574539 4.99003 0
M  V30 4876 C 455.16 0.847566 6.3174 0
M  V30 4877 C 452.847 0.191655 6.10799 0
M  V30 4878 C 453.845 0.901432 6.77025 0
M  V30 4879 O 453.533 1.65511 7.86677 0
M  V30 4880 H 453.265 -0.194361 0.647456 0
M  V30 4881 H 455.819 0.060312 2.05311 0
M  V30 4882 H 454.049 -2.24885 3.14585 0
M  V30 4883 H 455.738 -2.04016 3.50902 0
M  V30 4884 H 456.504 0.0502812 4.84974 0
M  V30 4885 H 452.383 -1.11654 4.47274 0
M  V30 4886 H 455.927 1.4021 6.83364 0
M  V30 4887 H 451.824 0.228249 6.45096 0
M  V30 4888 H 452.592 1.57287 8.03245 0
M  V30 4889 N 455.255 -1.55392 -0.262866 0
M  V30 4890 C 456.485 -1.80251 -1.00961 0
M  V30 4891 C 456.893 -0.58117 -1.80053 0
M  V30 4892 O 456.236 0.459427 -1.77862 0
M  V30 4893 C 456.298 -2.98207 -2.00781 0
M  V30 4894 C 455.962 -4.34856 -1.40533 0
M  V30 4895 C 456.959 -5.13459 -0.815853 0
M  V30 4896 C 454.644 -4.8153 -1.42948 0
M  V30 4897 C 456.638 -6.36875 -0.258562 0
M  V30 4898 C 454.325 -6.04899 -0.868334 0
M  V30 4899 C 455.323 -6.8241 -0.283884 0
M  V30 4900 O 455.011 -8.03451 0.268644 0
M  V30 4901 H 454.743 -0.604049 -0.303482 0
M  V30 4902 H 457.297 -2.03257 -0.295926 0
M  V30 4903 H 455.527 -2.70917 -2.75936 0
M  V30 4904 H 457.216 -3.10299 -2.61667 0
M  V30 4905 H 457.982 -4.78526 -0.789812 0
M  V30 4906 H 453.861 -4.21201 -1.87378 0
M  V30 4907 H 457.405 -6.97318 0.198257 0
M  V30 4908 H 453.302 -6.39312 -0.891649 0
M  V30 4909 H 454.07 -8.18346 0.158974 0
M  V30 4910 N 456.733 0.527833 -1.48498 0
M  V30 4911 C 458.149 0.856571 -1.34666 0
M  V30 4912 C 458.349 1.98271 -0.35931 0
M  V30 4913 O 457.405 2.51551 0.218703 0
M  V30 4914 C 458.718 1.22207 -2.74747 0
M  V30 4915 C 460.266 1.33183 -2.83251 0
M  V30 4916 C 460.741 1.73075 -4.24039 0
M  V30 4917 N 462.232 1.80174 -4.26722 0
M  V30 4918 C 462.967 2.1243 -5.32598 0
M  V30 4919 N 462.463 2.43096 -6.4875 0
M  V30 4920 N 464.256 2.13454 -5.19994 0
M  V30 4921 H 456.407 -0.215174 -2.11307 0
M  V30 4922 H 458.67 -0.0336281 -0.947403 0
M  V30 4923 H 458.376 0.468195 -3.4857 0
M  V30 4924 H 458.25 2.17173 -3.08409 0
M  V30 4925 H 460.637 2.07647 -2.09683 0
M  V30 4926 H 460.718 0.363333 -2.53206 0
M  V30 4927 H 460.362 0.991712 -4.98124 0
M  V30 4928 H 460.292 2.70979 -4.51529 0
M  V30 4929 H 462.783 1.58744 -3.42942 0
M  V30 4930 H 463.096 2.6682 -7.25277 0
M  V30 4931 H 461.441 2.40611 -6.52021 0
M  V30 4932 H 464.632 1.88956 -4.28268 0
M  V30 4933 H 464.805 2.38261 -6.02608 0
M  V30 4934 N 458.211 1.37122 0.776871 0
M  V30 4935 C 459.121 1.34651 1.9211 0
M  V30 4936 C 460.137 0.246824 1.7224 0
M  V30 4937 O 461.313 0.48134 1.95563 0
M  V30 4938 C 458.378 1.14748 3.2716 0
M  V30 4939 C 457.439 2.34308 3.5972 0
M  V30 4940 C 456.672 2.15345 4.88326 0
M  V30 4941 O 456.895 1.13507 5.58992 0
M  V30 4942 O 455.829 3.03414 5.1983 0
M  V30 4943 H 459.655 2.31013 1.97146 0
M  V30 4944 H 457.24 1.17799 0.918901 0
M  V30 4945 H 459.122 1.05616 4.0795 0
M  V30 4946 H 457.797 0.214562 3.22988 0
M  V30 4947 H 456.704 2.49011 2.79185 0
M  V30 4948 H 458.037 3.26149 3.68629 0
M  V30 4949 N 459.689 -1.00246 1.21608 0
M  V30 4950 C 460.636 -2.09073 0.977613 0
M  V30 4951 C 461.606 -1.65815 -0.097297 0
M  V30 4952 O 462.791 -1.90734 0.0503445 0
M  V30 4953 C 459.931 -3.40671 0.551133 0
M  V30 4954 C 459.044 -3.97326 1.69576 0
M  V30 4955 C 458.179 -5.17043 1.2182 0
M  V30 4956 C 457.218 -5.65813 2.335 0
M  V30 4957 N 456.355 -6.76778 1.86859 0
M  V30 4958 H 461.195 -2.28806 1.90924 0
M  V30 4959 H 458.732 -1.12186 0.951452 0
M  V30 4960 H 460.69 -4.16225 0.285097 0
M  V30 4961 H 459.32 -3.20967 -0.343489 0
M  V30 4962 H 458.372 -3.18734 2.07637 0
M  V30 4963 H 459.684 -4.29511 2.53617 0
M  V30 4964 H 458.838 -5.99852 0.908975 0
M  V30 4965 H 457.577 -4.86458 0.347869 0
M  V30 4966 H 456.582 -4.81599 2.65222 0
M  V30 4967 H 457.807 -5.98427 3.21033 0
M  V30 4968 H 455.753 -6.47994 1.02174 0
M  V30 4969 H 455.67 -7.08231 2.64471 0
M  V30 4970 H 456.938 -7.63116 1.58978 0
M  V30 4971 N 461.167 -1.02423 -1.1978 0
M  V30 4972 C 462.416 -0.713265 -1.88667 0
M  V30 4973 C 462.729 0.7609 -1.80193 0
M  V30 4974 O 463.935 1.18473 -2.44288 0
M  V30 4975 C 462.391 -1.22545 -3.38394 0
M  V30 4976 C 461.999 -2.72706 -3.55437 0
M  V30 4977 C 463.743 -0.990257 -4.12788 0
M  V30 4978 C 461.65 -3.17367 -4.99031 0
M  V30 4979 H 460.58 -0.263105 -0.706606 0
M  V30 4980 H 463.231 -1.23792 -1.35454 0
M  V30 4981 H 461.613 -0.628732 -3.90977 0
M  V30 4982 H 462.787 -3.37993 -3.13205 0
M  V30 4983 H 461.102 -2.94453 -2.94425 0
M  V30 4984 H 463.699 -1.29926 -5.18675 0
M  V30 4985 H 464.042 0.0730761 -4.16236 0
M  V30 4986 H 464.575 -1.55074 -3.66329 0
M  V30 4987 H 461.314 -4.23009 -5.00743 0
M  V30 4988 H 460.834 -2.56805 -5.42044 0
M  V30 4989 H 462.513 -3.10441 -5.67658 0
M  V30 4990 N 462.645 1.35699 -0.801477 0
M  V30 4991 C 463.891 1.99208 -0.380022 0
M  V30 4992 C 464.224 1.63445 1.04878 0
M  V30 4993 O 463.499 0.895223 1.72673 0
M  V30 4994 C 463.782 3.55755 -0.557708 0
M  V30 4995 C 463.635 4.01332 -2.03107 0
M  V30 4996 C 464.954 4.40096 0.0197968 0
M  V30 4997 H 462.073 0.723667 -0.139552 0
M  V30 4998 H 464.715 1.60928 -1.01006 0
M  V30 4999 H 462.865 3.88494 -0.0213741 0
M  V30 5000 H 464.537 3.79026 -2.62939 0
M  V30 5001 H 462.78 3.52429 -2.52936 0
M  V30 5002 H 463.451 5.10234 -2.1063 0
M  V30 5003 H 465.927 4.13786 -0.438179 0
M  V30 5004 H 464.803 5.48735 -0.134477 0
M  V30 5005 H 465.064 4.2786 1.11303 0
M  V30 5006 N 464.123 0.554532 1.47522 0
M  V30 5007 C 465.056 -0.242442 2.26908 0
M  V30 5008 C 466.034 -0.922722 1.33883 0
M  V30 5009 O 467.218 -0.942244 1.63261 0
M  V30 5010 C 464.345 -1.34525 3.10839 0
M  V30 5011 C 463.391 -0.773805 4.19422 0
M  V30 5012 S 464.224 0.377525 5.34168 0
M  V30 5013 C 465.38 -0.727164 6.21662 0
M  V30 5014 H 465.613 0.431218 2.94156 0
M  V30 5015 H 463.146 0.3408 1.50592 0
M  V30 5016 H 465.104 -1.97683 3.59766 0
M  V30 5017 H 463.765 -1.99073 2.42958 0
M  V30 5018 H 462.958 -1.60187 4.77866 0
M  V30 5019 H 462.56 -0.218448 3.73361 0
M  V30 5020 H 464.852 -1.61992 6.57849 0
M  V30 5021 H 465.795 -0.180135 7.07871 0
M  V30 5022 H 466.203 -1.01863 5.55233 0
M  V30 5023 N 465.601 -1.54893 0.290851 0
M  V30 5024 C 466.85 -1.99111 -0.322113 0
M  V30 5025 C 467.163 -1.18283 -1.55784 0
M  V30 5026 O 468.369 -1.5272 -2.24475 0
M  V30 5027 C 466.825 -3.54442 -0.624438 0
M  V30 5028 C 466.433 -4.44066 0.592373 0
M  V30 5029 C 468.177 -4.07211 -1.19916 0
M  V30 5030 C 466.084 -5.90812 0.263762 0
M  V30 5031 H 465.014 -0.743712 -0.124133 0
M  V30 5032 H 467.665 -1.79132 0.39797 0
M  V30 5033 H 466.047 -3.70281 -1.40384 0
M  V30 5034 H 467.221 -4.39999 1.36886 0
M  V30 5035 H 465.536 -4.02015 1.08502 0
M  V30 5036 H 468.133 -5.14407 -1.45909 0
M  V30 5037 H 468.476 -3.57196 -2.13815 0
M  V30 5038 H 469.009 -3.94873 -0.481687 0
M  V30 5039 H 465.748 -6.44955 1.17105 0
M  V30 5040 H 465.268 -5.97911 -0.475655 0
M  V30 5041 H 466.947 -6.46852 -0.138354 0
M  V30 5042 N 467.08 -0.0183926 -1.57589 0
M  V30 5043 C 467.99 0.982943 -2.13015 0
M  V30 5044 C 469.006 1.36443 -1.07979 0
M  V30 5045 O 470.182 1.44802 -1.3998 0
M  V30 5046 C 467.247 2.25024 -2.63752 0
M  V30 5047 C 466.308 1.93018 -3.83461 0
M  V30 5048 C 465.541 3.13706 -4.31769 0
M  V30 5049 O 465.764 4.2601 -3.79305 0
M  V30 5050 O 464.698 2.96629 -5.23732 0
M  V30 5051 H 468.524 0.541709 -2.9883 0
M  V30 5052 H 466.109 0.201565 -1.48034 0
M  V30 5053 H 467.991 2.99441 -2.96502 0
M  V30 5054 H 466.666 2.68349 -1.81026 0
M  V30 5055 H 465.573 1.16019 -3.55655 0
M  V30 5056 H 466.906 1.54516 -4.67317 0
M  V30 5057 N 468.558 1.5553 0.254621 0
M  V30 5058 C 469.49 1.86104 1.33783 0
M  V30 5059 C 470.503 0.746752 1.44663 0
M  V30 5060 O 471.692 1.0248 1.46151 0
M  V30 5061 C 468.792 2.02532 2.71724 0
M  V30 5062 C 467.965 3.33335 2.83208 0
M  V30 5063 C 467.024 3.396 4.01943 0
M  V30 5064 O 466.05 4.12862 3.91834 0
M  V30 5065 N 467.252 2.68332 5.1476 0
M  V30 5066 H 470.017 2.79605 1.07893 0
M  V30 5067 H 467.578 1.55672 0.444732 0
M  V30 5068 H 469.57 2.04074 3.4948 0
M  V30 5069 H 468.14 1.15811 2.90356 0
M  V30 5070 H 467.36 3.44176 1.92189 0
M  V30 5071 H 468.648 4.19565 2.87824 0
M  V30 5072 H 468.046 2.08528 5.25864 0
M  V30 5073 H 466.603 2.75575 5.90679 0
M  V30 5074 N 470.036 -0.519951 1.48776 0
M  V30 5075 C 471.283 -1.27522 1.57303 0
M  V30 5076 C 471.611 -1.92869 0.251328 0
M  V30 5077 O 470.866 -1.80372 -0.759243 0
M  V30 5078 C 471.165 -2.37864 2.6675 0
M  V30 5079 C 470.831 -1.90103 4.08867 0
M  V30 5080 C 469.493 -1.76795 4.47546 0
M  V30 5081 C 471.845 -1.54133 4.97888 0
M  V30 5082 C 469.173 -1.25868 5.73039 0
M  V30 5083 C 471.525 -1.04665 6.23881 0
M  V30 5084 C 470.189 -0.899823 6.61407 0
M  V30 5085 H 469.459 -0.466636 0.575614 0
M  V30 5086 H 472.106 -0.579109 1.82534 0
M  V30 5087 H 470.411 -3.13186 2.35418 0
M  V30 5088 H 472.108 -2.95969 2.70561 0
M  V30 5089 H 468.698 -2.01414 3.78326 0
M  V30 5090 H 472.882 -1.6327 4.68675 0
M  V30 5091 H 468.138 -1.13196 6.0083 0
M  V30 5092 H 472.312 -0.759074 6.92251 0
M  V30 5093 H 469.939 -0.503011 7.58534 0
M  V30 5094 N 471.514 -1.37532 -0.769588 0
M  V30 5095 C 472.744 -1.35861 -1.55645 0
M  V30 5096 C 473.152 0.0574398 -1.89113 0
M  V30 5097 O 472.495 1.03021 -1.52093 0
M  V30 5098 C 472.557 -2.13431 -2.89288 0
M  V30 5099 C 472.221 -3.62378 -2.78444 0
M  V30 5100 C 473.218 -4.56215 -2.49326 0
M  V30 5101 C 470.903 -4.05529 -2.96398 0
M  V30 5102 C 472.897 -5.91181 -2.38294 0
M  V30 5103 C 470.584 -5.40579 -2.84987 0
M  V30 5104 C 471.582 -6.33218 -2.55975 0
M  V30 5105 O 471.27 -7.65787 -2.44594 0
M  V30 5106 H 471.002 -0.467001 -0.48876 0
M  V30 5107 H 473.556 -1.81505 -0.961515 0
M  V30 5108 H 471.786 -1.62481 -3.50909 0
M  V30 5109 H 473.475 -2.04368 -3.50697 0
M  V30 5110 H 474.241 -4.24187 -2.35139 0
M  V30 5111 H 470.12 -3.33781 -3.1798 0
M  V30 5112 H 473.664 -6.63457 -2.15571 0
M  V30 5113 H 469.561 -5.72209 -2.98743 0
M  V30 5114 H 470.329 -7.76132 -2.59927 0
M  V30 5115 N 472.992 0.995999 -1.22138 0
M  V30 5116 C 474.408 1.25917 -0.980667 0
M  V30 5117 C 474.608 1.98819 0.327604 0
M  V30 5118 O 473.664 2.29587 1.05101 0
M  V30 5119 C 474.977 2.07399 -2.17729 0
M  V30 5120 C 476.525 2.20594 -2.22052 0
M  V30 5121 C 477 3.05462 -3.41258 0
M  V30 5122 N 478.491 3.13049 -3.41401 0
M  V30 5123 C 479.226 3.78997 -4.30289 0
M  V30 5124 N 478.722 4.46899 -5.2939 0
M  V30 5125 N 480.515 3.75728 -4.18073 0
M  V30 5126 H 472.666 0.507158 -2.06256 0
M  V30 5127 H 474.929 0.28658 -0.903646 0
M  V30 5128 H 474.635 1.61191 -3.12586 0
M  V30 5129 H 474.509 3.08154 -2.17534 0
M  V30 5130 H 476.896 2.66017 -1.27745 0
M  V30 5131 H 476.977 1.1928 -2.26287 0
M  V30 5132 H 476.621 2.60739 -4.35864 0
M  V30 5133 H 476.551 4.06911 -3.34262 0
M  V30 5134 H 479.042 2.64721 -2.69688 0
M  V30 5135 H 479.355 4.94952 -5.935 0
M  V30 5136 H 477.7 4.45657 -5.33306 0
M  V30 5137 H 480.891 3.2184 -3.39907 0
M  V30 5138 H 481.064 4.26845 -4.87553 0
M  V30 5139 N 474.47 1.03057 1.19235 0
M  V30 5140 C 475.7 0.746613 1.92638 0
M  V30 5141 C 476.108 -0.698708 1.75826 0
M  V30 5142 O 475.451 -1.487 1.07861 0
M  V30 5143 C 475.513 1.02024 3.44719 0
M  V30 5144 C 475.177 2.45745 3.85303 0
M  V30 5145 C 476.174 3.43887 3.8992 0
M  V30 5146 C 473.859 2.8019 4.16892 0
M  V30 5147 C 475.853 4.74529 4.2556 0
M  V30 5148 C 473.54 4.1104 4.52205 0
M  V30 5149 C 474.538 5.0802 4.56513 0
M  V30 5150 O 474.226 6.36527 4.91008 0
M  V30 5151 H 473.958 0.272401 0.618687 0
M  V30 5152 H 476.512 1.37853 1.52269 0
M  V30 5153 H 474.742 0.331184 3.85279 0
M  V30 5154 H 476.431 0.725677 3.9936 0
M  V30 5155 H 477.197 3.18614 3.65664 0
M  V30 5156 H 473.076 2.05382 4.12722 0
M  V30 5157 H 476.62 5.50222 4.28838 0
M  V30 5158 H 472.517 4.36086 4.7592 0
M  V30 5159 H 473.285 6.41025 5.08949 0
M  V30 5160 N 475.948 -1.35272 0.808662 0
M  V30 5161 C 477.194 -1.99003 0.390581 0
M  V30 5162 C 477.527 -1.63999 -1.0401 0
M  V30 5163 O 476.802 -0.904368 -1.72196 0
M  V30 5164 C 477.085 -3.55454 0.576566 0
M  V30 5165 C 476.938 -4.00249 2.05233 0
M  V30 5166 C 478.257 -4.401 0.00354277 0
M  V30 5167 H 475.376 -0.722917 0.143388 0
M  V30 5168 H 478.018 -1.6039 1.01858 0
M  V30 5169 H 476.168 -3.88477 0.0419766 0
M  V30 5170 H 477.84 -3.77626 2.64946 0
M  V30 5171 H 476.083 -3.51082 2.54801 0
M  V30 5172 H 476.754 -5.0911 2.13333 0
M  V30 5173 H 479.23 -4.13548 0.460117 0
M  V30 5174 H 478.106 -5.48656 0.163575 0
M  V30 5175 H 478.367 -4.28444 -1.09032 0
M  V30 5176 N 477.426 -0.562348 -1.47226 0
M  V30 5177 C 478.358 0.220011 -2.28142 0
M  V30 5178 C 479.371 0.874596 -1.37312 0
M  V30 5179 O 480.56 0.747583 -1.62091 0
M  V30 5180 C 477.66 1.32953 -3.11732 0
M  V30 5181 C 476.833 0.770759 -4.30556 0
M  V30 5182 C 475.892 1.76541 -4.95701 0
M  V30 5183 O 474.918 1.3095 -5.53932 0
M  V30 5184 N 476.12 3.09896 -4.90861 0
M  V30 5185 H 478.885 -0.474107 -2.95926 0
M  V30 5186 H 476.446 -0.398761 -1.56912 0
M  V30 5187 H 478.438 1.99378 -3.5218 0
M  V30 5188 H 477.008 1.92681 -2.46156 0
M  V30 5189 H 476.228 -0.0704056 -3.94137 0
M  V30 5190 H 477.516 0.376872 -5.07402 0
M  V30 5191 H 476.914 3.49577 -4.44761 0
M  V30 5192 H 475.471 3.71865 -5.35313 0
M  V30 5193 N 478.904 1.54736 -0.299062 0
M  V30 5194 C 479.814 2.27127 0.587413 0
M  V30 5195 C 480.83 1.30575 1.15005 0
M  V30 5196 O 482.006 1.63554 1.17525 0
M  V30 5197 C 479.071 2.99645 1.74395 0
M  V30 5198 C 478.132 4.11731 1.21559 0
M  V30 5199 C 477.365 4.80781 2.317 0
M  V30 5200 O 477.588 4.4918 3.51558 0
M  V30 5201 O 476.522 5.68226 1.98501 0
M  V30 5202 H 480.348 3.037 0.000250109 0
M  V30 5203 H 477.933 1.49256 -0.0655919 0
M  V30 5204 H 479.815 3.45138 2.4178 0
M  V30 5205 H 478.49 2.25969 2.31775 0
M  V30 5206 H 477.397 3.70641 0.507514 0
M  V30 5207 H 478.73 4.87379 0.687233 0
M  V30 5208 N 480.382 0.0267497 1.57577 0
M  V30 5209 C 481.33 -0.973923 2.11229 0
M  V30 5210 C 482.324 -1.33849 1.03831 0
M  V30 5211 O 483.53 -1.321 1.22269 0
M  V30 5212 H 479.905 -0.331844 0.674821 0
M  V30 5213 H 481.876 -0.496092 2.94247 0
M  V30 5214 C 480.625 -2.24798 2.65257 0
M  V30 5215 H 479.948 -1.9762 3.47543 0
M  V30 5216 H 481.388 -2.93031 3.06445 0
M  V30 5217 C 479.847 -2.97611 1.57891 0
M  V30 5218 O 480.377 -3.89629 0.97735 0
M  V30 5219 N 478.583 -2.59905 1.29992 0
M  V30 5220 H 478.13 -1.85154 1.79097 0
M  V30 5221 H 478.088 -3.08932 0.583798 0
M  V30 5222 N 481.861 -1.55662 -0.24637 0
M  V30 5223 C 483.277 -1.48098 -0.594907 0
M  V30 5224 C 483.477 -0.717044 -1.8831 0
M  V30 5225 O 482.533 -0.246618 -2.51293 0
M  V30 5226 C 483.846 -2.92507 -0.697146 0
M  V30 5227 C 485.394 -3.02881 -0.789436 0
M  V30 5228 C 485.869 -4.48598 -0.923232 0
M  V30 5229 N 487.36 -4.52538 -0.988088 0
M  V30 5230 C 488.095 -5.62536 -1.11089 0
M  V30 5231 N 487.591 -6.82342 -1.19919 0
M  V30 5232 N 489.384 -5.50334 -1.14408 0
M  V30 5233 H 481.535 -2.0377 0.599278 0
M  V30 5234 H 483.798 -0.925145 0.20691 0
M  V30 5235 H 483.504 -3.51242 0.179396 0
M  V30 5236 H 483.378 -3.43024 -1.5689 0
M  V30 5237 H 485.765 -2.44226 -1.65643 0
M  V30 5238 H 485.846 -2.55574 0.107482 0
M  V30 5239 H 485.49 -5.07864 -0.0607927 0
M  V30 5240 H 485.42 -4.93587 -1.8352 0
M  V30 5241 H 487.911 -3.66248 -0.931167 0
M  V30 5242 H 488.224 -7.61924 -1.29197 0
M  V30 5243 H 486.569 -6.85102 -1.16876 0
M  V30 5244 H 489.76 -4.5567 -1.07158 0
M  V30 5245 H 489.933 -6.36096 -1.23634 0
M  V30 5246 N 483.339 0.512053 -1.4905 0
M  V30 5247 C 484.302 1.59704 -1.64399 0
M  V30 5248 C 485.302 1.52285 -0.516317 0
M  V30 5249 O 486.492 1.55635 -0.782527 0
M  V30 5250 C 483.624 2.9935 -1.63102 0
M  V30 5251 H 484.817 1.47428 -2.61161 0
M  V30 5252 H 482.37 0.735469 -1.37915 0
M  V30 5253 H 483.105 3.17116 -0.678836 0
M  V30 5254 H 482.89 3.06144 -2.44986 0
M  V30 5255 H 484.38 3.782 -1.77072 0
M  V30 5256 N 484.817 1.37938 0.762283 0
M  V30 5257 C 486.094 1.24196 1.51112 0
M  V30 5258 C 486.474 -0.160409 2.1049 0
M  V30 5259 O 485.822 -1.16904 1.96331 0
M  V30 5260 C 486.032 2.34537 2.58445 0
M  V30 5261 C 487.38 2.7254 3.25588 0
M  V30 5262 O 488.404 2.33783 2.68745 0
M  V30 5263 O 487.263 3.39343 4.28379 0
M  V30 5264 H 484.357 0.485175 0.669727 0
M  V30 5265 H 486.903 1.49743 0.798438 0
M  V30 5266 H 485.675 3.28406 2.12756 0
M  V30 5267 H 485.298 2.10505 3.37303 0
M  V30 5268 N 486.295 -0.989507 1.22664 0
M  V30 5269 C 487.543 -1.72612 1.05117 0
M  V30 5270 C 487.864 -1.90552 -0.414131 0
M  V30 5271 O 487.134 -1.4676 -1.29762 0
M  V30 5272 H 485.714 -0.639555 0.385977 0
M  V30 5273 H 488.376 -1.19158 1.54232 0
M  V30 5274 H 487.472 -2.71926 1.53175 0
M  V30 5275 N 487.773 -1.03688 -1.18687 0
M  V30 5276 C 489.003 -0.756819 -1.92239 0
M  V30 5277 C 489.411 0.689374 -1.76194 0
M  V30 5278 O 488.754 1.48126 -1.08648 0
M  V30 5279 C 488.816 -1.03851 -3.44173 0
M  V30 5280 C 488.48 -2.47785 -3.83994 0
M  V30 5281 C 489.477 -3.4595 -3.88091 0
M  V30 5282 C 487.162 -2.82397 -4.154 0
M  V30 5283 C 489.156 -4.76779 -4.23038 0
M  V30 5284 C 486.843 -4.13433 -4.50018 0
M  V30 5285 C 487.841 -5.10434 -4.53813 0
M  V30 5286 O 487.529 -6.39122 -4.87625 0
M  V30 5287 H 487.261 -0.275678 -0.617234 0
M  V30 5288 H 489.815 -1.38658 -1.51536 0
M  V30 5289 H 488.045 -0.351612 -3.85098 0
M  V30 5290 H 489.734 -0.746846 -3.9897 0
M  V30 5291 H 490.5 -3.20549 -3.63969 0
M  V30 5292 H 486.379 -2.07568 -4.11627 0
M  V30 5293 H 489.923 -5.52488 -4.25914 0
M  V30 5294 H 485.82 -4.38604 -4.736 0
M  V30 5295 H 486.588 -6.43715 -5.05542 0
M  V30 5296 N 489.251 1.34841 -0.815825 0
M  V30 5297 C 490.183 2.28409 -0.190265 0
M  V30 5298 C 491.196 1.50705 0.615771 0
M  V30 5299 O 492.385 1.72822 0.446616 0
M  V30 5300 C 489.485 3.30441 0.752446 0
M  V30 5301 C 488.658 4.37399 -0.00922152 0
M  V30 5302 C 487.717 5.19234 0.853351 0
M  V30 5303 O 486.743 5.68404 0.300919 0
M  V30 5304 N 487.945 5.38248 2.17416 0
M  V30 5305 H 490.71 2.82732 -0.994114 0
M  V30 5306 H 488.271 1.47289 -0.672129 0
M  V30 5307 H 490.263 3.82084 1.33394 0
M  V30 5308 H 488.833 2.76565 1.45707 0
M  V30 5309 H 488.053 3.86567 -0.771979 0
M  V30 5310 H 489.341 5.05992 -0.533807 0
M  V30 5311 H 488.739 4.99961 2.6468 0
M  V30 5312 H 487.296 5.93035 2.70467 0
M  V30 5313 N 490.729 0.570148 1.46925 0
M  V30 5314 C 491.957 0.0561966 2.06824 0
M  V30 5315 C 492.372 -1.24326 1.42086 0
M  V30 5316 O 491.729 -1.74882 0.521794 0
M  V30 5317 C 491.78 -0.129517 3.61268 0
M  V30 5318 O 491.501 1.1185 4.23581 0
M  V30 5319 C 493.002 -0.679266 4.38065 0
M  V30 5320 H 490.222 0.0517261 0.669003 0
M  V30 5321 H 492.766 0.787243 1.8874 0
M  V30 5322 H 490.921 -0.810739 3.78822 0
M  V30 5323 H 491.335 0.924375 5.1629 0
M  V30 5324 H 492.809 -0.758445 5.46765 0
M  V30 5325 H 493.286 -1.69346 4.05239 0
M  V30 5326 H 493.892 -0.0333237 4.25287 0
M  V30 5327 N 492.207 -1.54576 0.307264 0
M  V30 5328 C 493.618 -1.8579 -0.184121 0
M  V30 5329 C 493.969 -1.22914 -1.52927 0
M  V30 5330 O 493.094 -0.529126 -2.09831 0
M  V30 5331 C 493.689 -3.37081 -0.340862 0
M  V30 5332 C 492.248 -3.68304 -0.776465 0
M  V30 5333 C 491.395 -2.77076 0.111503 0
M  V30 5334 H 494.346 -1.49656 0.528078 0
M  V30 5335 H 494.367 -3.61922 -1.17443 0
M  V30 5336 H 493.879 -3.82815 0.638309 0
M  V30 5337 H 491.98 -3.28092 -1.76596 0
M  V30 5338 H 492.093 -4.75434 -0.591512 0
M  V30 5339 H 490.457 -2.51374 -0.410256 0
M  V30 5340 H 491.24 -3.25632 1.08714 0
M  V30 5341 N 493.685 -0.035106 -1.57561 0
M  V30 5342 C 494.931 0.637362 -1.93156 0
M  V30 5343 C 495.286 1.69391 -0.912392 0
M  V30 5344 O 494.579 1.91469 0.070735 0
M  V30 5345 C 494.773 1.29149 -3.3325 0
M  V30 5346 C 494.602 0.29983 -4.48699 0
M  V30 5347 C 493.372 -0.102454 -5.05196 0
M  V30 5348 C 495.57 -0.448297 -5.12342 0
M  V30 5349 N 493.552 -1.08866 -6.0417 0
M  V30 5350 C 494.923 -1.28807 -6.06472 0
M  V30 5351 C 496.978 -0.508351 -4.95298 0
M  V30 5352 C 495.681 -2.18248 -6.85391 0
M  V30 5353 C 497.707 -1.39013 -5.7483 0
M  V30 5354 C 497.069 -2.21766 -6.6858 0
M  V30 5355 H 493.168 0.205358 -0.754554 0
M  V30 5356 H 495.752 -0.103682 -1.94424 0
M  V30 5357 H 493.923 2.00264 -3.3279 0
M  V30 5358 H 495.655 1.92147 -3.56177 0
M  V30 5359 H 492.41 0.273223 -4.72811 0
M  V30 5360 H 492.834 -1.57817 -6.58348 0
M  V30 5361 H 497.476 0.117197 -4.22638 0
M  V30 5362 H 495.194 -2.81855 -7.57353 0
M  V30 5363 H 498.78 -1.44096 -5.63673 0
M  V30 5364 H 497.66 -2.88892 -7.29048 0
M  V30 5365 N 495.163 1.55791 0.238111 0
M  V30 5366 C 496.388 1.8244 0.986432 0
M  V30 5367 C 496.813 0.613314 1.7782 0
M  V30 5368 O 496.171 -0.437767 1.75935 0
M  V30 5369 C 496.219 3.06917 1.893 0
M  V30 5370 O 495.323 2.84449 2.98601 0
M  V30 5371 H 494.664 0.601975 0.280218 0
M  V30 5372 H 497.194 2.02987 0.256437 0
M  V30 5373 H 497.204 3.36583 2.30598 0
M  V30 5374 H 495.879 3.947 1.31091 0
M  V30 5375 H 494.456 2.65972 2.61368 0
M  V30 5376 N 496.642 -0.504142 1.49319 0
M  V30 5377 C 497.888 -1.26033 1.58882 0
M  V30 5378 C 498.221 -1.92268 0.273274 0
M  V30 5379 O 497.496 -1.80567 -0.72291 0
M  V30 5380 C 497.779 -2.32976 2.7458 0
M  V30 5381 C 497.632 -1.71263 4.1592 0
M  V30 5382 C 498.951 -3.34561 2.85932 0
M  V30 5383 H 496.07 -0.456863 0.578312 0
M  V30 5384 H 498.712 -0.558965 1.81592 0
M  V30 5385 H 496.862 -2.92796 2.55348 0
M  V30 5386 H 498.534 -1.15294 4.4666 0
M  V30 5387 H 496.777 -1.01686 4.21714 0
M  V30 5388 H 497.448 -2.48816 4.92742 0
M  V30 5389 H 499.924 -2.84727 3.0343 0
M  V30 5390 H 498.8 -4.06754 3.68568 0
M  V30 5391 H 499.061 -3.96695 1.95154 0
M  V30 5392 N 498.12 -1.38341 -0.754957 0
M  V30 5393 C 499.366 -1.35678 -1.51536 0
M  V30 5394 C 499.721 0.0533985 -1.92326 0
M  V30 5395 O 499.014 1.01573 -1.6246 0
M  V30 5396 C 499.208 -2.2452 -2.78075 0
M  V30 5397 C 499.037 -3.74035 -2.49655 0
M  V30 5398 C 497.807 -4.43066 -2.42942 0
M  V30 5399 C 500.005 -4.665 -2.16523 0
M  V30 5400 N 497.987 -5.78026 -2.06783 0
M  V30 5401 C 499.358 -5.89962 -1.90644 0
M  V30 5402 C 501.413 -4.54718 -2.02821 0
M  V30 5403 C 500.116 -7.0296 -1.52444 0
M  V30 5404 C 502.142 -5.67618 -1.66023 0
M  V30 5405 C 501.504 -6.90141 -1.41015 0
M  V30 5406 H 497.603 -0.551764 -0.554148 0
M  V30 5407 H 500.187 -1.73716 -0.879258 0
M  V30 5408 H 498.358 -1.88673 -3.39496 0
M  V30 5409 H 500.09 -2.12993 -3.44116 0
M  V30 5410 H 496.845 -3.96264 -2.59367 0
M  V30 5411 H 497.269 -6.49394 -1.91353 0
M  V30 5412 H 501.911 -3.60546 -2.20831 0
M  V30 5413 H 499.629 -7.97051 -1.33174 0
M  V30 5414 H 503.215 -5.6048 -1.56055 0
M  V30 5415 H 502.095 -7.76021 -1.12965 0
M  V30 5416 N 499.598 0.982988 -1.23187 0
M  V30 5417 C 500.528 2.09301 -1.03515 0
M  V30 5418 C 501.509 1.70035 0.0471136 0
M  V30 5419 O 502.694 1.93847 -0.117029 0
M  V30 5420 C 499.824 3.4167 -0.622791 0
M  V30 5421 C 498.778 3.94828 -1.65211 0
M  V30 5422 C 498.104 5.23362 -1.09527 0
M  V30 5423 C 499.404 4.2439 -3.04451 0
M  V30 5424 H 501.098 2.26016 -1.96359 0
M  V30 5425 H 498.644 1.08611 -0.945501 0
M  V30 5426 H 500.597 4.18746 -0.472233 0
M  V30 5427 H 499.321 3.24811 0.341329 0
M  V30 5428 H 497.98 3.19895 -1.79061 0
M  V30 5429 H 497.628 5.02852 -0.122211 0
M  V30 5430 H 497.328 5.59895 -1.783 0
M  V30 5431 H 498.852 6.03062 -0.956511 0
M  V30 5432 H 500.266 4.92225 -2.93917 0
M  V30 5433 H 498.663 4.72118 -3.70438 0
M  V30 5434 H 499.733 3.31765 -3.53638 0
M  V30 5435 N 501.076 1.04316 1.18135 0
M  V30 5436 C 502.023 0.636398 2.21853 0
M  V30 5437 C 502.993 -0.357039 1.62217 0
M  V30 5438 O 504.178 -0.250453 1.89149 0
M  V30 5439 C 501.318 0.00812779 3.45099 0
M  V30 5440 C 500.431 1.04933 4.19062 0
M  V30 5441 C 499.566 0.389313 5.29771 0
M  V30 5442 C 498.605 1.41544 5.9551 0
M  V30 5443 N 497.742 0.78021 6.97751 0
M  V30 5444 H 502.582 1.52536 2.56002 0
M  V30 5445 H 500.119 0.76304 1.25762 0
M  V30 5446 H 502.077 -0.373497 4.15525 0
M  V30 5447 H 500.707 -0.844336 3.11562 0
M  V30 5448 H 499.759 1.54888 3.47439 0
M  V30 5449 H 501.071 1.82862 4.64072 0
M  V30 5450 H 500.225 -0.0463805 6.06682 0
M  V30 5451 H 498.964 -0.422038 4.8587 0
M  V30 5452 H 497.969 1.86124 5.17337 0
M  V30 5453 H 499.194 2.22854 6.41493 0
M  V30 5454 H 497.14 -0.0107899 6.55999 0
M  V30 5455 H 497.057 1.49716 7.41027 0
M  V30 5456 H 498.325 0.368996 7.78626 0
M  V30 5457 N 502.554 -1.34406 0.822964 0
M  V30 5458 C 503.779 -2.0304 0.423034 0
M  V30 5459 C 504.204 -1.61568 -0.963196 0
M  V30 5460 O 503.562 -0.800339 -1.62678 0
M  V30 5461 C 503.61 -3.56636 0.53321 0
M  V30 5462 O 502.714 -4.09971 -0.446939 0
M  V30 5463 H 502.055 -0.64075 0.174171 0
M  V30 5464 H 504.585 -1.71653 1.11339 0
M  V30 5465 H 504.595 -4.05945 0.408991 0
M  V30 5466 H 503.27 -3.86168 1.54425 0
M  V30 5467 H 501.847 -3.71835 -0.281601 0
M  V30 5468 N 504.032 -0.577932 -1.46621 0
M  V30 5469 C 504.982 0.178869 -2.27297 0
M  V30 5470 C 505.966 0.866279 -1.35589 0
M  V30 5471 O 507.158 0.761163 -1.59798 0
M  V30 5472 C 504.287 1.19499 -3.2183 0
M  V30 5473 C 503.373 0.50994 -4.21023 0
M  V30 5474 N 503.764 -0.43177 -5.03954 0
M  V30 5475 C 502.062 0.761287 -4.39455 0
M  V30 5476 C 502.763 -0.831693 -5.75724 0
M  V30 5477 N 501.739 -0.181897 -5.43296 0
M  V30 5478 H 505.541 -0.544859 -2.88805 0
M  V30 5479 H 503.055 -0.399373 -1.57413 0
M  V30 5480 H 505.052 1.75131 -3.78332 0
M  V30 5481 H 503.712 1.91959 -2.61881 0
M  V30 5482 H 504.723 -0.807045 -5.11573 0
M  V30 5483 H 501.4 1.47282 -3.90659 0
M  V30 5484 H 502.79 -1.6067 -6.52407 0
M  V30 5485 N 505.51 1.54411 -0.315457 0
M  V30 5486 C 506.921 1.85885 0.174265 0
M  V30 5487 C 507.272 1.23723 1.52273 0
M  V30 5488 O 506.397 0.540246 2.09548 0
M  V30 5489 C 506.992 3.37257 0.322981 0
M  V30 5490 C 505.551 3.68711 0.756922 0
M  V30 5491 C 504.698 2.77013 -0.126195 0
M  V30 5492 H 507.649 1.49374 -0.536007 0
M  V30 5493 H 507.67 3.62539 1.15522 0
M  V30 5494 H 507.182 3.82471 -0.658602 0
M  V30 5495 H 505.283 3.29024 1.74854 0
M  V30 5496 H 505.396 4.75741 0.566291 0
M  V30 5497 H 503.76 2.51588 0.39692 0
M  V30 5498 H 504.543 3.25051 -1.1044 0
M  V30 5499 N 506.988 0.0434614 1.5754 0
M  V30 5500 C 507.951 -0.918696 2.09982 0
M  V30 5501 C 508.951 -1.24488 1.01781 0
M  V30 5502 O 510.141 -1.18284 1.27885 0
M  V30 5503 C 507.273 -2.23093 2.57764 0
M  V30 5504 H 508.466 -0.464229 2.96285 0
M  V30 5505 H 506.019 -0.204818 1.54952 0
M  V30 5506 H 506.754 -2.73137 1.74832 0
M  V30 5507 H 506.539 -2.00724 3.36827 0
M  V30 5508 H 508.029 -2.92028 2.98512 0
M  V30 5509 N 508.466 -1.55915 -0.229846 0
M  V30 5510 C 509.413 -1.91734 -1.28478 0
M  V30 5511 C 510.383 -0.773539 -1.46988 0
M  V30 5512 O 511.568 -1.02871 -1.60693 0
M  V30 5513 C 508.708 -2.23224 -2.63182 0
M  V30 5514 C 507.821 -3.50497 -2.52539 0
M  V30 5515 C 506.956 -3.71474 -3.79711 0
M  V30 5516 C 505.995 -4.92289 -3.63755 0
M  V30 5517 N 505.132 -5.09698 -4.82858 0
M  V30 5518 H 509.972 -2.81692 -0.972308 0
M  V30 5519 H 507.509 -1.39429 -0.468815 0
M  V30 5520 H 509.467 -2.3949 -3.41614 0
M  V30 5521 H 508.097 -1.36451 -2.92542 0
M  V30 5522 H 507.149 -3.4247 -1.65585 0
M  V30 5523 H 508.461 -4.39079 -2.36666 0
M  V30 5524 H 507.615 -3.87791 -4.66586 0
M  V30 5525 H 506.354 -2.81157 -3.985 0
M  V30 5526 H 505.359 -4.7593 -2.75264 0
M  V30 5527 H 506.584 -5.84083 -3.46445 0
M  V30 5528 H 504.53 -4.22322 -5.01976 0
M  V30 5529 H 504.447 -5.92399 -4.69681 0
M  V30 5530 H 505.715 -5.30443 -5.71183 0
M  V30 5531 N 509.944 0.496216 -1.49584 0
M  V30 5532 C 510.907 1.57952 -1.66084 0
M  V30 5533 C 511.907 1.51729 -0.53244 0
M  V30 5534 O 513.097 1.54796 -0.79899 0
M  V30 5535 C 510.229 2.97604 -1.66268 0
M  V30 5536 H 511.422 1.44649 -2.6271 0
M  V30 5537 H 508.975 0.7208 -1.38687 0
M  V30 5538 H 509.71 3.16378 -0.712432 0
M  V30 5539 H 509.495 3.03528 -2.4822 0
M  V30 5540 H 510.985 3.76301 -1.81073 0
M  V30 5541 O 511.461 1.48211 0.641547 0
M  V30 5542 H 512.152 1.44016 1.29535 0
M  V30 END ATOM
M  V30 BEGIN BOND
M  V30 END BOND
M  V30 END CTAB
M  END
$$$$
