drugbank_target|Q7Z2W7 Transient receptor potential cation channel subfamily M member 8 (DB00825; DB01744; DB09061; DB11345; DB11755; DB14009; DB14011)
 OpenBabel12092119493D

  0  0  0     0  0            999 V3000
M  V30 BEGIN CTAB
M  V30 COUNTS 17967 18179 0 0 0
M  V30 BEGIN ATOM
M  V30 1 H -0.908 1.98254 -0.117106 0
M  V30 2 N 0 1.576 0 0
M  V30 3 C 0.933 2.03868 1.02534 0
M  V30 4 C 1.911 0.928543 1.3348 0
M  V30 5 O 3.095 1.19667 1.45644 0
M  V30 6 C 0.222 2.43627 2.35294 0
M  V30 7 C -0.732 3.65373 2.2001 0
M  V30 8 S 0.101 5.13292 1.52614 0
M  V30 9 C 1.257 5.56322 2.86805 0
M  V30 10 H 1.49 2.90518 0.631377 0
M  V30 11 H -0.977 1.52953 0.210867 0
M  V30 12 H 0.981 2.67203 3.11629 0
M  V30 13 H -0.358 1.57376 2.7183 0
M  V30 14 H -1.165 3.90944 3.18086 0
M  V30 15 H -1.563 3.418 1.51819 0
M  V30 16 H 0.729 5.58782 3.83104 0
M  V30 17 H 1.672 6.56266 2.65933 0
M  V30 18 H 2.08 4.83886 2.90714 0
M  V30 19 N 1.4781 -0.272755 1.55222 0
M  V30 20 C 2.7031 -1.02683 1.80197 0
M  V30 21 C 3.1281 -1.79142 0.573551 0
M  V30 22 O 2.4861 -1.74917 -0.476849 0
M  V30 23 C 2.5341 -1.9609 3.02624 0
M  V30 24 O 1.6381 -3.04863 2.77727 0
M  V30 25 H 0.9791 -0.293557 0.595584 0
M  V30 26 H 3.5091 -0.30159 2.02365 0
M  V30 27 H 3.5191 -2.38039 3.31363 0
M  V30 28 H 2.1941 -1.39851 3.91682 0
M  V30 29 H 0.7711 -2.67228 2.60084 0
M  V30 30 N 2.9562 -1.48159 -0.537278 0
M  V30 31 C 4.2032 -1.55804 -1.29349 0
M  V30 32 C 4.5312 -0.228802 -1.9315 0
M  V30 33 O 3.7862 0.780242 -1.79473 0
M  V30 34 C 4.0852 -2.63956 -2.40961 0
M  V30 35 C 3.7512 -4.0662 -1.94861 0
M  V30 36 C 2.4132 -4.45452 -1.82006 0
M  V30 37 C 4.7652 -4.96055 -1.59933 0
M  V30 38 C 2.0932 -5.71531 -1.32547 0
M  V30 39 C 4.4452 -6.22617 -1.11939 0
M  V30 40 C 3.1092 -6.60312 -0.976951 0
M  V30 41 H 2.3792 -0.570129 -0.473322 0
M  V30 42 H 5.0262 -1.81845 -0.600372 0
M  V30 43 H 3.3312 -2.31747 -3.15912 0
M  V30 44 H 5.0282 -2.67089 -2.99107 0
M  V30 45 H 1.6182 -3.75949 -2.05815 0
M  V30 46 H 5.8022 -4.66738 -1.68728 0
M  V30 47 H 1.0582 -5.99468 -1.202 0
M  V30 48 H 5.2322 -6.91318 -0.839811 0
M  V30 49 H 2.8592 -7.57895 -0.591501 0
M  V30 50 N 4.4343 0.785586 -1.36625 0
M  V30 51 C 5.8503 1.08419 -1.17122 0
M  V30 52 C 6.0503 2.015 0.00208491 0
M  V30 53 O 5.1063 2.43551 0.666278 0
M  V30 54 C 6.4193 1.69498 -2.48377 0
M  V30 55 C 7.9673 1.81821 -2.54775 0
M  V30 56 C 8.4423 2.46315 -3.86126 0
M  V30 57 N 9.9333 2.53779 -3.87492 0
M  V30 58 C 10.6683 3.045 -4.85868 0
M  V30 59 N 10.1643 3.55499 -5.94637 0
M  V30 60 N 11.9573 3.03247 -4.73284 0
M  V30 61 H 4.1083 0.167264 -2.1174 0
M  V30 62 H 6.3713 0.13682 -0.938075 0
M  V30 63 H 6.0773 1.08571 -3.34522 0
M  V30 64 H 5.9513 2.6896 -2.64462 0
M  V30 65 H 8.3383 2.41884 -1.69045 0
M  V30 66 H 8.4193 0.811532 -2.42586 0
M  V30 67 H 8.0633 1.86895 -4.72263 0
M  V30 68 H 7.9933 3.47561 -3.95612 0
M  V30 69 H 10.4843 2.17672 -3.08913 0
M  V30 70 H 10.7973 3.92562 -6.65669 0
M  V30 71 H 9.1423 3.5364 -5.98301 0
M  V30 72 H 12.3333 2.62696 -3.87438 0
M  V30 73 H 12.5063 3.42467 -5.50109 0
M  V30 74 N 5.9124 1.20967 1.01018 0
M  V30 75 C 6.8754 0.965918 2.07853 0
M  V30 76 C 7.8754 -0.0610545 1.60684 0
M  V30 77 O 9.0654 0.175681 1.73312 0
M  V30 78 C 6.1974 0.455513 3.37843 0
M  V30 79 H 7.3904 1.91365 2.3091 0
M  V30 80 H 4.9434 1.02594 1.17916 0
M  V30 81 H 5.6784 -0.497381 3.20463 0
M  V30 82 H 5.4634 1.19622 3.73407 0
M  V30 83 H 6.9534 0.304667 4.16487 0
M  V30 84 N 7.3905 -1.2043 1.01659 0
M  V30 85 C 8.3535 -2.21433 0.591616 0
M  V30 86 C 9.3535 -1.57203 -0.338226 0
M  V30 87 O 10.5435 -1.73737 -0.126918 0
M  V30 88 C 7.6755 -3.40628 -0.136058 0
M  V30 89 H 8.8685 -2.60545 1.48514 0
M  V30 90 H 6.4215 -1.33893 0.806379 0
M  V30 91 H 7.1565 -3.07019 -1.04449 0
M  V30 92 H 6.9415 -3.88475 0.531917 0
M  V30 93 H 8.4315 -4.15475 -0.420735 0
M  V30 94 N 8.8686 -0.792821 -1.36206 0
M  V30 95 C 10.2846 -0.474903 -1.52371 0
M  V30 96 C 10.4846 1.00622 -1.74578 0
M  V30 97 O 9.5406 1.79162 -1.77924 0
M  V30 98 C 10.8536 -1.3083 -2.70747 0
M  V30 99 C 12.4016 -1.30234 -2.84619 0
M  V30 100 C 12.8766 -2.11956 -4.06004 0
M  V30 101 N 14.3676 -2.09419 -4.13156 0
M  V30 102 C 15.1026 -2.69419 -5.06163 0
M  V30 103 N 14.5986 -3.3829 -6.04592 0
M  V30 104 N 16.3916 -2.59134 -4.98804 0
M  V30 105 H 8.5426 -1.75222 -1.20046 0
M  V30 106 H 10.8056 -0.745024 -0.586211 0
M  V30 107 H 10.5116 -2.35881 -2.6087 0
M  V30 108 H 10.3856 -0.95196 -3.6499 0
M  V30 109 H 12.7726 -0.259748 -2.93955 0
M  V30 110 H 12.8536 -1.69847 -1.91274 0
M  V30 111 H 12.4976 -3.16248 -3.97429 0
M  V30 112 H 12.4276 -1.69711 -4.98503 0
M  V30 113 H 14.9186 -1.59297 -3.42685 0
M  V30 114 H 15.2316 -3.81394 -6.7213 0
M  V30 115 H 13.5766 -3.42393 -6.04807 0
M  V30 116 H 16.7676 -2.04927 -4.20859 0
M  V30 117 H 16.9406 -3.06185 -5.711 0
M  V30 118 N 10.3467 1.47872 -0.545128 0
M  V30 119 C 11.2767 2.32661 0.197793 0
M  V30 120 C 12.2577 1.43041 0.920504 0
M  V30 121 O 13.4427 1.71912 0.90333 0
M  V30 122 C 10.5727 3.24569 1.23582 0
M  V30 123 C 9.5267 4.23333 0.630323 0
M  V30 124 C 8.8527 5.0448 1.77211 0
M  V30 125 C 10.1527 5.20704 -0.407974 0
M  V30 126 H 11.8467 2.95024 -0.510045 0
M  V30 127 H 9.3927 1.4187 -0.246731 0
M  V30 128 H 11.3457 3.8272 1.76362 0
M  V30 129 H 10.0697 2.60236 1.97344 0
M  V30 130 H 8.7287 3.6639 0.123922 0
M  V30 131 H 8.3767 4.36561 2.49847 0
M  V30 132 H 8.0767 5.71339 1.37281 0
M  V30 133 H 9.6007 5.65487 2.3034 0
M  V30 134 H 11.0147 5.7329 0.033305 0
M  V30 135 H 9.4117 5.95699 -0.725486 0
M  V30 136 H 10.4817 4.66917 -1.30828 0
M  V30 137 N 11.8248 0.280983 1.55075 0
M  V30 138 C 13.0498 -0.340154 2.04592 0
M  V30 139 C 13.4748 -1.48246 1.15779 0
M  V30 140 O 12.8328 -1.80614 0.15761 0
M  V30 141 C 12.8808 -0.793104 3.5177 0
M  V30 142 O 11.9848 -1.89981 3.66034 0
M  V30 143 H 11.3258 -0.0694289 0.66036 0
M  V30 144 H 13.8558 0.416993 2.00306 0
M  V30 145 H 13.8658 -1.08729 3.93245 0
M  V30 146 H 12.5408 0.0426163 4.15878 0
M  V30 147 H 11.1178 -1.60771 3.36463 0
M  V30 148 N 13.3029 -1.57598 0.00835791 0
M  V30 149 C 14.2359 -2.04409 -1.01451 0
M  V30 150 C 15.2139 -0.935609 -1.32985 0
M  V30 151 O 16.3979 -1.20437 -1.45007 0
M  V30 152 C 13.5249 -2.44872 -2.33999 0
M  V30 153 C 12.5709 -3.66535 -2.18069 0
M  V30 154 S 13.4039 -5.14095 -1.4989 0
M  V30 155 C 14.5599 -5.57835 -2.8385 0
M  V30 156 H 14.7929 -2.90849 -0.615961 0
M  V30 157 H 12.3259 -1.53063 -0.202752 0
M  V30 158 H 14.2839 -2.68852 -3.10208 0
M  V30 159 H 12.9449 -1.58815 -2.70992 0
M  V30 160 H 12.1379 -3.92626 -3.16008 0
M  V30 161 H 11.7399 -3.426 -1.50004 0
M  V30 162 H 14.0319 -5.60806 -3.80136 0
M  V30 163 H 14.9749 -6.57667 -2.62449 0
M  V30 164 H 15.3829 -4.85421 -2.88144 0
M  V30 165 N 14.781 0.264519 -1.55364 0
M  V30 166 C 16.197 0.61215 -1.47394 0
M  V30 167 C 16.397 1.89134 -0.695018 0
M  V30 168 O 15.453 2.51563 -0.217275 0
M  V30 169 C 16.766 0.731235 -2.91674 0
M  V30 170 C 18.314 0.82473 -3.01939 0
M  V30 171 C 18.789 0.975522 -4.4749 0
M  V30 172 N 20.28 1.04083 -4.51354 0
M  V30 173 C 21.015 1.17646 -5.61201 0
M  V30 174 N 20.511 1.27874 -6.80896 0
M  V30 175 N 22.304 1.20823 -5.48961 0
M  V30 176 H 14.455 -0.575456 -2.04456 0
M  V30 177 H 16.718 -0.196099 -0.927496 0
M  V30 178 H 16.424 -0.138392 -3.51428 0
M  V30 179 H 16.298 1.60883 -3.41169 0
M  V30 180 H 18.685 1.68482 -2.42276 0
M  V30 181 H 18.766 -0.0776479 -2.55682 0
M  V30 182 H 18.41 0.120058 -5.07758 0
M  V30 183 H 18.34 1.89268 -4.91412 0
M  V30 184 H 20.831 0.973846 -3.65136 0
M  V30 185 H 21.144 1.38081 -7.60364 0
M  V30 186 H 19.489 1.24863 -6.83692 0
M  V30 187 H 22.68 1.12469 -4.54388 0
M  V30 188 H 22.853 1.31049 -6.3461 0
M  V30 189 N 16.2591 1.48442 0.529413 0
M  V30 190 C 17.2071 1.63452 1.65487 0
M  V30 191 C 18.2011 0.500955 1.61823 0
M  V30 192 O 19.4071 0.679695 1.66674 0
M  V30 193 H 15.7821 0.514905 0.548066 0
M  V30 194 H 17.7531 2.57975 1.49971 0
M  V30 195 C 16.5021 1.69196 3.03756 0
M  V30 196 H 15.8251 2.55784 3.07269 0
M  V30 197 H 17.2651 1.83743 3.82119 0
M  V30 198 C 15.7241 0.430765 3.34135 0
M  V30 199 O 16.2541 -0.4561 3.99102 0
M  V30 200 N 14.4601 0.302293 2.89023 0
M  V30 201 H 14.0071 1.02496 2.36331 0
M  V30 202 H 13.9651 -0.540546 3.09718 0
M  V30 203 N 17.7372 -0.778329 1.37039 0
M  V30 204 C 19.1532 -1.07796 1.17695 0
M  V30 205 C 19.3532 -2.01498 0.00860115 0
M  V30 206 O 18.4092 -2.43901 -0.653352 0
M  V30 207 C 19.7222 -1.68178 2.49272 0
M  V30 208 C 21.2702 -1.80467 2.55735 0
M  V30 209 C 21.7452 -2.44263 3.87427 0
M  V30 210 N 23.2362 -2.51721 3.88833 0
M  V30 211 C 23.9712 -3.01919 4.87476 0
M  V30 212 N 23.4672 -3.5234 5.96513 0
M  V30 213 N 25.2602 -3.00733 4.74885 0
M  V30 214 H 17.4112 -0.156032 2.11826 0
M  V30 215 H 19.6742 -0.131844 0.938787 0
M  V30 216 H 19.3802 -1.06796 3.35093 0
M  V30 217 H 19.2542 -2.67554 2.65885 0
M  V30 218 H 21.6412 -2.40984 1.70325 0
M  V30 219 H 21.7222 -0.798656 2.43013 0
M  V30 220 H 21.3662 -1.84388 4.73248 0
M  V30 221 H 21.2962 -3.45458 3.9745 0
M  V30 222 H 23.7872 -2.1603 3.10063 0
M  V30 223 H 24.1002 -3.89027 6.67741 0
M  V30 224 H 22.4452 -3.50462 6.00168 0
M  V30 225 H 25.6362 -2.60638 3.88826 0
M  V30 226 H 25.8092 -3.39545 5.51918 0
M  V30 227 N 19.2153 -1.21501 -1.00376 0
M  V30 228 C 20.6313 -0.972629 -1.26539 0
M  V30 229 C 20.8313 0.340257 -1.98606 0
M  V30 230 O 19.8873 1.06561 -2.28913 0
M  V30 231 C 21.2003 -2.16404 -2.08781 0
M  V30 232 C 22.7483 -2.20643 -2.22004 0
M  V30 233 C 23.2233 -3.39306 -3.07629 0
M  V30 234 N 24.7143 -3.39401 -3.15217 0
M  V30 235 C 25.4493 -4.27867 -3.81729 0
M  V30 236 N 24.9453 -5.26533 -4.5026 0
M  V30 237 N 26.7383 -4.15672 -3.78382 0
M  V30 238 H 18.8893 -2.05929 -0.520281 0
M  V30 239 H 21.1523 -0.901803 -0.292328 0
M  V30 240 H 20.8583 -3.11554 -1.63178 0
M  V30 241 H 20.7323 -2.15567 -3.09533 0
M  V30 242 H 23.1193 -1.26048 -2.66825 0
M  V30 243 H 23.2003 -2.25523 -1.20718 0
M  V30 244 H 22.8443 -4.34195 -2.63509 0
M  V30 245 H 22.7743 -3.31665 -4.09031 0
M  V30 246 H 25.2653 -2.67997 -2.66432 0
M  V30 247 H 25.5783 -5.90337 -4.98721 0
M  V30 248 H 23.9233 -5.30457 -4.49044 0
M  V30 249 H 27.1143 -3.3785 -3.23998 0
M  V30 250 H 27.2873 -4.84825 -4.2994 0
M  V30 251 N 20.6934 1.19889 -1.02296 0
M  V30 252 C 21.6414 2.24938 -0.592081 0
M  V30 253 C 22.6354 1.65257 0.372357 0
M  V30 254 O 23.8414 1.78371 0.241583 0
M  V30 255 H 20.2164 0.731787 -0.173182 0
M  V30 256 H 22.1874 2.58603 -1.48885 0
M  V30 257 C 20.9364 3.47668 0.047351 0
M  V30 258 H 20.2594 3.93875 -0.685772 0
M  V30 259 H 21.6994 4.22852 0.311862 0
M  V30 260 C 20.1584 3.11136 1.29212 0
M  V30 261 O 20.6884 3.2325 2.38479 0
M  V30 262 N 18.8944 2.65625 1.17863 0
M  V30 263 H 18.4414 2.55968 0.289493 0
M  V30 264 H 18.3994 2.41553 2.01245 0
M  V30 265 N 22.1715 0.800033 1.35784 0
M  V30 266 C 23.4485 0.30088 1.93272 0
M  V30 267 C 23.8285 -1.20857 1.73081 0
M  V30 268 O 23.1765 -2.00502 1.09596 0
M  V30 269 C 23.3865 0.70511 3.41803 0
M  V30 270 C 24.7345 0.690871 4.18942 0
M  V30 271 O 25.7585 0.646244 3.50289 0
M  V30 272 O 24.6175 0.74332 5.41421 0
M  V30 273 H 21.7115 0.0771605 0.823393 0
M  V30 274 H 24.2575 0.88329 1.449 0
M  V30 275 H 23.0295 1.74571 3.50201 0
M  V30 276 H 22.6525 0.0971541 3.97481 0
M  V30 277 N 23.6496 -1.47581 0.552962 0
M  V30 278 C 24.8776 -2.06875 0.0320556 0
M  V30 279 C 25.2926 -1.40625 -1.25976 0
M  V30 280 O 24.6496 -0.501349 -1.75479 0
M  V30 281 C 24.7006 -3.61092 -0.17167 0
M  V30 282 O 24.4216 -4.24858 1.06899 0
M  V30 283 C 25.9226 -4.37242 -0.730344 0
M  V30 284 H 23.1426 -0.669561 0.043915 0
M  V30 285 H 25.6866 -1.89646 0.765163 0
M  V30 286 H 23.8416 -3.7785 -0.854894 0
M  V30 287 H 24.2556 -5.17334 0.864059 0
M  V30 288 H 25.7296 -5.45842 -0.822203 0
M  V30 289 H 26.2066 -4.03235 -1.74064 0
M  V30 290 H 26.8126 -4.25219 -0.0829543 0
M  V30 291 N 25.1277 -0.289203 -1.54924 0
M  V30 292 C 26.0577 0.58549 -2.2604 0
M  V30 293 C 27.0387 1.14753 -1.25562 0
M  V30 294 O 28.2237 1.17906 -1.54311 0
M  V30 295 C 25.3537 1.76305 -2.99222 0
M  V30 296 C 24.3077 1.33191 -4.06748 0
M  V30 297 C 23.6337 2.5937 -4.6758 0
M  V30 298 C 24.9337 0.471775 -5.20165 0
M  V30 299 H 26.6277 -0.00763532 -2.99399 0
M  V30 300 H 24.1737 -0.00511229 -1.43999 0
M  V30 301 H 26.1267 2.38097 -3.47689 0
M  V30 302 H 24.8507 2.38223 -2.23422 0
M  V30 303 H 23.5097 0.737121 -3.59113 0
M  V30 304 H 23.1577 3.19576 -3.88433 0
M  V30 305 H 22.8577 2.31228 -5.40192 0
M  V30 306 H 24.3817 3.21985 -5.18804 0
M  V30 307 H 25.7957 0.995056 -5.64599 0
M  V30 308 H 24.1927 0.284639 -5.99425 0
M  V30 309 H 25.2627 -0.506041 -4.82252 0
M  V30 310 N 26.6058 1.57591 -0.0167156 0
M  V30 311 C 27.8828 1.82547 0.702564 0
M  V30 312 C 28.2628 0.898018 1.91047 0
M  V30 313 O 27.6108 -0.0493456 2.28447 0
M  V30 314 C 27.8208 3.31459 1.09251 0
M  V30 315 C 29.1688 3.97622 1.48937 0
M  V30 316 O 30.1928 3.35881 1.18584 0
M  V30 317 O 29.0518 5.06415 2.05442 0
M  V30 318 H 26.1458 0.752268 0.343544 0
M  V30 319 H 28.6918 1.69644 -0.0434495 0
M  V30 320 H 27.4638 3.9061 0.23227 0
M  V30 321 H 27.0868 3.49422 1.89709 0
M  V30 322 N 28.0839 -0.256276 1.55502 0
M  V30 323 C 29.3089 -1.00766 1.81276 0
M  V30 324 C 29.7339 -1.78524 0.59252 0
M  V30 325 O 29.0919 -1.75413 -0.45827 0
M  V30 326 C 29.1399 -1.92869 3.04687 0
M  V30 327 O 28.2439 -3.019 2.80945 0
M  V30 328 H 27.5849 -0.287224 0.598664 0
M  V30 329 H 30.1149 -0.280109 2.02674 0
M  V30 330 H 30.1249 -2.34511 3.33869 0
M  V30 331 H 28.7999 -1.35689 3.93143 0
M  V30 332 H 27.3769 -2.64454 2.62904 0
M  V30 333 N 29.562 -1.4872 -0.521534 0
M  V30 334 C 30.79 -1.60843 -1.30142 0
M  V30 335 C 31.205 -0.271897 -1.86832 0
M  V30 336 O 30.562 0.739969 -1.66825 0
M  V30 337 C 30.613 -2.66155 -2.4463 0
M  V30 338 O 30.334 -3.94623 -1.90275 0
M  V30 339 C 31.835 -2.88795 -3.36322 0
M  V30 340 H 29.055 -0.542075 -0.395468 0
M  V30 341 H 31.599 -1.94609 -0.628285 0
M  V30 342 H 29.754 -2.35224 -3.07812 0
M  V30 343 H 30.168 -4.52468 -2.65279 0
M  V30 344 H 31.642 -3.66264 -4.12983 0
M  V30 345 H 32.119 -1.97934 -3.9207 0
M  V30 346 H 32.725 -3.21063 -2.78924 0
M  V30 347 N 31.0401 0.771051 -1.3745 0
M  V30 348 C 32.4561 1.07171 -1.18265 0
M  V30 349 C 32.6561 2.01491 -0.019287 0
M  V30 350 O 31.7121 2.44244 0.640408 0
M  V30 351 C 33.0251 1.66854 -2.50161 0
M  V30 352 C 34.5731 1.79109 -2.56689 0
M  V30 353 C 35.0481 2.42205 -3.88717 0
M  V30 354 N 36.5391 2.49655 -3.90162 0
M  V30 355 C 37.2741 2.9933 -4.8907 0
M  V30 356 N 36.7701 3.49172 -5.98374 0
M  V30 357 N 38.5631 2.9821 -4.76474 0
M  V30 358 H 30.7141 0.144796 -2.11906 0
M  V30 359 H 32.9771 0.126863 -0.939473 0
M  V30 360 H 32.6831 1.05017 -3.35655 0
M  V30 361 H 32.5571 2.6614 -2.673 0
M  V30 362 H 34.9441 2.40077 -1.71601 0
M  V30 363 H 35.0251 0.785757 -2.43433 0
M  V30 364 H 34.6691 1.81875 -4.74219 0
M  V30 365 H 34.5991 3.43345 -3.99276 0
M  V30 366 H 37.0901 2.14383 -3.11205 0
M  V30 367 H 37.4031 3.8548 -6.69795 0
M  V30 368 H 35.7481 3.47275 -6.02018 0
M  V30 369 H 38.9391 2.58572 -3.90203 0
M  V30 370 H 39.1121 3.36613 -5.53711 0
M  V30 371 N 32.5182 1.22032 0.997298 0
M  V30 372 C 33.7462 1.06841 1.7718 0
M  V30 373 C 34.1612 -0.381325 1.84909 0
M  V30 374 O 33.5182 -1.26437 1.31605 0
M  V30 375 C 33.5692 1.66814 3.20711 0
M  V30 376 O 33.2902 3.06116 3.13408 0
M  V30 377 C 34.7912 1.56838 4.14628 0
M  V30 378 H 32.0112 0.374782 0.556578 0
M  V30 379 H 34.5552 1.61532 1.2541 0
M  V30 380 H 32.7102 1.16196 3.69564 0
M  V30 381 H 33.1242 3.34926 4.0364 0
M  V30 382 H 34.5982 2.03532 5.13107 0
M  V30 383 H 35.0752 0.524155 4.36061 0
M  V30 384 H 35.6812 2.06741 3.7167 0
M  V30 385 N 33.9963 -1.19345 1.0293 0
M  V30 386 C 34.9263 -2.2481 0.631105 0
M  V30 387 C 35.9073 -1.66245 -0.360104 0
M  V30 388 O 37.0923 -1.92677 -0.242726 0
M  V30 389 C 34.2223 -3.47295 -0.0184607 0
M  V30 390 C 33.1763 -4.18536 0.895073 0
M  V30 391 C 32.5023 -5.34586 0.110592 0
M  V30 392 C 33.8023 -4.73287 2.209 0
M  V30 393 H 35.4963 -2.58372 1.51275 0
M  V30 394 H 33.0423 -1.24194 0.728818 0
M  V30 395 H 34.9953 -4.20268 -0.308675 0
M  V30 396 H 33.7193 -3.12933 -0.934907 0
M  V30 397 H 32.3783 -3.47446 1.16949 0
M  V30 398 H 32.0263 -4.96469 -0.807902 0
M  V30 399 H 31.7263 -5.83183 0.719087 0
M  V30 400 H 33.2503 -6.10355 -0.172871 0
M  V30 401 H 34.6643 -5.38013 1.98028 0
M  V30 402 H 33.0613 -5.32373 2.76946 0
M  V30 403 H 34.1313 -3.91331 2.86336 0
M  V30 404 N 35.4744 -0.807222 -1.35358 0
M  V30 405 C 36.7044 -0.399796 -2.02695 0
M  V30 406 C 37.1124 0.994176 -1.60974 0
M  V30 407 O 36.4554 1.65209 -0.803226 0
M  V30 408 C 36.5174 -0.404445 -3.57218 0
M  V30 409 C 36.1814 -1.74904 -4.22206 0
M  V30 410 C 37.1784 -2.70743 -4.4384 0
M  V30 411 C 34.8634 -2.03322 -4.5931 0
M  V30 412 C 36.8574 -3.93183 -5.01683 0
M  V30 413 C 34.5444 -3.26026 -5.16866 0
M  V30 414 C 35.5424 -4.20774 -5.37994 0
M  V30 415 O 35.2304 -5.41312 -5.94337 0
M  V30 416 H 34.9624 -0.160517 -0.656666 0
M  V30 417 H 37.5164 -1.09235 -1.73945 0
M  V30 418 H 35.7464 0.344707 -3.85161 0
M  V30 419 H 37.4354 -0.0192429 -4.05895 0
M  V30 420 H 38.2014 -2.5008 -4.15554 0
M  V30 421 H 34.0804 -1.30384 -4.42178 0
M  V30 422 H 37.6244 -4.6715 -5.1809 0
M  V30 423 H 33.5214 -3.46559 -5.44579 0
M  V30 424 H 34.2894 -5.42618 -6.12787 0
M  V30 425 N 36.9525 1.47285 -0.560781 0
M  V30 426 C 38.1775 2.07359 -0.0410566 0
M  V30 427 C 38.6025 1.41017 1.24483 0
M  V30 428 O 37.9605 0.486368 1.74654 0
M  V30 429 C 38.0085 3.6035 0.134123 0
M  V30 430 O 37.1125 3.94681 1.19587 0
M  V30 431 H 36.4535 0.661887 -0.0529291 0
M  V30 432 H 38.9835 1.89252 -0.777482 0
M  V30 433 H 38.9935 4.0652 0.347207 0
M  V30 434 H 37.6685 4.08034 -0.805047 0
M  V30 435 H 36.2455 3.60251 0.962987 0
M  V30 436 N 38.4306 0.297415 1.54768 0
M  V30 437 C 39.6556 -0.318435 2.04941 0
M  V30 438 C 40.0806 -1.4701 1.17345 0
M  V30 439 O 39.4386 -1.80436 0.176758 0
M  V30 440 C 39.4866 -0.755749 3.52592 0
M  V30 441 O 38.5906 -1.86088 3.68028 0
M  V30 442 H 37.9316 -0.062421 0.661059 0
M  V30 443 H 40.4616 0.438215 1.99852 0
M  V30 444 H 40.4716 -1.04552 3.94376 0
M  V30 445 H 39.1466 0.0867233 4.1581 0
M  V30 446 H 37.7236 -1.57193 3.38149 0
M  V30 447 N 39.9087 -1.5758 0.0250728 0
M  V30 448 C 40.8717 -2.08896 -0.943139 0
M  V30 449 C 41.8717 -1.00321 -1.25668 0
M  V30 450 O 43.0617 -1.26495 -1.19769 0
M  V30 451 C 40.1937 -2.55143 -2.26086 0
M  V30 452 H 41.3867 -2.95723 -0.498775 0
M  V30 453 H 38.9397 -1.54703 -0.222888 0
M  V30 454 H 39.6747 -1.71633 -2.75159 0
M  V30 455 H 39.4597 -3.34461 -2.04641 0
M  V30 456 H 40.9497 -2.95083 -2.95492 0
M  V30 457 N 41.3868 0.248026 -1.55636 0
M  V30 458 C 42.6118 0.998028 -1.81808 0
M  V30 459 C 43.0368 1.78207 -0.601979 0
M  V30 460 O 42.3948 1.75653 0.448961 0
M  V30 461 C 42.4428 1.9125 -3.05705 0
M  V30 462 O 41.5468 3.00406 -2.82542 0
M  V30 463 H 40.8878 0.284045 -0.600179 0
M  V30 464 H 43.4178 0.269357 -2.02819 0
M  V30 465 H 43.4278 2.32737 -3.35108 0
M  V30 466 H 42.1028 1.33602 -3.93857 0
M  V30 467 H 40.6798 2.63056 -2.64303 0
M  V30 468 N 42.8649 1.48995 0.513639 0
M  V30 469 C 44.2809 1.35478 0.843682 0
M  V30 470 C 44.4809 0.378213 1.97919 0
M  V30 471 O 43.5369 -0.194689 2.51748 0
M  V30 472 C 44.8499 2.75901 1.1958 0
M  V30 473 C 46.3979 2.84509 1.30474 0
M  V30 474 C 46.8729 4.25671 1.69021 0
M  V30 475 N 48.3639 4.28422 1.76094 0
M  V30 476 C 49.0989 5.34601 2.07338 0
M  V30 477 N 48.5949 6.5104 2.36894 0
M  V30 478 N 50.3879 5.22007 2.08483 0
M  V30 479 H 42.5389 2.11092 -0.235328 0
M  V30 480 H 44.8019 0.947039 -0.0426669 0
M  V30 481 H 44.5079 3.49001 0.434913 0
M  V30 482 H 44.3819 3.10467 2.1422 0
M  V30 483 H 46.7689 2.11655 2.05637 0
M  V30 484 H 46.8499 2.53542 0.339155 0
M  V30 485 H 46.4939 4.99048 0.944135 0
M  V30 486 H 46.4239 4.54094 2.66658 0
M  V30 487 H 48.9149 3.44441 1.55464 0
M  V30 488 H 49.2279 7.2779 2.59887 0
M  V30 489 H 47.5729 6.54287 2.34378 0
M  V30 490 H 50.7639 4.30051 1.84861 0
M  V30 491 H 50.9369 6.04854 2.325 0
M  V30 492 N 44.343 -0.763751 1.37857 0
M  V30 493 C 45.568 -1.55805 1.36893 0
M  V30 494 C 45.993 -1.88054 -0.0416135 0
M  V30 495 O 45.351 -1.49825 -1.02089 0
M  V30 496 C 45.399 -2.84012 2.22192 0
M  V30 497 O 44.503 -3.78732 1.63204 0
M  V30 498 H 43.844 -0.471638 0.46739 0
M  V30 499 H 46.374 -0.944657 1.81487 0
M  V30 500 H 46.384 -3.33037 2.35691 0
M  V30 501 H 45.059 -2.59869 3.24716 0
M  V30 502 H 43.636 -3.37402 1.58791 0
M  V30 503 N 45.8211 -1.22559 -0.990812 0
M  V30 504 C 47.0491 -1.07779 -1.76611 0
M  V30 505 C 47.4641 0.371513 -1.85109 0
M  V30 506 O 46.8211 1.25737 -1.32274 0
M  V30 507 C 46.8721 -1.68512 -3.19822 0
M  V30 508 O 46.5931 -3.07774 -3.1178 0
M  V30 509 C 48.0941 -1.59035 -4.13791 0
M  V30 510 H 45.3141 -0.377729 -0.554583 0
M  V30 511 H 47.8581 -1.62195 -1.24551 0
M  V30 512 H 46.0131 -1.18154 -3.68942 0
M  V30 513 H 46.4271 -3.37062 -4.01858 0
M  V30 514 H 47.9011 -2.0625 -5.1202 0
M  V30 515 H 48.3781 -0.547273 -4.35777 0
M  V30 516 H 48.9841 -2.08709 -3.70568 0
M  V30 517 N 47.2992 1.18797 -1.03562 0
M  V30 518 C 48.5762 1.84469 -0.650434 0
M  V30 519 C 48.9562 1.92319 0.870433 0
M  V30 520 O 48.3042 1.44528 1.76986 0
M  V30 521 C 48.5142 3.2306 -1.32036 0
M  V30 522 C 49.8622 3.9915 -1.44792 0
M  V30 523 O 50.8862 3.32481 -1.27806 0
M  V30 524 O 49.7452 5.18587 -1.72423 0
M  V30 525 H 46.8392 0.795251 -0.226946 0
M  V30 526 H 49.3852 1.26231 -1.13419 0
M  V30 527 H 48.1572 3.1222 -2.3587 0
M  V30 528 H 47.7802 3.88949 -0.8249 0
M  V30 529 N 48.7773 0.814389 1.34928 0
M  V30 530 C 49.7073 0.244827 2.32213 0
M  V30 531 C 50.6883 -0.634024 1.57842 0
M  V30 532 O 51.8733 -0.562676 1.8587 0
M  V30 533 C 49.0033 -0.601106 3.42058 0
M  V30 534 C 47.9573 0.179896 4.27622 0
M  V30 535 C 47.2833 -0.788237 5.28858 0
M  V30 536 C 48.5833 1.38329 5.03649 0
M  V30 537 H 50.2773 1.05763 2.80097 0
M  V30 538 H 47.8233 0.510029 1.34665 0
M  V30 539 H 49.7763 -1.00968 4.09125 0
M  V30 540 H 48.5003 -1.44688 2.92802 0
M  V30 541 H 47.1593 0.569739 3.62146 0
M  V30 542 H 46.8073 -1.62973 4.75866 0
M  V30 543 H 46.5073 -0.269942 5.8698 0
M  V30 544 H 48.0313 -1.19485 5.98795 0
M  V30 545 H 49.4453 1.04918 5.63618 0
M  V30 546 H 47.8423 1.83662 5.71304 0
M  V30 547 H 48.9123 2.16592 4.33839 0
M  V30 548 N 50.2554 -1.46986 0.568584 0
M  V30 549 C 51.4804 -2.07335 0.0520528 0
M  V30 550 C 51.9054 -1.41675 -1.23733 0
M  V30 551 O 51.2634 -0.495623 -1.74394 0
M  V30 552 C 51.3114 -3.60417 -0.11501 0
M  V30 553 O 50.4154 -3.95309 -1.17492 0
M  V30 554 H 49.7564 -0.661597 0.0564385 0
M  V30 555 H 52.2864 -1.88837 0.787507 0
M  V30 556 H 52.2964 -4.06698 -0.325644 0
M  V30 557 H 50.9714 -4.07601 0.826675 0
M  V30 558 H 49.5484 -3.60757 -0.943869 0
M  V30 559 N 51.7335 -0.305618 -1.54608 0
M  V30 560 C 52.9635 0.304333 -2.04346 0
M  V30 561 C 53.3715 1.47715 -1.18224 0
M  V30 562 O 52.7145 1.82591 -0.201577 0
M  V30 563 C 52.7765 0.819031 -3.50046 0
M  V30 564 C 52.4405 -0.22912 -4.56425 0
M  V30 565 C 53.4375 -1.05914 -5.08997 0
M  V30 566 C 51.1225 -0.372148 -5.0092 0
M  V30 567 C 53.1165 -2.01809 -6.04609 0
M  V30 568 C 50.8035 -1.33454 -5.9635 0
M  V30 569 C 51.8015 -2.15599 -6.48079 0
M  V30 570 O 51.4895 -3.10205 -7.41639 0
M  V30 571 H 51.2215 0.0693996 -0.672428 0
M  V30 572 H 53.7755 -0.444548 -2.00532 0
M  V30 573 H 52.0055 1.61852 -3.51199 0
M  V30 574 H 53.6945 1.34537 -3.82955 0
M  V30 575 H 54.4605 -0.959538 -4.75413 0
M  V30 576 H 50.3395 0.257304 -4.60281 0
M  V30 577 H 53.8835 -2.65966 -6.44909 0
M  V30 578 H 49.7805 -1.43485 -6.29351 0
M  V30 579 H 50.5485 -3.05237 -7.59455 0
M  V30 580 N 53.2116 1.57565 -0.0334293 0
M  V30 581 C 54.4366 1.96689 0.657895 0
M  V30 582 C 54.8616 0.910057 1.64619 0
M  V30 583 O 54.2196 -0.128598 1.80843 0
M  V30 584 C 54.2676 3.34905 1.33683 0
M  V30 585 O 53.3716 3.31574 2.45219 0
M  V30 586 H 52.7126 0.641205 0.172489 0
M  V30 587 H 55.2426 2.04372 -0.0965621 0
M  V30 588 H 55.2526 3.71234 1.69262 0
M  V30 589 H 53.9276 4.11366 0.612411 0
M  V30 590 H 52.5046 3.06968 2.11719 0
M  V30 591 N 54.6897 -0.239769 1.55765 0
M  V30 592 C 55.5997 -1.31831 1.94056 0
M  V30 593 C 56.6157 -1.52275 0.841925 0
M  V30 594 O 57.7917 -1.65759 1.14394 0
M  V30 595 C 54.8567 -2.65156 2.23368 0
M  V30 596 C 53.9177 -2.53173 3.46701 0
M  V30 597 C 53.1507 -3.8014 3.74606 0
M  V30 598 O 53.3737 -4.82343 3.04469 0
M  V30 599 O 52.3077 -3.78344 4.68123 0
M  V30 600 H 56.1337 -1.02347 2.85935 0
M  V30 601 H 53.7187 -0.441123 1.42739 0
M  V30 602 H 55.6007 -3.43929 2.43497 0
M  V30 603 H 54.2757 -2.94358 1.34666 0
M  V30 604 H 53.1827 -1.72662 3.31871 0
M  V30 605 H 54.5157 -2.28915 4.35728 0
M  V30 606 N 56.1678 -1.49265 -0.50573 0
M  V30 607 C 57.3928 -1.62478 -1.28902 0
M  V30 608 C 57.8178 -0.294332 -1.85783 0
M  V30 609 O 57.1758 0.737412 -1.65626 0
M  V30 610 C 57.2238 -2.69268 -2.39848 0
M  V30 611 O 56.3278 -2.28113 -3.43567 0
M  V30 612 H 55.6688 -0.54399 -0.380751 0
M  V30 613 H 58.1988 -1.95421 -0.605952 0
M  V30 614 H 58.2088 -2.91291 -2.85681 0
M  V30 615 H 56.8838 -3.65846 -1.97812 0
M  V30 616 H 55.4608 -2.16401 -3.03685 0
M  V30 617 N 57.6459 0.756429 -1.3826 0
M  V30 618 C 58.9229 1.50584 -1.24835 0
M  V30 619 C 59.3029 2.10556 0.151485 0
M  V30 620 O 58.6509 1.96825 1.1607 0
M  V30 621 C 58.8609 2.57448 -2.3563 0
M  V30 622 C 60.2089 3.24429 -2.73917 0
M  V30 623 O 61.2329 2.67751 -2.34921 0
M  V30 624 O 60.0919 4.26937 -3.41156 0
M  V30 625 H 57.1859 0.667664 -0.48801 0
M  V30 626 H 59.7319 0.792083 -1.5008 0
M  V30 627 H 58.5039 2.11362 -3.29305 0
M  V30 628 H 58.1269 3.36408 -2.11933 0
M  V30 629 N 59.124 1.23083 0.984299 0
M  V30 630 C 60.054 1.03292 2.09411 0
M  V30 631 C 61.035 -0.048923 1.7003 0
M  V30 632 O 62.22 0.114967 1.93859 0
M  V30 633 C 59.35 0.619155 3.41736 0
M  V30 634 C 58.304 1.64791 3.95004 0
M  V30 635 C 57.63 1.0897 5.23478 0
M  V30 636 C 58.93 3.03999 4.24714 0
M  V30 637 H 60.624 1.96119 2.26225 0
M  V30 638 H 58.17 0.944344 1.08711 0
M  V30 639 H 60.123 0.467777 4.18796 0
M  V30 640 H 58.847 -0.344786 3.24775 0
M  V30 641 H 57.506 1.78721 3.20085 0
M  V30 642 H 57.154 0.11686 5.02864 0
M  V30 643 H 56.854 1.77704 5.60085 0
M  V30 644 H 58.378 0.950093 6.03163 0
M  V30 645 H 59.792 2.93393 4.92538 0
M  V30 646 H 58.189 3.69936 4.72512 0
M  V30 647 H 59.259 3.53285 3.32142 0
M  V30 648 N 60.6021 -1.18246 1.0419 0
M  V30 649 C 61.8481 -1.88536 0.747122 0
M  V30 650 C 62.1811 -1.80223 -0.723409 0
M  V30 651 O 61.4561 -1.20337 -1.52804 0
M  V30 652 C 61.7391 -3.38968 1.21544 0
M  V30 653 C 61.5921 -3.56084 2.74816 0
M  V30 654 C 62.9111 -4.32648 0.806482 0
M  V30 655 H 60.0301 -0.684619 0.272883 0
M  V30 656 H 62.6721 -1.39113 1.29413 0
M  V30 657 H 60.8221 -3.8119 0.750081 0
M  V30 658 H 62.4941 -3.22946 3.29399 0
M  V30 659 H 60.7371 -2.98699 3.14582 0
M  V30 660 H 61.4081 -4.61639 3.02644 0
M  V30 661 H 63.8841 -3.98211 1.20695 0
M  V30 662 H 62.7601 -5.36462 1.1619 0
M  V30 663 H 63.0211 -4.41146 -0.29029 0
M  V30 664 N 62.0802 -0.821533 -1.34494 0
M  V30 665 C 63.0282 -0.230702 -2.31453 0
M  V30 666 C 64.0222 0.627793 -1.57338 0
M  V30 667 O 65.2282 0.519288 -1.72347 0
M  V30 668 H 61.6032 -0.0558577 -0.749923 0
M  V30 669 H 63.5742 -1.06332 -2.78812 0
M  V30 670 C 62.3232 0.59391 -3.4259 0
M  V30 671 H 61.6462 -0.0573588 -3.99759 0
M  V30 672 H 63.0862 0.973446 -4.12674 0
M  V30 673 C 61.5452 1.76568 -2.86924 0
M  V30 674 O 62.0752 2.8638 -2.81691 0
M  V30 675 N 60.2812 1.58198 -2.43766 0
M  V30 676 H 59.8282 0.68872 -2.48222 0
M  V30 677 H 59.7862 2.36752 -2.06871 0
M  V30 678 N 63.5583 1.46682 -0.576371 0
M  V30 679 C 64.8053 2.02412 -0.0595339 0
M  V30 680 C 65.1333 1.44859 1.29793 0
M  V30 681 O 64.3883 0.601099 1.8624 0
M  V30 682 C 64.6873 3.57345 0.062886 0
M  V30 683 C 64.3533 4.33908 -1.22616 0
M  V30 684 C 63.0153 4.54544 -1.57933 0
M  V30 685 C 65.3673 4.77919 -2.07948 0
M  V30 686 C 62.6953 5.16444 -2.78393 0
M  V30 687 C 65.0473 5.41149 -3.27629 0
M  V30 688 C 63.7113 5.60014 -3.63236 0
M  V30 689 H 62.9813 0.74068 -0.021785 0
M  V30 690 H 65.6283 1.76128 -0.751735 0
M  V30 691 H 63.9333 3.82729 0.838178 0
M  V30 692 H 65.6303 3.98136 0.478439 0
M  V30 693 H 62.2203 4.18138 -0.941202 0
M  V30 694 H 66.4043 4.61738 -1.81967 0
M  V30 695 H 61.6603 5.29242 -3.06126 0
M  V30 696 H 65.8343 5.74211 -3.94023 0
M  V30 697 H 63.4613 6.07748 -4.56669 0
M  V30 698 N 65.0364 0.313813 1.54444 0
M  V30 699 C 66.2854 -0.292519 1.99568 0
M  V30 700 C 66.5984 -1.54011 1.20582 0
M  V30 701 O 67.8044 -2.22183 1.56035 0
M  V30 702 C 66.2604 -0.571752 3.55329 0
M  V30 703 C 65.8684 0.658229 4.43138 0
M  V30 704 C 67.6124 -1.13857 4.08946 0
M  V30 705 C 65.5194 0.351439 5.90355 0
M  V30 706 H 64.4494 -0.113079 0.745472 0
M  V30 707 H 67.1004 0.424518 1.78522 0
M  V30 708 H 65.4824 -1.34872 3.72325 0
M  V30 709 H 66.6564 1.43403 4.37918 0
M  V30 710 H 64.9714 1.14458 4.0036 0
M  V30 711 H 67.5684 -1.38257 5.16516 0
M  V30 712 H 67.9114 -2.08489 3.6033 0
M  V30 713 H 68.4444 -0.423015 3.95544 0
M  V30 714 H 65.1834 1.26667 6.43145 0
M  V30 715 H 64.7034 -0.386842 5.98551 0
M  V30 716 H 66.3824 -0.0423134 6.46986 0
M  V30 717 N 66.5145 -1.57545 0.0417849 0
M  V30 718 C 67.4465 -2.07904 -0.964799 0
M  V30 719 C 68.4595 -1.00497 -1.28079 0
M  V30 720 O 69.6485 -1.28087 -1.24322 0
M  V30 721 C 66.7485 -2.49928 -2.28887 0
M  V30 722 C 65.9215 -3.80562 -2.15619 0
M  V30 723 C 64.9805 -4.08999 -3.31069 0
M  V30 724 O 64.0065 -4.79061 -3.0739 0
M  V30 725 N 65.2085 -3.6017 -4.55256 0
M  V30 726 H 67.9735 -2.94886 -0.535029 0
M  V30 727 H 65.5345 -1.61252 -0.144681 0
M  V30 728 H 67.5265 -2.66034 -3.04972 0
M  V30 729 H 66.0965 -1.68245 -2.63463 0
M  V30 730 H 65.3165 -3.74129 -1.24183 0
M  V30 731 H 66.6045 -4.66126 -2.03971 0
M  V30 732 H 66.0025 -3.03512 -4.77386 0
M  V30 733 H 64.5595 -3.81532 -5.28466 0
M  V30 734 N 67.9926 0.231505 -1.5589 0
M  V30 735 C 68.9556 1.27028 -1.90779 0
M  V30 736 C 69.9556 1.40308 -0.785507 0
M  V30 737 O 71.1456 1.38744 -1.05336 0
M  V30 738 C 68.2776 2.64566 -2.14983 0
M  V30 739 H 69.4706 0.973017 -2.83677 0
M  V30 740 H 67.0236 0.471486 -1.49019 0
M  V30 741 H 67.7586 2.99406 -1.24604 0
M  V30 742 H 67.5436 2.56305 -2.96732 0
M  V30 743 H 69.0336 3.39543 -2.43105 0
M  V30 744 N 69.4707 1.49531 0.497807 0
M  V30 745 C 70.4187 1.66926 1.61983 0
M  V30 746 C 71.4127 0.535167 1.60724 0
M  V30 747 O 72.6187 0.714896 1.65195 0
M  V30 748 H 68.9937 0.526415 0.537021 0
M  V30 749 H 70.9647 2.61098 1.44465 0
M  V30 750 C 69.7137 1.75602 3.00099 0
M  V30 751 H 69.0367 2.62244 3.01775 0
M  V30 752 H 70.4767 1.91807 3.78135 0
M  V30 753 C 68.9357 0.501543 3.33146 0
M  V30 754 O 69.4657 -0.371342 3.9998 0
M  V30 755 N 67.6717 0.363531 2.88317 0
M  V30 756 H 67.2187 1.07485 2.34104 0
M  V30 757 H 67.1767 -0.474728 3.10795 0
M  V30 758 N 70.9488 -0.749086 1.3866 0
M  V30 759 C 72.1958 -1.50833 1.35114 0
M  V30 760 C 72.5238 -1.94415 -0.0574049 0
M  V30 761 O 71.7788 -1.66065 -1.03541 0
M  V30 762 C 72.0778 -2.7712 2.25697 0
M  V30 763 C 71.7438 -2.52477 3.73585 0
M  V30 764 C 70.4058 -2.45466 4.13884 0
M  V30 765 C 72.7578 -2.31066 4.67181 0
M  V30 766 C 70.0858 -2.15064 5.45861 0
M  V30 767 C 72.4378 -2.02183 5.9942 0
M  V30 768 C 71.1018 -1.93631 6.38798 0
M  V30 769 H 70.3718 -0.551936 0.494416 0
M  V30 770 H 73.0188 -0.860979 1.71054 0
M  V30 771 H 71.3238 -3.46528 1.82827 0
M  V30 772 H 73.0208 -3.35096 2.20254 0
M  V30 773 H 69.6108 -2.58807 3.41638 0
M  V30 774 H 73.7948 -2.35459 4.3689 0
M  V30 775 H 69.0508 -2.06954 5.75308 0
M  V30 776 H 73.2248 -1.8462 6.71482 0
M  V30 777 H 70.8518 -1.69839 7.40985 0
M  V30 778 N 72.4269 -1.23603 -0.977757 0
M  V30 779 C 73.3739 -1.01954 -2.07061 0
M  V30 780 C 74.3439 0.0638697 -1.65977 0
M  V30 781 O 75.5289 -0.0887624 -1.90593 0
M  V30 782 C 72.6689 -0.619658 -3.39491 0
M  V30 783 C 71.7819 -1.77547 -3.93829 0
M  V30 784 C 70.9169 -1.32212 -5.14484 0
M  V30 785 C 69.9559 -2.44852 -5.60994 0
M  V30 786 N 69.0929 -2.00456 -6.72876 0
M  V30 787 H 73.9329 -1.95495 -2.24913 0
M  V30 788 H 71.4699 -0.973861 -1.10247 0
M  V30 789 H 73.4279 -0.368898 -4.15566 0
M  V30 790 H 72.0579 0.278752 -3.21594 0
M  V30 791 H 71.1099 -2.14016 -3.14486 0
M  V30 792 H 72.4219 -2.62219 -4.24314 0
M  V30 793 H 71.5759 -1.02965 -5.97899 0
M  V30 794 H 70.3149 -0.445808 -4.85658 0
M  V30 795 H 69.3199 -2.74871 -4.76157 0
M  V30 796 H 70.5449 -3.33024 -5.91837 0
M  V30 797 H 68.4909 -1.15208 -6.45804 0
M  V30 798 H 68.4079 -2.78687 -7.02759 0
M  V30 799 H 69.6759 -1.7432 -7.59758 0
M  V30 800 N 73.905 1.17692 -1.04816 0
M  V30 801 C 74.852 2.21581 -0.645797 0
M  V30 802 C 75.822 1.62367 0.350159 0
M  V30 803 O 77.007 1.89254 0.242433 0
M  V30 804 C 74.147 3.45092 -0.0227568 0
M  V30 805 C 73.26 4.18613 -1.06709 0
M  V30 806 C 72.395 5.29602 -0.411767 0
M  V30 807 C 71.434 5.94904 -1.44067 0
M  V30 808 N 70.571 6.97414 -0.809781 0
M  V30 809 H 75.411 2.55353 -1.5362 0
M  V30 810 H 72.948 1.25438 -0.768364 0
M  V30 811 H 74.906 4.15679 0.35588 0
M  V30 812 H 73.536 3.11917 0.831122 0
M  V30 813 H 72.588 3.46779 -1.5636 0
M  V30 814 H 73.9 4.63293 -1.84827 0
M  V30 815 H 73.054 6.06696 0.0206623 0
M  V30 816 H 71.793 4.86045 0.401438 0
M  V30 817 H 70.798 5.16544 -1.88316 0
M  V30 818 H 72.023 6.40542 -2.25571 0
M  V30 819 H 69.969 6.55998 -0.0170186 0
M  V30 820 H 69.886 7.40386 -1.52856 0
M  V30 821 H 71.154 7.78463 -0.401999 0
M  V30 822 N 75.3831 0.828654 1.34056 0
M  V30 823 C 76.7991 0.515135 1.51058 0
M  V30 824 C 76.9991 -0.959581 1.77184 0
M  V30 825 O 76.0551 -1.74382 1.82612 0
M  V30 826 C 77.3681 1.37963 2.67183 0
M  V30 827 C 78.9161 1.37735 2.81066 0
M  V30 828 C 79.3911 2.22645 4.00241 0
M  V30 829 N 80.8821 2.203 4.07458 0
M  V30 830 C 81.6171 2.82744 4.98842 0
M  V30 831 N 81.1131 3.54201 5.9541 0
M  V30 832 N 82.9061 2.72268 4.91759 0
M  V30 833 H 75.0571 1.78343 1.15358 0
M  V30 834 H 77.3201 0.760304 0.566252 0
M  V30 835 H 77.0261 2.42714 2.54525 0
M  V30 836 H 76.9001 1.0484 3.62338 0
M  V30 837 H 79.2871 0.337593 2.93163 0
M  V30 838 H 79.3681 1.74859 1.86703 0
M  V30 839 H 79.0121 3.26674 3.88905 0
M  V30 840 H 78.9421 1.82869 4.93829 0
M  V30 841 H 81.4331 1.68327 3.38341 0
M  V30 842 H 81.7461 3.9908 6.61782 0
M  V30 843 H 80.0911 3.58308 5.95517 0
M  V30 844 H 83.2821 2.16014 4.15278 0
M  V30 845 H 83.4551 3.21219 5.62781 0
M  V30 846 N 76.8612 -1.46375 0.584142 0
M  V30 847 C 77.7712 -2.34115 -0.150728 0
M  V30 848 C 78.7872 -1.49838 -0.884567 0
M  V30 849 O 79.9632 -1.82704 -0.847429 0
M  V30 850 C 77.0282 -3.2705 -1.15062 0
M  V30 851 C 76.0892 -4.27228 -0.421293 0
M  V30 852 C 75.3222 -5.15722 -1.37355 0
M  V30 853 O 75.5452 -5.07176 -2.61014 0
M  V30 854 O 74.4792 -5.95383 -0.883355 0
M  V30 855 H 78.3052 -2.98309 0.569708 0
M  V30 856 H 75.8902 -1.45373 0.344535 0
M  V30 857 H 77.7722 -3.84381 -1.72712 0
M  V30 858 H 76.4472 -2.65451 -1.8525 0
M  V30 859 H 75.3542 -3.7358 0.197085 0
M  V30 860 H 76.6872 -4.91616 0.239641 0
M  V30 861 N 78.3393 -0.321999 -1.54275 0
M  V30 862 C 79.5793 0.281657 -2.0245 0
M  V30 863 C 79.9433 1.49468 -1.20513 0
M  V30 864 O 81.1443 2.17109 -1.58484 0
M  V30 865 C 79.4153 0.609014 -3.52173 0
M  V30 866 S 80.9743 1.19255 -4.22284 0
M  V30 867 H 77.7923 0.0852825 -0.705867 0
M  V30 868 H 80.3943 -0.454758 -1.90137 0
M  V30 869 H 79.0983 -0.281982 -4.0943 0
M  V30 870 H 78.6293 1.37567 -3.68563 0
M  V30 871 H 80.6443 2.47944 -4.29812 0
M  V30 872 N 79.8174 1.5752 -0.0501392 0
M  V30 873 C 81.0634 1.92936 0.624798 0
M  V30 874 C 81.3964 0.928685 1.70555 0
M  V30 875 O 80.6714 -0.0454779 1.94447 0
M  V30 876 C 80.9544 3.38737 1.22185 0
M  V30 877 C 80.8074 4.49552 0.149218 0
M  V30 878 C 82.1264 3.84913 2.13378 0
M  V30 879 H 79.2454 0.701604 0.225657 0
M  V30 880 H 81.8874 1.89671 -0.111693 0
M  V30 881 H 80.0374 3.4165 1.84953 0
M  V30 882 H 81.7094 4.58768 -0.482648 0
M  V30 883 H 79.9524 4.30638 -0.522841 0
M  V30 884 H 80.6234 5.48653 0.606966 0
M  V30 885 H 83.0994 3.8387 1.60572 0
M  V30 886 H 81.9754 4.87584 2.52097 0
M  V30 887 H 82.2364 3.21611 3.03346 0
M  V30 888 N 81.2955 -0.223234 1.56011 0
M  V30 889 C 82.5425 -0.947875 1.78946 0
M  V30 890 C 82.8705 -1.844 0.618608 0
M  V30 891 O 82.1255 -1.91629 -0.397093 0
M  V30 892 C 82.4245 -1.81948 3.0762 0
M  V30 893 C 82.0905 -1.07672 4.37856 0
M  V30 894 C 80.7525 -0.871544 4.73242 0
M  V30 895 C 83.1045 -0.552081 5.18268 0
M  V30 896 C 80.4325 -0.129791 5.86556 0
M  V30 897 C 82.7845 0.17632 6.32354 0
M  V30 898 C 81.4485 0.39277 6.66343 0
M  V30 899 H 80.7185 -0.346852 0.654809 0
M  V30 900 H 83.3655 -0.216171 1.90276 0
M  V30 901 H 81.6705 -2.61899 2.91404 0
M  V30 902 H 83.3675 -2.38227 3.22566 0
M  V30 903 H 79.9575 -1.24662 4.1007 0
M  V30 904 H 84.1415 -0.698076 4.91366 0
M  V30 905 H 79.3975 0.048153 6.11381 0
M  V30 906 H 83.5715 0.590367 6.93893 0
M  V30 907 H 81.1985 0.969466 7.53993 0
M  V30 908 N 82.7736 -1.49793 -0.48987 0
M  V30 909 C 84.0206 -1.59841 -1.24327 0
M  V30 910 C 84.3486 -0.290135 -1.92324 0
M  V30 911 O 83.6036 0.722749 -1.81865 0
M  V30 912 C 83.9026 -2.71488 -2.32441 0
M  V30 913 C 83.5686 -4.12614 -1.81826 0
M  V30 914 C 82.2306 -4.51017 -1.67742 0
M  V30 915 C 84.5826 -5.00892 -1.4407 0
M  V30 916 C 81.9106 -5.75459 -1.14297 0
M  V30 917 C 84.2626 -6.25863 -0.920742 0
M  V30 918 C 82.9266 -6.63086 -0.766383 0
M  V30 919 H 82.1966 -0.584899 -0.454944 0
M  V30 920 H 84.8436 -1.83663 -0.542215 0
M  V30 921 H 83.1486 -2.4168 -3.0838 0
M  V30 922 H 84.8456 -2.76469 -2.90458 0
M  V30 923 H 81.4356 -3.82307 -1.93751 0
M  V30 924 H 85.6196 -4.7187 -1.53794 0
M  V30 925 H 80.8756 -6.02989 -1.01068 0
M  V30 926 H 85.0496 -6.9364 -0.619448 0
M  V30 927 H 82.6766 -7.59393 -0.350083 0
M  V30 928 N 84.2517 0.741722 -1.39055 0
M  V30 929 C 85.4797 1.53098 -1.39171 0
M  V30 930 C 85.8947 1.88794 0.0155099 0
M  V30 931 O 85.2517 1.53626 0.985159 0
M  V30 932 C 85.3027 2.82274 -2.2584 0
M  V30 933 O 85.0237 2.48097 -3.61081 0
M  V30 934 C 86.5247 3.76343 -2.34266 0
M  V30 935 H 83.7447 0.473335 -0.4756 0
M  V30 936 H 86.2887 0.917045 -1.82785 0
M  V30 937 H 84.4437 3.40015 -1.85656 0
M  V30 938 H 84.8577 3.31029 -4.06842 0
M  V30 939 H 86.3317 4.63898 -2.9917 0
M  V30 940 H 86.8087 4.17619 -1.35982 0
M  V30 941 H 87.4147 3.24523 -2.74891 0
M  V30 942 N 85.7298 1.2412 0.971189 0
M  V30 943 C 86.6768 1.0305 2.06517 0
M  V30 944 C 87.6468 -0.0550666 1.66009 0
M  V30 945 O 88.8318 0.0988688 1.90544 0
M  V30 946 C 85.9718 0.637653 3.39158 0
M  V30 947 C 85.0848 1.79633 3.92882 0
M  V30 948 C 84.2198 1.34939 5.13775 0
M  V30 949 C 83.2588 2.47823 5.59687 0
M  V30 950 N 82.3958 2.04022 6.71803 0
M  V30 951 H 87.2358 1.96685 2.23873 0
M  V30 952 H 84.7728 0.979694 1.09729 0
M  V30 953 H 86.7308 0.390931 4.15364 0
M  V30 954 H 85.3608 -0.261693 3.21737 0
M  V30 955 H 84.4128 2.15681 3.13346 0
M  V30 956 H 85.7248 2.64466 4.22918 0
M  V30 957 H 84.8788 1.06134 5.97345 0
M  V30 958 H 83.6178 0.471557 4.85415 0
M  V30 959 H 82.6228 2.77392 4.74693 0
M  V30 960 H 83.8478 3.36158 5.90063 0
M  V30 961 H 81.7938 1.18632 6.45184 0
M  V30 962 H 81.7108 2.82409 7.01271 0
M  V30 963 H 82.9788 1.78347 7.58823 0
M  V30 964 N 87.2079 -1.17134 1.05439 0
M  V30 965 C 88.4849 -1.83411 0.679699 0
M  V30 966 C 88.8649 -1.9368 -0.839726 0
M  V30 967 O 88.2129 -1.47325 -1.74664 0
M  V30 968 C 88.4229 -3.20918 1.37159 0
M  V30 969 C 89.7709 -3.96796 1.51123 0
M  V30 970 O 90.7949 -3.30406 1.3308 0
M  V30 971 O 89.6539 -5.15778 1.80651 0
M  V30 972 H 86.7479 -0.79154 0.239569 0
M  V30 973 H 89.2939 -1.24411 1.15413 0
M  V30 974 H 88.0659 -3.08428 2.40807 0
M  V30 975 H 87.6889 -3.87587 0.886674 0
M  V30 976 N 88.686 -0.835752 -1.33615 0
M  V30 977 C 89.911 -0.442389 -2.02627 0
M  V30 978 C 90.336 0.947735 -1.62479 0
M  V30 979 O 89.694 1.61907 -0.815826 0
M  V30 980 C 89.742 -0.567216 -3.56111 0
M  V30 981 O 88.846 0.407799 -4.10379 0
M  V30 982 H 88.187 -0.180278 -0.639059 0
M  V30 983 H 90.717 -1.12972 -1.70583 0
M  V30 984 H 90.727 -0.447708 -4.05536 0
M  V30 985 H 89.402 -1.58103 -3.84677 0
M  V30 986 H 87.979 0.246107 -3.72087 0
M  V30 987 N 90.1641 1.46063 -0.591896 0
M  V30 988 C 91.1111 2.30399 0.136069 0
M  V30 989 C 92.0811 1.41169 0.875238 0
M  V30 990 O 93.2661 1.70112 0.86409 0
M  V30 991 C 90.4061 3.25804 1.13781 0
M  V30 992 C 89.5191 4.30134 0.401137 0
M  V30 993 C 88.6541 5.12659 1.39121 0
M  V30 994 C 87.6931 6.0873 0.641462 0
M  V30 995 N 86.8301 6.8409 1.58004 0
M  V30 996 H 91.6701 2.92118 -0.589144 0
M  V30 997 H 89.2071 1.43959 -0.302342 0
M  V30 998 H 91.1651 3.79569 1.73156 0
M  V30 999 H 89.7951 2.65872 1.83062 0
M  V30 1000 H 88.8471 3.79152 -0.307826 0
M  V30 1001 H 90.1591 4.98458 -0.184565 0
M  V30 1002 H 89.3131 5.70747 2.05749 0
M  V30 1003 H 88.0521 4.44316 2.01084 0
M  V30 1004 H 87.0571 5.49786 -0.0385419 0
M  V30 1005 H 88.2821 6.79095 0.0270945 0
M  V30 1006 H 86.2281 6.18449 2.18761 0
M  V30 1007 H 86.1451 7.48709 1.04738 0
M  V30 1008 H 87.4131 7.4673 2.23639 0
M  V30 1009 N 91.6422 0.330177 1.54103 0
M  V30 1010 C 92.6052 -0.520144 2.2322 0
M  V30 1011 C 93.6052 -1.03828 1.22786 0
M  V30 1012 O 94.7952 -0.929652 1.4732 0
M  V30 1013 C 91.9272 -1.72317 2.94142 0
M  V30 1014 H 93.1202 0.0841605 2.99782 0
M  V30 1015 H 90.6732 0.0813433 1.56088 0
M  V30 1016 H 91.4082 -2.36653 2.21734 0
M  V30 1017 H 91.1932 -1.35898 3.67796 0
M  V30 1018 H 92.6832 -2.3266 3.46784 0
M  V30 1019 N 93.1203 -1.57491 0.0584922 0
M  V30 1020 C 94.3483 -1.97296 -0.623037 0
M  V30 1021 C 94.7633 -0.936338 -1.63946 0
M  V30 1022 O 94.1203 0.0785981 -1.82331 0
M  V30 1023 C 94.1713 -3.37183 -1.30345 0
M  V30 1024 O 93.8923 -4.36872 -0.32773 0
M  V30 1025 C 95.3933 -3.91788 -2.07406 0
M  V30 1026 H 92.6133 -0.649153 -0.169826 0
M  V30 1027 H 95.1573 -2.04106 0.12696 0
M  V30 1028 H 93.3123 -3.31502 -2.00463 0
M  V30 1029 H 93.7263 -5.18141 -0.814269 0
M  V30 1030 H 95.2003 -4.91926 -2.50425 0
M  V30 1031 H 95.6773 -3.27609 -2.92521 0
M  V30 1032 H 96.2833 -4.00829 -1.42184 0
M  V30 1033 N 94.5984 0.214957 -1.56127 0
M  V30 1034 C 95.5084 1.28727 -1.96129 0
M  V30 1035 C 96.5244 1.50916 -0.866044 0
M  V30 1036 O 97.7004 1.63918 -1.17016 0
M  V30 1037 C 94.7654 2.61569 -2.27558 0
M  V30 1038 C 93.8264 2.47625 -3.50685 0
M  V30 1039 C 93.0594 3.74132 -3.80606 0
M  V30 1040 O 93.2824 4.77438 -3.12104 0
M  V30 1041 O 92.2164 3.70849 -4.74083 0
M  V30 1042 H 96.0424 0.977855 -2.87527 0
M  V30 1043 H 93.6274 0.418358 -1.43423 0
M  V30 1044 H 95.5094 3.40012 -2.48938 0
M  V30 1045 H 94.1844 2.92178 -1.39332 0
M  V30 1046 H 93.0914 1.67361 -3.34576 0
M  V30 1047 H 94.4244 2.21954 -4.39315 0
M  V30 1048 N 96.0765 1.50051 0.48192 0
M  V30 1049 C 97.0245 1.68635 1.60203 0
M  V30 1050 C 98.0185 0.552184 1.60148 0
M  V30 1051 O 99.2245 0.732377 1.64427 0
M  V30 1052 H 95.5995 0.532081 0.531407 0
M  V30 1053 H 97.5705 2.62616 1.41688 0
M  V30 1054 C 96.3195 1.78775 2.9822 0
M  V30 1055 H 95.6425 2.6543 2.98976 0
M  V30 1056 H 97.0825 1.95806 3.7608 0
M  V30 1057 C 95.5415 0.536849 3.32595 0
M  V30 1058 O 96.0715 -0.328897 4.00351 0
M  V30 1059 N 94.2775 0.394091 2.87915 0
M  V30 1060 H 93.8245 1.09962 2.32951 0
M  V30 1061 H 93.7825 -0.441737 3.11281 0
M  V30 1062 N 97.5546 -0.734337 1.39446 0
M  V30 1063 C 98.8006 -1.49613 1.36908 0
M  V30 1064 C 99.1336 -1.94169 -0.0347829 0
M  V30 1065 O 98.4086 -1.66833 -0.999847 0
M  V30 1066 C 98.6916 -2.73534 2.34203 0
M  V30 1067 C 98.5446 -2.34993 3.83534 0
M  V30 1068 C 99.8636 -3.75635 2.29317 0
M  V30 1069 H 96.9826 -0.542714 0.498629 0
M  V30 1070 H 99.6246 -0.839597 1.70443 0
M  V30 1071 H 97.7746 -3.29553 2.05736 0
M  V30 1072 H 99.4466 -1.84601 4.22753 0
M  V30 1073 H 97.6896 -1.67213 4.00278 0
M  V30 1074 H 98.3606 -3.23738 4.47099 0
M  V30 1075 H 100.837 -3.29203 2.54489 0
M  V30 1076 H 99.7126 -4.60008 2.99472 0
M  V30 1077 H 99.9736 -4.22603 1.29842 0
M  V30 1078 N 99.0327 -1.24633 -0.964593 0
M  V30 1079 C 100.273 -1.09981 -1.72289 0
M  V30 1080 C 100.637 0.354792 -1.88693 0
M  V30 1081 O 101.838 0.62289 -2.61483 0
M  V30 1082 C 100.109 -1.82262 -3.07434 0
M  V30 1083 S 101.668 -1.83379 -3.98645 0
M  V30 1084 H 98.4857 -0.393292 -0.59232 0
M  V30 1085 H 101.088 -1.58009 -1.15123 0
M  V30 1086 H 99.7917 -2.87206 -2.93157 0
M  V30 1087 H 99.3227 -1.3458 -3.69664 0
M  V30 1088 H 101.338 -0.903691 -4.87901 0
M  V30 1089 N 100.511 1.16574 -1.06058 0
M  V30 1090 C 101.458 2.20883 -0.669263 0
M  V30 1091 C 102.428 1.62729 0.332918 0
M  V30 1092 O 103.613 1.895 0.222346 0
M  V30 1093 C 100.753 3.45049 -0.0593572 0
M  V30 1094 C 99.8658 4.17458 -1.11143 0
M  V30 1095 C 99.0008 5.29135 -0.467916 0
M  V30 1096 C 98.0398 5.93343 -1.50369 0
M  V30 1097 N 97.1768 6.96516 -0.883706 0
M  V30 1098 H 102.017 2.53709 -1.5632 0
M  V30 1099 H 99.5538 1.24616 -0.781625 0
M  V30 1100 H 101.512 4.16033 0.311771 0
M  V30 1101 H 100.142 3.12781 0.797992 0
M  V30 1102 H 99.1938 3.45101 -1.60029 0
M  V30 1103 H 100.506 4.61307 -1.89731 0
M  V30 1104 H 99.6598 6.06684 -0.0436871 0
M  V30 1105 H 98.3988 4.86443 0.349864 0
M  V30 1106 H 97.4038 5.14517 -1.93784 0
M  V30 1107 H 98.6288 6.38114 -2.32352 0
M  V30 1108 H 96.5748 6.55943 -0.086595 0
M  V30 1109 H 96.4918 7.38723 -1.607 0
M  V30 1110 H 97.7598 7.77993 -0.484543 0
M  V30 1111 N 101.989 0.842826 1.3317 0
M  V30 1112 C 103.229 0.446574 1.99462 0
M  V30 1113 C 103.593 -0.976818 1.65295 0
M  V30 1114 O 104.794 -1.477 2.24584 0
M  V30 1115 C 103.065 0.665353 3.51152 0
M  V30 1116 S 104.624 0.364911 4.3728 0
M  V30 1117 H 101.442 0.167803 0.690915 0
M  V30 1118 H 104.044 1.09297 1.62094 0
M  V30 1119 H 102.748 1.7006 3.73507 0
M  V30 1120 H 102.279 0.00494568 3.934 0
M  V30 1121 H 104.294 -0.813761 4.89482 0
M  V30 1122 N 103.467 -1.45747 0.599634 0
M  V30 1123 C 104.715 -2.01893 0.0915472 0
M  V30 1124 C 105.036 -1.47155 -1.27946 0
M  V30 1125 O 104.306 -0.66273 -1.84349 0
M  V30 1126 H 102.886 -0.746363 0.0308524 0
M  V30 1127 H 105.548 -1.78645 0.779237 0
M  V30 1128 H 104.644 -3.1208 0.0353086 0
M  V30 1129 N 104.945 -0.338344 -1.53925 0
M  V30 1130 C 106.175 0.260919 -2.04946 0
M  V30 1131 C 106.583 1.45174 -1.2133 0
M  V30 1132 O 105.926 1.82122 -0.240262 0
M  V30 1133 C 105.988 0.744596 -3.51704 0
M  V30 1134 C 105.652 -0.325883 -4.55837 0
M  V30 1135 C 106.649 -1.16687 -5.06636 0
M  V30 1136 C 104.334 -0.478317 -5.00017 0
M  V30 1137 C 106.328 -2.14588 -6.00192 0
M  V30 1138 C 104.015 -1.46073 -5.93385 0
M  V30 1139 C 105.013 -2.29297 -6.4336 0
M  V30 1140 O 104.701 -3.25867 -7.34892 0
M  V30 1141 H 104.433 0.0551207 -0.673749 0
M  V30 1142 H 106.987 -0.486984 -1.99544 0
M  V30 1143 H 105.217 1.54366 -3.54553 0
M  V30 1144 H 106.906 1.26383 -3.85723 0
M  V30 1145 H 107.672 -1.06016 -4.73271 0
M  V30 1146 H 103.551 0.159613 -4.60724 0
M  V30 1147 H 107.095 -2.79585 -6.39123 0
M  V30 1148 H 102.992 -1.56802 -6.26166 0
M  V30 1149 H 103.76 -3.21278 -7.5281 0
M  V30 1150 N 106.423 1.57458 -0.0668435 0
M  V30 1151 C 107.386 2.11323 0.887422 0
M  V30 1152 C 108.386 1.03618 1.22964 0
M  V30 1153 O 109.576 1.29626 1.16373 0
M  V30 1154 C 106.708 2.61048 2.19242 0
M  V30 1155 H 107.901 2.96942 0.420194 0
M  V30 1156 H 105.454 1.55239 0.181793 0
M  V30 1157 H 106.189 1.78868 2.70512 0
M  V30 1158 H 105.974 3.39769 1.95702 0
M  V30 1159 H 107.464 3.02814 2.87565 0
M  V30 1160 N 107.901 -0.206675 1.56239 0
M  V30 1161 C 108.833 -1.27997 1.9013 0
M  V30 1162 C 109.846 -1.42299 0.790883 0
M  V30 1163 O 111.035 -1.42931 1.06925 0
M  V30 1164 C 108.135 -2.65368 2.10792 0
M  V30 1165 C 107.308 -2.72824 3.41886 0
M  V30 1166 C 106.367 -3.9131 3.51799 0
M  V30 1167 O 105.393 -3.78953 4.24716 0
M  V30 1168 N 106.595 -5.06265 2.84035 0
M  V30 1169 H 109.36 -0.992444 2.82791 0
M  V30 1170 H 106.921 -0.396652 1.56966 0
M  V30 1171 H 108.913 -3.43039 2.14724 0
M  V30 1172 H 107.483 -2.86657 1.24685 0
M  V30 1173 H 106.703 -1.81515 3.49923 0
M  V30 1174 H 107.991 -2.74786 4.28217 0
M  V30 1175 H 107.389 -5.19203 2.246 0
M  V30 1176 H 105.946 -5.81925 2.93609 0
M  V30 1177 N 109.379 -1.50304 -0.473955 0
M  V30 1178 C 110.604 -1.65175 -1.25427 0
M  V30 1179 C 111.029 -0.333673 -1.85117 0
M  V30 1180 O 110.387 0.702114 -1.67153 0
M  V30 1181 C 110.435 -2.74295 -2.34082 0
M  V30 1182 O 109.539 -2.35349 -3.38651 0
M  V30 1183 H 108.88 -0.551944 -0.369126 0
M  V30 1184 H 111.41 -1.96662 -0.564364 0
M  V30 1185 H 111.42 -2.97285 -2.79438 0
M  V30 1186 H 110.095 -3.69959 -1.90008 0
M  V30 1187 H 108.672 -2.22794 -2.99027 0
M  V30 1188 N 110.857 0.726932 -1.39834 0
M  V30 1189 C 111.789 1.85147 -1.35104 0
M  V30 1190 C 112.802 1.60736 -0.258392 0
M  V30 1191 O 113.991 1.70821 -0.517931 0
M  V30 1192 C 111.091 3.21332 -1.07697 0
M  V30 1193 C 110.264 3.73033 -2.28396 0
M  V30 1194 C 109.323 4.87802 -1.97322 0
M  V30 1195 O 108.349 5.01043 -2.70083 0
M  V30 1196 N 109.551 5.72768 -0.944273 0
M  V30 1197 H 112.316 1.89706 -2.32017 0
M  V30 1198 H 109.877 0.908006 -1.3404 0
M  V30 1199 H 111.869 3.95691 -0.849144 0
M  V30 1200 H 110.439 3.11992 -0.194909 0
M  V30 1201 H 109.659 2.89934 -2.6708 0
M  V30 1202 H 110.947 4.0431 -3.08887 0
M  V30 1203 H 110.345 5.64669 -0.341427 0
M  V30 1204 H 108.902 6.4716 -0.776346 0
M  V30 1205 N 112.336 1.25143 0.95797 0
M  V30 1206 C 113.286 1.01924 2.0395 0
M  V30 1207 C 114.27 -0.0427175 1.60843 0
M  V30 1208 O 115.462 0.17221 1.7616 0
M  V30 1209 C 112.591 0.636373 3.3735 0
M  V30 1210 C 111.677 1.73492 3.8699 0
M  V30 1211 N 112.068 2.96945 4.0946 0
M  V30 1212 C 110.366 1.61467 4.15746 0
M  V30 1213 C 111.067 3.68228 4.50315 0
M  V30 1214 N 110.043 2.95833 4.56053 0
M  V30 1215 H 113.845 1.95653 2.19311 0
M  V30 1216 H 111.359 1.15413 1.14253 0
M  V30 1217 H 113.356 0.451233 4.14451 0
M  V30 1218 H 112.016 -0.293621 3.2337 0
M  V30 1219 H 113.027 3.33025 3.96629 0
M  V30 1220 H 109.704 0.753394 4.10646 0
M  V30 1221 H 111.094 4.74178 4.76031 0
M  V30 1222 N 113.814 -1.1601 1.06675 0
M  V30 1223 C 114.747 -2.1947 0.625168 0
M  V30 1224 C 115.725 -1.58699 -0.354041 0
M  V30 1225 O 116.909 -1.86669 -0.262098 0
M  V30 1226 C 114.036 -3.38598 -0.0829593 0
M  V30 1227 C 113.082 -4.1787 0.853611 0
M  V30 1228 S 113.915 -4.81135 2.35094 0
M  V30 1229 C 115.071 -6.03639 1.65441 0
M  V30 1230 H 115.304 -2.56587 1.50168 0
M  V30 1231 H 112.837 -1.26862 0.880078 0
M  V30 1232 H 114.795 -4.07621 -0.485288 0
M  V30 1233 H 113.456 -2.99839 -0.935716 0
M  V30 1234 H 112.649 -5.03078 0.304755 0
M  V30 1235 H 112.251 -3.54361 1.196 0
M  V30 1236 H 114.543 -6.70632 0.962201 0
M  V30 1237 H 115.486 -6.63081 2.48454 0
M  V30 1238 H 115.894 -5.52965 1.13534 0
M  V30 1239 N 115.292 -0.849877 -1.32721 0
M  V30 1240 C 116.202 -0.293791 -2.32753 0
M  V30 1241 C 117.218 0.585906 -1.63839 0
M  V30 1242 O 118.394 0.487413 -1.95413 0
M  V30 1243 C 115.459 0.512752 -3.42887 0
M  V30 1244 C 114.52 -0.39252 -4.27502 0
M  V30 1245 C 113.753 0.375625 -5.32377 0
M  V30 1246 O 113.976 1.60613 -5.4732 0
M  V30 1247 O 112.91 -0.256094 -6.01355 0
M  V30 1248 H 116.736 -1.12242 -2.82197 0
M  V30 1249 H 114.321 -0.612685 -1.36259 0
M  V30 1250 H 116.203 0.970704 -4.10067 0
M  V30 1251 H 114.878 1.31826 -2.95641 0
M  V30 1252 H 113.785 -0.898547 -3.63149 0
M  V30 1253 H 115.118 -1.16309 -4.7826 0
M  V30 1254 N 116.77 1.45427 -0.607355 0
M  V30 1255 C 118.018 2.01841 -0.102253 0
M  V30 1256 C 118.339 1.47832 1.27164 0
M  V30 1257 O 117.609 0.672497 1.83995 0
M  V30 1258 H 116.189 0.746188 -0.0348101 0
M  V30 1259 H 118.851 1.78229 -0.7887 0
M  V30 1260 H 117.947 3.12057 -0.0518585 0
M  V30 1261 N 118.248 0.346503 1.53744 0
M  V30 1262 C 119.476 -0.25041 2.05379 0
M  V30 1263 C 119.891 -1.43979 1.22129 0
M  V30 1264 O 119.248 -1.80677 0.257321 0
M  V30 1265 C 119.299 -0.662575 3.55376 0
M  V30 1266 O 119.02 0.479515 4.35468 0
M  V30 1267 C 120.521 -1.31989 4.23195 0
M  V30 1268 H 117.741 -0.0478198 0.669294 0
M  V30 1269 H 120.285 0.499346 1.9831 0
M  V30 1270 H 118.44 -1.36227 3.62658 0
M  V30 1271 H 118.854 0.15037 5.24284 0
M  V30 1272 H 120.328 -1.55902 5.29527 0
M  V30 1273 H 120.805 -2.27436 3.75725 0
M  V30 1274 H 121.411 -0.662154 4.20114 0
M  V30 1275 N 119.726 -1.57421 0.075193 0
M  V30 1276 C 120.658 -2.09904 -0.920483 0
M  V30 1277 C 121.671 -1.03191 -1.25918 0
M  V30 1278 O 122.86 -1.30695 -1.21577 0
M  V30 1279 C 119.96 -2.54726 -2.23534 0
M  V30 1280 C 119.133 -3.8505 -2.07498 0
M  V30 1281 C 118.192 -4.15929 -3.22319 0
M  V30 1282 O 117.218 -4.85474 -2.9716 0
M  V30 1283 N 118.42 -3.69745 -4.47514 0
M  V30 1284 H 121.185 -2.95954 -0.472359 0
M  V30 1285 H 118.746 -1.61523 -0.110444 0
M  V30 1286 H 120.738 -2.72443 -2.9926 0
M  V30 1287 H 119.308 -1.73795 -2.59835 0
M  V30 1288 H 118.528 -3.76679 -1.16219 0
M  V30 1289 H 119.816 -4.70348 -1.94038 0
M  V30 1290 H 119.214 -3.13569 -4.7084 0
M  V30 1291 H 117.771 -3.92655 -5.20255 0
M  V30 1292 N 121.204 0.198386 -1.56346 0
M  V30 1293 C 122.453 0.917451 -1.79627 0
M  V30 1294 C 122.766 1.8456 -0.64784 0
M  V30 1295 O 123.972 2.60504 -0.764859 0
M  V30 1296 C 122.428 1.68175 -3.18191 0
M  V30 1297 C 122.036 0.798589 -4.40825 0
M  V30 1298 C 123.78 2.39065 -3.50782 0
M  V30 1299 C 121.687 1.56157 -5.70411 0
M  V30 1300 H 120.617 0.346317 -0.669762 0
M  V30 1301 H 123.268 0.170801 -1.82703 0
M  V30 1302 H 121.65 2.47216 -3.09354 0
M  V30 1303 H 122.824 0.0470665 -4.60776 0
M  V30 1304 H 121.139 0.200686 -4.15916 0
M  V30 1305 H 123.736 2.96692 -4.44835 0
M  V30 1306 H 124.079 3.13091 -2.74371 0
M  V30 1307 H 124.612 1.66993 -3.61052 0
M  V30 1308 H 121.351 0.864142 -6.49779 0
M  V30 1309 H 120.871 2.2871 -5.54483 0
M  V30 1310 H 122.55 2.11622 -6.11412 0
M  V30 1311 N 122.682 1.50554 0.465978 0
M  V30 1312 C 123.63 1.70324 1.58406 0
M  V30 1313 C 124.624 0.569139 1.59553 0
M  V30 1314 O 125.83 0.749776 1.63641 0
M  V30 1315 H 122.205 0.537688 0.525734 0
M  V30 1316 H 124.176 2.64104 1.38894 0
M  V30 1317 C 122.925 1.81928 2.96307 0
M  V30 1318 H 122.248 2.68586 2.96144 0
M  V30 1319 H 123.688 1.99784 3.73982 0
M  V30 1320 C 122.147 0.572095 3.32007 0
M  V30 1321 O 122.677 -0.286416 4.00678 0
M  V30 1322 N 120.883 0.424606 2.87481 0
M  V30 1323 H 120.43 1.12427 2.31771 0
M  V30 1324 H 120.388 -0.408697 3.11732 0
M  V30 1325 N 124.16 -0.719506 1.40217 0
M  V30 1326 C 125.092 -1.84428 1.36084 0
M  V30 1327 C 126.105 -1.60597 0.266913 0
M  V30 1328 O 127.294 -1.70544 0.526983 0
M  V30 1329 C 124.394 -3.20757 1.094 0
M  V30 1330 C 123.567 -3.71817 2.30372 0
M  V30 1331 C 122.626 -4.86748 1.99907 0
M  V30 1332 O 121.652 -4.99603 2.72737 0
M  V30 1333 N 122.854 -5.7226 0.974635 0
M  V30 1334 H 125.619 -1.88473 2.33019 0
M  V30 1335 H 123.18 -0.900885 1.3452 0
M  V30 1336 H 125.172 -3.95235 0.870116 0
M  V30 1337 H 123.742 -3.11884 0.211452 0
M  V30 1338 H 122.962 -2.88514 2.68614 0
M  V30 1339 H 124.25 -4.02666 3.11026 0
M  V30 1340 H 123.648 -5.6448 0.371368 0
M  V30 1341 H 122.205 -6.46739 0.810656 0
M  V30 1342 N 125.638 -1.25649 -0.95132 0
M  V30 1343 C 126.863 -1.13443 -1.73624 0
M  V30 1344 C 127.288 0.307565 -1.85568 0
M  V30 1345 O 126.646 1.22282 -1.33854 0
M  V30 1346 C 126.694 -1.79723 -3.12621 0
M  V30 1347 O 125.798 -1.07912 -3.98031 0
M  V30 1348 H 125.139 -0.395872 -0.533086 0
M  V30 1349 H 127.669 -1.66276 -1.1922 0
M  V30 1350 H 127.679 -1.86141 -3.63064 0
M  V30 1351 H 126.354 -2.84633 -3.03244 0
M  V30 1352 H 124.931 -1.09398 -3.56492 0
M  V30 1353 N 127.117 1.15442 -1.07289 0
M  V30 1354 C 128.027 2.23786 -0.704057 0
M  V30 1355 C 129.043 1.7166 0.284413 0
M  V30 1356 O 130.219 2.00972 0.131205 0
M  V30 1357 C 127.284 3.46535 -0.106792 0
M  V30 1358 C 126.345 4.13654 -1.14842 0
M  V30 1359 C 125.578 5.30544 -0.57956 0
M  V30 1360 O 125.801 5.67187 0.604585 0
M  V30 1361 O 124.735 5.87154 -1.32414 0
M  V30 1362 H 128.561 2.57664 -1.60757 0
M  V30 1363 H 126.146 1.23152 -0.845803 0
M  V30 1364 H 128.028 4.20804 0.224048 0
M  V30 1365 H 126.703 3.14407 0.770049 0
M  V30 1366 H 125.61 3.4131 -1.5316 0
M  V30 1367 H 126.943 4.49861 -1.99714 0
M  V30 1368 N 128.595 0.856903 1.32268 0
M  V30 1369 C 129.542 0.301172 2.28827 0
M  V30 1370 C 130.512 -0.593104 1.5515 0
M  V30 1371 O 131.697 -0.527537 1.83362 0
M  V30 1372 C 128.837 -0.502523 3.41422 0
M  V30 1373 C 127.95 0.417797 4.29975 0
M  V30 1374 C 127.085 -0.398749 5.29701 0
M  V30 1375 C 126.124 0.518827 6.09897 0
M  V30 1376 N 125.261 -0.260674 7.01616 0
M  V30 1377 H 130.101 1.12983 2.75751 0
M  V30 1378 H 127.638 0.568582 1.35667 0
M  V30 1379 H 129.596 -0.984141 4.05426 0
M  V30 1380 H 128.226 -1.29599 2.95642 0
M  V30 1381 H 127.278 1.01781 3.66531 0
M  V30 1382 H 128.59 1.12191 4.86019 0
M  V30 1383 H 127.744 -0.943435 5.9932 0
M  V30 1384 H 126.483 -1.13622 4.7428 0
M  V30 1385 H 125.488 1.07538 5.39181 0
M  V30 1386 H 126.713 1.25495 6.67404 0
M  V30 1387 H 124.659 -0.981198 6.4862 0
M  V30 1388 H 124.576 0.384364 7.55022 0
M  V30 1389 H 125.844 -0.787014 7.75517 0
M  V30 1390 N 130.073 -1.45103 0.615059 0
M  V30 1391 C 131.319 -2.03035 0.121804 0
M  V30 1392 C 131.674 -1.47393 -1.23665 0
M  V30 1393 O 130.967 -0.642061 -1.80522 0
M  V30 1394 C 131.161 -3.57386 0.0318797 0
M  V30 1395 C 130.99 -4.28 1.38007 0
M  V30 1396 C 129.76 -4.65624 1.9627 0
M  V30 1397 C 131.958 -4.5948 2.31047 0
M  V30 1398 N 129.94 -5.21132 3.24492 0
M  V30 1399 C 131.311 -5.159 3.43872 0
M  V30 1400 C 133.366 -4.41423 2.30326 0
M  V30 1401 C 132.069 -5.56165 4.5615 0
M  V30 1402 C 134.095 -4.82726 3.41658 0
M  V30 1403 C 133.457 -5.39245 4.53205 0
M  V30 1404 H 129.556 -0.77702 0.0881159 0
M  V30 1405 H 132.14 -1.76819 0.815044 0
M  V30 1406 H 130.311 -3.83247 -0.630599 0
M  V30 1407 H 132.043 -4.01976 -0.468721 0
M  V30 1408 H 128.798 -4.49421 1.49392 0
M  V30 1409 H 129.222 -5.53377 3.90004 0
M  V30 1410 H 133.864 -3.97033 1.45343 0
M  V30 1411 H 131.582 -5.99517 5.41854 0
M  V30 1412 H 135.168 -4.7048 3.42257 0
M  V30 1413 H 134.048 -5.70616 5.37929 0
M  V30 1414 N 131.551 -0.354651 -1.53558 0
M  V30 1415 C 132.499 0.512195 -2.26891 0
M  V30 1416 C 133.493 1.09263 -1.29452 0
M  V30 1417 O 134.699 1.03709 -1.47121 0
M  V30 1418 H 131.074 0.183878 -0.729173 0
M  V30 1419 H 133.045 -0.128202 -2.98124 0
M  V30 1420 C 131.794 1.64563 -3.06291 0
M  V30 1421 H 131.117 1.20829 -3.81104 0
M  V30 1422 H 132.557 2.22711 -3.60799 0
M  V30 1423 C 131.016 2.58158 -2.16462 0
M  V30 1424 O 131.546 3.60695 -1.76811 0
M  V30 1425 N 129.752 2.27096 -1.81317 0
M  V30 1426 H 129.299 1.43751 -2.1376 0
M  V30 1427 H 129.257 2.89975 -1.21498 0
M  V30 1428 N 133.029 1.57378 -0.0835403 0
M  V30 1429 C 134.259 1.97975 0.590713 0
M  V30 1430 C 134.667 0.961083 1.62972 0
M  V30 1431 O 134.01 -0.0590879 1.83605 0
M  V30 1432 C 134.072 3.34915 1.3066 0
M  V30 1433 C 133.736 4.55069 0.419698 0
M  V30 1434 C 134.733 5.18868 -0.32749 0
M  V30 1435 C 132.418 5.0114 0.341137 0
M  V30 1436 C 134.412 6.27098 -1.14134 0
M  V30 1437 C 132.099 6.0924 -0.476374 0
M  V30 1438 C 133.097 6.72083 -1.21627 0
M  V30 1439 O 132.785 7.781 -2.02028 0
M  V30 1440 H 132.517 0.655818 0.163947 0
M  V30 1441 H 135.071 2.04807 -0.156021 0
M  V30 1442 H 133.301 3.24733 2.09966 0
M  V30 1443 H 134.99 3.60037 1.87424 0
M  V30 1444 H 135.756 4.84211 -0.276459 0
M  V30 1445 H 131.635 4.51996 0.90668 0
M  V30 1446 H 135.179 6.7608 -1.71935 0
M  V30 1447 H 131.076 6.43329 -0.528927 0
M  V30 1448 H 131.844 7.95034 -1.94586 0
M  V30 1449 N 134.507 -0.190092 1.56449 0
M  V30 1450 C 135.454 -1.23557 1.94942 0
M  V30 1451 C 136.424 -1.44972 0.810696 0
M  V30 1452 O 137.609 -1.58023 1.06927 0
M  V30 1453 C 134.749 -2.57416 2.2985 0
M  V30 1454 C 133.862 -2.43537 3.5681 0
M  V30 1455 C 132.997 -3.70134 3.81017 0
M  V30 1456 C 132.036 -3.51109 5.01387 0
M  V30 1457 N 131.173 -4.6973 5.21822 0
M  V30 1458 H 136.013 -0.900304 2.84075 0
M  V30 1459 H 133.55 -0.43318 1.40577 0
M  V30 1460 H 135.508 -3.35409 2.48106 0
M  V30 1461 H 134.138 -2.88975 1.43852 0
M  V30 1462 H 133.19 -1.56816 3.46573 0
M  V30 1463 H 134.502 -2.25415 4.4496 0
M  V30 1464 H 133.656 -4.56566 3.9954 0
M  V30 1465 H 132.395 -3.91215 2.91207 0
M  V30 1466 H 131.4 -2.63063 4.82782 0
M  V30 1467 H 132.625 -3.31468 5.9271 0
M  V30 1468 H 130.571 -4.91065 4.34961 0
M  V30 1469 H 130.488 -4.54452 6.0416 0
M  V30 1470 H 131.756 -5.57499 5.44808 0
M  V30 1471 N 135.985 -1.50799 -0.457987 0
M  V30 1472 C 136.932 -1.70617 -1.5543 0
M  V30 1473 C 137.902 -0.547562 -1.56815 0
M  V30 1474 O 139.087 -0.779647 -1.74144 0
M  V30 1475 C 136.227 -1.81831 -2.93311 0
M  V30 1476 C 135.34 -3.09278 -3.01615 0
M  V30 1477 C 134.475 -3.11209 -4.30491 0
M  V30 1478 C 133.514 -4.33055 -4.32585 0
M  V30 1479 N 132.651 -4.32652 -5.52952 0
M  V30 1480 H 137.491 -2.64207 -1.37836 0
M  V30 1481 H 135.028 -1.30959 -0.669937 0
M  V30 1482 H 136.986 -1.86314 -3.73287 0
M  V30 1483 H 135.616 -0.916685 -3.0951 0
M  V30 1484 H 134.668 -3.14203 -2.1443 0
M  V30 1485 H 135.98 -3.99233 -2.99022 0
M  V30 1486 H 135.134 -3.14494 -5.18824 0
M  V30 1487 H 133.873 -2.19106 -4.35711 0
M  V30 1488 H 132.878 -4.29969 -3.42647 0
M  V30 1489 H 134.103 -5.264 -4.29046 0
M  V30 1490 H 132.049 -3.43409 -5.58933 0
M  V30 1491 H 131.966 -5.16392 -5.52155 0
M  V30 1492 H 133.234 -4.40101 -6.43375 0
M  V30 1493 N 137.463 0.71206 -1.40597 0
M  V30 1494 C 138.413 1.81783 -1.37619 0
M  V30 1495 C 139.397 1.58896 -0.253162 0
M  V30 1496 O 140.589 1.70009 -0.492547 0
M  V30 1497 C 137.718 3.19944 -1.24462 0
M  V30 1498 C 136.804 3.48582 -2.4156 0
M  V30 1499 N 137.195 3.48016 -3.67041 0
M  V30 1500 C 135.493 3.79056 -2.35016 0
M  V30 1501 C 136.194 3.75096 -4.44609 0
M  V30 1502 N 135.17 3.94022 -3.74497 0
M  V30 1503 H 138.972 1.79683 -2.32575 0
M  V30 1504 H 136.486 0.91134 -1.34419 0
M  V30 1505 H 138.483 3.99133 -1.20411 0
M  V30 1506 H 137.143 3.23267 -0.304762 0
M  V30 1507 H 138.154 3.28782 -4.00153 0
M  V30 1508 H 134.831 3.89848 -1.49415 0
M  V30 1509 H 136.221 3.80934 -5.53479 0
M  V30 1510 N 138.941 1.26152 0.944643 0
M  V30 1511 C 140.169 1.14259 1.72489 0
M  V30 1512 C 140.584 -0.302555 1.8636 0
M  V30 1513 O 139.941 -1.20741 1.36849 0
M  V30 1514 C 139.992 1.80266 3.13347 0
M  V30 1515 O 139.713 3.19133 3.00143 0
M  V30 1516 C 141.214 1.74283 4.07603 0
M  V30 1517 H 138.434 0.398051 0.540181 0
M  V30 1518 H 140.978 1.66706 1.18446 0
M  V30 1519 H 139.133 1.31766 3.64303 0
M  V30 1520 H 139.547 3.51744 3.89071 0
M  V30 1521 H 141.021 2.25111 5.04013 0
M  V30 1522 H 141.498 0.708631 4.33446 0
M  V30 1523 H 142.104 2.22319 3.62567 0
M  V30 1524 N 140.419 -1.14872 1.07899 0
M  V30 1525 C 141.366 -2.19791 0.704319 0
M  V30 1526 C 142.336 -1.63238 -0.306987 0
M  V30 1527 O 143.521 -1.8983 -0.192171 0
M  V30 1528 C 140.661 -3.44911 0.114244 0
M  V30 1529 C 139.774 -4.15637 1.1777 0
M  V30 1530 C 138.909 -5.28324 0.552037 0
M  V30 1531 C 137.948 -5.90875 1.59789 0
M  V30 1532 N 137.085 -6.95022 0.994404 0
M  V30 1533 H 141.925 -2.5119 1.60336 0
M  V30 1534 H 139.462 -1.23356 0.801352 0
M  V30 1535 H 141.42 -4.16477 -0.245544 0
M  V30 1536 H 140.05 -3.14011 -0.74813 0
M  V30 1537 H 139.102 -3.42512 1.65499 0
M  V30 1538 H 140.414 -4.5823 1.97046 0
M  V30 1539 H 139.568 -6.06538 0.1402 0
M  V30 1540 H 138.307 -4.86939 -0.272431 0
M  V30 1541 H 137.312 -5.11369 2.01945 0
M  V30 1542 H 138.537 -6.34337 2.42474 0
M  V30 1543 H 136.483 -6.55722 0.190939 0
M  V30 1544 H 136.4 -7.36073 1.72432 0
M  V30 1545 H 137.668 -7.77123 0.608253 0
M  V30 1546 N 141.898 -0.863906 -1.31812 0
M  V30 1547 C 142.808 -0.318461 -2.32428 0
M  V30 1548 C 143.824 0.568496 -1.64451 0
M  V30 1549 O 145 0.46666 -1.95919 0
M  V30 1550 C 142.065 0.476355 -3.43412 0
M  V30 1551 C 141.126 -0.43784 -4.27061 0
M  V30 1552 C 140.359 0.319138 -5.32745 0
M  V30 1553 O 140.582 1.54799 -5.48993 0
M  V30 1554 O 139.516 -0.319861 -6.01049 0
M  V30 1555 H 143.342 -1.15229 -2.80991 0
M  V30 1556 H 140.927 -0.627103 -1.35602 0
M  V30 1557 H 142.809 0.927156 -4.11074 0
M  V30 1558 H 141.484 1.28683 -2.97022 0
M  V30 1559 H 140.391 -0.937013 -3.62175 0
M  V30 1560 H 141.724 -1.21375 -4.77 0
M  V30 1561 N 143.376 1.44774 -0.622745 0
M  V30 1562 C 144.623 2.02121 -0.1239 0
M  V30 1563 C 144.951 1.48915 1.25118 0
M  V30 1564 O 144.206 0.660045 1.84233 0
M  V30 1565 C 144.505 3.57364 -0.0508323 0
M  V30 1566 C 144.171 4.29787 -1.36358 0
M  V30 1567 C 142.833 4.4929 -1.72314 0
M  V30 1568 C 145.185 4.71062 -2.23048 0
M  V30 1569 C 142.513 5.07325 -2.94682 0
M  V30 1570 C 144.865 5.30452 -3.44679 0
M  V30 1571 C 143.529 5.48175 -3.80868 0
M  V30 1572 H 142.799 0.739612 -0.0453381 0
M  V30 1573 H 145.446 1.73648 -0.807389 0
M  V30 1574 H 143.751 3.85202 0.715991 0
M  V30 1575 H 145.448 3.99456 0.351533 0
M  V30 1576 H 142.038 4.14932 -1.07375 0
M  V30 1577 H 146.222 4.55715 -1.96565 0
M  V30 1578 H 141.478 5.19235 -3.22809 0
M  V30 1579 H 145.652 5.61385 -4.12092 0
M  V30 1580 H 143.279 5.92912 -4.75773 0
M  V30 1581 N 144.854 0.36279 1.53368 0
M  V30 1582 C 146.265 -0.117022 1.86333 0
M  V30 1583 C 146.616 -1.48397 1.28347 0
M  V30 1584 O 145.741 -2.07787 0.604428 0
M  V30 1585 C 146.336 -0.21912 3.38091 0
M  V30 1586 C 144.895 -0.643184 3.70864 0
M  V30 1587 C 144.042 0.211318 2.76494 0
M  V30 1588 H 146.993 0.581687 1.47655 0
M  V30 1589 H 147.014 -1.04319 3.6592 0
M  V30 1590 H 146.526 0.775902 3.80265 0
M  V30 1591 H 144.627 -1.64654 3.34245 0
M  V30 1592 H 144.74 -0.41973 4.77258 0
M  V30 1593 H 143.104 -0.319367 2.5269 0
M  V30 1594 H 143.887 1.20383 3.21501 0
M  V30 1595 N 146.332 -1.57332 0.0918853 0
M  V30 1596 C 147.56 -1.98574 -0.581048 0
M  V30 1597 C 147.975 -0.970903 -1.61923 0
M  V30 1598 O 147.332 0.0399054 -1.82456 0
M  V30 1599 C 147.383 -3.39872 -1.23164 0
M  V30 1600 O 147.104 -4.37469 -0.234989 0
M  V30 1601 C 148.605 -3.96099 -1.99049 0
M  V30 1602 H 145.825 -0.65261 -0.156018 0
M  V30 1603 H 148.369 -2.0379 0.170225 0
M  V30 1604 H 146.524 -3.35679 -1.93386 0
M  V30 1605 H 146.938 -5.19751 -0.70418 0
M  V30 1606 H 148.412 -4.97127 -2.39934 0
M  V30 1607 H 148.889 -3.3374 -2.85507 0
M  V30 1608 H 149.495 -4.03755 -1.3365 0
M  V30 1609 N 147.81 0.181792 -1.56548 0
M  V30 1610 C 149.087 0.926765 -1.72251 0
M  V30 1611 C 149.467 2.00831 -0.650386 0
M  V30 1612 O 148.815 2.26008 0.336521 0
M  V30 1613 C 149.025 1.50106 -3.1507 0
M  V30 1614 C 150.373 1.97805 -3.75711 0
M  V30 1615 O 151.397 1.59922 -3.18282 0
M  V30 1616 O 150.256 2.67555 -4.76525 0
M  V30 1617 H 147.35 0.435506 -0.703039 0
M  V30 1618 H 149.896 0.170443 -1.68842 0
M  V30 1619 H 148.668 0.72212 -3.84579 0
M  V30 1620 H 148.291 2.32186 -3.22763 0
M  V30 1621 N 149.288 1.51039 0.449983 0
M  V30 1622 C 150.251 1.70863 1.5277 0
M  V30 1623 C 151.251 0.578846 1.5002 0
M  V30 1624 O 152.441 0.846213 1.52266 0
M  V30 1625 C 149.573 1.75341 2.9235 0
M  V30 1626 H 150.766 2.67034 1.36502 0
M  V30 1627 H 148.319 1.40838 0.677812 0
M  V30 1628 H 149.054 0.809383 3.14037 0
M  V30 1629 H 148.839 2.57436 2.95752 0
M  V30 1630 H 150.329 1.92559 3.70555 0
M  V30 1631 N 150.766 -0.704594 1.40972 0
M  V30 1632 C 152.013 -1.46458 1.39844 0
M  V30 1633 C 152.341 -1.94499 0.00447594 0
M  V30 1634 O 151.596 -1.69275 -0.982057 0
M  V30 1635 C 151.895 -2.698 2.34399 0
M  V30 1636 C 151.561 -2.40464 3.81429 0
M  V30 1637 C 150.223 -2.32174 4.21484 0
M  V30 1638 C 152.575 -2.16086 4.74296 0
M  V30 1639 C 149.903 -1.97589 5.52427 0
M  V30 1640 C 152.255 -1.83011 6.05549 0
M  V30 1641 C 150.919 -1.7321 6.44635 0
M  V30 1642 H 150.189 -0.535927 0.511725 0
M  V30 1643 H 152.836 -0.806124 1.73706 0
M  V30 1644 H 151.141 -3.40536 1.93759 0
M  V30 1645 H 152.838 -3.27919 2.30804 0
M  V30 1646 H 149.428 -2.47808 3.49699 0
M  V30 1647 H 153.612 -2.2144 4.4416 0
M  V30 1648 H 148.868 -1.88547 5.81601 0
M  V30 1649 H 153.042 -1.63164 6.77016 0
M  V30 1650 H 150.669 -1.46179 7.46013 0
M  V30 1651 N 152.244 -1.26651 -0.937939 0
M  V30 1652 C 153.492 -1.12165 -1.68118 0
M  V30 1653 C 153.813 0.334983 -1.92101 0
M  V30 1654 O 153.083 1.23583 -1.52 0
M  V30 1655 H 151.663 -0.412093 -0.623048 0
M  V30 1656 H 154.325 -1.59027 -1.12678 0
M  V30 1657 H 153.421 -1.64289 -2.6536 0
M  V30 1658 N 153.722 1.14298 -1.08507 0
M  V30 1659 C 154.999 1.81544 -0.728088 0
M  V30 1660 C 155.379 1.95838 0.78808 0
M  V30 1661 O 154.727 1.51904 1.70697 0
M  V30 1662 C 154.937 3.17169 -1.45619 0
M  V30 1663 C 156.285 3.9265 -1.61591 0
M  V30 1664 O 157.309 3.26762 -1.41793 0
M  V30 1665 O 156.168 5.10807 -1.94263 0
M  V30 1666 H 153.262 0.78491 -0.260471 0
M  V30 1667 H 155.808 1.21307 -1.18671 0
M  V30 1668 H 154.58 3.01934 -2.489 0
M  V30 1669 H 154.203 3.851 -0.989124 0
M  V30 1670 N 155.201 0.870884 1.31352 0
M  V30 1671 C 156.45 0.478408 1.95944 0
M  V30 1672 C 156.763 -0.974493 1.69597 0
M  V30 1673 O 157.969 -1.47316 2.28058 0
M  V30 1674 C 156.425 0.804609 3.50791 0
M  V30 1675 C 156.033 2.27433 3.85977 0
M  V30 1676 C 157.777 0.480648 4.2177 0
M  V30 1677 C 155.684 2.5429 5.33939 0
M  V30 1678 H 154.614 0.175175 0.733369 0
M  V30 1679 H 157.265 1.06391 1.4951 0
M  V30 1680 H 155.647 0.148347 3.95722 0
M  V30 1681 H 156.821 2.97373 3.52002 0
M  V30 1682 H 155.136 2.56442 3.28065 0
M  V30 1683 H 157.733 0.658519 5.30629 0
M  V30 1684 H 158.076 -0.578979 4.12254 0
M  V30 1685 H 158.609 1.09349 3.82476 0
M  V30 1686 H 155.348 3.58939 5.48491 0
M  V30 1687 H 154.868 1.88945 5.69263 0
M  V30 1688 H 156.547 2.39066 6.01212 0
M  V30 1689 N 156.679 -1.44442 0.630414 0
M  V30 1690 C 157.611 -2.2892 -0.113347 0
M  V30 1691 C 158.624 -1.41243 -0.80959 0
M  V30 1692 O 159.813 -1.65402 -0.671156 0
M  V30 1693 C 156.913 -3.17594 -1.18266 0
M  V30 1694 C 156.086 -4.33682 -0.569073 0
M  V30 1695 C 155.145 -5.03397 -1.53226 0
M  V30 1696 O 154.171 -5.59438 -1.04967 0
M  V30 1697 N 155.373 -5.04783 -2.86661 0
M  V30 1698 H 158.138 -2.93392 0.611636 0
M  V30 1699 H 155.699 -1.54881 0.471523 0
M  V30 1700 H 157.691 -3.61097 -1.82732 0
M  V30 1701 H 156.261 -2.54876 -1.80988 0
M  V30 1702 H 155.481 -3.9338 0.254187 0
M  V30 1703 H 156.769 -5.08608 -0.139767 0
M  V30 1704 H 156.167 -4.60584 -3.28449 0
M  V30 1705 H 154.724 -5.52077 -3.46489 0
M  V30 1706 N 158.157 -0.370918 -1.53173 0
M  V30 1707 C 159.404 0.217102 -2.01333 0
M  V30 1708 C 159.732 1.48338 -1.25802 0
M  V30 1709 O 158.987 1.92698 -0.34146 0
M  V30 1710 C 159.286 0.549696 -3.53147 0
M  V30 1711 C 158.952 -0.622872 -4.46577 0
M  V30 1712 C 157.614 -0.944595 -4.71838 0
M  V30 1713 C 159.966 -1.40819 -5.01816 0
M  V30 1714 C 157.294 -2.05351 -5.49589 0
M  V30 1715 C 159.646 -2.50757 -5.80778 0
M  V30 1716 C 158.31 -2.83458 -6.04324 0
M  V30 1717 H 157.58 0.0794431 -0.736729 0
M  V30 1718 H 160.227 -0.504481 -1.84736 0
M  V30 1719 H 158.532 1.35237 -3.6772 0
M  V30 1720 H 160.229 1.017 -3.87889 0
M  V30 1721 H 156.819 -0.36209 -4.27068 0
M  V30 1722 H 161.003 -1.17289 -4.82242 0
M  V30 1723 H 156.259 -2.3108 -5.6605 0
M  V30 1724 H 160.433 -3.12022 -6.22588 0
M  V30 1725 H 158.06 -3.69508 -6.64355 0
M  V30 1726 N 159.635 1.57281 -0.100228 0
M  V30 1727 C 160.545 2.17833 0.870965 0
M  V30 1728 C 161.561 1.14921 1.30649 0
M  V30 1729 O 162.737 1.47313 1.37335 0
M  V30 1730 C 159.802 2.75085 2.1102 0
M  V30 1731 C 158.863 3.9297 1.72838 0
M  V30 1732 C 158.096 4.47482 2.90854 0
M  V30 1733 O 158.319 4.00922 4.05731 0
M  V30 1734 O 157.253 5.38433 2.69023 0
M  V30 1735 H 161.079 3.0124 0.38575 0
M  V30 1736 H 158.664 1.48881 0.124397 0
M  V30 1737 H 160.546 3.11656 2.83634 0
M  V30 1738 H 159.221 1.94721 2.58584 0
M  V30 1739 H 158.128 3.61201 0.973883 0
M  V30 1740 H 159.461 4.74713 1.30033 0
M  V30 1741 N 161.113 -0.173488 1.56642 0
M  V30 1742 C 162.341 -0.906095 1.86004 0
M  V30 1743 C 162.756 -1.75921 0.685355 0
M  V30 1744 O 162.113 -1.79198 -0.345578 0
M  V30 1745 C 162.164 -1.78462 3.14378 0
M  V30 1746 O 161.885 -0.965914 4.27319 0
M  V30 1747 C 163.386 -2.62707 3.57071 0
M  V30 1748 H 160.606 -0.263341 0.617165 0
M  V30 1749 H 163.15 -0.174236 2.03756 0
M  V30 1750 H 161.305 -2.46984 2.98459 0
M  V30 1751 H 161.719 -1.56655 5.00559 0
M  V30 1752 H 163.193 -3.19969 4.49804 0
M  V30 1753 H 163.67 -3.37472 2.81086 0
M  V30 1754 H 164.276 -1.99521 3.75595 0
M  V30 1755 N 162.591 -1.51276 -0.441967 0
M  V30 1756 C 163.521 -1.752 -1.54361 0
M  V30 1757 C 164.502 -0.601682 -1.59103 0
M  V30 1758 O 165.687 -0.843913 -1.74905 0
M  V30 1759 C 162.817 -1.87282 -2.92477 0
M  V30 1760 C 161.771 -3.02687 -3.02596 0
M  V30 1761 C 161.097 -2.99947 -4.42647 0
M  V30 1762 C 162.397 -4.4273 -2.77106 0
M  V30 1763 H 164.091 -2.67442 -1.34592 0
M  V30 1764 H 161.637 -1.28694 -0.646048 0
M  V30 1765 H 163.59 -2.02602 -3.695 0
M  V30 1766 H 162.314 -0.916844 -3.13467 0
M  V30 1767 H 160.973 -2.87065 -2.28012 0
M  V30 1768 H 160.621 -2.02136 -4.60597 0
M  V30 1769 H 160.321 -3.77439 -4.50348 0
M  V30 1770 H 161.845 -3.17354 -5.2165 0
M  V30 1771 H 163.259 -4.58727 -3.43864 0
M  V30 1772 H 161.656 -5.21893 -2.96222 0
M  V30 1773 H 162.726 -4.53087 -1.72744 0
M  V30 1774 N 164.069 0.697108 -1.41344 0
M  V30 1775 C 165.317 1.45426 -1.40341 0
M  V30 1776 C 165.638 1.94996 -0.0128787 0
M  V30 1777 O 164.908 1.71599 0.945027 0
M  V30 1778 H 163.488 0.539594 -0.516573 0
M  V30 1779 H 166.15 0.825201 -1.76569 0
M  V30 1780 H 165.246 2.31817 -2.08967 0
M  V30 1781 N 165.547 1.27147 0.931209 0
M  V30 1782 C 166.494 1.09568 2.03134 0
M  V30 1783 C 167.464 -0.00222433 1.661 0
M  V30 1784 O 168.649 0.159439 1.90133 0
M  V30 1785 C 165.789 0.745231 3.36957 0
M  V30 1786 C 164.902 1.92041 3.86968 0
M  V30 1787 C 164.037 1.51216 5.09222 0
M  V30 1788 C 163.076 2.65504 5.5152 0
M  V30 1789 N 162.213 2.25291 6.64972 0
M  V30 1790 H 167.053 2.03708 2.17502 0
M  V30 1791 H 164.59 1.01411 1.06556 0
M  V30 1792 H 166.548 0.522878 4.1391 0
M  V30 1793 H 165.178 -0.159202 3.22407 0
M  V30 1794 H 164.23 2.25541 3.06326 0
M  V30 1795 H 165.542 2.77787 4.1429 0
M  V30 1796 H 164.696 1.25084 5.93666 0
M  V30 1797 H 163.435 0.625749 4.83669 0
M  V30 1798 H 162.44 2.92354 4.65628 0
M  V30 1799 H 163.665 3.54761 5.7907 0
M  V30 1800 H 161.611 1.39098 6.41083 0
M  V30 1801 H 161.528 3.04577 6.91931 0
M  V30 1802 H 162.796 2.02398 7.52765 0
M  V30 1803 N 167.025 -1.13721 1.09112 0
M  V30 1804 C 167.972 -2.19031 0.727591 0
M  V30 1805 C 168.942 -1.63555 -0.289656 0
M  V30 1806 O 170.127 -1.90023 -0.172026 0
M  V30 1807 C 167.267 -3.4477 0.15082 0
M  V30 1808 C 166.38 -4.14365 1.22172 0
M  V30 1809 C 165.515 -5.27709 0.608042 0
M  V30 1810 C 164.554 -5.89147 1.66047 0
M  V30 1811 N 163.691 -6.93929 1.06806 0
M  V30 1812 H 168.531 -2.49475 1.62991 0
M  V30 1813 H 166.068 -1.22499 0.81439 0
M  V30 1814 H 168.026 -4.16714 -0.201358 0
M  V30 1815 H 166.656 -3.14787 -0.714783 0
M  V30 1816 H 165.708 -3.40737 1.69122 0
M  V30 1817 H 167.02 -4.56114 2.01895 0
M  V30 1818 H 166.174 -6.06355 0.204523 0
M  V30 1819 H 164.913 -4.872 -0.220769 0
M  V30 1820 H 163.918 -5.09198 2.07357 0
M  V30 1821 H 165.143 -6.31729 2.49189 0
M  V30 1822 H 163.089 -6.55483 0.260476 0
M  V30 1823 H 163.006 -7.34202 1.8023 0
M  V30 1824 H 164.274 -7.76434 0.690644 0
M  V30 1825 N 168.503 -0.877838 -1.30888 0
M  V30 1826 C 169.751 -0.491723 -1.96027 0
M  V30 1827 C 170.072 0.960827 -1.69685 0
M  V30 1828 O 169.342 1.67462 -1.01654 0
M  V30 1829 H 167.922 -0.17885 -0.725273 0
M  V30 1830 H 170.584 -1.11935 -1.59551 0
M  V30 1831 H 169.68 -0.656016 -3.05128 0
M  V30 1832 N 169.982 1.44106 -0.638065 0
M  V30 1833 C 170.929 2.30715 0.062701 0
M  V30 1834 C 171.899 1.43882 0.829883 0
M  V30 1835 O 173.084 1.72775 0.809532 0
M  V30 1836 C 170.224 3.29258 1.03358 0
M  V30 1837 C 169.337 4.31192 0.26409 0
M  V30 1838 C 168.472 5.16825 1.22741 0
M  V30 1839 C 167.511 6.10462 0.447475 0
M  V30 1840 N 166.648 6.8877 1.36161 0
M  V30 1841 H 171.488 2.90096 -0.681781 0
M  V30 1842 H 169.025 1.42925 -0.347988 0
M  V30 1843 H 170.983 3.84886 1.60992 0
M  V30 1844 H 169.613 2.71562 1.74511 0
M  V30 1845 H 168.665 3.77981 -0.428295 0
M  V30 1846 H 169.977 4.97619 -0.343052 0
M  V30 1847 H 169.131 5.77004 1.87487 0
M  V30 1848 H 167.87 4.50488 1.86847 0
M  V30 1849 H 166.875 5.49386 -0.213433 0
M  V30 1850 H 168.1 6.78837 -0.188968 0
M  V30 1851 H 166.046 6.25096 1.98975 0
M  V30 1852 H 165.963 7.51663 0.808656 0
M  V30 1853 H 167.231 7.53467 1.99769 0
M  V30 1854 N 171.46 0.379036 1.52974 0
M  V30 1855 C 172.69 -0.20649 2.05566 0
M  V30 1856 C 173.098 -1.41906 1.25137 0
M  V30 1857 O 172.441 -1.81421 0.288464 0
M  V30 1858 C 172.503 -0.651086 3.53555 0
M  V30 1859 C 172.167 0.446626 4.54812 0
M  V30 1860 C 173.164 1.30079 5.03364 0
M  V30 1861 C 170.849 0.610719 4.98573 0
M  V30 1862 C 172.843 2.30426 5.94292 0
M  V30 1863 C 170.53 1.61754 5.89304 0
M  V30 1864 C 171.528 2.46274 6.37054 0
M  V30 1865 O 171.216 3.45237 7.25994 0
M  V30 1866 H 170.948 -0.0372381 0.674974 0
M  V30 1867 H 173.502 0.539718 1.98182 0
M  V30 1868 H 171.732 -1.44911 3.58522 0
M  V30 1869 H 173.421 -1.16112 3.88938 0
M  V30 1870 H 174.187 1.18527 4.70294 0
M  V30 1871 H 170.066 -0.0374044 4.60985 0
M  V30 1872 H 173.61 2.96432 6.31485 0
M  V30 1873 H 169.507 1.73348 6.21788 0
M  V30 1874 H 170.275 3.41124 7.44027 0
M  V30 1875 N 172.938 -1.57226 0.108567 0
M  V30 1876 C 174.187 -1.94008 -0.551703 0
M  V30 1877 C 174.5 -0.993442 -1.68494 0
M  V30 1878 O 175.706 -1.25551 -2.40726 0
M  V30 1879 C 174.162 -3.44763 -1.03279 0
M  V30 1880 C 173.77 -4.47943 0.0714193 0
M  V30 1881 C 175.514 -3.90483 -1.66503 0
M  V30 1882 C 173.421 -5.89865 -0.425779 0
M  V30 1883 H 172.351 -0.724206 -0.209863 0
M  V30 1884 H 175.002 -1.82547 0.186741 0
M  V30 1885 H 173.384 -3.51422 -1.82533 0
M  V30 1886 H 174.558 -4.52942 0.847365 0
M  V30 1887 H 172.873 -4.11913 0.609669 0
M  V30 1888 H 175.47 -4.93925 -2.04798 0
M  V30 1889 H 175.813 -3.29877 -2.53942 0
M  V30 1890 H 176.346 -3.86581 -0.938074 0
M  V30 1891 H 173.085 -6.54202 0.412316 0
M  V30 1892 H 172.605 -5.88309 -1.16843 0
M  V30 1893 H 174.284 -6.40844 -0.890397 0
M  V30 1894 N 174.416 0.165178 -1.56732 0
M  V30 1895 C 175.832 0.517174 -1.50988 0
M  V30 1896 C 176.032 1.84331 -0.813894 0
M  V30 1897 O 175.088 2.49672 -0.37682 0
M  V30 1898 C 176.401 0.544261 -2.95733 0
M  V30 1899 C 177.949 0.631039 -3.06573 0
M  V30 1900 C 178.424 0.68896 -4.52788 0
M  V30 1901 N 179.915 0.751683 -4.5706 0
M  V30 1902 C 180.65 0.817177 -5.67547 0
M  V30 1903 N 180.146 0.843129 -6.8765 0
M  V30 1904 N 181.939 0.856668 -5.55534 0
M  V30 1905 H 174.09 -0.704318 -2.00382 0
M  V30 1906 H 176.353 -0.254687 -0.913148 0
M  V30 1907 H 176.059 -0.361607 -3.49836 0
M  V30 1908 H 175.933 1.3886 -3.5071 0
M  V30 1909 H 178.32 1.52733 -2.52501 0
M  V30 1910 H 178.401 -0.240095 -2.54671 0
M  V30 1911 H 178.045 -0.2031 -5.07494 0
M  V30 1912 H 177.975 1.57633 -5.02454 0
M  V30 1913 H 180.466 0.739661 -3.70591 0
M  V30 1914 H 180.779 0.894448 -7.67606 0
M  V30 1915 H 179.124 0.811304 -6.90248 0
M  V30 1916 H 182.315 0.833437 -4.60621 0
M  V30 1917 H 182.488 0.904247 -6.4166 0
M  V30 1918 N 175.894 1.51508 0.433938 0
M  V30 1919 C 176.824 1.76016 1.53429 0
M  V30 1920 C 177.805 0.610112 1.58782 0
M  V30 1921 O 178.99 0.853177 1.74455 0
M  V30 1922 C 176.12 1.88831 2.9148 0
M  V30 1923 C 175.074 3.04288 3.00987 0
M  V30 1924 C 174.4 3.0229 4.4105 0
M  V30 1925 C 175.7 4.44193 2.74754 0
M  V30 1926 H 177.394 2.68152 1.33171 0
M  V30 1927 H 174.94 1.29035 0.639214 0
M  V30 1928 H 176.893 2.04559 3.6842 0
M  V30 1929 H 175.617 0.933455 3.12976 0
M  V30 1930 H 174.276 2.8827 2.26486 0
M  V30 1931 H 173.924 2.04576 4.59519 0
M  V30 1932 H 173.624 3.79822 4.4834 0
M  V30 1933 H 175.148 3.20116 5.1996 0
M  V30 1934 H 176.562 4.60544 3.41426 0
M  V30 1935 H 174.959 5.23457 2.9345 0
M  V30 1936 H 176.029 4.53996 1.70339 0
M  V30 1937 N 177.372 -0.689602 1.41712 0
M  V30 1938 C 178.597 -1.48329 1.44959 0
M  V30 1939 C 179.022 -1.8801 0.0581283 0
M  V30 1940 O 178.38 -1.55026 -0.940035 0
M  V30 1941 C 178.428 -2.71835 2.36935 0
M  V30 1942 O 177.532 -3.69549 1.8305 0
M  V30 1943 H 176.873 -0.446199 0.491734 0
M  V30 1944 H 179.403 -0.847127 1.86239 0
M  V30 1945 H 179.413 -3.20076 2.53013 0
M  V30 1946 H 178.088 -2.42291 3.38035 0
M  V30 1947 H 176.665 -3.2851 1.76452 0
M  V30 1948 N 178.85 -1.27639 -0.924453 0
M  V30 1949 C 180.09 -1.15407 -1.68703 0
M  V30 1950 C 180.454 0.294581 -1.89727 0
M  V30 1951 O 181.655 0.539385 -2.63333 0
M  V30 1952 C 179.926 -1.9195 -3.0148 0
M  V30 1953 S 181.485 -1.95969 -3.92609 0
M  V30 1954 H 178.303 -0.411937 -0.579507 0
M  V30 1955 H 180.905 -1.61592 -1.10038 0
M  V30 1956 H 179.609 -2.96387 -2.83871 0
M  V30 1957 H 179.14 -1.46272 -3.65196 0
M  V30 1958 H 181.155 -1.05846 -4.84779 0
M  V30 1959 N 180.328 1.1314 -1.09713 0
M  V30 1960 C 181.605 1.80762 -0.747302 0
M  V30 1961 C 181.985 1.96663 0.767265 0
M  V30 1962 O 181.333 1.53706 1.69076 0
M  V30 1963 C 181.543 3.15606 -1.48975 0
M  V30 1964 C 182.891 3.90914 -1.65746 0
M  V30 1965 O 183.915 3.25239 -1.45251 0
M  V30 1966 O 182.774 5.08718 -1.9967 0
M  V30 1967 H 179.868 0.782103 -0.268782 0
M  V30 1968 H 182.414 1.20041 -1.19951 0
M  V30 1969 H 181.186 2.99278 -2.52088 0
M  V30 1970 H 180.809 3.84029 -1.02991 0
M  V30 1971 N 181.806 0.884767 1.30421 0
M  V30 1972 C 183.034 0.518044 2.0031 0
M  V30 1973 C 183.449 -0.893408 1.66324 0
M  V30 1974 O 182.806 -1.5875 0.900262 0
M  V30 1975 C 182.857 0.682997 3.54989 0
M  V30 1976 O 182.578 2.03888 3.87764 0
M  V30 1977 C 184.079 0.31924 4.42149 0
M  V30 1978 H 181.299 0.200265 0.640418 0
M  V30 1979 H 183.843 1.19001 1.6631 0
M  V30 1980 H 181.998 0.0584052 3.87356 0
M  V30 1981 H 182.412 2.05735 4.82466 0
M  V30 1982 H 183.886 0.485555 5.4986 0
M  V30 1983 H 184.363 -0.742717 4.32875 0
M  V30 1984 H 184.969 0.920147 4.15227 0
M  V30 1985 N 183.284 -1.43765 0.645699 0
M  V30 1986 C 184.561 -1.9541 0.0862963 0
M  V30 1987 C 184.941 -1.58725 -1.39175 0
M  V30 1988 O 184.289 -0.868581 -2.11348 0
M  V30 1989 C 184.499 -3.47488 0.324565 0
M  V30 1990 C 185.847 -4.24001 0.225497 0
M  V30 1991 O 186.871 -3.55274 0.256715 0
M  V30 1992 O 185.73 -5.46313 0.142801 0
M  V30 1993 H 182.824 -0.826882 -0.0139483 0
M  V30 1994 H 185.37 -1.53743 0.718415 0
M  V30 1995 H 184.142 -3.67289 1.3496 0
M  V30 1996 H 183.765 -3.96135 -0.340987 0
M  V30 1997 N 184.763 -0.387143 -1.52771 0
M  V30 1998 C 185.726 0.436939 -2.24997 0
M  V30 1999 C 186.726 0.991991 -1.26555 0
M  V30 2000 O 187.916 0.874335 -1.50669 0
M  V30 2001 C 185.048 1.61281 -3.00335 0
M  V30 2002 H 186.241 -0.195365 -2.99263 0
M  V30 2003 H 183.794 -0.139218 -1.55679 0
M  V30 2004 H 184.529 2.2826 -2.30364 0
M  V30 2005 H 184.314 1.22154 -3.72587 0
M  V30 2006 H 185.804 2.19629 -3.5518 0
M  V30 2007 N 186.241 1.57166 -0.116904 0
M  V30 2008 C 187.151 2.18745 0.847812 0
M  V30 2009 C 188.167 1.163 1.29423 0
M  V30 2010 O 189.343 1.48761 1.35765 0
M  V30 2011 C 186.408 2.77307 2.0809 0
M  V30 2012 C 185.469 3.94781 1.68661 0
M  V30 2013 C 184.702 4.50541 2.86091 0
M  V30 2014 O 184.925 4.05202 4.01456 0
M  V30 2015 O 183.859 5.41256 2.63298 0
M  V30 2016 H 187.685 3.01632 0.353778 0
M  V30 2017 H 185.27 1.49005 0.108599 0
M  V30 2018 H 187.152 3.14647 2.80313 0
M  V30 2019 H 185.827 1.97452 2.56504 0
M  V30 2020 H 184.734 3.62214 0.935518 0
M  V30 2021 H 186.067 4.76065 1.24991 0
M  V30 2022 N 187.719 -0.156864 1.56817 0
M  V30 2023 C 188.968 -0.869504 1.81996 0
M  V30 2024 C 189.281 -1.82777 0.696545 0
M  V30 2025 O 190.487 -2.58384 0.833658 0
M  V30 2026 C 188.943 -1.59679 3.22538 0
M  V30 2027 C 188.551 -0.681431 4.42787 0
M  V30 2028 C 190.295 -2.2968 3.56997 0
M  V30 2029 C 188.202 -1.40978 5.74351 0
M  V30 2030 H 187.132 -0.328438 0.678708 0
M  V30 2031 H 189.783 -0.1223 1.83092 0
M  V30 2032 H 188.165 -2.38927 3.158 0
M  V30 2033 H 189.339 0.0751166 4.60739 0
M  V30 2034 H 187.654 -0.0903431 4.16302 0
M  V30 2035 H 190.251 -2.84794 4.52544 0
M  V30 2036 H 190.594 -3.05707 2.82576 0
M  V30 2037 H 191.127 -1.57361 3.65352 0
M  V30 2038 H 187.866 -0.691561 6.51842 0
M  V30 2039 H 187.386 -2.13929 5.60352 0
M  V30 2040 H 189.065 -1.95337 6.16808 0
M  V30 2041 N 189.197 -1.51736 -0.425897 0
M  V30 2042 C 190.127 -1.76827 -1.52494 0
M  V30 2043 C 191.108 -0.618524 -1.58456 0
M  V30 2044 O 192.293 -0.862416 -1.74 0
M  V30 2045 C 189.423 -1.90374 -2.90474 0
M  V30 2046 C 188.377 -3.0588 -2.99369 0
M  V30 2047 C 187.703 -3.04625 -4.3944 0
M  V30 2048 C 189.003 -4.45644 -2.72394 0
M  V30 2049 H 190.697 -2.68855 -1.31748 0
M  V30 2050 H 188.243 -1.29372 -0.632362 0
M  V30 2051 H 190.196 -2.0651 -3.6733 0
M  V30 2052 H 188.92 -0.95004 -3.12477 0
M  V30 2053 H 187.579 -2.89467 -2.24954 0
M  V30 2054 H 187.227 -2.0701 -4.58428 0
M  V30 2055 H 186.927 -3.82195 -4.46319 0
M  V30 2056 H 188.451 -3.22869 -5.18255 0
M  V30 2057 H 189.865 -4.62348 -3.38979 0
M  V30 2058 H 188.262 -5.25006 -2.9067 0
M  V30 2059 H 189.332 -4.54893 -1.67929 0
M  V30 2060 N 190.675 0.682077 -1.42076 0
M  V30 2061 C 191.905 1.46844 -1.45329 0
M  V30 2062 C 192.313 1.89102 -0.0609328 0
M  V30 2063 O 191.656 1.58238 0.933082 0
M  V30 2064 C 191.718 2.75375 -2.31104 0
M  V30 2065 C 191.382 2.55238 -3.79081 0
M  V30 2066 C 192.379 2.20309 -4.70914 0
M  V30 2067 C 190.064 2.70459 -4.2327 0
M  V30 2068 C 192.058 2.00859 -6.04925 0
M  V30 2069 C 189.745 2.50624 -5.57343 0
M  V30 2070 C 190.743 2.15876 -6.47986 0
M  V30 2071 O 190.431 1.96227 -7.79583 0
M  V30 2072 H 190.163 0.4586 -0.496651 0
M  V30 2073 H 192.717 0.846131 -1.87162 0
M  V30 2074 H 190.947 3.40061 -1.84107 0
M  V30 2075 H 192.636 3.37231 -2.25898 0
M  V30 2076 H 193.402 2.08153 -4.38061 0
M  V30 2077 H 189.281 2.96485 -3.53012 0
M  V30 2078 H 192.825 1.7366 -6.75639 0
M  V30 2079 H 188.722 2.62375 -5.89771 0
M  V30 2080 H 189.49 2.10883 -7.90867 0
M  V30 2081 N 192.153 1.28127 0.917671 0
M  V30 2082 C 193.063 1.13556 2.05286 0
M  V30 2083 C 194.079 0.0630914 1.73886 0
M  V30 2084 O 195.255 0.271598 1.9956 0
M  V30 2085 C 192.32 0.794676 3.3747 0
M  V30 2086 C 191.381 1.94909 3.82504 0
M  V30 2087 C 190.614 1.62437 5.0838 0
M  V30 2088 O 190.837 0.536905 5.67867 0
M  V30 2089 O 189.771 2.46677 5.4903 0
M  V30 2090 H 193.597 2.08844 2.20495 0
M  V30 2091 H 191.182 1.07409 1.03845 0
M  V30 2092 H 193.064 0.618344 4.16839 0
M  V30 2093 H 191.739 -0.128581 3.23445 0
M  V30 2094 H 190.646 2.18055 3.03978 0
M  V30 2095 H 191.979 2.85291 4.01086 0
M  V30 2096 N 193.631 -1.12557 1.10312 0
M  V30 2097 C 194.561 -2.20341 0.772798 0
M  V30 2098 C 195.542 -1.68198 -0.25365 0
M  V30 2099 O 196.727 -1.93831 -0.119699 0
M  V30 2100 C 193.857 -3.46709 0.202443 0
M  V30 2101 C 192.811 -4.11996 1.15943 0
M  V30 2102 C 192.137 -5.328 0.450345 0
M  V30 2103 C 193.437 -4.5828 2.50552 0
M  V30 2104 H 195.131 -2.48229 1.674 0
M  V30 2105 H 192.677 -1.19308 0.806326 0
M  V30 2106 H 194.63 -4.2138 -0.0407752 0
M  V30 2107 H 193.354 -3.18245 -0.734001 0
M  V30 2108 H 192.013 -3.39305 1.38808 0
M  V30 2109 H 191.661 -5.00602 -0.490531 0
M  V30 2110 H 191.361 -5.7743 1.08851 0
M  V30 2111 H 192.885 -6.10219 0.215642 0
M  V30 2112 H 194.299 -5.2433 2.31843 0
M  V30 2113 H 192.696 -5.13683 3.10242 0
M  V30 2114 H 193.766 -3.72329 3.10643 0
M  V30 2115 N 195.109 -0.891671 -1.2995 0
M  V30 2116 C 196.039 -0.379797 -2.30391 0
M  V30 2117 C 197.02 0.540919 -1.6127 0
M  V30 2118 O 198.205 0.453352 -1.88834 0
M  V30 2119 C 195.335 0.400654 -3.44981 0
M  V30 2120 C 194.289 -0.428905 -4.25846 0
M  V30 2121 C 193.615 0.478557 -5.32554 0
M  V30 2122 C 194.915 -1.67458 -4.94727 0
M  V30 2123 H 196.609 -1.21914 -2.73454 0
M  V30 2124 H 194.155 -0.587675 -1.31462 0
M  V30 2125 H 196.108 0.769434 -4.14316 0
M  V30 2126 H 194.832 1.27371 -3.0074 0
M  V30 2127 H 193.491 -0.779911 -3.58208 0
M  V30 2128 H 193.139 1.34951 -4.84559 0
M  V30 2129 H 192.839 -0.0727433 -5.87555 0
M  V30 2130 H 194.363 0.843705 -6.04743 0
M  V30 2131 H 195.777 -1.376 -5.56542 0
M  V30 2132 H 194.174 -2.16659 -5.59624 0
M  V30 2133 H 195.244 -2.41518 -4.20473 0
M  V30 2134 N 196.587 1.43421 -0.653314 0
M  V30 2135 C 197.815 2.06163 -0.174491 0
M  V30 2136 C 198.23 1.48969 1.1599 0
M  V30 2137 O 197.587 0.621042 1.71608 0
M  V30 2138 C 197.638 3.61417 -0.0774865 0
M  V30 2139 O 197.359 4.16485 -1.35912 0
M  V30 2140 C 198.86 4.41235 0.427402 0
M  V30 2141 H 196.08 0.664946 -0.0899353 0
M  V30 2142 H 198.624 1.83924 -0.893988 0
M  V30 2143 H 196.779 3.82841 0.59257 0
M  V30 2144 H 197.193 5.10153 -1.21839 0
M  V30 2145 H 198.667 5.5021 0.44423 0
M  V30 2146 H 199.144 4.14268 1.45873 0
M  V30 2147 H 199.75 4.2478 -0.210167 0
M  V30 2148 N 198.065 0.39524 1.52563 0
M  V30 2149 C 198.997 -0.472201 2.24283 0
M  V30 2150 C 200.01 -1.02178 1.26742 0
M  V30 2151 O 201.199 -0.923097 1.52778 0
M  V30 2152 C 198.299 -1.66775 2.95024 0
M  V30 2153 C 197.472 -1.2445 4.19322 0
M  V30 2154 C 196.531 -2.30539 4.7301 0
M  V30 2155 O 195.557 -1.91702 5.35947 0
M  V30 2156 N 196.759 -3.6253 4.53379 0
M  V30 2157 H 199.524 0.142282 2.99362 0
M  V30 2158 H 197.085 0.2219 1.60372 0
M  V30 2159 H 199.077 -2.37283 3.27839 0
M  V30 2160 H 197.647 -2.18845 2.23217 0
M  V30 2161 H 196.867 -0.368069 3.92478 0
M  V30 2162 H 198.155 -0.938457 5.0007 0
M  V30 2163 H 197.553 -3.96841 4.03154 0
M  V30 2164 H 196.11 -4.29055 4.90668 0
M  V30 2165 N 199.544 -1.57102 0.125237 0
M  V30 2166 C 200.494 -2.12202 -0.833936 0
M  V30 2167 C 201.478 -1.04433 -1.22403 0
M  V30 2168 O 202.67 -1.30655 -1.19408 0
M  V30 2169 C 199.799 -2.72994 -2.08157 0
M  V30 2170 C 198.885 -3.87852 -1.71556 0
M  V30 2171 N 199.276 -4.9464 -1.05662 0
M  V30 2172 C 197.574 -3.98153 -2.00973 0
M  V30 2173 C 198.275 -5.74953 -0.883376 0
M  V30 2174 N 197.251 -5.24985 -1.41036 0
M  V30 2175 H 201.053 -2.92141 -0.321035 0
M  V30 2176 H 198.567 -1.62217 -0.0770315 0
M  V30 2177 H 200.564 -3.10816 -2.77847 0
M  V30 2178 H 199.224 -1.9452 -2.59985 0
M  V30 2179 H 200.235 -5.12872 -0.719878 0
M  V30 2180 H 196.912 -3.30728 -2.54804 0
M  V30 2181 H 198.302 -6.70904 -0.365675 0
M  V30 2182 N 201.022 0.148545 -1.56898 0
M  V30 2183 C 202.268 0.857877 -1.84424 0
M  V30 2184 C 202.623 1.7886 -0.709006 0
M  V30 2185 O 201.916 1.89344 0.293139 0
M  V30 2186 C 202.11 1.67064 -3.1595 0
M  V30 2187 C 201.939 0.82011 -4.42159 0
M  V30 2188 C 200.709 0.486328 -5.02954 0
M  V30 2189 C 202.907 0.151155 -5.14078 0
M  V30 2190 N 200.889 -0.377956 -6.12735 0
M  V30 2191 C 202.26 -0.573333 -6.17343 0
M  V30 2192 C 204.315 0.0716685 -4.97848 0
M  V30 2193 C 203.018 -1.3698 -7.06137 0
M  V30 2194 C 205.044 -0.711532 -5.87104 0
M  V30 2195 C 204.406 -1.42431 -6.8985 0
M  V30 2196 H 200.505 0.291798 -0.725519 0
M  V30 2197 H 203.089 0.123347 -1.94309 0
M  V30 2198 H 201.26 2.37642 -3.07215 0
M  V30 2199 H 202.992 2.32302 -3.31388 0
M  V30 2200 H 199.747 0.821753 -4.66416 0
M  V30 2201 H 200.171 -0.801077 -6.72244 0
M  V30 2202 H 204.813 0.608381 -4.184 0
M  V30 2203 H 202.531 -1.91778 -7.85014 0
M  V30 2204 H 206.117 -0.775005 -5.76615 0
M  V30 2205 H 204.997 -2.02061 -7.57721 0
M  V30 2206 N 202.5 1.5196 0.417844 0
M  V30 2207 C 203.45 1.7106 1.5074 0
M  V30 2208 C 204.434 0.564487 1.50673 0
M  V30 2209 O 205.626 0.821206 1.56797 0
M  V30 2210 C 202.755 1.85677 2.88754 0
M  V30 2211 C 201.841 3.06133 2.93502 0
M  V30 2212 N 202.232 4.28987 2.67962 0
M  V30 2213 C 200.53 3.05787 3.24669 0
M  V30 2214 C 201.231 5.10395 2.79055 0
M  V30 2215 N 200.207 4.45455 3.11561 0
M  V30 2216 H 204.009 2.63696 1.29775 0
M  V30 2217 H 201.523 1.49873 0.625436 0
M  V30 2218 H 203.52 1.97475 3.67164 0
M  V30 2219 H 202.18 0.942348 3.10725 0
M  V30 2220 H 203.191 4.57607 2.4252 0
M  V30 2221 H 199.868 2.2405 3.52289 0
M  V30 2222 H 201.258 6.18247 2.63097 0
M  V30 2223 N 203.978 -0.674533 1.42435 0
M  V30 2224 C 204.908 -1.80009 1.48724 0
M  V30 2225 C 205.889 -1.6659 0.343793 0
M  V30 2226 O 207.074 -1.86007 0.558137 0
M  V30 2227 C 204.204 -3.18306 1.38919 0
M  V30 2228 C 203.158 -3.46461 2.51294 0
M  V30 2229 C 202.484 -4.84335 2.26547 0
M  V30 2230 C 203.784 -3.43328 3.93603 0
M  V30 2231 H 205.478 -1.75004 2.42928 0
M  V30 2232 H 203.024 -0.840533 1.16923 0
M  V30 2233 H 204.977 -3.9678 1.41927 0
M  V30 2234 H 203.701 -3.2399 0.412094 0
M  V30 2235 H 202.36 -2.70348 2.47604 0
M  V30 2236 H 202.008 -4.86669 1.2713 0
M  V30 2237 H 201.708 -5.04136 3.01861 0
M  V30 2238 H 203.232 -5.65094 2.31304 0
M  V30 2239 H 204.646 -4.11772 3.98894 0
M  V30 2240 H 203.043 -3.74664 4.68771 0
M  V30 2241 H 204.113 -2.41897 4.20255 0
M  V30 2242 N 205.456 -1.28612 -0.910864 0
M  V30 2243 C 206.403 -1.12786 -2.01365 0
M  V30 2244 C 207.373 -0.024201 -1.66082 0
M  V30 2245 O 208.558 -0.189667 -1.89855 0
M  V30 2246 C 205.698 -0.798743 -3.35729 0
M  V30 2247 C 204.811 -1.98173 -3.83864 0
M  V30 2248 C 203.946 -1.59298 -5.06752 0
M  V30 2249 C 202.985 -2.74245 -5.47226 0
M  V30 2250 N 202.122 -2.35842 -6.61304 0
M  V30 2251 H 206.962 -2.07142 -2.14234 0
M  V30 2252 H 204.499 -1.03093 -1.0493 0
M  V30 2253 H 206.457 -0.588662 -4.13026 0
M  V30 2254 H 205.087 0.10789 -3.2262 0
M  V30 2255 H 204.139 -2.30386 -3.02699 0
M  V30 2256 H 205.451 -2.84343 -4.09818 0
M  V30 2257 H 204.605 -1.34513 -5.916 0
M  V30 2258 H 203.344 -0.702618 -4.82612 0
M  V30 2259 H 202.349 -2.99725 -4.60918 0
M  V30 2260 H 203.574 -3.63928 -5.73353 0
M  V30 2261 H 201.52 -1.49279 -6.38789 0
M  V30 2262 H 201.437 -3.15546 -6.86998 0
M  V30 2263 H 202.705 -2.14348 -7.4945 0
M  V30 2264 N 206.934 1.1197 -1.10907 0
M  V30 2265 C 208.162 1.87402 -0.876824 0
M  V30 2266 C 208.577 1.79894 0.573025 0
M  V30 2267 O 207.934 1.17629 1.39534 0
M  V30 2268 C 207.985 3.36428 -1.32282 0
M  V30 2269 O 207.706 3.43765 -2.71582 0
M  V30 2270 C 209.207 4.28783 -1.12518 0
M  V30 2271 H 206.427 0.592793 -0.314384 0
M  V30 2272 H 208.971 1.41649 -1.47499 0
M  V30 2273 H 207.126 3.79706 -0.768229 0
M  V30 2274 H 207.54 4.3652 -2.90776 0
M  V30 2275 H 209.014 5.31613 -1.48633 0
M  V30 2276 H 209.491 4.39153 -0.0642394 0
M  V30 2277 H 210.097 3.91291 -1.66648 0
M  V30 2278 N 208.412 0.89855 1.29475 0
M  V30 2279 C 209.823 0.572537 1.77705 0
M  V30 2280 C 210.174 -0.911778 1.73727 0
M  V30 2281 O 209.299 -1.71288 1.32247 0
M  V30 2282 C 209.894 1.03252 3.22683 0
M  V30 2283 C 208.453 0.757687 3.68695 0
M  V30 2284 C 207.6 1.20787 2.49612 0
M  V30 2285 H 210.551 1.08139 1.16153 0
M  V30 2286 H 210.572 0.367307 3.78723 0
M  V30 2287 H 210.084 2.11285 3.25546 0
M  V30 2288 H 208.185 -0.310079 3.71308 0
M  V30 2289 H 208.298 1.35476 4.59547 0
M  V30 2290 H 206.662 0.626888 2.46865 0
M  V30 2291 H 207.445 2.29622 2.55203 0
M  V30 2292 N 209.89 -1.43072 0.660911 0
M  V30 2293 C 210.838 -2.32569 -0.0378199 0
M  V30 2294 C 211.832 -1.49046 -0.805092 0
M  V30 2295 O 213.038 -1.65206 -0.714624 0
M  V30 2296 H 209.413 -0.75136 -0.031019 0
M  V30 2297 H 211.384 -2.89216 0.734609 0
M  V30 2298 C 210.133 -3.33453 -0.985124 0
M  V30 2299 H 209.456 -3.97752 -0.404147 0
M  V30 2300 H 210.896 -3.98691 -1.44297 0
M  V30 2301 C 209.355 -2.64642 -2.08486 0
M  V30 2302 O 209.885 -2.46776 -3.16961 0
M  V30 2303 N 208.091 -2.23891 -1.8526 0
M  V30 2304 H 207.638 -2.38621 -0.970449 0
M  V30 2305 H 207.596 -1.78181 -2.59034 0
M  V30 2306 N 211.368 -0.403325 -1.52352 0
M  V30 2307 C 212.298 0.416205 -2.29761 0
M  V30 2308 C 213.279 1.05123 -1.33728 0
M  V30 2309 O 214.464 1.06134 -1.62632 0
M  V30 2310 C 211.594 1.53624 -3.11475 0
M  V30 2311 C 210.548 1.02653 -4.15507 0
M  V30 2312 C 209.874 2.23971 -4.85532 0
M  V30 2313 C 211.174 0.08463 -5.22231 0
M  V30 2314 H 212.868 -0.229701 -2.98518 0
M  V30 2315 H 210.414 -0.111913 -1.43564 0
M  V30 2316 H 212.367 2.1165 -3.64393 0
M  V30 2317 H 211.091 2.20994 -2.40477 0
M  V30 2318 H 209.75 0.46871 -3.63591 0
M  V30 2319 H 209.398 2.89883 -4.11068 0
M  V30 2320 H 209.098 1.90521 -5.55856 0
M  V30 2321 H 210.622 2.82614 -5.41259 0
M  V30 2322 H 212.036 0.573509 -5.70424 0
M  V30 2323 H 210.433 -0.160783 -5.99885 0
M  V30 2324 H 211.503 -0.86237 -4.7717 0
M  V30 2325 N 212.846 1.57033 -0.133567 0
M  V30 2326 C 214.092 1.95976 0.521649 0
M  V30 2327 C 214.425 1.01779 1.65393 0
M  V30 2328 O 213.7 0.0576581 1.94415 0
M  V30 2329 C 213.983 3.44738 1.04057 0
M  V30 2330 C 213.836 4.49711 -0.0892897 0
M  V30 2331 C 215.155 3.95682 1.92675 0
M  V30 2332 H 212.274 0.712579 0.188149 0
M  V30 2333 H 214.916 1.88813 -0.212076 0
M  V30 2334 H 213.066 3.50973 1.66583 0
M  V30 2335 H 214.738 4.55565 -0.725152 0
M  V30 2336 H 212.981 4.27261 -0.750378 0
M  V30 2337 H 213.652 5.51099 0.315284 0
M  V30 2338 H 216.128 3.91841 1.39998 0
M  V30 2339 H 215.004 5.00262 2.25897 0
M  V30 2340 H 215.265 3.37239 2.85872 0
M  V30 2341 N 214.325 -0.140222 1.56975 0
M  V30 2342 C 215.574 -0.850152 1.82908 0
M  V30 2343 C 215.887 -1.82028 0.715892 0
M  V30 2344 O 217.093 -2.57485 0.861016 0
M  V30 2345 C 215.549 -1.5625 3.24213 0
M  V30 2346 C 215.157 -0.63443 4.43485 0
M  V30 2347 C 216.901 -2.25881 3.59413 0
M  V30 2348 C 214.808 -1.34879 5.75814 0
M  V30 2349 H 213.738 -0.321221 0.682153 0
M  V30 2350 H 216.389 -0.102874 1.83211 0
M  V30 2351 H 214.771 -2.35565 3.18316 0
M  V30 2352 H 215.945 0.12398 4.60633 0
M  V30 2353 H 214.26 -0.0461836 4.16374 0
M  V30 2354 H 216.857 -2.79978 4.5554 0
M  V30 2355 H 217.2 -3.02693 2.85802 0
M  V30 2356 H 217.733 -1.53477 3.67001 0
M  V30 2357 H 214.472 -0.622385 6.52539 0
M  V30 2358 H 213.992 -2.07974 5.6259 0
M  V30 2359 H 215.671 -1.88784 6.18845 0
M  V30 2360 N 215.803 -1.52179 -0.40978 0
M  V30 2361 C 217.028 -1.70347 -1.18308 0
M  V30 2362 C 217.453 -0.411887 -1.83535 0
M  V30 2363 O 216.811 0.630587 -1.6998 0
M  V30 2364 C 216.859 -2.83977 -2.22238 0
M  V30 2365 O 215.963 -2.495 -3.28365 0
M  V30 2366 H 215.304 -0.567103 -0.345384 0
M  V30 2367 H 217.834 -1.98879 -0.480445 0
M  V30 2368 H 217.844 -3.0887 -2.66577 0
M  V30 2369 H 216.519 -3.77685 -1.74146 0
M  V30 2370 H 215.096 -2.35277 -2.89308 0
M  V30 2371 N 217.281 0.66697 -1.42791 0
M  V30 2372 C 218.527 1.4291 -1.43891 0
M  V30 2373 C 218.86 1.94114 -0.0578972 0
M  V30 2374 O 218.135 1.71414 0.91911 0
M  V30 2375 C 218.418 2.62049 -2.46987 0
M  V30 2376 C 218.271 2.16426 -3.94309 0
M  V30 2377 C 219.59 3.64266 -2.46978 0
M  V30 2378 H 216.709 0.518306 -0.523954 0
M  V30 2379 H 219.351 0.757321 -1.74255 0
M  V30 2380 H 217.501 3.19361 -2.21225 0
M  V30 2381 H 219.173 1.64221 -4.31079 0
M  V30 2382 H 217.416 1.47925 -4.078 0
M  V30 2383 H 218.087 3.02038 -4.62036 0
M  V30 2384 H 220.563 3.16686 -2.69906 0
M  V30 2385 H 219.439 4.45196 -3.21079 0
M  V30 2386 H 219.7 4.15927 -1.49857 0
M  V30 2387 N 218.759 1.29093 0.90403 0
M  V30 2388 C 219.987 1.19689 1.68766 0
M  V30 2389 C 220.402 -0.243113 1.87228 0
M  V30 2390 O 219.759 -1.16326 1.40621 0
M  V30 2391 C 219.81 1.90144 3.07453 0
M  V30 2392 O 219.531 3.2852 2.89838 0
M  V30 2393 C 221.032 1.87162 4.01852 0
M  V30 2394 H 218.252 0.415035 0.527244 0
M  V30 2395 H 220.796 1.7039 1.13082 0
M  V30 2396 H 218.951 1.43289 3.59926 0
M  V30 2397 H 219.365 3.63944 3.77684 0
M  V30 2398 H 220.839 2.41032 4.96596 0
M  V30 2399 H 221.316 0.84617 4.30972 0
M  V30 2400 H 221.922 2.33741 3.5531 0
M  V30 2401 N 220.237 -1.11381 1.11499 0
M  V30 2402 C 221.485 -1.8277 0.862524 0
M  V30 2403 C 221.806 -1.85097 -0.613534 0
M  V30 2404 O 221.076 -1.32198 -1.4457 0
M  V30 2405 H 219.656 -0.676823 0.316101 0
M  V30 2406 H 222.318 -1.34816 1.4075 0
M  V30 2407 H 221.414 -2.86614 1.23527 0
M  V30 2408 N 221.715 -0.905404 -1.28997 0
M  V30 2409 C 222.963 -0.533192 -1.9494 0
M  V30 2410 C 223.284 0.924618 -1.71685 0
M  V30 2411 O 222.554 1.65268 -1.05183 0
M  V30 2412 H 221.134 -0.194194 -0.721317 0
M  V30 2413 H 223.796 -1.15294 -1.57141 0
M  V30 2414 H 222.892 -0.72059 -3.03667 0
M  V30 2415 N 223.193 1.4272 -0.668489 0
M  V30 2416 C 224.156 2.292 0.00448567 0
M  V30 2417 C 225.156 1.43001 0.735339 0
M  V30 2418 O 226.346 1.64461 0.57429 0
M  V30 2419 C 223.478 3.25375 1.01705 0
M  V30 2420 H 224.671 2.90199 -0.756608 0
M  V30 2421 H 222.224 1.50254 -0.430506 0
M  V30 2422 H 222.959 2.69301 1.80686 0
M  V30 2423 H 222.744 3.88944 0.496463 0
M  V30 2424 H 224.234 3.90245 1.48655 0
M  V30 2425 N 224.671 0.411399 1.52136 0
M  V30 2426 C 225.618 -0.412975 2.27075 0
M  V30 2427 C 226.588 -1.03912 1.29582 0
M  V30 2428 O 227.773 -1.06296 1.58448 0
M  V30 2429 C 224.913 -1.52247 3.09701 0
M  V30 2430 C 224.026 -0.917021 4.22155 0
M  V30 2431 C 223.161 -1.9994 4.92135 0
M  V30 2432 C 222.2 -1.37101 5.96548 0
M  V30 2433 N 221.337 -2.39364 6.60038 0
M  V30 2434 H 226.177 0.232499 2.97092 0
M  V30 2435 H 223.714 0.126496 1.46555 0
M  V30 2436 H 225.672 -2.17674 3.55913 0
M  V30 2437 H 224.302 -2.13794 2.41851 0
M  V30 2438 H 223.354 -0.151742 3.80097 0
M  V30 2439 H 224.666 -0.418006 4.97045 0
M  V30 2440 H 223.82 -2.73088 5.41763 0
M  V30 2441 H 222.559 -2.53208 4.16818 0
M  V30 2442 H 221.564 -0.624873 5.46237 0
M  V30 2443 H 222.789 -0.845998 6.7381 0
M  V30 2444 H 220.735 -2.91759 5.87548 0
M  V30 2445 H 220.652 -1.9428 7.3061 0
M  V30 2446 H 221.92 -3.12074 7.14304 0
M  V30 2447 N 226.149 -1.5696 0.141893 0
M  V30 2448 C 227.097 -2.17784 -0.816874 0
M  V30 2449 C 228.091 -1.1334 -1.25899 0
M  V30 2450 O 229.297 -1.316 -1.22806 0
M  V30 2451 H 225.672 -0.697278 -0.281615 0
M  V30 2452 H 227.643 -2.97087 -0.279621 0
M  V30 2453 C 226.392 -2.80983 -2.04802 0
M  V30 2454 H 225.715 -3.61062 -1.7168 0
M  V30 2455 H 227.155 -3.2705 -2.69841 0
M  V30 2456 C 225.614 -1.79228 -2.8527 0
M  V30 2457 O 226.144 -1.25962 -3.8144 0
M  V30 2458 N 224.35 -1.48647 -2.49704 0
M  V30 2459 H 223.897 -1.92155 -1.71564 0
M  V30 2460 H 223.855 -0.808115 -3.03837 0
M  V30 2461 N 227.627 0.131896 -1.57047 0
M  V30 2462 C 228.874 0.841932 -1.84168 0
M  V30 2463 C 229.202 1.8048 -0.725066 0
M  V30 2464 O 228.457 1.93618 0.284692 0
M  V30 2465 C 228.756 1.63703 -3.17704 0
M  V30 2466 C 228.422 0.81961 -4.43388 0
M  V30 2467 C 227.084 0.594148 -4.77518 0
M  V30 2468 C 229.436 0.248977 -5.20605 0
M  V30 2469 C 226.764 -0.212409 -5.86315 0
M  V30 2470 C 229.116 -0.544701 -6.30251 0
M  V30 2471 C 227.78 -0.780599 -6.6292 0
M  V30 2472 H 227.05 0.308085 -0.673917 0
M  V30 2473 H 229.697 0.104867 -1.91213 0
M  V30 2474 H 228.002 2.44464 -3.06177 0
M  V30 2475 H 229.699 2.19015 -3.35907 0
M  V30 2476 H 226.289 1.00542 -4.16641 0
M  V30 2477 H 230.473 0.410408 -4.946 0
M  V30 2478 H 225.729 -0.404524 -6.1006 0
M  V30 2479 H 229.903 -0.993922 -6.89271 0
M  V30 2480 H 227.53 -1.40742 -7.47058 0
M  V30 2481 N 229.106 1.52395 0.401703 0
M  V30 2482 C 230.069 1.75636 1.47257 0
M  V30 2483 C 231.069 0.62628 1.48103 0
M  V30 2484 O 232.259 0.894227 1.49497 0
M  V30 2485 C 229.391 1.84553 2.86624 0
M  V30 2486 H 230.584 2.71241 1.27938 0
M  V30 2487 H 228.137 1.42923 0.632662 0
M  V30 2488 H 228.872 0.908882 3.11303 0
M  V30 2489 H 228.657 2.66715 2.87412 0
M  V30 2490 H 230.147 2.04251 3.64241 0
M  V30 2491 N 230.584 -0.659388 1.43143 0
M  V30 2492 C 231.514 -1.78422 1.50625 0
M  V30 2493 C 232.495 -1.66216 0.361443 0
M  V30 2494 O 233.68 -1.85404 0.577834 0
M  V30 2495 C 230.81 -3.16815 1.42287 0
M  V30 2496 C 229.764 -3.43777 2.54954 0
M  V30 2497 C 229.09 -4.81905 2.31671 0
M  V30 2498 C 230.39 -3.39134 3.97222 0
M  V30 2499 H 232.084 -1.72417 2.44771 0
M  V30 2500 H 229.63 -0.828084 1.17808 0
M  V30 2501 H 231.583 -3.95253 1.46127 0
M  V30 2502 H 230.307 -3.23534 0.446435 0
M  V30 2503 H 228.966 -2.67707 2.50457 0
M  V30 2504 H 228.614 -4.85294 1.32284 0
M  V30 2505 H 228.314 -5.00906 3.07192 0
M  V30 2506 H 229.838 -5.62609 2.37284 0
M  V30 2507 H 231.252 -4.07518 4.03239 0
M  V30 2508 H 229.649 -3.69671 4.72719 0
M  V30 2509 H 230.719 -2.37426 4.22797 0
M  V30 2510 N 232.062 -1.29571 -0.897171 0
M  V30 2511 C 233.009 -1.14916 -2.00158 0
M  V30 2512 C 233.979 -0.0418149 -1.66047 0
M  V30 2513 O 235.164 -0.209793 -1.89643 0
M  V30 2514 C 232.304 -0.834307 -3.34863 0
M  V30 2515 C 231.417 -2.02234 -3.8174 0
M  V30 2516 C 230.552 -1.64664 -5.05034 0
M  V30 2517 C 229.591 -2.80033 -5.44286 0
M  V30 2518 N 228.728 -2.42843 -6.58765 0
M  V30 2519 H 233.568 -2.09403 -2.12025 0
M  V30 2520 H 231.105 -1.042 -1.0383 0
M  V30 2521 H 233.063 -0.632436 -4.12379 0
M  V30 2522 H 231.693 0.0736656 -3.22716 0
M  V30 2523 H 230.745 -2.33583 -3.00238 0
M  V30 2524 H 232.057 -2.88673 -4.06779 0
M  V30 2525 H 231.211 -1.4078 -5.9014 0
M  V30 2526 H 229.95 -0.753766 -4.8184 0
M  V30 2527 H 228.955 -3.04596 -4.57713 0
M  V30 2528 H 230.18 -3.69989 -5.6946 0
M  V30 2529 H 228.126 -1.56046 -6.3717 0
M  V30 2530 H 228.043 -3.22815 -6.83613 0
M  V30 2531 H 229.311 -2.22285 -7.47134 0
M  V30 2532 N 233.54 1.10788 -1.12088 0
M  V30 2533 C 234.951 1.64181 -0.88891 0
M  V30 2534 C 235.302 1.87508 0.577498 0
M  V30 2535 O 234.427 1.61434 1.44112 0
M  V30 2536 C 235.022 2.98257 -1.60712 0
M  V30 2537 C 233.581 3.4853 -1.42139 0
M  V30 2538 C 232.728 2.23208 -1.6454 0
M  V30 2539 H 235.679 0.943368 -1.27618 0
M  V30 2540 H 235.7 3.65552 -1.05604 0
M  V30 2541 H 235.212 2.81246 -2.67436 0
M  V30 2542 H 233.313 3.70692 -0.376552 0
M  V30 2543 H 233.426 4.26882 -2.17505 0
M  V30 2544 H 231.79 2.31169 -1.06925 0
M  V30 2545 H 232.573 2.08733 -2.72554 0
M  V30 2546 N 235.018 0.912232 1.28515 0
M  V30 2547 C 236.434 0.610159 1.47476 0
M  V30 2548 C 236.634 -0.844955 1.82928 0
M  V30 2549 O 235.69 -1.62416 1.93332 0
M  V30 2550 C 237.003 1.54675 2.57868 0
M  V30 2551 C 238.551 1.55331 2.71738 0
M  V30 2552 C 239.026 2.47649 3.85272 0
M  V30 2553 N 240.517 2.45767 3.92623 0
M  V30 2554 C 241.252 3.13896 4.79851 0
M  V30 2555 N 240.748 3.9135 5.71679 0
M  V30 2556 N 242.541 3.02991 4.73448 0
M  V30 2557 H 234.692 1.85318 1.03783 0
M  V30 2558 H 236.955 0.794777 0.516753 0
M  V30 2559 H 236.661 2.5841 2.38574 0
M  V30 2560 H 236.535 1.27671 3.54937 0
M  V30 2561 H 238.922 0.52335 2.90422 0
M  V30 2562 H 239.003 1.86378 1.75205 0
M  V30 2563 H 238.647 3.50745 3.67342 0
M  V30 2564 H 238.577 2.13904 4.81199 0
M  V30 2565 H 241.068 1.89503 3.26951 0
M  V30 2566 H 241.381 4.40359 6.35062 0
M  V30 2567 H 239.726 3.95455 5.71524 0
M  V30 2568 H 242.917 2.41987 4.007 0
M  V30 2569 H 243.09 3.5636 5.41213 0
M  V30 2570 N 236.496 -1.42363 0.676048 0
M  V30 2571 C 237.429 -2.28141 -0.0516916 0
M  V30 2572 C 238.407 -1.41135 -0.807439 0
M  V30 2573 O 239.591 -1.70573 -0.802305 0
M  V30 2574 C 236.718 -3.21007 -1.08039 0
M  V30 2575 C 235.764 -4.24426 -0.420076 0
M  V30 2576 S 236.597 -5.29134 0.823246 0
M  V30 2577 C 237.753 -6.25566 -0.204344 0
M  V30 2578 H 237.986 -2.89515 0.675884 0
M  V30 2579 H 235.519 -1.47211 0.465635 0
M  V30 2580 H 237.477 -3.75048 -1.66881 0
M  V30 2581 H 236.138 -2.58766 -1.78042 0
M  V30 2582 H 235.331 -4.89596 -1.19633 0
M  V30 2583 H 234.933 -3.7388 0.0947845 0
M  V30 2584 H 237.225 -6.69098 -1.06369 0
M  V30 2585 H 238.168 -7.06895 0.412915 0
M  V30 2586 H 238.576 -5.61811 -0.55038 0
M  V30 2587 N 237.974 -0.419461 -1.51915 0
M  V30 2588 C 239.39 -0.0708431 -1.59443 0
M  V30 2589 C 239.59 1.41796 -1.43164 0
M  V30 2590 O 238.646 2.18596 -1.26381 0
M  V30 2591 C 239.959 -0.574991 -2.95151 0
M  V30 2592 C 241.507 -0.533867 -3.08413 0
M  V30 2593 C 241.982 -1.01469 -4.46618 0
M  V30 2594 N 243.473 -0.971939 -4.52888 0
M  V30 2595 C 244.208 -1.31505 -5.58116 0
M  V30 2596 N 243.704 -1.73014 -6.70849 0
M  V30 2597 N 245.497 -1.23436 -5.48379 0
M  V30 2598 H 237.648 -1.38836 -1.60743 0
M  V30 2599 H 239.911 -0.570998 -0.756747 0
M  V30 2600 H 239.617 -1.61597 -3.12377 0
M  V30 2601 H 239.491 0.00979777 -3.77199 0
M  V30 2602 H 241.878 0.498086 -2.90866 0
M  V30 2603 H 241.959 -1.15484 -2.28248 0
M  V30 2604 H 241.603 -2.04502 -4.6491 0
M  V30 2605 H 241.533 -0.370433 -5.25295 0
M  V30 2606 H 244.024 -0.666893 -3.71969 0
M  V30 2607 H 244.337 -1.97479 -7.47143 0
M  V30 2608 H 242.682 -1.76926 -6.72103 0
M  V30 2609 H 245.873 -0.908869 -4.59192 0
M  V30 2610 H 246.046 -1.50506 -6.30279 0
M  V30 2611 N 239.452 1.56882 -0.150215 0
M  V30 2612 C 240.399 2.16922 0.788244 0
M  V30 2613 C 241.369 1.10303 1.24187 0
M  V30 2614 O 242.554 1.38359 1.31383 0
M  V30 2615 C 239.694 2.79754 2.02068 0
M  V30 2616 C 238.807 4.00775 1.61257 0
M  V30 2617 C 237.942 4.51595 2.79705 0
M  V30 2618 C 236.981 5.65074 2.35282 0
M  V30 2619 N 236.118 6.10499 3.4675 0
M  V30 2620 H 240.958 2.96779 0.269444 0
M  V30 2621 H 238.495 1.46599 0.12128 0
M  V30 2622 H 240.453 3.14329 2.74323 0
M  V30 2623 H 239.083 2.02536 2.51354 0
M  V30 2624 H 238.135 3.72158 0.787553 0
M  V30 2625 H 239.447 4.82978 1.24633 0
M  V30 2626 H 238.601 4.88242 3.60145 0
M  V30 2627 H 237.34 3.68406 3.19576 0
M  V30 2628 H 236.345 5.28 1.53283 0
M  V30 2629 H 237.57 6.50052 1.96493 0
M  V30 2630 H 235.516 5.30243 3.86236 0
M  V30 2631 H 235.433 6.87637 3.14152 0
M  V30 2632 H 236.701 6.51791 4.27537 0
M  V30 2633 N 240.93 -0.123565 1.57115 0
M  V30 2634 C 242.179 -0.830704 1.83799 0
M  V30 2635 C 242.492 -1.81259 0.735158 0
M  V30 2636 O 243.698 -2.56558 0.888278 0
M  V30 2637 C 242.154 -1.52802 3.25852 0
M  V30 2638 C 241.762 -0.587356 4.44133 0
M  V30 2639 C 243.506 -2.22056 3.61789 0
M  V30 2640 C 241.413 -1.28764 5.77212 0
M  V30 2641 H 240.343 -0.313967 0.685522 0
M  V30 2642 H 242.994 -0.0834359 1.8331 0
M  V30 2643 H 241.376 -2.32175 3.20797 0
M  V30 2644 H 242.55 0.172829 4.60476 0
M  V30 2645 H 240.865 -0.00201892 4.164 0
M  V30 2646 H 243.462 -2.75131 4.58483 0
M  V30 2647 H 243.805 -2.99644 2.88997 0
M  V30 2648 H 244.338 -1.49576 3.68608 0
M  V30 2649 H 241.077 -0.55314 6.53162 0
M  V30 2650 H 240.597 -2.01995 5.64764 0
M  V30 2651 H 242.276 -1.8221 6.20813 0
M  V30 2652 N 242.408 -1.52605 -0.393616 0
M  V30 2653 C 243.655 -1.67424 -1.1391 0
M  V30 2654 C 243.983 -0.411859 -1.90089 0
M  V30 2655 O 243.238 0.605626 -1.86093 0
M  V30 2656 C 243.537 -2.85721 -2.14705 0
M  V30 2657 C 243.203 -4.23342 -1.55218 0
M  V30 2658 C 241.865 -4.60771 -1.3872 0
M  V30 2659 C 244.217 -5.09041 -1.11924 0
M  V30 2660 C 241.545 -5.81563 -0.774689 0
M  V30 2661 C 243.897 -6.30452 -0.520853 0
M  V30 2662 C 242.561 -6.66617 -0.343134 0
M  V30 2663 H 241.831 -0.612648 -0.416826 0
M  V30 2664 H 244.478 -1.8674 -0.424315 0
M  V30 2665 H 242.783 -2.60803 -2.92385 0
M  V30 2666 H 244.48 -2.94382 -2.72288 0
M  V30 2667 H 241.07 -3.93855 -1.69045 0
M  V30 2668 H 245.254 -4.80695 -1.23473 0
M  V30 2669 H 240.51 -6.08196 -0.625154 0
M  V30 2670 H 244.684 -6.96175 -0.177065 0
M  V30 2671 H 242.311 -7.60083 0.133571 0
M  V30 2672 N 243.887 0.651787 -1.4349 0
M  V30 2673 C 245.112 1.44434 -1.48841 0
M  V30 2674 C 245.537 1.8779 -0.107955 0
M  V30 2675 O 244.895 1.57464 0.898602 0
M  V30 2676 C 244.943 2.65458 -2.44059 0
M  V30 2677 O 244.047 3.64566 -1.92784 0
M  V30 2678 H 243.388 0.433005 -0.503391 0
M  V30 2679 H 245.918 0.797451 -1.88419 0
M  V30 2680 H 245.928 3.13255 -2.6141 0
M  V30 2681 H 244.603 2.33244 -3.4434 0
M  V30 2682 H 243.18 3.23716 -1.851 0
M  V30 2683 N 245.365 1.30045 0.890287 0
M  V30 2684 C 246.781 1.08261 1.17268 0
M  V30 2685 C 246.981 -0.160063 2.00863 0
M  V30 2686 O 246.037 -0.855181 2.37577 0
M  V30 2687 C 247.35 2.34323 1.8845 0
M  V30 2688 C 248.898 2.39735 2.01237 0
M  V30 2689 C 249.373 3.65625 2.7583 0
M  V30 2690 N 250.864 3.66402 2.83379 0
M  V30 2691 C 251.599 4.60498 3.41657 0
M  V30 2692 N 251.095 5.64933 4.01026 0
M  V30 2693 N 252.888 4.48051 3.39421 0
M  V30 2694 H 245.039 2.09777 0.332762 0
M  V30 2695 H 247.302 0.92446 0.209948 0
M  V30 2696 H 247.008 3.2498 1.34465 0
M  V30 2697 H 246.882 2.4256 2.88867 0
M  V30 2698 H 249.269 1.4956 2.54393 0
M  V30 2699 H 249.35 2.35476 0.999232 0
M  V30 2700 H 248.994 4.56156 2.23347 0
M  V30 2701 H 248.924 3.67144 3.77509 0
M  V30 2702 H 251.415 2.90896 2.41222 0
M  V30 2703 H 251.728 6.32841 4.43545 0
M  V30 2704 H 250.073 5.68732 3.99461 0
M  V30 2705 H 253.264 3.65649 2.92264 0
M  V30 2706 H 253.437 5.21565 3.84544 0
M  V30 2707 N 246.843 -1.10192 1.12674 0
M  V30 2708 C 247.773 -2.18652 0.819362 0
M  V30 2709 C 248.754 -1.68698 -0.217915 0
M  V30 2710 O 249.939 -1.94041 -0.0785581 0
M  V30 2711 C 247.069 -3.46202 0.27594 0
M  V30 2712 C 246.023 -4.09444 1.24656 0
M  V30 2713 C 245.349 -5.31725 0.563258 0
M  V30 2714 C 246.649 -4.52863 2.60217 0
M  V30 2715 H 248.343 -2.44622 1.72628 0
M  V30 2716 H 245.889 -1.17571 0.831451 0
M  V30 2717 H 247.842 -4.21372 0.0486149 0
M  V30 2718 H 246.566 -3.1973 -0.666331 0
M  V30 2719 H 245.225 -3.36284 1.45974 0
M  V30 2720 H 244.873 -5.0153 -0.384235 0
M  V30 2721 H 244.573 -5.74991 1.21075 0
M  V30 2722 H 246.097 -6.09624 0.34503 0
M  V30 2723 H 247.511 -5.19294 2.42913 0
M  V30 2724 H 245.908 -5.06986 3.21068 0
M  V30 2725 H 246.978 -3.65656 3.18471 0
M  V30 2726 N 248.321 -0.919034 -1.28029 0
M  V30 2727 C 249.57 -0.550802 -1.94034 0
M  V30 2728 C 249.883 0.910877 -1.73096 0
M  V30 2729 O 251.089 1.3875 -2.33368 0
M  V30 2730 C 249.545 -0.934249 -3.47563 0
M  V30 2731 C 249.153 -2.41602 -3.7727 0
M  V30 2732 C 250.897 -0.636854 -4.19696 0
M  V30 2733 C 248.804 -2.73932 -5.24133 0
M  V30 2734 H 247.734 -0.202273 -0.726362 0
M  V30 2735 H 250.385 -1.11867 -1.45458 0
M  V30 2736 H 248.767 -0.295115 -3.94899 0
M  V30 2737 H 249.941 -3.10233 -3.40723 0
M  V30 2738 H 248.256 -2.68441 -3.18321 0
M  V30 2739 H 250.853 -0.855005 -5.2782 0
M  V30 2740 H 251.196 0.425575 -4.14119 0
M  V30 2741 H 251.729 -1.23469 -3.78154 0
M  V30 2742 H 248.468 -3.79049 -5.34792 0
M  V30 2743 H 247.988 -2.09942 -5.61858 0
M  V30 2744 H 249.667 -2.61215 -5.91925 0
M  V30 2745 N 249.799 1.42003 -0.683588 0
M  V30 2746 C 251.029 2.05448 -0.217866 0
M  V30 2747 C 251.437 1.51491 1.13346 0
M  V30 2748 O 250.78 0.653048 1.717 0
M  V30 2749 C 250.842 3.59399 -0.0850118 0
M  V30 2750 C 250.506 4.36093 -1.36645 0
M  V30 2751 C 251.503 4.66169 -2.30179 0
M  V30 2752 C 249.188 4.75578 -1.61649 0
M  V30 2753 C 251.182 5.34676 -3.46988 0
M  V30 2754 C 248.869 5.43824 -2.78745 0
M  V30 2755 C 249.867 5.73299 -3.71238 0
M  V30 2756 O 249.555 6.40142 -4.86285 0
M  V30 2757 H 249.287 0.668344 -0.101454 0
M  V30 2758 H 251.841 1.82974 -0.933248 0
M  V30 2759 H 250.071 3.80566 0.686031 0
M  V30 2760 H 251.76 4.04457 0.341973 0
M  V30 2761 H 252.526 4.36156 -2.12115 0
M  V30 2762 H 248.405 4.52025 -0.905243 0
M  V30 2763 H 251.949 5.57599 -4.19201 0
M  V30 2764 H 247.846 5.73254 -2.96732 0
M  V30 2765 H 248.614 6.58636 -4.85944 0
M  V30 2766 N 251.277 0.427512 1.51691 0
M  V30 2767 C 252.526 -0.143679 2.01188 0
M  V30 2768 C 252.839 -1.44642 1.31674 0
M  V30 2769 O 254.045 -2.09997 1.72086 0
M  V30 2770 C 252.501 -0.306602 3.58592 0
M  V30 2771 C 252.109 0.985125 4.37035 0
M  V30 2772 C 253.853 -0.832091 4.16265 0
M  V30 2773 C 251.76 0.788382 5.86122 0
M  V30 2774 H 250.69 -0.0574701 0.751807 0
M  V30 2775 H 253.341 0.555772 1.74881 0
M  V30 2776 H 251.723 -1.06882 3.81303 0
M  V30 2777 H 252.897 1.75492 4.26074 0
M  V30 2778 H 251.212 1.4384 3.90767 0
M  V30 2779 H 253.809 -0.995617 5.25349 0
M  V30 2780 H 254.152 -1.81186 3.74803 0
M  V30 2781 H 254.685 -0.128444 3.97593 0
M  V30 2782 H 251.424 1.74025 6.31978 0
M  V30 2783 H 250.944 0.0582143 5.99772 0
M  V30 2784 H 252.623 0.437722 6.45518 0
M  V30 2785 N 252.755 -1.56801 0.158532 0
M  V30 2786 C 253.718 -2.16138 -0.762705 0
M  V30 2787 C 254.718 -1.1061 -1.16713 0
M  V30 2788 O 255.908 -1.36191 -1.08617 0
M  V30 2789 C 253.04 -2.73386 -2.03649 0
M  V30 2790 H 254.233 -2.98886 -0.246354 0
M  V30 2791 H 251.786 -1.56035 -0.0909744 0
M  V30 2792 H 252.521 -1.94335 -2.59623 0
M  V30 2793 H 252.306 -3.50601 -1.75559 0
M  V30 2794 H 253.796 -3.19065 -2.6942 0
M  V30 2795 N 254.233 0.115231 -1.57178 0
M  V30 2796 C 255.165 1.16694 -1.97269 0
M  V30 2797 C 256.178 1.37445 -0.872502 0
M  V30 2798 O 257.367 1.36454 -1.15077 0
M  V30 2799 C 254.467 2.52627 -2.25905 0
M  V30 2800 C 253.64 2.52427 -3.57211 0
M  V30 2801 C 252.699 3.70134 -3.74016 0
M  V30 2802 O 251.725 3.53546 -4.46087 0
M  V30 2803 N 252.927 4.88844 -3.13068 0
M  V30 2804 H 255.692 0.82588 -2.88096 0
M  V30 2805 H 253.253 0.304461 -1.59011 0
M  V30 2806 H 255.245 3.29937 -2.34359 0
M  V30 2807 H 253.815 2.789 -1.41186 0
M  V30 2808 H 253.035 1.60805 -3.5991 0
M  V30 2809 H 254.323 2.49353 -4.43509 0
M  V30 2810 H 253.721 5.05225 -2.54489 0
M  V30 2811 H 252.278 5.63817 -3.27037 0
M  V30 2812 N 255.711 1.52812 0.385517 0
M  V30 2813 C 256.936 1.72207 1.15583 0
M  V30 2814 C 257.361 0.441034 1.82857 0
M  V30 2815 O 256.719 -0.603465 1.70962 0
M  V30 2816 C 256.767 2.87476 2.17692 0
M  V30 2817 O 255.871 2.54693 3.24354 0
M  V30 2818 H 255.212 0.572526 0.336319 0
M  V30 2819 H 257.742 1.99618 0.448744 0
M  V30 2820 H 257.752 3.13072 2.6163 0
M  V30 2821 H 256.427 3.80408 1.68115 0
M  V30 2822 H 255.004 2.3985 2.85529 0
M  V30 2823 N 257.189 -0.644168 1.43834 0
M  V30 2824 C 258.136 -1.75671 1.49694 0
M  V30 2825 C 259.106 -1.6246 0.345809 0
M  V30 2826 O 260.291 -1.82573 0.554234 0
M  V30 2827 C 257.431 -3.13867 1.43463 0
M  V30 2828 C 256.544 -3.38147 2.6885 0
M  V30 2829 C 255.679 -4.66241 2.54544 0
M  V30 2830 C 254.718 -4.83657 3.75157 0
M  V30 2831 N 253.855 -6.03016 3.59605 0
M  V30 2832 H 258.695 -1.69998 2.44754 0
M  V30 2833 H 256.232 -0.829458 1.21484 0
M  V30 2834 H 258.19 -3.9377 1.37843 0
M  V30 2835 H 256.82 -3.18588 0.519783 0
M  V30 2836 H 255.872 -2.52276 2.84712 0
M  V30 2837 H 257.184 -3.46899 3.58417 0
M  V30 2838 H 256.338 -5.54285 2.46683 0
M  V30 2839 H 255.077 -4.59826 1.62516 0
M  V30 2840 H 254.082 -3.94046 3.83416 0
M  V30 2841 H 255.307 -4.91896 4.68204 0
M  V30 2842 H 253.253 -5.97715 2.7032 0
M  V30 2843 H 253.17 -6.12766 4.42779 0
M  V30 2844 H 254.438 -6.93657 3.55613 0
M  V30 2845 N 258.668 -1.30515 -0.883378 0
M  V30 2846 C 259.916 -1.19194 -1.63209 0
M  V30 2847 C 260.237 0.253205 -1.93349 0
M  V30 2848 O 259.507 1.17025 -1.57105 0
M  V30 2849 H 258.087 -0.438148 -0.605009 0
M  V30 2850 H 260.749 -1.63663 -1.05832 0
M  V30 2851 H 259.845 -1.75396 -2.58153 0
M  V30 2852 N 260.146 1.09593 -1.13257 0
M  V30 2853 C 261.109 2.14359 -0.811358 0
M  V30 2854 C 262.109 1.59808 0.178377 0
M  V30 2855 O 263.299 1.74132 -0.0484911 0
M  V30 2856 C 260.431 3.40269 -0.207276 0
M  V30 2857 H 261.624 2.44284 -1.73969 0
M  V30 2858 H 259.177 1.25102 -0.936973 0
M  V30 2859 H 259.912 3.15969 0.73036 0
M  V30 2860 H 259.697 3.81154 -0.919992 0
M  V30 2861 H 261.187 4.176 0.000667944 0
M  V30 2862 N 261.624 0.925811 1.2754 0
M  V30 2863 C 262.87 0.575575 1.95086 0
M  V30 2864 C 263.225 -0.873246 1.71441 0
M  V30 2865 O 262.518 -1.61443 1.03183 0
M  V30 2866 C 262.712 0.835296 3.47502 0
M  V30 2867 C 262.541 2.30781 3.85967 0
M  V30 2868 C 261.311 2.96017 4.09514 0
M  V30 2869 C 263.509 3.28519 3.95702 0
M  V30 2870 N 261.491 4.3344 4.34744 0
M  V30 2871 C 262.862 4.51146 4.25285 0
M  V30 2872 C 264.917 3.23753 3.7827 0
M  V30 2873 C 263.62 5.69606 4.39251 0
M  V30 2874 C 265.646 4.41523 3.9346 0
M  V30 2875 C 265.008 5.62928 4.23428 0
M  V30 2876 H 261.107 0.260711 0.737261 0
M  V30 2877 H 263.691 1.19204 1.53943 0
M  V30 2878 H 261.862 0.248005 3.87607 0
M  V30 2879 H 263.594 0.447878 4.02214 0
M  V30 2880 H 260.349 2.46695 4.04275 0
M  V30 2881 H 260.773 5.04528 4.5142 0
M  V30 2882 H 265.415 2.3096 3.54143 0
M  V30 2883 H 263.133 6.62866 4.62205 0
M  V30 2884 H 266.719 4.39351 3.81394 0
M  V30 2885 H 265.599 6.52538 4.34929 0
M  V30 2886 N 263.102 -1.41638 0.69111 0
M  V30 2887 C 264.351 -2.00526 0.217318 0
M  V30 2888 C 264.664 -1.55353 -1.18848 0
M  V30 2889 O 265.87 -2.06769 -1.75951 0
M  V30 2890 C 264.326 -3.58313 0.337639 0
M  V30 2891 C 263.934 -4.12469 1.74852 0
M  V30 2892 C 265.678 -4.24431 -0.0766066 0
M  V30 2893 C 263.585 -5.62675 1.82074 0
M  V30 2894 H 262.515 -0.750008 0.0774893 0
M  V30 2895 H 265.166 -1.6217 0.858661 0
M  V30 2896 H 263.548 -3.9425 -0.371879 0
M  V30 2897 H 264.722 -3.8796 2.48644 0
M  V30 2898 H 263.037 -3.58861 2.11205 0
M  V30 2899 H 265.634 -5.34683 -0.0430284 0
M  V30 2900 H 265.977 -4.01101 -1.1146 0
M  V30 2901 H 266.51 -3.93512 0.582476 0
M  V30 2902 H 263.249 -5.90826 2.83911 0
M  V30 2903 H 262.769 -5.89124 1.12661 0
M  V30 2904 H 264.448 -6.27371 1.58159 0
M  V30 2905 N 264.58 -0.43555 -1.51462 0
M  V30 2906 C 265.51 0.367376 -2.30592 0
M  V30 2907 C 266.491 1.02263 -1.35928 0
M  V30 2908 O 267.676 1.02661 -1.64847 0
M  V30 2909 C 264.806 1.46983 -3.14664 0
M  V30 2910 C 263.76 0.938161 -4.17591 0
M  V30 2911 C 263.086 2.13622 -4.90173 0
M  V30 2912 C 264.386 -0.0261621 -5.22293 0
M  V30 2913 H 266.08 -0.292969 -2.97963 0
M  V30 2914 H 263.626 -0.14234 -1.43295 0
M  V30 2915 H 265.579 2.03873 -3.688 0
M  V30 2916 H 264.303 2.15843 -2.4511 0
M  V30 2917 H 262.962 0.391481 -3.64504 0
M  V30 2918 H 262.61 2.81098 -4.17124 0
M  V30 2919 H 262.31 1.78688 -5.59772 0
M  V30 2920 H 263.834 2.7107 -5.47132 0
M  V30 2921 H 265.248 0.452384 -5.71512 0
M  V30 2922 H 263.645 -0.287992 -5.99409 0
M  V30 2923 H 264.715 -0.963391 -4.75233 0
M  V30 2924 N 266.058 1.56714 -0.166846 0
M  V30 2925 C 267.286 2.0112 0.485644 0
M  V30 2926 C 267.701 1.04705 1.57106 0
M  V30 2927 O 267.058 0.0471923 1.82439 0
M  V30 2928 C 267.109 3.45361 1.06808 0
M  V30 2929 O 266.83 4.38092 0.0259995 0
M  V30 2930 C 268.331 4.05145 1.79924 0
M  V30 2931 H 265.551 0.65931 0.124704 0
M  V30 2932 H 268.095 2.02746 -0.267262 0
M  V30 2933 H 266.25 3.44524 1.7715 0
M  V30 2934 H 266.664 5.22519 0.455398 0
M  V30 2935 H 268.138 5.08009 2.15942 0
M  V30 2936 H 268.615 3.46982 2.69258 0
M  V30 2937 H 269.221 4.09672 1.14234 0
M  V30 2938 N 267.536 -0.106894 1.57237 0
M  V30 2939 C 268.784 -0.810921 1.85117 0
M  V30 2940 C 269.105 -1.7984 0.753827 0
M  V30 2941 O 268.375 -1.94649 -0.221056 0
M  V30 2942 H 266.955 -0.302466 0.683025 0
M  V30 2943 H 269.617 -0.0913324 1.94686 0
M  V30 2944 H 268.713 -1.34875 2.81452 0
M  V30 2945 N 269.014 -1.53014 -0.377408 0
M  V30 2946 C 270.262 -1.6829 -1.11906 0
M  V30 2947 C 270.583 -0.431206 -1.90173 0
M  V30 2948 O 269.853 0.554595 -1.87886 0
M  V30 2949 H 268.433 -0.620371 -0.416112 0
M  V30 2950 H 271.095 -1.90167 -0.426893 0
M  V30 2951 H 270.191 -2.53862 -1.8155 0
M  V30 2952 N 270.492 0.636531 -1.44174 0
M  V30 2953 C 271.72 1.42353 -1.50144 0
M  V30 2954 C 272.135 1.88389 -0.124575 0
M  V30 2955 O 271.492 1.6051 0.868489 0
M  V30 2956 C 271.543 2.64744 -2.46156 0
M  V30 2957 O 271.264 2.20629 -3.7849 0
M  V30 2958 C 272.765 3.57929 -2.61537 0
M  V30 2959 H 269.985 0.436752 -0.5094 0
M  V30 2960 H 272.529 0.778933 -1.89084 0
M  V30 2961 H 270.684 3.25307 -2.10366 0
M  V30 2962 H 271.098 2.99938 -4.30276 0
M  V30 2963 H 272.572 4.40428 -3.32757 0
M  V30 2964 H 273.049 4.06382 -1.66585 0
M  V30 2965 H 273.655 3.03238 -2.98206 0
M  V30 2966 N 271.97 1.30982 0.876444 0
M  V30 2967 C 272.92 1.14688 1.97055 0
M  V30 2968 C 273.904 0.0596593 1.60789 0
M  V30 2969 O 275.096 0.283892 1.74708 0
M  V30 2970 C 272.225 0.849627 3.3262 0
M  V30 2971 C 271.311 1.97752 3.75173 0
M  V30 2972 N 271.702 3.22384 3.89746 0
M  V30 2973 C 270 1.8758 4.04635 0
M  V30 2974 C 270.701 3.96121 4.25985 0
M  V30 2975 N 269.677 3.24237 4.36315 0
M  V30 2976 H 273.479 2.09204 2.06424 0
M  V30 2977 H 270.993 1.22445 1.06682 0
M  V30 2978 H 272.99 0.713895 4.10742 0
M  V30 2979 H 271.65 -0.087376 3.24582 0
M  V30 2980 H 272.661 3.57575 3.74647 0
M  V30 2981 H 269.338 1.01303 4.05024 0
M  V30 2982 H 270.728 5.03491 4.44911 0
M  V30 2983 N 273.449 -1.08991 1.13837 0
M  V30 2984 C 274.679 -1.84743 0.924859 0
M  V30 2985 C 275.087 -1.81629 -0.529874 0
M  V30 2986 O 274.43 -1.21397 -1.37872 0
M  V30 2987 C 274.492 -3.33568 1.34061 0
M  V30 2988 C 274.156 -3.60425 2.80968 0
M  V30 2989 C 275.153 -3.55771 3.79108 0
M  V30 2990 C 272.838 -3.88627 3.18236 0
M  V30 2991 C 274.832 -3.78939 5.12527 0
M  V30 2992 C 272.519 -4.11449 4.51833 0
M  V30 2993 C 273.517 -4.06598 5.48787 0
M  V30 2994 O 273.205 -4.28826 6.79973 0
M  V30 2995 H 272.937 -0.590258 0.329502 0
M  V30 2996 H 275.491 -1.38598 1.51591 0
M  V30 2997 H 273.721 -3.80442 0.692853 0
M  V30 2998 H 275.41 -3.90743 1.09886 0
M  V30 2999 H 276.176 -3.34005 3.51661 0
M  V30 3000 H 272.055 -3.91526 2.43369 0
M  V30 3001 H 275.599 -3.75068 5.88192 0
M  V30 3002 H 271.496 -4.32698 4.79002 0
M  V30 3003 H 272.264 -4.46264 6.86142 0
M  V30 3004 N 274.927 -0.932562 -1.27047 0
M  V30 3005 C 276.175 -0.574422 -1.93765 0
M  V30 3006 C 276.496 0.887993 -1.73608 0
M  V30 3007 O 275.766 1.62999 -1.08665 0
M  V30 3008 H 274.346 -0.209451 -0.717035 0
M  V30 3009 H 277.008 -1.18601 -1.5466 0
M  V30 3010 H 276.104 -0.784841 -3.02071 0
M  V30 3011 N 276.405 1.4127 -0.698611 0
M  V30 3012 C 277.335 2.33447 -0.049629 0
M  V30 3013 C 278.316 1.51982 0.763898 0
M  V30 3014 O 279.501 1.80509 0.716257 0
M  V30 3015 C 276.631 3.35828 0.885267 0
M  V30 3016 C 275.585 4.27627 0.178613 0
M  V30 3017 C 274.911 5.20406 1.22807 0
M  V30 3018 C 276.211 5.13459 -0.956933 0
M  V30 3019 H 277.905 2.87966 -0.81951 0
M  V30 3020 H 275.451 1.38461 -0.395538 0
M  V30 3021 H 277.404 3.9924 1.34854 0
M  V30 3022 H 276.128 2.79666 1.68685 0
M  V30 3023 H 274.787 3.65643 -0.26466 0
M  V30 3024 H 274.435 4.60558 2.02226 0
M  V30 3025 H 274.135 5.82661 0.760239 0
M  V30 3026 H 275.659 5.86695 1.69179 0
M  V30 3027 H 277.073 5.70421 -0.573805 0
M  V30 3028 H 275.47 5.8467 -1.35205 0
M  V30 3029 H 276.54 4.50443 -1.79524 0
M  V30 3030 N 277.883 0.443576 1.51229 0
M  V30 3031 C 278.816 -0.410089 2.24485 0
M  V30 3032 C 279.794 -1.01949 1.26669 0
M  V30 3033 O 280.978 -1.06075 1.55821 0
M  V30 3034 C 278.105 -1.57211 3.00004 0
M  V30 3035 C 277.151 -1.08279 4.12526 0
M  V30 3036 S 277.984 -0.0197476 5.35496 0
M  V30 3037 C 279.14 -1.18629 6.14555 0
M  V30 3038 H 279.373 0.211832 2.96544 0
M  V30 3039 H 276.906 0.228156 1.52705 0
M  V30 3040 H 278.864 -2.23825 3.44111 0
M  V30 3041 H 277.525 -2.16547 2.27522 0
M  V30 3042 H 276.718 -1.95193 4.64667 0
M  V30 3043 H 276.32 -0.494797 3.70713 0
M  V30 3044 H 278.612 -2.10344 6.4402 0
M  V30 3045 H 279.555 -0.70472 7.04584 0
M  V30 3046 H 279.963 -1.42768 5.46148 0
M  V30 3047 N 279.361 -1.56624 0.175154 0
M  V30 3048 C 280.308 -2.18149 -0.753634 0
M  V30 3049 C 281.278 -1.12265 -1.22417 0
M  V30 3050 O 282.463 -1.40432 -1.29165 0
M  V30 3051 C 279.603 -2.82933 -1.97592 0
M  V30 3052 C 278.716 -4.03289 -1.5486 0
M  V30 3053 C 277.851 -4.55988 -2.72485 0
M  V30 3054 C 276.89 -5.68746 -2.26262 0
M  V30 3055 N 276.027 -6.15938 -3.36994 0
M  V30 3056 H 280.867 -2.9717 -0.222195 0
M  V30 3057 H 278.404 -1.46774 -0.0979422 0
M  V30 3058 H 280.362 -3.18653 -2.69288 0
M  V30 3059 H 278.992 -2.06509 -2.481 0
M  V30 3060 H 278.044 -3.73364 -0.728246 0
M  V30 3061 H 279.356 -4.849 -1.16933 0
M  V30 3062 H 278.51 -4.9391 -3.52332 0
M  V30 3063 H 277.249 -3.73443 -3.13674 0
M  V30 3064 H 276.254 -5.30372 -1.44863 0
M  V30 3065 H 277.479 -6.53095 -1.86127 0
M  V30 3066 H 275.425 -5.36321 -3.77751 0
M  V30 3067 H 275.342 -6.92548 -3.03172 0
M  V30 3068 H 276.61 -6.58511 -4.17114 0
M  V30 3069 N 280.839 0.0985539 -1.57292 0
M  V30 3070 C 282.069 0.815135 -1.8984 0
M  V30 3071 C 282.477 1.7297 -0.766679 0
M  V30 3072 O 281.82 1.81698 0.270483 0
M  V30 3073 C 281.882 1.6842 -3.17608 0
M  V30 3074 C 281.546 0.94182 -4.4719 0
M  V30 3075 C 282.543 0.273212 -5.19182 0
M  V30 3076 C 280.228 0.916927 -4.9386 0
M  V30 3077 C 282.222 -0.410361 -6.36078 0
M  V30 3078 C 279.909 0.229567 -6.10669 0
M  V30 3079 C 280.907 -0.432902 -6.81627 0
M  V30 3080 O 280.595 -1.10925 -7.9621 0
M  V30 3081 H 280.327 0.238501 -0.632529 0
M  V30 3082 H 282.881 0.0812659 -2.05239 0
M  V30 3083 H 281.111 2.46022 -2.98345 0
M  V30 3084 H 282.8 2.27704 -3.36015 0
M  V30 3085 H 283.566 0.283927 -4.84168 0
M  V30 3086 H 279.445 1.42201 -4.3852 0
M  V30 3087 H 282.989 -0.928013 -6.914 0
M  V30 3088 H 278.886 0.216686 -6.45136 0
M  V30 3089 H 279.654 -1.01579 -8.12172 0
M  V30 3090 N 282.317 1.53212 0.369288 0
M  V30 3091 C 283.566 1.68436 1.10961 0
M  V30 3092 C 283.879 0.440738 1.9057 0
M  V30 3093 O 285.085 0.473446 2.6734 0
M  V30 3094 C 283.541 2.97744 2.0218 0
M  V30 3095 C 283.149 4.29355 1.279 0
M  V30 3096 C 284.893 3.22334 2.76226 0
M  V30 3097 C 282.8 5.49755 2.17999 0
M  V30 3098 H 281.73 0.627568 0.41794 0
M  V30 3099 H 284.381 1.79713 0.370884 0
M  V30 3100 H 282.763 2.8026 2.79768 0
M  V30 3101 H 283.937 4.57458 0.554007 0
M  V30 3102 H 282.252 4.11179 0.657311 0
M  V30 3103 H 284.849 4.09471 3.43857 0
M  V30 3104 H 285.192 2.38238 3.41392 0
M  V30 3105 H 285.725 3.40475 2.05723 0
M  V30 3106 H 282.464 6.36318 1.57417 0
M  V30 3107 H 281.984 5.25937 2.88359 0
M  V30 3108 H 283.663 5.84401 2.77641 0
M  V30 3109 N 283.795 -0.628877 1.44509 0
M  V30 3110 C 285.043 -1.38565 1.4712 0
M  V30 3111 C 285.364 -1.94712 0.105899 0
M  V30 3112 O 284.634 -1.75912 -0.862079 0
M  V30 3113 H 283.214 -0.514333 0.541729 0
M  V30 3114 H 285.876 -0.740018 1.80305 0
M  V30 3115 H 284.972 -2.21583 2.19789 0
M  V30 3116 N 285.273 -1.31445 -0.869486 0
M  V30 3117 C 286.183 -1.21097 -2.0093 0
M  V30 3118 C 287.199 -0.127584 -1.73532 0
M  V30 3119 O 288.375 -0.345477 -1.98415 0
M  V30 3120 C 285.44 -0.919378 -3.34288 0
M  V30 3121 C 284.501 -2.08971 -3.75006 0
M  V30 3122 C 283.734 -1.81194 -5.02001 0
M  V30 3123 O 283.957 -0.747296 -5.65484 0
M  V30 3124 O 282.891 -2.66883 -5.39497 0
M  V30 3125 H 286.717 -2.16883 -2.12592 0
M  V30 3126 H 284.302 -1.11189 -0.997868 0
M  V30 3127 H 286.184 -0.772625 -4.14257 0
M  V30 3128 H 284.859 0.00844772 -3.23699 0
M  V30 3129 H 283.766 -2.29187 -2.95676 0
M  V30 3130 H 285.099 -2.9998 -3.90221 0
M  V30 3131 N 286.751 1.08385 -1.14413 0
M  V30 3132 C 287.997 1.81044 -0.913834 0
M  V30 3133 C 288.33 1.86004 0.558209 0
M  V30 3134 O 287.605 1.33606 1.4135 0
M  V30 3135 C 287.888 3.26648 -1.51569 0
M  V30 3136 C 287.741 3.29895 -3.0576 0
M  V30 3137 C 289.06 4.23629 -1.19273 0
M  V30 3138 H 286.179 0.65727 -0.333414 0
M  V30 3139 H 288.821 1.26896 -1.41412 0
M  V30 3140 H 286.971 3.72889 -1.09023 0
M  V30 3141 H 288.643 2.91977 -3.57137 0
M  V30 3142 H 286.886 2.69163 -3.40197 0
M  V30 3143 H 287.557 4.32516 -3.42977 0
M  V30 3144 H 290.033 3.85727 -1.56057 0
M  V30 3145 H 288.909 5.23822 -1.64017 0
M  V30 3146 H 289.17 4.41968 -0.108068 0
M  V30 3147 N 288.23 0.939286 1.26551 0
M  V30 3148 C 289.476 0.586715 1.94128 0
M  V30 3149 C 289.809 -0.8717 1.73537 0
M  V30 3150 O 289.084 -1.62339 1.07127 0
M  V30 3151 C 289.367 0.927497 3.4795 0
M  V30 3152 C 289.22 2.44052 3.77834 0
M  V30 3153 C 290.539 0.441569 4.37879 0
M  V30 3154 H 287.658 0.21463 0.705055 0
M  V30 3155 H 290.3 1.17316 1.49455 0
M  V30 3156 H 288.45 0.428431 3.8613 0
M  V30 3157 H 290.122 3.01216 3.4938 0
M  V30 3158 H 288.365 2.8848 3.23978 0
M  V30 3159 H 289.036 2.62947 4.85348 0
M  V30 3160 H 291.512 0.869448 4.06915 0
M  V30 3161 H 290.388 0.708856 5.44304 0
M  V30 3162 H 290.649 -0.658467 4.37169 0
M  V30 3163 N 289.708 -1.40897 0.706093 0
M  V30 3164 C 291.124 -1.55042 0.37869 0
M  V30 3165 C 291.324 -1.67944 -1.11342 0
M  V30 3166 O 290.38 -1.66372 -1.89938 0
M  V30 3167 C 291.693 -2.78398 1.13643 0
M  V30 3168 C 293.241 -2.92206 1.12181 0
M  V30 3169 C 293.716 -4.18463 1.86152 0
M  V30 3170 N 295.207 -4.25443 1.83173 0
M  V30 3171 C 295.942 -5.2202 2.37239 0
M  V30 3172 N 295.438 -6.24563 2.99821 0
M  V30 3173 N 297.231 -5.14033 2.27435 0
M  V30 3174 H 289.382 -1.30769 1.67372 0
M  V30 3175 H 291.645 -0.631653 0.706907 0
M  V30 3176 H 291.351 -2.7511 2.19106 0
M  V30 3177 H 291.225 -3.70228 0.721853 0
M  V30 3178 H 293.612 -2.95004 0.0754171 0
M  V30 3179 H 293.693 -2.01521 1.57554 0
M  V30 3180 H 293.337 -4.16427 2.90776 0
M  V30 3181 H 293.267 -5.08141 1.38206 0
M  V30 3182 H 295.758 -3.51976 1.37556 0
M  V30 3183 H 296.071 -6.94665 3.38616 0
M  V30 3184 H 294.416 -6.25035 3.03902 0
M  V30 3185 H 297.607 -4.3285 1.78208 0
M  V30 3186 H 297.78 -5.89129 2.69873 0
M  V30 3187 N 291.186 -0.45159 -1.50991 0
M  V30 3188 C 292.463 0.170707 -1.94854 0
M  V30 3189 C 292.843 1.58788 -1.39103 0
M  V30 3190 O 292.191 2.20913 -0.583921 0
M  V30 3191 C 292.401 0.133929 -3.48743 0
M  V30 3192 C 293.749 0.33248 -4.23296 0
M  V30 3193 O 294.773 0.211403 -3.55572 0
M  V30 3194 O 293.632 0.57486 -5.43468 0
M  V30 3195 H 290.726 0.122264 -0.817912 0
M  V30 3196 H 293.272 -0.510594 -1.61836 0
M  V30 3197 H 292.044 -0.856283 -3.81816 0
M  V30 3198 H 291.667 0.857529 -3.88242 0
M  V30 3199 N 292.664 1.56529 -0.183458 0
M  V30 3200 C 293.612 2.19873 0.758845 0
M  V30 3201 C 294.606 1.16638 1.22849 0
M  V30 3202 O 295.812 1.3481 1.19274 0
M  V30 3203 H 292.187 0.7045 0.263029 0
M  V30 3204 H 294.158 2.97724 0.200755 0
M  V30 3205 C 292.907 2.86314 1.9728 0
M  V30 3206 H 292.23 3.65487 1.62047 0
M  V30 3207 H 293.67 3.3409 2.61075 0
M  V30 3208 C 292.129 1.86729 2.80418 0
M  V30 3209 O 292.659 1.36031 3.77966 0
M  V30 3210 N 290.865 1.55216 2.45675 0
M  V30 3211 H 290.412 1.96636 1.66409 0
M  V30 3212 H 290.37 0.888388 3.01588 0
M  V30 3213 N 294.142 -0.090211 1.57342 0
M  V30 3214 C 295.37 -0.806224 1.90546 0
M  V30 3215 C 295.785 -1.72041 0.777644 0
M  V30 3216 O 295.142 -1.80778 -0.250103 0
M  V30 3217 C 295.193 -1.61546 3.23396 0
M  V30 3218 O 294.914 -0.738043 4.31839 0
M  V30 3219 C 296.415 -2.4341 3.70495 0
M  V30 3220 H 293.635 -0.230256 0.630257 0
M  V30 3221 H 296.179 -0.0659843 2.04394 0
M  V30 3222 H 294.334 -2.30816 3.11131 0
M  V30 3223 H 294.748 -1.29901 5.08159 0
M  V30 3224 H 296.222 -2.95676 4.66133 0
M  V30 3225 H 296.699 -3.22098 2.98579 0
M  V30 3226 H 297.305 -1.79331 3.85643 0
M  V30 3227 N 295.62 -1.53406 -0.361157 0
M  V30 3228 C 296.869 -1.69022 -1.10066 0
M  V30 3229 C 297.182 -0.450838 -1.90333 0
M  V30 3230 O 298.388 -0.487617 -2.67085 0
M  V30 3231 C 296.844 -2.98812 -2.00598 0
M  V30 3232 C 296.452 -4.30027 -1.25621 0
M  V30 3233 C 298.196 -3.23795 -2.74513 0
M  V30 3234 C 296.103 -5.50903 -2.1508 0
M  V30 3235 H 295.033 -0.629776 -0.414606 0
M  V30 3236 H 297.684 -1.79907 -0.361348 0
M  V30 3237 H 296.066 -2.8174 -2.78278 0
M  V30 3238 H 297.24 -4.57745 -0.529739 0
M  V30 3239 H 295.555 -4.11522 -0.635496 0
M  V30 3240 H 298.152 -4.11289 -3.41681 0
M  V30 3241 H 298.495 -2.40045 -3.40123 0
M  V30 3242 H 299.028 -3.41561 -2.03914 0
M  V30 3243 H 295.767 -6.37143 -1.54041 0
M  V30 3244 H 295.287 -5.27459 -2.85565 0
M  V30 3245 H 296.966 -5.85865 -2.74538 0
M  V30 3246 N 297.098 0.621204 -1.44841 0
M  V30 3247 C 298.323 1.41244 -1.51871 0
M  V30 3248 C 298.748 1.87519 -0.147764 0
M  V30 3249 O 298.106 1.59334 0.865 0
M  V30 3250 C 298.154 2.60221 -2.49634 0
M  V30 3251 O 297.258 3.60395 -2.00473 0
M  V30 3252 H 296.599 0.42223 -0.512463 0
M  V30 3253 H 299.129 0.757305 -1.90069 0
M  V30 3254 H 299.139 3.0764 -2.67996 0
M  V30 3255 H 297.814 2.25887 -3.4921 0
M  V30 3256 H 296.391 3.19717 -1.91925 0
M  V30 3257 N 298.576 1.31904 0.862503 0
M  V30 3258 C 299.992 1.10724 1.14945 0
M  V30 3259 C 300.192 -0.117421 2.01158 0
M  V30 3260 O 299.248 -0.804595 2.39338 0
M  V30 3261 C 300.561 2.38267 1.83437 0
M  V30 3262 C 302.109 2.43949 1.96106 0
M  V30 3263 C 302.584 3.71394 2.68013 0
M  V30 3264 N 304.075 3.72331 2.75543 0
M  V30 3265 C 304.81 4.67641 3.31812 0
M  V30 3266 N 304.306 5.73313 3.88953 0
M  V30 3267 N 306.099 4.5515 3.29841 0
M  V30 3268 H 298.25 2.10436 0.288191 0
M  V30 3269 H 300.513 0.928705 0.190292 0
M  V30 3270 H 300.219 3.27759 1.27542 0
M  V30 3271 H 300.093 2.48633 2.83657 0
M  V30 3272 H 302.48 1.54922 2.51164 0
M  V30 3273 H 302.561 2.37543 0.949059 0
M  V30 3274 H 302.205 4.60791 2.13621 0
M  V30 3275 H 302.135 3.75069 3.69636 0
M  V30 3276 H 304.626 2.95947 2.34997 0
M  V30 3277 H 304.939 6.42107 4.30022 0
M  V30 3278 H 303.284 5.77077 3.87308 0
M  V30 3279 H 306.475 3.71766 2.84443 0
M  V30 3280 H 306.648 5.29604 3.73394 0
M  V30 3281 N 300.054 -1.07777 1.14986 0
M  V30 3282 C 301.279 -1.84558 0.946213 0
M  V30 3283 C 301.704 -1.81323 -0.500362 0
M  V30 3284 O 301.062 -1.20301 -1.35637 0
M  V30 3285 C 301.11 -3.29736 1.45968 0
M  V30 3286 O 300.214 -4.07149 0.65601 0
M  V30 3287 H 299.555 -0.571641 0.33782 0
M  V30 3288 H 302.085 -1.35991 1.52865 0
M  V30 3289 H 302.095 -3.80574 1.47063 0
M  V30 3290 H 300.77 -3.31406 2.51283 0
M  V30 3291 H 299.347 -3.65994 0.714322 0
M  V30 3292 N 301.532 -0.945985 -1.26051 0
M  V30 3293 C 302.757 -0.612525 -1.98149 0
M  V30 3294 C 303.182 0.806623 -1.69927 0
M  V30 3295 O 302.54 1.54411 -0.950108 0
M  V30 3296 C 302.588 -0.866981 -3.50023 0
M  V30 3297 O 301.692 0.0585333 -4.12358 0
M  V30 3298 H 301.033 -0.23379 -0.621481 0
M  V30 3299 H 303.563 -1.27023 -1.60395 0
M  V30 3300 H 303.573 -0.789792 -4.00283 0
M  V30 3301 H 302.248 -1.90135 -3.69894 0
M  V30 3302 H 300.825 -0.0701241 -3.72834 0
M  V30 3303 N 303.011 1.40521 -0.713556 0
M  V30 3304 C 303.921 2.34522 -0.0606667 0
M  V30 3305 C 304.937 1.57193 0.74607 0
M  V30 3306 O 306.113 1.89591 0.679493 0
M  V30 3307 C 303.178 3.36081 0.851491 0
M  V30 3308 C 302.239 4.29286 0.0349339 0
M  V30 3309 C 301.472 5.25994 0.903649 0
M  V30 3310 O 301.695 5.28616 2.14292 0
M  V30 3311 O 300.629 6.00918 0.343723 0
M  V30 3312 H 304.455 2.91968 -0.835972 0
M  V30 3313 H 302.04 1.41681 -0.47402 0
M  V30 3314 H 303.922 3.98369 1.37404 0
M  V30 3315 H 302.597 2.81052 1.60598 0
M  V30 3316 H 301.504 3.70289 -0.532633 0
M  V30 3317 H 302.837 4.87462 -0.681287 0
M  V30 3318 N 304.489 0.459591 1.5075 0
M  V30 3319 C 305.399 -0.34613 2.32033 0
M  V30 3320 C 306.415 -1.00686 1.41909 0
M  V30 3321 O 307.591 -0.997361 1.7497 0
M  V30 3322 C 304.656 -1.42029 3.16273 0
M  V30 3323 C 303.717 -0.777362 4.22203 0
M  V30 3324 C 302.95 -1.80034 5.02418 0
M  V30 3325 O 303.173 -3.02544 4.83553 0
M  V30 3326 O 302.107 -1.37853 5.85901 0
M  V30 3327 H 305.933 0.318054 3.0203 0
M  V30 3328 H 303.518 0.221663 1.47746 0
M  V30 3329 H 305.4 -2.04275 3.68578 0
M  V30 3330 H 304.075 -2.06815 2.49016 0
M  V30 3331 H 302.982 -0.116256 3.73919 0
M  V30 3332 H 304.315 -0.172634 4.91897 0
M  V30 3333 N 305.967 -1.56429 0.191757 0
M  V30 3334 C 306.915 -2.20273 -0.747174 0
M  V30 3335 C 307.909 -1.17288 -1.22229 0
M  V30 3336 O 309.115 -1.35441 -1.18557 0
M  V30 3337 H 305.49 -0.705885 -0.259289 0
M  V30 3338 H 307.461 -2.97826 -0.184963 0
M  V30 3339 C 306.21 -2.87356 -1.95759 0
M  V30 3340 H 305.533 -3.66341 -1.60106 0
M  V30 3341 H 306.973 -3.3547 -2.59299 0
M  V30 3342 C 305.432 -1.88213 -2.79423 0
M  V30 3343 O 305.962 -1.38033 -3.7724 0
M  V30 3344 N 304.168 -1.56516 -2.44849 0
M  V30 3345 H 303.715 -1.97516 -1.65364 0
M  V30 3346 H 303.673 -0.904369 -3.01112 0
M  V30 3347 N 307.445 0.0818655 -1.57387 0
M  V30 3348 C 308.694 0.781681 -1.85937 0
M  V30 3349 C 309.007 1.79246 -0.782957 0
M  V30 3350 O 310.213 2.54112 -0.955987 0
M  V30 3351 C 308.669 1.44109 -3.29789 0
M  V30 3352 C 308.277 0.469396 -4.45534 0
M  V30 3353 C 310.021 2.12386 -3.67549 0
M  V30 3354 C 307.928 1.13415 -5.80423 0
M  V30 3355 H 306.858 0.295682 -0.693605 0
M  V30 3356 H 309.509 0.0348051 -1.83467 0
M  V30 3357 H 307.891 2.23588 -3.2684 0
M  V30 3358 H 309.065 -0.294856 -4.59856 0
M  V30 3359 H 307.38 -0.108383 -4.16259 0
M  V30 3360 H 309.977 2.62878 -4.65617 0
M  V30 3361 H 310.32 2.91877 -2.96839 0
M  V30 3362 H 310.853 1.39751 -3.72444 0
M  V30 3363 H 307.592 0.379771 -6.54399 0
M  V30 3364 H 307.112 1.8695 -5.69921 0
M  V30 3365 H 308.791 1.65686 -6.25426 0
M  V30 3366 N 308.923 1.53595 0.353017 0
M  V30 3367 C 310.169 1.70638 1.09593 0
M  V30 3368 C 310.502 0.463286 1.88593 0
M  V30 3369 O 309.777 -0.539597 1.86865 0
M  V30 3370 C 310.06 2.96406 2.04489 0
M  V30 3371 C 309.913 4.30901 1.29014 0
M  V30 3372 C 311.232 3.17812 3.0444 0
M  V30 3373 H 308.351 0.620913 0.397034 0
M  V30 3374 H 310.993 1.86254 0.375446 0
M  V30 3375 H 309.143 2.83223 2.65927 0
M  V30 3376 H 310.815 4.55917 0.702638 0
M  V30 3377 H 309.058 4.29741 0.592071 0
M  V30 3378 H 309.729 5.1506 1.98537 0
M  V30 3379 H 312.205 3.30263 2.53112 0
M  V30 3380 H 311.081 4.07223 3.6805 0
M  V30 3381 H 311.342 2.33669 3.75301 0
M  V30 3382 N 310.401 -0.613514 1.45168 0
M  V30 3383 C 311.364 -1.7065 1.53007 0
M  V30 3384 C 312.364 -1.5548 0.410184 0
M  V30 3385 O 313.554 -1.60656 0.673455 0
M  V30 3386 C 310.686 -3.09875 1.42093 0
M  V30 3387 H 311.879 -1.65068 2.50385 0
M  V30 3388 H 309.432 -0.828728 1.32521 0
M  V30 3389 H 310.167 -3.21039 0.458769 0
M  V30 3390 H 309.952 -3.22293 2.23315 0
M  V30 3391 H 311.442 -3.895 1.50598 0
M  V30 3392 N 311.879 -1.3236 -0.855495 0
M  V30 3393 C 313.128 -1.22226 -1.60448 0
M  V30 3394 C 313.441 0.214733 -1.94418 0
M  V30 3395 O 314.647 0.437917 -2.67945 0
M  V30 3396 C 313.103 -2.14063 -2.89318 0
M  V30 3397 C 312.711 -3.62839 -2.62777 0
M  V30 3398 C 314.455 -2.12764 -3.67331 0
M  V30 3399 C 312.362 -4.4664 -3.87643 0
M  V30 3400 H 311.292 -0.453904 -0.602069 0
M  V30 3401 H 313.943 -1.57314 -0.944698 0
M  V30 3402 H 312.325 -1.71889 -3.5675 0
M  V30 3403 H 313.499 -4.1335 -2.03662 0
M  V30 3404 H 311.814 -3.66261 -1.98096 0
M  V30 3405 H 314.411 -2.72611 -4.59987 0
M  V30 3406 H 314.754 -1.11841 -4.00995 0
M  V30 3407 H 315.287 -2.53214 -3.06802 0
M  V30 3408 H 312.026 -5.48373 -3.5912 0
M  V30 3409 H 311.546 -4.0088 -4.46156 0
M  V30 3410 H 313.225 -4.59597 -4.55389 0
M  V30 3411 N 313.357 1.07166 -1.15556 0
M  V30 3412 C 314.605 1.79443 -0.929764 0
M  V30 3413 C 314.926 1.87246 0.544414 0
M  V30 3414 O 314.196 1.37473 1.39564 0
M  V30 3415 H 312.776 0.664625 -0.341003 0
M  V30 3416 H 315.438 1.29499 -1.45657 0
M  V30 3417 H 314.534 2.81832 -1.34079 0
M  V30 3418 N 314.835 0.952656 1.25548 0
M  V30 3419 C 316.084 0.602053 1.92505 0
M  V30 3420 C 316.397 -0.864663 1.75451 0
M  V30 3421 O 317.603 -1.32514 2.36965 0
M  V30 3422 C 316.059 1.02607 3.44963 0
M  V30 3423 C 315.667 2.51519 3.70732 0
M  V30 3424 C 317.411 0.747905 4.1786 0
M  V30 3425 C 315.318 2.87732 5.16686 0
M  V30 3426 H 314.248 0.22146 0.720744 0
M  V30 3427 H 316.899 1.15684 1.42441 0
M  V30 3428 H 315.281 0.399712 3.93978 0
M  V30 3429 H 316.455 3.19157 3.32378 0
M  V30 3430 H 314.77 2.76786 3.11092 0
M  V30 3431 H 317.367 0.994647 5.25367 0
M  V30 3432 H 317.71 -0.315629 4.15102 0
M  V30 3433 H 318.243 1.33452 3.74747 0
M  V30 3434 H 314.982 3.93095 5.24554 0
M  V30 3435 H 314.502 2.24765 5.56094 0
M  V30 3436 H 316.181 2.76817 5.84792 0
M  V30 3437 N 316.313 -1.40141 0.720998 0
M  V30 3438 C 317.276 -2.29058 0.0805834 0
M  V30 3439 C 318.276 -1.45632 -0.681758 0
M  V30 3440 O 319.466 -1.6648 -0.512856 0
M  V30 3441 C 316.598 -3.28925 -0.895593 0
M  V30 3442 H 317.791 -2.87191 0.863793 0
M  V30 3443 H 315.344 -1.48553 0.485975 0
M  V30 3444 H 316.079 -2.75822 -1.70566 0
M  V30 3445 H 315.864 -3.90519 -0.351766 0
M  V30 3446 H 317.354 -3.95494 -1.34069 0
M  V30 3447 N 317.792 -0.46758 -1.50504 0
M  V30 3448 C 318.755 0.317059 -2.26996 0
M  V30 3449 C 319.755 0.923513 -1.31635 0
M  V30 3450 O 320.945 0.793239 -1.55091 0
M  V30 3451 C 318.077 1.45134 -3.08462 0
M  V30 3452 H 319.27 -0.353723 -2.97807 0
M  V30 3453 H 316.823 -0.221545 -1.54722 0
M  V30 3454 H 317.558 2.15728 -2.4214 0
M  V30 3455 H 317.343 1.02232 -3.78538 0
M  V30 3456 H 318.833 2.00493 -3.66323 0
M  V30 3457 N 319.27 1.56325 -0.20005 0
M  V30 3458 C 320.516 1.98772 0.431408 0
M  V30 3459 C 320.871 1.0849 1.58895 0
M  V30 3460 O 320.164 0.130331 1.91156 0
M  V30 3461 C 320.358 3.4495 0.935103 0
M  V30 3462 C 320.187 4.49371 -0.172096 0
M  V30 3463 C 318.957 5.0134 -0.631377 0
M  V30 3464 C 321.155 5.04822 -0.982806 0
M  V30 3465 N 319.137 5.89433 -1.71588 0
M  V30 3466 C 320.508 5.89632 -1.91661 0
M  V30 3467 C 322.563 4.87242 -1.02467 0
M  V30 3468 C 321.266 6.58741 -2.88881 0
M  V30 3469 C 323.292 5.57094 -1.98494 0
M  V30 3470 C 322.654 6.41655 -2.90617 0
M  V30 3471 H 318.753 0.771922 0.125144 0
M  V30 3472 H 321.337 1.92266 -0.306883 0
M  V30 3473 H 319.508 3.51946 1.64282 0
M  V30 3474 H 321.24 3.74354 1.53758 0
M  V30 3475 H 317.995 4.73071 -0.223827 0
M  V30 3476 H 318.419 6.38182 -2.25948 0
M  V30 3477 H 323.061 4.21538 -0.326408 0
M  V30 3478 H 320.779 7.23641 -3.5968 0
M  V30 3479 H 324.365 5.45466 -2.0238 0
M  V30 3480 H 323.245 6.94755 -3.63711 0
M  V30 3481 N 320.748 -0.0735177 1.57428 0
M  V30 3482 C 321.996 -0.771472 1.86796 0
M  V30 3483 C 322.317 -1.78201 0.791804 0
M  V30 3484 O 321.587 -1.95074 -0.179718 0
M  V30 3485 H 320.167 -0.28791 0.689287 0
M  V30 3486 H 322.829 -0.0500161 1.94836 0
M  V30 3487 H 321.925 -1.28874 2.8425 0
M  V30 3488 N 322.226 -1.5378 -0.344866 0
M  V30 3489 C 323.159 -1.7649 -1.4466 0
M  V30 3490 C 324.137 -0.613954 -1.50563 0
M  V30 3491 O 325.321 -0.84896 -1.683 0
M  V30 3492 C 322.448 -1.86235 -2.82903 0
M  V30 3493 C 321.494 -3.08375 -2.94631 0
M  V30 3494 S 322.327 -4.67457 -2.61236 0
M  V30 3495 C 323.483 -4.80079 -4.0159 0
M  V30 3496 H 323.716 -2.69661 -1.2518 0
M  V30 3497 H 321.249 -1.44632 -0.540455 0
M  V30 3498 H 323.207 -1.92535 -3.62547 0
M  V30 3499 H 321.868 -0.940786 -2.9968 0
M  V30 3500 H 321.061 -3.11865 -3.95925 0
M  V30 3501 H 320.663 -3.00294 -2.22934 0
M  V30 3502 H 322.955 -4.61407 -4.96094 0
M  V30 3503 H 323.898 -5.82168 -4.03095 0
M  V30 3504 H 324.306 -4.08544 -3.89554 0
M  V30 3505 N 323.704 0.605807 -1.45491 0
M  V30 3506 C 324.95 1.36679 -1.49823 0
M  V30 3507 C 325.283 1.93693 -0.140175 0
M  V30 3508 O 324.558 1.75158 0.845581 0
M  V30 3509 C 324.841 2.51337 -2.57879 0
M  V30 3510 C 324.694 1.99508 -4.03134 0
M  V30 3511 C 326.013 3.53463 -2.62205 0
M  V30 3512 H 323.132 0.495617 -0.545466 0
M  V30 3513 H 325.774 0.682732 -1.7731 0
M  V30 3514 H 323.924 3.09691 -2.34571 0
M  V30 3515 H 325.596 1.45789 -4.37656 0
M  V30 3516 H 323.839 1.30496 -4.13707 0
M  V30 3517 H 324.51 2.82169 -4.74431 0
M  V30 3518 H 326.986 3.04953 -2.83095 0
M  V30 3519 H 325.862 4.31178 -3.39672 0
M  V30 3520 H 326.123 4.09197 -1.67363 0
M  V30 3521 N 325.182 1.32811 0.848464 0
M  V30 3522 C 326.407 1.26882 1.6406 0
M  V30 3523 C 326.832 -0.15913 1.87426 0
M  V30 3524 O 326.19 -1.11258 1.43148 0
M  V30 3525 C 326.238 2.03997 2.97351 0
M  V30 3526 O 325.342 1.39201 3.88197 0
M  V30 3527 H 324.683 0.436982 0.499943 0
M  V30 3528 H 327.213 1.75224 1.0563 0
M  V30 3529 H 327.223 2.14403 3.47124 0
M  V30 3530 H 325.898 3.0783 2.79666 0
M  V30 3531 H 324.475 1.37381 3.46671 0
M  V30 3532 N 326.66 -1.06551 1.16123 0
M  V30 3533 C 327.608 -2.16063 0.861371 0
M  V30 3534 C 328.602 -1.6856 -0.168517 0
M  V30 3535 O 329.808 -1.79986 -0.0227579 0
M  V30 3536 H 326.183 -0.705278 0.260934 0
M  V30 3537 H 328.154 -2.38567 1.79244 0
M  V30 3538 C 326.903 -3.45661 0.376018 0
M  V30 3539 H 326.226 -3.82604 1.15992 0
M  V30 3540 H 327.666 -4.23504 0.204951 0
M  V30 3541 C 326.125 -3.24546 -0.903954 0
M  V30 3542 O 326.655 -3.49865 -1.97377 0
M  V30 3543 N 324.861 -2.77992 -0.846679 0
M  V30 3544 H 324.408 -2.57589 0.0241017 0
M  V30 3545 H 324.366 -2.64244 -1.70359 0
M  V30 3546 N 328.138 -0.959301 -1.25041 0
M  V30 3547 C 329.554 -0.664474 -1.4511 0
M  V30 3548 C 329.754 0.776481 -1.85938 0
M  V30 3549 O 328.81 1.55128 -1.99227 0
M  V30 3550 C 330.123 -1.64139 -2.5195 0
M  V30 3551 C 331.671 -1.65309 -2.65786 0
M  V30 3552 C 332.146 -2.61777 -3.75815 0
M  V30 3553 N 333.637 -2.60169 -3.83231 0
M  V30 3554 C 334.372 -3.31489 -4.6787 0
M  V30 3555 N 333.868 -4.12298 -5.56761 0
M  V30 3556 N 335.661 -3.20354 -4.61876 0
M  V30 3557 H 327.812 -1.89043 -0.968332 0
M  V30 3558 H 330.075 -0.813408 -0.4869 0
M  V30 3559 H 329.781 -2.67086 -2.28819 0
M  V30 3560 H 329.655 -1.40756 -3.49954 0
M  V30 3561 H 332.042 -0.630778 -2.8828 0
M  V30 3562 H 332.123 -1.92753 -1.68167 0
M  V30 3563 H 331.767 -3.64137 -3.54071 0
M  V30 3564 H 331.697 -2.31616 -4.72929 0
M  V30 3565 H 334.188 -2.01507 -3.19692 0
M  V30 3566 H 334.501 -4.63625 -6.18281 0
M  V30 3567 H 332.846 -4.16395 -5.56454 0
M  V30 3568 H 336.037 -2.56692 -3.91442 0
M  V30 3569 H 336.21 -3.76201 -5.27614 0
M  V30 3570 N 329.616 1.39756 -0.72842 0
M  V30 3571 C 330.893 1.94574 -0.200079 0
M  V30 3572 C 331.273 1.66569 1.29684 0
M  V30 3573 O 330.621 0.990326 2.05924 0
M  V30 3574 C 330.831 3.45004 -0.526608 0
M  V30 3575 C 332.179 4.21965 -0.472318 0
M  V30 3576 O 333.203 3.53173 -0.463413 0
M  V30 3577 O 332.062 5.44552 -0.461075 0
M  V30 3578 H 329.156 0.826289 -0.0342851 0
M  V30 3579 H 331.702 1.49293 -0.806829 0
M  V30 3580 H 330.474 3.58796 -1.56144 0
M  V30 3581 H 330.097 3.97449 0.109449 0
M  V30 3582 N 331.094 0.475555 1.50254 0
M  V30 3583 C 332.322 -0.0754493 2.06762 0
M  V30 3584 C 332.737 -1.33111 1.33891 0
M  V30 3585 O 332.094 -1.77846 0.40952 0
M  V30 3586 C 332.145 -0.359008 3.59713 0
M  V30 3587 O 331.866 0.846851 4.29837 0
M  V30 3588 C 333.367 -0.956484 4.32858 0
M  V30 3589 H 330.587 0.00907525 0.670939 0
M  V30 3590 H 333.131 0.665618 1.93364 0
M  V30 3591 H 331.286 -1.05001 3.72899 0
M  V30 3592 H 331.7 0.594162 5.21124 0
M  V30 3593 H 333.174 -1.10463 5.40834 0
M  V30 3594 H 333.651 -1.94775 3.93649 0
M  V30 3595 H 334.257 -0.303723 4.24214 0
M  V30 3596 N 332.573 -1.56217 0.208337 0
M  V30 3597 C 333.503 -2.22694 -0.702116 0
M  V30 3598 C 334.484 -1.19432 -1.2112 0
M  V30 3599 O 335.669 -1.47978 -1.25762 0
M  V30 3600 C 332.799 -2.8966 -1.9161 0
M  V30 3601 C 331.753 -3.9928 -1.5414 0
M  V30 3602 C 331.079 -4.53476 -2.83308 0
M  V30 3603 C 332.379 -5.17012 -0.741339 0
M  V30 3604 H 334.073 -2.99034 -0.147898 0
M  V30 3605 H 331.619 -1.43831 -0.0696951 0
M  V30 3606 H 333.572 -3.34852 -2.55836 0
M  V30 3607 H 332.296 -2.10746 -2.49507 0
M  V30 3608 H 330.955 -3.54799 -0.922668 0
M  V30 3609 H 330.603 -3.71308 -3.39322 0
M  V30 3610 H 330.303 -5.27451 -2.58976 0
M  V30 3611 H 331.827 -5.01378 -3.485 0
M  V30 3612 H 333.241 -5.58667 -1.28699 0
M  V30 3613 H 331.638 -5.97137 -0.595627 0
M  V30 3614 H 332.708 -4.8423 0.254851 0
M  V30 3615 N 334.051 0.0651679 -1.57465 0
M  V30 3616 C 335.3 0.761916 -1.86756 0
M  V30 3617 C 335.613 1.78406 -0.801925 0
M  V30 3618 O 336.819 2.53084 -0.982885 0
M  V30 3619 C 335.275 1.40603 -3.31299 0
M  V30 3620 C 334.883 0.422115 -4.46007 0
M  V30 3621 C 336.627 2.08476 -3.69781 0
M  V30 3622 C 334.534 1.07252 -5.81593 0
M  V30 3623 H 333.464 0.288308 -0.696702 0
M  V30 3624 H 336.115 0.015344 -1.83494 0
M  V30 3625 H 334.497 2.20109 -3.29193 0
M  V30 3626 H 335.671 -0.343613 -4.59517 0
M  V30 3627 H 333.986 -0.152527 -4.16121 0
M  V30 3628 H 336.583 2.57925 -4.68379 0
M  V30 3629 H 336.926 2.88712 -2.99919 0
M  V30 3630 H 337.459 1.35792 -3.73905 0
M  V30 3631 H 334.198 0.310342 -6.54765 0
M  V30 3632 H 333.718 1.80895 -5.71872 0
M  V30 3633 H 335.397 1.59043 -6.27148 0
M  V30 3634 N 335.529 1.53961 0.336706 0
M  V30 3635 C 336.945 1.44378 0.680241 0
M  V30 3636 C 337.145 0.606034 1.9217 0
M  V30 3637 O 336.201 0.099688 2.52303 0
M  V30 3638 C 337.514 2.87945 0.8665 0
M  V30 3639 C 339.062 2.97763 0.964682 0
M  V30 3640 C 339.537 4.42453 1.18321 0
M  V30 3641 N 341.028 4.46008 1.25025 0
M  V30 3642 C 341.763 5.55102 1.43697 0
M  V30 3643 N 341.259 6.7419 1.59498 0
M  V30 3644 N 343.052 5.42727 1.463 0
M  V30 3645 H 335.203 2.06918 -0.479455 0
M  V30 3646 H 337.466 0.935634 -0.152619 0
M  V30 3647 H 337.172 3.51691 0.0256937 0
M  V30 3648 H 337.046 3.33293 1.76623 0
M  V30 3649 H 339.433 2.34153 1.796 0
M  V30 3650 H 339.514 2.55766 0.041708 0
M  V30 3651 H 339.158 5.06645 0.356788 0
M  V30 3652 H 339.088 4.82048 2.11985 0
M  V30 3653 H 341.579 3.60196 1.14312 0
M  V30 3654 H 341.892 7.53095 1.734 0
M  V30 3655 H 340.237 6.77123 1.56621 0
M  V30 3656 H 343.428 4.48647 1.33543 0
M  V30 3657 H 343.601 6.27806 1.6051 0
M  V30 3658 N 337.007 -0.598083 1.45811 0
M  V30 3659 C 337.955 -1.72932 1.55555 0
M  V30 3660 C 338.949 -1.63984 0.424921 0
M  V30 3661 O 340.155 -1.69663 0.601205 0
M  V30 3662 H 336.53 -0.571489 0.488779 0
M  V30 3663 H 338.501 -1.61842 2.50699 0
M  V30 3664 C 337.25 -3.11318 1.54843 0
M  V30 3665 H 336.573 -3.18867 2.41172 0
M  V30 3666 H 338.013 -3.90274 1.65717 0
M  V30 3667 C 336.472 -3.3578 0.274427 0
M  V30 3668 O 337.002 -3.9654 -0.641778 0
M  V30 3669 N 335.208 -2.90119 0.167139 0
M  V30 3670 H 334.755 -2.40855 0.913596 0
M  V30 3671 H 334.713 -3.0686 -0.684435 0
M  V30 3672 N 338.485 -1.33259 -0.841409 0
M  V30 3673 C 339.725 -1.25902 -1.61022 0
M  V30 3674 C 340.089 0.173325 -1.91216 0
M  V30 3675 O 341.29 0.370824 -2.6623 0
M  V30 3676 C 339.561 -2.10735 -2.88662 0
M  V30 3677 S 341.12 -2.20541 -3.79351 0
M  V30 3678 H 337.938 -0.447958 -0.552137 0
M  V30 3679 H 340.54 -1.68263 -0.995382 0
M  V30 3680 H 339.244 -3.1384 -2.64448 0
M  V30 3681 H 338.775 -1.69201 -3.55154 0
M  V30 3682 H 340.79 -1.36462 -4.77067 0
M  V30 3683 N 339.963 1.05934 -1.16686 0
M  V30 3684 C 341.24 1.75643 -0.860747 0
M  V30 3685 C 341.62 2.01144 0.640641 0
M  V30 3686 O 340.968 1.64147 1.58959 0
M  V30 3687 C 341.178 3.05493 -1.68745 0
M  V30 3688 C 342.526 3.79581 -1.90271 0
M  V30 3689 O 343.55 3.15344 -1.65641 0
M  V30 3690 O 342.409 4.9499 -2.31618 0
M  V30 3691 H 339.503 0.763426 -0.317977 0
M  V30 3692 H 342.049 1.1217 -1.27342 0
M  V30 3693 H 340.821 2.8264 -2.70611 0
M  V30 3694 H 340.444 3.76702 -1.27206 0
M  V30 3695 N 341.441 0.965919 1.2453 0
M  V30 3696 C 342.404 0.499547 2.2369 0
M  V30 3697 C 343.404 -0.40294 1.5567 0
M  V30 3698 O 344.594 -0.19865 1.73064 0
M  V30 3699 C 341.726 -0.276792 3.39774 0
M  V30 3700 H 342.919 1.37613 2.66463 0
M  V30 3701 H 340.472 0.750324 1.37112 0
M  V30 3702 H 341.207 -1.17055 3.02438 0
M  V30 3703 H 340.992 0.370826 3.90343 0
M  V30 3704 H 342.482 -0.592175 4.1338 0
M  V30 3705 N 342.919 -1.39368 0.735821 0
M  V30 3706 C 343.829 -2.34395 0.0979693 0
M  V30 3707 C 344.845 -1.58361 -0.720968 0
M  V30 3708 O 346.021 -1.90648 -0.649245 0
M  V30 3709 C 343.086 -3.37393 -0.797916 0
M  V30 3710 C 342.147 -4.29287 0.0333662 0
M  V30 3711 C 341.38 -5.27365 -0.819854 0
M  V30 3712 O 341.603 -5.31959 -2.05855 0
M  V30 3713 O 340.537 -6.01389 -0.248079 0
M  V30 3714 H 344.363 -2.90601 0.882315 0
M  V30 3715 H 341.948 -1.40909 0.4965 0
M  V30 3716 H 343.83 -4.00505 -1.31048 0
M  V30 3717 H 342.505 -2.83571 -1.56106 0
M  V30 3718 H 341.412 -3.69395 0.591475 0
M  V30 3719 H 342.745 -4.86317 0.758752 0
M  V30 3720 N 344.397 -0.483516 -1.5 0
M  V30 3721 C 345.645 0.067027 -2.01989 0
M  V30 3722 C 345.966 1.3909 -1.36671 0
M  V30 3723 O 345.236 1.88978 -0.516152 0
M  V30 3724 H 343.816 0.0277606 -0.746484 0
M  V30 3725 H 346.478 -0.636773 -1.84204 0
M  V30 3726 H 345.574 0.209484 -3.11396 0
M  V30 3727 N 345.875 1.56104 -0.216619 0
M  V30 3728 C 347.105 2.02269 0.420802 0
M  V30 3729 C 347.513 1.09575 1.5424 0
M  V30 3730 O 346.856 0.0967308 1.83445 0
M  V30 3731 C 346.918 3.44784 1.01806 0
M  V30 3732 C 346.582 4.56988 0.0325154 0
M  V30 3733 C 347.579 5.14225 -0.766055 0
M  V30 3734 C 345.264 5.02228 -0.0848092 0
M  V30 3735 C 347.258 6.15169 -1.6687 0
M  V30 3736 C 344.945 6.03011 -0.990994 0
M  V30 3737 C 345.943 6.59357 -1.78149 0
M  V30 3738 O 345.631 7.58179 -2.67245 0
M  V30 3739 H 345.363 0.667353 0.107776 0
M  V30 3740 H 347.917 2.02747 -0.329034 0
M  V30 3741 H 346.147 3.41359 1.81689 0
M  V30 3742 H 347.836 3.74626 1.56237 0
M  V30 3743 H 348.602 4.80126 -0.685836 0
M  V30 3744 H 344.481 4.58054 0.520349 0
M  V30 3745 H 348.025 6.59076 -2.28615 0
M  V30 3746 H 343.922 6.36532 -1.07225 0
M  V30 3747 H 344.69 7.75682 -2.61265 0
M  V30 3748 N 347.353 -0.0568162 1.57498 0
M  V30 3749 C 348.6 -0.753104 1.87975 0
M  V30 3750 C 348.928 -1.76815 0.81035 0
M  V30 3751 O 348.183 -1.94756 -0.19199 0
M  V30 3752 C 348.482 -1.48359 3.25153 0
M  V30 3753 C 348.148 -0.60713 4.46794 0
M  V30 3754 C 346.81 -0.365642 4.79809 0
M  V30 3755 C 349.162 -0.000305978 5.212 0
M  V30 3756 C 346.49 0.491905 5.84634 0
M  V30 3757 C 348.842 0.844781 6.26934 0
M  V30 3758 C 347.506 1.096 6.58441 0
M  V30 3759 H 346.776 -0.27558 0.687849 0
M  V30 3760 H 349.423 -0.0135173 1.91495 0
M  V30 3761 H 347.728 -2.29577 3.17492 0
M  V30 3762 H 349.425 -2.02739 3.45974 0
M  V30 3763 H 346.015 -0.805487 4.20963 0
M  V30 3764 H 350.199 -0.173961 4.95995 0
M  V30 3765 H 345.455 0.695131 6.07436 0
M  V30 3766 H 349.629 1.32165 6.83744 0
M  V30 3767 H 347.256 1.76224 7.39492 0
M  V30 3768 N 348.832 -1.54138 -0.328536 0
M  V30 3769 C 349.762 -1.86167 -1.40939 0
M  V30 3770 C 350.743 -0.718044 -1.54202 0
M  V30 3771 O 351.928 -0.971328 -1.68163 0
M  V30 3772 C 349.058 -2.08461 -2.77779 0
M  V30 3773 C 348.012 -3.24299 -2.7931 0
M  V30 3774 C 347.338 -3.31955 -4.19178 0
M  V30 3775 C 348.638 -4.62065 -2.43502 0
M  V30 3776 H 350.332 -2.76689 -1.14383 0
M  V30 3777 H 347.878 -1.33132 -0.548806 0
M  V30 3778 H 349.831 -2.29453 -3.53454 0
M  V30 3779 H 348.555 -1.14684 -3.05802 0
M  V30 3780 H 347.214 -3.03187 -2.0609 0
M  V30 3781 H 346.862 -2.35745 -4.44335 0
M  V30 3782 H 346.562 -4.09805 -4.2111 0
M  V30 3783 H 348.086 -3.55175 -4.96672 0
M  V30 3784 H 349.5 -4.8297 -3.08889 0
M  V30 3785 H 347.897 -5.42429 -2.56693 0
M  V30 3786 H 348.967 -4.64652 -1.38659 0
M  V30 3787 N 350.31 0.590341 -1.46126 0
M  V30 3788 C 351.273 1.68194 -1.55703 0
M  V30 3789 C 352.273 1.54808 -0.434868 0
M  V30 3790 O 353.463 1.59564 -0.698928 0
M  V30 3791 C 350.595 3.07575 -1.47005 0
M  V30 3792 H 351.788 1.61064 -2.52979 0
M  V30 3793 H 349.341 0.807541 -1.33823 0
M  V30 3794 H 350.076 3.20268 -0.509785 0
M  V30 3795 H 349.861 3.187 -2.28414 0
M  V30 3796 H 351.351 3.87055 -1.56776 0
M  V30 3797 N 351.788 1.33704 0.83433 0
M  V30 3798 C 352.72 1.20172 1.9517 0
M  V30 3799 C 353.733 0.131572 1.62267 0
M  V30 3800 O 354.922 0.382406 1.74356 0
M  V30 3801 C 352.022 0.821716 3.28787 0
M  V30 3802 C 351.195 1.98446 3.89792 0
M  V30 3803 C 350.254 1.58469 5.01771 0
M  V30 3804 O 349.28 2.29968 5.20676 0
M  V30 3805 N 350.482 0.492291 5.78409 0
M  V30 3806 H 353.247 2.16429 2.07313 0
M  V30 3807 H 350.808 1.26509 1.0103 0
M  V30 3808 H 352.8 0.536291 4.01131 0
M  V30 3809 H 351.37 -0.0503058 3.1256 0
M  V30 3810 H 350.59 2.43526 3.09982 0
M  V30 3811 H 351.878 2.76236 4.27283 0
M  V30 3812 H 351.276 -0.102349 5.65607 0
M  V30 3813 H 349.833 0.266555 6.51255 0
M  V30 3814 N 353.266 -1.05314 1.17247 0
M  V30 3815 C 354.496 -1.81707 0.983166 0
M  V30 3816 C 354.904 -1.83222 -0.471822 0
M  V30 3817 O 354.247 -1.25721 -1.3394 0
M  V30 3818 C 354.309 -3.29134 1.44606 0
M  V30 3819 C 353.973 -3.51304 2.92292 0
M  V30 3820 C 354.97 -3.4353 3.90235 0
M  V30 3821 C 352.655 -3.78306 3.30439 0
M  V30 3822 C 354.649 -3.62442 5.24323 0
M  V30 3823 C 352.336 -3.96866 4.64694 0
M  V30 3824 C 353.334 -3.88933 5.61445 0
M  V30 3825 O 353.022 -4.06976 6.93272 0
M  V30 3826 H 352.754 -0.579476 0.348114 0
M  V30 3827 H 355.308 -1.33705 1.55924 0
M  V30 3828 H 353.538 -3.78046 0.813537 0
M  V30 3829 H 355.227 -3.87049 1.22262 0
M  V30 3830 H 355.993 -3.22648 3.62109 0
M  V30 3831 H 351.872 -3.83585 2.55702 0
M  V30 3832 H 355.416 -3.56165 5.99827 0
M  V30 3833 H 351.313 -4.1724 4.92525 0
M  V30 3834 H 352.081 -4.24209 6.99992 0
M  V30 3835 N 354.744 -0.972509 -1.24016 0
M  V30 3836 C 355.674 -0.525548 -2.27509 0
M  V30 3837 C 356.655 0.437262 -1.64384 0
M  V30 3838 O 357.84 0.332343 -1.91335 0
M  V30 3839 C 354.97 0.180448 -3.46831 0
M  V30 3840 C 353.924 -0.698859 -4.22256 0
M  V30 3841 C 353.25 0.138903 -5.3452 0
M  V30 3842 C 354.55 -1.98582 -4.83076 0
M  V30 3843 H 356.244 -1.39058 -2.65148 0
M  V30 3844 H 353.79 -0.67009 -1.27459 0
M  V30 3845 H 355.743 0.504387 -4.18371 0
M  V30 3846 H 354.467 1.07987 -3.08231 0
M  V30 3847 H 353.126 -1.00614 -3.52523 0
M  V30 3848 H 352.774 1.03862 -4.9216 0
M  V30 3849 H 352.474 -0.446259 -5.85903 0
M  V30 3850 H 353.998 0.457404 -6.08884 0
M  V30 3851 H 355.412 -1.72715 -5.46665 0
M  V30 3852 H 353.809 -2.5181 -5.44713 0
M  V30 3853 H 354.879 -2.67769 -4.04262 0
M  V30 3854 N 356.222 1.38976 -0.743202 0
M  V30 3855 C 357.155 2.28128 -0.0572165 0
M  V30 3856 C 358.133 1.44827 0.739182 0
M  V30 3857 O 359.317 1.74207 0.720009 0
M  V30 3858 C 356.444 3.25796 0.926001 0
M  V30 3859 C 355.49 4.25947 0.217099 0
M  V30 3860 S 356.323 5.24604 -1.07477 0
M  V30 3861 C 357.479 6.25829 -0.0943545 0
M  V30 3862 H 357.712 2.85961 -0.813246 0
M  V30 3863 H 355.245 1.44822 -0.535341 0
M  V30 3864 H 357.203 3.82583 1.48797 0
M  V30 3865 H 355.864 2.66966 1.65493 0
M  V30 3866 H 355.057 4.94746 0.961372 0
M  V30 3867 H 354.659 3.73002 -0.273059 0
M  V30 3868 H 356.951 6.73411 0.743239 0
M  V30 3869 H 357.894 7.0412 -0.749713 0
M  V30 3870 H 358.302 5.63797 0.281706 0
M  V30 3871 N 357.7 0.491464 1.49741 0
M  V30 3872 C 358.977 -0.118984 1.95238 0
M  V30 3873 C 359.357 -1.55044 1.43264 0
M  V30 3874 O 358.705 -2.19287 0.642287 0
M  V30 3875 C 358.915 -0.0414187 3.48975 0
M  V30 3876 C 360.263 -0.220133 4.24029 0
M  V30 3877 O 361.287 -0.117055 3.56008 0
M  V30 3878 O 360.146 -0.430567 5.44801 0
M  V30 3879 H 357.24 -0.100536 0.820866 0
M  V30 3880 H 359.786 0.553322 1.60426 0
M  V30 3881 H 358.558 0.957214 3.79412 0
M  V30 3882 H 358.181 -0.754292 3.9038 0
M  V30 3883 N 359.178 -1.55987 0.224894 0
M  V30 3884 C 360.455 -1.90232 -0.455083 0
M  V30 3885 C 360.835 -1.14269 -1.77499 0
M  V30 3886 O 360.183 -0.253079 -2.27094 0
M  V30 3887 C 360.393 -3.42993 -0.644758 0
M  V30 3888 C 361.741 -4.13821 -0.950669 0
M  V30 3889 O 362.765 -3.4861 -0.731423 0
M  V30 3890 O 361.624 -5.29128 -1.36695 0
M  V30 3891 H 358.718 -0.79108 -0.241084 0
M  V30 3892 H 361.264 -1.67581 0.267327 0
M  V30 3893 H 360.036 -3.90252 0.28613 0
M  V30 3894 H 359.659 -3.71434 -1.41853 0
M  V30 3895 N 360.656 0.0484629 -1.57525 0
M  V30 3896 C 361.903 0.743125 -1.88372 0
M  V30 3897 C 362.231 1.76383 -0.819715 0
M  V30 3898 O 361.486 1.94855 0.181659 0
M  V30 3899 C 361.785 1.46632 -3.25935 0
M  V30 3900 C 361.451 0.583427 -4.4711 0
M  V30 3901 C 360.113 0.340191 -4.79996 0
M  V30 3902 C 362.465 -0.0273345 -5.21193 0
M  V30 3903 C 359.793 -0.522903 -5.84365 0
M  V30 3904 C 362.145 -0.878017 -6.26477 0
M  V30 3905 C 360.809 -1.1309 -6.5785 0
M  V30 3906 H 360.079 0.271929 -0.689301 0
M  V30 3907 H 362.726 0.00336166 -1.915 0
M  V30 3908 H 361.031 2.2789 -3.18706 0
M  V30 3909 H 362.728 2.00902 -3.47044 0
M  V30 3910 H 359.318 0.783151 -4.21384 0
M  V30 3911 H 363.502 0.147654 -4.9608 0
M  V30 3912 H 358.758 -0.727335 -6.07058 0
M  V30 3913 H 362.932 -1.35789 -6.83033 0
M  V30 3914 H 360.559 -1.80144 -7.38547 0
M  V30 3915 N 362.134 1.5431 0.320358 0
M  V30 3916 C 363.362 1.76636 1.07738 0
M  V30 3917 C 363.777 0.51649 1.81598 0
M  V30 3918 O 363.134 -0.512942 1.75143 0
M  V30 3919 C 363.185 2.96158 2.07299 0
M  V30 3920 O 362.906 4.16313 1.36438 0
M  V30 3921 C 364.407 3.3072 2.95193 0
M  V30 3922 H 361.627 0.589597 0.320339 0
M  V30 3923 H 364.171 2.01207 0.36551 0
M  V30 3924 H 362.326 2.73851 2.74016 0
M  V30 3925 H 362.74 4.83565 2.03138 0
M  V30 3926 H 364.214 4.17643 3.60941 0
M  V30 3927 H 364.691 2.48026 3.62463 0
M  V30 3928 H 365.297 3.55117 2.34034 0
M  V30 3929 N 363.613 -0.582584 1.46437 0
M  V30 3930 C 365.029 -0.905962 1.31394 0
M  V30 3931 C 365.229 -1.99468 0.285476 0
M  V30 3932 O 364.285 -2.50566 -0.311914 0
M  V30 3933 C 365.598 -1.3232 2.70022 0
M  V30 3934 C 367.146 -1.43604 2.78113 0
M  V30 3935 C 367.621 -1.88694 4.17323 0
M  V30 3936 N 369.112 -1.95887 4.19741 0
M  V30 3937 C 369.847 -2.32051 5.24347 0
M  V30 3938 N 369.343 -2.67006 6.39281 0
M  V30 3939 N 371.136 -2.32606 5.11713 0
M  V30 3940 H 363.287 0.1366 2.1196 0
M  V30 3941 H 365.55 -0.00155736 0.947999 0
M  V30 3942 H 365.256 -0.597242 3.46592 0
M  V30 3943 H 365.13 -2.28469 3.00136 0
M  V30 3944 H 367.517 -2.15286 2.01832 0
M  V30 3945 H 367.598 -0.457059 2.51684 0
M  V30 3946 H 367.242 -1.1759 4.941 0
M  V30 3947 H 367.172 -2.8755 4.4116 0
M  V30 3948 H 369.663 -1.71362 3.36814 0
M  V30 3949 H 369.976 -2.93554 7.14875 0
M  V30 3950 H 368.321 -2.64644 6.42642 0
M  V30 3951 H 371.512 -2.04721 4.2096 0
M  V30 3952 H 371.685 -2.60462 5.93349 0
M  V30 3953 N 365.091 -1.34144 -0.827227 0
M  V30 3954 C 366.368 -1.16844 -1.56865 0
M  V30 3955 C 366.748 0.260654 -2.09485 0
M  V30 3956 O 366.096 1.26138 -1.9053 0
M  V30 3957 C 366.306 -2.21939 -2.6934 0
M  V30 3958 C 367.654 -2.56695 -3.3822 0
M  V30 3959 O 368.678 -2.20695 -2.79593 0
M  V30 3960 O 367.537 -3.18518 -4.44082 0
M  V30 3961 H 364.631 -0.452669 -0.692112 0
M  V30 3962 H 367.177 -1.45763 -0.868973 0
M  V30 3963 H 365.949 -3.17882 -2.28182 0
M  V30 3964 H 365.572 -1.94172 -3.46962 0
M  V30 3965 N 366.569 1.04691 -1.17803 0
M  V30 3966 C 367.98 1.59238 -0.974689 0
M  V30 3967 C 368.331 1.90306 0.477292 0
M  V30 3968 O 367.456 1.68846 1.35352 0
M  V30 3969 C 368.051 2.89318 -1.76296 0
M  V30 3970 C 366.61 3.40506 -1.60414 0
M  V30 3971 C 365.757 2.14172 -1.76141 0
M  V30 3972 H 368.708 0.874395 -1.32439 0
M  V30 3973 H 368.729 3.5944 -1.24833 0
M  V30 3974 H 368.241 2.66675 -2.81968 0
M  V30 3975 H 366.342 3.68175 -0.572519 0
M  V30 3976 H 366.455 4.14753 -2.39827 0
M  V30 3977 H 364.819 2.25176 -1.19028 0
M  V30 3978 H 365.602 1.93992 -2.83235 0
M  V30 3979 N 368.047 0.979072 1.23499 0
M  V30 3980 C 368.977 0.537606 2.27227 0
M  V30 3981 C 369.958 -0.428539 1.64613 0
M  V30 3982 O 371.143 -0.322191 1.91509 0
M  V30 3983 C 368.273 -0.162052 3.46922 0
M  V30 3984 C 367.227 0.721242 4.21879 0
M  V30 3985 C 366.553 -0.110555 5.34586 0
M  V30 3986 C 367.853 2.01141 4.82016 0
M  V30 3987 H 369.547 1.40462 2.64406 0
M  V30 3988 H 367.093 0.67684 1.27102 0
M  V30 3989 H 369.046 -0.482192 4.18632 0
M  V30 3990 H 367.77 -1.06351 3.08799 0
M  V30 3991 H 366.429 1.02482 3.51984 0
M  V30 3992 H 366.077 -1.0125 4.92704 0
M  V30 3993 H 365.777 0.477325 5.85658 0
M  V30 3994 H 367.301 -0.425107 6.09118 0
M  V30 3995 H 368.715 1.75612 5.45741 0
M  V30 3996 H 367.112 2.54695 5.43369 0
M  V30 3997 H 368.182 2.69909 4.02836 0
M  V30 3998 N 369.525 -1.3858 0.750561 0
M  V30 3999 C 370.755 -2.04175 0.31564 0
M  V30 4000 C 371.163 -1.56726 -1.05989 0
M  V30 4001 O 370.506 -0.734225 -1.68389 0
M  V30 4002 C 370.568 -3.58585 0.256389 0
M  V30 4003 C 370.232 -4.29077 1.57296 0
M  V30 4004 C 371.229 -4.54656 2.52159 0
M  V30 4005 C 368.914 -4.67324 1.84156 0
M  V30 4006 C 370.908 -5.17512 3.72103 0
M  V30 4007 C 368.595 -5.29905 3.04374 0
M  V30 4008 C 369.593 -5.54933 3.98168 0
M  V30 4009 O 369.281 -6.16212 5.16273 0
M  V30 4010 H 369.013 -0.662742 0.133226 0
M  V30 4011 H 371.567 -1.78313 1.01948 0
M  V30 4012 H 369.797 -3.83406 -0.503677 0
M  V30 4013 H 371.486 -4.05628 -0.148612 0
M  V30 4014 H 372.252 -4.25539 2.32683 0
M  V30 4015 H 368.131 -4.47191 1.11988 0
M  V30 4016 H 371.675 -5.36963 4.45327 0
M  V30 4017 H 367.572 -5.58444 3.23745 0
M  V30 4018 H 368.34 -6.34701 5.16815 0
M  V30 4019 N 371.003 -0.499398 -1.49478 0
M  V30 4020 C 372.252 0.0475259 -2.01644 0
M  V30 4021 C 372.565 1.38195 -1.38425 0
M  V30 4022 O 373.771 2.01547 -1.8191 0
M  V30 4023 C 372.227 0.135164 -3.59646 0
M  V30 4024 C 371.835 -1.19252 -4.31837 0
M  V30 4025 C 373.579 0.632538 -4.19761 0
M  V30 4026 C 371.486 -1.06713 -5.81693 0
M  V30 4027 H 370.416 0.0215349 -0.753692 0
M  V30 4028 H 373.067 -0.638577 -1.7203 0
M  V30 4029 H 371.449 0.885681 -3.85969 0
M  V30 4030 H 372.623 -1.9562 -4.17216 0
M  V30 4031 H 370.938 -1.62321 -3.83459 0
M  V30 4032 H 373.535 0.743833 -5.29501 0
M  V30 4033 H 373.878 1.63098 -3.83021 0
M  V30 4034 H 374.411 -0.0613987 -3.97753 0
M  V30 4035 H 371.15 -2.03979 -6.22955 0
M  V30 4036 H 370.67 -0.344307 -5.98811 0
M  V30 4037 H 372.349 -0.745208 -6.42694 0
M  V30 4038 N 372.481 1.55866 -0.233164 0
M  V30 4039 C 373.411 2.23783 0.666599 0
M  V30 4040 C 374.392 1.21343 1.19205 0
M  V30 4041 O 375.577 1.4996 1.23392 0
M  V30 4042 C 372.707 2.92671 1.86978 0
M  V30 4043 C 371.661 4.01682 1.47768 0
M  V30 4044 C 370.987 4.57926 2.76058 0
M  V30 4045 C 372.287 5.18126 0.658993 0
M  V30 4046 H 373.981 2.99232 0.100306 0
M  V30 4047 H 371.527 1.43924 0.046804 0
M  V30 4048 H 373.48 3.3888 2.50476 0
M  V30 4049 H 372.204 2.14688 2.46123 0
M  V30 4050 H 370.863 3.56222 0.866106 0
M  V30 4051 H 370.511 3.76659 3.33372 0
M  V30 4052 H 370.211 5.31505 2.50552 0
M  V30 4053 H 371.735 5.06859 3.40479 0
M  V30 4054 H 373.149 5.60644 1.19795 0
M  V30 4055 H 371.546 5.98009 0.500552 0
M  V30 4056 H 372.616 4.83763 -0.331856 0
M  V30 4057 N 373.959 -0.0401083 1.57549 0
M  V30 4058 C 375.236 -0.767917 1.79896 0
M  V30 4059 C 375.616 -1.9416 0.82856 0
M  V30 4060 O 374.964 -2.2812 -0.131671 0
M  V30 4061 C 375.174 -1.2113 3.27305 0
M  V30 4062 C 376.522 -1.63175 3.91994 0
M  V30 4063 O 377.546 -1.30616 3.31388 0
M  V30 4064 O 376.405 -2.23565 4.98679 0
M  V30 4065 H 373.499 -0.370441 0.739393 0
M  V30 4066 H 376.045 -0.017737 1.69691 0
M  V30 4067 H 374.817 -0.372937 3.89519 0
M  V30 4068 H 374.44 -2.02183 3.42356 0
M  V30 4069 N 375.437 -1.54477 -0.31217 0
M  V30 4070 C 376.385 -1.85395 -1.40469 0
M  V30 4071 C 377.379 -0.726749 -1.53019 0
M  V30 4072 O 378.585 -0.910582 -1.55269 0
M  V30 4073 H 374.96 -0.587845 -0.46898 0
M  V30 4074 H 376.931 -2.76736 -1.11623 0
M  V30 4075 C 375.68 -2.10811 -2.76503 0
M  V30 4076 H 375.003 -2.97014 -2.67625 0
M  V30 4077 H 376.443 -2.3639 -3.51988 0
M  V30 4078 C 374.902 -0.903165 -3.24568 0
M  V30 4079 O 375.432 -0.118085 -4.01526 0
M  V30 4080 N 373.638 -0.711634 -2.81752 0
M  V30 4081 H 373.185 -1.35171 -2.19286 0
M  V30 4082 H 373.143 0.0930473 -3.14262 0
M  V30 4083 N 376.915 0.57481 -1.46744 0
M  V30 4084 C 377.863 1.70435 -1.58286 0
M  V30 4085 C 378.857 1.63287 -0.450956 0
M  V30 4086 O 380.063 1.68685 -0.628121 0
M  V30 4087 H 376.438 0.56364 -0.497809 0
M  V30 4088 H 378.409 1.57833 -2.53242 0
M  V30 4089 C 377.158 3.08815 -1.59776 0
M  V30 4090 H 376.481 3.1499 -2.46214 0
M  V30 4091 H 377.921 3.87588 -1.71905 0
M  V30 4092 C 376.38 3.35301 -0.327812 0
M  V30 4093 O 376.91 3.97511 0.57861 0
M  V30 4094 N 375.116 2.89816 -0.213274 0
M  V30 4095 H 374.663 2.39371 -0.951798 0
M  V30 4096 H 374.621 3.0791 0.63553 0
M  V30 4097 N 378.394 1.34581 0.820102 0
M  V30 4098 C 379.344 1.22943 1.92013 0
M  V30 4099 C 380.328 0.127802 1.60392 0
M  V30 4100 O 381.52 0.357737 1.73347 0
M  V30 4101 C 378.649 0.989938 3.28717 0
M  V30 4102 C 377.735 2.13486 3.66449 0
M  V30 4103 N 378.126 3.38625 3.75722 0
M  V30 4104 C 376.424 2.04573 3.96315 0
M  V30 4105 C 377.125 4.13832 4.08801 0
M  V30 4106 N 376.101 3.42451 4.22171 0
M  V30 4107 H 379.903 2.17771 1.97365 0
M  V30 4108 H 377.417 1.2686 1.01392 0
M  V30 4109 H 379.414 0.887462 4.07345 0
M  V30 4110 H 378.074 0.0503691 3.24661 0
M  V30 4111 H 379.085 3.73143 3.59144 0
M  V30 4112 H 375.762 1.1839 4.00362 0
M  V30 4113 H 377.152 5.21909 4.23156 0
M  V30 4114 N 379.872 -1.04064 1.18357 0
M  V30 4115 C 381.1 -1.80916 1.00384 0
M  V30 4116 C 381.515 -1.83414 -0.447738 0
M  V30 4117 O 380.872 -1.26962 -1.31099 0
M  V30 4118 C 380.923 -3.26516 1.55144 0
M  V30 4119 O 380.644 -3.2424 2.94618 0
M  V30 4120 C 382.145 -4.20013 1.41789 0
M  V30 4121 H 379.365 -0.569728 0.354474 0
M  V30 4122 H 381.909 -1.31151 1.56906 0
M  V30 4123 H 380.064 -3.73512 1.02798 0
M  V30 4124 H 380.478 -4.15452 3.20156 0
M  V30 4125 H 381.952 -5.20111 1.84901 0
M  V30 4126 H 382.429 -4.37667 0.36661 0
M  V30 4127 H 383.035 -3.78881 1.93207 0
M  V30 4128 N 381.35 -0.985608 -1.22978 0
M  V30 4129 C 382.3 -0.50118 -2.22423 0
M  V30 4130 C 383.284 0.426649 -1.5514 0
M  V30 4131 O 384.476 0.254656 -1.75159 0
M  V30 4132 C 381.605 0.190003 -3.42774 0
M  V30 4133 C 380.691 -0.757703 -4.17276 0
M  V30 4134 N 381.082 -1.90251 -4.68656 0
M  V30 4135 C 379.38 -0.57209 -4.42316 0
M  V30 4136 C 380.081 -2.49676 -5.25392 0
M  V30 4137 N 379.057 -1.78013 -5.13627 0
M  V30 4138 H 382.859 -1.37441 -2.59783 0
M  V30 4139 H 380.373 -0.846941 -1.38567 0
M  V30 4140 H 382.37 0.55439 -4.13197 0
M  V30 4141 H 381.03 1.05946 -3.06929 0
M  V30 4142 H 382.041 -2.28354 -4.64839 0
M  V30 4143 H 378.718 0.251909 -4.16739 0
M  V30 4144 H 380.108 -3.46384 -5.75732 0
M  V30 4145 N 382.828 1.3818 -0.7579 0
M  V30 4146 C 383.758 2.33027 -0.148597 0
M  V30 4147 C 384.739 1.55085 0.69875 0
M  V30 4148 O 385.924 1.83384 0.639053 0
M  V30 4149 C 383.054 3.3928 0.742034 0
M  V30 4150 C 382.008 4.28 -0.00291946 0
M  V30 4151 C 381.334 5.25146 1.00625 0
M  V30 4152 C 382.634 5.08938 -1.17385 0
M  V30 4153 H 384.328 2.84231 -0.940909 0
M  V30 4154 H 381.874 1.36659 -0.453908 0
M  V30 4155 H 383.827 4.046 1.17799 0
M  V30 4156 H 382.551 2.86569 1.56671 0
M  V30 4157 H 381.21 3.64192 -0.419504 0
M  V30 4158 H 380.858 4.68721 1.8251 0
M  V30 4159 H 380.558 5.85361 0.512428 0
M  V30 4160 H 382.082 5.93342 1.44143 0
M  V30 4161 H 383.496 5.67474 -0.815224 0
M  V30 4162 H 381.893 5.7841 -1.59882 0
M  V30 4163 H 382.963 4.42424 -1.98468 0
M  V30 4164 N 384.306 0.507319 1.49211 0
M  V30 4165 C 385.236 -0.256939 2.32082 0
M  V30 4166 C 386.217 -0.956609 1.40652 0
M  V30 4167 O 387.402 -0.946788 1.69557 0
M  V30 4168 C 384.532 -1.31802 3.21318 0
M  V30 4169 C 383.486 -0.737855 4.21592 0
M  V30 4170 C 382.812 -1.89992 4.99807 0
M  V30 4171 C 384.112 0.275325 5.21574 0
M  V30 4172 H 385.806 0.434798 2.96226 0
M  V30 4173 H 383.352 0.210546 1.42452 0
M  V30 4174 H 385.305 -1.86045 3.78107 0
M  V30 4175 H 384.029 -2.03903 2.5513 0
M  V30 4176 H 382.688 -0.217126 3.65956 0
M  V30 4177 H 382.336 -2.60877 4.30061 0
M  V30 4178 H 382.036 -1.51777 5.6766 0
M  V30 4179 H 383.56 -2.44657 5.59442 0
M  V30 4180 H 384.974 -0.179193 5.7302 0
M  V30 4181 H 383.371 0.573649 5.97352 0
M  V30 4182 H 384.441 1.18903 4.70096 0
M  V30 4183 N 385.784 -1.5574 0.241426 0
M  V30 4184 C 386.714 -2.24133 -0.654722 0
M  V30 4185 C 387.695 -1.21974 -1.1856 0
M  V30 4186 O 388.88 -1.50612 -1.22595 0
M  V30 4187 C 386.01 -2.93659 -1.85423 0
M  V30 4188 C 384.964 -4.0246 -1.45636 0
M  V30 4189 C 384.29 -4.59383 -2.73626 0
M  V30 4190 C 385.59 -5.18468 -0.631506 0
M  V30 4191 H 387.284 -2.99281 -0.0844353 0
M  V30 4192 H 384.83 -1.43947 -0.0391707 0
M  V30 4193 H 386.783 -3.40203 -2.48676 0
M  V30 4194 H 385.507 -2.15991 -2.44981 0
M  V30 4195 H 384.166 -3.56676 -0.847202 0
M  V30 4196 H 383.814 -3.78422 -3.3137 0
M  V30 4197 H 383.514 -5.32826 -2.4773 0
M  V30 4198 H 385.038 -5.08658 -3.37786 0
M  V30 4199 H 386.452 -5.61272 -1.1682 0
M  V30 4200 H 384.849 -5.98266 -0.468831 0
M  V30 4201 H 385.919 -4.8358 0.357506 0
M  V30 4202 N 387.262 0.0317525 -1.57568 0
M  V30 4203 C 388.508 0.724175 -1.8943 0
M  V30 4204 C 388.841 1.75149 -0.838836 0
M  V30 4205 O 388.116 1.93948 0.146422 0
M  V30 4206 C 388.399 1.39615 -3.31933 0
M  V30 4207 C 388.252 0.382537 -4.4817 0
M  V30 4208 C 389.571 2.33084 -3.73309 0
M  V30 4209 H 386.69 0.261797 -0.688935 0
M  V30 4210 H 389.332 -0.013017 -1.89996 0
M  V30 4211 H 387.482 2.02451 -3.31581 0
M  V30 4212 H 389.154 -0.243689 -4.60656 0
M  V30 4213 H 387.397 -0.29844 -4.32772 0
M  V30 4214 H 388.068 0.891145 -5.44759 0
M  V30 4215 H 390.544 1.80295 -3.7501 0
M  V30 4216 H 389.42 2.77084 -4.73831 0
M  V30 4217 H 389.681 3.19643 -3.05419 0
M  V30 4218 N 388.74 1.54641 0.303973 0
M  V30 4219 C 390.017 1.64455 1.05896 0
M  V30 4220 C 390.397 0.490923 2.05312 0
M  V30 4221 O 389.745 -0.512685 2.22674 0
M  V30 4222 C 389.955 3.02331 1.74347 0
M  V30 4223 C 391.303 3.59045 2.26653 0
M  V30 4224 O 392.327 3.04764 1.84384 0
M  V30 4225 O 391.186 4.54081 3.04093 0
M  V30 4226 H 388.28 0.666729 0.489287 0
M  V30 4227 H 390.826 1.66986 0.302298 0
M  V30 4228 H 389.598 3.77734 1.02142 0
M  V30 4229 H 389.221 3.03565 2.56777 0
M  V30 4230 N 390.218 -0.567019 1.47046 0
M  V30 4231 C 391.166 -1.69593 1.59188 0
M  V30 4232 C 392.16 -1.63046 0.459609 0
M  V30 4233 O 393.366 -1.6835 0.637058 0
M  V30 4234 H 389.741 -0.560993 0.500791 0
M  V30 4235 H 391.712 -1.56488 2.54075 0
M  V30 4236 C 390.461 -3.07964 1.61411 0
M  V30 4237 H 389.784 -3.13679 2.47881 0
M  V30 4238 H 391.224 -3.86671 1.73958 0
M  V30 4239 C 389.683 -3.35123 0.34559 0
M  V30 4240 O 390.213 -3.97812 -0.557521 0
M  V30 4241 N 388.419 -2.89699 0.22864 0
M  V30 4242 H 387.966 -2.38863 0.964479 0
M  V30 4243 H 387.924 -3.08242 -0.619192 0
M  V30 4244 N 391.696 -1.35014 -0.812953 0
M  V30 4245 C 392.944 -1.27678 -1.56661 0
M  V30 4246 C 393.265 0.150359 -1.94419 0
M  V30 4247 O 392.535 1.08532 -1.63088 0
M  V30 4248 H 391.115 -0.469602 -0.580933 0
M  V30 4249 H 393.777 -1.69043 -0.970076 0
M  V30 4250 H 392.873 -1.88833 -2.48492 0
M  V30 4251 N 393.175 1.03435 -1.18907 0
M  V30 4252 C 394.415 1.78302 -0.999391 0
M  V30 4253 C 394.779 1.86353 0.462219 0
M  V30 4254 O 395.98 2.57489 0.771543 0
M  V30 4255 C 394.251 3.17362 -1.64365 0
M  V30 4256 S 395.81 4.08488 -1.6026 0
M  V30 4257 H 392.628 0.613861 -0.358742 0
M  V30 4258 H 395.23 1.23979 -1.51161 0
M  V30 4259 H 393.934 3.09116 -2.69955 0
M  V30 4260 H 393.465 3.76762 -1.13199 0
M  V30 4261 H 395.48 4.92274 -0.622932 0
M  V30 4262 N 394.653 0.992116 1.22453 0
M  V30 4263 C 395.603 0.512969 2.22155 0
M  V30 4264 C 396.587 -0.418416 1.55364 0
M  V30 4265 O 397.779 -0.245363 1.75291 0
M  V30 4266 C 394.908 -0.171822 3.4287 0
M  V30 4267 C 393.994 0.779822 4.16869 0
M  V30 4268 N 394.385 1.92734 4.6764 0
M  V30 4269 C 392.683 0.59554 4.42006 0
M  V30 4270 C 393.384 2.52458 5.24061 0
M  V30 4271 N 392.36 1.80735 5.12675 0
M  V30 4272 H 396.162 1.38817 2.5905 0
M  V30 4273 H 393.676 0.854277 1.38115 0
M  V30 4274 H 395.673 -0.532469 4.13486 0
M  V30 4275 H 394.333 -1.04317 3.07487 0
M  V30 4276 H 395.344 2.30816 4.63621 0
M  V30 4277 H 392.021 -0.229805 4.16867 0
M  V30 4278 H 393.411 3.49433 5.73887 0
M  V30 4279 N 396.131 -1.37776 0.765217 0
M  V30 4280 C 397.379 -1.99454 0.325943 0
M  V30 4281 C 397.7 -1.61049 -1.09947 0
M  V30 4282 O 396.97 -0.872821 -1.75381 0
M  V30 4283 H 395.55 -0.737697 0.117525 0
M  V30 4284 H 398.212 -1.68359 0.981895 0
M  V30 4285 H 397.308 -3.09547 0.398353 0
M  V30 4286 N 397.609 -0.515225 -1.4894 0
M  V30 4287 C 398.559 0.275113 -2.26334 0
M  V30 4288 C 399.543 0.923007 -1.31793 0
M  V30 4289 O 400.735 0.828254 -1.56426 0
M  V30 4290 C 397.864 1.33041 -3.16473 0
M  V30 4291 C 396.95 0.688051 -4.18481 0
M  V30 4292 N 397.341 -0.217638 -5.05332 0
M  V30 4293 C 395.639 0.94699 -4.3583 0
M  V30 4294 C 396.34 -0.58676 -5.78733 0
M  V30 4295 N 395.316 0.0486966 -5.43578 0
M  V30 4296 H 399.118 -0.421876 -2.90856 0
M  V30 4297 H 396.632 -0.332249 -1.58965 0
M  V30 4298 H 398.629 1.9102 -3.70563 0
M  V30 4299 H 397.289 2.02894 -2.53504 0
M  V30 4300 H 398.3 -0.589343 -5.14536 0
M  V30 4301 H 394.977 1.63719 -3.8406 0
M  V30 4302 H 396.367 -1.32855 -6.58634 0
M  V30 4303 N 399.087 1.5561 -0.249682 0
M  V30 4304 C 400.498 1.84979 0.252949 0
M  V30 4305 C 400.849 1.17153 1.57384 0
M  V30 4306 O 399.974 0.450884 2.11651 0
M  V30 4307 C 400.569 3.35584 0.465732 0
M  V30 4308 C 399.128 3.65169 0.912624 0
M  V30 4309 C 398.275 2.77299 -0.00859085 0
M  V30 4310 H 401.226 1.51513 -0.47217 0
M  V30 4311 H 401.247 3.57313 1.30795 0
M  V30 4312 H 400.759 3.8492 -0.49579 0
M  V30 4313 H 398.86 3.21312 1.88652 0
M  V30 4314 H 398.973 4.72912 0.767559 0
M  V30 4315 H 397.337 2.49678 0.50327 0
M  V30 4316 H 398.12 3.29442 -0.965537 0
M  V30 4317 N 400.565 -0.0233959 1.57583 0
M  V30 4318 C 401.793 -0.724682 1.93794 0
M  V30 4319 C 402.208 -1.68588 0.849912 0
M  V30 4320 O 401.565 -1.81676 -0.173204 0
M  V30 4321 C 401.616 -1.47684 3.29957 0
M  V30 4322 O 401.337 -0.554222 4.3458 0
M  V30 4323 C 402.838 -2.27477 3.80485 0
M  V30 4324 H 400.058 -0.203317 0.639455 0
M  V30 4325 H 402.602 0.0207653 2.04489 0
M  V30 4326 H 400.757 -2.17412 3.20641 0
M  V30 4327 H 401.171 -1.08232 5.13212 0
M  V30 4328 H 402.645 -2.7564 4.78254 0
M  V30 4329 H 403.122 -3.09144 3.11972 0
M  V30 4330 H 403.728 -1.62813 3.92902 0
M  V30 4331 N 402.043 -1.548 -0.295768 0
M  V30 4332 C 403.289 -1.74588 -1.03184 0
M  V30 4333 C 403.622 -0.532962 -1.86744 0
M  V30 4334 O 402.897 0.469872 -1.88739 0
M  V30 4335 C 403.18 -3.03791 -1.93347 0
M  V30 4336 C 403.033 -4.35392 -1.12933 0
M  V30 4337 C 404.352 -3.28892 -2.92435 0
M  V30 4338 H 401.471 -0.635221 -0.373715 0
M  V30 4339 H 404.113 -1.87519 -0.30606 0
M  V30 4340 H 402.263 -2.92898 -2.55232 0
M  V30 4341 H 403.935 -4.58211 -0.532943 0
M  V30 4342 H 402.178 -4.31642 -0.432168 0
M  V30 4343 H 402.849 -5.22074 -1.79284 0
M  V30 4344 H 405.325 -3.39429 -2.4068 0
M  V30 4345 H 404.201 -4.20603 -3.52682 0
M  V30 4346 H 404.462 -2.47437 -3.6637 0
M  V30 4347 N 403.521 0.559213 -1.47345 0
M  V30 4348 C 404.431 1.69388 -1.62311 0
M  V30 4349 C 405.447 1.6648 -0.505993 0
M  V30 4350 O 406.623 1.85964 -0.773262 0
M  V30 4351 C 403.688 3.05894 -1.63185 0
M  V30 4352 C 402.749 3.19885 -2.86307 0
M  V30 4353 C 401.982 4.49879 -2.87131 0
M  V30 4354 O 402.205 5.35217 -1.97229 0
M  V30 4355 O 401.139 4.67618 -3.78968 0
M  V30 4356 H 404.965 1.59706 -2.58317 0
M  V30 4357 H 402.55 0.728989 -1.30407 0
M  V30 4358 H 404.432 3.87133 -1.66451 0
M  V30 4359 H 403.107 3.15964 -0.70345 0
M  V30 4360 H 402.014 2.38052 -2.88587 0
M  V30 4361 H 403.347 3.14718 -3.78435 0
M  V30 4362 N 404.999 1.35443 0.805782 0
M  V30 4363 C 405.962 1.28301 1.89925 0
M  V30 4364 C 406.962 0.194285 1.59622 0
M  V30 4365 O 408.152 0.448036 1.6834 0
M  V30 4366 C 405.284 0.984997 3.2636 0
M  V30 4367 H 406.477 2.2553 1.97677 0
M  V30 4368 H 404.03 1.19979 1.00173 0
M  V30 4369 H 404.765 0.016603 3.24296 0
M  V30 4370 H 404.55 1.77269 3.4974 0
M  V30 4371 H 406.04 0.960651 4.064 0
M  V30 4372 N 406.477 -1.02803 1.19454 0
M  V30 4373 C 407.424 -2.11099 0.933046 0
M  V30 4374 C 408.394 -1.65571 -0.132447 0
M  V30 4375 O 409.579 -1.90797 0.00987576 0
M  V30 4376 C 406.719 -3.41763 0.478747 0
M  V30 4377 C 405.832 -4.00833 1.6111 0
M  V30 4378 C 404.967 -5.19511 1.10825 0
M  V30 4379 C 404.006 -5.70639 2.21445 0
M  V30 4380 N 403.143 -6.80589 1.72461 0
M  V30 4381 H 407.983 -2.32804 1.86028 0
M  V30 4382 H 405.52 -1.14179 0.927441 0
M  V30 4383 H 407.478 -4.16736 0.196745 0
M  V30 4384 H 406.108 -3.20166 -0.411493 0
M  V30 4385 H 405.16 -3.23066 2.00829 0
M  V30 4386 H 406.472 -4.34794 2.4445 0
M  V30 4387 H 405.626 -6.01645 0.781533 0
M  V30 4388 H 404.365 -4.87086 0.244606 0
M  V30 4389 H 403.37 -4.87116 2.54947 0
M  V30 4390 H 404.595 -6.05102 3.08267 0
M  V30 4391 H 402.541 -6.50016 0.884056 0
M  V30 4392 H 402.458 -7.13681 2.49389 0
M  V30 4393 H 403.726 -7.66317 1.42755 0
M  V30 4394 N 407.956 -0.998596 -1.21925 0
M  V30 4395 C 408.886 -0.573688 -2.26343 0
M  V30 4396 C 409.867 0.402296 -1.65274 0
M  V30 4397 O 411.052 0.291683 -1.91997 0
M  V30 4398 C 408.182 0.106839 -3.47136 0
M  V30 4399 C 407.136 -0.788269 -4.20678 0
M  V30 4400 C 406.462 0.0254927 -5.34694 0
M  V30 4401 C 407.762 -2.08784 -4.78755 0
M  V30 4402 H 409.456 -1.44651 -2.62138 0
M  V30 4403 H 407.002 -0.696975 -1.26009 0
M  V30 4404 H 408.955 0.415531 -4.19346 0
M  V30 4405 H 407.679 1.01424 -3.10452 0
M  V30 4406 H 406.338 -1.08069 -3.50309 0
M  V30 4407 H 405.986 0.933989 -4.94253 0
M  V30 4408 H 405.686 -0.570437 -5.84825 0
M  V30 4409 H 407.21 0.328147 -6.09718 0
M  V30 4410 H 408.624 -1.84272 -5.42878 0
M  V30 4411 H 407.021 -2.63307 -5.39249 0
M  V30 4412 H 408.091 -2.76284 -3.98491 0
M  V30 4413 N 409.434 1.37368 -0.772513 0
M  V30 4414 C 410.85 1.53059 -0.452231 0
M  V30 4415 C 411.05 1.73065 1.03203 0
M  V30 4416 O 410.106 1.75245 1.81784 0
M  V30 4417 C 411.419 2.72659 -1.26797 0
M  V30 4418 C 412.967 2.86521 -1.25995 0
M  V30 4419 C 413.442 4.09105 -2.05905 0
M  V30 4420 N 414.933 4.16219 -2.03263 0
M  V30 4421 C 415.668 5.10107 -2.61875 0
M  V30 4422 N 415.164 6.09547 -3.29278 0
M  V30 4423 N 416.957 5.02596 -2.51701 0
M  V30 4424 H 409.108 1.22634 -1.7342 0
M  V30 4425 H 411.371 0.597206 -0.736239 0
M  V30 4426 H 411.077 2.64343 -2.31982 0
M  V30 4427 H 410.951 3.66363 -0.897672 0
M  V30 4428 H 413.338 2.94308 -0.216081 0
M  V30 4429 H 413.419 1.93774 -1.66989 0
M  V30 4430 H 413.063 4.0208 -3.10313 0
M  V30 4431 H 412.993 5.00968 -1.62292 0
M  V30 4432 H 415.484 3.45012 -1.54192 0
M  V30 4433 H 415.797 6.77718 -3.71374 0
M  V30 4434 H 414.142 6.09824 -3.33377 0
M  V30 4435 H 417.333 4.23855 -1.98657 0
M  V30 4436 H 417.506 5.75582 -2.97673 0
M  V30 4437 N 410.912 0.523116 1.48665 0
M  V30 4438 C 411.86 -0.256859 2.31177 0
M  V30 4439 C 412.854 -0.94199 1.40794 0
M  V30 4440 O 414.06 -0.867157 1.57735 0
M  V30 4441 H 410.435 -0.1017 0.745091 0
M  V30 4442 H 412.406 0.458739 2.94853 0
M  V30 4443 C 411.155 -1.29503 3.22683 0
M  V30 4444 H 410.478 -0.777248 3.92172 0
M  V30 4445 H 411.918 -1.81233 3.83315 0
M  V30 4446 C 410.377 -2.32501 2.43813 0
M  V30 4447 O 410.907 -3.3881 2.15803 0
M  V30 4448 N 409.113 -2.05538 2.05432 0
M  V30 4449 H 408.66 -1.19104 2.28412 0
M  V30 4450 H 408.618 -2.74676 1.52973 0
M  V30 4451 N 412.39 -1.55475 0.257931 0
M  V30 4452 C 413.322 -2.19192 -0.669881 0
M  V30 4453 C 414.335 -1.17148 -1.1305 0
M  V30 4454 O 415.524 -1.43959 -1.05537 0
M  V30 4455 C 412.624 -2.79016 -1.92363 0
M  V30 4456 C 411.797 -4.06586 -1.61265 0
M  V30 4457 C 410.856 -4.50622 -2.7171 0
M  V30 4458 O 409.882 -5.16765 -2.38627 0
M  V30 4459 N 411.084 -4.19325 -4.01431 0
M  V30 4460 H 413.849 -2.99441 -0.124635 0
M  V30 4461 H 411.41 -1.6171 0.0783311 0
M  V30 4462 H 413.402 -3.05427 -2.65511 0
M  V30 4463 H 411.972 -2.0286 -2.37837 0
M  V30 4464 H 411.192 -3.87646 -0.715811 0
M  V30 4465 H 412.48 -4.89737 -1.37967 0
M  V30 4466 H 411.878 -3.66247 -4.31138 0
M  V30 4467 H 410.435 -4.50547 -4.7101 0
M  V30 4468 N 413.868 0.0150385 -1.57593 0
M  V30 4469 C 414.798 1.01047 -2.10503 0
M  V30 4470 C 415.779 1.36816 -1.01071 0
M  V30 4471 O 416.964 1.45455 -1.28672 0
M  V30 4472 C 414.094 2.30708 -2.59598 0
M  V30 4473 C 413.048 2.09142 -3.73421 0
M  V30 4474 C 412.374 3.44685 -4.08774 0
M  V30 4475 C 413.674 1.46619 -5.01298 0
M  V30 4476 H 415.368 0.569978 -2.93925 0
M  V30 4477 H 412.914 0.272724 -1.41394 0
M  V30 4478 H 414.867 3.00687 -2.95238 0
M  V30 4479 H 413.591 2.76843 -1.73279 0
M  V30 4480 H 412.25 1.41592 -3.38153 0
M  V30 4481 H 411.898 3.88495 -3.195 0
M  V30 4482 H 411.598 3.31077 -4.8545 0
M  V30 4483 H 413.122 4.16004 -4.4696 0
M  V30 4484 H 414.536 2.06535 -5.34805 0
M  V30 4485 H 412.933 1.43544 -5.82679 0
M  V30 4486 H 414.003 0.433611 -4.82957 0
M  V30 4487 N 415.346 1.54954 0.287554 0
M  V30 4488 C 416.256 1.8991 1.37736 0
M  V30 4489 C 417.272 0.794701 1.54792 0
M  V30 4490 O 418.448 1.09243 1.69198 0
M  V30 4491 C 415.513 2.15108 2.71899 0
M  V30 4492 C 414.574 3.38752 2.63715 0
M  V30 4493 C 413.807 3.62739 3.91479 0
M  V30 4494 O 414.03 2.89492 4.91478 0
M  V30 4495 O 412.964 4.56267 3.92561 0
M  V30 4496 H 416.79 2.82652 1.11092 0
M  V30 4497 H 414.375 1.41315 0.484807 0
M  V30 4498 H 416.257 2.32806 3.51254 0
M  V30 4499 H 414.932 1.25551 2.9836 0
M  V30 4500 H 413.839 3.26405 1.82786 0
M  V30 4501 H 415.172 4.28483 2.42205 0
M  V30 4502 N 416.824 -0.551391 1.4764 0
M  V30 4503 C 417.771 -1.65796 1.60563 0
M  V30 4504 C 418.741 -1.59932 0.448428 0
M  V30 4505 O 419.926 -1.78679 0.669222 0
M  V30 4506 C 417.066 -3.04108 1.63133 0
M  V30 4507 C 416.179 -3.20365 2.89811 0
M  V30 4508 C 415.314 -4.49109 2.8368 0
M  V30 4509 C 414.353 -4.58819 4.05156 0
M  V30 4510 N 413.49 -5.78926 3.97227 0
M  V30 4511 H 418.33 -1.54088 2.5507 0
M  V30 4512 H 415.867 -0.75052 1.26513 0
M  V30 4513 H 417.825 -3.84207 1.62606 0
M  V30 4514 H 416.455 -3.14637 0.721341 0
M  V30 4515 H 415.507 -2.33659 3.00179 0
M  V30 4516 H 416.819 -3.23402 3.79753 0
M  V30 4517 H 415.973 -5.37475 2.81434 0
M  V30 4518 H 414.712 -4.4856 1.91431 0
M  V30 4519 H 413.717 -3.68864 4.077 0
M  V30 4520 H 414.942 -4.61124 4.98539 0
M  V30 4521 H 412.888 -5.79314 3.07785 0
M  V30 4522 H 412.805 -5.83367 4.80853 0
M  V30 4523 H 414.073 -6.69637 3.99007 0
M  V30 4524 N 418.302 -1.35869 -0.798587 0
M  V30 4525 C 419.532 -1.32529 -1.58491 0
M  V30 4526 C 419.94 0.0975405 -1.88948 0
M  V30 4527 O 419.283 1.06224 -1.49874 0
M  V30 4528 C 419.345 -2.07247 -2.9375 0
M  V30 4529 C 419.009 -3.56391 -2.86068 0
M  V30 4530 C 420.006 -4.50824 -2.58947 0
M  V30 4531 C 417.691 -3.9915 -3.04933 0
M  V30 4532 C 419.685 -5.85993 -2.5078 0
M  V30 4533 C 417.372 -5.34413 -2.96389 0
M  V30 4534 C 418.37 -6.27646 -2.69349 0
M  V30 4535 O 418.058 -7.60426 -2.60782 0
M  V30 4536 H 417.79 -0.456529 -0.498556 0
M  V30 4537 H 420.344 -1.79425 -0.999799 0
M  V30 4538 H 418.574 -1.55001 -3.54276 0
M  V30 4539 H 420.263 -1.96883 -3.54954 0
M  V30 4540 H 421.029 -4.19104 -2.44084 0
M  V30 4541 H 416.908 -3.26961 -3.24989 0
M  V30 4542 H 420.452 -6.58735 -2.29595 0
M  V30 4543 H 416.349 -5.65743 -3.10813 0
M  V30 4544 H 417.117 -7.70444 -2.76331 0
M  V30 4545 N 419.78 1.02168 -1.19998 0
M  V30 4546 C 421.029 1.75091 -1.0013 0
M  V30 4547 C 421.342 1.89923 0.467835 0
M  V30 4548 O 422.548 2.59888 0.785515 0
M  V30 4549 C 421.004 3.14892 -1.74273 0
M  V30 4550 C 420.612 3.0809 -3.25245 0
M  V30 4551 C 422.356 3.9206 -1.62755 0
M  V30 4552 C 420.263 4.42867 -3.91948 0
M  V30 4553 H 419.193 0.656394 -0.37103 0
M  V30 4554 H 421.844 1.14284 -1.43567 0
M  V30 4555 H 420.226 3.7621 -1.2362 0
M  V30 4556 H 421.4 2.5611 -3.83072 0
M  V30 4557 H 419.715 2.44416 -3.3712 0
M  V30 4558 H 422.312 4.91764 -2.09934 0
M  V30 4559 H 422.655 4.12199 -0.582894 0
M  V30 4560 H 423.188 3.37359 -2.10793 0
M  V30 4561 H 419.927 4.27931 -4.96543 0
M  V30 4562 H 419.447 4.94874 -3.3891 0
M  V30 4563 H 421.126 5.11728 -3.95909 0
M  V30 4564 N 421.258 1.00505 1.21394 0
M  V30 4565 C 422.483 0.706367 1.95001 0
M  V30 4566 C 422.908 -0.72463 1.73582 0
M  V30 4567 O 422.266 -1.49702 1.0227 0
M  V30 4568 C 422.314 1.03299 3.45487 0
M  V30 4569 O 421.418 0.138275 4.12168 0
M  V30 4570 H 420.759 0.263175 0.609619 0
M  V30 4571 H 423.289 1.34531 1.54151 0
M  V30 4572 H 423.299 0.979872 3.96059 0
M  V30 4573 H 421.974 2.07567 3.60401 0
M  V30 4574 H 420.551 0.247928 3.72075 0
M  V30 4575 N 422.737 -1.36956 0.779787 0
M  V30 4576 C 423.647 -2.33965 0.172491 0
M  V30 4577 C 424.663 -1.60574 -0.670222 0
M  V30 4578 O 425.839 -1.92617 -0.588263 0
M  V30 4579 C 422.904 -3.39761 -0.690173 0
M  V30 4580 C 421.965 -4.28964 0.169924 0
M  V30 4581 C 421.198 -5.29707 -0.651662 0
M  V30 4582 O 421.421 -5.38238 -1.88827 0
M  V30 4583 O 420.355 -6.01873 -0.0566264 0
M  V30 4584 H 424.181 -2.87647 0.974321 0
M  V30 4585 H 421.766 -1.39258 0.541078 0
M  V30 4586 H 423.648 -4.04471 -1.1824 0
M  V30 4587 H 422.323 -2.88394 -1.47006 0
M  V30 4588 H 421.23 -3.67326 0.708696 0
M  V30 4589 H 422.563 -4.83656 0.913085 0
M  V30 4590 N 424.215 -0.530993 -1.48385 0
M  V30 4591 C 425.631 -0.188919 -1.58478 0
M  V30 4592 C 425.831 1.30786 -1.53288 0
M  V30 4593 O 424.887 2.08619 -1.42248 0
M  V30 4594 C 426.2 -0.792343 -2.90073 0
M  V30 4595 C 427.748 -0.76117 -3.03604 0
M  V30 4596 C 428.223 -1.34319 -4.37861 0
M  V30 4597 N 429.714 -1.3052 -4.44431 0
M  V30 4598 C 430.449 -1.72543 -5.46824 0
M  V30 4599 N 429.945 -2.22299 -6.56167 0
M  V30 4600 N 431.738 -1.63773 -5.37712 0
M  V30 4601 H 423.889 -1.50377 -1.50002 0
M  V30 4602 H 426.152 -0.625559 -0.712306 0
M  V30 4603 H 425.858 -1.84323 -2.99529 0
M  V30 4604 H 425.732 -0.270026 -3.76232 0
M  V30 4605 H 428.119 0.280957 -2.93759 0
M  V30 4606 H 428.2 -1.32097 -2.19053 0
M  V30 4607 H 427.844 -2.38425 -4.4846 0
M  V30 4608 H 427.774 -0.759064 -5.21101 0
M  V30 4609 H 430.265 -0.940973 -3.65997 0
M  V30 4610 H 430.578 -2.52356 -7.30436 0
M  V30 4611 H 428.923 -2.26293 -6.57127 0
M  V30 4612 H 432.114 -1.24698 -4.51185 0
M  V30 4613 H 432.287 -1.96844 -6.17379 0
M  V30 4614 N 425.693 1.55336 -0.266172 0
M  V30 4615 C 426.921 2.03801 0.356756 0
M  V30 4616 C 427.336 1.14485 1.50129 0
M  V30 4617 O 426.693 0.163121 1.8177 0
M  V30 4618 C 426.744 3.51455 0.846281 0
M  V30 4619 O 426.465 4.37371 -0.252663 0
M  V30 4620 C 427.966 4.15767 1.53794 0
M  V30 4621 H 425.186 0.665906 0.0825218 0
M  V30 4622 H 427.73 2.00636 -0.39566 0
M  V30 4623 H 425.885 3.55092 1.54881 0
M  V30 4624 H 426.299 5.24358 0.122173 0
M  V30 4625 H 427.773 5.20714 1.83198 0
M  V30 4626 H 428.25 3.63404 2.46646 0
M  V30 4627 H 428.856 4.16107 0.879488 0
M  V30 4628 N 427.171 -0.0066808 1.57599 0
M  V30 4629 C 428.42 -0.692078 1.89455 0
M  V30 4630 C 428.733 -1.75306 0.867586 0
M  V30 4631 O 429.939 -2.49262 1.07614 0
M  V30 4632 C 428.395 -1.2821 3.36289 0
M  V30 4633 C 428.003 -0.256291 4.47266 0
M  V30 4634 C 429.747 -1.94608 3.77264 0
M  V30 4635 C 427.654 -0.855927 5.85173 0
M  V30 4636 H 426.584 -0.262252 0.706923 0
M  V30 4637 H 429.235 0.052769 1.83424 0
M  V30 4638 H 427.617 -2.0774 3.37135 0
M  V30 4639 H 428.791 0.513923 4.57925 0
M  V30 4640 H 427.106 0.306862 4.15268 0
M  V30 4641 H 429.703 -2.40364 4.77629 0
M  V30 4642 H 430.046 -2.77382 3.10427 0
M  V30 4643 H 430.579 -1.21822 3.78688 0
M  V30 4644 H 427.318 -0.0671161 6.55466 0
M  V30 4645 H 426.838 -1.59546 5.78191 0
M  V30 4646 H 428.517 -1.35658 6.32618 0
M  V30 4647 N 428.649 -1.55105 -0.279332 0
M  V30 4648 C 429.581 -1.83952 -1.36727 0
M  V30 4649 C 430.594 -0.723642 -1.45833 0
M  V30 4650 O 431.783 -1.00141 -1.47763 0
M  V30 4651 C 428.883 -1.98183 -2.74912 0
M  V30 4652 C 428.056 -3.28787 -2.88475 0
M  V30 4653 C 427.115 -3.33162 -4.07295 0
M  V30 4654 O 426.141 -4.06576 -3.98353 0
M  V30 4655 N 427.343 -2.60109 -5.18964 0
M  V30 4656 H 430.108 -2.77853 -1.12328 0
M  V30 4657 H 427.669 -1.54945 -0.469442 0
M  V30 4658 H 429.661 -1.98488 -3.52682 0
M  V30 4659 H 428.231 -1.11177 -2.92162 0
M  V30 4660 H 427.451 -3.41075 -1.97641 0
M  V30 4661 H 428.739 -4.14933 -2.94463 0
M  V30 4662 H 428.137 -2.00136 -5.29115 0
M  V30 4663 H 426.694 -2.66143 -5.94988 0
M  V30 4664 N 430.127 0.543554 -1.4793 0
M  V30 4665 C 431.404 1.30458 -1.4574 0
M  V30 4666 C 431.784 2.1048 -0.161692 0
M  V30 4667 O 431.132 2.11831 0.856734 0
M  V30 4668 C 431.342 2.19754 -2.71126 0
M  V30 4669 C 432.69 2.80334 -3.18901 0
M  V30 4670 O 433.714 2.30049 -2.71948 0
M  V30 4671 O 432.573 3.71766 -4.00565 0
M  V30 4672 H 429.667 0.588117 -0.581418 0
M  V30 4673 H 432.213 0.561328 -1.60147 0
M  V30 4674 H 430.985 1.60316 -3.56952 0
M  V30 4675 H 430.608 3.01351 -2.59371 0
M  V30 4676 N 431.605 1.3629 0.791371 0
M  V30 4677 C 432.83 1.33726 1.58531 0
M  V30 4678 C 433.255 -0.0794933 1.87932 0
M  V30 4679 O 432.613 -1.05087 1.47738 0
M  V30 4680 C 432.661 2.16425 2.88431 0
M  V30 4681 O 431.765 1.5554 3.81944 0
M  V30 4682 H 431.106 0.457793 0.480959 0
M  V30 4683 H 433.636 1.79547 0.981031 0
M  V30 4684 H 433.646 2.28933 3.37718 0
M  V30 4685 H 432.321 3.19415 2.66359 0
M  V30 4686 H 430.898 1.51961 3.40532 0
M  V30 4687 N 433.083 -1.0153 1.20538 0
M  V30 4688 C 434.031 -2.12215 0.952235 0
M  V30 4689 C 435.025 -1.69123 -0.0968735 0
M  V30 4690 O 436.231 -1.7992 0.0536006 0
M  V30 4691 H 432.606 -0.693576 0.290613 0
M  V30 4692 H 434.577 -2.3075 1.89201 0
M  V30 4693 C 433.326 -3.43755 0.522287 0
M  V30 4694 H 432.649 -3.7734 1.32115 0
M  V30 4695 H 434.089 -4.22254 0.384389 0
M  V30 4696 C 432.548 -3.28088 -0.765489 0
M  V30 4697 O 433.078 -3.57921 -1.8236 0
M  V30 4698 N 431.284 -2.81333 -0.728011 0
M  V30 4699 H 430.831 -2.57255 0.133332 0
M  V30 4700 H 430.789 -2.71232 -1.58999 0
M  V30 4701 N 434.561 -1.01147 -1.20859 0
M  V30 4702 C 435.791 -0.715872 -1.93801 0
M  V30 4703 C 436.199 0.726592 -1.74692 0
M  V30 4704 O 435.542 1.50397 -1.05482 0
M  V30 4705 C 435.604 -0.965269 -3.46299 0
M  V30 4706 C 435.268 -2.39584 -3.89164 0
M  V30 4707 C 436.265 -3.3764 -3.95342 0
M  V30 4708 C 433.95 -2.73522 -4.21297 0
M  V30 4709 C 435.944 -4.67698 -4.33056 0
M  V30 4710 C 433.631 -4.03794 -4.58687 0
M  V30 4711 C 434.629 -5.00693 -4.64538 0
M  V30 4712 O 434.317 -6.28635 -5.01072 0
M  V30 4713 H 434.049 -0.262524 -0.622942 0
M  V30 4714 H 436.603 -1.35413 -1.54443 0
M  V30 4715 H 434.833 -0.269847 -3.85757 0
M  V30 4716 H 436.522 -0.662051 -4.00464 0
M  V30 4717 H 437.288 -3.12757 -3.70686 0
M  V30 4718 H 433.167 -1.9879 -4.15937 0
M  V30 4719 H 436.711 -5.4333 -4.37537 0
M  V30 4720 H 432.608 -4.28459 -4.82797 0
M  V30 4721 H 433.376 -6.32847 -5.19083 0
M  V30 4722 N 436.039 1.36541 -0.78704 0
M  V30 4723 C 437.287 1.98911 -0.357633 0
M  V30 4724 C 437.608 1.62778 1.07371 0
M  V30 4725 O 436.878 0.900612 1.73971 0
M  V30 4726 H 435.458 0.735734 -0.129246 0
M  V30 4727 H 438.12 1.66776 -1.00855 0
M  V30 4728 H 437.216 3.08874 -0.447549 0
M  V30 4729 N 437.518 0.538854 1.48102 0
M  V30 4730 C 438.766 0.00798599 2.02098 0
M  V30 4731 C 439.087 -1.33922 1.41739 0
M  V30 4732 O 438.357 -1.86932 0.585934 0
M  V30 4733 H 436.937 -3.62179e-05 0.747 0
M  V30 4734 H 439.599 0.7047 1.81714 0
M  V30 4735 H 438.695 -0.0937672 3.11959 0
M  V30 4736 N 438.996 -1.55193 0.274407 0
M  V30 4737 C 439.943 -2.225 -0.613374 0
M  V30 4738 C 440.913 -1.19823 -1.15029 0
M  V30 4739 O 442.098 -1.48362 -1.19973 0
M  V30 4740 C 439.238 -2.94927 -1.79199 0
M  V30 4741 C 438.351 -4.12322 -1.28899 0
M  V30 4742 C 437.486 -4.72394 -2.42934 0
M  V30 4743 C 436.525 -5.81984 -1.89634 0
M  V30 4744 N 435.662 -6.36123 -2.9714 0
M  V30 4745 H 440.502 -2.97982 -0.032756 0
M  V30 4746 H 438.039 -1.47099 -0.00440146 0
M  V30 4747 H 439.997 -3.35134 -2.48478 0
M  V30 4748 H 438.627 -2.2187 -2.34465 0
M  V30 4749 H 437.679 -3.7724 -0.489327 0
M  V30 4750 H 438.991 -4.91355 -0.858587 0
M  V30 4751 H 438.145 -5.15317 -3.20208 0
M  V30 4752 H 436.884 -3.92636 -2.8929 0
M  V30 4753 H 435.889 -5.38511 -1.1084 0
M  V30 4754 H 437.114 -6.6361 -1.44215 0
M  V30 4755 H 435.06 -5.59259 -3.42878 0
M  V30 4756 H 434.977 -7.10427 -2.58515 0
M  V30 4757 H 436.245 -6.83704 -3.74391 0
M  V30 4758 N 440.474 -0.00167713 -1.576 0
M  V30 4759 C 441.723 0.682021 -1.89819 0
M  V30 4760 C 442.036 1.74844 -0.876871 0
M  V30 4761 O 443.242 2.48688 -1.08934 0
M  V30 4762 C 441.698 1.26425 -3.36964 0
M  V30 4763 C 441.306 0.232568 -4.47396 0
M  V30 4764 C 443.05 1.92604 -3.78291 0
M  V30 4765 C 440.957 0.824882 -5.85619 0
M  V30 4766 H 439.887 0.258499 -0.708304 0
M  V30 4767 H 442.538 -0.0624957 -1.83394 0
M  V30 4768 H 440.92 2.05949 -3.38232 0
M  V30 4769 H 442.094 -0.5382 -4.57646 0
M  V30 4770 H 440.409 -0.32888 -4.15099 0
M  V30 4771 H 443.006 2.37827 -4.78897 0
M  V30 4772 H 443.349 2.75732 -3.11894 0
M  V30 4773 H 443.882 1.19812 -3.79328 0
M  V30 4774 H 440.621 0.0323542 -6.55492 0
M  V30 4775 H 440.141 1.56477 -5.79029 0
M  V30 4776 H 441.82 1.32301 -6.33329 0
M  V30 4777 N 441.952 1.55251 0.271103 0
M  V30 4778 C 443.363 1.66635 0.842007 0
M  V30 4779 C 443.714 0.594631 1.86972 0
M  V30 4780 O 442.839 -0.263532 2.14789 0
M  V30 4781 C 443.434 3.02082 1.53401 0
M  V30 4782 C 441.993 3.15487 2.05293 0
M  V30 4783 C 441.14 2.62438 0.895631 0
M  V30 4784 H 444.091 1.58629 0.0474117 0
M  V30 4785 H 444.112 2.95176 2.40107 0
M  V30 4786 H 443.624 3.80062 0.785786 0
M  V30 4787 H 441.725 2.42284 2.83071 0
M  V30 4788 H 441.838 4.22075 2.26693 0
M  V30 4789 H 440.202 2.19644 1.28953 0
M  V30 4790 H 440.985 3.42923 0.160878 0
M  V30 4791 N 443.43 -0.535701 1.48216 0
M  V30 4792 C 444.679 -1.28828 1.55197 0
M  V30 4793 C 444.992 -1.94263 0.228278 0
M  V30 4794 O 446.198 -2.70927 0.176278 0
M  V30 4795 C 444.654 -2.33727 2.73678 0
M  V30 4796 C 444.262 -1.74386 4.12666 0
M  V30 4797 C 446.006 -3.1003 2.89968 0
M  V30 4798 C 443.913 -2.77192 5.22416 0
M  V30 4799 H 442.843 -0.484484 0.577747 0
M  V30 4800 H 445.494 -0.56646 1.74538 0
M  V30 4801 H 443.876 -3.08919 2.4776 0
M  V30 4802 H 445.05 -1.05421 4.48579 0
M  V30 4803 H 443.365 -1.10595 4.01445 0
M  V30 4804 H 445.962 -3.86842 3.6913 0
M  V30 4805 H 446.305 -3.65542 1.9921 0
M  V30 4806 H 446.838 -2.41952 3.15759 0
M  V30 4807 H 443.577 -2.26507 6.15122 0
M  V30 4808 H 443.097 -3.44502 4.90998 0
M  V30 4809 H 444.776 -3.40285 5.50286 0
M  V30 4810 N 444.908 -1.36708 -0.784132 0
M  V30 4811 C 446.154 -1.31426 -1.54451 0
M  V30 4812 C 446.487 0.10476 -1.93917 0
M  V30 4813 O 445.762 1.05934 -1.6312 0
M  V30 4814 C 446.045 -2.24189 -2.818 0
M  V30 4815 C 445.898 -3.74813 -2.48667 0
M  V30 4816 C 447.217 -2.15626 -3.83658 0
M  V30 4817 H 444.336 -0.478739 -0.560337 0
M  V30 4818 H 446.978 -1.67305 -0.900498 0
M  V30 4819 H 445.128 -1.93722 -3.36755 0
M  V30 4820 H 446.8 -4.15823 -1.99722 0
M  V30 4821 H 445.043 -3.93989 -1.81535 0
M  V30 4822 H 445.714 -4.35138 -3.39646 0
M  V30 4823 H 448.19 -2.42456 -3.38163 0
M  V30 4824 H 447.066 -2.82694 -4.70506 0
M  V30 4825 H 447.327 -1.14522 -4.27009 0
M  V30 4826 N 446.386 1.0089 -1.21074 0
M  V30 4827 C 447.626 1.76142 -1.03699 0
M  V30 4828 C 447.99 1.87292 0.422587 0
M  V30 4829 O 449.191 2.59068 0.716752 0
M  V30 4830 C 447.462 3.13805 -1.7106 0
M  V30 4831 S 449.021 4.04996 -1.68889 0
M  V30 4832 H 445.839 0.606113 -0.371683 0
M  V30 4833 H 448.441 1.20744 -1.53756 0
M  V30 4834 H 447.145 3.0332 -2.76451 0
M  V30 4835 H 446.676 3.74276 -1.21166 0
M  V30 4836 H 448.691 4.90842 -0.727211 0
M  V30 4837 N 447.864 1.01787 1.20321 0
M  V30 4838 C 449.111 0.707936 1.89722 0
M  V30 4839 C 449.439 -0.762535 1.78929 0
M  V30 4840 O 448.694 -1.56977 1.16861 0
M  V30 4841 C 448.993 1.09076 3.40349 0
M  V30 4842 C 448.659 2.55765 3.71342 0
M  V30 4843 C 447.321 2.95845 3.79511 0
M  V30 4844 C 449.673 3.50723 3.85542 0
M  V30 4845 C 447.001 4.2982 3.99339 0
M  V30 4846 C 449.353 4.84387 4.06881 0
M  V30 4847 C 448.017 5.24172 4.1328 0
M  V30 4848 H 447.287 0.259052 0.694243 0
M  V30 4849 H 449.934 1.27868 1.42555 0
M  V30 4850 H 448.239 0.438453 3.89339 0
M  V30 4851 H 449.936 0.828636 3.92345 0
M  V30 4852 H 446.526 2.2371 3.65584 0
M  V30 4853 H 450.71 3.20916 3.78585 0
M  V30 4854 H 445.966 4.60196 4.02529 0
M  V30 4855 H 450.14 5.57891 4.1681 0
M  V30 4856 H 447.767 6.27997 4.28396 0
M  V30 4857 N 449.342 -1.36122 0.79427 0
M  V30 4858 C 450.305 -2.28309 0.201889 0
M  V30 4859 C 451.305 -1.49041 -0.603603 0
M  V30 4860 O 452.495 -1.68964 -0.423888 0
M  V30 4861 C 449.627 -3.3321 -0.719978 0
M  V30 4862 H 450.82 -2.82208 1.01481 0
M  V30 4863 H 448.373 -1.45768 0.564037 0
M  V30 4864 H 449.108 -2.84475 -1.55706 0
M  V30 4865 H 448.893 -3.91835 -0.144266 0
M  V30 4866 H 450.383 -4.02044 -1.12916 0
M  V30 4867 N 450.82 -0.546701 -1.47814 0
M  V30 4868 C 451.752 0.244196 -2.27895 0
M  V30 4869 C 452.765 0.88911 -1.36377 0
M  V30 4870 O 453.954 0.764733 -1.61289 0
M  V30 4871 C 451.054 1.36252 -3.10304 0
M  V30 4872 C 450.227 0.816382 -4.29714 0
M  V30 4873 C 449.286 1.81789 -4.93801 0
M  V30 4874 O 448.312 1.36818 -5.52512 0
M  V30 4875 N 449.514 3.15085 -4.87547 0
M  V30 4876 H 452.279 -0.442694 -2.96412 0
M  V30 4877 H 449.84 -0.382095 -1.57327 0
M  V30 4878 H 451.832 2.03102 -3.50045 0
M  V30 4879 H 450.402 1.95281 -2.44099 0
M  V30 4880 H 449.622 -0.0285981 -3.9419 0
M  V30 4881 H 450.91 0.430668 -5.06974 0
M  V30 4882 H 450.308 3.54275 -4.41028 0
M  V30 4883 H 448.865 3.77522 -5.31339 0
M  V30 4884 N 452.299 1.55045 -0.282633 0
M  V30 4885 C 453.547 1.99365 0.331334 0
M  V30 4886 C 453.868 1.1725 1.55812 0
M  V30 4887 O 453.138 0.263871 1.94115 0
M  V30 4888 H 451.718 0.736397 0.125414 0
M  V30 4889 H 454.38 1.90964 -0.389711 0
M  V30 4890 H 453.476 3.0596 0.616036 0
M  V30 4891 N 453.777 0.010035 1.57597 0
M  V30 4892 C 455.025 -0.671371 1.90623 0
M  V30 4893 C 455.346 -1.73753 0.885151 0
M  V30 4894 O 454.616 -1.95752 -0.0760611 0
M  V30 4895 H 453.196 -0.250968 0.703579 0
M  V30 4896 H 455.858 0.0533325 1.94827 0
M  V30 4897 H 454.954 -1.13626 2.90681 0
M  V30 4898 N 455.255 -1.55392 -0.262866 0
M  V30 4899 C 456.503 -1.76127 -0.991147 0
M  V30 4900 C 456.824 -0.571083 -1.8645 0
M  V30 4901 O 456.094 0.413698 -1.91482 0
M  V30 4902 H 454.674 -0.649528 -0.368948 0
M  V30 4903 H 457.336 -1.9281 -0.284655 0
M  V30 4904 H 456.432 -2.6663 -1.62219 0
M  V30 4905 N 456.733 0.527833 -1.48498 0
M  V30 4906 C 457.68 1.6322 -1.6318 0
M  V30 4907 C 458.65 1.59199 -0.473815 0
M  V30 4908 O 459.835 1.77591 -0.697563 0
M  V30 4909 C 456.975 3.01474 -1.67951 0
M  V30 4910 C 456.088 3.15713 -2.94871 0
M  V30 4911 C 455.223 4.44539 -2.90789 0
M  V30 4912 C 454.262 4.52315 -4.12404 0
M  V30 4913 N 453.399 5.72533 -4.06387 0
M  V30 4914 H 458.239 1.50011 -2.57489 0
M  V30 4915 H 455.776 0.730298 -1.27691 0
M  V30 4916 H 457.734 3.81572 -1.68698 0
M  V30 4917 H 456.364 3.1345 -0.771306 0
M  V30 4918 H 455.416 2.28854 -3.03859 0
M  V30 4919 H 456.728 3.1732 -3.8485 0
M  V30 4920 H 455.882 5.3293 -2.89949 0
M  V30 4921 H 454.621 4.45457 -1.98542 0
M  V30 4922 H 453.626 3.62331 -4.13517 0
M  V30 4923 H 454.851 4.53134 -5.05812 0
M  V30 4924 H 452.797 5.74344 -3.16962 0
M  V30 4925 H 452.714 5.75643 -4.90073 0
M  V30 4926 H 453.982 6.63204 -4.0961 0
M  V30 4927 N 458.211 1.37122 0.776871 0
M  V30 4928 C 459.121 1.34651 1.9211 0
M  V30 4929 C 460.137 0.246824 1.7224 0
M  V30 4930 O 461.313 0.48134 1.95563 0
M  V30 4931 C 458.378 1.14748 3.2716 0
M  V30 4932 C 457.439 2.34308 3.5972 0
M  V30 4933 C 456.672 2.15345 4.88326 0
M  V30 4934 O 456.895 1.13507 5.58992 0
M  V30 4935 O 455.829 3.03414 5.1983 0
M  V30 4936 H 459.655 2.31013 1.97146 0
M  V30 4937 H 457.24 1.17799 0.918901 0
M  V30 4938 H 459.122 1.05616 4.0795 0
M  V30 4939 H 457.797 0.214562 3.22988 0
M  V30 4940 H 456.704 2.49011 2.79185 0
M  V30 4941 H 458.037 3.26149 3.68629 0
M  V30 4942 N 459.689 -1.00246 1.21608 0
M  V30 4943 C 460.917 -1.77631 1.06089 0
M  V30 4944 C 461.332 -1.84746 -0.38916 0
M  V30 4945 O 460.689 -1.31068 -1.26994 0
M  V30 4946 C 460.74 -3.21415 1.65453 0
M  V30 4947 O 460.461 -3.14703 3.04785 0
M  V30 4948 C 461.962 -4.15289 1.55079 0
M  V30 4949 H 459.182 -0.558162 0.37242 0
M  V30 4950 H 461.726 -1.26093 1.60999 0
M  V30 4951 H 459.881 -3.70053 1.14629 0
M  V30 4952 H 460.295 -4.05056 3.33212 0
M  V30 4953 H 461.769 -5.13965 2.01355 0
M  V30 4954 H 462.246 -4.36279 0.505665 0
M  V30 4955 H 462.852 -3.72543 2.05163 0
M  V30 4956 N 461.167 -1.02423 -1.1978 0
M  V30 4957 C 462.097 -0.62157 -2.25075 0
M  V30 4958 C 463.078 0.367148 -1.6609 0
M  V30 4959 O 464.263 0.250892 -1.92573 0
M  V30 4960 C 461.393 0.0331826 -3.47284 0
M  V30 4961 C 460.347 -0.877323 -4.18912 0
M  V30 4962 C 459.673 -0.0879296 -5.34628 0
M  V30 4963 C 460.973 -2.18892 -4.74219 0
M  V30 4964 H 462.667 -1.50179 -2.59011 0
M  V30 4965 H 460.213 -0.723547 -1.24502 0
M  V30 4966 H 462.166 0.326488 -4.20133 0
M  V30 4967 H 460.89 0.948164 -3.12534 0
M  V30 4968 H 459.549 -1.15475 -3.47938 0
M  V30 4969 H 459.197 0.828941 -4.96123 0
M  V30 4970 H 458.897 -0.694359 -5.83483 0
M  V30 4971 H 460.421 0.198743 -6.10276 0
M  V30 4972 H 461.835 -1.95746 -5.38847 0
M  V30 4973 H 460.232 -2.74686 -5.33542 0
M  V30 4974 H 461.302 -2.84674 -3.92541 0
M  V30 4975 N 462.645 1.35699 -0.801477 0
M  V30 4976 C 463.592 2.29876 -0.206294 0
M  V30 4977 C 464.562 1.52565 0.656752 0
M  V30 4978 O 465.747 1.81024 0.602906 0
M  V30 4979 C 462.887 3.39052 0.643272 0
M  V30 4980 C 462 4.31335 -0.239644 0
M  V30 4981 C 461.135 5.27599 0.61744 0
M  V30 4982 C 460.174 6.11521 -0.26619 0
M  V30 4983 N 459.311 6.99938 0.550571 0
M  V30 4984 H 464.151 2.80187 -1.01484 0
M  V30 4985 H 461.688 1.37902 -0.511997 0
M  V30 4986 H 463.646 4.0101 1.15094 0
M  V30 4987 H 462.276 2.9003 1.41713 0
M  V30 4988 H 461.328 3.70426 -0.865381 0
M  V30 4989 H 462.64 4.90243 -0.919985 0
M  V30 4990 H 461.794 5.94906 1.19045 0
M  V30 4991 H 460.533 4.69176 1.33137 0
M  V30 4992 H 459.538 5.43166 -0.851507 0
M  V30 4993 H 460.763 6.72022 -0.9779 0
M  V30 4994 H 458.709 6.44008 1.24856 0
M  V30 4995 H 458.626 7.55966 -0.071832 0
M  V30 4996 H 459.894 7.71599 1.10702 0
M  V30 4997 N 464.123 0.554532 1.47522 0
M  V30 4998 C 465.086 -0.184174 2.28459 0
M  V30 4999 C 466.086 -0.845195 1.36796 0
M  V30 5000 O 467.276 -0.701467 1.59452 0
M  V30 5001 C 464.408 -1.26903 3.16399 0
M  V30 5002 H 465.601 0.526751 2.95238 0
M  V30 5003 H 463.154 0.311375 1.53167 0
M  V30 5004 H 463.889 -2.01244 2.54306 0
M  V30 5005 H 463.674 -0.799883 3.83854 0
M  V30 5006 H 465.164 -1.78794 3.77389 0
M  V30 5007 N 465.601 -1.54893 0.290851 0
M  V30 5008 C 466.85 -1.99111 -0.322113 0
M  V30 5009 C 467.163 -1.18283 -1.55784 0
M  V30 5010 O 468.369 -1.5272 -2.24475 0
M  V30 5011 C 466.825 -3.54442 -0.624438 0
M  V30 5012 C 466.433 -4.44066 0.592373 0
M  V30 5013 C 468.177 -4.07211 -1.19916 0
M  V30 5014 C 466.084 -5.90812 0.263762 0
M  V30 5015 H 465.014 -0.743712 -0.124133 0
M  V30 5016 H 467.665 -1.79132 0.39797 0
M  V30 5017 H 466.047 -3.70281 -1.40384 0
M  V30 5018 H 467.221 -4.39999 1.36886 0
M  V30 5019 H 465.536 -4.02015 1.08502 0
M  V30 5020 H 468.133 -5.14407 -1.45909 0
M  V30 5021 H 468.476 -3.57196 -2.13815 0
M  V30 5022 H 469.009 -3.94873 -0.481687 0
M  V30 5023 H 465.748 -6.44955 1.17105 0
M  V30 5024 H 465.268 -5.97911 -0.475655 0
M  V30 5025 H 466.947 -6.46852 -0.138354 0
M  V30 5026 N 467.08 -0.0183926 -1.57589 0
M  V30 5027 C 468.028 0.985111 -2.10709 0
M  V30 5028 C 469.022 1.34397 -1.0312 0
M  V30 5029 O 470.228 1.32746 -1.21567 0
M  V30 5030 H 466.603 0.335418 -0.673052 0
M  V30 5031 H 468.574 0.511689 -2.9398 0
M  V30 5032 C 467.323 2.26202 -2.64061 0
M  V30 5033 H 466.646 1.9946 -3.4649 0
M  V30 5034 H 468.086 2.94652 -3.04887 0
M  V30 5035 C 466.545 2.98444 -1.5631 0
M  V30 5036 O 467.075 3.90142 -0.956674 0
M  V30 5037 N 465.281 2.6059 -1.28612 0
M  V30 5038 H 464.828 1.86101 -1.78112 0
M  V30 5039 H 464.786 3.09238 -0.567406 0
M  V30 5040 N 468.558 1.5553 0.254621 0
M  V30 5041 C 469.786 1.81046 1.00149 0
M  V30 5042 C 470.201 0.593047 1.79244 0
M  V30 5043 O 469.558 -0.438196 1.77161 0
M  V30 5044 C 469.609 3.04684 1.94551 0
M  V30 5045 O 469.33 4.21725 1.18658 0
M  V30 5046 C 470.831 3.42943 2.80901 0
M  V30 5047 H 468.051 0.602653 0.295044 0
M  V30 5048 H 470.595 2.02576 0.279842 0
M  V30 5049 H 468.75 2.85226 2.62154 0
M  V30 5050 H 469.164 4.91746 1.82445 0
M  V30 5051 H 470.638 4.32576 3.42902 0
M  V30 5052 H 471.115 2.63176 3.51617 0
M  V30 5053 H 471.721 3.64724 2.18762 0
M  V30 5054 N 470.036 -0.519951 1.48776 0
M  V30 5055 C 471.261 -1.30447 1.6124 0
M  V30 5056 C 471.686 -1.86055 0.276591 0
M  V30 5057 O 471.044 -1.64915 -0.753183 0
M  V30 5058 C 471.092 -2.42406 2.66967 0
M  V30 5059 O 470.196 -3.45728 2.24824 0
M  V30 5060 H 469.537 -0.385924 0.540332 0
M  V30 5061 H 472.067 -0.624572 1.94834 0
M  V30 5062 H 472.077 -2.88447 2.88552 0
M  V30 5063 H 470.752 -2.01294 3.63941 0
M  V30 5064 H 469.329 -3.05737 2.13494 0
M  V30 5065 N 471.514 -1.37532 -0.769588 0
M  V30 5066 C 472.763 -1.32183 -1.5235 0
M  V30 5067 C 473.076 0.0906555 -1.9539 0
M  V30 5068 O 474.282 0.266628 -2.70188 0
M  V30 5069 C 472.738 -2.32029 -2.75119 0
M  V30 5070 C 472.346 -3.78816 -2.3917 0
M  V30 5071 C 474.09 -2.35694 -3.53056 0
M  V30 5072 C 471.997 -4.70388 -3.58453 0
M  V30 5073 H 470.927 -0.491275 -0.571984 0
M  V30 5074 H 473.578 -1.63004 -0.842739 0
M  V30 5075 H 471.96 -1.94229 -3.45096 0
M  V30 5076 H 473.134 -4.25466 -1.76962 0
M  V30 5077 H 471.449 -3.78117 -1.74402 0
M  V30 5078 H 474.046 -3.01312 -4.41718 0
M  V30 5079 H 474.389 -1.37117 -3.93071 0
M  V30 5080 H 474.922 -2.72212 -2.90078 0
M  V30 5081 H 471.661 -5.70102 -3.23518 0
M  V30 5082 H 471.181 -4.28442 -4.19758 0
M  V30 5083 H 472.86 -4.87628 -4.25239 0
M  V30 5084 N 472.992 0.995999 -1.22138 0
M  V30 5085 C 473.939 2.08551 -0.988687 0
M  V30 5086 C 474.909 1.65864 0.0885021 0
M  V30 5087 O 476.094 1.90704 -0.0604589 0
M  V30 5088 C 473.234 3.40374 -0.569191 0
M  V30 5089 C 472.347 3.96421 -1.71681 0
M  V30 5090 C 471.482 5.1639 -1.2456 0
M  V30 5091 C 470.521 5.64567 -2.36497 0
M  V30 5092 N 469.658 6.75777 -1.90445 0
M  V30 5093 H 474.498 2.2779 -1.92135 0
M  V30 5094 H 472.035 1.1168 -0.957388 0
M  V30 5095 H 473.993 4.16068 -0.307166 0
M  V30 5096 H 472.623 3.21145 0.326462 0
M  V30 5097 H 471.675 3.17628 -2.09324 0
M  V30 5098 H 472.987 4.2816 -2.55891 0
M  V30 5099 H 472.141 5.99362 -0.940774 0
M  V30 5100 H 470.88 4.86266 -0.373662 0
M  V30 5101 H 469.885 4.80185 -2.67772 0
M  V30 5102 H 471.11 5.96716 -3.24202 0
M  V30 5103 H 469.056 6.47443 -1.05609 0
M  V30 5104 H 468.973 7.06818 -2.68223 0
M  V30 5105 H 470.241 7.62262 -1.63022 0
M  V30 5106 N 474.47 1.03057 1.19235 0
M  V30 5107 C 475.418 0.606391 2.24557 0
M  V30 5108 C 476.412 -0.361826 1.65491 0
M  V30 5109 O 477.618 -0.23022 1.78522 0
M  V30 5110 H 473.993 0.177838 0.730669 0
M  V30 5111 H 475.964 1.50529 2.5765 0
M  V30 5112 C 474.713 -0.0252127 3.47691 0
M  V30 5113 H 474.036 0.710838 3.9343 0
M  V30 5114 H 475.476 -0.284931 4.23042 0
M  V30 5115 C 473.935 -1.27229 3.11953 0
M  V30 5116 O 474.465 -2.36416 3.24762 0
M  V30 5117 N 472.671 -1.16169 2.6637 0
M  V30 5118 H 472.218 -0.273189 2.56147 0
M  V30 5119 H 472.176 -1.99703 2.42829 0
M  V30 5120 N 475.948 -1.35272 0.808662 0
M  V30 5121 C 476.895 -2.29764 0.218482 0
M  V30 5122 C 477.865 -1.52911 -0.648652 0
M  V30 5123 O 479.05 -1.81341 -0.593297 0
M  V30 5124 C 476.19 -3.39388 -0.625282 0
M  V30 5125 C 475.303 -4.31202 0.262516 0
M  V30 5126 C 474.438 -5.27919 -0.589451 0
M  V30 5127 C 473.477 -6.11371 0.298617 0
M  V30 5128 N 472.614 -7.0022 -0.513443 0
M  V30 5129 H 477.454 -2.79645 1.02968 0
M  V30 5130 H 474.991 -1.37629 0.519303 0
M  V30 5131 H 476.949 -4.01615 -1.12966 0
M  V30 5132 H 475.579 -2.90777 -1.40173 0
M  V30 5133 H 474.631 -3.69962 0.885013 0
M  V30 5134 H 475.943 -4.89748 0.945971 0
M  V30 5135 H 475.097 -5.95529 -1.15888 0
M  V30 5136 H 473.836 -4.69875 -1.30647 0
M  V30 5137 H 472.841 -5.42707 0.880301 0
M  V30 5138 H 474.066 -6.71494 1.01352 0
M  V30 5139 H 472.012 -6.44662 -1.21439 0
M  V30 5140 H 471.929 -7.55917 0.111922 0
M  V30 5141 H 473.197 -7.72175 -1.06608 0
M  V30 5142 N 477.426 -0.562348 -1.47226 0
M  V30 5143 C 478.675 -0.038041 -2.01664 0
M  V30 5144 C 478.988 1.32199 -1.44162 0
M  V30 5145 O 480.194 1.9365 -1.90294 0
M  V30 5146 C 478.65 -0.0174958 -3.59896 0
M  V30 5147 C 478.258 -1.3746 -4.2639 0
M  V30 5148 C 480.002 0.453934 -4.22066 0
M  V30 5149 C 477.909 -1.31289 -5.76643 0
M  V30 5150 H 476.839 -0.0104511 -0.753928 0
M  V30 5151 H 479.49 -0.710966 -1.69167 0
M  V30 5152 H 477.872 0.721182 -3.89378 0
M  V30 5153 H 479.046 -2.1314 -4.08544 0
M  V30 5154 H 477.361 -1.78438 -3.7623 0
M  V30 5155 H 479.958 0.518584 -5.32179 0
M  V30 5156 H 480.301 1.46706 -3.89594 0
M  V30 5157 H 480.834 -0.230044 -3.97134 0
M  V30 5158 H 477.573 -2.30217 -6.13743 0
M  V30 5159 H 477.093 -0.597973 -5.96812 0
M  V30 5160 H 478.772 -1.01713 -6.38955 0
M  V30 5161 N 478.904 1.54736 -0.299062 0
M  V30 5162 C 480.315 1.8569 0.193971 0
M  V30 5163 C 480.666 1.22101 1.53577 0
M  V30 5164 O 479.791 0.51799 2.10109 0
M  V30 5165 C 480.386 3.36895 0.358733 0
M  V30 5166 C 478.945 3.67887 0.795986 0
M  V30 5167 C 478.092 2.77131 -0.096807 0
M  V30 5168 H 481.043 1.49934 -0.520134 0
M  V30 5169 H 481.064 3.61294 1.19361 0
M  V30 5170 H 480.576 3.83148 -0.617998 0
M  V30 5171 H 478.677 3.27151 1.78334 0
M  V30 5172 H 478.79 4.75114 0.616718 0
M  V30 5173 H 477.154 2.51153 0.423581 0
M  V30 5174 H 477.937 3.26204 -1.06986 0
M  V30 5175 N 480.382 0.0267497 1.57577 0
M  V30 5176 C 481.622 -0.65659 1.93567 0
M  V30 5177 C 481.986 -1.69429 0.903213 0
M  V30 5178 O 483.187 -2.42994 1.14923 0
M  V30 5179 C 481.458 -1.25912 3.34486 0
M  V30 5180 S 483.017 -1.96386 3.924 0
M  V30 5181 H 479.835 -0.216237 0.67732 0
M  V30 5182 H 482.437 0.0898475 1.95293 0
M  V30 5183 H 481.141 -0.491405 4.07447 0
M  V30 5184 H 480.672 -2.04291 3.36198 0
M  V30 5185 H 482.687 -3.24202 3.75643 0
M  V30 5186 N 481.861 -1.55662 -0.24637 0
M  V30 5187 C 483.107 -1.77782 -0.975779 0
M  V30 5188 C 483.44 -0.592103 -1.84953 0
M  V30 5189 O 482.715 0.409588 -1.90138 0
M  V30 5190 C 482.998 -3.09788 -1.83584 0
M  V30 5191 C 482.851 -4.38764 -0.990241 0
M  V30 5192 C 484.17 -3.38029 -2.81823 0
M  V30 5193 H 481.289 -0.646789 -0.353317 0
M  V30 5194 H 483.931 -1.88398 -0.246248 0
M  V30 5195 H 482.081 -3.00869 -2.45784 0
M  V30 5196 H 483.753 -4.59675 -0.386897 0
M  V30 5197 H 481.996 -4.32798 -0.294626 0
M  V30 5198 H 482.667 -5.27514 -1.62584 0
M  V30 5199 H 485.143 -3.46915 -2.2976 0
M  V30 5200 H 484.019 -4.3161 -3.39122 0
M  V30 5201 H 484.28 -2.58968 -3.58313 0
M  V30 5202 N 483.339 0.512053 -1.4905 0
M  V30 5203 C 484.585 1.26874 -1.58212 0
M  V30 5204 C 484.918 1.9241 -0.263073 0
M  V30 5205 O 484.193 1.80181 0.732476 0
M  V30 5206 C 484.476 2.34428 -2.73341 0
M  V30 5207 C 484.329 1.73466 -4.15006 0
M  V30 5208 C 485.648 3.36073 -2.84154 0
M  V30 5209 H 482.767 0.459924 -0.575881 0
M  V30 5210 H 485.409 0.568587 -1.81293 0
M  V30 5211 H 483.559 2.94146 -2.53792 0
M  V30 5212 H 485.231 1.17661 -4.46042 0
M  V30 5213 H 483.474 1.03921 -4.21168 0
M  V30 5214 H 484.145 2.51426 -4.91415 0
M  V30 5215 H 486.621 2.86332 -3.01916 0
M  V30 5216 H 485.497 4.08703 -3.66406 0
M  V30 5217 H 485.758 3.97725 -1.93048 0
M  V30 5218 N 484.817 1.37938 0.762283 0
M  V30 5219 C 486.063 1.33866 1.52341 0
M  V30 5220 C 486.396 -0.0738961 1.94059 0
M  V30 5221 O 485.671 -1.03326 1.64785 0
M  V30 5222 C 485.954 2.28644 2.78197 0
M  V30 5223 C 485.807 3.78722 2.42672 0
M  V30 5224 C 487.126 2.21702 3.80179 0
M  V30 5225 H 484.245 0.487593 0.55265 0
M  V30 5226 H 486.887 1.68717 0.873767 0
M  V30 5227 H 485.037 1.99055 3.33631 0
M  V30 5228 H 486.709 4.18948 1.93081 0
M  V30 5229 H 484.952 3.96827 1.75244 0
M  V30 5230 H 485.623 4.40486 3.3268 0
M  V30 5231 H 488.099 2.47805 3.34263 0
M  V30 5232 H 486.975 2.90143 4.65949 0
M  V30 5233 H 487.236 1.21301 4.25133 0
M  V30 5234 N 486.295 -0.989507 1.22664 0
M  V30 5235 C 487.205 -2.11449 1.01619 0
M  V30 5236 C 488.221 -1.73962 -0.036545 0
M  V30 5237 O 489.397 -2.00788 0.156924 0
M  V30 5238 C 486.462 -3.41465 0.600204 0
M  V30 5239 C 485.523 -3.93033 1.72695 0
M  V30 5240 C 484.756 -5.16844 1.33071 0
M  V30 5241 O 484.979 -5.7001 0.210975 0
M  V30 5242 O 483.913 -5.6225 2.14845 0
M  V30 5243 H 487.739 -2.32088 1.9588 0
M  V30 5244 H 485.324 -1.09823 1.01289 0
M  V30 5245 H 487.206 -4.19695 0.37873 0
M  V30 5246 H 485.881 -3.22178 -0.313511 0
M  V30 5247 H 484.788 -3.15961 2.00298 0
M  V30 5248 H 486.121 -4.16758 2.61865 0
M  V30 5249 N 487.773 -1.03688 -1.18687 0
M  V30 5250 C 489.021 -0.736572 -1.88199 0
M  V30 5251 C 489.342 0.737665 -1.80509 0
M  V30 5252 O 488.612 1.53204 -1.22088 0
M  V30 5253 H 487.192 -0.269466 -0.696704 0
M  V30 5254 H 489.854 -1.31282 -1.44052 0
M  V30 5255 H 488.95 -1.03802 -2.94332 0
M  V30 5256 N 489.251 1.34841 -0.815825 0
M  V30 5257 C 490.476 2.03261 -0.41226 0
M  V30 5258 C 490.901 1.61055 0.971751 0
M  V30 5259 O 490.259 0.7917 1.63101 0
M  V30 5260 C 490.307 3.56914 -0.514289 0
M  V30 5261 O 489.411 4.09728 0.468675 0
M  V30 5262 H 488.752 0.641664 -0.170771 0
M  V30 5263 H 491.282 1.72241 -1.10427 0
M  V30 5264 H 491.292 4.06156 -0.387457 0
M  V30 5265 H 489.967 3.86982 -1.52375 0
M  V30 5266 H 488.544 3.71681 0.301316 0
M  V30 5267 N 490.729 0.570148 1.46925 0
M  V30 5268 C 491.977 0.0508523 2.02036 0
M  V30 5269 C 492.298 -1.30885 1.44548 0
M  V30 5270 O 491.568 -1.85647 0.625453 0
M  V30 5271 H 490.148 0.0158088 0.746833 0
M  V30 5272 H 492.81 0.743086 1.80178 0
M  V30 5273 H 491.906 -0.027575 3.12088 0
M  V30 5274 N 492.207 -1.54576 0.307264 0
M  V30 5275 C 493.139 -2.21212 -0.599807 0
M  V30 5276 C 494.152 -1.20685 -1.09266 0
M  V30 5277 O 495.341 -1.47244 -1.00903 0
M  V30 5278 C 492.441 -2.84994 -1.83389 0
M  V30 5279 C 491.614 -4.11511 -1.48248 0
M  V30 5280 C 490.673 -4.59038 -2.57237 0
M  V30 5281 O 489.699 -5.24095 -2.22065 0
M  V30 5282 N 490.901 -4.31884 -3.87887 0
M  V30 5283 H 493.666 -2.99686 -0.0293075 0
M  V30 5284 H 491.227 -1.61379 0.129738 0
M  V30 5285 H 493.219 -3.1372 -2.5566 0
M  V30 5286 H 491.789 -2.10324 -2.31263 0
M  V30 5287 H 491.009 -3.89728 -0.592122 0
M  V30 5288 H 492.297 -4.93879 -1.22316 0
M  V30 5289 H 491.695 -3.79778 -4.19268 0
M  V30 5290 H 490.252 -4.65304 -4.56438 0
M  V30 5291 N 493.685 -0.035106 -1.57561 0
M  V30 5292 C 494.934 0.641604 -1.91223 0
M  V30 5293 C 495.247 1.72944 -0.913761 0
M  V30 5294 O 496.453 2.46321 -1.14185 0
M  V30 5295 C 494.909 1.19249 -3.3957 0
M  V30 5296 C 494.517 0.137616 -4.47789 0
M  V30 5297 C 496.261 1.84537 -3.82291 0
M  V30 5298 C 494.168 0.700478 -5.87237 0
M  V30 5299 H 493.098 0.243417 -0.713627 0
M  V30 5300 H 495.749 -0.101382 -1.8322 0
M  V30 5301 H 494.131 1.98728 -3.42525 0
M  V30 5302 H 495.305 -0.635153 -4.56402 0
M  V30 5303 H 493.62 -0.416855 -4.14308 0
M  V30 5304 H 496.217 2.27616 -4.83834 0
M  V30 5305 H 496.56 2.69054 -3.17672 0
M  V30 5306 H 497.093 1.11739 -3.81784 0
M  V30 5307 H 493.832 -0.106693 -6.55413 0
M  V30 5308 H 493.352 1.4416 -5.82218 0
M  V30 5309 H 495.031 1.18837 -6.35993 0
M  V30 5310 N 495.163 1.55791 0.238111 0
M  V30 5311 C 496.126 1.90239 1.27835 0
M  V30 5312 C 497.126 0.779552 1.4064 0
M  V30 5313 O 498.316 1.04747 1.3919 0
M  V30 5314 C 495.448 2.13859 2.65475 0
M  V30 5315 H 496.641 2.83262 0.985034 0
M  V30 5316 H 494.194 1.48818 0.477799 0
M  V30 5317 H 494.929 1.23334 2.99932 0
M  V30 5318 H 494.714 2.95643 2.57561 0
M  V30 5319 H 496.204 2.41664 3.40571 0
M  V30 5320 N 496.642 -0.504142 1.49319 0
M  V30 5321 C 497.919 -1.26548 1.49147 0
M  V30 5322 C 498.299 -2.09977 0.21744 0
M  V30 5323 O 497.647 -2.14028 -0.800269 0
M  V30 5324 C 497.857 -2.12489 2.76857 0
M  V30 5325 C 499.205 -2.7178 3.26222 0
M  V30 5326 O 500.229 -2.22758 2.77952 0
M  V30 5327 O 499.088 -3.61015 4.10281 0
M  V30 5328 H 496.182 -0.572495 0.596806 0
M  V30 5329 H 498.728 -0.51867 1.61579 0
M  V30 5330 H 497.5 -1.50796 3.61077 0
M  V30 5331 H 497.123 -2.94368 2.6727 0
M  V30 5332 N 498.12 -1.38341 -0.754957 0
M  V30 5333 C 499.366 -1.34672 -1.51628 0
M  V30 5334 C 499.699 0.0636036 -1.94096 0
M  V30 5335 O 498.974 1.0245 -1.6533 0
M  V30 5336 C 499.257 -2.30116 -2.76981 0
M  V30 5337 C 499.11 -3.80003 -2.4066 0
M  V30 5338 C 500.429 -2.23715 -3.78998 0
M  V30 5339 H 497.548 -0.490517 -0.550056 0
M  V30 5340 H 500.19 -1.69178 -0.864807 0
M  V30 5341 H 498.34 -2.00821 -3.3257 0
M  V30 5342 H 500.012 -4.19966 -1.90856 0
M  V30 5343 H 498.255 -3.97751 -1.73137 0
M  V30 5344 H 498.926 -4.42244 -3.30339 0
M  V30 5345 H 501.402 -2.49574 -3.32945 0
M  V30 5346 H 500.278 -2.9261 -4.64403 0
M  V30 5347 H 500.539 -1.23554 -4.24484 0
M  V30 5348 N 499.598 0.982988 -1.23187 0
M  V30 5349 C 500.847 1.71817 -1.05649 0
M  V30 5350 C 501.16 1.91315 0.407176 0
M  V30 5351 O 502.366 2.62256 0.702436 0
M  V30 5352 C 500.822 3.09188 -1.84203 0
M  V30 5353 C 500.43 2.97586 -3.34882 0
M  V30 5354 C 502.174 3.86684 -1.75146 0
M  V30 5355 C 500.081 4.30173 -4.05839 0
M  V30 5356 H 499.011 0.644258 -0.391724 0
M  V30 5357 H 501.662 1.09659 -1.4713 0
M  V30 5358 H 500.044 3.72087 -1.35527 0
M  V30 5359 H 501.218 2.43793 -3.91026 0
M  V30 5360 H 499.533 2.33567 -3.44725 0
M  V30 5361 H 502.13 4.84836 -2.25473 0
M  V30 5362 H 502.473 4.10136 -0.713737 0
M  V30 5363 H 503.006 3.30482 -2.21419 0
M  V30 5364 H 499.745 4.11918 -5.09906 0
M  V30 5365 H 499.265 4.83841 -3.54482 0
M  V30 5366 H 500.944 4.98873 -4.11989 0
M  V30 5367 N 501.076 1.04316 1.18135 0
M  V30 5368 C 502.039 0.640794 2.2006 0
M  V30 5369 C 503.039 -0.303124 1.57917 0
M  V30 5370 O 504.229 -0.0881855 1.73977 0
M  V30 5371 C 501.361 -0.060148 3.40847 0
M  V30 5372 H 502.554 1.54281 2.57172 0
M  V30 5373 H 500.107 0.836004 1.32063 0
M  V30 5374 H 500.842 -0.975845 3.0927 0
M  V30 5375 H 500.627 0.618319 3.87194 0
M  V30 5376 H 502.117 -0.328082 4.16309 0
M  V30 5377 N 502.554 -1.34406 0.822964 0
M  V30 5378 C 503.779 -2.0304 0.423034 0
M  V30 5379 C 504.204 -1.61568 -0.963196 0
M  V30 5380 O 503.562 -0.800339 -1.62678 0
M  V30 5381 C 503.61 -3.56636 0.53321 0
M  V30 5382 O 502.714 -4.09971 -0.446939 0
M  V30 5383 H 502.055 -0.64075 0.174171 0
M  V30 5384 H 504.585 -1.71653 1.11339 0
M  V30 5385 H 504.595 -4.05945 0.408991 0
M  V30 5386 H 503.27 -3.86168 1.54425 0
M  V30 5387 H 501.847 -3.71835 -0.281601 0
M  V30 5388 N 504.032 -0.577932 -1.46621 0
M  V30 5389 C 504.962 0.145917 -2.33044 0
M  V30 5390 C 505.943 0.888412 -1.45056 0
M  V30 5391 O 507.128 0.864812 -1.73881 0
M  V30 5392 C 504.258 1.16322 -3.27241 0
M  V30 5393 C 503.212 0.535868 -4.24632 0
M  V30 5394 C 502.538 1.65929 -5.08303 0
M  V30 5395 C 503.838 -0.523861 -5.19666 0
M  V30 5396 H 505.532 -0.575636 -2.93814 0
M  V30 5397 H 503.078 -0.278272 -1.41286 0
M  V30 5398 H 505.031 1.67793 -3.86553 0
M  V30 5399 H 503.755 1.91498 -2.64567 0
M  V30 5400 H 502.414 0.0422759 -3.66576 0
M  V30 5401 H 502.062 2.40061 -4.42018 0
M  V30 5402 H 501.762 1.2452 -5.74255 0
M  V30 5403 H 503.286 2.17686 -5.70478 0
M  V30 5404 H 504.7 -0.0944059 -5.73222 0
M  V30 5405 H 503.097 -0.858 -5.93935 0
M  V30 5406 H 504.167 -1.41197 -4.63887 0
M  V30 5407 N 505.51 1.54411 -0.315457 0
M  V30 5408 C 506.756 2.00716 0.289972 0
M  V30 5409 C 507.089 1.2034 1.5242 0
M  V30 5410 O 506.364 0.283579 1.92422 0
M  V30 5411 C 506.647 3.54507 0.632196 0
M  V30 5412 C 506.5 4.45615 -0.61218 0
M  V30 5413 C 507.819 4.15421 1.45305 0
M  V30 5414 H 504.938 0.729637 0.10392 0
M  V30 5415 H 507.58 1.8506 -0.430427 0
M  V30 5416 H 505.73 3.67979 1.24595 0
M  V30 5417 H 507.402 4.44026 -1.25053 0
M  V30 5418 H 505.645 4.15621 -1.24264 0
M  V30 5419 H 506.316 5.51022 -0.328379 0
M  V30 5420 H 508.792 4.05474 0.934331 0
M  V30 5421 H 507.668 5.23157 1.66127 0
M  V30 5422 H 507.929 3.68223 2.44671 0
M  V30 5423 N 506.988 0.0434614 1.5754 0
M  V30 5424 C 507.898 -0.94893 2.14552 0
M  V30 5425 C 508.914 -1.34707 1.10136 0
M  V30 5426 O 510.09 -1.42557 1.42266 0
M  V30 5427 C 507.155 -2.208 2.67298 0
M  V30 5428 C 506.216 -1.86893 3.86484 0
M  V30 5429 C 505.449 -3.06797 4.36705 0
M  V30 5430 O 505.672 -4.19921 3.86034 0
M  V30 5431 O 504.606 -2.8826 5.28384 0
M  V30 5432 H 508.432 -0.494099 2.99654 0
M  V30 5433 H 506.017 -0.177989 1.48336 0
M  V30 5434 H 507.899 -2.94686 3.01228 0
M  V30 5435 H 506.574 -2.65436 1.85272 0
M  V30 5436 H 505.481 -1.10347 3.57455 0
M  V30 5437 H 506.814 -1.47062 4.69716 0
M  V30 5438 N 508.466 -1.55915 -0.229846 0
M  V30 5439 C 509.712 -1.78807 -0.956868 0
M  V30 5440 C 510.045 -0.611687 -1.84315 0
M  V30 5441 O 509.32 0.389398 -1.90562 0
M  V30 5442 C 509.603 -3.11718 -1.80288 0
M  V30 5443 C 509.456 -4.3979 -0.943649 0
M  V30 5444 C 510.775 -3.40999 -2.78222 0
M  V30 5445 H 507.894 -0.6505 -0.346437 0
M  V30 5446 H 510.536 -1.88648 -0.226252 0
M  V30 5447 H 508.686 -3.03459 -2.42579 0
M  V30 5448 H 510.358 -4.60059 -0.338121 0
M  V30 5449 H 508.601 -4.33086 -0.248705 0
M  V30 5450 H 509.272 -5.29208 -1.5698 0
M  V30 5451 H 511.748 -3.49332 -2.26067 0
M  V30 5452 H 510.624 -4.35183 -3.34526 0
M  V30 5453 H 510.885 -2.62754 -3.55546 0
M  V30 5454 N 509.944 0.496216 -1.49584 0
M  V30 5455 C 510.854 1.62352 -1.69349 0
M  V30 5456 C 511.87 1.64184 -0.576147 0
M  V30 5457 O 513.046 1.82517 -0.85144 0
M  V30 5458 C 510.111 2.98698 -1.76013 0
M  V30 5459 C 509.172 3.07454 -2.99617 0
M  V30 5460 C 508.405 4.37296 -3.05953 0
M  V30 5461 O 508.628 5.2637 -2.19752 0
M  V30 5462 O 507.562 4.51124 -3.9846 0
M  V30 5463 H 511.388 1.48606 -2.64859 0
M  V30 5464 H 508.973 0.673022 -1.33382 0
M  V30 5465 H 510.855 3.79725 -1.82721 0
M  V30 5466 H 509.53 3.12696 -0.836828 0
M  V30 5467 H 508.437 2.25597 -2.98424 0
M  V30 5468 H 509.77 2.98385 -3.91443 0
M  V30 5469 N 511.423 1.38739 0.74761 0
M  V30 5470 C 512.7 1.25791 1.49786 0
M  V30 5471 C 513.08 -0.138075 2.10648 0
M  V30 5472 O 512.428 -1.14815 1.9756 0
M  V30 5473 C 512.638 2.37265 2.55942 0
M  V30 5474 C 513.986 2.75978 3.22679 0
M  V30 5475 O 515.01 2.36621 2.6625 0
M  V30 5476 O 513.869 3.43867 4.24756 0
M  V30 5477 H 510.963 0.492251 0.664543 0
M  V30 5478 H 513.509 1.50582 0.782511 0
M  V30 5479 H 512.281 3.30644 2.0926 0
M  V30 5480 H 511.904 2.14071 3.35051 0
M  V30 5481 N 512.901 -0.976442 1.23707 0
M  V30 5482 C 513.864 -2.0511 1.02287 0
M  V30 5483 C 514.864 -1.60791 -0.0167195 0
M  V30 5484 O 516.054 -1.72761 0.223408 0
M  V30 5485 C 513.186 -3.36458 0.548507 0
M  V30 5486 H 514.379 -2.25545 1.9766 0
M  V30 5487 H 511.932 -1.15042 1.05806 0
M  V30 5488 H 512.667 -3.21713 -0.408818 0
M  V30 5489 H 512.452 -3.69967 1.29874 0
M  V30 5490 H 513.942 -4.15489 0.419406 0
M  V30 5491 N 514.379 -1.04941 -1.1758 0
M  V30 5492 C 515.309 -0.669172 -2.23706 0
M  V30 5493 C 516.29 0.331835 -1.66832 0
M  V30 5494 O 517.475 0.209988 -1.93061 0
M  V30 5495 C 514.605 -0.0404889 -3.47276 0
M  V30 5496 C 513.559 -0.965983 -4.16957 0
M  V30 5497 C 512.885 -0.201312 -5.34321 0
M  V30 5498 C 514.185 -2.28902 -4.69469 0
M  V30 5499 H 515.879 -1.55639 -2.55767 0
M  V30 5500 H 513.425 -0.749793 -1.22939 0
M  V30 5501 H 515.378 0.237298 -4.20731 0
M  V30 5502 H 514.102 0.881658 -3.14475 0
M  V30 5503 H 512.761 -1.22829 -3.45411 0
M  V30 5504 H 512.409 0.723519 -4.97769 0
M  V30 5505 H 512.109 -0.817968 -5.81879 0
M  V30 5506 H 513.633 0.0692499 -6.10561 0
M  V30 5507 H 515.047 -2.07132 -5.34574 0
M  V30 5508 H 513.444 -2.85942 -5.27596 0
M  V30 5509 H 514.514 -2.92937 -3.86414 0
M  V30 5510 N 515.857 1.33968 -0.830081 0
M  V30 5511 C 517.085 2.0228 -0.434773 0
M  V30 5512 C 517.5 1.62487 0.961419 0
M  V30 5513 O 516.857 0.833849 1.62337 0
M  V30 5514 C 516.908 3.5751 -0.535625 0
M  V30 5515 O 516.629 3.95864 -1.87679 0
M  V30 5516 C 518.13 4.43091 -0.136137 0
M  V30 5517 H 515.35 0.648151 -0.173613 0
M  V30 5518 H 517.894 1.71089 -1.12022 0
M  V30 5519 H 516.049 3.87266 0.101817 0
M  V30 5520 H 516.463 4.9056 -1.85609 0
M  V30 5521 H 517.937 5.51398 -0.257772 0
M  V30 5522 H 518.414 4.29433 0.921076 0
M  V30 5523 H 519.02 4.18677 -0.747662 0
M  V30 5524 N 517.335 0.585699 1.46312 0
M  V30 5525 C 518.56 0.0762461 2.0726 0
M  V30 5526 C 518.985 -1.22071 1.43109 0
M  V30 5527 O 518.343 -1.73804 0.515942 0
M  V30 5528 C 518.391 -0.0729404 3.60526 0
M  V30 5529 O 517.495 -1.1287 3.96654 0
M  V30 5530 H 516.836 0.0641558 0.660893 0
M  V30 5531 H 519.366 0.809492 1.87905 0
M  V30 5532 H 519.376 -0.278158 4.07051 0
M  V30 5533 H 518.051 0.874188 4.06609 0
M  V30 5534 H 516.628 -0.901703 3.61834 0
M  V30 5535 N 518.813 -1.54241 0.323641 0
M  V30 5536 C 520.038 -2.05452 -0.283605 0
M  V30 5537 C 520.463 -1.19823 -1.44997 0
M  V30 5538 O 519.821 -0.207358 -1.8011 0
M  V30 5539 C 519.869 -3.53823 -0.695795 0
M  V30 5540 O 518.973 -3.71134 -1.79815 0
M  V30 5541 H 518.314 -0.662024 -0.0511917 0
M  V30 5542 H 520.844 -1.99079 0.472073 0
M  V30 5543 H 520.854 -3.96094 -0.978434 0
M  V30 5544 H 519.529 -4.15602 0.157287 0
M  V30 5545 H 518.106 -3.40768 -1.51431 0
M  V30 5546 N 520.291 -0.0518155 -1.57515 0
M  V30 5547 C 521.254 0.907547 -2.10467 0
M  V30 5548 C 522.254 1.23947 -1.02439 0
M  V30 5549 O 523.444 1.17604 -1.2851 0
M  V30 5550 C 520.576 2.21723 -2.58944 0
M  V30 5551 H 521.769 0.44851 -2.96527 0
M  V30 5552 H 519.322 0.196598 -1.55059 0
M  V30 5553 H 520.057 2.72206 -1.76279 0
M  V30 5554 H 519.842 1.98935 -3.37886 0
M  V30 5555 H 521.332 2.90441 -3.00056 0
M  V30 5556 N 521.769 1.56035 0.221574 0
M  V30 5557 C 523.015 1.79312 0.947372 0
M  V30 5558 C 523.348 0.621453 1.83988 0
M  V30 5559 O 522.623 -0.379287 1.90766 0
M  V30 5560 C 522.906 3.1267 1.78633 0
M  V30 5561 C 522.759 4.40284 0.920312 0
M  V30 5562 C 524.078 3.4247 2.7641 0
M  V30 5563 H 521.197 0.652328 0.342982 0
M  V30 5564 H 523.839 1.88765 0.216244 0
M  V30 5565 H 521.989 3.04741 2.40967 0
M  V30 5566 H 523.661 4.60232 0.313718 0
M  V30 5567 H 521.904 4.33212 0.225734 0
M  V30 5568 H 522.575 5.30033 1.54171 0
M  V30 5569 H 525.051 3.50526 2.24211 0
M  V30 5570 H 523.927 4.3695 3.32213 0
M  V30 5571 H 524.188 2.64635 3.54148 0
M  V30 5572 N 523.247 -0.488276 1.49845 0
M  V30 5573 C 524.194 -1.58836 1.67451 0
M  V30 5574 C 525.164 -1.57886 0.515857 0
M  V30 5575 O 526.349 -1.75679 0.744403 0
M  V30 5576 C 523.489 -2.96915 1.75885 0
M  V30 5577 C 522.602 -3.07784 3.03138 0
M  V30 5578 C 521.737 -4.36673 3.02473 0
M  V30 5579 C 520.776 -4.41222 4.24252 0
M  V30 5580 N 519.913 -5.61557 4.21424 0
M  V30 5581 H 524.753 -1.43131 2.61376 0
M  V30 5582 H 522.29 -0.696186 1.29583 0
M  V30 5583 H 524.248 -3.76965 1.78755 0
M  V30 5584 H 522.878 -3.11295 0.85414 0
M  V30 5585 H 521.93 -2.20717 3.09819 0
M  V30 5586 H 523.242 -3.07005 3.93128 0
M  V30 5587 H 522.396 -5.25055 3.03977 0
M  V30 5588 H 521.135 -4.40037 2.10283 0
M  V30 5589 H 520.14 -3.5124 4.22978 0
M  V30 5590 H 521.365 -4.39564 5.17649 0
M  V30 5591 H 519.311 -5.65738 3.32078 0
M  V30 5592 H 519.228 -5.62447 5.05163 0
M  V30 5593 H 520.496 -6.52111 4.2705 0
M  V30 5594 N 524.725 -1.39134 -0.740242 0
M  V30 5595 C 525.635 -1.39697 -1.88473 0
M  V30 5596 C 526.651 -0.292403 -1.71526 0
M  V30 5597 O 527.827 -0.533021 -1.94219 0
M  V30 5598 C 524.892 -1.23382 -3.24003 0
M  V30 5599 C 523.953 -2.43763 -3.53381 0
M  V30 5600 C 523.186 -2.28216 -4.82445 0
M  V30 5601 O 523.409 -1.28288 -5.55786 0
M  V30 5602 O 522.343 -3.1709 -5.11603 0
M  V30 5603 H 526.169 -2.36159 -1.90952 0
M  V30 5604 H 523.754 -1.20194 -0.887346 0
M  V30 5605 H 525.636 -1.16395 -4.05006 0
M  V30 5606 H 524.311 -0.300121 -3.22306 0
M  V30 5607 H 523.218 -2.56325 -2.72485 0
M  V30 5608 H 524.551 -3.35808 -3.59852 0
M  V30 5609 N 526.204 0.969867 -1.24223 0
M  V30 5610 C 527.151 2.06407 -1.0327 0
M  V30 5611 C 528.121 1.66014 0.0533 0
M  V30 5612 O 529.306 1.90533 -0.100896 0
M  V30 5613 C 526.446 3.3909 -0.641262 0
M  V30 5614 C 525.559 3.9269 -1.80051 0
M  V30 5615 C 524.694 5.13631 -1.35486 0
M  V30 5616 C 523.733 5.59423 -2.48419 0
M  V30 5617 N 522.87 6.71586 -2.04737 0
M  V30 5618 H 527.71 2.23663 -1.96923 0
M  V30 5619 H 525.247 1.09624 -0.980862 0
M  V30 5620 H 527.205 4.15323 -0.395351 0
M  V30 5621 H 525.835 3.21765 0.258269 0
M  V30 5622 H 524.887 3.13116 -2.16014 0
M  V30 5623 H 526.199 4.22636 -2.64916 0
M  V30 5624 H 525.353 5.97231 -1.0677 0
M  V30 5625 H 524.092 4.85364 -0.476722 0
M  V30 5626 H 523.097 4.74398 -2.77897 0
M  V30 5627 H 524.322 5.89705 -3.36786 0
M  V30 5628 H 522.268 6.45058 -1.19318 0
M  V30 5629 H 522.185 7.0097 -2.83156 0
M  V30 5630 H 523.453 7.58633 -1.79154 0
M  V30 5631 N 527.682 1.05563 1.17022 0
M  V30 5632 C 528.612 0.681026 2.23348 0
M  V30 5633 C 529.593 -0.322983 1.67005 0
M  V30 5634 O 530.778 -0.199746 1.9317 0
M  V30 5635 C 527.908 0.0589053 3.4725 0
M  V30 5636 C 526.862 0.988082 4.16438 0
M  V30 5637 C 526.188 0.229646 5.34207 0
M  V30 5638 C 527.488 2.31388 4.68249 0
M  V30 5639 H 529.182 1.56993 2.54938 0
M  V30 5640 H 526.728 0.756302 1.2254 0
M  V30 5641 H 528.681 -0.214982 4.20851 0
M  V30 5642 H 527.405 -0.864968 3.14938 0
M  V30 5643 H 526.064 1.24659 3.44754 0
M  V30 5644 H 525.712 -0.697111 4.98146 0
M  V30 5645 H 525.412 0.848815 5.81437 0
M  V30 5646 H 526.936 -0.0368694 6.10589 0
M  V30 5647 H 528.35 2.09964 5.33468 0
M  V30 5648 H 526.747 2.88736 5.26072 0
M  V30 5649 H 527.817 2.94982 3.84855 0
M  V30 5650 N 529.16 -1.33526 0.837174 0
M  V30 5651 C 530.406 -1.9813 0.432704 0
M  V30 5652 C 530.739 -1.66168 -1.00508 0
M  V30 5653 O 530.014 -0.94069 -1.70239 0
M  V30 5654 C 530.297 -3.54151 0.651834 0
M  V30 5655 C 530.15 -3.95806 2.13676 0
M  V30 5656 C 531.469 -4.39993 0.0968937 0
M  V30 5657 H 528.588 -0.719713 0.15869 0
M  V30 5658 H 531.23 -1.58193 1.05237 0
M  V30 5659 H 529.38 -3.88301 0.124369 0
M  V30 5660 H 531.052 -3.71921 2.72896 0
M  V30 5661 H 529.295 -3.45599 2.62191 0
M  V30 5662 H 529.966 -5.0447 2.24084 0
M  V30 5663 H 532.442 -4.12479 0.547733 0
M  V30 5664 H 531.318 -5.48186 0.279917 0
M  V30 5665 H 531.579 -4.3066 -0.9992 0
M  V30 5666 N 530.638 -0.59345 -1.46 0
M  V30 5667 C 532.054 -0.255965 -1.57534 0
M  V30 5668 C 532.254 1.24167 -1.58697 0
M  V30 5669 O 531.31 2.02398 -1.50968 0
M  V30 5670 C 532.623 -0.91466 -2.86451 0
M  V30 5671 C 534.171 -0.889253 -3.00102 0
M  V30 5672 C 534.646 -1.52769 -4.3177 0
M  V30 5673 N 536.137 -1.49253 -4.38495 0
M  V30 5674 C 536.872 -1.9558 -5.39014 0
M  V30 5675 N 536.368 -2.49929 -6.46148 0
M  V30 5676 N 538.161 -1.86432 -5.30282 0
M  V30 5677 H 530.312 -1.56604 -1.43489 0
M  V30 5678 H 532.575 -0.655207 -0.685133 0
M  V30 5679 H 532.281 -1.96861 -2.91442 0
M  V30 5680 H 532.155 -0.429356 -3.74748 0
M  V30 5681 H 534.542 0.156111 -2.94687 0
M  V30 5682 H 534.623 -1.41268 -2.13253 0
M  V30 5683 H 534.267 -2.57231 -4.37944 0
M  V30 5684 H 534.197 -0.979398 -5.17412 0
M  V30 5685 H 536.688 -1.09536 -3.61677 0
M  V30 5686 H 537.001 -2.83109 -7.19075 0
M  V30 5687 H 535.346 -2.53961 -6.46938 0
M  V30 5688 H 538.537 -1.43722 -4.4549 0
M  V30 5689 H 538.71 -2.22852 -6.08474 0
M  V30 5690 N 532.116 1.54067 -0.331816 0
M  V30 5691 C 533.363 2.00715 0.268269 0
M  V30 5692 C 533.691 1.21986 1.51491 0
M  V30 5693 O 532.946 0.292309 1.93505 0
M  V30 5694 C 533.245 3.51634 0.639392 0
M  V30 5695 C 532.911 4.48018 -0.509019 0
M  V30 5696 C 531.573 4.74089 -0.824209 0
M  V30 5697 C 533.925 5.05237 -1.28003 0
M  V30 5698 C 531.253 5.54637 -1.91298 0
M  V30 5699 C 533.605 5.86972 -2.35895 0
M  V30 5700 C 532.269 6.11342 -2.67987 0
M  V30 5701 H 531.539 0.734469 0.0981667 0
M  V30 5702 H 534.186 1.8596 -0.457304 0
M  V30 5703 H 532.491 3.6416 1.44551 0
M  V30 5704 H 534.188 3.85175 1.11539 0
M  V30 5705 H 530.778 4.27851 -0.253287 0
M  V30 5706 H 534.962 4.8507 -1.04978 0
M  V30 5707 H 530.218 5.71747 -2.16599 0
M  V30 5708 H 534.392 6.30327 -2.96076 0
M  V30 5709 H 532.019 6.73544 -3.5248 0
M  V30 5710 N 533.594 0.0601682 1.57485 0
M  V30 5711 C 534.524 -0.90889 2.15085 0
M  V30 5712 C 535.505 -1.31838 1.07484 0
M  V30 5713 O 536.69 -1.3915 1.35466 0
M  V30 5714 C 533.82 -2.18059 2.7031 0
M  V30 5715 C 532.774 -1.91088 3.82974 0
M  V30 5716 C 532.1 -3.24789 4.24754 0
M  V30 5717 C 533.4 -1.22535 5.07723 0
M  V30 5718 H 535.094 -0.429093 2.96309 0
M  V30 5719 H 532.64 -0.204952 1.42534 0
M  V30 5720 H 534.593 -2.86258 3.09248 0
M  V30 5721 H 533.317 -2.6826 1.8629 0
M  V30 5722 H 531.976 -1.25297 3.44523 0
M  V30 5723 H 531.624 -3.72809 3.37672 0
M  V30 5724 H 531.324 -3.07538 5.00694 0
M  V30 5725 H 532.848 -3.94205 4.66299 0
M  V30 5726 H 534.262 -1.80783 5.4405 0
M  V30 5727 H 532.659 -1.1558 5.88864 0
M  V30 5728 H 533.729 -0.202692 4.84476 0
M  V30 5729 N 535.072 -1.5615 -0.213296 0
M  V30 5730 C 536.483 -1.69645 -0.779582 0
M  V30 5731 C 536.834 -0.663615 -1.84636 0
M  V30 5732 O 535.959 0.183633 -2.15619 0
M  V30 5733 C 536.554 -3.07567 -1.42084 0
M  V30 5734 C 535.113 -3.22889 -1.93442 0
M  V30 5735 C 534.26 -2.65581 -0.797612 0
M  V30 5736 H 537.211 -1.58696 0.0114951 0
M  V30 5737 H 537.232 -3.03884 -2.28986 0
M  V30 5738 H 536.744 -3.82716 -0.644187 0
M  V30 5739 H 534.845 -2.52623 -2.73884 0
M  V30 5740 H 534.958 -4.30197 -2.10872 0
M  V30 5741 H 533.322 -2.24278 -1.20712 0
M  V30 5742 H 534.105 -3.43284 -0.033494 0
M  V30 5743 N 536.55 0.480323 -1.50102 0
M  V30 5744 C 537.966 0.813295 -1.37323 0
M  V30 5745 C 538.166 1.97027 -0.422206 0
M  V30 5746 O 537.222 2.5212 0.138563 0
M  V30 5747 C 538.535 1.13404 -2.78496 0
M  V30 5748 C 540.083 1.24104 -2.87345 0
M  V30 5749 C 540.558 1.59497 -4.29331 0
M  V30 5750 N 542.049 1.66507 -4.32238 0
M  V30 5751 C 542.784 1.95378 -5.39087 0
M  V30 5752 N 542.28 2.22333 -6.56155 0
M  V30 5753 N 544.073 1.96803 -5.26522 0
M  V30 5754 H 536.224 -0.282291 -2.10516 0
M  V30 5755 H 538.487 -0.063752 -0.945854 0
M  V30 5756 H 538.193 0.357064 -3.49883 0
M  V30 5757 H 538.067 2.07251 -3.15162 0
M  V30 5758 H 540.454 2.00871 -2.16183 0
M  V30 5759 H 540.535 0.282593 -2.54234 0
M  V30 5760 H 540.179 0.832736 -5.01027 0
M  V30 5761 H 540.109 2.56477 -4.59921 0
M  V30 5762 H 542.6 1.47753 -3.47818 0
M  V30 5763 H 542.913 2.43611 -7.33399 0
M  V30 5764 H 541.258 2.19745 -6.59346 0
M  V30 5765 H 544.449 1.75235 -4.34062 0
M  V30 5766 H 544.622 2.18969 -6.09883 0
M  V30 5767 N 538.028 1.39524 0.732853 0
M  V30 5768 C 539.256 1.40143 1.52209 0
M  V30 5769 C 539.671 -0.00348836 1.888 0
M  V30 5770 O 539.028 -0.975357 1.5425 0
M  V30 5771 C 539.079 2.27632 2.8083 0
M  V30 5772 O 538.8 3.62654 2.45792 0
M  V30 5773 C 540.301 2.36658 3.74844 0
M  V30 5774 H 537.521 0.478604 0.470297 0
M  V30 5775 H 540.065 1.83366 0.905388 0
M  V30 5776 H 538.22 1.87818 3.38826 0
M  V30 5777 H 538.634 4.08941 3.28431 0
M  V30 5778 H 540.108 3.02118 4.61984 0
M  V30 5779 H 540.585 1.38638 4.16745 0
M  V30 5780 H 541.191 2.76951 3.22766 0
M  V30 5781 N 539.506 -0.963266 1.24736 0
M  V30 5782 C 540.752 -1.70933 1.09131 0
M  V30 5783 C 541.085 -1.90676 -0.368273 0
M  V30 5784 O 540.36 -1.47147 -1.27193 0
M  V30 5785 C 540.643 -3.09744 1.83658 0
M  V30 5786 C 540.496 -2.97465 3.37394 0
M  V30 5787 C 541.815 -4.09483 1.61282 0
M  V30 5788 H 538.934 -0.620398 0.397838 0
M  V30 5789 H 541.576 -1.12028 1.53459 0
M  V30 5790 H 539.726 -3.60031 1.4598 0
M  V30 5791 H 541.398 -2.54571 3.84696 0
M  V30 5792 H 539.641 -2.33576 3.65547 0
M  V30 5793 H 540.312 -3.95822 3.84745 0
M  V30 5794 H 542.788 -3.68073 1.94066 0
M  V30 5795 H 541.664 -5.04666 2.15878 0
M  V30 5796 H 541.925 -4.38639 0.552102 0
M  V30 5797 N 540.985 -1.06182 -1.16461 0
M  V30 5798 C 542.21 -0.798599 -1.91408 0
M  V30 5799 C 542.635 0.640987 -1.76842 0
M  V30 5800 O 541.993 1.44652 -1.09296 0
M  V30 5801 C 542.041 -1.19665 -3.40165 0
M  V30 5802 O 541.145 -0.334768 -4.11039 0
M  V30 5803 H 540.486 -0.291961 -0.596368 0
M  V30 5804 H 543.016 -1.41732 -1.47557 0
M  V30 5805 H 543.026 -1.16772 -3.90933 0
M  V30 5806 H 541.701 -2.24526 -3.50087 0
M  V30 5807 H 540.278 -0.425168 -3.70468 0
M  V30 5808 N 542.463 1.3308 -0.844243 0
M  V30 5809 C 543.879 1.50447 -0.532729 0
M  V30 5810 C 544.079 1.78292 0.938837 0
M  V30 5811 O 543.135 1.84635 1.72239 0
M  V30 5812 C 544.448 2.65555 -1.41072 0
M  V30 5813 C 545.996 2.7944 -1.41005 0
M  V30 5814 C 546.471 3.97616 -2.27301 0
M  V30 5815 N 547.962 4.0486 -2.2504 0
M  V30 5816 C 548.697 4.95508 -2.88547 0
M  V30 5817 N 548.193 5.91236 -3.61126 0
M  V30 5818 N 549.986 4.88548 -2.77989 0
M  V30 5819 H 542.137 1.13269 -1.79677 0
M  V30 5820 H 544.4 0.55734 -0.766861 0
M  V30 5821 H 544.106 2.51675 -2.45668 0
M  V30 5822 H 543.98 3.61089 -1.09061 0
M  V30 5823 H 546.367 2.92749 -0.371784 0
M  V30 5824 H 546.448 1.8465 -1.77026 0
M  V30 5825 H 546.092 3.85066 -3.3119 0
M  V30 5826 H 546.022 4.91661 -1.88619 0
M  V30 5827 H 548.513 3.36353 -1.72264 0
M  V30 5828 H 548.826 6.57079 -4.06776 0
M  V30 5829 H 547.171 5.91295 -3.65234 0
M  V30 5830 H 550.362 4.12729 -2.20846 0
M  V30 5831 H 550.535 5.58994 -3.27765 0
M  V30 5832 N 543.941 0.601185 1.45683 0
M  V30 5833 C 544.871 -0.108824 2.33246 0
M  V30 5834 C 545.852 -0.865223 1.46451 0
M  V30 5835 O 547.037 -0.83704 1.75235 0
M  V30 5836 C 544.167 -1.11101 3.2905 0
M  V30 5837 C 543.121 -0.468244 4.25431 0
M  V30 5838 C 542.447 -1.57822 5.10878 0
M  V30 5839 C 543.747 0.606469 5.18767 0
M  V30 5840 H 545.441 0.622306 2.92861 0
M  V30 5841 H 542.987 0.300714 1.40825 0
M  V30 5842 H 544.94 -1.61622 3.89174 0
M  V30 5843 H 543.664 -1.87265 2.67581 0
M  V30 5844 H 542.323 0.0160484 3.66596 0
M  V30 5845 H 541.971 -2.32998 4.45781 0
M  V30 5846 H 541.671 -1.15369 5.76163 0
M  V30 5847 H 543.195 -2.08583 5.73869 0
M  V30 5848 H 544.609 0.185589 5.73 0
M  V30 5849 H 543.006 0.952381 5.92494 0
M  V30 5850 H 544.076 1.48559 4.61582 0
M  V30 5851 N 545.419 -1.53889 0.339982 0
M  V30 5852 C 546.83 -1.86139 -0.144671 0
M  V30 5853 C 547.181 -1.2613 -1.50285 0
M  V30 5854 O 546.306 -0.573515 -2.08662 0
M  V30 5855 C 546.901 -3.37728 -0.269285 0
M  V30 5856 C 545.46 -3.69868 -0.698168 0
M  V30 5857 C 544.607 -2.76777 0.170249 0
M  V30 5858 H 547.558 -1.48503 0.559704 0
M  V30 5859 H 547.579 -3.64331 -1.0974 0
M  V30 5860 H 547.091 -3.81375 0.719366 0
M  V30 5861 H 545.192 -3.31764 -1.69597 0
M  V30 5862 H 545.305 -4.76582 -0.490533 0
M  V30 5863 H 543.669 -2.52188 -0.356844 0
M  V30 5864 H 544.452 -3.23253 1.15597 0
M  V30 5865 N 546.897 -0.0685191 -1.57451 0
M  V30 5866 C 547.807 0.914677 -2.16034 0
M  V30 5867 C 548.823 1.32938 -1.12265 0
M  V30 5868 O 549.999 1.40275 -1.44516 0
M  V30 5869 C 547.064 2.16519 -2.70777 0
M  V30 5870 C 546.125 1.80721 -3.89408 0
M  V30 5871 C 545.358 2.9981 -4.41531 0
M  V30 5872 O 545.581 4.13727 -3.92666 0
M  V30 5873 O 544.515 2.79817 -5.32903 0
M  V30 5874 H 548.341 0.446364 -3.00402 0
M  V30 5875 H 545.926 0.154367 -1.486 0
M  V30 5876 H 547.808 2.89856 -3.05878 0
M  V30 5877 H 546.483 2.62454 -1.89471 0
M  V30 5878 H 545.39 1.04646 -3.59166 0
M  V30 5879 H 546.723 1.39571 -4.71997 0
M  V30 5880 N 548.375 1.56261 0.205012 0
M  V30 5881 C 549.285 1.96944 1.27476 0
M  V30 5882 C 550.301 0.875636 1.50362 0
M  V30 5883 O 551.477 1.18058 1.6317 0
M  V30 5884 C 548.542 2.29219 2.60115 0
M  V30 5885 C 547.603 3.52255 2.45387 0
M  V30 5886 C 546.836 3.8298 3.71701 0
M  V30 5887 O 547.059 3.15138 4.75441 0
M  V30 5888 O 545.993 4.76435 3.67823 0
M  V30 5889 H 549.819 2.88144 0.959527 0
M  V30 5890 H 547.404 1.43686 0.409217 0
M  V30 5891 H 549.286 2.51098 3.3842 0
M  V30 5892 H 547.961 1.4119 2.91285 0
M  V30 5893 H 546.868 3.35635 1.65227 0
M  V30 5894 H 548.201 4.40719 2.19152 0
M  V30 5895 N 549.853 -0.472356 1.50355 0
M  V30 5896 C 550.763 -1.59637 1.7191 0
M  V30 5897 C 551.779 -1.63247 0.602195 0
M  V30 5898 O 552.955 -1.81139 0.880369 0
M  V30 5899 C 550.02 -2.9586 1.80742 0
M  V30 5900 C 549.081 -3.02649 3.04471 0
M  V30 5901 C 548.314 -4.32374 3.12872 0
M  V30 5902 O 548.537 -5.22807 2.28099 0
M  V30 5903 O 547.471 -4.44728 4.05587 0
M  V30 5904 H 551.297 -1.44373 2.67189 0
M  V30 5905 H 548.882 -0.651717 1.34436 0
M  V30 5906 H 550.764 -3.7677 1.88739 0
M  V30 5907 H 549.439 -3.11325 0.88647 0
M  V30 5908 H 548.346 -2.20821 3.01975 0
M  V30 5909 H 549.679 -2.92119 3.9614 0
M  V30 5910 N 551.331 -1.39911 -0.725443 0
M  V30 5911 C 552.559 -1.40949 -1.51463 0
M  V30 5912 C 552.974 -0.0065242 -1.88799 0
M  V30 5913 O 552.331 0.967163 -1.54765 0
M  V30 5914 C 552.382 -2.29119 -2.79619 0
M  V30 5915 O 552.103 -3.63952 -2.43866 0
M  V30 5916 C 553.604 -2.38642 -3.73584 0
M  V30 5917 H 550.824 -0.481091 -0.467752 0
M  V30 5918 H 553.368 -1.83843 -0.895651 0
M  V30 5919 H 551.523 -1.89612 -3.37826 0
M  V30 5920 H 551.937 -4.10677 -3.26258 0
M  V30 5921 H 553.411 -3.04563 -4.60375 0
M  V30 5922 H 553.888 -1.40846 -4.16004 0
M  V30 5923 H 554.494 -2.78659 -3.21293 0
M  V30 5924 N 552.809 0.956637 -1.25245 0
M  V30 5925 C 553.719 2.0868 -1.0719 0
M  V30 5926 C 554.735 1.73997 -0.00959074 0
M  V30 5927 O 555.911 2.00301 -0.210104 0
M  V30 5928 C 552.976 3.39754 -0.690526 0
M  V30 5929 C 552.037 3.88316 -1.83055 0
M  V30 5930 C 551.27 5.13134 -1.46728 0
M  V30 5931 O 551.493 5.6925 -0.362029 0
M  V30 5932 O 550.427 5.56356 -2.29677 0
M  V30 5933 H 554.253 2.26813 -2.01965 0
M  V30 5934 H 551.838 1.07098 -1.04165 0
M  V30 5935 H 553.72 4.18543 -0.489871 0
M  V30 5936 H 552.395 3.22896 0.227981 0
M  V30 5937 H 551.302 3.1054 -2.08604 0
M  V30 5938 H 552.635 4.09669 -2.72822 0
M  V30 5939 N 554.287 1.06798 1.15896 0
M  V30 5940 C 555.512 0.808739 1.90982 0
M  V30 5941 C 555.937 -0.6316 1.77179 0
M  V30 5942 O 555.295 -1.4407 1.10061 0
M  V30 5943 C 555.343 1.21468 3.39526 0
M  V30 5944 O 554.447 0.356562 4.10856 0
M  V30 5945 H 553.788 0.29512 0.594811 0
M  V30 5946 H 556.318 1.42513 1.46804 0
M  V30 5947 H 556.328 1.18844 3.90308 0
M  V30 5948 H 555.003 2.26379 3.48891 0
M  V30 5949 H 553.58 0.444808 3.70238 0
M  V30 5950 N 555.766 -1.3263 0.851289 0
M  V30 5951 C 557.012 -1.98061 0.462963 0
M  V30 5952 C 557.367 -1.66162 -0.969948 0
M  V30 5953 O 556.66 -0.937723 -1.67085 0
M  V30 5954 C 556.854 -3.51713 0.635015 0
M  V30 5955 C 556.683 -3.98544 2.0831 0
M  V30 5956 C 555.453 -4.25787 2.72091 0
M  V30 5957 C 557.651 -4.13858 3.0533 0
M  V30 5958 N 555.633 -4.58842 4.07845 0
M  V30 5959 C 557.004 -4.50412 4.26063 0
M  V30 5960 C 559.059 -3.96182 3.0157 0
M  V30 5961 C 557.762 -4.71136 5.43529 0
M  V30 5962 C 559.788 -4.18088 4.18278 0
M  V30 5963 C 559.15 -4.54956 5.37768 0
M  V30 5964 H 555.249 -0.750976 0.218082 0
M  V30 5965 H 557.833 -1.60514 1.10197 0
M  V30 5966 H 556.004 -3.88391 0.0257298 0
M  V30 5967 H 557.736 -4.04118 0.216915 0
M  V30 5968 H 554.491 -4.17734 2.23149 0
M  V30 5969 H 554.915 -4.7956 4.77862 0
M  V30 5970 H 559.557 -3.66783 2.1031 0
M  V30 5971 H 557.275 -4.9939 6.35323 0
M  V30 5972 H 560.861 -4.05918 4.168 0
M  V30 5973 H 559.741 -4.71567 6.26573 0
M  V30 5974 N 557.244 -0.608902 -1.45362 0
M  V30 5975 C 558.493 -0.10218 -2.01441 0
M  V30 5976 C 558.806 1.27546 -1.48295 0
M  V30 5977 O 560.012 1.87498 -1.96359 0
M  V30 5978 C 558.468 -0.131985 -3.59658 0
M  V30 5979 C 558.076 -1.50956 -4.21801 0
M  V30 5980 C 559.82 0.319427 -4.23296 0
M  V30 5981 C 557.727 -1.49568 -5.72174 0
M  V30 5982 H 556.657 -0.0344314 -0.753213 0
M  V30 5983 H 559.308 -0.764426 -1.6682 0
M  V30 5984 H 557.69 0.596939 -3.91475 0
M  V30 5985 H 558.864 -2.26029 -4.01556 0
M  V30 5986 H 557.179 -1.90318 -3.70362 0
M  V30 5987 H 559.776 0.349013 -5.3356 0
M  V30 5988 H 560.119 1.34237 -3.94064 0
M  V30 5989 H 560.652 -0.356273 -3.96201 0
M  V30 5990 H 557.391 -2.49626 -6.06108 0
M  V30 5991 H 556.911 -0.787542 -5.94607 0
M  V30 5992 H 558.59 -1.21989 -6.35396 0
M  V30 5993 N 558.722 1.53707 -0.348139 0
M  V30 5994 C 559.669 2.25173 0.506518 0
M  V30 5995 C 560.639 1.25174 1.09182 0
M  V30 5996 O 561.824 1.53917 1.12757 0
M  V30 5997 C 558.964 3.03141 1.64923 0
M  V30 5998 C 558.077 4.18002 1.0908 0
M  V30 5999 C 557.212 4.83447 2.20119 0
M  V30 6000 C 556.251 5.90369 1.61651 0
M  V30 6001 N 555.388 6.49575 2.66451 0
M  V30 6002 H 560.228 2.97799 -0.109452 0
M  V30 6003 H 557.765 1.46953 -0.0657866 0
M  V30 6004 H 559.723 3.46607 2.32205 0
M  V30 6005 H 558.353 2.32803 2.23612 0
M  V30 6006 H 557.405 3.79145 0.308783 0
M  V30 6007 H 558.717 4.94892 0.623178 0
M  V30 6008 H 557.871 5.30008 2.95257 0
M  V30 6009 H 556.61 4.05991 2.70227 0
M  V30 6010 H 555.615 5.43186 0.850209 0
M  V30 6011 H 556.84 6.69735 1.1239 0
M  V30 6012 H 554.786 5.74981 3.15805 0
M  V30 6013 H 554.703 7.21952 2.24325 0
M  V30 6014 H 555.971 7.00789 3.41344 0
M  V30 6015 N 560.2 0.0768682 1.57412 0
M  V30 6016 C 561.446 -0.585926 1.94778 0
M  V30 6017 C 561.801 -1.66912 0.956982 0
M  V30 6018 O 561.094 -1.9159 -0.0199454 0
M  V30 6019 C 561.288 -1.20268 3.36557 0
M  V30 6020 C 561.117 -0.18076 4.49337 0
M  V30 6021 C 559.887 0.236362 5.04747 0
M  V30 6022 C 562.085 0.583978 5.10974 0
M  V30 6023 N 560.067 1.24846 6.01071 0
M  V30 6024 C 561.438 1.44841 6.02844 0
M  V30 6025 C 563.493 0.639492 4.93776 0
M  V30 6026 C 562.196 2.36343 6.79363 0
M  V30 6027 C 564.222 1.54204 5.70942 0
M  V30 6028 C 563.584 2.39414 6.62465 0
M  V30 6029 H 559.683 -0.185281 0.759734 0
M  V30 6030 H 562.267 0.155193 1.9408 0
M  V30 6031 H 560.438 -1.9137 3.37982 0
M  V30 6032 H 562.17 -1.82636 3.61146 0
M  V30 6033 H 558.925 -0.14777 4.73369 0
M  V30 6034 H 559.349 1.75217 6.53933 0
M  V30 6035 H 563.991 -0.00510074 4.228 0
M  V30 6036 H 561.709 3.01836 7.49614 0
M  V30 6037 H 565.295 1.5899 5.59655 0
M  V30 6038 H 564.175 3.0812 7.21132 0
M  V30 6039 N 561.678 -1.56367 -0.196722 0
M  V30 6040 C 562.608 -1.97442 -1.24655 0
M  V30 6041 C 563.589 -0.846147 -1.47561 0
M  V30 6042 O 564.774 -1.11035 -1.59326 0
M  V30 6043 C 561.904 -2.31253 -2.59112 0
M  V30 6044 C 560.858 -3.46804 -2.50821 0
M  V30 6045 C 560.184 -3.66286 -3.89536 0
M  V30 6046 C 561.484 -4.8104 -2.03465 0
M  V30 6047 H 563.178 -2.85388 -0.905216 0
M  V30 6048 H 560.724 -1.37304 -0.434002 0
M  V30 6049 H 562.677 -2.58583 -3.32736 0
M  V30 6050 H 561.401 -1.40188 -2.94983 0
M  V30 6051 H 560.06 -3.19563 -1.79653 0
M  V30 6052 H 559.708 -2.72555 -4.22756 0
M  V30 6053 H 559.408 -4.4402 -3.84864 0
M  V30 6054 H 560.932 -3.9599 -4.64784 0
M  V30 6055 H 562.346 -5.07411 -2.66846 0
M  V30 6056 H 560.743 -5.62232 -2.09798 0
M  V30 6057 H 561.813 -4.74732 -0.98781 0
M  V30 6058 N 563.156 0.464375 -1.50603 0
M  V30 6059 C 564.103 1.56152 -1.69956 0
M  V30 6060 C 565.073 1.57046 -0.54091 0
M  V30 6061 O 566.258 1.74473 -0.772258 0
M  V30 6062 C 563.398 2.94079 -1.80586 0
M  V30 6063 C 562.511 3.02923 -3.07996 0
M  V30 6064 C 561.646 4.31806 -3.09382 0
M  V30 6065 C 560.685 4.34417 -4.31218 0
M  V30 6066 N 559.822 5.54782 -4.30304 0
M  V30 6067 H 564.662 1.38955 -2.6362 0
M  V30 6068 H 562.199 0.675482 -1.30674 0
M  V30 6069 H 564.157 3.74073 -1.8473 0
M  V30 6070 H 562.787 3.09896 -0.903556 0
M  V30 6071 H 561.839 2.1576 -3.13292 0
M  V30 6072 H 563.151 3.00712 -3.97962 0
M  V30 6073 H 562.305 5.20153 -3.12292 0
M  V30 6074 H 561.044 4.36636 -2.17257 0
M  V30 6075 H 560.049 3.44467 -4.28512 0
M  V30 6076 H 561.274 4.31273 -5.24576 0
M  V30 6077 H 559.22 5.60384 -3.41037 0
M  V30 6078 H 559.137 5.54339 -5.14047 0
M  V30 6079 H 560.405 6.45235 -4.3737 0
M  V30 6080 N 564.634 1.40294 0.718013 0
M  V30 6081 C 565.544 1.42678 1.86226 0
M  V30 6082 C 566.56 0.319655 1.71039 0
M  V30 6083 O 567.736 0.563852 1.93346 0
M  V30 6084 C 564.801 1.2852 3.21999 0
M  V30 6085 C 563.862 2.49354 3.49458 0
M  V30 6086 C 563.095 2.35863 4.78753 0
M  V30 6087 O 563.318 1.37114 5.53675 0
M  V30 6088 O 562.252 3.25189 5.06494 0
M  V30 6089 H 566.078 2.39167 1.87171 0
M  V30 6090 H 563.663 1.2159 0.868112 0
M  V30 6091 H 565.545 1.22824 4.03103 0
M  V30 6092 H 564.22 0.351359 3.21787 0
M  V30 6093 H 563.127 2.60628 2.68373 0
M  V30 6094 H 564.46 3.41491 3.54464 0
M  V30 6095 N 566.112 -0.949982 1.2575 0
M  V30 6096 C 567.361 -1.68956 1.10168 0
M  V30 6097 C 567.674 -1.92327 -0.356309 0
M  V30 6098 O 568.88 -2.64026 -0.632657 0
M  V30 6099 C 567.336 -3.04196 1.92336 0
M  V30 6100 C 566.944 -2.88603 3.42655 0
M  V30 6101 C 568.688 -3.81904 1.85336 0
M  V30 6102 C 566.595 -4.19262 4.17101 0
M  V30 6103 H 565.525 -0.633645 0.408668 0
M  V30 6104 H 568.176 -1.05719 1.49986 0
M  V30 6105 H 566.558 -3.68363 1.45344 0
M  V30 6106 H 567.732 -2.3334 3.97353 0
M  V30 6107 H 566.047 -2.24345 3.50796 0
M  V30 6108 H 568.644 -4.78688 2.38248 0
M  V30 6109 H 568.987 -4.08099 0.822226 0
M  V30 6110 H 569.52 -3.24495 2.30104 0
M  V30 6111 H 566.259 -3.98254 5.20648 0
M  V30 6112 H 565.779 -4.74273 3.67186 0
M  V30 6113 H 567.458 -4.87775 4.25071 0
M  V30 6114 N 567.59 -1.07411 -1.15328 0
M  V30 6115 C 568.52 -0.716472 -2.22236 0
M  V30 6116 C 569.501 0.296373 -1.67498 0
M  V30 6117 O 570.686 0.168989 -1.93463 0
M  V30 6118 C 567.816 -0.114142 -3.47112 0
M  V30 6119 C 566.77 -1.05421 -4.14814 0
M  V30 6120 C 566.096 -0.314604 -5.33774 0
M  V30 6121 C 567.396 -2.38808 -4.64508 0
M  V30 6122 H 569.09 -1.61029 -2.52408 0
M  V30 6123 H 566.636 -0.775702 -1.21321 0
M  V30 6124 H 568.589 0.148001 -4.2114 0
M  V30 6125 H 567.313 0.814755 -3.16274 0
M  V30 6126 H 565.972 -1.30128 -3.42728 0
M  V30 6127 H 565.62 0.617772 -4.99192 0
M  V30 6128 H 565.32 -0.941209 -5.80013 0
M  V30 6129 H 566.844 -0.0602747 -6.1057 0
M  V30 6130 H 568.258 -2.18424 -5.3006 0
M  V30 6131 H 566.655 -2.97069 -5.21412 0
M  V30 6132 H 567.725 -3.01067 -3.80114 0
M  V30 6133 N 569.068 1.32177 -0.85831 0
M  V30 6134 C 569.978 2.32561 -0.308606 0
M  V30 6135 C 570.994 1.64209 0.575462 0
M  V30 6136 O 572.17 1.95719 0.474961 0
M  V30 6137 C 569.235 3.43207 0.490909 0
M  V30 6138 C 568.296 4.27243 -0.419733 0
M  V30 6139 C 567.529 5.32605 0.341719 0
M  V30 6140 O 567.752 5.48332 1.57125 0
M  V30 6141 O 566.686 6.0118 -0.294379 0
M  V30 6142 H 570.512 2.81477 -1.14037 0
M  V30 6143 H 568.097 1.35866 -0.621349 0
M  V30 6144 H 569.979 4.10677 0.944574 0
M  V30 6145 H 568.654 2.96474 1.29941 0
M  V30 6146 H 567.561 3.62569 -0.921652 0
M  V30 6147 H 568.894 4.7751 -1.19352 0
M  V30 6148 N 570.547 0.616602 1.45037 0
M  V30 6149 C 571.787 0.118453 2.04056 0
M  V30 6150 C 572.151 -1.23104 1.47341 0
M  V30 6151 O 573.352 -1.82044 1.97771 0
M  V30 6152 C 571.623 0.0892842 3.57288 0
M  V30 6153 S 573.182 -0.346361 4.37431 0
M  V30 6154 H 570 0.0539728 0.708948 0
M  V30 6155 H 572.602 0.816731 1.77623 0
M  V30 6156 H 571.306 1.07481 3.96076 0
M  V30 6157 H 570.837 -0.630703 3.88311 0
M  V30 6158 H 572.852 -1.59389 4.69904 0
M  V30 6159 N 572.025 -1.5352 0.356285 0
M  V30 6160 C 573.25 -2.06007 -0.239961 0
M  V30 6161 C 573.675 -1.22872 -1.42422 0
M  V30 6162 O 573.033 -0.245516 -1.7963 0
M  V30 6163 C 573.081 -3.5522 -0.620587 0
M  V30 6164 O 572.185 -3.74864 -1.71902 0
M  V30 6165 H 571.526 -0.662961 -0.0371377 0
M  V30 6166 H 574.056 -1.98033 0.514194 0
M  V30 6167 H 574.066 -3.98081 -0.894197 0
M  V30 6168 H 572.741 -4.15175 0.245407 0
M  V30 6169 H 571.318 -3.43904 -1.44169 0
M  V30 6170 N 573.503 -0.0852151 -1.57369 0
M  V30 6171 C 574.453 0.88767 -2.10011 0
M  V30 6172 C 575.437 1.25021 -1.01285 0
M  V30 6173 O 576.629 1.22694 -1.27574 0
M  V30 6174 C 573.758 2.15037 -2.67608 0
M  V30 6175 C 572.844 1.81371 -3.83361 0
M  V30 6176 N 573.235 1.18216 -4.91791 0
M  V30 6177 C 571.533 2.11041 -3.92909 0
M  V30 6178 C 572.234 1.02941 -5.72519 0
M  V30 6179 N 571.21 1.54351 -5.21226 0
M  V30 6180 H 575.012 0.395279 -2.9123 0
M  V30 6181 H 572.526 0.11829 -1.61969 0
M  V30 6182 H 574.523 2.85667 -3.03644 0
M  V30 6183 H 573.183 2.64851 -1.8784 0
M  V30 6184 H 574.194 0.850168 -5.10874 0
M  V30 6185 H 570.871 2.63138 -3.24136 0
M  V30 6186 H 572.261 0.536298 -6.69756 0
M  V30 6187 N 574.981 1.5647 0.188427 0
M  V30 6188 C 575.911 1.98101 1.23606 0
M  V30 6189 C 576.892 0.853961 1.47111 0
M  V30 6190 O 578.077 1.11879 1.58735 0
M  V30 6191 C 575.207 2.32624 2.57882 0
M  V30 6192 C 574.161 3.48129 2.48978 0
M  V30 6193 C 573.487 3.68347 3.87588 0
M  V30 6194 C 574.787 4.82112 2.00911 0
M  V30 6195 H 576.481 2.85864 0.890068 0
M  V30 6196 H 574.027 1.37532 0.426714 0
M  V30 6197 H 575.98 2.60343 3.3136 0
M  V30 6198 H 574.704 1.41751 2.94235 0
M  V30 6199 H 573.363 3.20511 1.77956 0
M  V30 6200 H 573.011 2.74793 4.21305 0
M  V30 6201 H 572.711 4.46055 3.82503 0
M  V30 6202 H 574.235 3.98449 4.62678 0
M  V30 6203 H 575.649 5.08819 2.64151 0
M  V30 6204 H 574.046 5.63337 2.06814 0
M  V30 6205 H 575.116 4.75249 0.96262 0
M  V30 6206 N 576.459 -0.456382 1.50847 0
M  V30 6207 C 577.389 -1.56025 1.73719 0
M  V30 6208 C 578.37 -1.5967 0.586473 0
M  V30 6209 O 579.555 -1.75702 0.827185 0
M  V30 6210 C 576.685 -2.94251 1.84483 0
M  V30 6211 C 575.639 -3.05471 2.99786 0
M  V30 6212 C 574.965 -4.45489 2.95709 0
M  V30 6213 C 576.265 -2.81318 4.40065 0
M  V30 6214 H 577.959 -1.37138 2.66146 0
M  V30 6215 H 575.505 -0.658299 1.28072 0
M  V30 6216 H 577.458 -3.71417 1.99067 0
M  V30 6217 H 576.182 -3.14328 0.886891 0
M  V30 6218 H 574.841 -2.30741 2.84876 0
M  V30 6219 H 574.489 -4.62505 1.97732 0
M  V30 6220 H 574.189 -4.53929 3.73125 0
M  V30 6221 H 575.713 -5.24655 3.12362 0
M  V30 6222 H 577.127 -3.48226 4.55425 0
M  V30 6223 H 575.524 -3.01188 5.19043 0
M  V30 6224 H 576.594 -1.7706 4.51418 0
M  V30 6225 N 577.937 -1.40673 -0.710563 0
M  V30 6226 C 579.165 -1.42547 -1.4996 0
M  V30 6227 C 579.58 -0.0265485 -1.88781 0
M  V30 6228 O 578.937 0.950694 -1.55782 0
M  V30 6229 C 578.988 -2.32071 -2.77173 0
M  V30 6230 O 578.709 -3.66518 -2.39992 0
M  V30 6231 C 580.21 -2.42591 -3.71032 0
M  V30 6232 H 577.43 -0.486025 -0.462623 0
M  V30 6233 H 579.974 -1.84783 -0.876102 0
M  V30 6234 H 578.129 -1.93184 -3.35795 0
M  V30 6235 H 578.543 -4.14115 -3.21884 0
M  V30 6236 H 580.017 -3.09429 -4.57119 0
M  V30 6237 H 580.494 -1.4525 -4.14486 0
M  V30 6238 H 581.1 -2.82051 -3.18319 0
M  V30 6239 N 579.415 0.9433 -1.26252 0
M  V30 6240 C 580.661 1.69175 -1.11837 0
M  V30 6241 C 580.994 1.91238 0.337891 0
M  V30 6242 O 580.269 1.49152 1.24836 0
M  V30 6243 C 580.552 3.06783 -1.88563 0
M  V30 6244 C 580.405 2.9206 -3.42083 0
M  V30 6245 C 581.724 4.06865 -1.67776 0
M  V30 6246 H 578.843 0.61399 -0.407658 0
M  V30 6247 H 581.485 1.09572 -1.55222 0
M  V30 6248 H 579.635 3.57663 -1.51689 0
M  V30 6249 H 581.307 2.48419 -3.88698 0
M  V30 6250 H 579.55 2.27731 -3.69217 0
M  V30 6251 H 580.221 3.89651 -3.90994 0
M  V30 6252 H 582.697 3.64939 -1.99897 0
M  V30 6253 H 581.573 5.01168 -2.23879 0
M  V30 6254 H 581.834 4.37705 -0.621816 0
M  V30 6255 N 580.893 1.08022 1.14757 0
M  V30 6256 C 582.142 0.802468 1.8505 0
M  V30 6257 C 582.455 -0.674061 1.83619 0
M  V30 6258 O 583.661 -1.06683 2.49662 0
M  V30 6259 C 582.117 1.38551 3.32162 0
M  V30 6260 C 581.725 2.89354 3.42021 0
M  V30 6261 C 583.469 1.18608 4.07594 0
M  V30 6262 C 581.376 3.40815 4.83321 0
M  V30 6263 H 580.306 0.296518 0.693248 0
M  V30 6264 H 582.957 1.30114 1.29393 0
M  V30 6265 H 581.339 0.814556 3.87532 0
M  V30 6266 H 582.513 3.52552 2.96722 0
M  V30 6267 H 580.828 3.08165 2.80041 0
M  V30 6268 H 583.425 1.54525 5.11885 0
M  V30 6269 H 583.768 0.125599 4.1611 0
M  V30 6270 H 584.301 1.72375 3.58513 0
M  V30 6271 H 581.04 4.46418 4.79991 0
M  V30 6272 H 580.56 2.82374 5.29174 0
M  V30 6273 H 582.239 3.37171 5.522 0
M  V30 6274 N 582.371 -1.3172 0.865308 0
M  V30 6275 C 583.318 -2.2863 0.315736 0
M  V30 6276 C 584.288 -1.55524 -0.583213 0
M  V30 6277 O 585.473 -1.83694 -0.51585 0
M  V30 6278 C 582.613 -3.41735 -0.480773 0
M  V30 6279 C 581.726 -4.297 0.445167 0
M  V30 6280 C 580.861 -5.29944 -0.365012 0
M  V30 6281 C 579.9 -6.09554 0.557651 0
M  V30 6282 N 579.037 -7.01768 -0.215994 0
M  V30 6283 H 583.877 -2.75026 1.14736 0
M  V30 6284 H 581.414 -1.35302 0.577209 0
M  V30 6285 H 583.372 -4.06045 -0.958306 0
M  V30 6286 H 582.002 -2.96461 -1.27714 0
M  V30 6287 H 581.054 -3.65875 1.04113 0
M  V30 6288 H 582.366 -4.85295 1.15284 0
M  V30 6289 H 581.52 -5.99908 -0.905255 0
M  V30 6290 H 580.259 -4.74994 -1.106 0
M  V30 6291 H 579.264 -5.38485 1.10969 0
M  V30 6292 H 580.489 -6.66591 1.29742 0
M  V30 6293 H 578.435 -6.49232 -0.939878 0
M  V30 6294 H 578.352 -7.54762 0.432431 0
M  V30 6295 H 579.62 -7.76002 -0.737618 0
M  V30 6296 N 583.85 -0.624285 -1.44708 0
M  V30 6297 C 584.783 0.133905 -2.27807 0
M  V30 6298 C 585.76 0.857794 -1.38133 0
M  V30 6299 O 586.945 0.863277 -1.6757 0
M  V30 6300 C 584.072 1.19541 -3.16903 0
M  V30 6301 C 583.118 0.572813 -4.22636 0
M  V30 6302 S 583.951 -0.631953 -5.31758 0
M  V30 6303 C 585.106 0.429733 -6.24423 0
M  V30 6304 H 585.34 -0.571072 -2.91764 0
M  V30 6305 H 582.873 -0.412261 -1.48794 0
M  V30 6306 H 584.831 1.80293 -3.68788 0
M  V30 6307 H 583.492 1.87255 -2.5218 0
M  V30 6308 H 582.685 1.37205 -4.84965 0
M  V30 6309 H 582.287 0.0400641 -3.73979 0
M  V30 6310 H 584.579 1.30421 -6.64828 0
M  V30 6311 H 585.522 -0.157804 -7.07924 0
M  V30 6312 H 585.93 0.75256 -5.59461 0
M  V30 6313 N 585.328 1.53329 -0.364422 0
M  V30 6314 C 586.238 2.29414 0.490552 0
M  V30 6315 C 587.254 1.35335 1.09363 0
M  V30 6316 O 588.43 1.68391 1.10483 0
M  V30 6317 C 585.495 3.06772 1.61529 0
M  V30 6318 C 584.556 4.16516 1.03986 0
M  V30 6319 C 583.789 4.90176 2.111 0
M  V30 6320 O 584.012 4.63687 3.32191 0
M  V30 6321 O 582.946 5.76134 1.74222 0
M  V30 6322 H 586.772 3.03428 -0.12856 0
M  V30 6323 H 584.357 1.48843 -0.128837 0
M  V30 6324 H 586.239 3.55082 2.26924 0
M  V30 6325 H 584.914 2.35596 2.21983 0
M  V30 6326 H 583.821 3.7246 0.349856 0
M  V30 6327 H 585.154 4.89855 0.4799 0
M  V30 6328 N 586.806 0.0935595 1.57322 0
M  V30 6329 C 587.716 -0.880192 2.17462 0
M  V30 6330 C 588.732 -1.31135 1.14366 0
M  V30 6331 O 589.908 -1.37958 1.46729 0
M  V30 6332 C 586.973 -2.12184 2.74188 0
M  V30 6333 C 586.034 -1.74503 3.92234 0
M  V30 6334 C 585.267 -2.92748 4.46245 0
M  V30 6335 O 585.49 -4.07427 3.99198 0
M  V30 6336 O 584.424 -2.71303 5.37288 0
M  V30 6337 H 588.25 -0.398516 3.01074 0
M  V30 6338 H 585.835 -0.130707 1.48827 0
M  V30 6339 H 587.717 -2.84953 3.10451 0
M  V30 6340 H 586.392 -2.59407 1.93623 0
M  V30 6341 H 585.299 -0.989186 3.60785 0
M  V30 6342 H 586.632 -1.32044 4.74157 0
M  V30 6343 N 588.284 -1.56567 -0.180126 0
M  V30 6344 C 589.247 -1.94852 -1.20686 0
M  V30 6345 C 590.247 -0.831212 -1.3765 0
M  V30 6346 O 591.437 -1.09841 -1.35206 0
M  V30 6347 C 588.569 -2.23565 -2.57355 0
M  V30 6348 H 589.762 -2.86722 -0.879225 0
M  V30 6349 H 587.315 -1.50489 -0.422237 0
M  V30 6350 H 588.05 -1.34381 -2.95148 0
M  V30 6351 H 587.835 -3.04999 -2.46411 0
M  V30 6352 H 589.325 -2.54137 -3.31367 0
M  V30 6353 N 589.762 0.448376 -1.51087 0
M  V30 6354 C 591.01 1.19635 -1.62886 0
M  V30 6355 C 591.331 1.91977 -0.342024 0
M  V30 6356 O 590.601 1.85094 0.641636 0
M  V30 6357 H 589.181 0.444598 -0.600285 0
M  V30 6358 H 591.843 0.515138 -1.87969 0
M  V30 6359 H 590.939 1.93194 -2.45117 0
M  V30 6360 N 591.24 1.41047 0.703093 0
M  V30 6361 C 592.517 1.30493 1.45708 0
M  V30 6362 C 592.897 -0.0709892 2.10981 0
M  V30 6363 O 592.245 -1.08471 2.01113 0
M  V30 6364 C 592.455 2.45287 2.48265 0
M  V30 6365 C 593.803 2.86104 3.13735 0
M  V30 6366 O 594.827 2.44971 2.58587 0
M  V30 6367 O 593.686 3.57206 4.13601 0
M  V30 6368 H 590.78 0.513144 0.648546 0
M  V30 6369 H 593.326 1.52995 0.734208 0
M  V30 6370 H 592.098 3.37135 1.98635 0
M  V30 6371 H 591.721 2.24622 3.28071 0
M  V30 6372 N 592.718 -0.936591 1.26751 0
M  V30 6373 C 593.628 -2.06949 1.10496 0
M  V30 6374 C 594.644 -1.7396 0.037271 0
M  V30 6375 O 595.82 -1.99941 0.241944 0
M  V30 6376 C 592.885 -3.38612 0.744491 0
M  V30 6377 C 591.946 -3.85355 1.89209 0
M  V30 6378 C 591.179 -5.10735 1.54873 0
M  V30 6379 O 591.402 -5.68602 0.452546 0
M  V30 6380 O 590.336 -5.52632 2.38499 0
M  V30 6381 H 594.162 -2.23571 2.05547 0
M  V30 6382 H 591.747 -1.05428 1.05855 0
M  V30 6383 H 593.629 -4.17711 0.556396 0
M  V30 6384 H 592.304 -3.23218 -0.176582 0
M  V30 6385 H 591.211 -3.07182 2.13518 0
M  V30 6386 H 592.544 -4.05277 2.79305 0
M  V30 6387 N 594.196 -1.08629 -1.14182 0
M  V30 6388 C 595.445 -0.812271 -1.84621 0
M  V30 6389 C 595.758 0.664313 -1.83973 0
M  V30 6390 O 596.964 1.05357 -2.50224 0
M  V30 6391 C 595.42 -1.4031 -3.31423 0
M  V30 6392 C 595.028 -2.91164 -3.40481 0
M  V30 6393 C 596.772 -1.20767 -4.06959 0
M  V30 6394 C 594.679 -3.43373 -4.81507 0
M  V30 6395 H 593.609 -0.30019 -0.691666 0
M  V30 6396 H 596.26 -1.30798 -1.28701 0
M  V30 6397 H 594.642 -0.835096 -3.87094 0
M  V30 6398 H 595.816 -3.5412 -2.94848 0
M  V30 6399 H 594.131 -3.09646 -2.78403 0
M  V30 6400 H 596.728 -1.57237 -5.11058 0
M  V30 6401 H 597.071 -0.147664 -4.16038 0
M  V30 6402 H 597.604 -1.74274 -3.57594 0
M  V30 6403 H 594.343 -4.48958 -4.77616 0
M  V30 6404 H 593.863 -2.85176 -5.27669 0
M  V30 6405 H 595.542 -3.40095 -5.50404 0
M  V30 6406 N 595.674 1.31259 -0.872281 0
M  V30 6407 C 596.92 1.96913 -0.485083 0
M  V30 6408 C 597.253 1.68774 0.960667 0
M  V30 6409 O 596.528 0.985495 1.67685 0
M  V30 6410 C 596.811 3.52299 -0.745502 0
M  V30 6411 C 596.664 3.90002 -2.24095 0
M  V30 6412 C 597.983 4.39582 -0.213516 0
M  V30 6413 H 595.102 0.715252 -0.177716 0
M  V30 6414 H 597.744 1.55347 -1.09395 0
M  V30 6415 H 595.894 3.87835 -0.227276 0
M  V30 6416 H 597.566 3.64555 -2.82661 0
M  V30 6417 H 595.809 3.38526 -2.71261 0
M  V30 6418 H 596.48 4.98352 -2.37381 0
M  V30 6419 H 598.956 4.10882 -0.656902 0
M  V30 6420 H 597.832 5.47251 -0.42516 0
M  V30 6421 H 598.093 4.33158 0.884666 0
M  V30 6422 N 597.152 0.631951 1.44375 0
M  V30 6423 C 598.377 0.142146 2.06912 0
M  V30 6424 C 598.802 -1.17456 1.4692 0
M  V30 6425 O 598.16 -1.72074 0.570975 0
M  V30 6426 C 598.208 0.0417952 3.60576 0
M  V30 6427 O 597.312 -1.00194 4.00044 0
M  V30 6428 H 596.653 0.0851491 0.658518 0
M  V30 6429 H 599.183 0.868863 1.85235 0
M  V30 6430 H 599.193 -0.148517 4.0773 0
M  V30 6431 H 597.868 1.0031 4.03622 0
M  V30 6432 H 596.445 -0.786131 3.64519 0
M  V30 6433 N 598.631 -1.53133 0.372548 0
M  V30 6434 C 599.579 -2.27473 -0.485681 0
M  V30 6435 C 600.573 -1.30719 -1.07745 0
M  V30 6436 O 601.779 -1.48321 -1.01985 0
M  V30 6437 H 598.154 -0.731269 -0.175356 0
M  V30 6438 H 600.125 -2.97955 0.162986 0
M  V30 6439 C 598.874 -3.08191 -1.60978 0
M  V30 6440 H 598.197 -3.82488 -1.16373 0
M  V30 6441 H 599.637 -3.63373 -2.18485 0
M  V30 6442 C 598.096 -2.19461 -2.55614 0
M  V30 6443 O 598.626 -1.81008 -3.58607 0
M  V30 6444 N 596.832 -1.83955 -2.24965 0
M  V30 6445 H 596.379 -2.15423 -1.41247 0
M  V30 6446 H 596.337 -1.24874 -2.88538 0
M  V30 6447 N 600.109 -0.101901 -1.5727 0
M  V30 6448 C 601.072 0.840129 -2.13247 0
M  V30 6449 C 602.072 1.20625 -1.06331 0
M  V30 6450 O 603.262 1.13456 -1.32186 0
M  V30 6451 C 600.394 2.13372 -2.65867 0
M  V30 6452 H 601.587 0.353945 -2.97804 0
M  V30 6453 H 599.14 0.147167 -1.55606 0
M  V30 6454 H 599.875 2.66461 -1.84849 0
M  V30 6455 H 599.66 1.88085 -3.44044 0
M  V30 6456 H 601.15 2.80748 -3.09145 0
M  V30 6457 N 601.587 1.56661 0.17182 0
M  V30 6458 C 602.836 1.81158 0.886831 0
M  V30 6459 C 603.149 0.679072 1.83434 0
M  V30 6460 O 604.355 0.808964 2.59168 0
M  V30 6461 C 602.811 3.20999 1.6275 0
M  V30 6462 C 602.419 4.42117 0.723652 0
M  V30 6463 C 604.163 3.5479 2.33076 0
M  V30 6464 C 602.07 5.7298 1.46452 0
M  V30 6465 H 601 0.675543 0.334899 0
M  V30 6466 H 603.651 1.82967 0.139765 0
M  V30 6467 H 602.033 3.13506 2.4193 0
M  V30 6468 H 603.207 4.60789 -0.0311485 0
M  V30 6469 H 601.522 4.16197 0.130063 0
M  V30 6470 H 604.119 4.49806 2.89099 0
M  V30 6471 H 604.462 2.79646 3.08389 0
M  V30 6472 H 604.995 3.63834 1.6084 0
M  V30 6473 H 601.734 6.51152 0.753729 0
M  V30 6474 H 601.254 5.58285 2.19266 0
M  V30 6475 H 602.933 6.14916 2.01214 0
M  V30 6476 N 603.065 -0.440357 1.51323 0
M  V30 6477 C 604.29 -1.21716 1.67928 0
M  V30 6478 C 604.715 -1.84328 0.374826 0
M  V30 6479 O 604.073 -1.68675 -0.664706 0
M  V30 6480 C 604.121 -2.27914 2.79442 0
M  V30 6481 O 603.225 -3.33325 2.42834 0
M  V30 6482 H 602.566 -0.35674 0.560029 0
M  V30 6483 H 605.096 -0.520417 1.97871 0
M  V30 6484 H 605.106 -2.72746 3.03436 0
M  V30 6485 H 603.781 -1.8172 3.741 0
M  V30 6486 H 602.358 -2.9399 2.294 0
M  V30 6487 N 604.543 -1.41418 -0.695603 0
M  V30 6488 C 605.773 -1.43921 -1.48224 0
M  V30 6489 C 606.181 -0.0428855 -1.89151 0
M  V30 6490 O 605.524 0.948138 -1.5734 0
M  V30 6491 C 605.586 -2.28466 -2.77567 0
M  V30 6492 C 605.25 -3.76629 -2.58844 0
M  V30 6493 C 606.247 -4.6879 -2.24793 0
M  V30 6494 C 603.932 -4.2067 -2.74485 0
M  V30 6495 C 605.926 -6.02981 -2.06622 0
M  V30 6496 C 603.613 -5.54926 -2.55931 0
M  V30 6497 C 604.611 -6.45897 -2.2205 0
M  V30 6498 O 604.299 -7.77675 -2.03657 0
M  V30 6499 H 604.031 -0.492252 -0.463318 0
M  V30 6500 H 606.585 -1.86347 -0.863952 0
M  V30 6501 H 604.815 -1.80853 -3.41802 0
M  V30 6502 H 606.504 -2.2267 -3.39371 0
M  V30 6503 H 607.27 -4.36055 -2.12323 0
M  V30 6504 H 603.149 -3.50167 -2.9984 0
M  V30 6505 H 606.693 -6.73951 -1.80099 0
M  V30 6506 H 602.59 -5.8724 -2.67991 0
M  V30 6507 H 603.358 -7.88819 -2.1842 0
M  V30 6508 N 606.021 0.929856 -1.27246 0
M  V30 6509 C 606.984 2.01172 -1.09829 0
M  V30 6510 C 607.984 1.60743 -0.0429687 0
M  V30 6511 O 609.174 1.71813 -0.287373 0
M  V30 6512 C 606.306 3.34191 -0.673003 0
M  V30 6513 H 607.499 2.18054 -2.05895 0
M  V30 6514 H 605.052 1.11036 -1.10003 0
M  V30 6515 H 605.787 3.23009 0.289134 0
M  V30 6516 H 605.572 3.64892 -1.43515 0
M  V30 6517 H 607.062 4.13646 -0.573323 0
M  V30 6518 N 607.499 1.09233 1.13605 0
M  V30 6519 C 608.429 0.751738 2.21068 0
M  V30 6520 C 609.41 -0.269688 1.67948 0
M  V30 6521 O 610.595 -0.13819 1.93708 0
M  V30 6522 C 607.725 0.16935 3.46887 0
M  V30 6523 C 606.679 1.12007 4.13084 0
M  V30 6524 C 606.005 0.399483 5.33206 0
M  V30 6525 C 607.305 2.46168 4.6065 0
M  V30 6526 H 608.999 1.65024 2.49815 0
M  V30 6527 H 606.545 0.794905 1.20072 0
M  V30 6528 H 608.498 -0.0809824 4.21322 0
M  V30 6529 H 607.222 -0.764335 3.1753 0
M  V30 6530 H 605.881 1.35564 3.40614 0
M  V30 6531 H 605.529 -0.538277 5.00112 0
M  V30 6532 H 605.229 1.03337 5.78442 0
M  V30 6533 H 606.753 0.157403 6.10397 0
M  V30 6534 H 608.167 2.26829 5.26518 0
M  V30 6535 H 606.564 3.05326 5.1662 0
M  V30 6536 H 607.634 3.07076 3.75276 0
M  V30 6537 N 608.977 -1.30795 0.87923 0
M  V30 6538 C 610.207 -2.00237 0.50881 0
M  V30 6539 C 610.615 -1.66115 -0.905682 0
M  V30 6540 O 609.958 -0.89138 -1.60624 0
M  V30 6541 C 610.02 -3.54508 0.597003 0
M  V30 6542 C 609.684 -4.12131 1.97477 0
M  V30 6543 C 610.681 -4.28552 2.94346 0
M  V30 6544 C 608.366 -4.47644 2.2786 0
M  V30 6545 C 610.36 -4.79689 4.19735 0
M  V30 6546 C 608.047 -4.98481 3.53496 0
M  V30 6547 C 609.045 -5.14456 4.49248 0
M  V30 6548 O 608.733 -5.64199 5.72656 0
M  V30 6549 H 608.465 -0.647026 0.195788 0
M  V30 6550 H 611.019 -1.67785 1.1848 0
M  V30 6551 H 609.249 -3.86461 -0.135945 0
M  V30 6552 H 610.938 -4.05198 0.238684 0
M  V30 6553 H 611.704 -4.01424 2.72183 0
M  V30 6554 H 607.583 -4.34481 1.54102 0
M  V30 6555 H 611.127 -4.92073 4.9448 0
M  V30 6556 H 607.024 -5.25044 3.75498 0
M  V30 6557 H 607.792 -5.82551 5.74957 0
M  V30 6558 N 610.455 -0.639598 -1.44038 0
M  V30 6559 C 611.402 0.0602458 -2.30721 0
M  V30 6560 C 612.372 0.828352 -1.43971 0
M  V30 6561 O 613.557 0.807693 -1.72861 0
M  V30 6562 C 610.697 1.03008 -3.29368 0
M  V30 6563 C 609.81 0.259502 -4.3122 0
M  V30 6564 C 608.945 1.22191 -5.16955 0
M  V30 6565 C 607.984 0.440978 -6.10509 0
M  V30 6566 N 607.121 1.35428 -6.88915 0
M  V30 6567 H 611.961 -0.684867 -2.90023 0
M  V30 6568 H 609.498 -0.349509 -1.42888 0
M  V30 6569 H 611.456 1.60583 -3.85057 0
M  V30 6570 H 610.086 1.74222 -2.71747 0
M  V30 6571 H 609.138 -0.432317 -3.77935 0
M  V30 6572 H 610.45 -0.348347 -4.97582 0
M  V30 6573 H 609.604 1.86873 -5.77203 0
M  V30 6574 H 608.343 1.86367 -4.50687 0
M  V30 6575 H 607.348 -0.219279 -5.49363 0
M  V30 6576 H 608.573 -0.196192 -6.78817 0
M  V30 6577 H 606.519 1.9831 -6.25307 0
M  V30 6578 H 606.436 0.800657 -7.51748 0
M  V30 6579 H 607.704 1.98967 -7.53679 0
M  V30 6580 N 611.933 1.52934 -0.380664 0
M  V30 6581 C 612.896 2.24809 0.446473 0
M  V30 6582 C 613.896 1.26133 0.997347 0
M  V30 6583 O 615.086 1.50297 0.880714 0
M  V30 6584 C 612.218 2.99649 1.62553 0
M  V30 6585 H 613.411 2.99343 -0.182677 0
M  V30 6586 H 610.964 1.55736 -0.132618 0
M  V30 6587 H 611.699 2.29395 2.29235 0
M  V30 6588 H 611.484 3.72066 1.23732 0
M  V30 6589 H 612.974 3.54246 2.21133 0
M  V30 6590 N 613.412 0.11024 1.57214 0
M  V30 6591 C 614.659 -0.54987 1.94891 0
M  V30 6592 C 614.987 -1.67243 0.992984 0
M  V30 6593 O 614.242 -1.95694 0.0152703 0
M  V30 6594 C 614.541 -1.13102 3.39032 0
M  V30 6595 C 614.207 -0.130713 4.5071 0
M  V30 6596 C 612.869 0.14437 4.80983 0
M  V30 6597 C 615.221 0.551472 5.18274 0
M  V30 6598 C 612.549 1.10807 5.76141 0
M  V30 6599 C 614.901 1.50375 6.14467 0
M  V30 6600 C 613.565 1.78691 6.43138 0
M  V30 6601 H 612.835 -0.201212 0.713158 0
M  V30 6602 H 615.482 0.189288 1.90562 0
M  V30 6603 H 613.787 -1.94675 3.40013 0
M  V30 6604 H 615.484 -1.64973 3.65493 0
M  V30 6605 H 612.074 -0.355301 4.27125 0
M  V30 6606 H 616.258 0.35211 4.95049 0
M  V30 6607 H 611.514 1.3343 5.96663 0
M  V30 6608 H 615.688 2.03808 6.65909 0
M  V30 6609 H 613.315 2.53522 7.1668 0
M  V30 6610 N 614.89 -1.56749 -0.16351 0
M  V30 6611 C 616.115 -1.86938 -0.898264 0
M  V30 6612 C 616.54 -0.697456 -1.74692 0
M  V30 6613 O 615.898 0.353327 -1.77824 0
M  V30 6614 C 615.946 -3.15599 -1.74441 0
M  V30 6615 O 615.05 -2.98371 -2.8469 0
M  V30 6616 H 614.391 -0.614659 -0.251178 0
M  V30 6617 H 616.921 -2.03979 -0.159298 0
M  V30 6618 H 616.931 -3.47202 -2.14277 0
M  V30 6619 H 615.606 -4.00505 -1.1211 0
M  V30 6620 H 614.183 -2.7814 -2.4838 0
M  V30 6621 N 616.368 0.432326 -1.51554 0
M  V30 6622 C 617.596 1.20364 -1.68286 0
M  V30 6623 C 618.011 1.84888 -0.38233 0
M  V30 6624 O 617.368 1.70924 0.639627 0
M  V30 6625 C 617.419 2.28398 -2.80208 0
M  V30 6626 O 617.14 1.66512 -4.05223 0
M  V30 6627 C 618.641 3.18584 -3.08251 0
M  V30 6628 H 615.861 0.36259 -0.564596 0
M  V30 6629 H 618.405 0.511647 -1.97996 0
M  V30 6630 H 616.56 2.93305 -2.53083 0
M  V30 6631 H 616.974 2.37951 -4.67418 0
M  V30 6632 H 618.448 3.90511 -3.90135 0
M  V30 6633 H 618.925 3.79628 -2.2086 0
M  V30 6634 H 619.531 2.59372 -3.37055 0
M  V30 6635 N 617.846 1.41785 0.688094 0
M  V30 6636 C 619.071 1.45117 1.48175 0
M  V30 6637 C 619.496 0.060129 1.88004 0
M  V30 6638 O 618.854 -0.938385 1.55126 0
M  V30 6639 C 618.902 2.37224 2.71583 0
M  V30 6640 O 618.006 1.83443 3.69354 0
M  V30 6641 H 617.347 0.492208 0.445676 0
M  V30 6642 H 619.877 1.86329 0.845145 0
M  V30 6643 H 619.887 2.53353 3.19806 0
M  V30 6644 H 618.562 3.38293 2.41931 0
M  V30 6645 H 617.139 1.76802 3.28322 0
M  V30 6646 N 619.324 -0.923095 1.27737 0
M  V30 6647 C 620.234 -2.05765 1.12685 0
M  V30 6648 C 621.25 -1.73911 0.0557197 0
M  V30 6649 O 622.426 -1.99674 0.263137 0
M  V30 6650 C 619.491 -3.37804 0.780363 0
M  V30 6651 C 618.552 -3.83326 1.93286 0
M  V30 6652 C 617.785 -5.09064 1.60281 0
M  V30 6653 O 618.008 -5.6809 0.512828 0
M  V30 6654 O 616.942 -5.50071 2.44347 0
M  V30 6655 H 620.768 -2.21378 2.07907 0
M  V30 6656 H 618.353 -1.04299 1.06968 0
M  V30 6657 H 620.235 -4.17097 0.600668 0
M  V30 6658 H 618.91 -3.23387 -0.142291 0
M  V30 6659 H 617.817 -3.049 2.16764 0
M  V30 6660 H 619.15 -4.02292 2.83588 0
M  V30 6661 N 620.802 -1.09834 -1.13024 0
M  V30 6662 C 621.734 -0.699379 -2.18269 0
M  V30 6663 C 622.747 0.260841 -1.60697 0
M  V30 6664 O 623.936 0.0462538 -1.7844 0
M  V30 6665 C 621.036 -0.0104537 -3.38898 0
M  V30 6666 C 620.209 -0.993275 -4.25973 0
M  V30 6667 C 619.268 -0.336982 -5.2512 0
M  V30 6668 O 618.294 -0.985892 -5.60597 0
M  V30 6669 N 619.496 0.90716 -5.73368 0
M  V30 6670 H 622.261 -1.60486 -2.5311 0
M  V30 6671 H 619.822 -0.986337 -1.28386 0
M  V30 6672 H 621.814 0.43991 -4.02302 0
M  V30 6673 H 620.384 0.797335 -3.0226 0
M  V30 6674 H 619.604 -1.62208 -3.5928 0
M  V30 6675 H 620.892 -1.65876 -4.81002 0
M  V30 6676 H 620.29 1.45384 -5.46699 0
M  V30 6677 H 618.847 1.30077 -6.38689 0
M  V30 6678 N 622.28 1.30327 -0.886154 0
M  V30 6679 C 623.557 1.90922 -0.425217 0
M  V30 6680 C 623.937 1.80533 1.09413 0
M  V30 6681 O 623.285 1.2233 1.92996 0
M  V30 6682 C 623.495 3.36529 -0.924638 0
M  V30 6683 C 624.843 4.13598 -0.960305 0
M  V30 6684 O 625.867 3.45377 -0.871382 0
M  V30 6685 O 624.726 5.35482 -1.09184 0
M  V30 6686 H 621.82 0.81668 -0.130238 0
M  V30 6687 H 624.366 1.38886 -0.975132 0
M  V30 6688 H 623.138 3.38181 -1.96849 0
M  V30 6689 H 622.761 3.96021 -0.353955 0
M  V30 6690 N 623.758 0.647228 1.43697 0
M  V30 6691 C 624.705 -0.0480092 2.3075 0
M  V30 6692 C 625.675 -0.820705 1.44408 0
M  V30 6693 O 626.86 -0.798515 1.73287 0
M  V30 6694 C 624 -1.01259 3.2991 0
M  V30 6695 C 623.113 -0.236629 4.31351 0
M  V30 6696 C 622.248 -1.19447 5.17596 0
M  V30 6697 C 621.287 -0.408595 6.10735 0
M  V30 6698 N 620.424 -1.31772 6.89623 0
M  V30 6699 H 625.264 0.700238 2.89656 0
M  V30 6700 H 622.801 0.357082 1.427 0
M  V30 6701 H 624.759 -1.58538 3.85903 0
M  V30 6702 H 623.389 -1.72778 2.72667 0
M  V30 6703 H 622.441 0.452353 3.77701 0
M  V30 6704 H 623.753 0.374731 4.9739 0
M  V30 6705 H 622.907 -1.83809 5.78186 0
M  V30 6706 H 621.646 -1.83975 4.51669 0
M  V30 6707 H 620.651 0.24841 5.49239 0
M  V30 6708 H 621.876 0.232188 6.78703 0
M  V30 6709 H 619.822 -1.94991 6.2635 0
M  V30 6710 H 619.739 -0.760779 7.52162 0
M  V30 6711 H 621.007 -1.94967 7.54724 0
M  V30 6712 N 625.236 -1.5273 0.388769 0
M  V30 6713 C 626.513 -1.93981 -0.251133 0
M  V30 6714 C 626.893 -1.32418 -1.64404 0
M  V30 6715 O 626.241 -0.492074 -2.23139 0
M  V30 6716 C 626.451 -3.47891 -0.27802 0
M  V30 6717 C 627.799 -4.21559 -0.507229 0
M  V30 6718 O 628.823 -3.54394 -0.358252 0
M  V30 6719 O 627.682 -5.40626 -0.799094 0
M  V30 6720 H 624.776 -0.812157 -0.15598 0
M  V30 6721 H 627.322 -1.63809 0.443237 0
M  V30 6722 H 626.094 -3.8503 0.697669 0
M  V30 6723 H 625.717 -3.84364 -1.01733 0
M  V30 6724 N 626.714 -0.118576 -1.57153 0
M  V30 6725 C 627.662 0.849114 -2.16547 0
M  V30 6726 C 628.656 1.27567 -1.11458 0
M  V30 6727 O 629.862 1.24746 -1.29763 0
M  V30 6728 H 626.237 0.291935 -0.693021 0
M  V30 6729 H 628.208 0.323693 -2.96639 0
M  V30 6730 C 626.957 2.08951 -2.77912 0
M  V30 6731 H 626.28 1.77021 -3.58474 0
M  V30 6732 H 627.72 2.74666 -3.23008 0
M  V30 6733 C 626.179 2.87899 -1.74974 0
M  V30 6734 O 626.709 3.83268 -1.20285 0
M  V30 6735 N 624.915 2.51884 -1.44924 0
M  V30 6736 H 624.462 1.74397 -1.89587 0
M  V30 6737 H 624.42 3.05003 -0.762921 0
M  V30 6738 N 628.193 1.56834 0.155195 0
M  V30 6739 C 629.439 1.84058 0.865687 0
M  V30 6740 C 629.794 0.701418 1.79159 0
M  V30 6741 O 629.087 -0.301162 1.89218 0
M  V30 6742 C 629.281 3.15239 1.68402 0
M  V30 6743 C 629.11 4.41807 0.838847 0
M  V30 6744 C 627.88 5.02744 0.507645 0
M  V30 6745 C 630.078 5.14009 0.172946 0
M  V30 6746 N 628.06 6.1289 -0.351978 0
M  V30 6747 C 629.431 6.17581 -0.547158 0
M  V30 6748 C 631.486 4.97814 0.0927721 0
M  V30 6749 C 630.189 7.06711 -1.33985 0
M  V30 6750 C 632.215 5.874 -0.686638 0
M  V30 6751 C 631.577 6.90447 -1.39505 0
M  V30 6752 H 627.676 0.724276 0.294871 0
M  V30 6753 H 630.26 1.94255 0.131583 0
M  V30 6754 H 628.431 3.06205 2.38942 0
M  V30 6755 H 630.163 3.304 2.33705 0
M  V30 6756 H 626.918 4.66064 0.841517 0
M  V30 6757 H 627.342 6.72577 -0.772573 0
M  V30 6758 H 631.984 4.18138 0.626112 0
M  V30 6759 H 629.702 7.8582 -1.88448 0
M  V30 6760 H 633.288 5.76938 -0.750555 0
M  V30 6761 H 632.168 7.58571 -1.98847 0
M  V30 6762 N 629.671 -0.424282 1.51781 0
M  V30 6763 C 630.619 -1.53649 1.74628 0
M  V30 6764 C 631.613 -1.57923 0.612922 0
M  V30 6765 O 632.819 -1.61511 0.794618 0
M  V30 6766 H 629.194 -0.510706 0.551981 0
M  V30 6767 H 631.165 -1.31558 2.67834 0
M  V30 6768 C 629.914 -2.91177 1.9003 0
M  V30 6769 H 629.237 -2.88625 2.76651 0
M  V30 6770 H 630.677 -3.6833 2.10021 0
M  V30 6771 C 629.136 -3.30303 0.663435 0
M  V30 6772 O 629.666 -4.01315 -0.175812 0
M  V30 6773 N 627.872 -2.86201 0.503723 0
M  V30 6774 H 627.419 -2.28583 1.18776 0
M  V30 6775 H 627.377 -3.12741 -0.322575 0
M  V30 6776 N 631.149 -1.42148 -0.680565 0
M  V30 6777 C 632.397 -1.42029 -1.43779 0
M  V30 6778 C 632.718 -0.0356347 -1.94967 0
M  V30 6779 O 631.988 0.924936 -1.7269 0
M  V30 6780 H 630.568 -0.522835 -0.533529 0
M  V30 6781 H 633.23 -1.7752 -0.804538 0
M  V30 6782 H 632.326 -2.11658 -2.29363 0
M  V30 6783 N 632.627 0.916307 -1.28225 0
M  V30 6784 C 633.559 2.02303 -1.07732 0
M  V30 6785 C 634.572 1.62773 -0.0298421 0
M  V30 6786 O 635.761 1.76406 -0.272626 0
M  V30 6787 C 632.861 3.33282 -0.614504 0
M  V30 6788 C 632.034 4.01439 -1.73682 0
M  V30 6789 C 631.093 5.10698 -1.26781 0
M  V30 6790 O 630.119 5.34038 -1.96958 0
M  V30 6791 N 631.321 5.80355 -0.129624 0
M  V30 6792 H 634.086 2.20442 -2.03041 0
M  V30 6793 H 631.647 1.08744 -1.19943 0
M  V30 6794 H 633.639 4.03699 -0.284397 0
M  V30 6795 H 632.209 3.11633 0.245664 0
M  V30 6796 H 631.429 3.24604 -2.23665 0
M  V30 6797 H 632.717 4.43721 -2.48976 0
M  V30 6798 H 632.115 5.6386 0.455847 0
M  V30 6799 H 630.672 6.51647 0.141224 0
M  V30 6800 N 634.105 1.10431 1.1244 0
M  V30 6801 C 635.035 0.775143 2.20258 0
M  V30 6802 C 636.016 -0.25186 1.68225 0
M  V30 6803 O 637.201 -0.117637 1.93843 0
M  V30 6804 C 634.331 0.206133 3.46688 0
M  V30 6805 C 633.285 1.16382 4.11873 0
M  V30 6806 C 632.611 0.456014 5.32752 0
M  V30 6807 C 633.911 2.5104 4.58013 0
M  V30 6808 H 635.605 1.67665 2.4805 0
M  V30 6809 H 633.151 0.807595 1.19222 0
M  V30 6810 H 635.104 -0.036291 4.21384 0
M  V30 6811 H 633.828 -0.730614 3.18323 0
M  V30 6812 H 632.487 1.39169 3.39157 0
M  V30 6813 H 632.135 -0.485203 5.00654 0
M  V30 6814 H 631.835 1.09466 5.77314 0
M  V30 6815 H 633.359 0.222135 6.10196 0
M  V30 6816 H 634.773 2.32401 5.24083 0
M  V30 6817 H 633.17 3.10789 5.13352 0
M  V30 6818 H 634.24 3.11039 3.71998 0
M  V30 6819 N 635.583 -1.29855 0.893053 0
M  V30 6820 C 636.53 -2.27909 0.364161 0
M  V30 6821 C 637.5 -1.56726 -0.550093 0
M  V30 6822 O 638.685 -1.84747 -0.47677 0
M  V30 6823 C 635.825 -3.42678 -0.408178 0
M  V30 6824 C 634.938 -4.28659 0.536212 0
M  V30 6825 C 634.073 -5.30599 -0.252521 0
M  V30 6826 C 633.112 -6.08234 0.686822 0
M  V30 6827 N 632.249 -7.02068 -0.0670902 0
M  V30 6828 H 637.089 -2.72531 1.20544 0
M  V30 6829 H 634.626 -1.34047 0.605779 0
M  V30 6830 H 636.584 -4.07986 -0.871962 0
M  V30 6831 H 635.214 -2.99103 -1.21397 0
M  V30 6832 H 634.266 -3.63584 1.1185 0
M  V30 6833 H 635.578 -4.8274 1.25552 0
M  V30 6834 H 634.732 -6.01694 -0.777801 0
M  V30 6835 H 633.471 -4.77233 -1.005 0
M  V30 6836 H 632.476 -5.3601 1.22366 0
M  V30 6837 H 633.701 -6.63689 1.43852 0
M  V30 6838 H 631.647 -6.5108 -0.801955 0
M  V30 6839 H 631.564 -7.53675 0.59243 0
M  V30 6840 H 632.832 -7.77392 -0.572851 0
M  V30 6841 N 637.061 -0.65484 -1.43351 0
M  V30 6842 C 637.991 0.0221809 -2.33489 0
M  V30 6843 C 638.972 0.810272 -1.49561 0
M  V30 6844 O 640.157 0.771426 -1.78221 0
M  V30 6845 C 637.287 0.988117 -3.32947 0
M  V30 6846 C 636.241 0.310026 -4.26876 0
M  V30 6847 C 635.567 1.38752 -5.16384 0
M  V30 6848 C 636.867 -0.798589 -5.16159 0
M  V30 6849 H 638.561 -0.730571 -2.9035 0
M  V30 6850 H 636.107 -0.352773 -1.39612 0
M  V30 6851 H 638.06 1.47067 -3.94904 0
M  V30 6852 H 636.784 1.77205 -2.74346 0
M  V30 6853 H 635.443 -0.152097 -3.66284 0
M  V30 6854 H 635.091 2.16293 -4.54121 0
M  V30 6855 H 634.791 0.939051 -5.80048 0
M  V30 6856 H 636.315 1.87141 -5.81215 0
M  V30 6857 H 637.729 -0.398126 -5.71916 0
M  V30 6858 H 636.126 -1.17163 -5.88552 0
M  V30 6859 H 637.196 -1.65588 -4.55751 0
M  V30 6860 N 638.539 1.52521 -0.396863 0
M  V30 6861 C 639.469 2.29582 0.425941 0
M  V30 6862 C 640.45 1.33281 1.05689 0
M  V30 6863 O 641.635 1.62181 1.06823 0
M  V30 6864 C 638.765 3.10821 1.54943 0
M  V30 6865 C 637.719 4.15069 1.04413 0
M  V30 6866 C 637.045 4.84578 2.26028 0
M  V30 6867 C 638.345 5.22191 0.106767 0
M  V30 6868 H 640.039 2.98612 -0.217045 0
M  V30 6869 H 637.585 1.43611 -0.105826 0
M  V30 6870 H 639.538 3.63492 2.13193 0
M  V30 6871 H 638.262 2.39538 2.22011 0
M  V30 6872 H 636.921 3.63389 0.484118 0
M  V30 6873 H 636.569 4.09835 2.91623 0
M  V30 6874 H 636.269 5.55043 1.92876 0
M  V30 6875 H 637.793 5.40056 2.84906 0
M  V30 6876 H 639.207 5.70176 0.597685 0
M  V30 6877 H 637.604 5.99947 -0.135352 0
M  V30 6878 H 638.674 4.77531 -0.842134 0
M  V30 6879 N 640.017 0.126909 1.57088 0
M  V30 6880 C 640.947 -0.816847 2.18746 0
M  V30 6881 C 641.928 -1.27161 1.12979 0
M  V30 6882 O 643.113 -1.33279 1.41246 0
M  V30 6883 C 640.243 -2.06398 2.79315 0
M  V30 6884 C 639.197 -1.74673 3.90735 0
M  V30 6885 C 638.523 -3.06482 4.38147 0
M  V30 6886 C 639.823 -1.0089 5.12463 0
M  V30 6887 H 641.517 -0.303032 2.97863 0
M  V30 6888 H 639.063 -0.144314 1.43275 0
M  V30 6889 H 641.016 -2.72885 3.2111 0
M  V30 6890 H 639.74 -2.60118 1.975 0
M  V30 6891 H 638.399 -1.10572 3.49527 0
M  V30 6892 H 638.047 -3.58152 3.5318 0
M  V30 6893 H 637.747 -2.86025 5.13287 0
M  V30 6894 H 639.271 -3.74073 4.82599 0
M  V30 6895 H 640.685 -1.57546 5.51228 0
M  V30 6896 H 639.082 -0.905006 5.93237 0
M  V30 6897 H 640.152 0.00297335 4.849 0
M  V30 6898 N 641.495 -1.56914 -0.146875 0
M  V30 6899 C 642.405 -2.0154 -1.20079 0
M  V30 6900 C 643.421 -0.930838 -1.47008 0
M  V30 6901 O 644.597 -1.24032 -1.58676 0
M  V30 6902 C 641.662 -2.38715 -2.51428 0
M  V30 6903 C 640.723 -3.6112 -2.32145 0
M  V30 6904 C 639.956 -3.96512 -3.57231 0
M  V30 6905 O 640.179 -3.32566 -4.63418 0
M  V30 6906 O 639.113 -4.89758 -3.49887 0
M  V30 6907 H 642.939 -2.91506 -0.851924 0
M  V30 6908 H 640.524 -1.45106 -0.355607 0
M  V30 6909 H 642.406 -2.63485 -3.28867 0
M  V30 6910 H 641.081 -1.51903 -2.85845 0
M  V30 6911 H 639.988 -3.41536 -1.52656 0
M  V30 6912 H 641.321 -4.48549 -2.02644 0
M  V30 6913 N 642.974 0.416227 -1.52004 0
M  V30 6914 C 644.22 1.16233 -1.66917 0
M  V30 6915 C 644.575 1.8839 -0.390763 0
M  V30 6916 O 643.868 1.81479 0.614478 0
M  V30 6917 C 644.062 2.18923 -2.82502 0
M  V30 6918 C 643.891 1.56849 -4.2146 0
M  V30 6919 C 642.661 1.34426 -4.87091 0
M  V30 6920 C 644.859 1.03322 -5.03815 0
M  V30 6921 N 642.841 0.681703 -6.10103 0
M  V30 6922 C 644.212 0.497165 -6.18003 0
M  V30 6923 C 646.267 0.926997 -4.89194 0
M  V30 6924 C 644.97 -0.134687 -7.19174 0
M  V30 6925 C 646.996 0.309009 -5.90592 0
M  V30 6926 C 646.358 -0.216399 -7.04068 0
M  V30 6927 H 642.457 0.412252 -0.664509 0
M  V30 6928 H 645.041 0.455758 -1.89291 0
M  V30 6929 H 643.212 2.86946 -2.61756 0
M  V30 6930 H 644.944 2.85844 -2.86488 0
M  V30 6931 H 641.699 1.61183 -4.45328 0
M  V30 6932 H 642.123 0.367256 -6.76003 0
M  V30 6933 H 646.765 1.31904 -4.01698 0
M  V30 6934 H 644.483 -0.538811 -8.06302 0
M  V30 6935 H 648.069 0.228438 -5.81351 0
M  V30 6936 H 646.949 -0.687064 -7.81184 0
M  V30 6937 N 644.452 1.42507 0.673017 0
M  V30 6938 C 645.4 1.46362 1.80779 0
M  V30 6939 C 646.394 0.339166 1.6597 0
M  V30 6940 O 647.6 0.512262 1.72557 0
M  V30 6941 H 643.975 0.458433 0.596107 0
M  V30 6942 H 645.946 2.41953 1.74646 0
M  V30 6943 C 644.695 1.38462 3.18941 0
M  V30 6944 H 644.018 2.24283 3.30964 0
M  V30 6945 H 645.458 1.45221 3.98355 0
M  V30 6946 C 643.917 0.0996354 3.36753 0
M  V30 6947 O 644.447 -0.846894 3.92671 0
M  V30 6948 N 642.653 0.016211 2.90595 0
M  V30 6949 H 642.2 0.78725 2.45276 0
M  V30 6950 H 642.158 -0.84291 3.0289 0
M  V30 6951 N 645.93 -0.909495 1.28709 0
M  V30 6952 C 646.862 -2.01729 1.08804 0
M  V30 6953 C 647.875 -1.62755 0.0384739 0
M  V30 6954 O 649.064 -1.76259 0.281977 0
M  V30 6955 C 646.164 -3.32952 0.63217 0
M  V30 6956 C 645.337 -4.00512 1.75809 0
M  V30 6957 C 644.396 -5.10019 1.29488 0
M  V30 6958 O 643.422 -5.32986 1.99787 0
M  V30 6959 N 644.624 -5.80278 0.1604 0
M  V30 6960 H 647.389 -2.19362 2.04207 0
M  V30 6961 H 644.95 -1.08106 1.20518 0
M  V30 6962 H 646.942 -4.03543 0.305802 0
M  V30 6963 H 645.512 -3.11759 -0.229134 0
M  V30 6964 H 644.732 -3.23413 2.25383 0
M  V30 6965 H 646.02 -4.42395 2.51325 0
M  V30 6966 H 645.418 -5.64094 -0.425937 0
M  V30 6967 H 643.975 -6.51713 -0.106663 0
M  V30 6968 N 647.408 -1.11026 -1.11852 0
M  V30 6969 C 648.338 -0.786812 -2.19844 0
M  V30 6970 C 649.319 0.242935 -1.68356 0
M  V30 6971 O 650.504 0.107355 -1.93903 0
M  V30 6972 C 647.634 -0.224516 -3.46574 0
M  V30 6973 C 646.588 -1.18564 -4.1125 0
M  V30 6974 C 645.914 -0.484261 -5.32503 0
M  V30 6975 C 647.214 -2.53465 -4.56676 0
M  V30 6976 H 648.908 -1.68978 -2.47158 0
M  V30 6977 H 646.454 -0.813906 -1.18792 0
M  V30 6978 H 648.407 0.0139435 -4.21398 0
M  V30 6979 H 647.131 0.713722 -3.18706 0
M  V30 6980 H 645.79 -1.40966 -3.38414 0
M  V30 6981 H 645.438 0.458646 -5.00905 0
M  V30 6982 H 645.138 -1.12526 -5.76725 0
M  V30 6983 H 646.662 -0.254492 -6.10069 0
M  V30 6984 H 648.076 -2.35177 -5.22843 0
M  V30 6985 H 646.473 -3.13507 -5.11697 0
M  V30 6986 H 647.543 -3.13008 -3.70343 0
M  V30 6987 N 648.886 1.2938 -0.899927 0
M  V30 6988 C 650.163 1.9046 -0.445443 0
M  V30 6989 C 650.543 1.81683 1.07492 0
M  V30 6990 O 649.891 1.24371 1.91688 0
M  V30 6991 C 650.101 3.35529 -0.960279 0
M  V30 6992 C 651.449 4.12556 -1.00412 0
M  V30 6993 O 652.473 3.44434 -0.907965 0
M  V30 6994 O 651.332 5.34294 -1.14857 0
M  V30 6995 H 648.426 0.815253 -0.138893 0
M  V30 6996 H 650.972 1.37844 -0.989808 0
M  V30 6997 H 649.744 3.36074 -2.00425 0
M  V30 6998 H 649.367 3.95624 -0.395939 0
M  V30 6999 N 650.364 0.662433 1.43002 0
M  V30 7000 C 651.294 -0.00979809 2.33498 0
M  V30 7001 C 652.275 -0.802329 1.49989 0
M  V30 7002 O 653.46 -0.761964 1.78627 0
M  V30 7003 C 650.59 -0.970446 3.33466 0
M  V30 7004 C 649.544 -0.287383 4.27034 0
M  V30 7005 C 648.87 -1.36012 5.17112 0
M  V30 7006 C 650.17 0.82595 5.15728 0
M  V30 7007 H 651.864 0.745959 2.89958 0
M  V30 7008 H 649.41 0.360172 1.39423 0
M  V30 7009 H 651.363 -1.44971 3.95679 0
M  V30 7010 H 650.087 -1.75748 2.75282 0
M  V30 7011 H 648.746 0.17152 3.66199 0
M  V30 7012 H 648.394 -2.13882 4.55262 0
M  V30 7013 H 648.094 -0.908276 5.80538 0
M  V30 7014 H 649.618 -1.84056 5.82199 0
M  V30 7015 H 651.032 0.42845 5.71697 0
M  V30 7016 H 649.429 1.20282 5.87922 0
M  V30 7017 H 650.499 1.68003 4.54866 0
M  V30 7018 N 651.842 -1.52309 0.404946 0
M  V30 7019 C 652.805 -2.25491 -0.410651 0
M  V30 7020 C 653.805 -1.27704 -0.977154 0
M  V30 7021 O 654.995 -1.51679 -0.856691 0
M  V30 7022 C 652.127 -3.02197 -1.57765 0
M  V30 7023 H 653.32 -2.99015 0.230277 0
M  V30 7024 H 650.873 -1.55506 0.157377 0
M  V30 7025 H 651.608 -2.33013 -2.25556 0
M  V30 7026 H 651.393 -3.73987 -1.17797 0
M  V30 7027 H 652.883 -3.57719 -2.15469 0
M  V30 7028 N 653.32 -0.135238 -1.57019 0
M  V30 7029 C 654.268 0.826099 -2.17436 0
M  V30 7030 C 655.262 1.26378 -1.12805 0
M  V30 7031 O 656.468 1.23363 -1.31079 0
M  V30 7032 H 652.843 0.284568 -0.696078 0
M  V30 7033 H 654.814 0.292212 -2.96966 0
M  V30 7034 C 653.563 2.05991 -2.80112 0
M  V30 7035 H 652.886 1.73209 -3.60331 0
M  V30 7036 H 654.326 2.71225 -3.25903 0
M  V30 7037 C 652.785 2.86027 -1.78017 0
M  V30 7038 O 653.315 3.81971 -1.24344 0
M  V30 7039 N 651.521 2.50332 -1.47588 0
M  V30 7040 H 651.068 1.72377 -1.91426 0
M  V30 7041 H 651.026 3.04177 -0.795228 0
M  V30 7042 N 654.798 1.5699 0.138552 0
M  V30 7043 C 656.075 1.74741 0.87891 0
M  V30 7044 C 656.455 0.705522 1.98961 0
M  V30 7045 O 655.803 -0.274066 2.2685 0
M  V30 7046 C 656.013 3.1909 1.4136 0
M  V30 7047 C 657.361 3.81023 1.87368 0
M  V30 7048 O 658.385 3.22571 1.51084 0
M  V30 7049 O 657.244 4.83722 2.54312 0
M  V30 7050 H 654.338 0.714781 0.415953 0
M  V30 7051 H 656.884 1.69248 0.123817 0
M  V30 7052 H 655.656 3.86424 0.61579 0
M  V30 7053 H 655.279 3.29043 2.23196 0
M  V30 7054 N 656.276 -0.40816 1.52223 0
M  V30 7055 C 657.186 -1.52202 1.78526 0
M  V30 7056 C 658.202 -1.60546 0.670892 0
M  V30 7057 O 659.378 -1.77242 0.956404 0
M  V30 7058 C 656.443 -2.87928 1.93128 0
M  V30 7059 C 655.504 -2.89463 3.17033 0
M  V30 7060 C 654.737 -4.18715 3.30929 0
M  V30 7061 O 654.96 -5.12662 2.50067 0
M  V30 7062 O 653.894 -4.27125 4.24084 0
M  V30 7063 H 657.72 -1.32911 2.73072 0
M  V30 7064 H 655.305 -0.594112 1.37079 0
M  V30 7065 H 657.187 -3.68426 2.04549 0
M  V30 7066 H 655.862 -3.07285 1.01772 0
M  V30 7067 H 654.769 -2.07815 3.11069 0
M  V30 7068 H 656.102 -2.75055 4.08174 0
M  V30 7069 N 657.755 -1.42862 -0.66545 0
M  V30 7070 C 659.004 -1.43119 -1.42126 0
M  V30 7071 C 659.317 -0.0545297 -1.95524 0
M  V30 7072 O 660.523 0.0654747 -2.71421 0
M  V30 7073 C 658.979 -2.51797 -2.5715 0
M  V30 7074 C 658.587 -3.95514 -2.10411 0
M  V30 7075 C 660.331 -2.61233 -3.346 0
M  V30 7076 C 658.238 -4.95682 -3.22573 0
M  V30 7077 H 657.168 -0.532349 -0.533966 0
M  V30 7078 H 659.819 -1.68806 -0.719506 0
M  V30 7079 H 658.201 -2.19292 -3.29738 0
M  V30 7080 H 659.375 -4.3742 -1.44915 0
M  V30 7081 H 657.69 -3.90012 -1.45874 0
M  V30 7082 H 660.287 -3.33248 -4.18151 0
M  V30 7083 H 660.63 -1.65896 -3.81817 0
M  V30 7084 H 661.163 -2.9298 -2.69087 0
M  V30 7085 H 657.902 -5.92529 -2.80338 0
M  V30 7086 H 657.422 -4.58399 -3.86821 0
M  V30 7087 H 659.101 -5.17828 -3.87896 0
M  V30 7088 N 659.233 0.902656 -1.29189 0
M  V30 7089 C 660.48 1.65287 -1.16989 0
M  V30 7090 C 660.808 1.92485 0.279232 0
M  V30 7091 O 660.063 1.53143 1.21843 0
M  V30 7092 C 660.362 3.011 -1.92545 0
M  V30 7093 C 660.028 2.93521 -3.42281 0
M  V30 7094 C 658.69 2.91161 -3.83117 0
M  V30 7095 C 661.042 2.82947 -4.3771 0
M  V30 7096 C 658.37 2.76043 -5.17704 0
M  V30 7097 C 660.722 2.69368 -5.72384 0
M  V30 7098 C 659.386 2.65373 -6.12482 0
M  V30 7099 H 658.656 0.604828 -0.428094 0
M  V30 7100 H 661.303 1.05084 -1.60092 0
M  V30 7101 H 659.608 3.65153 -1.42024 0
M  V30 7102 H 661.305 3.58073 -1.80512 0
M  V30 7103 H 657.895 2.96158 -3.09819 0
M  V30 7104 H 662.079 2.83849 -4.07116 0
M  V30 7105 H 657.335 2.71352 -5.47885 0
M  V30 7106 H 661.509 2.60156 -6.45981 0
M  V30 7107 H 659.136 2.53415 -7.16718 0
M  V30 7108 N 660.711 1.11618 1.11262 0
M  V30 7109 C 661.939 0.888739 1.8684 0
M  V30 7110 C 662.354 -0.561558 1.80255 0
M  V30 7111 O 661.711 -1.38782 1.18515 0
M  V30 7112 C 661.762 1.34422 3.35579 0
M  V30 7113 O 661.483 2.73766 3.42029 0
M  V30 7114 C 662.984 1.15246 4.28058 0
M  V30 7115 H 660.204 0.318152 0.590779 0
M  V30 7116 H 662.748 1.48398 1.40707 0
M  V30 7117 H 660.903 0.79239 3.7921 0
M  V30 7118 H 661.317 2.9355 4.34659 0
M  V30 7119 H 662.791 1.52015 5.30656 0
M  V30 7120 H 663.268 0.0922007 4.39103 0
M  V30 7121 H 663.874 1.69136 3.90222 0
M  V30 7122 N 662.189 -1.289 0.906776 0
M  V30 7123 C 663.137 -2.29477 0.379873 0
M  V30 7124 C 664.131 -1.61068 -0.524747 0
M  V30 7125 O 665.337 -1.75344 -0.406765 0
M  V30 7126 H 661.712 -0.744742 0.10423 0
M  V30 7127 H 663.683 -2.71353 1.24137 0
M  V30 7128 C 662.432 -3.45713 -0.371154 0
M  V30 7129 H 661.755 -3.98551 0.315716 0
M  V30 7130 H 663.195 -4.18105 -0.704581 0
M  V30 7131 C 661.654 -2.9774 -1.57646 0
M  V30 7132 O 662.184 -2.99618 -2.67567 0
M  V30 7133 N 660.39 -2.53485 -1.42105 0
M  V30 7134 H 659.937 -2.52156 -0.526783 0
M  V30 7135 H 659.895 -2.21747 -2.22881 0
M  V30 7136 N 663.667 -0.670007 -1.42649 0
M  V30 7137 C 664.944 -0.119451 -1.95235 0
M  V30 7138 C 665.324 1.36461 -1.61064 0
M  V30 7139 O 664.672 2.09843 -0.904329 0
M  V30 7140 C 664.882 -0.383498 -3.46887 0
M  V30 7141 C 666.23 -0.297431 -4.23557 0
M  V30 7142 O 667.254 -0.31698 -3.54787 0
M  V30 7143 O 666.113 -0.235507 -5.45992 0
M  V30 7144 H 663.207 -8.85474e-05 -0.827 0
M  V30 7145 H 665.753 -0.744406 -1.52501 0
M  V30 7146 H 664.525 -1.41174 -3.64946 0
M  V30 7147 H 664.148 0.273702 -3.96657 0
M  V30 7148 N 665.145 1.52092 -0.413018 0
M  V30 7149 C 666.561 1.59471 -0.0640836 0
M  V30 7150 C 666.761 1.42562 1.42402 0
M  V30 7151 O 665.817 1.25453 2.19129 0
M  V30 7152 C 667.13 2.95392 -0.562474 0
M  V30 7153 C 668.678 3.08637 -0.520788 0
M  V30 7154 C 669.153 4.47044 -0.995752 0
M  V30 7155 N 670.644 4.53296 -0.952732 0
M  V30 7156 C 671.379 5.58669 -1.29138 0
M  V30 7157 N 670.875 6.71576 -1.70168 0
M  V30 7158 N 672.668 5.48898 -1.2111 0
M  V30 7159 H 664.819 1.6133 -1.38153 0
M  V30 7160 H 667.082 0.75916 -0.567785 0
M  V30 7161 H 666.788 3.13059 -1.60271 0
M  V30 7162 H 666.662 3.77191 0.0257875 0
M  V30 7163 H 669.049 2.90652 0.510412 0
M  V30 7164 H 669.13 2.28735 -1.14515 0
M  V30 7165 H 668.774 4.65773 -2.0253 0
M  V30 7166 H 668.704 5.25448 -0.348162 0
M  V30 7167 H 671.195 3.72248 -0.651119 0
M  V30 7168 H 671.508 7.47973 -1.9431 0
M  V30 7169 H 669.853 6.72847 -1.74075 0
M  V30 7170 H 673.044 4.59573 -0.889396 0
M  V30 7171 H 673.217 6.30912 -1.47833 0
M  V30 7172 N 666.623 0.143563 1.56945 0
M  V30 7173 C 668.039 -0.212877 1.58174 0
M  V30 7174 C 668.239 -1.64926 1.15766 0
M  V30 7175 O 667.295 -2.37535 0.856361 0
M  V30 7176 C 668.608 0.0427573 3.0067 0
M  V30 7177 C 670.156 -0.0212221 3.12993 0
M  V30 7178 C 670.631 0.207036 4.57532 0
M  V30 7179 N 672.122 0.153845 4.62944 0
M  V30 7180 C 672.857 0.305018 5.72588 0
M  V30 7181 N 672.353 0.513722 6.90893 0
M  V30 7182 N 674.146 0.242862 5.61575 0
M  V30 7183 H 666.297 1.08148 1.82805 0
M  V30 7184 H 668.56 0.427831 0.84597 0
M  V30 7185 H 668.266 1.03672 3.36073 0
M  V30 7186 H 668.14 -0.678195 3.71053 0
M  V30 7187 H 670.527 -1.00574 2.77433 0
M  V30 7188 H 670.608 0.732004 2.45103 0
M  V30 7189 H 670.252 1.18863 4.93795 0
M  V30 7190 H 670.182 -0.566473 5.23544 0
M  V30 7191 H 672.673 -0.00294866 3.779 0
M  V30 7192 H 672.986 0.619273 7.70315 0
M  V30 7193 H 671.331 0.550001 6.9282 0
M  V30 7194 H 674.522 0.0806015 4.68031 0
M  V30 7195 H 674.695 0.364112 6.46976 0
M  V30 7196 N 668.101 -1.57061 -0.130224 0
M  V30 7197 C 669.347 -1.85412 -0.836295 0
M  V30 7198 C 669.702 -0.729831 -1.7802 0
M  V30 7199 O 668.995 0.271021 -1.89673 0
M  V30 7200 C 669.189 -3.17878 -1.63365 0
M  V30 7201 C 669.018 -4.43086 -0.768453 0
M  V30 7202 C 667.788 -5.03488 -0.427598 0
M  V30 7203 C 669.986 -5.14219 -0.0911495 0
M  V30 7204 N 667.968 -6.12253 0.449439 0
M  V30 7205 C 669.339 -6.16632 0.645341 0
M  V30 7206 C 671.394 -4.97898 -0.0135625 0
M  V30 7207 C 670.097 -7.0449 1.45212 0
M  V30 7208 C 672.123 -5.86234 0.780001 0
M  V30 7209 C 671.485 -6.88141 1.50472 0
M  V30 7210 H 667.584 -0.728875 -0.283311 0
M  V30 7211 H 670.168 -1.9444 -0.100662 0
M  V30 7212 H 668.339 -3.09967 -2.3404 0
M  V30 7213 H 670.071 -3.34076 -2.28419 0
M  V30 7214 H 666.826 -4.67344 -0.767264 0
M  V30 7215 H 667.25 -6.71263 0.879476 0
M  V30 7216 H 671.892 -4.19082 -0.559511 0
M  V30 7217 H 669.61 -7.82722 2.00926 0
M  V30 7218 H 673.196 -5.75671 0.842246 0
M  V30 7219 H 672.076 -7.55311 2.1089 0
M  V30 7220 N 669.579 0.400081 -1.52437 0
M  V30 7221 C 670.489 1.51253 -1.79331 0
M  V30 7222 C 671.505 1.60188 -0.679396 0
M  V30 7223 O 672.681 1.76733 -0.965791 0
M  V30 7224 C 669.746 2.869 -1.94652 0
M  V30 7225 C 668.807 2.87777 -3.18564 0
M  V30 7226 C 668.04 4.16954 -3.33145 0
M  V30 7227 O 668.263 5.11329 -2.52783 0
M  V30 7228 O 667.197 4.2487 -4.26343 0
M  V30 7229 H 671.023 1.31461 -2.73773 0
M  V30 7230 H 668.608 0.586834 -1.37392 0
M  V30 7231 H 670.49 3.67336 -2.065 0
M  V30 7232 H 669.165 3.06741 -1.034 0
M  V30 7233 H 668.072 2.06162 -3.12167 0
M  V30 7234 H 669.405 2.72886 -4.09627 0
M  V30 7235 N 671.057 1.43213 0.657864 0
M  V30 7236 C 672.282 1.48227 1.45064 0
M  V30 7237 C 672.707 0.0999939 1.87834 0
M  V30 7238 O 672.065 -0.905269 1.57081 0
M  V30 7239 C 672.113 2.42931 2.6649 0
M  V30 7240 O 671.217 1.91237 3.6538 0
M  V30 7241 H 670.558 0.501551 0.435135 0
M  V30 7242 H 673.088 1.8808 0.805431 0
M  V30 7243 H 673.098 2.6008 3.1436 0
M  V30 7244 H 671.773 3.43348 2.34701 0
M  V30 7245 H 670.35 1.83726 3.24498 0
M  V30 7246 N 672.536 -0.895792 1.29666 0
M  V30 7247 C 673.499 -1.98189 1.15124 0
M  V30 7248 C 674.499 -1.60572 0.0855717 0
M  V30 7249 O 675.689 -1.70991 0.332826 0
M  V30 7250 C 672.821 -3.32289 0.761372 0
M  V30 7251 H 674.014 -2.12518 2.11603 0
M  V30 7252 H 671.567 -1.0808 1.12908 0
M  V30 7253 H 672.302 -3.23662 -0.203393 0
M  V30 7254 H 672.087 -3.60958 1.53139 0
M  V30 7255 H 673.577 -4.1198 0.682792 0
M  V30 7256 N 674.014 -1.12206 -1.10668 0
M  V30 7257 C 675.291 -0.787382 -1.79052 0
M  V30 7258 C 675.671 0.723267 -1.98323 0
M  V30 7259 O 675.019 1.6561 -1.57434 0
M  V30 7260 C 675.229 -1.55968 -3.1221 0
M  V30 7261 C 676.577 -1.74413 -3.87125 0
M  V30 7262 O 677.601 -1.5246 -3.21923 0
M  V30 7263 O 676.46 -2.10952 -5.04144 0
M  V30 7264 H 673.554 -0.286137 -0.775922 0
M  V30 7265 H 676.1 -1.22595 -1.1734 0
M  V30 7266 H 674.872 -2.58692 -2.93588 0
M  V30 7267 H 674.495 -1.1152 -3.8164 0
M  V30 7268 N 675.492 1.28418 -0.913599 0
M  V30 7269 C 676.422 2.29713 -0.418847 0
M  V30 7270 C 677.403 1.62165 0.513469 0
M  V30 7271 O 678.588 1.89576 0.421235 0
M  V30 7272 C 675.718 3.45612 0.342042 0
M  V30 7273 C 674.672 4.25056 -0.501123 0
M  V30 7274 C 673.998 5.3329 0.388097 0
M  V30 7275 C 675.298 4.91814 -1.75831 0
M  V30 7276 H 676.992 2.71346 -1.26538 0
M  V30 7277 H 674.538 1.30446 -0.609903 0
M  V30 7278 H 676.491 4.15562 0.699 0
M  V30 7279 H 675.215 3.02858 1.22248 0
M  V30 7280 H 673.874 3.56833 -0.840598 0
M  V30 7281 H 673.522 4.8678 1.26707 0
M  V30 7282 H 673.222 5.87347 -0.172459 0
M  V30 7283 H 674.746 6.06088 0.74094 0
M  V30 7284 H 676.16 5.54126 -1.47026 0
M  V30 7285 H 674.557 5.55866 -2.26126 0
M  V30 7286 H 675.627 4.16313 -2.4862 0
M  V30 7287 N 676.97 0.677563 1.42291 0
M  V30 7288 C 677.902 -0.0380218 2.29168 0
M  V30 7289 C 678.915 -0.762714 1.43828 0
M  V30 7290 O 680.104 -0.616413 1.67519 0
M  V30 7291 C 677.204 -1.07761 3.21311 0
M  V30 7292 C 676.377 -0.42618 4.35319 0
M  V30 7293 C 675.436 -1.36592 5.08162 0
M  V30 7294 O 674.462 -0.865174 5.62586 0
M  V30 7295 N 675.664 -2.69909 5.13935 0
M  V30 7296 H 678.429 0.707766 2.91223 0
M  V30 7297 H 675.99 0.52219 1.53247 0
M  V30 7298 H 677.982 -1.70761 3.6691 0
M  V30 7299 H 676.552 -1.72511 2.60689 0
M  V30 7300 H 675.772 0.383385 3.92331 0
M  V30 7301 H 677.06 0.0275277 5.08793 0
M  V30 7302 H 676.458 -3.13129 4.71134 0
M  V30 7303 H 675.015 -3.2815 5.6317 0
M  V30 7304 N 678.448 -1.51871 0.421078 0
M  V30 7305 C 679.358 -2.31077 -0.405069 0
M  V30 7306 C 680.374 -1.39301 -1.04265 0
M  V30 7307 O 681.55 -1.72376 -1.04157 0
M  V30 7308 C 678.615 -3.12556 -1.50032 0
M  V30 7309 C 677.676 -4.20088 -0.884559 0
M  V30 7310 C 676.909 -4.97673 -1.92762 0
M  V30 7311 O 677.132 -4.75696 -3.14753 0
M  V30 7312 O 676.066 -5.82203 -1.52719 0
M  V30 7313 H 679.892 -3.02742 0.241086 0
M  V30 7314 H 677.477 -1.48263 0.183991 0
M  V30 7315 H 679.359 -3.6326 -2.13589 0
M  V30 7316 H 678.034 -2.43672 -2.13086 0
M  V30 7317 H 676.941 -3.73502 -0.211379 0
M  V30 7318 H 678.274 -4.91298 -0.297763 0
M  V30 7319 N 679.926 -0.151884 -1.56866 0
M  V30 7320 C 681.172 0.498742 -1.96572 0
M  V30 7321 C 681.505 1.64194 -1.03702 0
M  V30 7322 O 680.78 1.94334 -0.0803432 0
M  V30 7323 C 681.063 1.00027 -3.45929 0
M  V30 7324 C 680.916 -0.141767 -4.49577 0
M  V30 7325 C 682.235 1.88044 -3.97904 0
M  V30 7326 H 679.354 0.17982 -0.714726 0
M  V30 7327 H 681.996 -0.234097 -1.88552 0
M  V30 7328 H 680.146 1.62476 -3.52894 0
M  V30 7329 H 681.818 -0.778269 -4.54687 0
M  V30 7330 H 680.061 -0.80019 -4.26356 0
M  V30 7331 H 680.732 0.250947 -5.51429 0
M  V30 7332 H 683.208 1.35416 -3.93449 0
M  V30 7333 H 682.084 2.20043 -5.02864 0
M  V30 7334 H 682.345 2.81916 -3.40552 0
M  V30 7335 N 681.404 1.57128 0.121893 0
M  V30 7336 C 682.337 1.95327 1.17995 0
M  V30 7337 C 683.315 0.822524 1.40262 0
M  V30 7338 O 684.499 1.08044 1.54463 0
M  V30 7339 C 681.626 2.24699 2.53432 0
M  V30 7340 C 680.672 3.47263 2.4761 0
M  V30 7341 S 681.505 4.99951 1.91857 0
M  V30 7342 C 682.661 5.32473 3.28973 0
M  V30 7343 H 682.894 2.84765 0.854182 0
M  V30 7344 H 680.427 1.50864 0.328534 0
M  V30 7345 H 682.385 2.423 3.31362 0
M  V30 7346 H 681.046 1.3588 2.83188 0
M  V30 7347 H 680.239 3.65171 3.4737 0
M  V30 7348 H 679.841 3.29034 1.778 0
M  V30 7349 H 682.133 5.27478 4.25175 0
M  V30 7350 H 683.076 6.33732 3.15895 0
M  V30 7351 H 683.484 4.59952 3.27268 0
M  V30 7352 N 682.882 -0.391992 1.52647 0
M  V30 7353 C 684.129 -1.13732 1.67545 0
M  V30 7354 C 684.457 -1.90045 0.413881 0
M  V30 7355 O 683.712 -1.86157 -0.603646 0
M  V30 7356 C 684.011 -2.14401 2.85949 0
M  V30 7357 C 683.677 -1.54767 4.23507 0
M  V30 7358 C 682.339 -1.38229 4.60919 0
M  V30 7359 C 684.691 -1.11382 5.0916 0
M  V30 7360 C 682.019 -0.7685 5.81645 0
M  V30 7361 C 684.371 -0.514143 6.30507 0
M  V30 7362 C 683.035 -0.33604 6.66654 0
M  V30 7363 H 682.305 -0.416174 0.613091 0
M  V30 7364 H 684.952 -0.422327 1.86785 0
M  V30 7365 H 683.257 -2.92108 2.61114 0
M  V30 7366 H 684.954 -2.71974 2.94671 0
M  V30 7367 H 681.544 -1.68626 3.94035 0
M  V30 7368 H 685.728 -1.22962 4.80826 0
M  V30 7369 H 680.984 -0.618681 6.08262 0
M  V30 7370 H 685.158 -0.169657 6.96193 0
M  V30 7371 H 682.785 0.14166 7.60068 0
M  V30 7372 N 684.36 -1.4356 -0.65026 0
M  V30 7373 C 685.588 -1.48779 -1.43779 0
M  V30 7374 C 686.003 -0.106593 -1.88499 0
M  V30 7375 O 685.36 0.883766 -1.59674 0
M  V30 7376 C 685.411 -2.43618 -2.67081 0
M  V30 7377 O 685.132 -3.76367 -2.24231 0
M  V30 7378 C 686.633 -2.5811 -3.60409 0
M  V30 7379 H 683.853 -0.50521 -0.441593 0
M  V30 7380 H 686.397 -1.88332 -0.796941 0
M  V30 7381 H 684.552 -2.07253 -3.273 0
M  V30 7382 H 684.966 -4.27394 -3.0403 0
M  V30 7383 H 686.44 -3.28539 -4.43583 0
M  V30 7384 H 686.917 -1.627 -4.07953 0
M  V30 7385 H 687.523 -2.95298 -3.0607 0
M  V30 7386 N 685.838 0.888903 -1.30139 0
M  V30 7387 C 686.801 1.97576 -1.16174 0
M  V30 7388 C 687.801 1.60525 -0.094086 0
M  V30 7389 O 688.991 1.70812 -0.341889 0
M  V30 7390 C 686.123 3.3188 -0.778983 0
M  V30 7391 H 687.316 2.11393 -2.12728 0
M  V30 7392 H 684.869 1.0748 -1.1348 0
M  V30 7393 H 685.604 3.23765 0.186225 0
M  V30 7394 H 685.389 3.60141 -1.55051 0
M  V30 7395 H 686.879 4.11612 -0.704631 0
M  V30 7396 N 687.317 1.12792 1.10072 0
M  V30 7397 C 688.247 0.821688 2.18565 0
M  V30 7398 C 689.228 -0.21612 1.68721 0
M  V30 7399 O 690.413 -0.0764932 1.94049 0
M  V30 7400 C 687.543 0.279624 3.46172 0
M  V30 7401 C 686.497 1.25092 4.09312 0
M  V30 7402 C 685.823 0.568916 5.31665 0
M  V30 7403 C 687.123 2.60699 4.52585 0
M  V30 7404 H 688.817 1.72888 2.44438 0
M  V30 7405 H 686.363 0.832702 1.17482 0
M  V30 7406 H 688.316 0.053099 4.21367 0
M  V30 7407 H 687.04 -0.662929 3.19801 0
M  V30 7408 H 685.699 1.46332 3.36129 0
M  V30 7409 H 685.347 -0.378898 5.01571 0
M  V30 7410 H 685.047 1.21687 5.74862 0
M  V30 7411 H 686.571 0.351517 6.09587 0
M  V30 7412 H 687.985 2.43465 5.19035 0
M  V30 7413 H 686.382 3.21608 5.06644 0
M  V30 7414 H 687.452 3.1886 3.65317 0
M  V30 7415 N 688.795 -1.27931 0.920396 0
M  V30 7416 C 690.044 -1.93975 0.552867 0
M  V30 7417 C 690.357 -1.73193 -0.909035 0
M  V30 7418 O 691.563 -2.33515 -1.38502 0
M  V30 7419 C 690.019 -3.47463 0.937947 0
M  V30 7420 C 689.627 -3.77013 2.42003 0
M  V30 7421 C 691.371 -4.19628 0.64132 0
M  V30 7422 C 689.278 -5.23841 2.74489 0
M  V30 7423 H 688.208 -0.726146 0.203046 0
M  V30 7424 H 690.859 -1.45339 1.12022 0
M  V30 7425 H 689.241 -3.94867 0.299317 0
M  V30 7426 H 690.415 -3.40393 3.10595 0
M  V30 7427 H 688.73 -3.18035 2.6878 0
M  V30 7428 H 691.327 -5.27729 0.860622 0
M  V30 7429 H 691.67 -4.14164 -0.421168 0
M  V30 7430 H 692.203 -3.78022 1.23872 0
M  V30 7431 H 688.942 -5.34388 3.79618 0
M  V30 7432 H 688.462 -5.61634 2.1054 0
M  V30 7433 H 690.141 -5.91647 2.61845 0
M  V30 7434 N 690.273 -0.685099 -1.4193 0
M  V30 7435 C 691.22 -0.0131869 -2.30796 0
M  V30 7436 C 692.19 0.782129 -1.46533 0
M  V30 7437 O 693.375 0.75229 -1.75343 0
M  V30 7438 C 690.515 0.924768 -3.32479 0
M  V30 7439 C 689.628 0.122181 -4.31827 0
M  V30 7440 C 688.763 1.05682 -5.20581 0
M  V30 7441 C 687.802 0.246526 -6.11603 0
M  V30 7442 N 686.939 1.13442 -6.92875 0
M  V30 7443 H 691.779 -0.776789 -2.87698 0
M  V30 7444 H 689.316 -0.394791 -1.41703 0
M  V30 7445 H 691.274 1.48251 -3.89971 0
M  V30 7446 H 689.904 1.65488 -2.77152 0
M  V30 7447 H 688.956 -0.552335 -3.76369 0
M  V30 7448 H 690.268 -0.506473 -4.96222 0
M  V30 7449 H 689.422 1.68415 -5.82856 0
M  V30 7450 H 688.161 1.71935 -4.56388 0
M  V30 7451 H 687.166 -0.393944 -5.48387 0
M  V30 7452 H 688.391 -0.412053 -6.77849 0
M  V30 7453 H 686.337 1.78316 -6.313 0
M  V30 7454 H 686.254 0.561089 -7.53915 0
M  V30 7455 H 687.522 1.74889 -7.59628 0
M  V30 7456 N 691.751 1.51645 -0.429126 0
M  V30 7457 C 693.028 1.94579 0.199614 0
M  V30 7458 C 693.408 1.3673 1.60836 0
M  V30 7459 O 692.756 0.551062 2.21756 0
M  V30 7460 C 692.966 3.48506 0.185685 0
M  V30 7461 C 694.314 4.22756 0.395282 0
M  V30 7462 O 695.338 3.55219 0.264165 0
M  V30 7463 O 694.197 5.42555 0.655475 0
M  V30 7464 H 691.291 0.816007 0.134393 0
M  V30 7465 H 693.837 1.62577 -0.486513 0
M  V30 7466 H 692.609 3.83045 -0.799508 0
M  V30 7467 H 692.232 3.86927 0.91507 0
M  V30 7468 N 693.229 0.160201 1.56784 0
M  V30 7469 C 694.645 -0.196089 1.58391 0
M  V30 7470 C 694.845 -1.63689 1.17508 0
M  V30 7471 O 693.901 -2.36613 0.881506 0
M  V30 7472 C 695.214 0.0746449 3.00607 0
M  V30 7473 C 696.762 0.0119762 3.12998 0
M  V30 7474 C 697.237 0.255551 4.57286 0
M  V30 7475 N 698.728 0.202938 4.62755 0
M  V30 7476 C 699.463 0.365731 5.72232 0
M  V30 7477 N 698.959 0.586972 6.90309 0
M  V30 7478 N 700.752 0.302411 5.61286 0
M  V30 7479 H 692.903 1.1008 1.81648 0
M  V30 7480 H 695.166 0.436779 0.841384 0
M  V30 7481 H 694.872 1.07231 3.34954 0
M  V30 7482 H 694.746 -0.638802 3.71751 0
M  V30 7483 H 697.133 -0.976254 2.78484 0
M  V30 7484 H 697.214 0.75796 2.44313 0
M  V30 7485 H 696.858 1.24094 4.92507 0
M  V30 7486 H 696.788 -0.510912 5.24116 0
M  V30 7487 H 699.279 0.0371328 3.77882 0
M  V30 7488 H 699.592 0.700941 7.69615 0
M  V30 7489 H 697.937 0.623453 6.92198 0
M  V30 7490 H 701.128 0.130238 4.67919 0
M  V30 7491 H 701.301 0.432712 6.46554 0
M  V30 7492 N 694.707 -1.5719 -0.113559 0
M  V30 7493 C 696.118 -1.74259 -0.670116 0
M  V30 7494 C 696.469 -0.779694 -1.80042 0
M  V30 7495 O 695.594 0.0461353 -2.16351 0
M  V30 7496 C 696.189 -3.15981 -1.22236 0
M  V30 7497 C 694.748 -3.34537 -1.72516 0
M  V30 7498 C 693.895 -2.70116 -0.627098 0
M  V30 7499 H 696.846 -1.58301 0.112396 0
M  V30 7500 H 696.867 -3.17832 -2.09197 0
M  V30 7501 H 696.379 -3.86038 -0.39949 0
M  V30 7502 H 694.48 -2.6953 -2.57263 0
M  V30 7503 H 694.593 -4.42737 -1.83086 0
M  V30 7504 H 692.957 -2.31501 -1.06204 0
M  V30 7505 H 693.74 -3.42802 0.184889 0
M  V30 7506 N 696.185 0.383891 -1.52853 0
M  V30 7507 C 697.132 1.46924 -1.77995 0
M  V30 7508 C 698.102 1.53958 -0.623396 0
M  V30 7509 O 699.287 1.70134 -0.863657 0
M  V30 7510 C 696.427 2.84093 -1.95921 0
M  V30 7511 C 695.54 2.86171 -3.23621 0
M  V30 7512 C 694.675 4.14799 -3.31836 0
M  V30 7513 C 693.714 4.10948 -4.53639 0
M  V30 7514 N 692.851 5.31192 -4.59107 0
M  V30 7515 H 697.691 1.24786 -2.70615 0
M  V30 7516 H 695.228 0.605265 -1.34071 0
M  V30 7517 H 697.186 3.63755 -2.04299 0
M  V30 7518 H 695.816 3.04671 -1.06656 0
M  V30 7519 H 694.868 1.9885 -3.24288 0
M  V30 7520 H 696.18 2.79194 -4.13343 0
M  V30 7521 H 695.334 5.02867 -3.39425 0
M  V30 7522 H 694.073 4.24505 -2.40097 0
M  V30 7523 H 693.078 3.21268 -4.46169 0
M  V30 7524 H 694.303 4.0286 -5.467 0
M  V30 7525 H 692.249 5.41518 -3.70262 0
M  V30 7526 H 692.166 5.26311 -5.42708 0
M  V30 7527 H 693.434 6.21143 -4.70958 0
M  V30 7528 N 697.663 1.43903 0.642637 0
M  V30 7529 C 698.91 1.46079 1.40239 0
M  V30 7530 C 699.238 0.0890335 1.94296 0
M  V30 7531 O 698.493 -0.907533 1.73385 0
M  V30 7532 C 698.792 2.45907 2.59354 0
M  V30 7533 C 698.458 3.91522 2.23654 0
M  V30 7534 C 697.12 4.31179 2.1363 0
M  V30 7535 C 699.472 4.83242 1.95261 0
M  V30 7536 C 696.8 5.60495 1.73384 0
M  V30 7537 C 699.152 6.12933 1.56511 0
M  V30 7538 C 697.816 6.51556 1.4502 0
M  V30 7539 H 697.086 0.534542 0.513172 0
M  V30 7540 H 699.733 1.77047 0.72984 0
M  V30 7541 H 698.038 2.08381 3.3179 0
M  V30 7542 H 699.735 2.44842 3.17574 0
M  V30 7543 H 696.325 3.60142 2.32369 0
M  V30 7544 H 700.509 4.53367 2.0192 0
M  V30 7545 H 695.765 5.89249 1.63082 0
M  V30 7546 H 699.939 6.83469 1.33576 0
M  V30 7547 H 697.566 7.51663 1.13606 0
M  V30 7548 N 699.141 -0.881989 1.30609 0
M  V30 7549 C 700.387 -1.63647 1.19781 0
M  V30 7550 C 700.72 -1.92632 -0.246265 0
M  V30 7551 O 699.995 -1.54938 -1.17577 0
M  V30 7552 C 700.278 -2.97437 2.02985 0
M  V30 7553 C 700.131 -2.75406 3.55628 0
M  V30 7554 C 701.45 -3.98397 1.86997 0
M  V30 7555 H 698.569 -0.593841 0.436488 0
M  V30 7556 H 701.211 -1.02041 1.60273 0
M  V30 7557 H 699.361 -3.50018 1.68581 0
M  V30 7558 H 701.033 -2.2959 4.00107 0
M  V30 7559 H 699.276 -2.09856 3.79662 0
M  V30 7560 H 699.947 -3.70552 4.09139 0
M  V30 7561 H 702.423 -3.54986 2.17081 0
M  V30 7562 H 701.299 -4.89916 2.47536 0
M  V30 7563 H 701.56 -4.3424 0.829943 0
M  V30 7564 N 700.619 -1.13374 -1.09472 0
M  V30 7565 C 702.035 -0.871846 -1.33682 0
M  V30 7566 C 702.235 0.492847 -1.9538 0
M  V30 7567 O 701.291 1.23946 -2.19985 0
M  V30 7568 C 702.604 -1.99608 -2.24893 0
M  V30 7569 C 704.152 -2.02812 -2.38404 0
M  V30 7570 C 704.627 -3.14497 -3.3295 0
M  V30 7571 N 706.118 -3.14004 -3.40523 0
M  V30 7572 C 706.853 -3.97061 -4.13679 0
M  V30 7573 N 706.349 -4.90131 -4.89636 0
M  V30 7574 N 708.142 -3.85162 -4.09398 0
M  V30 7575 H 700.293 -2.01288 -0.677995 0
M  V30 7576 H 702.556 -0.876492 -0.361201 0
M  V30 7577 H 702.262 -2.98 -1.86786 0
M  V30 7578 H 702.136 -1.90981 -3.25278 0
M  V30 7579 H 704.523 -1.05034 -2.75775 0
M  V30 7580 H 704.604 -2.15511 -1.37799 0
M  V30 7581 H 704.248 -4.12514 -2.96302 0
M  V30 7582 H 704.178 -2.99035 -4.33458 0
M  V30 7583 H 706.669 -2.46587 -2.86362 0
M  V30 7584 H 706.982 -5.49996 -5.42885 0
M  V30 7585 H 705.327 -4.94138 -4.88726 0
M  V30 7586 H 708.518 -3.11779 -3.49158 0
M  V30 7587 H 708.691 -4.5012 -4.6615 0
M  V30 7588 N 702.098 1.27442 -0.927168 0
M  V30 7589 C 703.028 2.29256 -0.443188 0
M  V30 7590 C 704.009 1.62701 0.49624 0
M  V30 7591 O 705.194 1.90013 0.401105 0
M  V30 7592 C 702.324 3.45955 0.305366 0
M  V30 7593 C 701.278 4.24501 -0.546178 0
M  V30 7594 C 700.604 5.33671 0.331512 0
M  V30 7595 C 701.904 4.89921 -1.81037 0
M  V30 7596 H 703.598 2.69988 -1.29409 0
M  V30 7597 H 701.144 1.29792 -0.623705 0
M  V30 7598 H 703.097 4.1628 0.654885 0
M  V30 7599 H 701.821 3.04138 1.19029 0
M  V30 7600 H 700.48 3.55921 -0.878398 0
M  V30 7601 H 700.128 4.88096 1.21537 0
M  V30 7602 H 699.828 5.87131 -0.234746 0
M  V30 7603 H 701.352 6.0684 0.676614 0
M  V30 7604 H 702.766 5.52536 -1.52895 0
M  V30 7605 H 701.163 5.53436 -2.32009 0
M  V30 7606 H 702.233 4.13652 -2.53021 0
M  V30 7607 N 703.576 0.692616 1.41565 0
M  V30 7608 C 704.823 0.222335 2.01276 0
M  V30 7609 C 705.151 -1.17706 1.5484 0
M  V30 7610 O 704.406 -1.80795 0.749118 0
M  V30 7611 C 704.705 0.225073 3.56691 0
M  V30 7612 C 704.371 1.57158 4.22625 0
M  V30 7613 C 703.033 1.94022 4.40351 0
M  V30 7614 C 705.385 2.45758 4.59622 0
M  V30 7615 C 702.713 3.19076 4.92349 0
M  V30 7616 C 705.065 3.70141 5.13009 0
M  V30 7617 C 703.729 4.07152 5.28946 0
M  V30 7618 H 702.999 0.0813581 0.73652 0
M  V30 7619 H 705.646 0.891123 1.69503 0
M  V30 7620 H 703.951 -0.527259 3.88236 0
M  V30 7621 H 705.648 -0.156283 4.00695 0
M  V30 7622 H 702.238 1.27486 4.09201 0
M  V30 7623 H 706.422 2.18558 4.45585 0
M  V30 7624 H 701.678 3.4775 5.02872 0
M  V30 7625 H 705.852 4.38983 5.40617 0
M  V30 7626 H 703.479 5.04125 5.69001 0
M  V30 7627 N 705.054 -1.51416 0.437162 0
M  V30 7628 C 705.984 -2.30631 -0.364922 0
M  V30 7629 C 706.965 -1.36037 -1.02118 0
M  V30 7630 O 708.15 -1.64956 -1.02485 0
M  V30 7631 C 705.28 -3.1482 -1.46648 0
M  V30 7632 C 704.234 -4.17691 -0.933717 0
M  V30 7633 C 703.56 -4.904 -2.13101 0
M  V30 7634 C 704.86 -5.2229 0.0317201 0
M  V30 7635 H 706.554 -2.97932 0.29614 0
M  V30 7636 H 704.1 -1.4328 0.143865 0
M  V30 7637 H 706.053 -3.69017 -2.03481 0
M  V30 7638 H 704.777 -2.4534 -2.15583 0
M  V30 7639 H 703.436 -3.64545 -0.387602 0
M  V30 7640 H 703.084 -4.17423 -2.80654 0
M  V30 7641 H 702.784 -5.59962 -1.78092 0
M  V30 7642 H 704.308 -5.4742 -2.70487 0
M  V30 7643 H 705.722 -5.7156 -0.446302 0
M  V30 7644 H 704.119 -5.99378 0.29437 0
M  V30 7645 H 705.189 -4.75131 0.968447 0
M  V30 7646 N 706.532 -0.168513 -1.56696 0
M  V30 7647 C 707.442 0.775435 -2.21414 0
M  V30 7648 C 708.458 1.25529 -1.20492 0
M  V30 7649 O 709.634 1.30801 -1.53144 0
M  V30 7650 C 706.699 1.9886 -2.83999 0
M  V30 7651 C 705.76 1.5559 -4.00113 0
M  V30 7652 C 704.993 2.71124 -4.59704 0
M  V30 7653 O 705.216 3.87917 -4.18182 0
M  V30 7654 O 704.15 2.4536 -5.4962 0
M  V30 7655 H 707.976 0.254416 -3.02632 0
M  V30 7656 H 705.561 0.0595507 -1.49281 0
M  V30 7657 H 707.443 2.69816 -3.23693 0
M  V30 7658 H 706.118 2.49874 -2.05779 0
M  V30 7659 H 705.025 0.815924 -3.65094 0
M  V30 7660 H 706.358 1.09271 -4.79917 0
M  V30 7661 N 708.01 1.57248 0.105221 0
M  V30 7662 C 708.958 2.02337 1.14728 0
M  V30 7663 C 709.952 0.922652 1.42069 0
M  V30 7664 O 711.158 1.10785 1.41869 0
M  V30 7665 H 707.533 0.644682 0.387155 0
M  V30 7666 H 709.504 2.89063 0.740607 0
M  V30 7667 C 708.253 2.45513 2.46209 0
M  V30 7668 H 707.576 3.29785 2.26013 0
M  V30 7669 H 709.016 2.80846 3.1765 0
M  V30 7670 C 707.475 1.3243 3.09781 0
M  V30 7671 O 708.005 0.647841 3.96442 0
M  V30 7672 N 706.211 1.07785 2.69872 0
M  V30 7673 H 705.758 1.62973 1.99493 0
M  V30 7674 H 705.716 0.323204 3.12734 0
M  V30 7675 N 709.488 -0.375779 1.53054 0
M  V30 7676 C 710.736 -1.11727 1.68409 0
M  V30 7677 C 711.057 -1.90127 0.43323 0
M  V30 7678 O 710.327 -1.87945 -0.552595 0
M  V30 7679 H 708.907 -0.415451 0.620813 0
M  V30 7680 H 711.569 -0.424869 1.90213 0
M  V30 7681 H 710.665 -1.8128 2.54055 0
M  V30 7682 N 710.966 -1.44241 -0.634997 0
M  V30 7683 C 711.896 -1.53632 -1.7584 0
M  V30 7684 C 712.877 -0.389603 -1.65578 0
M  V30 7685 O 714.062 -0.609219 -1.84397 0
M  V30 7686 C 711.192 -1.47644 -3.14354 0
M  V30 7687 C 710.146 -2.60752 -3.394 0
M  V30 7688 C 709.472 -2.39817 -4.77904 0
M  V30 7689 C 710.772 -4.02921 -3.32343 0
M  V30 7690 H 712.466 -2.47662 -1.68238 0
M  V30 7691 H 710.012 -1.19197 -0.807969 0
M  V30 7692 H 711.965 -1.52815 -3.92716 0
M  V30 7693 H 710.689 -0.501284 -3.2273 0
M  V30 7694 H 709.348 -2.54965 -2.63417 0
M  V30 7695 H 708.996 -1.40502 -4.82978 0
M  V30 7696 H 708.696 -3.15649 -4.9562 0
M  V30 7697 H 710.22 -2.46799 -5.585 0
M  V30 7698 H 711.634 -4.10098 -4.00615 0
M  V30 7699 H 710.031 -4.78925 -3.61595 0
M  V30 7700 H 711.101 -4.26766 -2.30215 0
M  V30 7701 N 712.444 0.87505 -1.31075 0
M  V30 7702 C 713.392 2.00317 -1.18219 0
M  V30 7703 C 714.386 1.69152 -0.0916872 0
M  V30 7704 O 715.592 1.7821 -0.253229 0
M  V30 7705 H 711.967 0.656981 -0.365895 0
M  V30 7706 H 713.938 2.08293 -2.13674 0
M  V30 7707 C 712.687 3.35821 -0.901095 0
M  V30 7708 H 712.01 3.6032 -1.73233 0
M  V30 7709 H 713.45 4.15366 -0.851295 0
M  V30 7710 C 711.909 3.34563 0.396114 0
M  V30 7711 O 712.439 3.75971 1.41452 0
M  V30 7712 N 710.645 2.87681 0.410832 0
M  V30 7713 H 710.192 2.54179 -0.418415 0
M  V30 7714 H 710.15 2.87223 1.27869 0
M  V30 7715 N 713.922 1.13953 1.08869 0
M  V30 7716 C 714.852 0.844824 2.17681 0
M  V30 7717 C 715.833 -0.198213 1.68941 0
M  V30 7718 O 717.018 -0.0559073 1.9412 0
M  V30 7719 C 714.148 0.316325 3.45856 0
M  V30 7720 C 713.102 1.29426 4.07962 0
M  V30 7721 C 712.428 0.625275 5.31031 0
M  V30 7722 C 713.728 2.65484 4.49795 0
M  V30 7723 H 715.422 1.75471 2.42591 0
M  V30 7724 H 712.968 0.845116 1.16592 0
M  V30 7725 H 714.921 0.0977876 4.21287 0
M  V30 7726 H 713.645 -0.628972 3.20486 0
M  V30 7727 H 712.304 1.49889 3.34558 0
M  V30 7728 H 711.952 -0.325678 5.01945 0
M  V30 7729 H 711.652 1.27777 5.73539 0
M  V30 7730 H 713.176 0.416152 6.0918 0
M  V30 7731 H 714.59 2.48957 5.16424 0
M  V30 7732 H 712.987 3.26963 5.03205 0
M  V30 7733 H 714.057 3.22717 3.61914 0
M  V30 7734 N 715.4 -1.26948 0.933913 0
M  V30 7735 C 716.816 -1.46419 0.635103 0
M  V30 7736 C 717.016 -1.84336 -0.813785 0
M  V30 7737 O 716.072 -1.96061 -1.59111 0
M  V30 7738 C 717.385 -2.55206 1.5903 0
M  V30 7739 C 718.933 -2.69062 1.5992 0
M  V30 7740 C 719.408 -3.81013 2.54152 0
M  V30 7741 N 720.899 -3.88395 2.52395 0
M  V30 7742 C 721.634 -4.74454 3.21996 0
M  V30 7743 N 721.13 -5.64954 4.00997 0
M  V30 7744 N 722.923 -4.68237 3.10983 0
M  V30 7745 H 715.074 -1.00622 1.87053 0
M  V30 7746 H 717.337 -0.503189 0.803433 0
M  V30 7747 H 717.043 -2.34153 2.62422 0
M  V30 7748 H 716.917 -3.52719 1.33677 0
M  V30 7749 H 719.304 -2.89492 0.572569 0
M  V30 7750 H 719.385 -1.72016 1.89325 0
M  V30 7751 H 719.029 -3.61336 3.5693 0
M  V30 7752 H 718.959 -4.77499 2.22041 0
M  V30 7753 H 721.45 -3.23687 1.95025 0
M  V30 7754 H 721.763 -6.27496 4.51074 0
M  V30 7755 H 720.108 -5.6473 4.05099 0
M  V30 7756 H 723.299 -3.96535 2.48753 0
M  V30 7757 H 723.472 -5.35087 3.65494 0
M  V30 7758 N 716.879 -0.700114 -1.41195 0
M  V30 7759 C 717.826 -0.0376652 -2.30769 0
M  V30 7760 C 718.796 0.766544 -1.47354 0
M  V30 7761 O 719.981 0.73365 -1.76131 0
M  V30 7762 C 717.121 0.889452 -3.33441 0
M  V30 7763 C 716.234 0.076373 -4.31932 0
M  V30 7764 C 715.369 1.00155 -5.21673 0
M  V30 7765 C 714.408 0.181644 -6.1183 0
M  V30 7766 N 713.545 1.06087 -6.94039 0
M  V30 7767 H 718.385 -0.80726 -2.86858 0
M  V30 7768 H 715.922 -0.409798 -1.41277 0
M  V30 7769 H 717.88 1.44107 -3.91522 0
M  V30 7770 H 716.51 1.6254 -2.78892 0
M  V30 7771 H 715.562 -0.592223 -3.75762 0
M  V30 7772 H 716.874 -0.559076 -4.95657 0
M  V30 7773 H 716.028 1.62223 -5.8461 0
M  V30 7774 H 714.767 1.67085 -4.58186 0
M  V30 7775 H 713.772 -0.452085 -5.47938 0
M  V30 7776 H 714.997 -0.483925 -6.77374 0
M  V30 7777 H 712.943 1.7161 -6.33156 0
M  V30 7778 H 712.86 0.481094 -7.54468 0
M  V30 7779 H 714.128 1.66822 -7.6144 0
M  V30 7780 N 718.357 1.51182 -0.445186 0
M  V30 7781 C 719.604 2.02152 0.118645 0
M  V30 7782 C 719.932 1.32888 1.42025 0
M  V30 7783 O 719.187 0.435041 1.90803 0
M  V30 7784 C 719.486 3.55408 0.376797 0
M  V30 7785 C 719.152 4.43008 -0.839945 0
M  V30 7786 C 717.814 4.66669 -1.17361 0
M  V30 7787 C 720.166 4.9435 -1.65127 0
M  V30 7788 C 717.494 5.38919 -2.31913 0
M  V30 7789 C 719.846 5.67857 -2.78786 0
M  V30 7790 C 718.51 5.89779 -3.12597 0
M  V30 7791 H 717.78 0.739727 0.0434152 0
M  V30 7792 H 720.427 1.82055 -0.593984 0
M  V30 7793 H 718.732 3.73879 1.1714 0
M  V30 7794 H 720.429 3.92388 0.826602 0
M  V30 7795 H 717.019 4.24793 -0.569958 0
M  V30 7796 H 721.203 4.75947 -1.4067 0
M  V30 7797 H 716.459 5.54105 -2.58413 0
M  V30 7798 H 720.633 6.06628 -3.42017 0
M  V30 7799 H 718.26 6.45542 -4.01471 0
M  V30 7800 N 719.835 0.176821 1.56605 0
M  V30 7801 C 720.765 -0.746841 2.21234 0
M  V30 7802 C 721.746 -1.23502 1.16967 0
M  V30 7803 O 722.931 -1.28718 1.45414 0
M  V30 7804 C 720.061 -1.97407 2.8574 0
M  V30 7805 C 719.015 -1.62153 3.96094 0
M  V30 7806 C 718.341 -2.92387 4.47676 0
M  V30 7807 C 719.641 -0.845353 5.15413 0
M  V30 7808 H 721.335 -0.208116 2.98676 0
M  V30 7809 H 718.881 -0.0986594 1.43662 0
M  V30 7810 H 720.834 -2.62531 3.2963 0
M  V30 7811 H 719.558 -2.53703 2.05676 0
M  V30 7812 H 718.217 -0.993964 3.52868 0
M  V30 7813 H 717.865 -3.46734 3.64396 0
M  V30 7814 H 717.565 -2.69551 5.22127 0
M  V30 7815 H 719.089 -3.5853 4.94255 0
M  V30 7816 H 720.503 -1.39929 5.55961 0
M  V30 7817 H 718.9 -0.715814 5.95815 0
M  V30 7818 H 719.97 0.157239 4.84645 0
M  V30 7819 N 721.313 -1.57302 -0.09688 0
M  V30 7820 C 722.541 -1.90202 -0.814295 0
M  V30 7821 C 722.956 -0.770344 -1.72369 0
M  V30 7822 O 722.313 0.257764 -1.8067 0
M  V30 7823 C 722.364 -3.22708 -1.62916 0
M  V30 7824 O 722.085 -4.31522 -0.756343 0
M  V30 7825 C 723.586 -3.69459 -2.44979 0
M  V30 7826 H 720.806 -0.629275 -0.232925 0
M  V30 7827 H 723.35 -2.04364 -0.0746482 0
M  V30 7828 H 721.505 -3.1015 -2.32133 0
M  V30 7829 H 721.919 -5.07604 -1.32054 0
M  V30 7830 H 723.393 -4.64875 -2.9765 0
M  V30 7831 H 723.87 -2.97211 -3.23361 0
M  V30 7832 H 724.476 -3.84879 -1.80964 0
M  V30 7833 N 722.791 0.367657 -1.53252 0
M  V30 7834 C 723.741 1.45035 -1.75923 0
M  V30 7835 C 724.725 1.48736 -0.613719 0
M  V30 7836 O 725.917 1.54012 -0.872313 0
M  V30 7837 C 723.046 2.82493 -1.9507 0
M  V30 7838 C 722.132 2.83279 -3.15617 0
M  V30 7839 N 722.523 2.53712 -4.37566 0
M  V30 7840 C 720.821 3.1444 -3.16297 0
M  V30 7841 C 721.522 2.62123 -5.19294 0
M  V30 7842 N 720.498 2.96747 -4.55458 0
M  V30 7843 H 724.3 1.21035 -2.6782 0
M  V30 7844 H 721.814 0.575822 -1.51849 0
M  V30 7845 H 723.811 3.60473 -2.0944 0
M  V30 7846 H 722.471 3.07459 -1.044 0
M  V30 7847 H 723.482 2.27344 -4.65333 0
M  V30 7848 H 720.159 3.44733 -2.35511 0
M  V30 7849 H 721.549 2.42628 -6.26563 0
M  V30 7850 N 724.269 1.44576 0.627338 0
M  V30 7851 C 725.546 1.38033 1.38586 0
M  V30 7852 C 725.926 0.0409468 2.1106 0
M  V30 7853 O 725.274 -0.976582 2.0658 0
M  V30 7854 C 725.484 2.58102 2.34913 0
M  V30 7855 C 726.832 3.02332 2.98129 0
M  V30 7856 O 727.856 2.58334 2.45238 0
M  V30 7857 O 726.715 3.78628 3.94085 0
M  V30 7858 H 723.809 0.546801 0.620434 0
M  V30 7859 H 726.355 1.56672 0.652077 0
M  V30 7860 H 725.127 3.4719 1.80485 0
M  V30 7861 H 724.75 2.41696 3.15703 0
M  V30 7862 N 725.747 -0.868086 1.31537 0
M  V30 7863 C 726.993 -1.62367 1.2151 0
M  V30 7864 C 727.326 -1.92883 -0.225819 0
M  V30 7865 O 726.601 -1.56176 -1.15927 0
M  V30 7866 C 726.884 -2.95268 2.06129 0
M  V30 7867 C 726.737 -2.71619 3.58529 0
M  V30 7868 C 728.056 -3.96391 1.91212 0
M  V30 7869 H 725.175 -0.589178 0.442762 0
M  V30 7870 H 727.817 -1.00336 1.61347 0
M  V30 7871 H 725.967 -3.4821 1.72284 0
M  V30 7872 H 727.639 -2.25334 4.0252 0
M  V30 7873 H 725.882 -2.05817 3.81866 0
M  V30 7874 H 726.553 -3.66192 4.13047 0
M  V30 7875 H 729.029 -3.52663 2.20834 0
M  V30 7876 H 727.905 -4.87263 2.52718 0
M  V30 7877 H 728.166 -4.33335 0.875953 0
M  V30 7878 N 727.225 -1.14528 -1.08264 0
M  V30 7879 C 728.155 -0.856356 -2.1723 0
M  V30 7880 C 729.136 0.189251 -1.69044 0
M  V30 7881 O 730.321 0.0456119 -1.94146 0
M  V30 7882 C 727.451 -0.334662 -3.45684 0
M  V30 7883 C 726.405 -1.31588 -4.0727 0
M  V30 7884 C 725.731 -0.653428 -5.30692 0
M  V30 7885 C 727.031 -2.67866 -4.48381 0
M  V30 7886 H 728.725 -1.76755 -2.41657 0
M  V30 7887 H 726.271 -0.851287 -1.16143 0
M  V30 7888 H 728.224 -0.120128 -4.21229 0
M  V30 7889 H 726.948 0.611967 -3.20815 0
M  V30 7890 H 725.607 -1.51661 -3.33758 0
M  V30 7891 H 725.255 0.299054 -5.0211 0
M  V30 7892 H 724.955 -1.30817 -5.72853 0
M  V30 7893 H 726.479 -0.448453 -6.08951 0
M  V30 7894 H 727.893 -2.51692 -5.15096 0
M  V30 7895 H 726.29 -3.29627 -5.01464 0
M  V30 7896 H 727.36 -3.24632 -3.60198 0
M  V30 7897 N 728.703 1.26451 -0.940633 0
M  V30 7898 C 729.931 1.97868 -0.604642 0
M  V30 7899 C 730.346 1.70051 0.820251 0
M  V30 7900 O 729.703 0.96843 1.54686 0
M  V30 7901 C 729.754 3.51684 -0.836689 0
M  V30 7902 O 729.475 3.78533 -2.20554 0
M  V30 7903 C 730.976 4.40343 -0.511169 0
M  V30 7904 H 728.196 0.631105 -0.227919 0
M  V30 7905 H 730.74 1.60979 -1.26119 0
M  V30 7906 H 728.895 3.86736 -0.226759 0
M  V30 7907 H 729.309 4.73065 -2.26517 0
M  V30 7908 H 730.783 5.47229 -0.724157 0
M  V30 7909 H 731.26 4.35694 0.553815 0
M  V30 7910 H 731.866 4.10834 -1.0998 0
M  V30 7911 N 730.181 0.707592 1.40822 0
M  V30 7912 C 731.091 0.0507246 2.34545 0
M  V30 7913 C 732.107 -0.752727 1.56876 0
M  V30 7914 O 733.283 -0.687524 1.89302 0
M  V30 7915 C 730.348 -0.865731 3.35717 0
M  V30 7916 C 729.409 -0.0531313 4.29267 0
M  V30 7917 C 728.642 -0.925939 5.25606 0
M  V30 7918 O 728.865 -2.16531 5.27703 0
M  V30 7919 O 727.799 -0.369194 6.00767 0
M  V30 7920 H 731.625 0.823587 2.9232 0
M  V30 7921 H 729.21 0.46801 1.4188 0
M  V30 7922 H 731.092 -1.39091 3.97783 0
M  V30 7923 H 729.767 -1.61788 2.80368 0
M  V30 7924 H 728.674 0.516931 3.70511 0
M  V30 7925 H 730.007 0.660617 4.87747 0
M  V30 7926 N 731.66 -1.50943 0.453197 0
M  V30 7927 C 732.59 -2.31005 -0.34044 0
M  V30 7928 C 733.571 -1.37112 -1.00669 0
M  V30 7929 O 734.756 -1.66033 -1.0073 0
M  V30 7930 C 731.886 -3.16358 -1.433 0
M  V30 7931 C 730.84 -4.18658 -0.889363 0
M  V30 7932 C 730.166 -4.92633 -2.07887 0
M  V30 7933 C 731.466 -5.22227 0.0871142 0
M  V30 7934 H 733.16 -2.97601 0.327723 0
M  V30 7935 H 730.706 -1.43119 0.159054 0
M  V30 7936 H 732.659 -3.71155 -1.99555 0
M  V30 7937 H 731.383 -2.47613 -2.12968 0
M  V30 7938 H 730.042 -3.64936 -0.348915 0
M  V30 7939 H 729.69 -4.20376 -2.76211 0
M  V30 7940 H 729.39 -5.61819 -1.72143 0
M  V30 7941 H 730.914 -5.50258 -2.64666 0
M  V30 7942 H 732.328 -5.72001 -0.385656 0
M  V30 7943 H 730.725 -5.99032 0.357926 0
M  V30 7944 H 731.795 -4.74077 1.01879 0
M  V30 7945 N 733.138 -0.185124 -1.56509 0
M  V30 7946 C 734.385 0.456258 -1.97293 0
M  V30 7947 C 734.713 1.62314 -1.07165 0
M  V30 7948 O 733.968 1.95398 -0.108621 0
M  V30 7949 C 734.267 0.967977 -3.44042 0
M  V30 7950 C 733.933 -0.084476 -4.50821 0
M  V30 7951 C 732.595 -0.373689 -4.79747 0
M  V30 7952 C 734.947 -0.79812 -5.15053 0
M  V30 7953 C 732.275 -1.3817 -5.70198 0
M  V30 7954 C 734.627 -1.79521 -6.06593 0
M  V30 7955 C 733.291 -2.09172 -6.3388 0
M  V30 7956 H 732.561 0.166957 -0.721946 0
M  V30 7957 H 735.208 -0.279992 -1.89442 0
M  V30 7958 H 733.513 1.78231 -3.48914 0
M  V30 7959 H 735.21 1.47347 -3.72948 0
M  V30 7960 H 731.8 0.15111 -4.28334 0
M  V30 7961 H 735.984 -0.587903 -4.92806 0
M  V30 7962 H 731.24 -1.61745 -5.89617 0
M  V30 7963 H 735.414 -2.35347 -6.55427 0
M  V30 7964 H 733.041 -2.87427 -7.03768 0
M  V30 7965 N 734.616 1.57351 0.0885366 0
M  V30 7966 C 735.841 1.91011 0.80805 0
M  V30 7967 C 736.266 0.780009 1.71165 0
M  V30 7968 O 735.624 -0.268083 1.79307 0
M  V30 7969 C 735.672 3.23562 1.59185 0
M  V30 7970 O 734.776 3.11615 2.7013 0
M  V30 7971 H 734.117 0.625943 0.221565 0
M  V30 7972 H 736.647 2.04507 0.0617954 0
M  V30 7973 H 736.657 3.5703 1.97468 0
M  V30 7974 H 735.332 4.05398 0.928741 0
M  V30 7975 H 733.909 2.89673 2.34827 0
M  V30 7976 N 736.094 -0.359525 1.53444 0
M  V30 7977 C 737.042 -1.46104 1.80987 0
M  V30 7978 C 738.036 -1.55181 0.679351 0
M  V30 7979 O 739.242 -1.57995 0.862405 0
M  V30 7980 H 735.617 -0.486835 0.573145 0
M  V30 7981 H 737.588 -1.2008 2.73173 0
M  V30 7982 C 736.337 -2.82855 2.02208 0
M  V30 7983 H 735.66 -2.76631 2.88644 0
M  V30 7984 H 737.1 -3.59091 2.25455 0
M  V30 7985 C 735.559 -3.27192 0.802931 0
M  V30 7986 O 736.089 -4.017 -0.00544286 0
M  V30 7987 N 734.295 -2.83807 0.624657 0
M  V30 7988 H 733.842 -2.23339 1.28364 0
M  V30 7989 H 733.8 -3.13828 -0.189641 0
M  V30 7990 N 737.572 -1.44907 -0.619662 0
M  V30 7991 C 738.522 -1.49085 -1.72504 0
M  V30 7992 C 739.506 -0.355372 -1.56926 0
M  V30 7993 O 740.698 -0.601441 -1.66468 0
M  V30 7994 C 737.827 -1.44889 -3.11227 0
M  V30 7995 C 736.913 -2.63593 -3.32234 0
M  V30 7996 N 737.304 -3.88775 -3.23555 0
M  V30 7997 C 735.602 -2.59033 -3.63067 0
M  V30 7998 C 736.303 -4.67932 -3.45564 0
M  V30 7999 N 735.279 -3.9919 -3.68983 0
M  V30 8000 H 739.081 -2.43706 -1.6427 0
M  V30 8001 H 736.595 -1.4003 -0.82252 0
M  V30 8002 H 738.592 -1.45966 -3.90512 0
M  V30 8003 H 737.252 -0.513143 -3.2062 0
M  V30 8004 H 738.263 -4.20574 -3.02221 0
M  V30 8005 H 734.94 -1.7431 -3.79371 0
M  V30 8006 H 736.33 -5.76952 -3.44349 0
M  V30 8007 N 739.05 0.861098 -1.31996 0
M  V30 8008 C 740.297 1.61481 -1.22188 0
M  V30 8009 C 740.625 1.93276 0.217853 0
M  V30 8010 O 739.88 1.56942 1.16909 0
M  V30 8011 C 740.179 2.94822 -2.02027 0
M  V30 8012 C 739.845 2.82483 -3.51446 0
M  V30 8013 C 738.507 2.78825 -3.92186 0
M  V30 8014 C 740.859 2.68878 -4.46491 0
M  V30 8015 C 738.187 2.59433 -5.26224 0
M  V30 8016 C 740.539 2.51022 -5.80664 0
M  V30 8017 C 739.203 2.45753 -6.20614 0
M  V30 8018 H 738.473 0.590902 -0.447119 0
M  V30 8019 H 741.12 0.999376 -1.63355 0
M  V30 8020 H 739.425 3.6045 -1.53569 0
M  V30 8021 H 741.122 3.52149 -1.91812 0
M  V30 8022 H 737.712 2.86152 -3.19085 0
M  V30 8023 H 741.896 2.70754 -4.1594 0
M  V30 8024 H 737.152 2.53784 -5.5624 0
M  V30 8025 H 741.326 2.39473 -6.53931 0
M  V30 8026 H 738.953 2.30485 -7.24417 0
M  V30 8027 N 740.528 1.15101 1.07655 0
M  V30 8028 C 741.753 0.948177 1.84457 0
M  V30 8029 C 742.178 -0.498432 1.81376 0
M  V30 8030 O 741.536 -1.35509 1.20445 0
M  V30 8031 C 741.584 1.46318 3.29581 0
M  V30 8032 O 740.688 0.660342 4.07079 0
M  V30 8033 H 740.029 0.338428 0.571281 0
M  V30 8034 H 742.559 1.5301 1.35828 0
M  V30 8035 H 742.569 1.47468 3.80417 0
M  V30 8036 H 741.244 2.51635 3.31138 0
M  V30 8037 H 739.821 0.718216 3.65918 0
M  V30 8038 N 742.006 -1.2595 0.947325 0
M  V30 8039 C 743.234 -1.97544 0.615127 0
M  V30 8040 C 743.649 -1.70484 -0.811221 0
M  V30 8041 O 743.006 -0.97662 -1.5417 0
M  V30 8042 C 743.057 -3.51236 0.855328 0
M  V30 8043 O 742.778 -3.77359 2.22558 0
M  V30 8044 C 744.279 -4.40066 0.534515 0
M  V30 8045 H 741.499 -0.629888 0.231263 0
M  V30 8046 H 744.043 -1.60308 1.26971 0
M  V30 8047 H 742.198 -3.8661 0.247266 0
M  V30 8048 H 742.612 -4.71857 2.29022 0
M  V30 8049 H 744.086 -5.46838 0.753168 0
M  V30 8050 H 744.563 -4.35982 -0.530701 0
M  V30 8051 H 745.169 -4.10245 1.12158 0
M  V30 8052 N 743.484 -0.715051 -1.40445 0
M  V30 8053 C 744.414 -0.0768699 -2.33373 0
M  V30 8054 C 745.395 0.746109 -1.52863 0
M  V30 8055 O 746.58 0.695142 -1.81332 0
M  V30 8056 C 743.71 0.846014 -3.36838 0
M  V30 8057 C 742.664 0.128694 -4.27806 0
M  V30 8058 C 741.99 1.16726 -5.21804 0
M  V30 8059 C 743.29 -1.01679 -5.12307 0
M  V30 8060 H 744.984 -0.853061 -2.8699 0
M  V30 8061 H 742.53 -0.41167 -1.3799 0
M  V30 8062 H 744.483 1.30185 -4.00786 0
M  V30 8063 H 743.207 1.6541 -2.81615 0
M  V30 8064 H 741.866 -0.307314 -3.6531 0
M  V30 8065 H 741.514 1.96838 -4.62887 0
M  V30 8066 H 741.214 0.692188 -5.83509 0
M  V30 8067 H 742.738 1.62321 -5.88629 0
M  V30 8068 H 744.152 -0.640337 -5.69713 0
M  V30 8069 H 742.549 -1.4202 -5.83053 0
M  V30 8070 H 743.619 -1.84769 -4.48317 0
M  V30 8071 N 744.962 1.50701 -0.461195 0
M  V30 8072 C 746.208 2.02566 0.0973411 0
M  V30 8073 C 746.541 1.3432 1.40257 0
M  V30 8074 O 745.816 0.465692 1.88843 0
M  V30 8075 C 746.099 3.58919 0.291423 0
M  V30 8076 C 745.952 4.37751 -1.03413 0
M  V30 8077 C 747.271 4.27379 1.05048 0
M  V30 8078 H 744.39 0.73622 0.0339026 0
M  V30 8079 H 747.032 1.80115 -0.604855 0
M  V30 8080 H 745.182 3.78179 0.889539 0
M  V30 8081 H 746.854 4.30085 -1.66806 0
M  V30 8082 H 745.097 4.01885 -1.63313 0
M  V30 8083 H 745.768 5.45384 -0.852085 0
M  V30 8084 H 748.244 4.12534 0.543603 0
M  V30 8085 H 747.12 5.36609 1.15506 0
M  V30 8086 H 747.381 3.89868 2.0846 0
M  V30 8087 N 746.441 0.193421 1.56409 0
M  V30 8088 C 747.671 -0.450783 2.01622 0
M  V30 8089 C 748.079 -1.5585 1.07273 0
M  V30 8090 O 747.422 -1.83569 0.0694875 0
M  V30 8091 C 747.484 -1.06913 3.43235 0
M  V30 8092 C 747.148 -0.100352 4.5689 0
M  V30 8093 C 748.145 0.689633 5.15306 0
M  V30 8094 C 745.83 0.0102436 5.02299 0
M  V30 8095 C 747.824 1.5772 6.17579 0
M  V30 8096 C 745.511 0.901368 6.04416 0
M  V30 8097 C 746.509 1.68341 6.61929 0
M  V30 8098 O 746.197 2.5596 7.62063 0
M  V30 8099 H 745.929 -0.117671 0.66568 0
M  V30 8100 H 748.483 0.2989 2.03214 0
M  V30 8101 H 746.713 -1.86736 3.38624 0
M  V30 8102 H 748.402 -1.61781 3.72266 0
M  V30 8103 H 749.168 0.614485 4.81092 0
M  V30 8104 H 745.047 -0.58829 4.57231 0
M  V30 8105 H 748.591 2.18805 6.62397 0
M  V30 8106 H 744.488 0.977637 6.38054 0
M  V30 8107 H 745.256 2.49721 7.79475 0
M  V30 8108 N 747.919 -1.57396 -0.0801906 0
M  V30 8109 C 749.335 -1.53564 -0.434778 0
M  V30 8110 C 749.535 -0.912372 -1.79661 0
M  V30 8111 O 748.591 -0.511268 -2.4727 0
M  V30 8112 C 749.904 -2.98244 -0.383561 0
M  V30 8113 C 751.452 -3.09536 -0.46435 0
M  V30 8114 C 751.927 -4.55851 -0.443128 0
M  V30 8115 N 753.418 -4.60456 -0.503448 0
M  V30 8116 C 754.153 -5.71135 -0.509106 0
M  V30 8117 N 753.649 -6.91203 -0.47008 0
M  V30 8118 N 755.442 -5.59353 -0.555035 0
M  V30 8119 H 747.593 -1.96281 0.811635 0
M  V30 8120 H 749.856 -0.898041 0.303689 0
M  V30 8121 H 749.562 -3.47369 0.550236 0
M  V30 8122 H 749.436 -3.57705 -1.19694 0
M  V30 8123 H 751.823 -2.6039 -1.38857 0
M  V30 8124 H 751.904 -2.53 0.377445 0
M  V30 8125 H 751.548 -5.05653 0.477207 0
M  V30 8126 H 751.478 -5.10242 -1.30234 0
M  V30 8127 H 753.969 -3.74048 -0.538199 0
M  V30 8128 H 754.282 -7.7132 -0.478091 0
M  V30 8129 H 752.627 -6.93625 -0.436897 0
M  V30 8130 H 755.818 -4.64453 -0.583158 0
M  V30 8131 H 755.991 -6.4561 -0.555976 0
M  V30 8132 N 749.397 0.351382 -1.53633 0
M  V30 8133 C 750.345 1.45142 -1.8176 0
M  V30 8134 C 751.339 1.54819 -0.687571 0
M  V30 8135 O 752.545 1.57536 -0.870772 0
M  V30 8136 H 748.92 0.483789 -0.575719 0
M  V30 8137 H 750.891 1.1863 -2.73806 0
M  V30 8138 C 749.64 2.81779 -2.03706 0
M  V30 8139 H 748.963 2.75097 -2.90107 0
M  V30 8140 H 750.403 3.5789 -2.27356 0
M  V30 8141 C 748.862 3.26762 -0.820271 0
M  V30 8142 O 749.392 4.01697 -0.0158603 0
M  V30 8143 N 747.598 2.83472 -0.639699 0
M  V30 8144 H 747.145 2.22655 -1.29547 0
M  V30 8145 H 747.103 3.13924 0.172995 0
M  V30 8146 N 750.875 1.45233 0.611969 0
M  V30 8147 C 751.805 1.5641 1.73373 0
M  V30 8148 C 752.786 0.415896 1.64937 0
M  V30 8149 O 753.971 0.638478 1.83404 0
M  V30 8150 C 751.101 1.52627 3.11965 0
M  V30 8151 C 750.055 2.66119 3.35208 0
M  V30 8152 C 749.381 2.4739 4.74028 0
M  V30 8153 C 750.681 4.08157 3.25891 0
M  V30 8154 H 752.375 2.50307 1.64277 0
M  V30 8155 H 749.921 1.20467 0.788904 0
M  V30 8156 H 751.874 1.59043 3.90235 0
M  V30 8157 H 750.598 0.552564 3.21892 0
M  V30 8158 H 749.257 2.59123 2.59327 0
M  V30 8159 H 748.905 1.48168 4.80682 0
M  V30 8160 H 748.605 3.23494 4.90536 0
M  V30 8161 H 750.129 2.55653 5.54503 0
M  V30 8162 H 751.543 4.1642 3.9404 0
M  V30 8163 H 749.94 4.84617 3.5393 0
M  V30 8164 H 751.01 4.30374 2.23397 0
M  V30 8165 N 752.353 -0.854086 1.3245 0
M  V30 8166 C 753.285 -1.96932 1.17262 0
M  V30 8167 C 754.298 -1.62445 0.107469 0
M  V30 8168 O 755.487 -1.74904 0.356481 0
M  V30 8169 C 752.587 -3.29971 0.772817 0
M  V30 8170 C 751.76 -3.92695 1.92638 0
M  V30 8171 C 750.819 -5.04068 1.51003 0
M  V30 8172 O 749.845 -5.24032 2.22213 0
M  V30 8173 N 751.047 -5.79076 0.406371 0
M  V30 8174 H 753.812 -2.10503 2.13327 0
M  V30 8175 H 751.373 -1.02897 1.24995 0
M  V30 8176 H 753.365 -4.01883 0.476684 0
M  V30 8177 H 751.935 -3.1245 -0.0967 0
M  V30 8178 H 751.155 -3.13563 2.38897 0
M  V30 8179 H 752.443 -4.31337 2.69863 0
M  V30 8180 H 751.841 -5.65393 -0.186302 0
M  V30 8181 H 750.398 -6.51579 0.169846 0
M  V30 8182 N 753.831 -1.1567 -1.07043 0
M  V30 8183 C 755.08 -0.928039 -1.79082 0
M  V30 8184 C 755.393 0.545968 -1.87826 0
M  V30 8185 O 756.599 0.892308 -2.56418 0
M  V30 8186 C 755.055 -1.61103 -3.21829 0
M  V30 8187 C 754.663 -3.12228 -3.21275 0
M  V30 8188 C 756.407 -1.46404 -3.98455 0
M  V30 8189 C 754.314 -3.733 -4.58695 0
M  V30 8190 H 753.244 -0.34357 -0.671175 0
M  V30 8191 H 755.895 -1.38718 -1.20123 0
M  V30 8192 H 754.277 -1.07958 -3.81 0
M  V30 8193 H 755.451 -3.72155 -2.71731 0
M  V30 8194 H 753.766 -3.26725 -2.58147 0
M  V30 8195 H 756.363 -1.8942 -5.00024 0
M  V30 8196 H 756.706 -0.41195 -4.14257 0
M  V30 8197 H 757.239 -1.96663 -3.45787 0
M  V30 8198 H 753.978 -4.78423 -4.48098 0
M  V30 8199 H 753.498 -3.18157 -5.08465 0
M  V30 8200 H 755.177 -3.7441 -5.27661 0
M  V30 8201 N 755.309 1.25446 -0.953992 0
M  V30 8202 C 756.272 2.24156 -0.478179 0
M  V30 8203 C 757.272 1.55278 0.417776 0
M  V30 8204 O 758.462 1.72866 0.215155 0
M  V30 8205 C 755.594 3.39495 0.309202 0
M  V30 8206 H 756.787 2.67764 -1.35064 0
M  V30 8207 H 754.34 1.37822 -0.737206 0
M  V30 8208 H 755.075 3.01307 1.19936 0
M  V30 8209 H 754.86 3.90679 -0.333562 0
M  V30 8210 H 756.35 4.12796 0.631594 0
M  V30 8211 N 756.787 0.722489 1.40064 0
M  V30 8212 C 757.734 0.0743738 2.3068 0
M  V30 8213 C 758.704 -0.743004 1.48555 0
M  V30 8214 O 759.889 -0.705536 1.77276 0
M  V30 8215 C 757.029 -0.836292 3.34814 0
M  V30 8216 C 756.142 -0.00764663 4.31999 0
M  V30 8217 C 755.277 -0.918428 5.232 0
M  V30 8218 C 754.316 -0.0842838 6.12042 0
M  V30 8219 N 753.453 -0.950316 6.95639 0
M  V30 8220 H 758.293 0.852794 2.85537 0
M  V30 8221 H 755.83 0.432222 1.40607 0
M  V30 8222 H 757.788 -1.3786 3.93765 0
M  V30 8223 H 756.418 -1.58082 2.81443 0
M  V30 8224 H 755.47 0.651928 3.74772 0
M  V30 8225 H 756.782 0.63786 4.94705 0
M  V30 8226 H 755.936 -1.52902 5.87116 0
M  V30 8227 H 754.675 -1.59774 4.60786 0
M  V30 8228 H 753.68 0.5392 5.4715 0
M  V30 8229 H 754.905 0.591628 6.76518 0
M  V30 8230 H 752.851 -1.61515 6.35806 0
M  V30 8231 H 752.768 -0.361004 7.55138 0
M  V30 8232 H 754.036 -1.54687 7.63997 0
M  V30 8233 N 758.265 -1.50454 0.469181 0
M  V30 8234 C 759.213 -2.30101 -0.340033 0
M  V30 8235 C 760.207 -1.37306 -0.992135 0
M  V30 8236 O 761.413 -1.54506 -0.923458 0
M  V30 8237 H 757.788 -0.740941 -0.128495 0
M  V30 8238 H 759.759 -2.96315 0.352144 0
M  V30 8239 C 758.508 -3.17804 -1.41052 0
M  V30 8240 H 757.831 -3.89115 -0.918124 0
M  V30 8241 H 759.271 -3.76533 -1.94934 0
M  V30 8242 C 757.73 -2.35272 -2.4114 0
M  V30 8243 O 758.26 -2.03448 -3.4637 0
M  V30 8244 N 756.466 -1.97889 -2.1281 0
M  V30 8245 H 756.013 -2.2397 -1.27261 0
M  V30 8246 H 755.971 -1.42971 -2.80012 0
M  V30 8247 N 759.743 -0.201713 -1.56304 0
M  V30 8248 C 760.968 0.443815 -2.02596 0
M  V30 8249 C 761.393 1.53945 -1.08086 0
M  V30 8250 O 760.751 1.81182 -0.0655056 0
M  V30 8251 C 760.799 0.971066 -3.47279 0
M  V30 8252 O 759.903 2.0836 -3.55893 0
M  V30 8253 H 759.244 0.10294 -0.655972 0
M  V30 8254 H 761.774 -0.314533 -2.02168 0
M  V30 8255 H 761.784 1.28598 -3.87204 0
M  V30 8256 H 760.459 0.169048 -4.15556 0
M  V30 8257 H 759.036 1.77683 -3.27846 0
M  V30 8258 N 761.222 1.57436 0.0718424 0
M  V30 8259 C 762.452 1.91196 0.782795 0
M  V30 8260 C 762.86 0.795927 1.71644 0
M  V30 8261 O 762.203 -0.239604 1.82131 0
M  V30 8262 C 762.265 3.20421 1.63005 0
M  V30 8263 C 761.929 4.48724 0.865782 0
M  V30 8264 C 762.926 5.19571 0.185051 0
M  V30 8265 C 760.611 4.95345 0.832971 0
M  V30 8266 C 762.605 6.3529 -0.518264 0
M  V30 8267 C 760.292 6.1097 0.125884 0
M  V30 8268 C 761.29 6.80794 -0.548533 0
M  V30 8269 O 760.978 7.94213 -1.24423 0
M  V30 8270 H 760.71 0.636486 0.227731 0
M  V30 8271 H 763.264 2.05348 0.0464187 0
M  V30 8272 H 761.494 3.02478 2.40923 0
M  V30 8273 H 763.183 3.39831 2.21968 0
M  V30 8274 H 763.949 4.8458 0.201707 0
M  V30 8275 H 759.828 4.40871 1.34737 0
M  V30 8276 H 763.372 6.89725 -1.04523 0
M  V30 8277 H 759.269 6.45411 0.107155 0
M  V30 8278 H 760.037 8.10331 -1.1535 0
M  V30 8279 N 762.7 -0.34323 1.53817 0
M  V30 8280 C 763.648 -1.44176 1.82527 0
M  V30 8281 C 764.642 -1.54452 0.695772 0
M  V30 8282 O 765.848 -1.57072 0.879114 0
M  V30 8283 H 762.223 -0.480729 0.578277 0
M  V30 8284 H 764.194 -1.17176 2.74431 0
M  V30 8285 C 762.943 -2.80695 2.05197 0
M  V30 8286 H 762.266 -2.73554 2.91561 0
M  V30 8287 H 763.706 -3.56679 2.29251 0
M  V30 8288 C 762.165 -3.26322 0.837589 0
M  V30 8289 O 762.695 -4.01683 0.0371631 0
M  V30 8290 N 760.901 -2.83128 0.654724 0
M  V30 8291 H 760.448 -2.21965 1.30725 0
M  V30 8292 H 760.406 -3.14011 -0.156345 0
M  V30 8293 N 764.178 -1.45556 -0.604258 0
M  V30 8294 C 765.455 -1.40221 -1.36373 0
M  V30 8295 C 765.835 -0.0745195 -2.10968 0
M  V30 8296 O 765.183 0.943594 -2.08107 0
M  V30 8297 C 765.393 -2.61807 -2.30777 0
M  V30 8298 C 766.741 -3.07037 -2.93281 0
M  V30 8299 O 767.765 -2.62203 -2.41097 0
M  V30 8300 O 766.624 -3.8485 -3.88011 0
M  V30 8301 H 763.718 -0.556602 -0.611656 0
M  V30 8302 H 766.264 -1.57689 -0.627069 0
M  V30 8303 H 765.036 -3.50017 -1.74939 0
M  V30 8304 H 764.659 -2.46688 -3.11818 0
M  V30 8305 N 765.656 0.84705 -1.32902 0
M  V30 8306 C 766.619 1.9378 -1.224 0
M  V30 8307 C 767.619 1.60144 -0.145108 0
M  V30 8308 O 768.809 1.69638 -0.396058 0
M  V30 8309 C 765.941 3.29234 -0.884174 0
M  V30 8310 H 767.134 2.04518 -2.19345 0
M  V30 8311 H 764.687 1.03816 -1.16842 0
M  V30 8312 H 765.422 3.24193 0.0831277 0
M  V30 8313 H 765.207 3.55026 -1.6643 0
M  V30 8314 H 766.697 4.09162 -0.835226 0
M  V30 8315 N 767.134 1.16236 1.06428 0
M  V30 8316 C 768.064 0.890807 2.1584 0
M  V30 8317 C 769.045 -0.162333 1.69324 0
M  V30 8318 O 770.23 -0.0147191 1.94194 0
M  V30 8319 C 767.36 0.389615 3.45108 0
M  V30 8320 C 766.314 1.38051 4.05125 0
M  V30 8321 C 765.64 0.737773 5.29586 0
M  V30 8322 C 766.94 2.74965 4.44062 0
M  V30 8323 H 768.634 1.80577 2.38814 0
M  V30 8324 H 766.18 0.869657 1.14774 0
M  V30 8325 H 768.133 0.187127 4.20984 0
M  V30 8326 H 766.857 -0.560851 3.21748 0
M  V30 8327 H 765.516 1.56952 3.31303 0
M  V30 8328 H 765.164 -0.219135 5.02522 0
M  V30 8329 H 764.864 1.39914 5.70699 0
M  V30 8330 H 766.388 0.545275 6.0816 0
M  V30 8331 H 767.802 2.59855 5.11027 0
M  V30 8332 H 766.199 3.37563 4.96156 0
M  V30 8333 H 767.269 3.30321 3.54987 0
M  V30 8334 N 768.612 -1.24939 0.960631 0
M  V30 8335 C 769.542 -2.28 0.503815 0
M  V30 8336 C 770.523 -1.63959 -0.452928 0
M  V30 8337 O 771.708 -1.91009 -0.350585 0
M  V30 8338 C 768.838 -3.46643 -0.213535 0
M  V30 8339 C 767.792 -4.22903 0.658535 0
M  V30 8340 C 767.118 -5.34363 -0.189902 0
M  V30 8341 C 768.418 -4.84949 1.93963 0
M  V30 8342 H 770.112 -2.66462 1.36521 0
M  V30 8343 H 767.658 -1.28093 0.657897 0
M  V30 8344 H 769.611 -4.1787 -0.544286 0
M  V30 8345 H 768.335 -3.07187 -1.10923 0
M  V30 8346 H 766.994 -3.53467 0.972455 0
M  V30 8347 H 766.642 -4.91147 -1.08553 0
M  V30 8348 H 766.342 -5.86302 0.390331 0
M  V30 8349 H 767.866 -6.0842 -0.515484 0
M  V30 8350 H 769.28 -5.48288 1.67491 0
M  V30 8351 H 767.677 -5.47091 2.46601 0
M  V30 8352 H 768.747 -4.06799 2.639 0
M  V30 8353 N 770.09 -0.729906 -1.39679 0
M  V30 8354 C 771.318 -0.285709 -2.04918 0
M  V30 8355 C 771.733 1.07765 -1.55023 0
M  V30 8356 O 771.09 1.67999 -0.712923 0
M  V30 8357 C 771.141 -0.272793 -3.60469 0
M  V30 8358 O 770.862 -1.58233 -4.08527 0
M  V30 8359 C 772.363 0.188199 -4.429 0
M  V30 8360 H 769.583 -0.125758 -0.65911 0
M  V30 8361 H 772.127 -0.992129 -1.78821 0
M  V30 8362 H 770.282 0.384699 -3.85485 0
M  V30 8363 H 770.696 -1.49245 -5.02818 0
M  V30 8364 H 772.17 0.14608 -5.51807 0
M  V30 8365 H 772.647 1.2326 -4.21549 0
M  V30 8366 H 773.253 -0.439541 -4.23023 0
M  V30 8367 N 771.568 1.50203 -0.477153 0
M  V30 8368 C 772.815 2.02358 0.0757385 0
M  V30 8369 C 773.143 1.3587 1.39174 0
M  V30 8370 O 772.398 0.475415 1.89838 0
M  V30 8371 C 772.697 3.56127 0.301325 0
M  V30 8372 C 772.363 4.41126 -0.933725 0
M  V30 8373 C 771.025 4.64075 -1.27233 0
M  V30 8374 C 773.377 4.90737 -1.75576 0
M  V30 8375 C 770.705 5.33878 -2.43292 0
M  V30 8376 C 773.057 5.61816 -2.90768 0
M  V30 8377 C 771.721 5.83016 -3.25036 0
M  V30 8378 H 770.991 0.740482 0.0277147 0
M  V30 8379 H 773.638 1.80754 -0.632467 0
M  V30 8380 H 771.943 3.76279 1.09183 0
M  V30 8381 H 773.64 3.94053 0.743184 0
M  V30 8382 H 770.23 4.23489 -0.659935 0
M  V30 8383 H 774.414 4.72856 -1.50734 0
M  V30 8384 H 769.67 5.48499 -2.70109 0
M  V30 8385 H 773.844 5.99237 -3.54807 0
M  V30 8386 H 771.471 6.36881 -4.15074 0
M  V30 8387 N 773.046 0.209999 1.56195 0
M  V30 8388 C 774.292 -0.425442 1.98287 0
M  V30 8389 C 774.625 -1.60232 1.09724 0
M  V30 8390 O 773.9 -1.93902 0.152414 0
M  V30 8391 C 774.183 -0.871189 3.49403 0
M  V30 8392 C 774.036 0.308527 4.48741 0
M  V30 8393 C 775.355 -1.73146 4.04609 0
M  V30 8394 H 772.474 -0.153169 0.720908 0
M  V30 8395 H 775.116 0.303916 1.87554 0
M  V30 8396 H 773.266 -1.49266 3.58681 0
M  V30 8397 H 774.938 0.946487 4.51486 0
M  V30 8398 H 773.181 0.957878 4.23092 0
M  V30 8399 H 773.852 -0.0461143 5.51981 0
M  V30 8400 H 776.328 -1.2072 3.98203 0
M  V30 8401 H 775.204 -2.01228 5.10684 0
M  V30 8402 H 775.465 -2.69083 3.5078 0
M  V30 8403 N 774.524 -1.57472 -0.0634922 0
M  V30 8404 C 775.77 -1.88792 -0.756903 0
M  V30 8405 C 776.125 -0.804679 -1.74765 0
M  V30 8406 O 775.418 0.19033 -1.90652 0
M  V30 8407 C 775.612 -3.24521 -1.49736 0
M  V30 8408 C 775.441 -4.45946 -0.579833 0
M  V30 8409 C 774.211 -5.04848 -0.213667 0
M  V30 8410 C 776.409 -5.14143 0.12703 0
M  V30 8411 N 774.391 -6.09795 0.708712 0
M  V30 8412 C 775.762 -6.1334 0.906295 0
M  V30 8413 C 777.817 -4.97508 0.197625 0
M  V30 8414 C 776.52 -6.97697 1.74961 0
M  V30 8415 C 778.546 -5.82398 1.02794 0
M  V30 8416 C 777.908 -6.81139 1.79523 0
M  V30 8417 H 774.007 -0.740235 -0.252142 0
M  V30 8418 H 776.591 -1.94692 -0.0181026 0
M  V30 8419 H 774.762 -3.19615 -2.20683 0
M  V30 8420 H 776.494 -3.43464 -2.14044 0
M  V30 8421 H 773.249 -4.70177 -0.568357 0
M  V30 8422 H 773.673 -6.66929 1.16339 0
M  V30 8423 H 778.315 -4.21077 -0.381261 0
M  V30 8424 H 776.033 -7.73496 2.33943 0
M  V30 8425 H 779.619 -5.71581 1.08565 0
M  V30 8426 H 778.499 -7.45687 2.42736 0
M  V30 8427 N 776.003 0.335068 -1.53997 0
M  V30 8428 C 776.95 1.41187 -1.82579 0
M  V30 8429 C 777.92 1.51897 -0.672061 0
M  V30 8430 O 779.105 1.673 -0.917346 0
M  V30 8431 C 776.245 2.77717 -2.0486 0
M  V30 8432 C 775.358 2.7573 -3.32561 0
M  V30 8433 C 774.493 4.04032 -3.44864 0
M  V30 8434 C 773.532 3.96308 -4.66483 0
M  V30 8435 N 772.669 5.16317 -4.75774 0
M  V30 8436 H 777.509 1.16113 -2.74448 0
M  V30 8437 H 775.046 0.562305 -1.35928 0
M  V30 8438 H 777.004 3.57071 -2.15768 0
M  V30 8439 H 775.634 3.01124 -1.16294 0
M  V30 8440 H 774.686 1.88432 -3.3045 0
M  V30 8441 H 775.998 2.65902 -4.22016 0
M  V30 8442 H 775.152 4.91814 -3.55251 0
M  V30 8443 H 773.891 4.16652 -2.53481 0
M  V30 8444 H 772.896 3.06911 -4.56164 0
M  V30 8445 H 774.121 3.85263 -5.5924 0
M  V30 8446 H 772.067 5.29464 -3.87303 0
M  V30 8447 H 771.984 5.08779 -5.59178 0
M  V30 8448 H 773.252 6.05846 -4.9048 0
M  V30 8449 N 777.481 1.45874 0.596531 0
M  V30 8450 C 778.411 1.5824 1.71705 0
M  V30 8451 C 779.392 0.433366 1.64487 0
M  V30 8452 O 780.577 0.657895 1.82717 0
M  V30 8453 C 777.707 1.55927 3.10329 0
M  V30 8454 C 776.661 2.69659 3.32367 0
M  V30 8455 C 775.987 2.52403 4.71377 0
M  V30 8456 C 777.287 4.11591 3.21544 0
M  V30 8457 H 778.981 2.52035 1.61613 0
M  V30 8458 H 776.527 1.21297 0.776082 0
M  V30 8459 H 778.48 1.63173 3.88526 0
M  V30 8460 H 777.204 0.586674 3.21288 0
M  V30 8461 H 775.863 2.61859 2.56564 0
M  V30 8462 H 775.511 1.53258 4.79083 0
M  V30 8463 H 775.211 3.28679 4.87077 0
M  V30 8464 H 776.735 2.6152 5.5176 0
M  V30 8465 H 778.149 4.20576 3.89601 0
M  V30 8466 H 776.546 4.88344 3.4877 0
M  V30 8467 H 777.616 4.32719 2.1882 0
M  V30 8468 N 778.959 -0.83999 1.33349 0
M  V30 8469 C 780.205 -1.59753 1.24927 0
M  V30 8470 C 780.538 -1.93318 -0.184855 0
M  V30 8471 O 779.813 -1.586 -1.12589 0
M  V30 8472 C 780.096 -2.90829 2.12345 0
M  V30 8473 C 779.949 -2.63953 3.6421 0
M  V30 8474 C 781.268 -3.92246 1.99577 0
M  V30 8475 H 778.387 -0.579654 0.45516 0
M  V30 8476 H 781.029 -0.968909 1.63439 0
M  V30 8477 H 779.179 -3.44478 1.79631 0
M  V30 8478 H 780.851 -2.16745 4.07209 0
M  V30 8479 H 779.094 -1.97671 3.86146 0
M  V30 8480 H 779.765 -3.57348 4.20721 0
M  V30 8481 H 782.241 -3.479 2.28265 0
M  V30 8482 H 781.117 -4.81793 2.62996 0
M  V30 8483 H 781.378 -4.3138 0.967673 0
M  V30 8484 N 780.437 -1.16799 -1.0581 0
M  V30 8485 C 781.4 -0.881396 -2.11575 0
M  V30 8486 C 782.4 0.12574 -1.60308 0
M  V30 8487 O 783.59 -0.105716 -1.73879 0
M  V30 8488 C 780.722 -0.319037 -3.39404 0
M  V30 8489 H 781.915 -1.81907 -2.38432 0
M  V30 8490 H 779.468 -0.977597 -1.21954 0
M  V30 8491 H 780.203 0.626082 -3.18199 0
M  V30 8492 H 779.988 -1.04481 -3.77923 0
M  V30 8493 H 781.478 -0.13663 -4.17376 0
M  V30 8494 N 781.915 1.24427 -0.967243 0
M  V30 8495 C 782.863 2.27403 -0.488927 0
M  V30 8496 C 783.857 1.63388 0.447302 0
M  V30 8497 O 785.063 1.77085 0.322643 0
M  V30 8498 H 781.438 0.738921 -0.139643 0
M  V30 8499 H 783.409 2.65122 -1.36942 0
M  V30 8500 C 782.158 3.4709 0.205787 0
M  V30 8501 H 781.481 3.96591 -0.50551 0
M  V30 8502 H 782.921 4.2099 0.504296 0
M  V30 8503 C 781.38 3.04923 1.43261 0
M  V30 8504 O 781.91 3.12043 2.52967 0
M  V30 8505 N 780.116 2.59976 1.29849 0
M  V30 8506 H 779.663 2.54382 0.405876 0
M  V30 8507 H 779.621 2.32128 2.12047 0
M  V30 8508 N 783.393 0.737304 1.3929 0
M  V30 8509 C 784.64 0.286257 2.00467 0
M  V30 8510 C 784.968 -1.1272 1.58507 0
M  V30 8511 O 784.223 -1.7832 0.806257 0
M  V30 8512 C 784.522 0.338438 3.55794 0
M  V30 8513 C 784.188 1.70524 4.17411 0
M  V30 8514 C 782.85 2.07934 4.33955 0
M  V30 8515 C 785.202 2.60256 4.51571 0
M  V30 8516 C 782.53 3.34578 4.81948 0
M  V30 8517 C 784.882 3.86275 5.00974 0
M  V30 8518 C 783.546 4.23774 5.15725 0
M  V30 8519 H 782.816 0.104749 0.733559 0
M  V30 8520 H 785.463 0.944598 1.66582 0
M  V30 8521 H 783.768 -0.403478 3.89717 0
M  V30 8522 H 785.465 -0.0287255 4.0099 0
M  V30 8523 H 782.055 1.40439 4.04938 0
M  V30 8524 H 786.239 2.32624 4.38406 0
M  V30 8525 H 781.495 3.63572 4.91554 0
M  V30 8526 H 785.669 4.5596 5.26378 0
M  V30 8527 H 783.296 5.21972 5.52674 0
M  V30 8528 N 784.871 -1.49948 0.485112 0
M  V30 8529 C 786.287 -1.58984 0.140096 0
M  V30 8530 C 786.487 -1.49194 -1.35438 0
M  V30 8531 O 785.543 -1.35765 -2.12894 0
M  V30 8532 C 786.856 -2.92372 0.702769 0
M  V30 8533 C 788.404 -3.05801 0.66745 0
M  V30 8534 C 788.879 -4.41785 1.20791 0
M  V30 8535 N 790.37 -4.48234 1.16792 0
M  V30 8536 C 791.105 -5.51871 1.55646 0
M  V30 8537 N 790.601 -6.62692 2.02016 0
M  V30 8538 N 792.394 -5.42494 1.47161 0
M  V30 8539 H 784.545 -1.54555 1.45693 0
M  V30 8540 H 786.808 -0.731206 0.603359 0
M  V30 8541 H 786.514 -3.05056 1.75025 0
M  V30 8542 H 786.388 -3.76885 0.154205 0
M  V30 8543 H 788.775 -2.92757 -0.371157 0
M  V30 8544 H 788.856 -2.23011 1.25298 0
M  V30 8545 H 788.5 -4.55579 2.24522 0
M  V30 8546 H 788.43 -5.23188 0.598464 0
M  V30 8547 H 790.921 -3.68718 0.827982 0
M  V30 8548 H 791.234 -7.3785 2.29775 0
M  V30 8549 H 789.579 -6.63775 2.05979 0
M  V30 8550 H 792.77 -4.54806 1.10765 0
M  V30 8551 H 792.943 -6.2314 1.77766 0
M  V30 8552 N 786.349 -0.21828 -1.56081 0
M  V30 8553 C 787.765 0.137168 -1.59009 0
M  V30 8554 C 787.965 1.59215 -1.23503 0
M  V30 8555 O 787.021 2.33178 -0.968716 0
M  V30 8556 C 788.334 -0.186162 -3.00123 0
M  V30 8557 C 789.882 -0.128135 -3.12738 0
M  V30 8558 C 790.357 -0.425094 -4.56023 0
M  V30 8559 N 791.848 -0.374547 -4.61683 0
M  V30 8560 C 792.583 -0.57786 -5.70481 0
M  V30 8561 N 792.079 -0.842771 -6.87655 0
M  V30 8562 N 793.872 -0.510521 -5.59777 0
M  V30 8563 H 786.023 -1.16746 -1.77437 0
M  V30 8564 H 788.286 -0.467706 -0.824594 0
M  V30 8565 H 787.992 -1.19589 -3.30744 0
M  V30 8566 H 787.866 0.500388 -3.73866 0
M  V30 8567 H 790.253 0.872224 -2.81915 0
M  V30 8568 H 790.334 -0.848112 -2.41331 0
M  V30 8569 H 789.978 -1.42288 -4.87562 0
M  V30 8570 H 789.908 0.316038 -5.25651 0
M  V30 8571 H 792.399 -0.177356 -3.77484 0
M  V30 8572 H 792.712 -0.986095 -7.66483 0
M  V30 8573 H 791.057 -0.879929 -6.89407 0
M  V30 8574 H 794.248 -0.303813 -4.67113 0
M  V30 8575 H 794.421 -0.672378 -6.44502 0
M  V30 8576 N 787.827 1.57504 0.0551401 0
M  V30 8577 C 789.075 1.87684 0.74962 0
M  V30 8578 C 789.396 0.812547 1.77264 0
M  V30 8579 O 788.666 -0.15694 1.9527 0
M  V30 8580 H 787.246 0.6926 0.279846 0
M  V30 8581 H 789.908 1.94881 0.0272745 0
M  V30 8582 H 789.004 2.85734 1.25548 0
M  V30 8583 N 789.305 -0.326896 1.54172 0
M  V30 8584 C 790.552 -1.06523 1.72218 0
M  V30 8585 C 790.88 -1.88119 0.494114 0
M  V30 8586 O 790.135 -1.8855 -0.524147 0
M  V30 8587 C 790.434 -2.0208 2.94785 0
M  V30 8588 C 790.1 -1.36665 4.2969 0
M  V30 8589 C 788.762 -1.18556 4.66367 0
M  V30 8590 C 791.114 -0.896868 5.13425 0
M  V30 8591 C 788.442 -0.521113 5.84381 0
M  V30 8592 C 790.794 -0.246261 6.3212 0
M  V30 8593 C 789.458 -0.052987 6.67479 0
M  V30 8594 H 788.728 -0.389796 0.63019 0
M  V30 8595 H 791.375 -0.342725 1.88408 0
M  V30 8596 H 789.68 -2.8077 2.73268 0
M  V30 8597 H 791.377 -2.59231 3.05941 0
M  V30 8598 H 787.967 -1.51762 4.00832 0
M  V30 8599 H 792.151 -1.02458 4.85609 0
M  V30 8600 H 787.407 -0.36014 6.10338 0
M  V30 8601 H 791.581 0.125775 6.96286 0
M  V30 8602 H 789.208 0.463903 7.58783 0
M  V30 8603 N 790.784 -1.46188 -0.588786 0
M  V30 8604 C 792.2 -1.31009 -0.911524 0
M  V30 8605 C 792.4 -0.277017 -1.99587 0
M  V30 8606 O 791.456 0.322532 -2.50432 0
M  V30 8607 C 792.769 -2.69459 -1.33463 0
M  V30 8608 C 794.317 -2.77502 -1.44782 0
M  V30 8609 C 794.792 -4.1652 -1.90461 0
M  V30 8610 N 796.283 -4.18907 -1.97665 0
M  V30 8611 C 797.018 -5.23359 -2.34271 0
M  V30 8612 N 796.514 -6.38143 -2.69714 0
M  V30 8613 N 798.307 -5.10723 -2.34774 0
M  V30 8614 H 790.458 -2.12016 0.127614 0
M  V30 8615 H 792.721 -0.947984 -0.00557599 0
M  V30 8616 H 792.427 -3.46336 -0.611929 0
M  V30 8617 H 792.301 -2.99165 -2.2974 0
M  V30 8618 H 794.688 -2.00917 -2.1614 0
M  V30 8619 H 794.769 -2.51488 -0.467724 0
M  V30 8620 H 794.413 -4.93597 -1.19684 0
M  V30 8621 H 794.343 -4.39937 -2.89418 0
M  V30 8622 H 796.834 -3.36084 -1.72789 0
M  V30 8623 H 797.147 -7.13624 -2.96582 0
M  V30 8624 H 795.492 -6.41514 -2.67366 0
M  V30 8625 H 798.683 -4.20088 -2.06503 0
M  V30 8626 H 798.856 -5.9224 -2.62975 0
M  V30 8627 N 792.262 0.832906 -1.33792 0
M  V30 8628 C 793.209 1.94314 -1.24541 0
M  V30 8629 C 794.179 1.65646 -0.122753 0
M  V30 8630 O 795.364 1.88394 -0.30204 0
M  V30 8631 C 792.504 3.30395 -0.996641 0
M  V30 8632 C 791.617 3.71422 -2.20612 0
M  V30 8633 C 790.752 4.96401 -1.89101 0
M  V30 8634 C 789.791 5.2998 -3.06247 0
M  V30 8635 N 788.928 6.46137 -2.74685 0
M  V30 8636 H 793.768 2.01559 -2.19495 0
M  V30 8637 H 791.305 0.986243 -1.09141 0
M  V30 8638 H 793.263 4.08803 -0.832817 0
M  V30 8639 H 791.893 3.22691 -0.0838242 0
M  V30 8640 H 790.945 2.88488 -2.47949 0
M  V30 8641 H 792.257 3.92215 -3.0817 0
M  V30 8642 H 791.411 5.82572 -1.69396 0
M  V30 8643 H 790.15 4.7759 -0.987882 0
M  V30 8644 H 789.155 4.42312 -3.26559 0
M  V30 8645 H 790.38 5.50737 -3.97323 0
M  V30 8646 H 788.326 6.28801 -1.86938 0
M  V30 8647 H 788.243 6.67054 -3.55774 0
M  V30 8648 H 789.511 7.35403 -2.58461 0
M  V30 8649 N 793.74 1.17359 1.05189 0
M  V30 8650 C 794.65 0.904984 2.16442 0
M  V30 8651 C 795.666 -0.12686 1.73537 0
M  V30 8652 O 796.842 0.0524127 2.01332 0
M  V30 8653 C 793.907 0.422019 3.44122 0
M  V30 8654 C 792.968 1.52045 4.01473 0
M  V30 8655 C 792.201 1.06044 5.23059 0
M  V30 8656 O 792.424 -0.0854023 5.70336 0
M  V30 8657 O 791.358 1.85349 5.72651 0
M  V30 8658 H 795.184 1.8356 2.41949 0
M  V30 8659 H 792.769 0.95447 1.14936 0
M  V30 8660 H 794.651 0.160208 4.21095 0
M  V30 8661 H 793.326 -0.480444 3.20115 0
M  V30 8662 H 792.233 1.83615 3.25939 0
M  V30 8663 H 793.566 2.39863 4.29798 0
M  V30 8664 N 795.218 -1.23913 0.973828 0
M  V30 8665 C 796.495 -1.87539 0.555729 0
M  V30 8666 C 796.875 -1.87641 -0.967162 0
M  V30 8667 O 796.223 -1.35335 -1.84111 0
M  V30 8668 C 796.433 -3.29359 1.15427 0
M  V30 8669 C 797.781 -4.06 1.24294 0
M  V30 8670 O 798.805 -3.38554 1.10723 0
M  V30 8671 O 797.664 -5.26689 1.45813 0
M  V30 8672 H 794.758 -0.805769 0.186188 0
M  V30 8673 H 797.304 -1.31838 1.06849 0
M  V30 8674 H 796.076 -3.23817 2.19678 0
M  V30 8675 H 795.699 -3.92642 0.625925 0
M  V30 8676 N 796.696 -0.74468 -1.38897 0
M  V30 8677 C 798.112 -0.421302 -1.53939 0
M  V30 8678 C 798.312 1.06668 -1.70951 0
M  V30 8679 O 797.368 1.85278 -1.71547 0
M  V30 8680 C 798.681 -1.21278 -2.75159 0
M  V30 8681 C 800.229 -1.20196 -2.89001 0
M  V30 8682 C 800.704 -1.97621 -4.13171 0
M  V30 8683 N 802.195 -1.94836 -4.2023 0
M  V30 8684 C 802.93 -2.51545 -5.15279 0
M  V30 8685 N 802.426 -3.1693 -6.16058 0
M  V30 8686 N 804.219 -2.41524 -5.07565 0
M  V30 8687 H 796.37 -1.70914 -1.26103 0
M  V30 8688 H 798.633 -0.724058 -0.611919 0
M  V30 8689 H 798.339 -2.26609 -2.68963 0
M  V30 8690 H 798.213 -0.823677 -3.68097 0
M  V30 8691 H 800.6 -0.156742 -2.94683 0
M  V30 8692 H 800.681 -1.63051 -1.97099 0
M  V30 8693 H 800.325 -3.02149 -4.0825 0
M  V30 8694 H 800.255 -1.52166 -5.04136 0
M  V30 8695 H 802.746 -1.4721 -3.48048 0
M  V30 8696 H 803.059 -3.57644 -6.85062 0
M  V30 8697 H 801.404 -3.21023 -6.16417 0
M  V30 8698 H 804.595 -1.90077 -4.27771 0
M  V30 8699 H 804.768 -2.86016 -5.81462 0
M  V30 8700 N 798.174 1.49689 -0.493057 0
M  V30 8701 C 799.122 2.30613 0.303383 0
M  V30 8702 C 800.116 1.38867 0.970165 0
M  V30 8703 O 801.322 1.55956 0.898761 0
M  V30 8704 H 797.697 0.742891 0.116691 0
M  V30 8705 H 799.668 2.95717 -0.39924 0
M  V30 8706 C 798.417 3.20008 1.35978 0
M  V30 8707 H 797.74 3.90526 0.856103 0
M  V30 8708 H 799.18 3.79586 1.88919 0
M  V30 8709 C 797.639 2.39079 2.37367 0
M  V30 8710 O 798.169 2.08933 3.43089 0
M  V30 8711 N 796.375 2.0125 2.09635 0
M  V30 8712 H 795.922 2.25966 1.23682 0
M  V30 8713 H 795.88 1.47408 2.77702 0
M  V30 8714 N 799.652 0.226554 1.55963 0
M  V30 8715 C 800.9 -0.402991 1.98041 0
M  V30 8716 C 801.221 -1.59938 1.11557 0
M  V30 8717 O 800.491 -1.9494 0.193719 0
M  V30 8718 H 799.071 -0.15188 0.731397 0
M  V30 8719 H 801.733 0.320613 1.92245 0
M  V30 8720 H 800.829 -0.725937 3.0354 0
M  V30 8721 N 801.13 -1.57531 -0.0467866 0
M  V30 8722 C 802.546 -1.54451 -0.402107 0
M  V30 8723 C 802.746 -0.950275 -1.77685 0
M  V30 8724 O 801.802 -0.563602 -2.4613 0
M  V30 8725 C 803.115 -2.9899 -0.320212 0
M  V30 8726 C 804.663 -3.10452 -0.398588 0
M  V30 8727 C 805.138 -4.56689 -0.346335 0
M  V30 8728 N 806.629 -4.6142 -0.405666 0
M  V30 8729 C 807.364 -5.72087 -0.387845 0
M  V30 8730 N 806.86 -6.92045 -0.32336 0
M  V30 8731 N 808.653 -5.60404 -0.436263 0
M  V30 8732 H 800.804 -1.94515 0.853087 0
M  V30 8733 H 803.067 -0.891397 0.322669 0
M  V30 8734 H 802.773 -3.46124 0.623794 0
M  V30 8735 H 802.647 -3.60164 -1.1208 0
M  V30 8736 H 805.034 -2.63276 -1.33302 0
M  V30 8737 H 805.115 -2.52142 0.431026 0
M  V30 8738 H 804.759 -5.04527 0.584356 0
M  V30 8739 H 804.689 -5.12889 -1.19382 0
M  V30 8740 H 807.18 -3.75105 -0.458737 0
M  V30 8741 H 807.493 -7.7216 -0.314375 0
M  V30 8742 H 805.838 -6.94396 -0.28967 0
M  V30 8743 H 809.029 -4.65586 -0.48451 0
M  V30 8744 H 809.202 -6.46645 -0.418907 0
M  V30 8745 N 802.608 0.318715 -1.54344 0
M  V30 8746 C 803.885 1.07461 -1.63437 0
M  V30 8747 C 804.265 2.05771 -0.47131 0
M  V30 8748 O 803.613 2.22175 0.53391 0
M  V30 8749 C 803.823 1.77224 -3.00654 0
M  V30 8750 C 805.171 2.30069 -3.56866 0
M  V30 8751 O 806.195 1.87284 -3.0299 0
M  V30 8752 O 805.054 3.08412 -4.51159 0
M  V30 8753 H 802.148 0.495627 -0.66203 0
M  V30 8754 H 804.694 0.318218 -1.6669 0
M  V30 8755 H 803.466 1.05742 -3.76742 0
M  V30 8756 H 803.089 2.59662 -3.01101 0
M  V30 8757 N 804.086 1.46499 0.581025 0
M  V30 8758 C 804.996 1.59778 1.71779 0
M  V30 8759 C 806.012 0.481223 1.67213 0
M  V30 8760 O 807.188 0.74557 1.87091 0
M  V30 8761 C 804.253 1.58626 3.08283 0
M  V30 8762 C 803.314 2.81527 3.241 0
M  V30 8763 C 802.547 2.80421 4.54092 0
M  V30 8764 O 802.77 1.89262 5.38085 0
M  V30 8765 O 801.704 3.71984 4.73193 0
M  V30 8766 H 805.53 2.55918 1.63523 0
M  V30 8767 H 803.115 1.29311 0.748267 0
M  V30 8768 H 804.997 1.60686 3.89561 0
M  V30 8769 H 803.672 0.656467 3.16973 0
M  V30 8770 H 802.579 2.85021 2.42309 0
M  V30 8771 H 803.912 3.73721 3.20302 0
M  V30 8772 N 805.565 -0.825799 1.34232 0
M  V30 8773 C 806.498 -1.94155 1.19914 0
M  V30 8774 C 807.476 -1.62343 0.0914533 0
M  V30 8775 O 808.66 -1.86752 0.256082 0
M  V30 8776 C 805.787 -3.28064 0.842138 0
M  V30 8777 C 804.833 -3.78839 1.95917 0
M  V30 8778 S 805.666 -3.98943 3.57218 0
M  V30 8779 C 806.822 -5.35783 3.23554 0
M  V30 8780 H 807.055 -2.06003 2.14359 0
M  V30 8781 H 804.588 -0.981053 1.19225 0
M  V30 8782 H 806.546 -4.05434 0.642952 0
M  V30 8783 H 805.207 -3.13988 -0.0839363 0
M  V30 8784 H 804.4 -4.75771 1.66306 0
M  V30 8785 H 804.002 -3.08406 2.11569 0
M  V30 8786 H 806.294 -6.19094 2.7519 0
M  V30 8787 H 807.237 -5.70376 4.19615 0
M  V30 8788 H 807.645 -5.01158 2.5981 0
M  V30 8789 N 807.043 -1.17915 -1.04565 0
M  V30 8790 C 808.32 -0.881187 -1.74627 0
M  V30 8791 C 808.7 0.617123 -2.01878 0
M  V30 8792 O 808.048 1.57032 -1.65991 0
M  V30 8793 C 808.258 -1.72299 -3.03503 0
M  V30 8794 C 809.606 -1.94688 -3.77335 0
M  V30 8795 O 810.63 -1.6931 -3.13389 0
M  V30 8796 O 809.489 -2.37379 -4.92253 0
M  V30 8797 H 806.583 -0.326864 -0.759664 0
M  V30 8798 H 809.129 -1.28642 -1.10676 0
M  V30 8799 H 807.901 -2.73891 -2.79462 0
M  V30 8800 H 807.524 -1.31593 -3.75192 0
M  V30 8801 N 808.521 1.23394 -0.980386 0
M  V30 8802 C 809.77 1.91116 -0.644785 0
M  V30 8803 C 810.083 1.77333 0.825367 0
M  V30 8804 O 811.289 2.39858 1.27203 0
M  V30 8805 C 809.745 3.42592 -1.10266 0
M  V30 8806 C 809.353 3.65037 -2.59715 0
M  V30 8807 C 811.097 4.1609 -0.8408 0
M  V30 8808 C 809.004 5.10148 -2.9917 0
M  V30 8809 H 807.934 0.715632 -0.23746 0
M  V30 8810 H 810.585 1.39829 -1.18828 0
M  V30 8811 H 808.967 3.92989 -0.487372 0
M  V30 8812 H 810.141 3.25186 -3.26482 0
M  V30 8813 H 808.456 3.04849 -2.83647 0
M  V30 8814 H 811.053 5.23021 -1.11143 0
M  V30 8815 H 811.396 4.15702 0.223085 0
M  V30 8816 H 811.929 3.71681 -1.41767 0
M  V30 8817 H 808.668 5.15668 -4.04682 0
M  V30 8818 H 808.188 5.50949 -2.37097 0
M  V30 8819 H 809.867 5.7848 -2.89775 0
M  V30 8820 N 809.999 0.752036 1.385 0
M  V30 8821 C 810.909 0.125318 2.34265 0
M  V30 8822 C 811.925 -0.702437 1.59191 0
M  V30 8823 O 813.101 -0.626951 1.91393 0
M  V30 8824 C 810.166 -0.758486 3.38301 0
M  V30 8825 C 809.227 0.0834636 4.29219 0
M  V30 8826 C 808.46 -0.758252 5.28286 0
M  V30 8827 O 808.683 -1.99632 5.34325 0
M  V30 8828 O 807.617 -0.177878 6.01637 0
M  V30 8829 H 811.443 0.91617 2.89551 0
M  V30 8830 H 809.028 0.512911 1.4032 0
M  V30 8831 H 810.91 -1.26365 4.02007 0
M  V30 8832 H 809.585 -1.52786 2.85374 0
M  V30 8833 H 808.492 0.634545 3.68679 0
M  V30 8834 H 809.825 0.815455 4.85398 0
M  V30 8835 N 811.477 -1.49425 0.500989 0
M  V30 8836 C 812.407 -2.31971 -0.266775 0
M  V30 8837 C 813.388 -1.40245 -0.962563 0
M  V30 8838 O 814.573 -1.69154 -0.953968 0
M  V30 8839 C 811.703 -3.20757 -1.33163 0
M  V30 8840 C 810.657 -4.21275 -0.75572 0
M  V30 8841 C 809.983 -4.98997 -1.92109 0
M  V30 8842 C 811.283 -5.21686 0.253213 0
M  V30 8843 H 812.977 -2.96408 0.422237 0
M  V30 8844 H 810.523 -1.4254 0.204505 0
M  V30 8845 H 812.476 -3.77315 -1.87646 0
M  V30 8846 H 811.2 -2.54263 -2.04983 0
M  V30 8847 H 809.859 -3.65861 -0.232637 0
M  V30 8848 H 809.507 -4.28951 -2.62698 0
M  V30 8849 H 809.207 -5.67011 -1.54182 0
M  V30 8850 H 810.731 -5.584 -2.47026 0
M  V30 8851 H 812.145 -5.72939 -0.203483 0
M  V30 8852 H 810.542 -5.9759 0.548322 0
M  V30 8853 H 811.612 -4.70596 1.16909 0
M  V30 8854 N 812.955 -0.234822 -1.55841 0
M  V30 8855 C 813.905 0.68346 -2.17515 0
M  V30 8856 C 814.889 1.14798 -1.1274 0
M  V30 8857 O 816.081 1.09976 -1.38688 0
M  V30 8858 C 813.21 1.88551 -2.86886 0
M  V30 8859 C 812.296 1.44006 -3.98903 0
M  V30 8860 N 812.687 0.708034 -5.0082 0
M  V30 8861 C 810.985 1.7263 -4.11236 0
M  V30 8862 C 811.686 0.479036 -5.79724 0
M  V30 8863 N 810.662 1.03968 -5.33565 0
M  V30 8864 H 814.464 0.115897 -2.93671 0
M  V30 8865 H 811.978 -0.0366273 -1.62359 0
M  V30 8866 H 813.975 2.55425 -3.2949 0
M  V30 8867 H 812.635 2.45742 -2.12229 0
M  V30 8868 H 813.646 0.359363 -5.16652 0
M  V30 8869 H 810.323 2.31046 -3.47741 0
M  V30 8870 H 811.713 -0.104514 -6.71819 0
M  V30 8871 N 814.433 1.57553 0.0384317 0
M  V30 8872 C 815.71 1.79977 0.766002 0
M  V30 8873 C 816.09 0.830625 1.94072 0
M  V30 8874 O 815.438 -0.129243 2.28134 0
M  V30 8875 C 815.648 3.27434 1.20781 0
M  V30 8876 C 816.996 3.92167 1.62758 0
M  V30 8877 O 818.02 3.31527 1.30263 0
M  V30 8878 O 816.879 4.98917 2.23035 0
M  V30 8879 H 813.973 0.739787 0.369654 0
M  V30 8880 H 816.519 1.69693 0.0159312 0
M  V30 8881 H 815.291 3.89558 0.368792 0
M  V30 8882 H 814.914 3.42571 2.01819 0
M  V30 8883 N 815.911 -0.310526 1.54511 0
M  V30 8884 C 817.157 -1.04846 1.73595 0
M  V30 8885 C 817.49 -1.87244 0.515118 0
M  V30 8886 O 816.765 -1.88282 -0.48786 0
M  V30 8887 C 817.048 -1.96237 3.01932 0
M  V30 8888 C 816.901 -1.17082 4.34295 0
M  V30 8889 C 818.22 -2.9556 3.26086 0
M  V30 8890 H 815.339 -0.37976 0.631626 0
M  V30 8891 H 817.981 -0.32394 1.87218 0
M  V30 8892 H 816.131 -2.58015 2.90449 0
M  V30 8893 H 817.803 -0.576643 4.57682 0
M  V30 8894 H 816.046 -0.473336 4.3121 0
M  V30 8895 H 816.717 -1.84257 5.20339 0
M  V30 8896 H 819.193 -2.43908 3.37117 0
M  V30 8897 H 818.069 -3.5668 4.17218 0
M  V30 8898 H 818.33 -3.68715 2.4393 0
M  V30 8899 N 817.389 -1.46805 -0.573248 0
M  V30 8900 C 818.614 -1.56433 -1.36175 0
M  V30 8901 C 819.039 -0.209336 -1.86932 0
M  V30 8902 O 818.397 0.812146 -1.62092 0
M  V30 8903 C 818.445 -2.58055 -2.51873 0
M  V30 8904 O 817.549 -2.12214 -3.53609 0
M  V30 8905 H 816.89 -0.526068 -0.405153 0
M  V30 8906 H 819.42 -1.92456 -0.694405 0
M  V30 8907 H 819.43 -2.77966 -2.98662 0
M  V30 8908 H 818.105 -3.56448 -2.14284 0
M  V30 8909 H 816.682 -2.02333 -3.13234 0
M  V30 8910 N 818.867 0.818669 -1.34668 0
M  V30 8911 C 820.278 1.39177 -1.24446 0
M  V30 8912 C 820.629 1.9578 0.128268 0
M  V30 8913 O 819.754 1.90382 1.02877 0
M  V30 8914 C 820.349 2.53012 -2.25323 0
M  V30 8915 C 818.908 3.06218 -2.18878 0
M  V30 8916 C 818.055 1.79112 -2.11694 0
M  V30 8917 H 821.006 0.622709 -1.45973 0
M  V30 8918 H 821.027 3.31226 -1.8727 0
M  V30 8919 H 820.539 2.11784 -3.25221 0
M  V30 8920 H 818.64 3.51939 -1.22351 0
M  V30 8921 H 818.753 3.65019 -3.10319 0
M  V30 8922 H 817.117 2.0018 -1.57481 0
M  V30 8923 H 817.9 1.40053 -3.13433 0
M  V30 8924 N 820.346 1.18468 1.03938 0
M  V30 8925 C 821.595 0.975193 1.76558 0
M  V30 8926 C 821.908 -0.495978 1.89207 0
M  V30 8927 O 823.114 -0.824009 2.58694 0
M  V30 8928 C 821.57 1.69579 3.17444 0
M  V30 8929 C 821.178 3.20636 3.12884 0
M  V30 8930 C 822.922 1.56917 3.94433 0
M  V30 8931 C 820.829 3.8533 4.48636 0
M  V30 8932 H 819.759 0.361244 0.66183 0
M  V30 8933 H 822.41 1.41854 1.16403 0
M  V30 8934 H 820.792 1.18022 3.78004 0
M  V30 8935 H 821.966 3.79228 2.61768 0
M  V30 8936 H 820.281 3.33454 2.49394 0
M  V30 8937 H 822.878 2.02611 4.94826 0
M  V30 8938 H 823.221 0.521638 4.13019 0
M  V30 8939 H 823.754 2.05762 3.40451 0
M  V30 8940 H 820.493 4.90136 4.35255 0
M  V30 8941 H 820.013 3.31526 4.99851 0
M  V30 8942 H 821.692 3.88269 5.17549 0
M  V30 8943 N 821.824 -1.22873 0.986916 0
M  V30 8944 C 823.052 -1.95487 0.677663 0
M  V30 8945 C 823.467 -1.72978 -0.756572 0
M  V30 8946 O 822.824 -1.02517 -1.50985 0
M  V30 8947 C 822.875 -3.48337 0.966638 0
M  V30 8948 O 822.596 -3.70087 2.34451 0
M  V30 8949 C 824.097 -4.38142 0.674248 0
M  V30 8950 H 821.317 -0.622211 0.251185 0
M  V30 8951 H 823.861 -1.56187 1.32007 0
M  V30 8952 H 822.016 -3.85628 0.370137 0
M  V30 8953 H 822.43 -4.64332 2.43918 0
M  V30 8954 H 823.904 -5.44165 0.926759 0
M  V30 8955 H 824.381 -4.3745 -0.391728 0
M  V30 8956 H 824.987 -4.06469 1.25152 0
M  V30 8957 N 823.302 -0.75937 -1.38099 0
M  V30 8958 C 824.718 -0.437606 -1.53483 0
M  V30 8959 C 824.918 1.04849 -1.72072 0
M  V30 8960 O 823.974 1.83448 -1.73502 0
M  V30 8961 C 825.287 -1.24189 -2.73857 0
M  V30 8962 C 826.835 -1.23255 -2.8771 0
M  V30 8963 C 827.31 -2.01992 -4.11051 0
M  V30 8964 N 828.801 -1.99282 -4.1814 0
M  V30 8965 C 829.536 -2.56996 -5.12583 0
M  V30 8966 N 829.032 -3.23446 -6.12662 0
M  V30 8967 N 830.825 -2.46894 -5.04975 0
M  V30 8968 H 822.976 -1.72242 -1.24283 0
M  V30 8969 H 825.239 -0.730507 -0.604205 0
M  V30 8970 H 824.945 -2.29449 -2.66545 0
M  V30 8971 H 824.819 -0.862672 -3.67203 0
M  V30 8972 H 827.206 -0.187988 -2.94501 0
M  V30 8973 H 827.287 -1.65132 -1.95359 0
M  V30 8974 H 826.931 -3.06462 -4.05023 0
M  V30 8975 H 826.861 -1.57505 -5.02494 0
M  V30 8976 H 829.352 -1.50893 -3.46467 0
M  V30 8977 H 829.665 -3.6489 -6.81231 0
M  V30 8978 H 828.01 -3.27543 -6.12977 0
M  V30 8979 H 831.201 -1.94604 -4.25731 0
M  V30 8980 H 831.374 -2.92168 -5.78396 0
M  V30 8981 N 824.78 1.49157 -0.508906 0
M  V30 8982 C 825.73 2.26215 0.284705 0
M  V30 8983 C 826.714 1.31401 0.928586 0
M  V30 8984 O 827.906 1.56073 0.834877 0
M  V30 8985 C 825.035 3.15906 1.34382 0
M  V30 8986 C 824.121 4.18186 0.705785 0
M  V30 8987 N 824.512 5.05419 -0.196214 0
M  V30 8988 C 822.81 4.35425 0.965457 0
M  V30 8989 C 823.511 5.78977 -0.562222 0
M  V30 8990 N 822.487 5.43553 0.0717389 0
M  V30 8991 H 826.289 2.91033 -0.409543 0
M  V30 8992 H 823.803 1.59104 -0.325508 0
M  V30 8993 H 825.8 3.6975 1.92589 0
M  V30 8994 H 824.46 2.52642 2.03966 0
M  V30 8995 H 825.471 5.14781 -0.567526 0
M  V30 8996 H 822.148 3.83363 1.65346 0
M  V30 8997 H 823.538 6.59192 -1.30062 0
M  V30 8998 N 826.258 0.243083 1.55714 0
M  V30 8999 C 827.669 -0.260788 1.8487 0
M  V30 9000 C 828.02 -1.57879 1.16485 0
M  V30 9001 O 827.145 -2.1184 0.441908 0
M  V30 9002 C 827.74 -0.479954 3.35383 0
M  V30 9003 C 826.299 -0.928096 3.64778 0
M  V30 9004 C 825.446 -0.00316416 2.773 0
M  V30 9005 H 828.397 0.465743 1.51712 0
M  V30 9006 H 828.418 -1.32308 3.56756 0
M  V30 9007 H 827.93 0.479468 3.85127 0
M  V30 9008 H 826.031 -1.90012 3.20509 0
M  V30 9009 H 826.144 -0.7876 4.72582 0
M  V30 9010 H 824.508 -0.513849 2.49463 0
M  V30 9011 H 825.291 0.951562 3.29849 0
M  V30 9012 N 827.736 -1.57571 -0.0300757 0
M  V30 9013 C 828.666 -2.0953 -1.03051 0
M  V30 9014 C 829.647 -0.99761 -1.37774 0
M  V30 9015 O 830.832 -1.27279 -1.46676 0
M  V30 9016 C 827.962 -2.57385 -2.33174 0
M  V30 9017 C 826.916 -3.71409 -2.12696 0
M  V30 9018 C 826.242 -4.05467 -3.4857 0
M  V30 9019 C 827.542 -4.99877 -1.51396 0
M  V30 9020 H 829.236 -2.93367 -0.597999 0
M  V30 9021 H 826.782 -1.41127 -0.286203 0
M  V30 9022 H 828.735 -2.92355 -3.03491 0
M  V30 9023 H 827.459 -1.70629 -2.78484 0
M  V30 9024 H 826.118 -3.36786 -1.44813 0
M  V30 9025 H 825.766 -3.15779 -3.91526 0
M  V30 9026 H 825.466 -4.82269 -3.35694 0
M  V30 9027 H 826.99 -4.4297 -4.2025 0
M  V30 9028 H 828.404 -5.3281 -2.11629 0
M  V30 9029 H 826.801 -5.81283 -1.49098 0
M  V30 9030 H 827.871 -4.82522 -0.479676 0
M  V30 9031 N 829.214 0.302327 -1.54673 0
M  V30 9032 C 830.146 1.39443 -1.81902 0
M  V30 9033 C 831.159 1.46891 -0.701914 0
M  V30 9034 O 832.348 1.49233 -0.979369 0
M  V30 9035 C 829.448 2.77824 -1.9408 0
M  V30 9036 C 828.621 2.93324 -3.24468 0
M  V30 9037 C 827.68 4.12196 -3.27079 0
M  V30 9038 O 826.706 4.04344 -4.00617 0
M  V30 9039 N 827.908 5.22768 -2.52376 0
M  V30 9040 H 830.673 1.1644 -2.76155 0
M  V30 9041 H 828.234 0.492392 -1.54231 0
M  V30 9042 H 830.226 3.5559 -1.9323 0
M  V30 9043 H 828.796 2.9378 -1.06828 0
M  V30 9044 H 828.016 2.02682 -3.38103 0
M  V30 9045 H 829.304 3.0059 -4.10516 0
M  V30 9046 H 828.702 5.32027 -1.92259 0
M  V30 9047 H 827.259 5.98874 -2.57281 0
M  V30 9048 N 830.692 1.47107 0.565454 0
M  V30 9049 C 831.655 1.58535 1.65527 0
M  V30 9050 C 832.655 0.461081 1.54048 0
M  V30 9051 O 833.845 0.725911 1.58355 0
M  V30 9052 C 830.977 1.52204 3.05036 0
M  V30 9053 H 832.17 2.55676 1.56747 0
M  V30 9054 H 829.723 1.35174 0.78471 0
M  V30 9055 H 830.458 0.564071 3.19357 0
M  V30 9056 H 830.243 2.3379 3.14777 0
M  V30 9057 H 831.733 1.63322 3.84338 0
M  V30 9058 N 832.17 -0.811516 1.35101 0
M  V30 9059 C 833.1 -1.9378 1.30275 0
M  V30 9060 C 834.081 -1.69165 0.178075 0
M  V30 9061 O 835.266 -1.90599 0.372256 0
M  V30 9062 C 832.396 -3.30439 1.06899 0
M  V30 9063 C 831.35 -3.69523 2.15955 0
M  V30 9064 C 830.676 -5.0429 1.77751 0
M  V30 9065 C 831.976 -3.80419 3.57881 0
M  V30 9066 H 833.67 -1.98075 2.24514 0
M  V30 9067 H 831.216 -0.951586 1.08078 0
M  V30 9068 H 833.169 -4.08828 1.02164 0
M  V30 9069 H 831.893 -3.26473 0.0910462 0
M  V30 9070 H 830.552 -2.93416 2.19778 0
M  V30 9071 H 830.2 -4.96823 0.785876 0
M  V30 9072 H 829.9 -5.31411 2.5075 0
M  V30 9073 H 831.424 -5.85125 1.74533 0
M  V30 9074 H 832.838 -4.49051 3.56407 0
M  V30 9075 H 831.235 -4.19005 4.29598 0
M  V30 9076 H 832.305 -2.82105 3.94391 0
M  V30 9077 N 833.648 -1.19017 -1.03309 0
M  V30 9078 C 834.895 -0.990214 -1.76638 0
M  V30 9079 C 835.223 0.479435 -1.88498 0
M  V30 9080 O 834.478 1.37223 -1.39529 0
M  V30 9081 C 834.777 -1.59927 -3.19622 0
M  V30 9082 C 834.443 -3.09632 -3.27779 0
M  V30 9083 C 833.105 -3.50491 -3.29712 0
M  V30 9084 C 835.457 -4.05644 -3.27264 0
M  V30 9085 C 832.785 -4.85921 -3.28782 0
M  V30 9086 C 835.137 -5.41 -3.27875 0
M  V30 9087 C 833.801 -5.81295 -3.28104 0
M  V30 9088 H 833.071 -0.362345 -0.646364 0
M  V30 9089 H 835.718 -1.48197 -1.21284 0
M  V30 9090 H 834.023 -1.0297 -3.78027 0
M  V30 9091 H 835.72 -1.41989 -3.7502 0
M  V30 9092 H 832.31 -2.77073 -3.26999 0
M  V30 9093 H 836.494 -3.75124 -3.24955 0
M  V30 9094 H 831.75 -5.16427 -3.27281 0
M  V30 9095 H 835.924 -6.15157 -3.26428 0
M  V30 9096 H 833.551 -6.86211 -3.27138 0
M  V30 9097 N 835.127 1.22348 -0.993418 0
M  V30 9098 C 836.376 1.90422 -0.665019 0
M  V30 9099 C 836.689 1.78199 0.806512 0
M  V30 9100 O 837.895 2.41193 1.24652 0
M  V30 9101 C 836.351 3.41403 -1.13893 0
M  V30 9102 C 835.959 3.62262 -2.63572 0
M  V30 9103 C 837.703 4.15175 -0.884884 0
M  V30 9104 C 835.61 5.06947 -3.04564 0
M  V30 9105 H 834.54 0.713073 -0.245037 0
M  V30 9106 H 837.191 1.3856 -1.20305 0
M  V30 9107 H 835.573 3.9245 -0.529027 0
M  V30 9108 H 836.747 3.21705 -3.29913 0
M  V30 9109 H 835.062 3.01824 -2.86865 0
M  V30 9110 H 837.659 5.21813 -1.16684 0
M  V30 9111 H 838.002 4.15915 0.178982 0
M  V30 9112 H 838.535 3.70157 -1.45701 0
M  V30 9113 H 835.274 5.11346 -4.10128 0
M  V30 9114 H 834.794 5.48404 -2.42927 0
M  V30 9115 H 836.473 5.75374 -2.95894 0
M  V30 9116 N 836.605 0.766683 1.37694 0
M  V30 9117 C 837.851 0.338201 2.00569 0
M  V30 9118 C 838.206 -1.07196 1.59771 0
M  V30 9119 O 837.499 -1.72622 0.831402 0
M  V30 9120 C 837.693 0.413831 3.54996 0
M  V30 9121 C 837.522 1.8298 4.1079 0
M  V30 9122 C 836.292 2.44932 4.41969 0
M  V30 9123 C 838.49 2.78852 4.32141 0
M  V30 9124 N 836.472 3.78353 4.83448 0
M  V30 9125 C 837.843 3.97063 4.76174 0
M  V30 9126 C 839.898 2.76205 4.14265 0
M  V30 9127 C 838.601 5.13003 5.04203 0
M  V30 9128 C 840.627 3.91314 4.43427 0
M  V30 9129 C 839.989 5.08265 4.87694 0
M  V30 9130 H 836.088 0.170693 0.763143 0
M  V30 9131 H 838.672 0.999435 1.67091 0
M  V30 9132 H 836.843 -0.217198 3.87792 0
M  V30 9133 H 838.575 -0.036222 4.04684 0
M  V30 9134 H 835.33 1.9659 4.3087 0
M  V30 9135 H 835.754 4.46937 5.08504 0
M  V30 9136 H 840.396 1.86962 3.79216 0
M  V30 9137 H 838.114 6.0285 5.38142 0
M  V30 9138 H 841.7 3.906 4.31187 0
M  V30 9139 H 840.58 5.95858 5.09827 0
M  V30 9140 N 838.083 -1.48885 0.516809 0
M  V30 9141 C 839.046 -2.27916 -0.242256 0
M  V30 9142 C 840.046 -1.34601 -0.879735 0
M  V30 9143 O 841.236 -1.57616 -0.74182 0
M  V30 9144 C 838.368 -3.13067 -1.34914 0
M  V30 9145 H 839.561 -2.96483 0.451444 0
M  V30 9146 H 837.114 -1.5391 0.272294 0
M  V30 9147 H 837.849 -2.49102 -2.07651 0
M  V30 9148 H 837.634 -3.81695 -0.897313 0
M  V30 9149 H 839.124 -3.72716 -1.88341 0
M  V30 9150 N 839.561 -0.251338 -1.55583 0
M  V30 9151 C 840.81 0.372681 -1.98227 0
M  V30 9152 C 841.123 1.58743 -1.1428 0
M  V30 9153 O 842.329 2.28289 -1.46957 0
M  V30 9154 C 840.785 0.714439 -3.52738 0
M  V30 9155 C 840.393 -0.479168 -4.4543 0
M  V30 9156 C 842.137 1.3024 -4.04027 0
M  V30 9157 C 840.044 -0.113318 -5.91291 0
M  V30 9158 H 838.974 0.14302 -0.740312 0
M  V30 9159 H 841.625 -0.352253 -1.80087 0
M  V30 9160 H 840.007 1.49762 -3.66589 0
M  V30 9161 H 841.181 -1.25644 -4.4334 0
M  V30 9162 H 839.496 -0.982359 -4.04646 0
M  V30 9163 H 842.093 1.58953 -5.10527 0
M  V30 9164 H 842.436 2.22837 -3.51638 0
M  V30 9165 H 842.969 0.582024 -3.93519 0
M  V30 9166 H 839.708 -1.00654 -6.47726 0
M  V30 9167 H 839.228 0.627666 -5.96507 0
M  V30 9168 H 840.907 0.30293 -6.4629 0
M  V30 9169 N 841.039 1.57585 0.0217189 0
M  V30 9170 C 841.969 2.10073 1.01939 0
M  V30 9171 C 842.95 1.0049 1.37243 0
M  V30 9172 O 844.135 1.28055 1.45999 0
M  V30 9173 C 841.265 2.58618 2.31806 0
M  V30 9174 C 840.219 3.72531 2.10724 0
M  V30 9175 C 839.545 4.07309 3.46415 0
M  V30 9176 C 840.845 5.00672 1.48743 0
M  V30 9177 H 842.539 2.9368 0.582432 0
M  V30 9178 H 840.085 1.41277 0.278715 0
M  V30 9179 H 842.038 2.9396 3.01936 0
M  V30 9180 H 840.762 1.72104 2.77575 0
M  V30 9181 H 839.421 3.37549 1.43025 0
M  V30 9182 H 839.069 3.17851 3.89846 0
M  V30 9183 H 838.769 4.84042 3.33132 0
M  V30 9184 H 840.293 4.45192 4.17895 0
M  V30 9185 H 841.707 5.33925 2.088 0
M  V30 9186 H 840.104 5.82065 1.46013 0
M  V30 9187 H 841.174 4.82769 0.45408 0
M  V30 9188 N 842.517 -0.29412 1.54831 0
M  V30 9189 C 843.449 -1.38476 1.82639 0
M  V30 9190 C 844.462 -1.46517 0.709694 0
M  V30 9191 O 845.651 -1.48712 0.987269 0
M  V30 9192 C 842.751 -2.76791 1.95551 0
M  V30 9193 C 841.924 -2.91599 3.26019 0
M  V30 9194 C 840.983 -4.10456 3.29261 0
M  V30 9195 O 840.009 -4.02214 4.02756 0
M  V30 9196 N 841.211 -5.21422 2.55145 0
M  V30 9197 H 843.976 -1.14974 2.76769 0
M  V30 9198 H 841.537 -0.484206 1.5449 0
M  V30 9199 H 843.529 -3.5456 1.95113 0
M  V30 9200 H 842.099 -2.93209 1.08384 0
M  V30 9201 H 841.319 -2.00886 3.39173 0
M  V30 9202 H 842.607 -2.98409 4.12104 0
M  V30 9203 H 842.005 -5.31 1.95078 0
M  V30 9204 H 840.562 -5.97501 2.60454 0
M  V30 9205 N 843.995 -1.47404 -0.557645 0
M  V30 9206 C 844.943 -1.60265 -1.68576 0
M  V30 9207 C 845.937 -0.469982 -1.6275 0
M  V30 9208 O 847.143 -0.647764 -1.67941 0
M  V30 9209 H 843.518 -0.504353 -0.557792 0
M  V30 9210 H 845.489 -2.55066 -1.54867 0
M  V30 9211 C 844.238 -1.63369 -3.0693 0
M  V30 9212 H 843.561 -2.49874 -3.12095 0
M  V30 9213 H 845.001 -1.76417 -3.85556 0
M  V30 9214 C 843.46 -0.366921 -3.34896 0
M  V30 9215 O 843.99 0.53218 -3.98159 0
M  V30 9216 N 842.196 -0.247082 -2.89548 0
M  V30 9217 H 841.743 -0.979669 -2.38244 0
M  V30 9218 H 841.701 0.599552 -3.0863 0
M  V30 9219 N 845.473 0.80434 -1.35529 0
M  V30 9220 C 846.42 1.91629 -1.28635 0
M  V30 9221 C 847.39 1.65348 -0.157862 0
M  V30 9222 O 848.575 1.87711 -0.341934 0
M  V30 9223 C 845.715 3.28207 -1.0665 0
M  V30 9224 C 844.828 3.66659 -2.28441 0
M  V30 9225 C 843.963 4.92279 -1.99588 0
M  V30 9226 C 843.002 5.23365 -3.1742 0
M  V30 9227 N 842.139 6.40165 -2.88328 0
M  V30 9228 H 846.979 1.96858 -2.23721 0
M  V30 9229 H 844.516 0.962871 -1.11208 0
M  V30 9230 H 846.474 4.06945 -0.919343 0
M  V30 9231 H 845.104 3.22441 -0.152253 0
M  V30 9232 H 844.156 2.83164 -2.54013 0
M  V30 9233 H 845.468 3.8559 -3.1642 0
M  V30 9234 H 844.622 5.78847 -1.81715 0
M  V30 9235 H 843.361 4.75387 -1.08896 0
M  V30 9236 H 842.366 4.35285 -3.35867 0
M  V30 9237 H 843.591 5.42185 -4.08916 0
M  V30 9238 H 841.537 6.24694 -2.00233 0
M  V30 9239 H 841.454 6.59357 -3.69843 0
M  V30 9240 H 842.722 7.29755 -2.74002 0
M  V30 9241 N 846.951 1.19563 1.02676 0
M  V30 9242 C 847.898 0.935291 2.11 0
M  V30 9243 C 848.868 -0.130685 1.65585 0
M  V30 9244 O 850.053 0.0119062 1.90796 0
M  V30 9245 C 847.193 0.482384 3.41712 0
M  V30 9246 C 846.306 1.61537 4.00662 0
M  V30 9247 C 845.441 1.11378 5.19392 0
M  V30 9248 C 844.48 2.22052 5.70403 0
M  V30 9249 N 843.617 1.73185 6.80405 0
M  V30 9250 H 848.457 1.86275 2.32606 0
M  V30 9251 H 845.994 0.928656 1.14081 0
M  V30 9252 H 847.952 0.20118 4.16715 0
M  V30 9253 H 846.582 -0.408086 3.2021 0
M  V30 9254 H 845.634 2.01173 3.22852 0
M  V30 9255 H 846.946 2.44912 4.34534 0
M  V30 9256 H 846.1 0.787935 6.01562 0
M  V30 9257 H 844.839 0.249789 4.8706 0
M  V30 9258 H 843.844 2.55465 4.86845 0
M  V30 9259 H 845.069 3.08911 6.04774 0
M  V30 9260 H 843.015 0.890973 6.49921 0
M  V30 9261 H 842.932 2.50148 7.13416 0
M  V30 9262 H 844.2 1.4357 7.66164 0
M  V30 9263 N 848.429 -1.21819 0.999893 0
M  V30 9264 C 849.339 -2.27691 0.565159 0
M  V30 9265 C 850.355 -1.69587 -0.389398 0
M  V30 9266 O 851.531 -1.99786 -0.254499 0
M  V30 9267 C 848.596 -3.46537 -0.106432 0
M  V30 9268 C 847.657 -4.19932 0.891964 0
M  V30 9269 C 846.89 -5.33103 0.252327 0
M  V30 9270 O 847.113 -5.62398 -0.952103 0
M  V30 9271 O 846.047 -5.94184 0.960698 0
M  V30 9272 H 849.873 -2.67059 1.44613 0
M  V30 9273 H 847.458 -1.28119 0.768499 0
M  V30 9274 H 849.34 -4.18631 -0.482301 0
M  V30 9275 H 848.015 -3.09079 -0.961865 0
M  V30 9276 H 846.922 -3.5008 1.3189 0
M  V30 9277 H 848.255 -4.61287 1.71682 0
M  V30 9278 N 849.908 -0.773975 -1.37286 0
M  V30 9279 C 850.838 -0.175782 -2.32837 0
M  V30 9280 C 851.819 0.680603 -1.5589 0
M  V30 9281 O 853.004 0.617607 -1.84117 0
M  V30 9282 C 850.134 0.702388 -3.40123 0
M  V30 9283 C 849.088 -0.0528687 -4.27967 0
M  V30 9284 C 848.414 0.944891 -5.26285 0
M  V30 9285 C 849.714 -1.23316 -5.07534 0
M  V30 9286 H 851.408 -0.974016 -2.83114 0
M  V30 9287 H 848.954 -0.469826 -1.3612 0
M  V30 9288 H 850.907 1.13069 -4.05947 0
M  V30 9289 H 849.631 1.53316 -2.88378 0
M  V30 9290 H 848.29 -0.461978 -3.63678 0
M  V30 9291 H 847.938 1.77028 -4.70819 0
M  V30 9292 H 847.638 0.444079 -5.8592 0
M  V30 9293 H 849.162 1.37209 -5.94984 0
M  V30 9294 H 850.576 -0.881395 -5.66484 0
M  V30 9295 H 848.973 -1.66621 -5.76504 0
M  V30 9296 H 850.043 -2.03617 -4.40077 0
M  V30 9297 N 851.386 1.48609 -0.524698 0
M  V30 9298 C 852.611 2.07398 0.00952139 0
M  V30 9299 C 853.036 1.37939 1.27884 0
M  V30 9300 O 852.394 0.443633 1.75788 0
M  V30 9301 C 852.442 3.59916 0.221956 0
M  V30 9302 O 851.546 3.91647 1.29175 0
M  V30 9303 H 850.887 0.662981 -0.0367729 0
M  V30 9304 H 853.417 1.91092 -0.7311 0
M  V30 9305 H 853.427 4.05552 0.446236 0
M  V30 9306 H 852.102 4.09876 -0.705306 0
M  V30 9307 H 850.679 3.57796 1.05055 0
M  V30 9308 N 852.864 0.259585 1.55447 0
M  V30 9309 C 853.811 -0.634578 2.21905 0
M  V30 9310 C 854.781 -1.16168 1.18719 0
M  V30 9311 O 855.966 -1.21383 1.4721 0
M  V30 9312 C 853.106 -1.82005 2.93203 0
M  V30 9313 C 852.219 -1.32828 4.11073 0
M  V30 9314 C 851.354 -2.47431 4.70055 0
M  V30 9315 C 850.393 -1.95179 5.80148 0
M  V30 9316 N 849.53 -3.03197 6.33258 0
M  V30 9317 H 854.37 -0.0611886 2.97937 0
M  V30 9318 H 851.907 -0.0184378 1.47088 0
M  V30 9319 H 853.865 -2.51664 3.32748 0
M  V30 9320 H 852.495 -2.36571 2.19622 0
M  V30 9321 H 851.547 -0.525301 3.76756 0
M  V30 9322 H 852.859 -0.905435 4.90513 0
M  V30 9323 H 852.013 -3.25111 5.12238 0
M  V30 9324 H 850.752 -2.93023 3.89857 0
M  V30 9325 H 849.757 -1.15974 5.37429 0
M  V30 9326 H 850.982 -1.50541 6.62204 0
M  V30 9327 H 848.928 -3.48199 5.55961 0
M  V30 9328 H 848.845 -2.65282 7.07928 0
M  V30 9329 H 850.113 -3.80898 6.80101 0
M  V30 9330 N 854.342 -1.57594 -0.0133615 0
M  V30 9331 C 855.588 -1.90262 -0.702019 0
M  V30 9332 C 855.921 -0.859219 -1.74158 0
M  V30 9333 O 855.196 0.123778 -1.94106 0
M  V30 9334 C 855.479 -3.3354 -1.35732 0
M  V30 9335 C 855.332 -4.48586 -0.330208 0
M  V30 9336 C 856.651 -3.76004 -2.28712 0
M  V30 9337 H 853.77 -0.691943 -0.253739 0
M  V30 9338 H 856.412 -1.89967 0.0351894 0
M  V30 9339 H 854.562 -3.33921 -1.98567 0
M  V30 9340 H 856.234 -4.6034 0.297433 0
M  V30 9341 H 854.477 -4.32394 0.348926 0
M  V30 9342 H 855.148 -5.45762 -0.827508 0
M  V30 9343 H 857.624 -3.77089 -1.75906 0
M  V30 9344 H 856.5 -4.77032 -2.71535 0
M  V30 9345 H 856.761 -3.09129 -3.16056 0
M  V30 9346 N 855.82 0.285905 -1.54985 0
M  V30 9347 C 857.069 1.01691 -1.74189 0
M  V30 9348 C 857.382 1.87908 -0.543135 0
M  V30 9349 O 858.588 2.64389 -0.617305 0
M  V30 9350 C 857.044 1.85785 -3.0824 0
M  V30 9351 C 856.652 1.04497 -4.35642 0
M  V30 9352 C 858.396 2.58393 -3.36798 0
M  V30 9353 C 856.303 1.87955 -5.60738 0
M  V30 9354 H 855.233 0.383396 -0.649248 0
M  V30 9355 H 857.884 0.27317 -1.81455 0
M  V30 9356 H 856.266 2.64205 -2.94978 0
M  V30 9357 H 857.44 0.305847 -4.59784 0
M  V30 9358 H 855.755 0.434023 -4.14132 0
M  V30 9359 H 858.352 3.21214 -4.27464 0
M  V30 9360 H 858.695 3.28011 -2.56349 0
M  V30 9361 H 859.228 1.87012 -3.511 0
M  V30 9362 H 855.967 1.22781 -6.43898 0
M  V30 9363 H 855.487 2.59499 -5.40759 0
M  V30 9364 H 857.166 2.45636 -5.98558 0
M  V30 9365 N 857.298 1.47698 0.54982 0
M  V30 9366 C 858.544 1.55914 1.30624 0
M  V30 9367 C 858.899 0.221596 1.9112 0
M  V30 9368 O 858.192 -0.77351 1.75292 0
M  V30 9369 C 858.386 2.61903 2.4319 0
M  V30 9370 C 858.215 4.05833 1.93725 0
M  V30 9371 C 856.985 4.73199 1.77231 0
M  V30 9372 C 859.183 4.92624 1.47738 0
M  V30 9373 N 857.165 6.01618 1.22183 0
M  V30 9374 C 858.536 6.11129 1.04505 0
M  V30 9375 C 860.591 4.79006 1.35857 0
M  V30 9376 C 859.294 7.1752 0.505722 0
M  V30 9377 C 861.32 5.85501 0.833254 0
M  V30 9378 C 860.682 7.03201 0.410894 0
M  V30 9379 H 856.781 0.625194 0.469741 0
M  V30 9380 H 859.365 1.84485 0.622369 0
M  V30 9381 H 857.536 2.35188 3.09098 0
M  V30 9382 H 859.268 2.59919 3.102 0
M  V30 9383 H 856.023 4.29221 2.00166 0
M  V30 9384 H 856.447 6.70054 0.967263 0
M  V30 9385 H 861.089 3.88369 1.67122 0
M  V30 9386 H 858.807 8.07898 0.180721 0
M  V30 9387 H 862.393 5.77013 0.744781 0
M  V30 9388 H 861.273 7.84199 0.0107086 0
M  V30 9389 N 858.776 -0.797141 1.35954 0
M  V30 9390 C 859.686 -1.94088 1.31784 0
M  V30 9391 C 860.702 -1.72588 0.221227 0
M  V30 9392 O 861.878 -1.96256 0.452255 0
M  V30 9393 C 858.943 -3.28828 1.09878 0
M  V30 9394 C 858.004 -3.63158 2.28942 0
M  V30 9395 C 857.237 -4.91469 2.08072 0
M  V30 9396 O 857.46 -5.60616 1.05196 0
M  V30 9397 O 856.394 -5.24277 2.95664 0
M  V30 9398 H 860.22 -2.00554 2.28061 0
M  V30 9399 H 857.805 -0.936288 1.16422 0
M  V30 9400 H 859.687 -4.09473 0.995485 0
M  V30 9401 H 858.362 -3.23271 0.16659 0
M  V30 9402 H 857.269 -2.82851 2.44839 0
M  V30 9403 H 858.602 -3.7343 3.20641 0
M  V30 9404 N 860.254 -1.20106 -1.0204 0
M  V30 9405 C 861.186 -0.904236 -2.10609 0
M  V30 9406 C 862.199 0.106487 -1.62451 0
M  V30 9407 O 863.388 -0.124035 -1.78069 0
M  V30 9408 C 860.488 -0.333423 -3.37256 0
M  V30 9409 C 859.661 -1.39476 -4.14566 0
M  V30 9410 C 858.72 -0.835961 -5.19517 0
M  V30 9411 O 857.746 -1.51573 -5.48648 0
M  V30 9412 N 858.948 0.356531 -5.79404 0
M  V30 9413 H 861.713 -1.8388 -2.36661 0
M  V30 9414 H 859.274 -1.10422 -1.184 0
M  V30 9415 H 861.266 0.0544571 -4.04663 0
M  V30 9416 H 859.836 0.505608 -3.08484 0
M  V30 9417 H 859.056 -1.95714 -3.42184 0
M  V30 9418 H 860.344 -2.10967 -4.63001 0
M  V30 9419 H 859.742 0.926143 -5.58067 0
M  V30 9420 H 858.299 0.686093 -6.48179 0
M  V30 9421 N 861.732 1.21287 -1.00634 0
M  V30 9422 C 862.96 1.94385 -0.708678 0
M  V30 9423 C 863.375 1.7416 0.728957 0
M  V30 9424 O 862.732 1.04906 1.49335 0
M  V30 9425 C 862.783 3.46755 -1.02193 0
M  V30 9426 O 862.504 3.6631 -2.40309 0
M  V30 9427 C 864.005 4.37014 -0.743867 0
M  V30 9428 H 861.225 0.618136 -0.261052 0
M  V30 9429 H 863.769 1.54067 -1.34475 0
M  V30 9430 H 861.924 3.8499 -0.431441 0
M  V30 9431 H 862.338 4.60393 -2.51274 0
M  V30 9432 H 863.812 5.42621 -1.01321 0
M  V30 9433 H 864.289 4.38017 0.322084 0
M  V30 9434 H 864.895 4.04426 -1.31603 0
M  V30 9435 N 863.21 0.781244 1.36873 0
M  V30 9436 C 864.626 0.461968 1.52768 0
M  V30 9437 C 864.826 -1.02099 1.73719 0
M  V30 9438 O 863.882 -1.80665 1.76399 0
M  V30 9439 C 865.195 1.2853 2.71846 0
M  V30 9440 C 866.743 1.27817 2.85713 0
M  V30 9441 C 867.218 2.08506 4.07786 0
M  V30 9442 N 868.709 2.05909 4.14917 0
M  V30 9443 C 869.444 2.65118 5.08429 0
M  V30 9444 N 868.94 3.33152 6.07438 0
M  V30 9445 N 870.733 2.54896 5.00983 0
M  V30 9446 H 862.884 1.74198 1.21527 0
M  V30 9447 H 865.147 0.740027 0.592506 0
M  V30 9448 H 864.853 2.3366 2.62861 0
M  V30 9449 H 864.727 0.920981 3.65784 0
M  V30 9450 H 867.114 0.234817 2.94164 0
M  V30 9451 H 867.195 1.68219 1.92707 0
M  V30 9452 H 866.839 3.12867 4.00096 0
M  V30 9453 H 866.769 1.65479 4.99924 0
M  V30 9454 H 869.26 1.56386 3.44023 0
M  V30 9455 H 869.573 3.75681 6.75339 0
M  V30 9456 H 867.918 3.37253 6.07689 0
M  V30 9457 H 871.109 2.01352 4.22581 0
M  V30 9458 H 871.282 3.01332 5.73675 0
M  V30 9459 N 864.689 -1.48329 0.532571 0
M  V30 9460 C 865.937 -2.021 -0.000581206 0
M  V30 9461 C 866.258 -1.4117 -1.34522 0
M  V30 9462 O 865.528 -0.578005 -1.87179 0
M  V30 9463 H 864.108 -0.746993 -0.00320281 0
M  V30 9464 H 866.77 -1.82011 0.696991 0
M  V30 9465 H 865.866 -3.11917 -0.106991 0
M  V30 9466 N 866.167 -0.267825 -1.55308 0
M  V30 9467 C 867.407 0.352316 -2.01341 0
M  V30 9468 C 867.771 1.53593 -1.1521 0
M  V30 9469 O 868.972 2.22521 -1.50791 0
M  V30 9470 C 867.243 0.731857 -3.49827 0
M  V30 9471 S 868.802 1.33956 -4.17853 0
M  V30 9472 H 865.62 0.109927 -0.702451 0
M  V30 9473 H 868.222 -0.387955 -1.91612 0
M  V30 9474 H 866.926 -0.138561 -4.10166 0
M  V30 9475 H 866.457 1.50378 -3.63525 0
M  V30 9476 H 868.472 2.62831 -4.20874 0
M  V30 9477 N 867.645 1.57599 0.00500368 0
M  V30 9478 C 868.873 1.94626 0.702016 0
M  V30 9479 C 869.288 0.86953 1.67585 0
M  V30 9480 O 868.645 -0.15199 1.81866 0
M  V30 9481 C 868.696 3.31658 1.43824 0
M  V30 9482 O 868.417 4.35197 0.503467 0
M  V30 9483 C 869.918 3.83114 2.23021 0
M  V30 9484 H 867.138 0.641785 0.195841 0
M  V30 9485 H 869.682 2.04451 -0.0446287 0
M  V30 9486 H 867.837 3.23156 2.13655 0
M  V30 9487 H 868.251 5.1444 1.02235 0
M  V30 9488 H 869.725 4.81438 2.7004 0
M  V30 9489 H 870.202 3.15559 3.05482 0
M  V30 9490 H 870.808 3.94775 1.58216 0
M  V30 9491 N 869.123 -0.277682 1.55134 0
M  V30 9492 C 870.053 -1.34742 1.90701 0
M  V30 9493 C 871.034 -1.51757 0.768354 0
M  V30 9494 O 872.219 -1.64879 1.02609 0
M  V30 9495 C 869.349 -2.70775 2.17481 0
M  V30 9496 C 868.303 -2.68497 3.33307 0
M  V30 9497 C 867.629 -4.08037 3.45557 0
M  V30 9498 C 868.929 -2.28178 4.69821 0
M  V30 9499 H 870.623 -1.05224 2.803 0
M  V30 9500 H 868.169 -0.504738 1.34864 0
M  V30 9501 H 870.122 -3.45719 2.40949 0
M  V30 9502 H 868.846 -3.01867 1.24676 0
M  V30 9503 H 867.505 -1.9601 3.09799 0
M  V30 9504 H 867.153 -4.36344 2.50226 0
M  V30 9505 H 866.853 -4.07409 4.23429 0
M  V30 9506 H 868.377 -4.84726 3.71312 0
M  V30 9507 H 869.791 -2.92843 4.92865 0
M  V30 9508 H 868.188 -2.3872 5.50575 0
M  V30 9509 H 869.258 -1.23308 4.6896 0
M  V30 9510 N 870.601 -1.47988 -0.541979 0
M  V30 9511 C 871.564 -1.61148 -1.62984 0
M  V30 9512 C 872.564 -0.48553 -1.53295 0
M  V30 9513 O 873.754 -0.751012 -1.5718 0
M  V30 9514 C 870.886 -1.57038 -3.02576 0
M  V30 9515 H 872.079 -2.58138 -1.52659 0
M  V30 9516 H 869.632 -1.36405 -0.763106 0
M  V30 9517 H 870.367 -0.614807 -3.18419 0
M  V30 9518 H 870.152 -2.38769 -3.11018 0
M  V30 9519 H 871.642 -1.69416 -3.81691 0
M  V30 9520 N 872.079 0.78992 -1.36375 0
M  V30 9521 C 873.042 1.88414 -1.30509 0
M  V30 9522 C 874.042 1.59384 -0.2129 0
M  V30 9523 O 875.232 1.67805 -0.467651 0
M  V30 9524 C 872.364 3.25188 -1.02302 0
M  V30 9525 H 873.557 1.95031 -2.27822 0
M  V30 9526 H 871.11 0.987664 -1.2114 0
M  V30 9527 H 871.845 3.24254 -0.0544486 0
M  V30 9528 H 871.63 3.47647 -1.81338 0
M  V30 9529 H 873.12 4.05252 -1.00801 0
M  V30 9530 N 873.557 1.20646 1.01402 0
M  V30 9531 C 874.487 0.98155 2.11867 0
M  V30 9532 C 875.468 -0.0903712 1.6986 0
M  V30 9533 O 876.653 0.0676586 1.94082 0
M  V30 9534 C 873.783 0.535636 3.43145 0
M  V30 9535 C 872.737 1.55109 3.98905 0
M  V30 9536 C 872.063 0.961725 5.2598 0
M  V30 9537 C 873.363 2.93552 4.32001 0
M  V30 9538 H 875.057 1.90544 2.3094 0
M  V30 9539 H 872.603 0.917554 1.10982 0
M  V30 9540 H 874.556 0.365512 4.19812 0
M  V30 9541 H 873.28 -0.423882 3.23838 0
M  V30 9542 H 871.939 1.70862 3.24348 0
M  V30 9543 H 871.587 -0.00580108 5.03 0
M  V30 9544 H 871.287 1.63993 5.64252 0
M  V30 9545 H 872.811 0.802726 6.053 0
M  V30 9546 H 874.225 2.81295 4.99546 0
M  V30 9547 H 872.622 3.58303 4.81393 0
M  V30 9548 H 873.692 3.4508 3.40658 0
M  V30 9549 N 875.035 -1.20752 1.01276 0
M  V30 9550 C 876.283 -1.89645 0.698505 0
M  V30 9551 C 876.604 -1.78986 -0.773883 0
M  V30 9552 O 875.874 -1.18977 -1.55632 0
M  V30 9553 H 874.454 -0.701992 0.255375 0
M  V30 9554 H 877.116 -1.46668 1.28353 0
M  V30 9555 H 876.212 -2.96364 0.978512 0
M  V30 9556 N 876.513 -0.788492 -1.36457 0
M  V30 9557 C 877.476 -0.192209 -2.28393 0
M  V30 9558 C 878.476 0.609916 -1.48784 0
M  V30 9559 O 879.666 0.431046 -1.68783 0
M  V30 9560 C 876.798 0.734096 -3.32902 0
M  V30 9561 H 877.991 -1.00284 -2.82636 0
M  V30 9562 H 875.544 -0.557852 -1.46006 0
M  V30 9563 H 876.279 1.5691 -2.83813 0
M  V30 9564 H 876.064 0.160875 -3.9177 0
M  V30 9565 H 877.554 1.1462 -4.01562 0
M  V30 9566 N 877.991 1.48044 -0.54043 0
M  V30 9567 C 879.216 2.07396 -0.0124765 0
M  V30 9568 C 879.641 1.39288 1.26414 0
M  V30 9569 O 878.999 0.462252 1.75308 0
M  V30 9570 C 879.047 3.60131 0.18377 0
M  V30 9571 O 878.151 3.92995 1.25014 0
M  V30 9572 H 877.492 0.662554 -0.0438026 0
M  V30 9573 H 880.022 1.90306 -0.751327 0
M  V30 9574 H 880.032 4.06003 0.403197 0
M  V30 9575 H 878.707 4.09105 -0.74874 0
M  V30 9576 H 877.284 3.5889 1.01254 0
M  V30 9577 N 879.47 0.276058 1.55163 0
M  V30 9578 C 880.417 -0.611006 2.22565 0
M  V30 9579 C 881.387 -1.14902 1.19945 0
M  V30 9580 O 882.572 -1.19815 1.48489 0
M  V30 9581 C 879.712 -1.78885 2.95117 0
M  V30 9582 C 878.825 -1.2846 4.12458 0
M  V30 9583 C 877.96 -2.42432 4.72652 0
M  V30 9584 C 876.999 -1.89015 5.82185 0
M  V30 9585 N 876.136 -2.96463 6.36439 0
M  V30 9586 H 880.976 -0.0295849 2.97985 0
M  V30 9587 H 878.513 -0.00283607 1.471 0
M  V30 9588 H 880.471 -2.48121 3.35398 0
M  V30 9589 H 879.101 -2.34229 2.22119 0
M  V30 9590 H 878.153 -0.485312 3.77292 0
M  V30 9591 H 879.465 -0.853358 4.91446 0
M  V30 9592 H 878.619 -3.19659 5.15658 0
M  V30 9593 H 877.358 -2.88872 3.92943 0
M  V30 9594 H 876.363 -1.10267 5.38629 0
M  V30 9595 H 877.588 -1.43509 6.63763 0
M  V30 9596 H 875.534 -3.42283 5.59623 0
M  V30 9597 H 875.451 -2.57759 7.10701 0
M  V30 9598 H 876.719 -3.73663 6.84103 0
M  V30 9599 N 880.948 -1.576 0.00335426 0
M  V30 9600 C 881.878 -2.11668 -0.985839 0
M  V30 9601 C 882.859 -1.02661 -1.35627 0
M  V30 9602 O 884.044 -1.30361 -1.43943 0
M  V30 9603 C 881.174 -2.62273 -2.27662 0
M  V30 9604 C 880.128 -3.75837 -2.0477 0
M  V30 9605 C 879.454 -4.12769 -3.39891 0
M  V30 9606 C 880.754 -5.02975 -1.40759 0
M  V30 9607 H 882.448 -2.9457 -0.535637 0
M  V30 9608 H 879.994 -1.41702 -0.256204 0
M  V30 9609 H 881.947 -2.98727 -2.97221 0
M  V30 9610 H 880.671 -1.76498 -2.74802 0
M  V30 9611 H 879.33 -3.39782 -1.37636 0
M  V30 9612 H 878.978 -3.24013 -3.8474 0
M  V30 9613 H 878.678 -4.89281 -3.25389 0
M  V30 9614 H 880.202 -4.51784 -4.1076 0
M  V30 9615 H 881.616 -5.37179 -2.00279 0
M  V30 9616 H 880.013 -5.84315 -1.36734 0
M  V30 9617 H 881.083 -4.83431 -0.377218 0
M  V30 9618 N 882.426 0.269451 -1.5528 0
M  V30 9619 C 883.356 1.33729 -1.91413 0
M  V30 9620 C 884.337 1.51348 -0.776391 0
M  V30 9621 O 885.522 1.64332 -1.03482 0
M  V30 9622 C 882.652 2.69618 -2.18914 0
M  V30 9623 C 881.606 2.66725 -3.34726 0
M  V30 9624 C 880.932 4.06199 -3.47716 0
M  V30 9625 C 882.232 2.25684 -4.71025 0
M  V30 9626 H 883.926 1.03736 -2.80854 0
M  V30 9627 H 881.472 0.497579 -1.3513 0
M  V30 9628 H 883.425 3.44436 -2.42779 0
M  V30 9629 H 882.149 3.01201 -1.26275 0
M  V30 9630 H 880.808 1.94365 -3.10834 0
M  V30 9631 H 880.456 4.3501 -2.52537 0
M  V30 9632 H 880.156 4.05157 -4.25583 0
M  V30 9633 H 881.68 4.8275 -3.73877 0
M  V30 9634 H 883.094 2.90225 -4.94411 0
M  V30 9635 H 881.491 2.35797 -5.51833 0
M  V30 9636 H 882.561 1.20819 -4.69607 0
M  V30 9637 N 883.904 1.48273 0.534124 0
M  V30 9638 C 884.851 1.62487 1.6391 0
M  V30 9639 C 885.821 0.467062 1.59398 0
M  V30 9640 O 887.006 0.690029 1.77885 0
M  V30 9641 C 884.146 1.66671 3.02183 0
M  V30 9642 C 883.259 2.9353 3.16961 0
M  V30 9643 C 882.394 2.88902 4.45768 0
M  V30 9644 C 881.433 4.10483 4.54059 0
M  V30 9645 N 880.57 4.03956 5.74251 0
M  V30 9646 H 885.41 2.56851 1.51101 0
M  V30 9647 H 882.947 1.27381 0.735704 0
M  V30 9648 H 884.905 1.67079 3.82283 0
M  V30 9649 H 883.535 0.758011 3.13774 0
M  V30 9650 H 882.587 3.02886 2.3014 0
M  V30 9651 H 883.899 3.83501 3.18949 0
M  V30 9652 H 883.053 2.87688 5.34154 0
M  V30 9653 H 881.792 1.96652 4.46295 0
M  V30 9654 H 880.797 4.11977 3.64081 0
M  V30 9655 H 882.022 5.03887 4.55274 0
M  V30 9656 H 879.968 3.14525 5.75682 0
M  V30 9657 H 879.885 4.87628 5.77715 0
M  V30 9658 H 881.153 4.06795 6.64935 0
M  V30 9659 N 885.382 -0.782676 1.36792 0
M  V30 9660 C 886.61 -1.57162 1.34565 0
M  V30 9661 C 887.025 -1.88664 -0.0715501 0
M  V30 9662 O 886.382 -1.50633 -1.03033 0
M  V30 9663 C 886.433 -2.88854 2.1736 0
M  V30 9664 O 886.154 -2.58707 3.53557 0
M  V30 9665 C 887.655 -3.83132 2.2299 0
M  V30 9666 H 884.875 -0.487245 0.461338 0
M  V30 9667 H 887.419 -0.970905 1.79982 0
M  V30 9668 H 885.574 -3.45377 1.7548 0
M  V30 9669 H 885.988 -3.42961 3.96835 0
M  V30 9670 H 887.462 -4.72575 2.85266 0
M  V30 9671 H 887.939 -4.21472 1.23524 0
M  V30 9672 H 888.545 -3.32541 2.65135 0
M  V30 9673 N 886.86 -1.21182 -1.00761 0
M  V30 9674 C 887.79 -0.992773 -2.11344 0
M  V30 9675 C 888.771 0.0813618 -1.69905 0
M  V30 9676 O 889.956 -0.0779503 -1.94043 0
M  V30 9677 C 887.086 -0.553826 -3.42856 0
M  V30 9678 C 886.04 -1.57223 -3.98077 0
M  V30 9679 C 885.366 -0.989605 -5.25463 0
M  V30 9680 C 886.666 -2.95839 -4.30438 0
M  V30 9681 H 888.36 -1.91766 -2.29927 0
M  V30 9682 H 885.906 -0.923426 -1.10494 0
M  V30 9683 H 887.859 -0.387771 -4.19612 0
M  V30 9684 H 886.583 0.406702 -3.24058 0
M  V30 9685 H 885.242 -1.7258 -3.23437 0
M  V30 9686 H 884.89 -0.0208743 -5.02996 0
M  V30 9687 H 884.59 -1.66984 -5.63374 0
M  V30 9688 H 886.114 -0.834815 -6.04866 0
M  V30 9689 H 887.528 -2.8394 -4.98047 0
M  V30 9690 H 885.925 -3.60851 -4.79486 0
M  V30 9691 H 886.995 -3.46882 -3.38823 0
M  V30 9692 N 888.338 1.20213 -1.01915 0
M  V30 9693 C 889.301 2.21307 -0.596327 0
M  V30 9694 C 890.301 1.57274 0.334879 0
M  V30 9695 O 891.491 1.73764 0.12322 0
M  V30 9696 C 888.623 3.40657 0.128808 0
M  V30 9697 H 889.816 2.60228 -1.49068 0
M  V30 9698 H 887.369 1.33721 -0.809226 0
M  V30 9699 H 888.104 3.07241 1.03796 0
M  V30 9700 H 887.889 3.88361 -0.540183 0
M  V30 9701 H 889.379 4.15564 0.411892 0
M  V30 9702 N 889.816 0.795718 1.36037 0
M  V30 9703 C 890.763 0.196548 2.29962 0
M  V30 9704 C 891.733 -0.663213 1.52285 0
M  V30 9705 O 892.918 -0.610574 1.80767 0
M  V30 9706 C 890.058 -0.657639 3.38776 0
M  V30 9707 C 889.171 0.221358 4.31433 0
M  V30 9708 C 888.306 -0.6398 5.27333 0
M  V30 9709 C 887.345 0.240265 6.11628 0
M  V30 9710 N 886.482 -0.580237 6.99698 0
M  V30 9711 H 891.322 1.00295 2.80615 0
M  V30 9712 H 888.859 0.506147 1.38118 0
M  V30 9713 H 890.817 -1.16793 4.00519 0
M  V30 9714 H 889.447 -1.42941 2.89426 0
M  V30 9715 H 888.499 0.84967 3.70789 0
M  V30 9716 H 889.811 0.899195 4.90628 0
M  V30 9717 H 888.965 -1.21566 5.94396 0
M  V30 9718 H 887.704 -1.35124 4.68607 0
M  V30 9719 H 886.709 0.828474 5.43522 0
M  V30 9720 H 887.934 0.949403 6.72431 0
M  V30 9721 H 885.88 -1.27585 6.43473 0
M  V30 9722 H 885.797 0.0397853 7.5599 0
M  V30 9723 H 887.065 -1.13972 7.71123 0
M  V30 9724 N 891.294 -1.47756 0.548274 0
M  V30 9725 C 892.54 -2.02789 0.0209265 0
M  V30 9726 C 892.873 -1.42268 -1.32187 0
M  V30 9727 O 892.148 -0.575001 -1.85806 0
M  V30 9728 C 892.431 -3.60007 -0.0816674 0
M  V30 9729 C 892.284 -4.30977 1.28759 0
M  V30 9730 C 893.603 -4.32777 -0.799515 0
M  V30 9731 H 890.722 -0.736944 0.00907884 0
M  V30 9732 H 893.364 -1.76282 0.708839 0
M  V30 9733 H 891.514 -3.82722 -0.667537 0
M  V30 9734 H 893.186 -4.19629 1.91597 0
M  V30 9735 H 891.429 -3.9168 1.86466 0
M  V30 9736 H 892.1 -5.39488 1.16861 0
M  V30 9737 H 894.576 -4.15001 -0.30216 0
M  V30 9738 H 893.452 -5.42431 -0.840239 0
M  V30 9739 H 893.713 -4.01358 -1.85375 0
M  V30 9740 N 892.772 -0.284283 -1.55015 0
M  V30 9741 C 893.719 0.599194 -2.22886 0
M  V30 9742 C 894.689 1.14264 -1.20553 0
M  V30 9743 O 895.874 1.19025 -1.49123 0
M  V30 9744 C 893.014 1.77317 -2.96062 0
M  V30 9745 C 892.127 1.26271 -4.13134 0
M  V30 9746 C 891.262 2.39922 -4.73931 0
M  V30 9747 C 890.301 1.85925 -5.8318 0
M  V30 9748 N 889.438 2.93084 -6.38002 0
M  V30 9749 H 894.278 0.0137816 -2.97997 0
M  V30 9750 H 891.815 -0.00496503 -1.47099 0
M  V30 9751 H 893.773 2.46339 -3.36709 0
M  V30 9752 H 892.403 2.33047 -2.23358 0
M  V30 9753 H 891.455 0.465296 -3.77544 0
M  V30 9754 H 892.767 0.827284 -4.91892 0
M  V30 9755 H 891.921 3.1692 -5.17346 0
M  V30 9756 H 890.66 2.86784 -3.9447 0
M  V30 9757 H 889.665 1.07409 -5.39206 0
M  V30 9758 H 890.89 1.39987 -6.64515 0
M  V30 9759 H 888.836 3.3931 -5.61431 0
M  V30 9760 H 888.753 2.53986 -7.12058 0
M  V30 9761 H 890.021 3.7003 -6.86075 0
M  V30 9762 N 894.251 1.57596 -0.0117121 0
M  V30 9763 C 895.199 2.1029 0.994035 0
M  V30 9764 C 896.193 1.02549 1.34833 0
M  V30 9765 O 897.399 1.21003 1.3326 0
M  V30 9766 H 893.774 0.671624 0.338268 0
M  V30 9767 H 895.745 2.93761 0.524147 0
M  V30 9768 C 894.494 2.63099 2.27319 0
M  V30 9769 H 893.817 3.45642 2.00927 0
M  V30 9770 H 895.257 3.03635 2.95942 0
M  V30 9771 C 893.716 1.55044 2.99104 0
M  V30 9772 O 894.246 0.940127 3.90544 0
M  V30 9773 N 892.452 1.27506 2.61133 0
M  V30 9774 H 891.999 1.77322 1.86855 0
M  V30 9775 H 891.957 0.554292 3.09475 0
M  V30 9776 N 895.729 -0.261212 1.5542 0
M  V30 9777 C 897.006 -1.01321 1.67312 0
M  V30 9778 C 897.386 -2.0388 0.547356 0
M  V30 9779 O 896.734 -2.24003 -0.451083 0
M  V30 9780 C 896.944 -1.65943 3.07024 0
M  V30 9781 C 898.292 -2.16666 3.65159 0
M  V30 9782 O 899.316 -1.75909 3.09733 0
M  V30 9783 O 898.175 -2.91455 4.62294 0
M  V30 9784 H 895.269 -0.470714 0.679968 0
M  V30 9785 H 897.815 -0.256133 1.67756 0
M  V30 9786 H 896.587 -0.916868 3.80407 0
M  V30 9787 H 896.21 -2.48308 3.1053 0
M  V30 9788 N 897.207 -1.48554 -0.526253 0
M  V30 9789 C 898.456 -1.56014 -1.27837 0
M  V30 9790 C 898.769 -0.240643 -1.94114 0
M  V30 9791 O 899.975 -0.193525 -2.70809 0
M  V30 9792 C 898.431 -2.75161 -2.31979 0
M  V30 9793 C 898.039 -4.13768 -1.71755 0
M  V30 9794 C 899.783 -2.91936 -3.08178 0
M  V30 9795 C 897.69 -5.24171 -2.7386 0
M  V30 9796 H 896.62 -0.58082 -0.480795 0
M  V30 9797 H 899.271 -1.74895 -0.555335 0
M  V30 9798 H 897.653 -2.49722 -3.07335 0
M  V30 9799 H 898.827 -4.49241 -1.02563 0
M  V30 9800 H 897.142 -4.02141 -1.08036 0
M  V30 9801 H 899.739 -3.71586 -3.84484 0
M  V30 9802 H 900.082 -2.01533 -3.64267 0
M  V30 9803 H 900.615 -3.17294 -2.39937 0
M  V30 9804 H 897.354 -6.16552 -2.22586 0
M  V30 9805 H 896.874 -4.93181 -3.41368 0
M  V30 9806 H 898.553 -5.52442 -3.36774 0
M  V30 9807 N 898.685 0.775411 -1.37205 0
M  V30 9808 C 899.633 1.90996 -1.32752 0
M  V30 9809 C 900.627 1.68006 -0.216907 0
M  V30 9810 O 901.833 1.7584 -0.384723 0
M  V30 9811 H 898.208 0.62803 -0.413621 0
M  V30 9812 H 900.179 1.91869 -2.28536 0
M  V30 9813 C 898.928 3.28211 -1.14772 0
M  V30 9814 H 898.251 3.46477 -1.99484 0
M  V30 9815 H 899.691 4.07907 -1.15706 0
M  V30 9816 C 898.15 3.3658 0.146852 0
M  V30 9817 O 898.68 3.85428 1.13173 0
M  V30 9818 N 896.886 2.89936 0.196305 0
M  V30 9819 H 896.433 2.50375 -0.605807 0
M  V30 9820 H 896.391 2.95916 1.06212 0
M  V30 9821 N 900.163 1.21714 1.00117 0
M  V30 9822 C 901.126 0.981338 2.07129 0
M  V30 9823 C 902.126 -0.0491116 1.60725 0
M  V30 9824 O 903.316 0.188555 1.73177 0
M  V30 9825 C 900.448 0.480608 3.37495 0
M  V30 9826 H 901.641 1.93075 2.29482 0
M  V30 9827 H 899.194 1.03467 1.17151 0
M  V30 9828 H 899.929 -0.473552 3.20824 0
M  V30 9829 H 899.714 1.22393 3.72508 0
M  V30 9830 H 901.204 0.33561 4.16249 0
M  V30 9831 N 901.641 -1.19671 1.02551 0
M  V30 9832 C 902.604 -2.20987 0.608055 0
M  V30 9833 C 903.604 -1.5745 -0.326534 0
M  V30 9834 O 904.794 -1.73827 -0.114003 0
M  V30 9835 C 901.926 -3.4072 -0.11074 0
M  V30 9836 H 903.119 -2.59434 1.50446 0
M  V30 9837 H 900.672 -1.3329 0.816307 0
M  V30 9838 H 901.407 -3.07787 -1.02165 0
M  V30 9839 H 901.192 -3.88069 0.560772 0
M  V30 9840 H 902.682 -4.15776 -0.389848 0
M  V30 9841 N 903.119 -0.802921 -1.35613 0
M  V30 9842 C 904.367 -0.380822 -1.9848 0
M  V30 9843 C 904.688 1.05464 -1.6402 0
M  V30 9844 O 903.958 1.72908 -0.920854 0
M  V30 9845 H 902.538 -0.137824 -0.734176 0
M  V30 9846 H 905.2 -1.02795 -1.65587 0
M  V30 9847 H 904.296 -0.483565 -3.08331 0
M  V30 9848 N 904.597 1.47463 -0.556102 0
M  V30 9849 C 905.507 2.33785 0.195378 0
M  V30 9850 C 906.523 1.48123 0.913 0
M  V30 9851 O 907.699 1.81053 0.882141 0
M  V30 9852 C 904.764 3.24795 1.21282 0
M  V30 9853 C 903.825 4.26346 0.502747 0
M  V30 9854 C 903.058 5.13007 1.47172 0
M  V30 9855 O 903.281 5.02103 2.70646 0
M  V30 9856 O 902.215 5.93588 0.996814 0
M  V30 9857 H 906.041 2.99341 -0.512676 0
M  V30 9858 H 903.626 1.46004 -0.31673 0
M  V30 9859 H 905.508 3.81015 1.80016 0
M  V30 9860 H 904.183 2.61868 1.90282 0
M  V30 9861 H 903.09 3.73889 -0.125757 0
M  V30 9862 H 904.423 4.91984 -0.145779 0
M  V30 9863 N 906.075 0.2925 1.54862 0
M  V30 9864 C 907.3 -0.32494 2.04839 0
M  V30 9865 C 907.725 -1.47381 1.16877 0
M  V30 9866 O 907.083 -1.80492 0.171028 0
M  V30 9867 C 907.131 -0.76694 3.5235 0
M  V30 9868 O 906.235 -1.87256 3.67436 0
M  V30 9869 H 905.576 -0.0645195 0.660858 0
M  V30 9870 H 908.106 0.431867 1.9999 0
M  V30 9871 H 908.116 -1.05804 3.94043 0
M  V30 9872 H 906.791 0.0735212 4.15835 0
M  V30 9873 H 905.368 -1.58266 3.37648 0
M  V30 9874 N 907.553 -1.57587 0.0200696 0
M  V30 9875 C 908.463 -2.13119 -0.980676 0
M  V30 9876 C 909.479 -1.08124 -1.36328 0
M  V30 9877 O 910.655 -1.40134 -1.44653 0
M  V30 9878 C 907.72 -2.63991 -2.24743 0
M  V30 9879 C 906.781 -3.83667 -1.9261 0
M  V30 9880 C 906.014 -4.32103 -3.13246 0
M  V30 9881 O 906.237 -3.79758 -4.25606 0
M  V30 9882 O 905.171 -5.24047 -2.96072 0
M  V30 9883 H 908.997 -2.98887 -0.538528 0
M  V30 9884 H 906.582 -1.48055 -0.19999 0
M  V30 9885 H 908.464 -2.9682 -2.99125 0
M  V30 9886 H 907.139 -1.81311 -2.68157 0
M  V30 9887 H 906.046 -3.55778 -1.15641 0
M  V30 9888 H 907.379 -4.67482 -1.54019 0
M  V30 9889 N 909.032 0.252966 -1.55557 0
M  V30 9890 C 909.942 1.33472 -1.92931 0
M  V30 9891 C 910.958 1.52983 -0.828985 0
M  V30 9892 O 912.134 1.66723 -1.12984 0
M  V30 9893 C 909.199 2.6704 -2.21112 0
M  V30 9894 C 908.26 2.56103 -3.44542 0
M  V30 9895 C 907.493 3.83302 -3.71369 0
M  V30 9896 O 907.716 4.84907 -3.00368 0
M  V30 9897 O 906.65 3.823 -4.64898 0
M  V30 9898 H 910.476 1.04768 -2.85057 0
M  V30 9899 H 908.061 0.453208 -1.4236 0
M  V30 9900 H 909.943 3.45981 -2.40572 0
M  V30 9901 H 908.618 2.95489 -1.32166 0
M  V30 9902 H 907.525 1.7547 -3.30396 0
M  V30 9903 H 908.858 2.32601 -4.33772 0
M  V30 9904 N 910.51 1.48831 0.518367 0
M  V30 9905 C 911.44 1.67119 1.63075 0
M  V30 9906 C 912.421 0.519948 1.61958 0
M  V30 9907 O 913.606 0.753824 1.78972 0
M  V30 9908 C 910.736 1.72158 3.01627 0
M  V30 9909 C 909.69 2.86898 3.17606 0
M  V30 9910 C 909.016 2.77035 4.57335 0
M  V30 9911 C 910.316 4.28057 2.99274 0
M  V30 9912 H 912.01 2.60248 1.48025 0
M  V30 9913 H 909.556 1.2524 0.710694 0
M  V30 9914 H 911.509 1.83539 3.7933 0
M  V30 9915 H 910.233 0.756157 3.17726 0
M  V30 9916 H 908.892 2.75091 2.42323 0
M  V30 9917 H 908.54 1.78438 4.70286 0
M  V30 9918 H 908.24 3.54036 4.6897 0
M  V30 9919 H 909.764 2.904 5.37122 0
M  V30 9920 H 911.178 4.40636 3.6676 0
M  V30 9921 H 909.575 5.06145 3.22393 0
M  V30 9922 H 910.645 4.4371 1.95574 0
M  V30 9923 N 911.988 -0.768124 1.37614 0
M  V30 9924 C 912.951 -1.86314 1.3349 0
M  V30 9925 C 913.951 -1.59025 0.23823 0
M  V30 9926 O 915.141 -1.6704 0.494288 0
M  V30 9927 C 912.273 -3.23519 1.07462 0
M  V30 9928 H 913.466 -1.91382 2.30896 0
M  V30 9929 H 911.019 -0.968267 1.22696 0
M  V30 9930 H 911.754 -3.24127 0.106028 0
M  V30 9931 H 911.539 -3.44719 1.86846 0
M  V30 9932 H 913.029 -4.03597 1.07236 0
M  V30 9933 N 913.466 -1.22244 -0.994698 0
M  V30 9934 C 914.414 -0.988118 -2.10568 0
M  V30 9935 C 915.408 0.0681541 -1.69263 0
M  V30 9936 O 916.614 -0.0841311 -1.79803 0
M  V30 9937 H 912.989 -0.302343 -0.688544 0
M  V30 9938 H 914.96 -1.93091 -2.27505 0
M  V30 9939 C 913.709 -0.580557 -3.42819 0
M  V30 9940 H 913.032 -1.385 -3.75044 0
M  V30 9941 H 914.472 -0.456004 -4.21541 0
M  V30 9942 C 912.931 0.709692 -3.2934 0
M  V30 9943 O 913.461 1.76259 -3.60965 0
M  V30 9944 N 911.667 0.680155 -2.82528 0
M  V30 9945 H 911.214 -0.176977 -2.56991 0
M  V30 9946 H 911.172 1.54372 -2.73892 0
M  V30 9947 N 914.944 1.19125 -1.03184 0
M  V30 9948 C 915.854 2.26112 -0.625329 0
M  V30 9949 C 916.87 1.7056 0.344298 0
M  V30 9950 O 918.046 2.0039 0.20144 0
M  V30 9951 C 915.111 3.46697 0.0145169 0
M  V30 9952 C 914.172 4.17419 -1.00299 0
M  V30 9953 C 913.405 5.32247 -0.393581 0
M  V30 9954 O 913.628 5.64724 0.802659 0
M  V30 9955 O 912.562 5.91428 -1.1179 0
M  V30 9956 H 916.388 2.63131 -1.51643 0
M  V30 9957 H 913.973 1.26036 -0.802197 0
M  V30 9958 H 915.855 4.19762 0.371139 0
M  V30 9959 H 914.53 3.11521 0.879581 0
M  V30 9960 H 913.437 3.4646 -1.41125 0
M  V30 9961 H 914.77 4.56573 -1.83852 0
M  V30 9962 N 916.422 0.810101 1.35185 0
M  V30 9963 C 917.652 0.404109 2.02609 0
M  V30 9964 C 918.06 -0.990748 1.61186 0
M  V30 9965 O 917.403 -1.65038 0.80674 0
M  V30 9966 C 917.465 0.412047 3.57131 0
M  V30 9967 C 917.129 1.75802 4.21832 0
M  V30 9968 C 918.126 2.71687 4.43263 0
M  V30 9969 C 915.811 2.04299 4.58876 0
M  V30 9970 C 917.805 3.9425 5.00845 0
M  V30 9971 C 915.492 3.27125 5.16171 0
M  V30 9972 C 916.49 4.21918 5.37098 0
M  V30 9973 O 916.178 5.42576 5.93184 0
M  V30 9974 H 915.91 0.161914 0.656323 0
M  V30 9975 H 918.464 1.09605 1.73712 0
M  V30 9976 H 916.694 -0.336509 3.85233 0
M  V30 9977 H 918.383 0.0278817 4.0589 0
M  V30 9978 H 919.149 2.50964 4.15021 0
M  V30 9979 H 915.028 1.31324 4.41899 0
M  V30 9980 H 918.572 4.68251 5.17094 0
M  V30 9981 H 914.469 3.47718 5.43841 0
M  V30 9982 H 915.237 5.43921 6.11631 0
M  V30 9983 N 917.9 -1.47166 0.563914 0
M  V30 9984 C 918.81 -2.33885 -0.182977 0
M  V30 9985 C 919.826 -1.48605 -0.905132 0
M  V30 9986 O 921.002 -1.81518 -0.872527 0
M  V30 9987 C 918.067 -3.25433 -1.19558 0
M  V30 9988 C 917.128 -4.26607 -0.480129 0
M  V30 9989 C 916.361 -5.1378 -1.44449 0
M  V30 9990 O 916.584 -5.03531 -2.67979 0
M  V30 9991 O 915.518 -5.94109 -0.965321 0
M  V30 9992 H 919.344 -2.99065 0.528544 0
M  V30 9993 H 916.929 -1.45834 0.324468 0
M  V30 9994 H 918.811 -3.81964 -1.77993 0
M  V30 9995 H 917.486 -2.62873 -1.8889 0
M  V30 9996 H 916.393 -3.73817 0.145583 0
M  V30 9997 H 917.726 -4.919 0.171868 0
M  V30 9998 N 919.378 -0.300708 -1.54705 0
M  V30 9999 C 920.606 0.31127 -2.04545 0
M  V30 10000 C 921.021 1.47542 -1.178 0
M  V30 10001 O 920.378 1.81361 -0.203571 0
M  V30 10002 C 920.429 0.767783 -3.53253 0
M  V30 10003 O 920.15 -0.350027 -4.36699 0
M  V30 10004 C 921.651 1.44494 -4.1909 0
M  V30 10005 H 918.871 0.067668 -0.667579 0
M  V30 10006 H 921.415 -0.440254 -1.99705 0
M  V30 10007 H 919.57 1.46933 -3.58454 0
M  V30 10008 H 919.984 0.00534038 -5.245 0
M  V30 10009 H 921.458 1.71553 -5.24665 0
M  V30 10010 H 921.935 2.3849 -3.68808 0
M  V30 10011 H 922.541 0.786581 -4.17963 0
M  V30 10012 N 920.856 1.57574 -0.0284266 0
M  V30 10013 C 922.272 1.56194 0.327958 0
M  V30 10014 C 922.472 1.03397 1.72949 0
M  V30 10015 O 921.528 0.680392 2.4316 0
M  V30 10016 C 922.841 3.00177 0.177196 0
M  V30 10017 C 924.389 3.12 0.250014 0
M  V30 10018 C 924.864 4.57821 0.128049 0
M  V30 10019 N 926.355 4.6283 0.185054 0
M  V30 10020 C 927.09 5.73286 0.114454 0
M  V30 10021 N 926.586 6.928 -0.00719225 0
M  V30 10022 N 928.379 5.61848 0.16839 0
M  V30 10023 H 920.53 1.90224 -0.944921 0
M  V30 10024 H 922.793 0.874987 -0.364832 0
M  V30 10025 H 922.499 3.42753 -0.788224 0
M  V30 10026 H 922.373 3.65101 0.94768 0
M  V30 10027 H 924.76 2.69337 1.20589 0
M  V30 10028 H 924.841 2.49799 -0.550835 0
M  V30 10029 H 924.485 5.01165 -0.824407 0
M  V30 10030 H 924.415 5.18001 0.947753 0
M  V30 10031 H 926.906 3.76867 0.279247 0
M  V30 10032 H 927.219 7.72781 -0.0543903 0
M  V30 10033 H 925.564 6.94987 -0.0419648 0
M  V30 10034 H 928.755 4.67367 0.261821 0
M  V30 10035 H 928.928 6.47907 0.109908 0
M  V30 10036 N 922.334 -0.244713 1.55689 0
M  V30 10037 C 923.297 -1.2864 1.89695 0
M  V30 10038 C 924.297 -1.40969 0.773583 0
M  V30 10039 O 925.487 -1.39632 1.04156 0
M  V30 10040 C 922.619 -2.66379 2.12732 0
M  V30 10041 H 923.812 -0.997033 2.82841 0
M  V30 10042 H 921.365 -0.484103 1.48614 0
M  V30 10043 H 922.1 -3.00452 1.22062 0
M  V30 10044 H 921.885 -2.58812 2.94549 0
M  V30 10045 H 923.375 -3.41592 2.40218 0
M  V30 10046 N 923.813 -1.49104 -0.510467 0
M  V30 10047 C 925.059 -1.58346 -1.26705 0
M  V30 10048 C 925.392 -0.265121 -1.92382 0
M  V30 10049 O 924.667 0.730558 -1.80258 0
M  V30 10050 C 924.95 -2.7359 -2.34137 0
M  V30 10051 C 924.803 -4.1519 -1.73024 0
M  V30 10052 C 926.122 -2.84511 -3.3577 0
M  V30 10053 H 923.241 -0.57637 -0.459311 0
M  V30 10054 H 925.883 -1.81353 -0.566658 0
M  V30 10055 H 924.033 -2.54105 -2.93876 0
M  V30 10056 H 925.705 -4.46167 -1.17186 0
M  V30 10057 H 923.948 -4.21279 -1.03473 0
M  V30 10058 H 924.619 -4.91683 -2.50903 0
M  V30 10059 H 927.095 -3.0222 -2.86011 0
M  V30 10060 H 925.971 -3.6684 -4.08313 0
M  V30 10061 H 926.232 -1.93471 -3.97519 0
M  V30 10062 N 925.291 0.760815 -1.38019 0
M  V30 10063 C 926.201 1.90526 -1.36884 0
M  V30 10064 C 927.217 1.71941 -0.266908 0
M  V30 10065 O 928.393 1.94988 -0.50413 0
M  V30 10066 C 925.458 3.25799 -1.18558 0
M  V30 10067 C 924.519 3.56961 -2.3849 0
M  V30 10068 C 923.752 4.8578 -2.21029 0
M  V30 10069 O 923.975 5.57629 -1.20023 0
M  V30 10070 O 922.909 5.16254 -3.0946 0
M  V30 10071 H 926.735 1.94437 -2.33298 0
M  V30 10072 H 924.32 0.905091 -1.18863 0
M  V30 10073 H 926.202 4.0669 -1.1037 0
M  V30 10074 H 924.877 3.22716 -0.252241 0
M  V30 10075 H 923.784 2.7626 -2.52252 0
M  V30 10076 H 925.117 3.64798 -3.30429 0
M  V30 10077 N 926.769 1.22769 0.988202 0
M  V30 10078 C 927.699 1.02627 2.09738 0
M  V30 10079 C 928.68 -0.0543211 1.70013 0
M  V30 10080 O 929.865 0.108811 1.93895 0
M  V30 10081 C 926.995 0.608302 3.41931 0
M  V30 10082 C 925.949 1.63536 3.95525 0
M  V30 10083 C 925.275 1.07308 5.23822 0
M  V30 10084 C 926.575 3.02649 4.25677 0
M  V30 10085 H 928.269 1.954 2.26847 0
M  V30 10086 H 925.815 0.940888 1.09011 0
M  V30 10087 H 927.768 0.454478 4.18942 0
M  V30 10088 H 926.492 -0.355095 3.24664 0
M  V30 10089 H 925.151 1.77704 3.20651 0
M  V30 10090 H 924.799 0.100894 5.02899 0
M  V30 10091 H 924.499 1.75925 5.60646 0
M  V30 10092 H 926.023 0.930938 6.03462 0
M  V30 10093 H 927.437 2.91828 4.93467 0
M  V30 10094 H 925.834 3.68434 4.73684 0
M  V30 10095 H 926.904 3.52228 3.33262 0
M  V30 10096 N 928.247 -1.18576 1.03814 0
M  V30 10097 C 929.494 -1.88493 0.740036 0
M  V30 10098 C 929.822 -1.80198 -0.732056 0
M  V30 10099 O 929.077 -1.19509 -1.54971 0
M  V30 10100 C 929.376 -3.38448 1.14837 0
M  V30 10101 C 929.042 -3.66947 2.62031 0
M  V30 10102 C 927.704 -3.74435 3.02244 0
M  V30 10103 C 930.056 -3.79534 3.57217 0
M  V30 10104 C 927.384 -3.91986 4.36536 0
M  V30 10105 C 929.736 -3.986 4.91223 0
M  V30 10106 C 928.4 -4.04323 5.31111 0
M  V30 10107 H 927.67 -0.689746 0.270798 0
M  V30 10108 H 930.317 -1.40364 1.3027 0
M  V30 10109 H 928.622 -3.88539 0.504472 0
M  V30 10110 H 930.319 -3.90882 0.89511 0
M  V30 10111 H 926.909 -3.61734 2.29883 0
M  V30 10112 H 931.093 -3.73083 3.27296 0
M  V30 10113 H 926.349 -3.9466 4.66962 0
M  V30 10114 H 930.523 -4.07281 5.64885 0
M  V30 10115 H 928.15 -4.17676 6.35178 0
M  V30 10116 N 929.725 -0.817259 -1.34754 0
M  V30 10117 C 930.953 -0.415451 -2.02686 0
M  V30 10118 C 931.368 0.97688 -1.61563 0
M  V30 10119 O 930.725 1.63125 -0.818321 0
M  V30 10120 C 930.776 -0.501486 -3.58005 0
M  V30 10121 O 930.497 -1.83893 -3.97637 0
M  V30 10122 C 931.998 -0.0938504 -4.43201 0
M  V30 10123 H 929.218 -0.16742 -0.649778 0
M  V30 10124 H 931.762 -1.10384 -1.7215 0
M  V30 10125 H 929.917 0.138766 -3.87151 0
M  V30 10126 H 930.331 -1.8092 -4.92309 0
M  V30 10127 H 931.805 -0.205145 -5.51619 0
M  V30 10128 H 932.282 0.962011 -4.28535 0
M  V30 10129 H 932.888 -0.707677 -4.19371 0
M  V30 10130 N 931.203 1.46865 -0.571711 0
M  V30 10131 C 932.113 2.33979 0.170571 0
M  V30 10132 C 933.129 1.49083 0.897239 0
M  V30 10133 O 934.305 1.81979 0.862888 0
M  V30 10134 C 931.37 3.26063 1.17831 0
M  V30 10135 C 930.431 4.26855 0.457499 0
M  V30 10136 C 929.664 5.14539 1.41722 0
M  V30 10137 O 929.887 5.04945 2.65305 0
M  V30 10138 O 928.821 5.94612 0.9338 0
M  V30 10139 H 932.647 2.98781 -0.544396 0
M  V30 10140 H 930.232 1.4566 -0.332198 0
M  V30 10141 H 932.114 3.82903 1.75965 0
M  V30 10142 H 930.789 2.63871 1.87493 0
M  V30 10143 H 929.696 3.73734 -0.165406 0
M  V30 10144 H 931.029 4.91802 -0.197953 0
M  V30 10145 N 932.681 0.308908 1.54543 0
M  V30 10146 C 933.921 -0.298811 2.02204 0
M  V30 10147 C 934.285 -1.50484 1.19242 0
M  V30 10148 O 935.486 -2.18445 1.56637 0
M  V30 10149 C 933.757 -0.638849 3.51644 0
M  V30 10150 S 935.316 -1.22831 4.21258 0
M  V30 10151 H 932.134 -0.0912638 0.705118 0
M  V30 10152 H 934.736 0.438622 1.90516 0
M  V30 10153 H 933.44 0.24726 4.09654 0
M  V30 10154 H 932.971 -1.40687 3.67384 0
M  V30 10155 H 934.986 -2.51579 4.27694 0
M  V30 10156 N 934.159 -1.57557 0.0367827 0
M  V30 10157 C 935.389 -1.96134 -0.649225 0
M  V30 10158 C 935.797 -0.912279 -1.65753 0
M  V30 10159 O 935.14 0.113569 -1.83349 0
M  V30 10160 C 935.202 -3.30889 -1.40545 0
M  V30 10161 C 934.866 -4.53622 -0.554609 0
M  V30 10162 C 935.863 -5.19611 0.17331 0
M  V30 10163 C 933.548 -4.99907 -0.48976 0
M  V30 10164 C 935.542 -6.3021 0.95467 0
M  V30 10165 C 933.229 -6.10386 0.295299 0
M  V30 10166 C 934.227 -6.75398 1.01621 0
M  V30 10167 O 933.915 -7.83755 1.78839 0
M  V30 10168 H 933.647 -0.650662 -0.183344 0
M  V30 10169 H 936.201 -2.05179 0.0951512 0
M  V30 10170 H 934.431 -3.18356 -2.19513 0
M  V30 10171 H 936.12 -3.54315 -1.9803 0
M  V30 10172 H 936.886 -4.84819 0.132589 0
M  V30 10173 H 932.765 -4.49105 -1.04046 0
M  V30 10174 H 936.309 -6.80886 1.51789 0
M  V30 10175 H 932.206 -6.44616 0.33771 0
M  V30 10176 H 932.974 -8.0046 1.70898 0
M  V30 10177 N 935.637 0.236453 -1.55816 0
M  V30 10178 C 936.862 0.98449 -1.82545 0
M  V30 10179 C 937.287 1.77755 -0.615206 0
M  V30 10180 O 936.645 1.75982 0.435895 0
M  V30 10181 C 936.693 1.88973 -3.07118 0
M  V30 10182 O 935.797 2.98298 -2.84766 0
M  V30 10183 H 935.138 0.279577 -0.602273 0
M  V30 10184 H 937.668 0.254277 -2.03014 0
M  V30 10185 H 937.678 2.3024 -3.36829 0
M  V30 10186 H 936.353 1.30671 -3.94839 0
M  V30 10187 H 934.93 2.61085 -2.6625 0
M  V30 10188 N 937.115 1.49373 0.502552 0
M  V30 10189 C 938.34 1.62752 1.28556 0
M  V30 10190 C 938.765 0.298285 1.8572 0
M  V30 10191 O 938.123 -0.733885 1.65782 0
M  V30 10192 C 938.171 2.69778 2.39274 0
M  V30 10193 O 937.275 2.28843 3.43081 0
M  V30 10194 H 936.616 0.544799 0.379592 0
M  V30 10195 H 939.146 1.9555 0.601792 0
M  V30 10196 H 939.156 2.91899 2.8506 0
M  V30 10197 H 937.831 3.66266 1.97033 0
M  V30 10198 H 936.408 2.17047 3.03224 0
M  V30 10199 N 938.594 -0.753485 1.38421 0
M  V30 10200 C 939.871 -1.50318 1.25155 0
M  V30 10201 C 940.251 -2.10588 -0.147003 0
M  V30 10202 O 939.599 -1.97071 -1.15651 0
M  V30 10203 C 939.809 -2.56946 2.36177 0
M  V30 10204 C 941.157 -3.23846 2.74607 0
M  V30 10205 O 942.181 -2.67251 2.3549 0
M  V30 10206 O 941.04 -4.2621 3.42064 0
M  V30 10207 H 938.134 -0.666624 0.48943 0
M  V30 10208 H 940.68 -0.788887 1.50249 0
M  V30 10209 H 939.452 -2.1066 3.29754 0
M  V30 10210 H 939.075 -3.35956 2.12648 0
M  V30 10211 N 940.072 -1.23292 -0.981677 0
M  V30 10212 C 940.982 -1.02964 -2.10798 0
M  V30 10213 C 941.998 0.0254674 -1.73981 0
M  V30 10214 O 943.174 -0.169706 -2.00684 0
M  V30 10215 C 940.239 -0.621934 -3.41076 0
M  V30 10216 C 939.3 -1.75194 -3.91926 0
M  V30 10217 C 938.533 -1.36359 -5.15986 0
M  V30 10218 O 938.756 -0.247265 -5.69864 0
M  V30 10219 O 937.69 -2.18421 -5.60871 0
M  V30 10220 H 941.516 -1.97354 -2.30836 0
M  V30 10221 H 939.101 -1.01986 -1.09175 0
M  V30 10222 H 940.983 -0.405446 -4.19445 0
M  V30 10223 H 939.658 0.29299 -3.22371 0
M  V30 10224 H 938.565 -2.02305 -3.1468 0
M  V30 10225 H 939.898 -2.64513 -4.15083 0
M  V30 10226 N 941.55 1.18024 -1.04442 0
M  V30 10227 C 942.827 1.8398 -0.664125 0
M  V30 10228 C 943.207 1.92961 0.856116 0
M  V30 10229 O 942.555 1.45839 1.75907 0
M  V30 10230 C 942.765 3.22069 -1.34433 0
M  V30 10231 C 944.113 3.98063 -1.47754 0
M  V30 10232 O 945.137 3.31523 -1.30274 0
M  V30 10233 O 943.996 5.17291 -1.76272 0
M  V30 10234 H 941.09 0.793543 -0.23285 0
M  V30 10235 H 943.636 1.25385 -1.14354 0
M  V30 10236 H 942.408 3.10458 -2.38184 0
M  V30 10237 H 942.031 3.88325 -0.853782 0
M  V30 10238 N 943.028 0.824394 1.34319 0
M  V30 10239 C 943.958 0.262077 2.32025 0
M  V30 10240 C 944.939 -0.622277 1.58309 0
M  V30 10241 O 946.124 -0.548848 1.86283 0
M  V30 10242 C 943.254 -0.57567 3.42496 0
M  V30 10243 C 942.208 0.21167 4.27476 0
M  V30 10244 C 941.534 -0.748913 5.29429 0
M  V30 10245 C 942.834 1.42068 5.02607 0
M  V30 10246 H 944.528 1.07842 2.79304 0
M  V30 10247 H 942.074 0.520022 1.34282 0
M  V30 10248 H 944.027 -0.979251 4.09864 0
M  V30 10249 H 942.751 -1.42508 2.93869 0
M  V30 10250 H 941.41 0.596636 3.61712 0
M  V30 10251 H 941.058 -1.59432 4.77064 0
M  V30 10252 H 940.758 -0.226313 5.87164 0
M  V30 10253 H 942.282 -1.15032 5.99667 0
M  V30 10254 H 943.696 1.09103 5.62823 0
M  V30 10255 H 942.093 1.87903 5.69923 0
M  V30 10256 H 943.163 2.1981 4.32217 0
M  V30 10257 N 944.506 -1.46559 0.579492 0
M  V30 10258 C 945.469 -2.28739 -0.145371 0
M  V30 10259 C 946.469 -1.38211 -0.821854 0
M  V30 10260 O 947.659 -1.6062 -0.674302 0
M  V30 10261 C 944.791 -3.18507 -1.21515 0
M  V30 10262 H 945.984 -2.94301 0.576786 0
M  V30 10263 H 943.537 -1.52616 0.337327 0
M  V30 10264 H 944.272 -2.57685 -1.96899 0
M  V30 10265 H 944.057 -3.85157 -0.734616 0
M  V30 10266 H 945.547 -3.80369 -1.72363 0
M  V30 10267 N 945.984 -0.3171 -1.54377 0
M  V30 10268 C 946.894 0.560867 -2.27797 0
M  V30 10269 C 947.91 1.13473 -1.31908 0
M  V30 10270 O 949.086 1.15608 -1.64914 0
M  V30 10271 C 946.151 1.70886 -3.0166 0
M  V30 10272 C 945.212 1.16745 -4.13121 0
M  V30 10273 C 944.445 2.26073 -4.83453 0
M  V30 10274 O 944.668 3.46292 -4.53252 0
M  V30 10275 O 943.602 1.91856 -5.70504 0
M  V30 10276 H 947.428 -0.035193 -3.0368 0
M  V30 10277 H 945.013 -0.0830062 -1.49169 0
M  V30 10278 H 946.895 2.37736 -3.47936 0
M  V30 10279 H 945.57 2.29122 -2.28658 0
M  V30 10280 H 944.477 0.464224 -3.71209 0
M  V30 10281 H 945.81 0.630307 -4.88147 0
M  V30 10282 N 947.462 1.57535 -0.0451378 0
M  V30 10283 C 948.394 2.08109 0.960372 0
M  V30 10284 C 949.407 1.0077 1.27864 0
M  V30 10285 O 950.596 1.28351 1.24049 0
M  V30 10286 C 947.696 2.50414 2.28355 0
M  V30 10287 C 946.869 3.8102 2.14808 0
M  V30 10288 C 945.928 4.09702 3.30198 0
M  V30 10289 O 944.954 4.79715 3.0637 0
M  V30 10290 N 946.156 3.61138 4.54489 0
M  V30 10291 H 948.921 2.94999 0.528752 0
M  V30 10292 H 946.482 1.61283 0.141248 0
M  V30 10293 H 948.474 2.66683 3.04405 0
M  V30 10294 H 947.044 1.68805 2.63104 0
M  V30 10295 H 946.264 3.74392 1.23387 0
M  V30 10296 H 947.552 4.66559 2.02978 0
M  V30 10297 H 946.95 3.04527 4.76739 0
M  V30 10298 H 945.507 3.82656 5.27653 0
M  V30 10299 N 948.94 -0.228186 1.55939 0
M  V30 10300 C 949.87 -1.28607 1.94891 0
M  V30 10301 C 950.851 -1.49236 0.816245 0
M  V30 10302 O 952.036 -1.61531 1.07803 0
M  V30 10303 C 949.166 -2.63719 2.25986 0
M  V30 10304 C 948.12 -2.57757 3.4168 0
M  V30 10305 C 947.446 -3.96837 3.58364 0
M  V30 10306 C 948.746 -2.13116 4.76843 0
M  V30 10307 H 950.44 -0.962531 2.83506 0
M  V30 10308 H 947.986 -0.461577 1.36402 0
M  V30 10309 H 949.939 -3.37878 2.51826 0
M  V30 10310 H 948.663 -2.97747 1.34217 0
M  V30 10311 H 947.322 -1.86055 3.15878 0
M  V30 10312 H 946.97 -4.28162 2.63982 0
M  V30 10313 H 946.67 -3.93731 4.36176 0
M  V30 10314 H 948.194 -4.72668 3.86545 0
M  V30 10315 H 949.608 -2.77015 5.01932 0
M  V30 10316 H 948.005 -2.21083 5.57891 0
M  V30 10317 H 949.075 -1.08326 4.72645 0
M  V30 10318 N 950.418 -1.49637 -0.494624 0
M  V30 10319 C 951.348 -1.69692 -1.60396 0
M  V30 10320 C 952.329 -0.545648 -1.61111 0
M  V30 10321 O 953.514 -0.782202 -1.77751 0
M  V30 10322 C 950.644 -1.76934 -2.9885 0
M  V30 10323 C 949.598 -2.91915 -3.13001 0
M  V30 10324 C 948.924 -2.84276 -4.5287 0
M  V30 10325 C 950.224 -4.32764 -2.92426 0
M  V30 10326 H 951.918 -2.6257 -1.43866 0
M  V30 10327 H 949.464 -1.26355 -0.690679 0
M  V30 10328 H 951.417 -1.8955 -3.76362 0
M  V30 10329 H 950.141 -0.806609 -3.16483 0
M  V30 10330 H 948.8 -2.78911 -2.37916 0
M  V30 10331 H 948.448 -1.85897 -4.67388 0
M  V30 10332 H 948.148 -3.61452 -4.63278 0
M  V30 10333 H 949.672 -2.98909 -5.32434 0
M  V30 10334 H 951.086 -4.46415 -3.59703 0
M  V30 10335 H 949.483 -5.1121 -3.143 0
M  V30 10336 H 950.553 -4.46765 -1.88491 0
M  V30 10337 N 951.896 0.746133 -1.38819 0
M  V30 10338 C 953.142 1.50768 -1.35635 0
M  V30 10339 C 953.475 1.94132 0.0512435 0
M  V30 10340 O 952.75 1.65979 1.01396 0
M  V30 10341 C 953.033 2.7551 -2.31875 0
M  V30 10342 C 952.886 2.38236 -3.81528 0
M  V30 10343 C 954.205 3.77566 -2.26124 0
M  V30 10344 H 951.324 0.546922 -0.494009 0
M  V30 10345 H 953.966 0.854017 -1.69725 0
M  V30 10346 H 952.116 3.31285 -2.02935 0
M  V30 10347 H 953.788 1.88178 -4.21173 0
M  V30 10348 H 952.031 1.70601 -3.98846 0
M  V30 10349 H 952.702 3.27517 -4.44339 0
M  V30 10350 H 955.178 3.31349 -2.51689 0
M  V30 10351 H 954.054 4.62531 -2.95561 0
M  V30 10352 H 954.315 4.23689 -1.26254 0
M  V30 10353 N 953.375 1.23811 0.975125 0
M  V30 10354 C 954.605 1.0986 1.7497 0
M  V30 10355 C 955.013 -0.352366 1.8589 0
M  V30 10356 O 954.356 -1.2553 1.34119 0
M  V30 10357 C 954.418 1.65584 3.19096 0
M  V30 10358 C 954.082 3.14395 3.3167 0
M  V30 10359 C 955.079 4.1163 3.17579 0
M  V30 10360 C 952.764 3.54208 3.56149 0
M  V30 10361 C 954.758 5.46661 3.27781 0
M  V30 10362 C 952.445 4.89382 3.65989 0
M  V30 10363 C 953.443 5.85418 3.51817 0
M  V30 10364 O 953.131 7.18135 3.61299 0
M  V30 10365 H 952.863 0.384854 0.555755 0
M  V30 10366 H 955.417 1.64242 1.23343 0
M  V30 10367 H 953.647 1.05627 3.71994 0
M  V30 10368 H 955.336 1.47032 3.78334 0
M  V30 10369 H 956.102 3.82214 2.98559 0
M  V30 10370 H 951.981 2.79968 3.66249 0
M  V30 10371 H 955.525 6.21601 3.16636 0
M  V30 10372 H 951.422 5.18473 3.84521 0
M  V30 10373 H 952.19 7.25956 3.78061 0
M  V30 10374 N 954.853 -1.17469 1.05066 0
M  V30 10375 C 956.078 -1.92162 0.780298 0
M  V30 10376 C 956.503 -1.76222 -0.657832 0
M  V30 10377 O 955.861 -1.0791 -1.45688 0
M  V30 10378 C 955.909 -3.41292 1.16414 0
M  V30 10379 O 955.013 -4.1134 0.295531 0
M  V30 10380 H 954.354 -0.599127 0.286257 0
M  V30 10381 H 956.884 -1.48903 1.40318 0
M  V30 10382 H 956.894 -3.92029 1.13036 0
M  V30 10383 H 955.569 -3.52214 2.21175 0
M  V30 10384 H 954.146 -3.70857 0.389797 0
M  V30 10385 N 956.331 -0.831506 -1.3388 0
M  V30 10386 C 957.571 -0.429648 -1.99833 0
M  V30 10387 C 957.935 0.990796 -1.6446 0
M  V30 10388 O 959.136 1.49599 -2.23324 0
M  V30 10389 C 957.407 -0.635558 -3.51704 0
M  V30 10390 S 958.966 -0.327824 -4.37574 0
M  V30 10391 H 955.784 -0.161939 -0.692313 0
M  V30 10392 H 958.386 -1.07919 -1.63015 0
M  V30 10393 H 957.09 -1.66887 -3.74936 0
M  V30 10394 H 956.621 0.0284073 -3.9339 0
M  V30 10395 H 958.636 0.855231 -4.88774 0
M  V30 10396 N 957.809 1.4625 -0.587256 0
M  V30 10397 C 958.719 2.34147 0.145744 0
M  V30 10398 C 959.735 1.50026 0.881376 0
M  V30 10399 O 960.911 1.82884 0.843539 0
M  V30 10400 C 957.976 3.27294 1.14366 0
M  V30 10401 C 957.037 4.27317 0.412199 0
M  V30 10402 C 956.27 5.16013 1.36257 0
M  V30 10403 O 956.493 5.0773 2.59934 0
M  V30 10404 O 955.427 5.95569 0.870681 0
M  V30 10405 H 959.253 2.98187 -0.576055 0
M  V30 10406 H 956.838 1.45299 -0.347628 0
M  V30 10407 H 958.72 3.84747 1.71894 0
M  V30 10408 H 957.395 2.65845 1.84684 0
M  V30 10409 H 956.302 3.73538 -0.205036 0
M  V30 10410 H 957.635 4.91564 -0.250104 0
M  V30 10411 N 959.287 0.325282 1.54207 0
M  V30 10412 C 960.25 -0.527228 2.23054 0
M  V30 10413 C 961.25 -1.04217 1.22456 0
M  V30 10414 O 962.44 -0.934325 1.47024 0
M  V30 10415 C 959.572 -1.7325 2.93594 0
M  V30 10416 H 960.765 0.0746423 2.99807 0
M  V30 10417 H 958.318 0.0763872 1.56113 0
M  V30 10418 H 959.053 -2.37356 2.20981 0
M  V30 10419 H 958.838 -1.37065 3.67363 0
M  V30 10420 H 960.328 -2.3376 3.46043 0
M  V30 10421 N 960.765 -1.57509 0.0534917 0
M  V30 10422 C 962.011 -1.93887 -0.614776 0
M  V30 10423 C 962.366 -0.932098 -1.68314 0
M  V30 10424 O 961.659 0.0483848 -1.91539 0
M  V30 10425 C 961.853 -3.34734 -1.25251 0
M  V30 10426 C 961.682 -4.49019 -0.247444 0
M  V30 10427 C 960.452 -5.05042 0.161406 0
M  V30 10428 C 962.65 -5.11784 0.508059 0
M  V30 10429 N 960.632 -6.02858 1.15909 0
M  V30 10430 C 962.003 -6.04928 1.35876 0
M  V30 10431 C 964.058 -4.94671 0.56612 0
M  V30 10432 C 962.761 -6.82797 2.26232 0
M  V30 10433 C 964.787 -5.73168 1.45712 0
M  V30 10434 C 964.149 -6.65946 2.29554 0
M  V30 10435 H 960.248 -0.756899 -0.196538 0
M  V30 10436 H 962.832 -1.94289 0.126365 0
M  V30 10437 H 961.003 -3.35104 -1.96367 0
M  V30 10438 H 962.735 -3.58395 -1.87977 0
M  V30 10439 H 959.49 -4.73098 -0.218025 0
M  V30 10440 H 959.914 -6.56462 1.6549 0
M  V30 10441 H 964.556 -4.22746 -0.0678652 0
M  V30 10442 H 962.274 -7.54012 2.90675 0
M  V30 10443 H 965.86 -5.61953 1.50664 0
M  V30 10444 H 964.74 -7.25627 2.97381 0
M  V30 10445 N 962.243 0.219913 -1.56058 0
M  V30 10446 C 963.491 0.942199 -1.78793 0
M  V30 10447 C 963.812 1.84804 -0.622284 0
M  V30 10448 O 963.082 1.9255 0.360735 0
M  V30 10449 H 961.662 0.350895 -0.659455 0
M  V30 10450 H 964.324 0.231376 -1.93522 0
M  V30 10451 H 963.42 1.54804 -2.71002 0
M  V30 10452 N 963.721 1.49897 0.486681 0
M  V30 10453 C 964.969 1.59789 1.23742 0
M  V30 10454 C 965.29 0.293056 1.92785 0
M  V30 10455 O 964.56 -0.688534 1.83401 0
M  V30 10456 H 963.14 0.588775 0.459731 0
M  V30 10457 H 965.802 1.86597 0.562808 0
M  V30 10458 H 964.898 2.40121 1.9937 0
M  V30 10459 N 965.199 -0.738761 1.39212 0
M  V30 10460 C 966.424 -1.5331 1.39681 0
M  V30 10461 C 966.849 -1.88098 -0.00768715 0
M  V30 10462 O 966.207 -1.51642 -0.993699 0
M  V30 10463 C 966.255 -2.79958 2.27279 0
M  V30 10464 O 965.359 -3.75727 1.70008 0
M  V30 10465 H 964.7 -0.463131 0.475821 0
M  V30 10466 H 967.23 -0.911768 1.83161 0
M  V30 10467 H 967.24 -3.28732 2.41659 0
M  V30 10468 H 965.915 -2.5397 3.29351 0
M  V30 10469 H 964.492 -3.34483 1.64851 0
M  V30 10470 N 966.677 -1.24326 -0.968545 0
M  V30 10471 C 967.625 -1.03256 -2.08425 0
M  V30 10472 C 968.619 0.0322356 -1.69369 0
M  V30 10473 O 969.825 -0.122251 -1.79584 0
M  V30 10474 H 966.2 -0.31688 -0.681976 0
M  V30 10475 H 968.171 -1.97873 -2.23358 0
M  V30 10476 C 966.92 -0.653144 -3.4151 0
M  V30 10477 H 966.243 -1.46424 -3.72021 0
M  V30 10478 H 967.683 -0.545316 -4.20479 0
M  V30 10479 C 966.142 0.639674 -3.30771 0
M  V30 10480 O 966.672 1.68563 -3.64622 0
M  V30 10481 N 964.878 0.620074 -2.83907 0
M  V30 10482 H 964.425 -0.231449 -2.56558 0
M  V30 10483 H 964.383 1.48528 -2.77104 0
M  V30 10484 N 968.156 1.1691 -1.05688 0
M  V30 10485 C 969.396 1.88972 -0.779044 0
M  V30 10486 C 969.76 1.7949 0.681708 0
M  V30 10487 O 970.961 2.46418 1.07386 0
M  V30 10488 C 969.232 3.34737 -1.25242 0
M  V30 10489 S 970.791 4.24718 -1.10272 0
M  V30 10490 H 967.609 0.652349 -0.282776 0
M  V30 10491 H 970.211 1.41162 -1.35254 0
M  V30 10492 H 968.915 3.39175 -2.3106 0
M  V30 10493 H 968.446 3.87593 -0.673417 0
M  V30 10494 H 970.461 4.96191 -0.0299004 0
M  V30 10495 N 969.634 0.838594 1.33437 0
M  V30 10496 C 970.564 0.286672 2.31734 0
M  V30 10497 C 971.545 -0.605451 1.5896 0
M  V30 10498 O 972.73 -0.529059 1.86854 0
M  V30 10499 C 969.86 -0.539311 3.43087 0
M  V30 10500 C 968.814 0.256997 4.27228 0
M  V30 10501 C 968.14 -0.692718 5.30194 0
M  V30 10502 C 969.44 1.47391 5.01072 0
M  V30 10503 H 971.134 1.10798 2.78144 0
M  V30 10504 H 968.68 0.534235 1.33723 0
M  V30 10505 H 970.633 -0.935724 4.1088 0
M  V30 10506 H 969.357 -1.39383 2.95364 0
M  V30 10507 H 968.016 0.634967 3.61059 0
M  V30 10508 H 967.664 -1.54363 4.78729 0
M  V30 10509 H 967.364 -0.164023 5.87371 0
M  V30 10510 H 968.888 -1.08665 6.00853 0
M  V30 10511 H 970.302 1.15067 5.61634 0
M  V30 10512 H 968.699 1.93937 5.67898 0
M  V30 10513 H 969.769 2.24382 4.29861 0
M  V30 10514 N 971.112 -1.45937 0.595003 0
M  V30 10515 C 972.022 -2.34221 -0.133325 0
M  V30 10516 C 973.038 -1.50491 -0.873407 0
M  V30 10517 O 974.214 -1.83328 -0.833828 0
M  V30 10518 C 971.279 -3.27896 -1.12628 0
M  V30 10519 C 970.34 -4.27529 -0.389532 0
M  V30 10520 C 969.573 -5.16729 -1.33519 0
M  V30 10521 O 969.796 -5.09102 -2.57238 0
M  V30 10522 O 968.73 -5.96023 -0.839084 0
M  V30 10523 H 972.556 -2.97877 0.591861 0
M  V30 10524 H 970.141 -1.45113 0.355329 0
M  V30 10525 H 972.023 -3.85654 -1.69851 0
M  V30 10526 H 970.698 -2.6682 -1.83272 0
M  V30 10527 H 969.605 -3.73424 0.224843 0
M  V30 10528 H 970.938 -4.91425 0.276169 0
M  V30 10529 N 972.59 -0.333456 -1.54032 0
M  V30 10530 C 973.52 0.52051 -2.27625 0
M  V30 10531 C 974.501 1.1111 -1.28797 0
M  V30 10532 O 975.686 1.13438 -1.57625 0
M  V30 10533 C 972.816 1.67663 -3.04149 0
M  V30 10534 C 971.77 1.21487 -4.10396 0
M  V30 10535 C 971.096 2.45872 -4.74817 0
M  V30 10536 C 972.396 0.322603 -5.21303 0
M  V30 10537 H 974.09 -0.0933823 -2.99254 0
M  V30 10538 H 971.636 -0.0463526 -1.43925 0
M  V30 10539 H 973.589 2.28041 -3.54366 0
M  V30 10540 H 972.313 2.31727 -2.30153 0
M  V30 10541 H 970.972 0.633966 -3.61077 0
M  V30 10542 H 970.62 3.0832 -3.97426 0
M  V30 10543 H 970.32 2.15662 -5.46593 0
M  V30 10544 H 971.844 3.06994 -5.27814 0
M  V30 10545 H 973.258 0.832942 -5.67217 0
M  V30 10546 H 971.655 0.112843 -5.99994 0
M  V30 10547 H 972.725 -0.643954 -4.80605 0
M  V30 10548 N 974.068 1.57479 -0.061844 0
M  V30 10549 C 975.031 2.1104 0.894127 0
M  V30 10550 C 976.031 1.03227 1.23292 0
M  V30 10551 O 977.221 1.29256 1.16784 0
M  V30 10552 C 974.353 2.6035 2.20069 0
M  V30 10553 H 975.546 2.96807 0.429619 0
M  V30 10554 H 973.099 1.55181 0.18672 0
M  V30 10555 H 973.834 1.78008 2.71079 0
M  V30 10556 H 973.619 3.39146 1.9678 0
M  V30 10557 H 975.109 3.019 2.88525 0
M  V30 10558 N 975.546 -0.211634 1.56173 0
M  V30 10559 C 976.792 -0.935935 1.79911 0
M  V30 10560 C 977.125 -1.83589 0.633155 0
M  V30 10561 O 976.4 -1.91004 -0.367132 0
M  V30 10562 C 976.683 -1.76638 3.13801 0
M  V30 10563 C 976.536 -0.892259 4.40861 0
M  V30 10564 C 977.855 -2.74224 3.44223 0
M  V30 10565 H 974.974 -0.338822 0.654499 0
M  V30 10566 H 977.616 -0.20422 1.88899 0
M  V30 10567 H 975.766 -2.39021 3.0627 0
M  V30 10568 H 977.438 -0.284407 4.60422 0
M  V30 10569 H 975.681 -0.198145 4.33347 0
M  V30 10570 H 976.352 -1.50793 5.31004 0
M  V30 10571 H 978.828 -2.21975 3.51946 0
M  V30 10572 H 977.704 -3.29424 4.39057 0
M  V30 10573 H 977.965 -3.52455 2.66885 0
M  V30 10574 N 977.024 -1.50153 -0.478725 0
M  V30 10575 C 977.934 -1.71232 -1.60364 0
M  V30 10576 C 978.95 -0.595269 -1.63501 0
M  V30 10577 O 980.126 -0.872683 -1.81511 0
M  V30 10578 C 977.191 -1.79487 -2.96623 0
M  V30 10579 C 976.252 -3.03185 -3.03937 0
M  V30 10580 C 975.485 -3.11036 -4.33696 0
M  V30 10581 O 975.708 -2.2588 -5.23769 0
M  V30 10582 O 974.642 -4.03698 -4.46443 0
M  V30 10583 H 978.468 -2.66575 -1.45505 0
M  V30 10584 H 976.053 -1.34158 -0.65741 0
M  V30 10585 H 977.935 -1.8714 -3.77567 0
M  V30 10586 H 976.61 -0.873264 -3.11698 0
M  V30 10587 H 975.517 -3.01036 -2.22099 0
M  V30 10588 H 976.85 -3.94898 -2.93796 0
M  V30 10589 N 978.502 0.731368 -1.39602 0
M  V30 10590 C 979.465 1.8271 -1.38383 0
M  V30 10591 C 980.465 1.58338 -0.280309 0
M  V30 10592 O 981.655 1.65671 -0.538402 0
M  V30 10593 C 978.787 3.20556 -1.16002 0
M  V30 10594 H 979.98 1.85193 -2.35889 0
M  V30 10595 H 977.533 0.935396 -1.2522 0
M  V30 10596 H 978.268 3.23732 -0.191927 0
M  V30 10597 H 978.053 3.39643 -1.9592 0
M  V30 10598 H 979.543 4.00612 -1.17899 0
M  V30 10599 N 979.98 1.24838 0.961938 0
M  V30 10600 C 981.208 1.11871 1.74047 0
M  V30 10601 C 981.623 -0.328209 1.85925 0
M  V30 10602 O 980.98 -1.22616 1.35173 0
M  V30 10603 C 981.031 1.75931 3.15801 0
M  V30 10604 O 980.752 3.14967 3.04512 0
M  V30 10605 C 982.253 1.68649 4.09966 0
M  V30 10606 H 979.473 0.390569 0.545616 0
M  V30 10607 H 982.017 1.65058 1.20732 0
M  V30 10608 H 980.172 1.26733 3.66084 0
M  V30 10609 H 980.586 3.46349 3.93882 0
M  V30 10610 H 982.06 2.18144 5.07067 0
M  V30 10611 H 982.537 0.648831 4.34381 0
M  V30 10612 H 983.143 2.17301 3.65596 0
M  V30 10613 N 981.458 -1.16348 1.06306 0
M  V30 10614 C 982.735 -1.829 0.69331 0
M  V30 10615 C 983.115 -1.94298 -0.82531 0
M  V30 10616 O 982.463 -1.48619 -1.73565 0
M  V30 10617 C 982.673 -3.1989 1.3954 0
M  V30 10618 C 984.021 -3.95662 1.54068 0
M  V30 10619 O 985.045 -3.29408 1.35532 0
M  V30 10620 O 983.904 -5.14422 1.84479 0
M  V30 10621 H 980.998 -0.789738 0.245445 0
M  V30 10622 H 983.544 -1.23549 1.16334 0
M  V30 10623 H 982.316 -3.06629 2.43093 0
M  V30 10624 H 981.939 -3.86918 0.915453 0
M  V30 10625 N 982.937 -0.845659 -1.3299 0
M  V30 10626 C 983.869 -0.241097 -2.27928 0
M  V30 10627 C 984.882 0.582048 -1.5204 0
M  V30 10628 O 986.071 0.408008 -1.73774 0
M  V30 10629 C 983.171 0.678652 -3.32035 0
M  V30 10630 C 982.344 -0.106652 -4.3727 0
M  V30 10631 C 981.403 0.737478 -5.21006 0
M  V30 10632 O 980.429 0.174231 -5.68933 0
M  V30 10633 N 981.631 2.05372 -5.42957 0
M  V30 10634 H 984.396 -1.05685 -2.80448 0
M  V30 10635 H 981.957 -0.704771 -1.45755 0
M  V30 10636 H 983.949 1.24849 -3.84961 0
M  V30 10637 H 982.519 1.3951 -2.79742 0
M  V30 10638 H 981.739 -0.857897 -3.84752 0
M  V30 10639 H 983.027 -0.646386 -5.04677 0
M  V30 10640 H 982.425 2.53478 -5.05733 0
M  V30 10641 H 980.982 2.5719 -5.98913 0
M  V30 10642 N 984.415 1.45619 -0.602734 0
M  V30 10643 C 985.365 2.27568 0.140264 0
M  V30 10644 C 986.349 1.3704 0.84314 0
M  V30 10645 O 987.541 1.61067 0.733931 0
M  V30 10646 C 984.67 3.23812 1.14019 0
M  V30 10647 C 983.756 4.21828 0.438406 0
M  V30 10648 N 984.147 5.03148 -0.517245 0
M  V30 10649 C 982.445 4.40684 0.686588 0
M  V30 10650 C 983.146 5.74229 -0.929291 0
M  V30 10651 N 982.122 5.42909 -0.274086 0
M  V30 10652 H 985.924 2.87839 -0.5938 0
M  V30 10653 H 983.438 1.56712 -0.426033 0
M  V30 10654 H 985.435 3.8125 1.68684 0
M  V30 10655 H 984.095 2.65102 1.87486 0
M  V30 10656 H 985.106 5.1013 -0.893758 0
M  V30 10657 H 981.783 3.93102 1.4063 0
M  V30 10658 H 983.173 6.49586 -1.7172 0
M  V30 10659 N 985.893 0.34162 1.53853 0
M  V30 10660 C 987.14 -0.255484 2.00882 0
M  V30 10661 C 987.468 -1.50711 1.22949 0
M  V30 10662 O 986.723 -1.93315 0.304625 0
M  V30 10663 C 987.022 -0.616989 3.52034 0
M  V30 10664 C 986.688 0.537536 4.47684 0
M  V30 10665 C 985.35 0.854379 4.73554 0
M  V30 10666 C 987.702 1.31217 5.04412 0
M  V30 10667 C 985.03 1.94826 5.53407 0
M  V30 10668 C 987.382 2.39628 5.85458 0
M  V30 10669 C 986.046 2.71874 6.09623 0
M  V30 10670 H 985.316 -0.0934881 0.735079 0
M  V30 10671 H 987.963 0.469135 1.85665 0
M  V30 10672 H 986.268 -1.42229 3.65073 0
M  V30 10673 H 987.965 -1.09084 3.85878 0
M  V30 10674 H 984.555 0.280524 4.27681 0
M  V30 10675 H 988.739 1.08064 4.84392 0
M  V30 10676 H 983.995 2.20235 5.70356 0
M  V30 10677 H 988.169 3.00084 6.28429 0
M  V30 10678 H 985.796 3.56762 6.71286 0
M  V30 10679 N 987.371 -1.57444 0.0701946 0
M  V30 10680 C 988.62 -1.92605 -0.598849 0
M  V30 10681 C 988.933 -0.952058 -1.70866 0
M  V30 10682 O 990.139 -1.19643 -2.43716 0
M  V30 10683 C 988.595 -3.42142 -1.11655 0
M  V30 10684 C 988.203 -4.47984 -0.0378355 0
M  V30 10685 C 989.947 -3.86307 -1.75975 0
M  V30 10686 C 987.854 -5.88652 -0.569495 0
M  V30 10687 H 986.784 -0.718873 -0.22746 0
M  V30 10688 H 989.435 -1.82948 0.14217 0
M  V30 10689 H 987.817 -3.46866 -1.91049 0
M  V30 10690 H 988.991 -4.54874 0.736661 0
M  V30 10691 H 987.306 -4.13277 0.50904 0
M  V30 10692 H 989.903 -4.88784 -2.16782 0
M  V30 10693 H 990.246 -3.23587 -2.61911 0
M  V30 10694 H 990.779 -3.84179 -1.03206 0
M  V30 10695 H 987.518 -6.55013 0.252662 0
M  V30 10696 H 987.038 -5.85285 -1.31155 0
M  V30 10697 H 988.717 -6.38482 -1.04641 0
M  V30 10698 N 988.849 0.203349 -1.56283 0
M  V30 10699 C 989.812 1.23566 -1.93039 0
M  V30 10700 C 990.812 1.38869 -0.810687 0
M  V30 10701 O 992.002 1.36822 -1.07821 0
M  V30 10702 C 989.134 2.60645 -2.1972 0
M  V30 10703 H 990.327 0.921692 -2.85385 0
M  V30 10704 H 987.88 0.44453 -1.49845 0
M  V30 10705 H 988.615 2.9711 -1.29985 0
M  V30 10706 H 988.4 2.50911 -3.01307 0
M  V30 10707 H 989.89 3.35103 -2.4919 0
M  V30 10708 N 990.327 1.50405 0.470755 0
M  V30 10709 C 991.259 1.65447 1.58619 0
M  V30 10710 C 992.272 0.535949 1.53725 0
M  V30 10711 O 993.461 0.80914 1.59107 0
M  V30 10712 C 990.561 1.62318 2.975 0
M  V30 10713 C 989.734 2.90207 3.27259 0
M  V30 10714 C 988.793 2.79717 4.45696 0
M  V30 10715 O 987.819 3.53672 4.45987 0
M  V30 10716 N 989.021 1.93296 5.47373 0
M  V30 10717 H 991.786 2.61659 1.46132 0
M  V30 10718 H 989.347 1.47873 0.659178 0
M  V30 10719 H 991.339 1.52912 3.747 0
M  V30 10720 H 989.909 0.738392 3.03754 0
M  V30 10721 H 989.129 3.13737 2.38669 0
M  V30 10722 H 990.417 3.74931 3.43953 0
M  V30 10723 H 989.815 1.32524 5.49958 0
M  V30 10724 H 988.372 1.89793 6.23556 0
M  V30 10725 N 991.805 -0.723954 1.39988 0
M  V30 10726 C 993.216 -1.30273 1.33738 0
M  V30 10727 C 993.567 -1.96199 0.00690581 0
M  V30 10728 O 992.692 -1.97016 -0.895179 0
M  V30 10729 C 993.287 -2.36889 2.42217 0
M  V30 10730 C 991.846 -2.90412 2.39453 0
M  V30 10731 C 990.993 -1.64103 2.2353 0
M  V30 10732 H 993.944 -0.520672 1.49916 0
M  V30 10733 H 993.965 -3.17538 2.09642 0
M  V30 10734 H 993.477 -1.88878 3.39038 0
M  V30 10735 H 991.578 -3.42674 1.46304 0
M  V30 10736 H 991.691 -3.42775 3.34727 0
M  V30 10737 H 990.055 -1.88855 1.70897 0
M  V30 10738 H 990.838 -1.18128 3.22336 0
M  V30 10739 N 993.283 -1.25346 -0.955304 0
M  V30 10740 C 994.531 -1.09837 -1.69647 0
M  V30 10741 C 994.852 0.361425 -1.91621 0
M  V30 10742 O 994.122 1.25666 -1.50283 0
M  V30 10743 H 992.702 -0.403467 -0.628668 0
M  V30 10744 H 995.364 -1.57459 -1.14859 0
M  V30 10745 H 994.46 -1.60616 -2.67598 0
M  V30 10746 N 994.761 1.15782 -1.06922 0
M  V30 10747 C 996.007 1.86741 -0.790922 0
M  V30 10748 C 996.34 1.81863 0.681149 0
M  V30 10749 O 995.615 1.23871 1.49954 0
M  V30 10750 C 995.898 3.36038 -1.29422 0
M  V30 10751 C 995.751 3.49573 -2.83052 0
M  V30 10752 C 997.07 4.30647 -0.907239 0
M  V30 10753 H 994.189 0.678064 -0.288787 0
M  V30 10754 H 996.831 1.36054 -1.32624 0
M  V30 10755 H 994.981 3.79336 -0.838843 0
M  V30 10756 H 996.653 3.1517 -3.36847 0
M  V30 10757 H 994.896 2.91275 -3.21467 0
M  V30 10758 H 995.567 4.5445 -3.13335 0
M  V30 10759 H 998.043 3.95286 -1.29956 0
M  V30 10760 H 996.919 5.33604 -1.28679 0
M  V30 10761 H 997.18 4.41703 0.187251 0
M  V30 10762 N 996.239 0.8527 1.3254 0
M  V30 10763 C 997.171 0.253181 2.27797 0
M  V30 10764 C 998.184 -0.573977 1.52346 0
M  V30 10765 O 999.373 -0.398786 1.73988 0
M  V30 10766 C 996.473 -0.661034 3.32391 0
M  V30 10767 C 995.646 0.12984 4.37207 0
M  V30 10768 C 994.705 -0.709837 5.2139 0
M  V30 10769 O 993.731 -0.144056 5.69018 0
M  V30 10770 N 994.933 -2.0249 5.44039 0
M  V30 10771 H 997.698 1.07171 2.79883 0
M  V30 10772 H 995.259 0.712491 1.45379 0
M  V30 10773 H 997.251 -1.22806 3.85617 0
M  V30 10774 H 995.821 -1.38025 2.80478 0
M  V30 10775 H 995.041 0.878289 3.84291 0
M  V30 10776 H 996.329 0.673141 5.04328 0
M  V30 10777 H 995.727 -2.50792 5.0707 0
M  V30 10778 H 994.284 -2.5401 6.00269 0
M  V30 10779 N 997.718 -1.45297 0.610449 0
M  V30 10780 C 998.666 -2.32295 -0.119167 0
M  V30 10781 C 999.66 -1.46138 -0.856746 0
M  V30 10782 O 1000.87 -1.62605 -0.771988 0
M  V30 10783 H 997.241 -0.749815 -0.0572881 0
M  V30 10784 H 999.212 -2.91609 0.63297 0
M  V30 10785 C 997.961 -3.29802 -1.10119 0
M  V30 10786 H 997.284 -3.96095 -0.543063 0
M  V30 10787 H 998.724 -3.93398 -1.58158 0
M  V30 10788 C 997.183 -2.57185 -2.17617 0
M  V30 10789 O 997.713 -2.35535 -3.25401 0
M  V30 10790 N 995.919 -2.17272 -1.9298 0
M  V30 10791 H 995.466 -2.3508 -1.05334 0
M  V30 10792 H 995.424 -1.69009 -2.6511 0
M  V30 10793 N 999.196 -0.349774 -1.5367 0
M  V30 10794 C 1000.44 0.244827 -2.01015 0
M  V30 10795 C 1000.77 1.50057 -1.23746 0
M  V30 10796 O 1000.03 1.9315 -0.314872 0
M  V30 10797 C 1000.32 0.598311 -3.52356 0
M  V30 10798 C 999.991 -0.56127 -4.47393 0
M  V30 10799 C 998.653 -0.879481 -4.73095 0
M  V30 10800 C 1001 -1.3389 -5.03709 0
M  V30 10801 C 998.333 -1.97758 -5.52366 0
M  V30 10802 C 1000.68 -2.4273 -5.84179 0
M  V30 10803 C 999.349 -2.75103 -6.08173 0
M  V30 10804 H 998.619 0.0895884 -0.735564 0
M  V30 10805 H 1001.27 -0.478975 -1.85413 0
M  V30 10806 H 999.571 1.40291 -3.65822 0
M  V30 10807 H 1001.27 1.07036 -3.86451 0
M  V30 10808 H 997.858 -0.303201 -4.27526 0
M  V30 10809 H 1002.04 -1.10632 -4.83812 0
M  V30 10810 H 997.298 -2.23257 -5.6918 0
M  V30 10811 H 1001.47 -3.03412 -6.26828 0
M  V30 10812 H 999.099 -3.60317 -6.69385 0
M  V30 10813 N 1000.67 1.57404 -0.0785433 0
M  V30 10814 C 1001.6 2.16131 0.883726 0
M  V30 10815 C 1002.58 1.09015 1.30575 0
M  V30 10816 O 1003.77 1.3708 1.37559 0
M  V30 10817 C 1000.9 2.72836 2.1489 0
M  V30 10818 C 999.854 3.85178 1.86605 0
M  V30 10819 C 999.18 4.28516 3.1981 0
M  V30 10820 C 1000.48 5.09118 1.16601 0
M  V30 10821 H 1002.17 2.9679 0.394484 0
M  V30 10822 H 999.72 1.42763 0.188304 0
M  V30 10823 H 1001.67 3.12567 2.8263 0
M  V30 10824 H 1000.4 1.89408 2.66068 0
M  V30 10825 H 999.056 3.45962 1.21268 0
M  V30 10826 H 998.704 3.42 3.68843 0
M  V30 10827 H 998.404 5.04249 3.01674 0
M  V30 10828 H 999.928 4.70868 3.88737 0
M  V30 10829 H 1001.34 5.46123 1.74422 0
M  V30 10830 H 999.739 5.90173 1.087 0
M  V30 10831 H 1000.81 4.8468 0.146138 0
M  V30 10832 N 1002.15 -0.195058 1.56388 0
M  V30 10833 C 1003.38 -0.935745 1.85091 0
M  V30 10834 C 1003.8 -1.76061 0.662118 0
M  V30 10835 O 1003.16 -1.77076 -0.389083 0
M  V30 10836 C 1003.21 -1.80764 3.1202 0
M  V30 10837 O 1002.31 -2.90643 2.92575 0
M  V30 10838 H 1001.65 -0.26351 0.609474 0
M  V30 10839 H 1004.18 -0.200362 2.03617 0
M  V30 10840 H 1004.19 -2.21229 3.42815 0
M  V30 10841 H 1002.87 -1.20157 3.98165 0
M  V30 10842 H 1001.44 -2.53934 2.73079 0
M  V30 10843 N 1003.63 -1.50653 -0.462772 0
M  V30 10844 C 1004.58 -1.70122 -1.55971 0
M  V30 10845 C 1005.55 -0.542581 -1.56988 0
M  V30 10846 O 1006.73 -0.774114 -1.74391 0
M  V30 10847 C 1003.87 -1.80899 -2.93887 0
M  V30 10848 C 1002.98 -3.08318 -3.02595 0
M  V30 10849 C 1002.12 -3.09841 -4.31477 0
M  V30 10850 C 1001.16 -4.3168 -4.33957 0
M  V30 10851 N 1000.3 -4.30894 -5.54323 0
M  V30 10852 H 1005.14 -2.63768 -1.38674 0
M  V30 10853 H 1002.67 -1.30746 -0.674091 0
M  V30 10854 H 1004.63 -1.85128 -3.73876 0
M  V30 10855 H 1003.26 -0.906854 -3.098 0
M  V30 10856 H 1002.31 -3.13521 -2.15427 0
M  V30 10857 H 1003.62 -3.98282 -3.00288 0
M  V30 10858 H 1002.78 -3.12845 -5.1982 0
M  V30 10859 H 1001.52 -2.17722 -4.36404 0
M  V30 10860 H 1000.52 -4.28879 -3.4401 0
M  V30 10861 H 1001.75 -5.25035 -4.30715 0
M  V30 10862 H 999.694 -3.41633 -5.6002 0
M  V30 10863 H 999.611 -5.14636 -5.53792 0
M  V30 10864 H 1000.88 -4.38056 -6.44769 0
M  V30 10865 N 1005.11 0.71652 -1.4037 0
M  V30 10866 C 1006.04 1.84138 -1.36477 0
M  V30 10867 C 1007.05 1.6054 -0.27033 0
M  V30 10868 O 1008.24 1.70431 -0.530612 0
M  V30 10869 C 1005.34 3.20523 -1.10082 0
M  V30 10870 C 1004.52 3.71326 -2.31162 0
M  V30 10871 C 1003.57 4.86322 -2.00942 0
M  V30 10872 O 1002.6 4.99022 -2.73799 0
M  V30 10873 N 1003.8 5.72051 -0.986812 0
M  V30 10874 H 1006.57 1.87977 -2.3342 0
M  V30 10875 H 1004.13 0.89802 -1.34712 0
M  V30 10876 H 1006.12 3.95049 -0.878526 0
M  V30 10877 H 1004.69 3.11838 -0.21809 0
M  V30 10878 H 1003.91 2.87941 -2.69227 0
M  V30 10879 H 1005.2 4.02003 -3.11883 0
M  V30 10880 H 1004.6 5.64399 -0.383381 0
M  V30 10881 H 1003.15 6.46565 -0.824419 0
M  V30 10882 N 1006.59 1.25851 0.948643 0
M  V30 10883 C 1007.83 1.12127 1.69703 0
M  V30 10884 C 1008.19 -0.333318 1.89491 0
M  V30 10885 O 1007.48 -1.24181 1.4591 0
M  V30 10886 C 1007.67 1.81565 3.07846 0
M  V30 10887 C 1007.5 3.33626 3.01535 0
M  V30 10888 C 1006.27 4.02897 3.04962 0
M  V30 10889 C 1008.47 4.29934 2.82243 0
M  V30 10890 N 1006.45 5.41688 2.88872 0
M  V30 10891 C 1007.82 5.5585 2.74646 0
M  V30 10892 C 1009.88 4.20276 2.66969 0
M  V30 10893 C 1008.58 6.73212 2.53335 0
M  V30 10894 C 1010.61 5.37336 2.4703 0
M  V30 10895 C 1009.97 6.62196 2.40158 0
M  V30 10896 H 1006.07 0.465047 0.628693 0
M  V30 10897 H 1008.65 1.59035 1.12321 0
M  V30 10898 H 1006.82 1.37143 3.63382 0
M  V30 10899 H 1008.56 1.6053 3.715 0
M  V30 10900 H 1005.31 3.54201 3.14386 0
M  V30 10901 H 1005.74 6.14544 2.84015 0
M  V30 10902 H 1010.38 3.24485 2.71053 0
M  V30 10903 H 1008.1 7.69107 2.47993 0
M  V30 10904 H 1011.68 5.31728 2.36128 0
M  V30 10905 H 1010.56 7.51249 2.24933 0
M  V30 10906 N 1008.06 -1.15214 1.07534 0
M  V30 10907 C 1009.29 -1.89647 0.819614 0
M  V30 10908 C 1009.7 -1.78365 -0.631072 0
M  V30 10909 O 1009.05 -1.1346 -1.44474 0
M  V30 10910 C 1009.11 -3.40573 1.1511 0
M  V30 10911 C 1008.77 -3.7564 2.60276 0
M  V30 10912 C 1009.77 -3.76507 3.58523 0
M  V30 10913 C 1007.45 -4.05891 2.95901 0
M  V30 10914 C 1009.45 -4.07133 4.9043 0
M  V30 10915 C 1007.13 -4.36182 4.28005 0
M  V30 10916 C 1008.13 -4.36785 5.25079 0
M  V30 10917 O 1007.82 -4.66348 6.54809 0
M  V30 10918 H 1007.55 -0.607836 0.295822 0
M  V30 10919 H 1010.11 -1.46895 1.43565 0
M  V30 10920 H 1008.34 -3.83734 0.478033 0
M  V30 10921 H 1010.03 -3.96299 0.877615 0
M  V30 10922 H 1010.79 -3.53233 3.32342 0
M  V30 10923 H 1006.67 -4.0458 2.20989 0
M  V30 10924 H 1010.21 -4.07519 5.66193 0
M  V30 10925 H 1006.11 -4.58924 4.53937 0
M  V30 10926 H 1006.88 -4.84105 6.59988 0
M  V30 10927 N 1009.54 -0.859717 -1.32086 0
M  V30 10928 C 1010.79 -0.464662 -1.96686 0
M  V30 10929 C 1011.11 0.98412 -1.68345 0
M  V30 10930 O 1010.38 1.68847 -0.993361 0
M  V30 10931 H 1008.96 -0.168838 -0.727669 0
M  V30 10932 H 1011.62 -1.09726 -1.61079 0
M  V30 10933 H 1010.72 -0.613904 -3.06003 0
M  V30 10934 N 1011.02 1.44971 -0.618145 0
M  V30 10935 C 1011.93 2.34403 0.0960457 0
M  V30 10936 C 1012.95 1.51862 0.849355 0
M  V30 10937 O 1014.12 1.84632 0.804557 0
M  V30 10938 C 1011.19 3.29646 1.07397 0
M  V30 10939 C 1010.25 4.28095 0.321466 0
M  V30 10940 C 1009.48 5.18787 1.25281 0
M  V30 10941 O 1009.7 5.1313 2.49106 0
M  V30 10942 O 1008.64 5.97282 0.744156 0
M  V30 10943 H 1012.46 2.96898 -0.639176 0
M  V30 10944 H 1010.05 1.44529 -0.37837 0
M  V30 10945 H 1011.93 3.88307 1.63694 0
M  V30 10946 H 1010.61 2.69702 1.79004 0
M  V30 10947 H 1009.51 3.73019 -0.284223 0
M  V30 10948 H 1010.85 4.90923 -0.354315 0
M  V30 10949 N 1012.5 0.357919 1.53482 0
M  V30 10950 C 1013.75 -0.235241 2.00324 0
M  V30 10951 C 1014.06 -1.50494 1.24944 0
M  V30 10952 O 1015.27 -2.17623 1.62335 0
M  V30 10953 C 1013.72 -0.469748 3.56821 0
M  V30 10954 C 1013.33 0.784877 4.41071 0
M  V30 10955 C 1015.07 -1.02098 4.12039 0
M  V30 10956 C 1012.98 0.520377 5.89106 0
M  V30 10957 H 1011.91 -0.0916816 0.748405 0
M  V30 10958 H 1014.56 0.475474 1.77233 0
M  V30 10959 H 1012.94 -1.24153 3.76035 0
M  V30 10960 H 1014.12 1.55886 4.33631 0
M  V30 10961 H 1012.43 1.25878 3.96918 0
M  V30 10962 H 1015.03 -1.23406 5.20264 0
M  V30 10963 H 1015.37 -1.98084 3.66154 0
M  V30 10964 H 1015.91 -0.309554 3.96594 0
M  V30 10965 H 1012.65 1.45035 6.39254 0
M  V30 10966 H 1012.17 -0.215254 5.99414 0
M  V30 10967 H 1013.84 0.143006 6.46842 0
M  V30 10968 N 1013.98 -1.5736 0.0868897 0
M  V30 10969 C 1015.2 -1.98809 -0.590757 0
M  V30 10970 C 1015.63 -0.965407 -1.61436 0
M  V30 10971 O 1014.98 0.067143 -1.81176 0
M  V30 10972 C 1015.03 -3.39249 -1.22238 0
M  V30 10973 O 1014.14 -3.39706 -2.33824 0
M  V30 10974 H 1013.48 -0.64669 -0.150626 0
M  V30 10975 H 1016.01 -2.03927 0.165873 0
M  V30 10976 H 1016.02 -3.76765 -1.56564 0
M  V30 10977 H 1014.69 -4.13208 -0.472434 0
M  V30 10978 H 1013.27 -3.13977 -2.01178 0
M  V30 10979 N 1015.45 0.186762 -1.56489 0
M  V30 10980 C 1016.87 0.537933 -1.50261 0
M  V30 10981 C 1017.07 1.85435 -0.788414 0
M  V30 10982 O 1016.13 2.50168 -0.342377 0
M  V30 10983 C 1017.44 0.584965 -2.94955 0
M  V30 10984 C 1018.99 0.673228 -3.05674 0
M  V30 10985 C 1019.46 0.751294 -4.51796 0
M  V30 10986 N 1020.95 0.814599 -4.55981 0
M  V30 10987 C 1021.69 0.895313 -5.66367 0
M  V30 10988 N 1021.18 0.937814 -6.86423 0
M  V30 10989 N 1022.98 0.933145 -5.543 0
M  V30 10990 H 1015.13 -0.676636 -2.01334 0
M  V30 10991 H 1017.39 -0.242079 -0.916571 0
M  V30 10992 H 1017.1 -0.313361 -3.50301 0
M  V30 10993 H 1016.97 1.4368 -3.48763 0
M  V30 10994 H 1019.36 1.56198 -2.50372 0
M  V30 10995 H 1019.44 -0.204976 -2.54977 0
M  V30 10996 H 1019.08 -0.133143 -5.07725 0
M  V30 10997 H 1019.01 1.64542 -5.00233 0
M  V30 10998 H 1021.5 0.790662 -3.69536 0
M  V30 10999 H 1021.82 1.00015 -7.66301 0
M  V30 11000 H 1020.16 0.906351 -6.89065 0
M  V30 11001 H 1023.35 0.896836 -4.59428 0
M  V30 11002 H 1023.53 0.992588 -6.40353 0
M  V30 11003 N 1016.93 1.50896 0.454776 0
M  V30 11004 C 1018.21 1.53227 1.21576 0
M  V30 11005 C 1018.59 0.286358 2.09149 0
M  V30 11006 O 1017.94 -0.729469 2.16543 0
M  V30 11007 C 1018.15 2.83693 2.03271 0
M  V30 11008 C 1019.5 3.34981 2.60908 0
M  V30 11009 O 1020.52 2.85126 2.13499 0
M  V30 11010 O 1019.38 4.21929 3.4733 0
M  V30 11011 H 1016.47 0.615306 0.552564 0
M  V30 11012 H 1019.02 1.63197 0.465266 0
M  V30 11013 H 1017.79 3.65839 1.38843 0
M  V30 11014 H 1017.41 2.76803 2.85422 0
M  V30 11015 N 1018.41 -0.709066 1.40748 0
M  V30 11016 C 1019.64 -1.49808 1.42707 0
M  V30 11017 C 1020.05 -1.88778 0.0285574 0
M  V30 11018 O 1019.41 -1.55883 -0.949035 0
M  V30 11019 C 1019.46 -2.76926 2.32366 0
M  V30 11020 O 1019.18 -2.39602 3.66773 0
M  V30 11021 C 1020.68 -3.70773 2.42986 0
M  V30 11022 H 1017.9 -0.462106 0.486517 0
M  V30 11023 H 1020.45 -0.874135 1.84876 0
M  V30 11024 H 1018.6 -3.3559 1.93541 0
M  V30 11025 H 1019.02 -3.21443 4.14457 0
M  V30 11026 H 1020.49 -4.56789 3.09916 0
M  V30 11027 H 1020.97 -4.14332 1.45691 0
M  V30 11028 H 1021.57 -3.18019 2.8239 0
M  V30 11029 N 1019.89 -1.26353 -0.941956 0
M  V30 11030 C 1020.84 -1.07842 -2.04056 0
M  V30 11031 C 1021.81 0.0163064 -1.66092 0
M  V30 11032 O 1022.99 -0.143313 -1.90261 0
M  V30 11033 C 1020.13 -0.716636 -3.37577 0
M  V30 11034 C 1019.24 -1.88754 -3.88582 0
M  V30 11035 C 1018.38 -1.46893 -5.10486 0
M  V30 11036 C 1017.42 -2.60819 -5.53751 0
M  V30 11037 N 1016.56 -2.19646 -6.66858 0
M  V30 11038 H 1021.4 -2.01856 -2.19221 0
M  V30 11039 H 1018.93 -1.00504 -1.07412 0
M  V30 11040 H 1020.89 -0.487768 -4.14339 0
M  V30 11041 H 1019.52 0.18653 -3.22261 0
M  V30 11042 H 1018.57 -2.22936 -3.08227 0
M  V30 11043 H 1019.88 -2.74264 -4.1663 0
M  V30 11044 H 1019.04 -1.20047 -5.94705 0
M  V30 11045 H 1017.78 -0.584721 -4.84182 0
M  V30 11046 H 1016.78 -2.88396 -4.6809 0
M  V30 11047 H 1018.01 -3.49838 -5.82057 0
M  V30 11048 H 1015.95 -1.33657 -6.4224 0
M  V30 11049 H 1015.87 -2.987 -6.94489 0
M  V30 11050 H 1017.14 -1.96009 -7.54454 0
M  V30 11051 N 1021.37 1.14642 -1.08144 0
M  V30 11052 C 1022.32 2.21708 -0.703448 0
M  V30 11053 C 1023.31 1.66907 0.289535 0
M  V30 11054 O 1024.52 1.79354 0.152387 0
M  V30 11055 H 1020.89 0.722247 -0.209437 0
M  V30 11056 H 1022.86 2.50862 -1.61588 0
M  V30 11057 C 1021.61 3.47472 -0.125975 0
M  V30 11058 H 1020.93 3.89967 -0.881216 0
M  V30 11059 H 1022.37 4.2388 0.100737 0
M  V30 11060 C 1020.83 3.17189 1.13546 0
M  V30 11061 O 1021.36 3.34733 2.22073 0
M  V30 11062 N 1019.57 2.71169 1.04479 0
M  V30 11063 H 1019.12 2.57093 0.161566 0
M  V30 11064 H 1019.07 2.51282 1.88957 0
M  V30 11065 N 1022.85 0.866709 1.31628 0
M  V30 11066 C 1024.09 0.486046 1.97507 0
M  V30 11067 C 1024.45 -0.95049 1.67283 0
M  V30 11068 O 1023.74 -1.65979 0.957158 0
M  V30 11069 C 1023.93 0.676018 3.50948 0
M  V30 11070 C 1023.76 2.12947 3.96086 0
M  V30 11071 C 1022.53 2.77041 4.22583 0
M  V30 11072 C 1024.73 3.10139 4.10266 0
M  V30 11073 N 1022.71 4.13172 4.54051 0
M  V30 11074 C 1024.08 4.3129 4.45409 0
M  V30 11075 C 1026.14 3.06173 3.92635 0
M  V30 11076 C 1024.84 5.4899 4.6476 0
M  V30 11077 C 1026.87 4.23128 4.13178 0
M  V30 11078 C 1026.23 5.43041 4.48649 0
M  V30 11079 H 1022.33 0.226831 0.748379 0
M  V30 11080 H 1024.91 1.12063 1.59217 0
M  V30 11081 H 1023.08 0.071055 3.88335 0
M  V30 11082 H 1024.82 0.264062 4.03838 0
M  V30 11083 H 1021.57 2.28009 4.15101 0
M  V30 11084 H 1021.99 4.83426 4.7395 0
M  V30 11085 H 1026.64 2.14576 3.64303 0
M  V30 11086 H 1024.35 6.41108 4.91942 0
M  V30 11087 H 1027.94 4.21509 4.01026 0
M  V30 11088 H 1026.82 6.32034 4.64223 0
M  V30 11089 N 1024.32 -1.44642 0.625825 0
M  V30 11090 C 1025.27 -2.30653 -0.082259 0
M  V30 11091 C 1026.24 -1.43174 -0.842052 0
M  V30 11092 O 1027.43 -1.72082 -0.824151 0
M  V30 11093 C 1024.57 -3.2837 -1.06146 0
M  V30 11094 C 1023.68 -4.30953 -0.300638 0
M  V30 11095 C 1022.81 -5.15766 -1.27118 0
M  V30 11096 C 1021.85 -6.10061 -0.499215 0
M  V30 11097 N 1020.99 -6.87591 -1.41995 0
M  V30 11098 H 1025.83 -2.90664 0.657161 0
M  V30 11099 H 1023.37 -1.43215 0.335859 0
M  V30 11100 H 1025.32 -3.83507 -1.6425 0
M  V30 11101 H 1023.95 -2.70072 -1.76807 0
M  V30 11102 H 1023.01 -3.78331 0.396234 0
M  V30 11103 H 1024.32 -4.97892 0.300851 0
M  V30 11104 H 1023.47 -5.75394 -1.92372 0
M  V30 11105 H 1022.21 -4.48888 -1.9066 0
M  V30 11106 H 1021.22 -5.49547 0.166848 0
M  V30 11107 H 1022.44 -6.78973 0.131409 0
M  V30 11108 H 1020.39 -6.23387 -2.04267 0
M  V30 11109 H 1020.3 -7.5095 -0.872354 0
M  V30 11110 H 1021.57 -7.51746 -2.0615 0
M  V30 11111 N 1025.8 -0.366053 -1.5329 0
M  V30 11112 C 1027.05 0.224614 -2.00445 0
M  V30 11113 C 1027.36 1.49829 -1.2574 0
M  V30 11114 O 1028.57 2.16759 -1.63487 0
M  V30 11115 C 1027.03 0.450818 -3.57065 0
M  V30 11116 C 1026.63 -0.808257 -4.40649 0
M  V30 11117 C 1028.38 0.999116 -4.12575 0
M  V30 11118 C 1026.28 -0.551612 -5.88822 0
M  V30 11119 H 1025.21 0.0877114 -0.748881 0
M  V30 11120 H 1027.87 -0.484866 -1.76978 0
M  V30 11121 H 1026.25 1.22157 -3.76688 0
M  V30 11122 H 1027.42 -1.58184 -4.32798 0
M  V30 11123 H 1025.74 -1.27981 -3.96245 0
M  V30 11124 H 1028.33 1.20646 -5.20911 0
M  V30 11125 H 1028.68 1.96139 -3.67199 0
M  V30 11126 H 1029.21 0.288518 -3.96752 0
M  V30 11127 H 1025.95 -1.48423 -6.38475 0
M  V30 11128 H 1025.47 0.183462 -5.99519 0
M  V30 11129 H 1027.15 -0.177307 -6.46757 0
M  V30 11130 N 1027.28 1.57312 -0.0952337 0
M  V30 11131 C 1028.53 1.93533 0.568131 0
M  V30 11132 C 1028.84 0.979121 1.6933 0
M  V30 11133 O 1030.05 1.23506 2.41782 0
M  V30 11134 C 1028.5 3.43875 1.06198 0
M  V30 11135 C 1028.11 4.47988 -0.0334397 0
M  V30 11136 C 1029.86 3.89057 1.69807 0
M  V30 11137 C 1027.76 5.89483 0.475774 0
M  V30 11138 H 1026.69 0.7224 0.215995 0
M  V30 11139 H 1029.34 1.82699 -0.171257 0
M  V30 11140 H 1027.73 3.49862 1.85506 0
M  V30 11141 H 1028.9 4.53644 -0.808934 0
M  V30 11142 H 1027.21 4.12415 -0.574725 0
M  V30 11143 H 1029.81 4.92171 2.08978 0
M  V30 11144 H 1030.15 3.27713 2.5673 0
M  V30 11145 H 1030.69 3.85772 0.970815 0
M  V30 11146 H 1027.43 6.54528 -0.356837 0
M  V30 11147 H 1026.95 5.87297 1.21827 0
M  V30 11148 H 1028.63 6.40066 0.944697 0
M  V30 11149 N 1028.76 -0.17846 1.56586 0
M  V30 11150 C 1029.69 -1.22342 1.98884 0
M  V30 11151 C 1030.67 -1.46564 0.86331 0
M  V30 11152 O 1031.85 -1.58019 1.12887 0
M  V30 11153 C 1028.98 -2.56396 2.34261 0
M  V30 11154 C 1027.94 -2.46756 3.49708 0
M  V30 11155 C 1027.26 -3.85235 3.70807 0
M  V30 11156 C 1028.56 -1.97838 4.83381 0
M  V30 11157 H 1030.26 -0.871848 2.86425 0
M  V30 11158 H 1027.8 -0.417948 1.37801 0
M  V30 11159 H 1029.76 -3.29695 2.62448 0
M  V30 11160 H 1028.48 -2.93327 1.43621 0
M  V30 11161 H 1027.14 -1.75912 3.21637 0
M  V30 11162 H 1026.79 -4.19547 2.7747 0
M  V30 11163 H 1026.49 -3.79655 4.48481 0
M  V30 11164 H 1028.01 -4.60131 4.01387 0
M  V30 11165 H 1029.43 -2.60906 5.10491 0
M  V30 11166 H 1027.82 -2.03223 5.64642 0
M  V30 11167 H 1028.89 -0.932339 4.75852 0
M  V30 11168 N 1030.24 -1.51135 -0.446768 0
M  V30 11169 C 1031.48 -1.64989 -1.20656 0
M  V30 11170 C 1031.84 -0.353882 -1.88711 0
M  V30 11171 O 1033.04 -0.368099 -2.66268 0
M  V30 11172 C 1031.31 -2.81371 -2.20375 0
M  V30 11173 S 1032.87 -3.15501 -3.04967 0
M  V30 11174 H 1029.69 -0.581372 -0.409301 0
M  V30 11175 H 1032.29 -1.89008 -0.499613 0
M  V30 11176 H 1030.99 -3.73988 -1.69001 0
M  V30 11177 H 1030.53 -2.59512 -2.95664 0
M  V30 11178 H 1032.54 -2.61205 -4.21884 0
M  V30 11179 N 1031.71 0.701592 -1.41122 0
M  V30 11180 C 1032.64 1.82815 -1.45262 0
M  V30 11181 C 1033.62 1.67215 -0.311939 0
M  V30 11182 O 1034.81 1.87038 -0.522538 0
M  V30 11183 C 1031.94 3.20899 -1.32819 0
M  V30 11184 C 1030.89 3.51194 -2.44636 0
M  V30 11185 C 1030.22 4.8857 -2.17263 0
M  V30 11186 C 1031.52 3.50777 -3.86979 0
M  V30 11187 H 1033.21 1.79608 -2.39544 0
M  V30 11188 H 1030.76 0.862693 -1.15298 0
M  V30 11189 H 1032.71 3.99417 -1.34329 0
M  V30 11190 H 1031.44 3.24717 -0.350191 0
M  V30 11191 H 1030.1 2.75024 -2.42399 0
M  V30 11192 H 1029.74 4.89007 -1.17819 0
M  V30 11193 H 1029.44 5.09805 -2.92186 0
M  V30 11194 H 1030.97 5.69405 -2.20478 0
M  V30 11195 H 1032.38 4.19309 -3.90964 0
M  V30 11196 H 1030.78 3.83542 -4.61536 0
M  V30 11197 H 1031.85 2.49873 -4.15562 0
M  V30 11198 N 1033.19 1.2685 0.935242 0
M  V30 11199 C 1034.44 1.12745 1.68211 0
M  V30 11200 C 1034.77 -0.328128 1.91712 0
M  V30 11201 O 1034.02 -1.25701 1.49993 0
M  V30 11202 C 1034.32 1.8482 3.05903 0
M  V30 11203 C 1033.99 3.347 3.02137 0
M  V30 11204 C 1032.65 3.75583 3.00817 0
M  V30 11205 C 1035 4.30368 2.93995 0
M  V30 11206 C 1032.33 5.10511 2.89129 0
M  V30 11207 C 1034.68 5.65343 2.83848 0
M  V30 11208 C 1033.34 6.0553 2.80874 0
M  V30 11209 H 1032.61 0.412563 0.615527 0
M  V30 11210 H 1035.26 1.57366 1.09124 0
M  V30 11211 H 1033.57 1.32685 3.68649 0
M  V30 11212 H 1035.26 1.71341 3.62551 0
M  V30 11213 H 1031.85 3.02182 3.03947 0
M  V30 11214 H 1036.04 3.9976 2.94118 0
M  V30 11215 H 1031.29 5.40802 2.85208 0
M  V30 11216 H 1035.47 6.39151 2.76512 0
M  V30 11217 H 1033.09 7.10037 2.71573 0
M  V30 11218 N 1034.67 -1.14067 1.0875 0
M  V30 11219 C 1035.92 -1.84535 0.814235 0
M  V30 11220 C 1036.23 -1.84044 -0.662355 0
M  V30 11221 O 1037.44 -2.50336 -1.05091 0
M  V30 11222 C 1035.89 -3.31273 1.40663 0
M  V30 11223 C 1035.5 -3.40171 2.91526 0
M  V30 11224 C 1037.25 -4.0683 1.21201 0
M  V30 11225 C 1035.15 -4.81141 3.43885 0
M  V30 11226 H 1034.08 -0.691346 0.300926 0
M  V30 11227 H 1036.73 -1.28562 1.30935 0
M  V30 11228 H 1035.12 -3.87005 0.839215 0
M  V30 11229 H 1036.29 -2.94471 3.54434 0
M  V30 11230 H 1034.61 -2.78073 3.09942 0
M  V30 11231 H 1037.2 -5.10891 1.57781 0
M  V30 11232 H 1037.55 -4.16022 0.152092 0
M  V30 11233 H 1038.08 -3.57408 1.74655 0
M  V30 11234 H 1034.82 -4.77138 4.49466 0
M  V30 11235 H 1034.34 -5.27365 2.85738 0
M  V30 11236 H 1036.02 -5.50042 3.40681 0
M  V30 11237 N 1036.15 -0.873678 -1.31166 0
M  V30 11238 C 1037.4 -0.482577 -1.95842 0
M  V30 11239 C 1037.71 0.970881 -1.69804 0
M  V30 11240 O 1038.92 1.4683 -2.28371 0
M  V30 11241 C 1037.37 -0.812074 -3.50619 0
M  V30 11242 C 1036.98 -2.28254 -3.85492 0
M  V30 11243 C 1038.72 -0.489624 -4.21667 0
M  V30 11244 C 1036.63 -2.55426 -5.33396 0
M  V30 11245 H 1035.56 -0.176736 -0.732994 0
M  V30 11246 H 1038.21 -1.06709 -1.49283 0
M  V30 11247 H 1036.59 -0.156769 -3.9569 0
M  V30 11248 H 1037.77 -2.98122 -3.51369 0
M  V30 11249 H 1036.08 -2.5714 -3.27518 0
M  V30 11250 H 1038.68 -0.669811 -5.30488 0
M  V30 11251 H 1039.02 0.570204 -4.12376 0
M  V30 11252 H 1039.56 -1.10163 -3.82242 0
M  V30 11253 H 1036.3 -3.60106 -5.47726 0
M  V30 11254 H 1035.82 -1.90156 -5.68859 0
M  V30 11255 H 1037.49 -2.40345 -6.00702 0
M  V30 11256 N 1037.63 1.44308 -0.633487 0
M  V30 11257 C 1039.04 1.85387 -0.221009 0
M  V30 11258 C 1039.39 1.5301 1.22811 0
M  V30 11259 O 1038.51 0.969325 1.93476 0
M  V30 11260 C 1039.11 3.36497 -0.394331 0
M  V30 11261 C 1037.67 3.76382 -0.0363405 0
M  V30 11262 C 1036.81 2.68146 -0.706598 0
M  V30 11263 H 1039.77 1.34741 -0.83849 0
M  V30 11264 H 1039.79 3.78735 0.366026 0
M  V30 11265 H 1039.3 3.60031 -1.44911 0
M  V30 11266 H 1037.4 3.58463 1.01661 0
M  V30 11267 H 1037.51 4.77 -0.448045 0
M  V30 11268 H 1035.88 2.54306 -0.14168 0
M  V30 11269 H 1036.66 2.94512 -1.76401 0
M  V30 11270 N 1039.1 0.374177 1.53094 0
M  V30 11271 C 1040.03 -0.459976 2.28925 0
M  V30 11272 C 1041.02 -1.07656 1.31698 0
M  V30 11273 O 1042.2 -1.09219 1.60577 0
M  V30 11274 C 1039.33 -1.5954 3.08487 0
M  V30 11275 C 1038.28 -1.10563 4.13473 0
M  V30 11276 C 1037.61 -2.33196 4.81169 0
M  V30 11277 C 1038.91 -0.184275 5.21975 0
M  V30 11278 H 1040.6 0.172692 2.98902 0
M  V30 11279 H 1038.15 0.0844956 1.43752 0
M  V30 11280 H 1040.1 -2.18565 3.60288 0
M  V30 11281 H 1038.83 -2.25543 2.36216 0
M  V30 11282 H 1037.49 -0.53801 3.62631 0
M  V30 11283 H 1037.13 -2.97675 4.05461 0
M  V30 11284 H 1036.83 -2.01094 5.52119 0
M  V30 11285 H 1038.36 -2.92892 5.35767 0
M  V30 11286 H 1039.77 -0.682262 5.69226 0
M  V30 11287 H 1038.17 0.0462746 6.00082 0
M  V30 11288 H 1039.24 0.771152 4.78729 0
M  V30 11289 N 1040.58 -1.57259 0.103575 0
M  V30 11290 C 1041.83 -1.94945 -0.558953 0
M  V30 11291 C 1042.16 -0.986038 -1.67305 0
M  V30 11292 O 1041.44 -0.0205464 -1.94489 0
M  V30 11293 C 1041.72 -3.42689 -1.10617 0
M  V30 11294 C 1041.57 -4.498 0.00345246 0
M  V30 11295 C 1042.89 -3.91933 -2.00191 0
M  V30 11296 H 1040.01 -0.708859 -0.201713 0
M  V30 11297 H 1042.65 -1.89183 0.176006 0
M  V30 11298 H 1040.8 -3.4773 -1.73251 0
M  V30 11299 H 1042.47 -4.56866 0.638082 0
M  V30 11300 H 1040.72 -4.28615 0.668705 0
M  V30 11301 H 1041.39 -5.50397 -0.420396 0
M  V30 11302 H 1043.86 -3.89098 -1.4745 0
M  V30 11303 H 1042.74 -4.9586 -2.35402 0
M  V30 11304 H 1043 -3.31722 -2.92255 0
M  V30 11305 N 1042.06 0.170153 -1.56679 0
M  V30 11306 C 1043.31 0.884841 -1.817 0
M  V30 11307 C 1043.63 1.82731 -0.680763 0
M  V30 11308 O 1042.9 1.936 0.299294 0
M  V30 11309 H 1041.48 0.329738 -0.670285 0
M  V30 11310 H 1044.14 0.169691 -1.9416 0
M  V30 11311 H 1043.24 1.46104 -2.7579 0
M  V30 11312 N 1043.54 1.5137 0.438746 0
M  V30 11313 C 1044.78 1.65627 1.19779 0
M  V30 11314 C 1045.14 0.363885 1.8852 0
M  V30 11315 O 1046.34 0.382215 2.66069 0
M  V30 11316 C 1044.61 2.82536 2.18879 0
M  V30 11317 S 1046.17 3.17113 3.0329 0
M  V30 11318 H 1042.99 0.583535 0.406212 0
M  V30 11319 H 1045.59 1.89271 0.489582 0
M  V30 11320 H 1044.3 3.74879 1.67015 0
M  V30 11321 H 1043.83 2.61077 2.94283 0
M  V30 11322 H 1045.84 2.63439 4.20493 0
M  V30 11323 N 1045.02 -0.694098 1.41492 0
M  V30 11324 C 1046.26 -1.45127 1.4065 0
M  V30 11325 C 1046.59 -1.94993 0.0170289 0
M  V30 11326 O 1045.86 -1.71799 -0.941372 0
M  V30 11327 H 1044.44 -0.538493 0.51772 0
M  V30 11328 H 1047.1 -0.821441 1.76744 0
M  V30 11329 H 1046.19 -2.31372 2.0946 0
M  V30 11330 N 1046.49 -1.27344 -0.928501 0
M  V30 11331 C 1047.74 -1.13635 -1.6761 0
M  V30 11332 C 1048.07 0.317957 -1.91884 0
M  V30 11333 O 1047.32 1.24904 -1.50657 0
M  V30 11334 C 1047.62 -1.86439 -3.04918 0
M  V30 11335 C 1047.29 -3.36298 -3.00358 0
M  V30 11336 C 1045.95 -3.77173 -2.98821 0
M  V30 11337 C 1048.3 -4.31921 -2.91708 0
M  V30 11338 C 1045.63 -5.12037 -2.86417 0
M  V30 11339 C 1047.98 -5.66841 -2.80846 0
M  V30 11340 C 1046.65 -6.07011 -2.77659 0
M  V30 11341 H 1045.92 -0.415821 -0.61333 0
M  V30 11342 H 1048.56 -1.57943 -1.08288 0
M  V30 11343 H 1046.87 -1.34638 -3.6794 0
M  V30 11344 H 1048.57 -1.73261 -3.61637 0
M  V30 11345 H 1045.16 -3.0379 -3.0234 0
M  V30 11346 H 1049.34 -4.01314 -2.91994 0
M  V30 11347 H 1044.6 -5.42307 -2.82336 0
M  V30 11348 H 1048.77 -6.40608 -2.73119 0
M  V30 11349 H 1046.4 -7.11467 -2.67804 0
M  V30 11350 N 1047.97 1.13488 -1.09353 0
M  V30 11351 C 1049.22 1.85022 -0.830354 0
M  V30 11352 C 1049.55 1.83266 0.64242 0
M  V30 11353 O 1048.83 1.27024 1.47293 0
M  V30 11354 C 1049.11 3.33218 -1.36521 0
M  V30 11355 C 1048.96 3.43491 -2.90404 0
M  V30 11356 C 1050.28 4.28626 -0.998381 0
M  V30 11357 H 1047.4 0.671786 -0.303105 0
M  V30 11358 H 1050.04 1.33211 -1.3548 0
M  V30 11359 H 1048.19 3.77471 -0.919117 0
M  V30 11360 H 1049.86 3.07954 -3.43456 0
M  V30 11361 H 1048.11 2.84391 -3.27573 0
M  V30 11362 H 1048.78 4.47702 -3.22905 0
M  V30 11363 H 1051.25 3.9244 -1.38311 0
M  V30 11364 H 1050.13 5.30754 -1.39968 0
M  V30 11365 H 1050.39 4.42001 0.093517 0
M  V30 11366 N 1049.45 0.880621 1.30701 0
M  V30 11367 C 1050.68 0.510909 2.01009 0
M  V30 11368 C 1051.1 -0.892041 1.65603 0
M  V30 11369 O 1050.46 -1.59045 0.870309 0
M  V30 11370 C 1050.51 0.687759 3.53981 0
M  V30 11371 O 1049.61 -0.268275 4.11526 0
M  V30 11372 H 1048.95 0.201864 0.632572 0
M  V30 11373 H 1051.48 1.18697 1.6665 0
M  V30 11374 H 1051.49 0.585095 4.03783 0
M  V30 11375 H 1050.17 1.71068 3.79089 0
M  V30 11376 H 1048.74 -0.119673 3.72708 0
M  V30 11377 N 1050.93 -1.4397 0.641131 0
M  V30 11378 C 1052.18 -2.01946 0.149629 0
M  V30 11379 C 1052.5 -1.50496 -1.23212 0
M  V30 11380 O 1051.76 -0.683453 -1.83378 0
M  V30 11381 C 1052.06 -3.5727 0.0963368 0
M  V30 11382 C 1051.72 -4.28016 1.4182 0
M  V30 11383 C 1050.39 -4.47059 1.78021 0
M  V30 11384 C 1052.74 -4.68183 2.29028 0
M  V30 11385 C 1050.07 -5.03532 3.01119 0
M  V30 11386 C 1052.42 -5.26019 3.51406 0
M  V30 11387 C 1051.08 -5.4328 3.87818 0
M  V30 11388 H 1050.35 -0.738974 0.0547531 0
M  V30 11389 H 1053 -1.72605 0.829436 0
M  V30 11390 H 1051.3 -3.86083 -0.666879 0
M  V30 11391 H 1053 -3.99871 -0.300635 0
M  V30 11392 H 1049.59 -4.13531 1.12651 0
M  V30 11393 H 1053.78 -4.53175 2.02353 0
M  V30 11394 H 1049.03 -5.15082 3.29395 0
M  V30 11395 H 1053.21 -5.56092 4.19208 0
M  V30 11396 H 1050.83 -5.86805 4.83284 0
M  V30 11397 N 1052.41 -0.382291 -1.52893 0
M  V30 11398 C 1053.82 -0.031941 -1.59568 0
M  V30 11399 C 1054.02 1.45245 -1.39664 0
M  V30 11400 O 1053.08 2.21612 -1.21013 0
M  V30 11401 C 1054.39 -0.502846 -2.96466 0
M  V30 11402 C 1055.94 -0.4585 -3.09624 0
M  V30 11403 C 1056.42 -0.905481 -4.4896 0
M  V30 11404 N 1057.91 -0.861211 -4.55124 0
M  V30 11405 C 1058.64 -1.17856 -5.61157 0
M  V30 11406 N 1058.14 -1.56603 -6.74868 0
M  V30 11407 N 1059.93 -1.10027 -5.51226 0
M  V30 11408 H 1052.08 -1.34875 -1.64081 0
M  V30 11409 H 1054.34 -0.552375 -0.770446 0
M  V30 11410 H 1054.05 -1.53931 -3.16225 0
M  V30 11411 H 1053.92 0.101777 -3.77063 0
M  V30 11412 H 1056.31 0.568868 -2.89565 0
M  V30 11413 H 1056.39 -1.09884 -2.30996 0
M  V30 11414 H 1056.04 -1.93105 -4.69759 0
M  V30 11415 H 1055.97 -0.242227 -5.26043 0
M  V30 11416 H 1058.46 -0.575988 -3.73485 0
M  V30 11417 H 1058.77 -1.792 -7.51736 0
M  V30 11418 H 1057.12 -1.60484 -6.76217 0
M  V30 11419 H 1060.31 -0.796623 -4.61272 0
M  V30 11420 H 1060.48 -1.35091 -6.33762 0
M  V30 11421 N 1053.89 1.57202 -0.111913 0
M  V30 11422 C 1054.83 2.14936 0.840908 0
M  V30 11423 C 1055.8 1.07242 1.2684 0
M  V30 11424 O 1056.99 1.35114 1.34718 0
M  V30 11425 C 1054.13 2.74743 2.0883 0
M  V30 11426 C 1053.24 3.96723 1.70982 0
M  V30 11427 C 1052.38 4.4464 2.90634 0
M  V30 11428 C 1051.41 5.59169 2.48992 0
M  V30 11429 N 1050.55 6.01862 3.61534 0
M  V30 11430 H 1055.39 2.96034 0.341735 0
M  V30 11431 H 1052.93 1.4626 0.156993 0
M  V30 11432 H 1054.89 3.07546 2.81907 0
M  V30 11433 H 1053.52 1.96346 2.56218 0
M  V30 11434 H 1052.57 3.70127 0.878072 0
M  V30 11435 H 1053.88 4.79795 1.36373 0
M  V30 11436 H 1053.03 4.79315 3.71944 0
M  V30 11437 H 1051.77 3.60503 3.28464 0
M  V30 11438 H 1050.78 5.24106 1.66113 0
M  V30 11439 H 1052 6.45067 2.12287 0
M  V30 11440 H 1049.95 5.20667 3.99051 0
M  V30 11441 H 1049.87 6.79772 3.30827 0
M  V30 11442 H 1051.13 6.41172 4.43305 0
M  V30 11443 N 1055.36 -0.161842 1.56767 0
M  V30 11444 C 1056.31 -1.2002 1.97139 0
M  V30 11445 C 1057.28 -1.43486 0.836713 0
M  V30 11446 O 1058.47 -1.56069 1.0976 0
M  V30 11447 C 1055.61 -2.53228 2.34456 0
M  V30 11448 C 1054.72 -2.37062 3.61145 0
M  V30 11449 C 1053.85 -3.63202 3.87631 0
M  V30 11450 C 1052.89 -3.42008 5.07638 0
M  V30 11451 N 1052.03 -4.60242 5.30209 0
M  V30 11452 H 1056.87 -0.848918 2.85653 0
M  V30 11453 H 1054.41 -0.407753 1.41336 0
M  V30 11454 H 1056.36 -3.30879 2.54116 0
M  V30 11455 H 1054.99 -2.86333 1.4904 0
M  V30 11456 H 1054.05 -1.50539 3.49345 0
M  V30 11457 H 1055.36 -2.17353 4.48953 0
M  V30 11458 H 1054.51 -4.49285 4.0771 0
M  V30 11459 H 1053.25 -3.85899 2.98216 0
M  V30 11460 H 1052.26 -2.54312 4.87448 0
M  V30 11461 H 1053.48 -3.20724 5.98593 0
M  V30 11462 H 1051.43 -4.8314 4.43747 0
M  V30 11463 H 1051.34 -4.43481 6.12259 0
M  V30 11464 H 1052.61 -5.47581 5.54775 0
M  V30 11465 N 1056.84 -1.516 -0.430713 0
M  V30 11466 C 1058.25 -1.57 -1.01035 0
M  V30 11467 C 1058.6 -0.397439 -1.92132 0
M  V30 11468 O 1057.73 0.484954 -2.10896 0
M  V30 11469 C 1058.32 -2.84536 -1.83915 0
M  V30 11470 C 1056.88 -2.92485 -2.36917 0
M  V30 11471 C 1056.03 -2.5173 -1.16308 0
M  V30 11472 H 1058.98 -1.57281 -0.211734 0
M  V30 11473 H 1059 -2.68672 -2.69435 0
M  V30 11474 H 1058.51 -3.69858 -1.17586 0
M  V30 11475 H 1056.61 -2.11608 -3.0668 0
M  V30 11476 H 1056.73 -3.96277 -2.6926 0
M  V30 11477 H 1055.09 -2.05079 -1.51045 0
M  V30 11478 H 1055.87 -3.39403 -0.515793 0
M  V30 11479 N 1058.32 0.686584 -1.41858 0
M  V30 11480 C 1059.57 1.44879 -1.41908 0
M  V30 11481 C 1059.9 1.94175 -0.0311408 0
M  V30 11482 O 1059.17 1.70131 0.942646 0
M  V30 11483 C 1059.46 2.65428 -2.43352 0
M  V30 11484 C 1059.31 2.2184 -3.91289 0
M  V30 11485 C 1060.63 3.67635 -2.41934 0
M  V30 11486 H 1057.75 0.525477 -0.516762 0
M  V30 11487 H 1060.39 0.781263 -1.73194 0
M  V30 11488 H 1058.54 3.2238 -2.16803 0
M  V30 11489 H 1060.21 1.70146 -4.28775 0
M  V30 11490 H 1058.45 1.53531 -4.05722 0
M  V30 11491 H 1059.13 3.08376 -4.5783 0
M  V30 11492 H 1061.6 3.20376 -2.65516 0
M  V30 11493 H 1060.48 4.49579 -3.14913 0
M  V30 11494 H 1060.74 4.17953 -1.44111 0
M  V30 11495 N 1059.8 1.27835 0.921735 0
M  V30 11496 C 1061.07 1.05238 1.64877 0
M  V30 11497 C 1061.45 -0.410921 2.07062 0
M  V30 11498 O 1060.8 -1.39538 1.80946 0
M  V30 11499 C 1061.01 2.01955 2.84632 0
M  V30 11500 C 1062.36 2.31657 3.55837 0
M  V30 11501 O 1063.38 1.99975 2.94768 0
M  V30 11502 O 1062.24 2.85692 4.65878 0
M  V30 11503 H 1059.34 0.401622 0.72293 0
M  V30 11504 H 1061.88 1.39123 0.971744 0
M  V30 11505 H 1060.66 3.00614 2.50494 0
M  V30 11506 H 1060.28 1.68667 3.60052 0
M  V30 11507 N 1061.28 -1.12907 1.09954 0
M  V30 11508 C 1062.22 -2.18485 0.743848 0
M  V30 11509 C 1063.19 -1.63766 -0.277494 0
M  V30 11510 O 1064.38 -1.90146 -0.157899 0
M  V30 11511 C 1061.52 -3.44649 0.176437 0
M  V30 11512 C 1060.63 -4.13445 1.25248 0
M  V30 11513 C 1059.77 -5.27242 0.647242 0
M  V30 11514 C 1058.8 -5.87897 1.70421 0
M  V30 11515 N 1057.94 -6.93116 1.1196 0
M  V30 11516 H 1062.78 -2.48257 1.64841 0
M  V30 11517 H 1060.32 -1.21891 0.823471 0
M  V30 11518 H 1062.28 -4.16852 -0.170384 0
M  V30 11519 H 1060.91 -3.15309 -0.69137 0
M  V30 11520 H 1059.96 -3.39471 1.7165 0
M  V30 11521 H 1061.27 -4.54601 2.05279 0
M  V30 11522 H 1060.42 -6.06186 0.249579 0
M  V30 11523 H 1059.16 -4.87351 -0.184556 0
M  V30 11524 H 1058.17 -5.07643 2.11136 0
M  V30 11525 H 1059.39 -6.2986 2.53877 0
M  V30 11526 H 1057.34 -6.55271 0.309181 0
M  V30 11527 H 1057.26 -7.32843 1.85681 0
M  V30 11528 H 1058.52 -7.759 0.748326 0
M  V30 11529 N 1062.75 -0.88754 -1.30232 0
M  V30 11530 C 1063.7 -0.327649 -2.25633 0
M  V30 11531 C 1064.69 0.545362 -1.51376 0
M  V30 11532 O 1065.88 0.389366 -1.72664 0
M  V30 11533 C 1063.01 0.454546 -3.40277 0
M  V30 11534 C 1062.09 -0.432698 -4.21887 0
M  V30 11535 N 1062.49 -1.53434 -4.81966 0
M  V30 11536 C 1060.78 -0.228275 -4.45415 0
M  V30 11537 C 1061.48 -2.08292 -5.43129 0
M  V30 11538 N 1060.46 -1.37754 -5.25856 0
M  V30 11539 H 1064.26 -1.16937 -2.69635 0
M  V30 11540 H 1061.78 -0.737232 -1.44702 0
M  V30 11541 H 1063.77 0.87231 -4.07672 0
M  V30 11542 H 1062.43 1.29367 -2.97816 0
M  V30 11543 H 1063.44 -1.91717 -4.81108 0
M  V30 11544 H 1060.12 0.573475 -4.13543 0
M  V30 11545 H 1061.51 -3.00818 -6.00798 0
M  V30 11546 N 1064.23 1.43628 -0.648757 0
M  V30 11547 C 1065.18 2.30755 0.0455536 0
M  V30 11548 C 1066.15 1.44495 0.819168 0
M  V30 11549 O 1067.33 1.73372 0.79667 0
M  V30 11550 C 1064.47 3.30017 1.00908 0
M  V30 11551 C 1063.59 4.31376 0.232039 0
M  V30 11552 C 1062.72 5.17723 1.18897 0
M  V30 11553 C 1061.76 6.10778 0.402096 0
M  V30 11554 N 1060.9 6.89763 1.31038 0
M  V30 11555 H 1065.74 2.89581 -0.70332 0
M  V30 11556 H 1063.28 1.42662 -0.3586 0
M  V30 11557 H 1065.23 3.86072 1.58128 0
M  V30 11558 H 1063.86 2.72851 1.72488 0
M  V30 11559 H 1062.92 3.77652 -0.456373 0
M  V30 11560 H 1064.23 4.9735 -0.380023 0
M  V30 11561 H 1063.38 5.78381 1.83194 0
M  V30 11562 H 1062.12 4.51864 1.83494 0
M  V30 11563 H 1061.13 5.49212 -0.254255 0
M  V30 11564 H 1062.35 6.78678 -0.239411 0
M  V30 11565 H 1060.3 6.26557 1.94324 0
M  V30 11566 H 1060.21 7.52243 0.752774 0
M  V30 11567 H 1061.48 7.54931 1.94164 0
M  V30 11568 N 1065.71 0.390394 1.52688 0
M  V30 11569 C 1066.66 -0.444229 2.26485 0
M  V30 11570 C 1067.63 -1.05688 1.28138 0
M  V30 11571 O 1068.81 -1.0847 1.56968 0
M  V30 11572 C 1065.95 -1.56501 3.07574 0
M  V30 11573 C 1065.07 -0.975111 4.20851 0
M  V30 11574 C 1064.2 -2.06704 4.89333 0
M  V30 11575 C 1063.24 -1.45309 5.94602 0
M  V30 11576 N 1062.38 -2.48437 6.56676 0
M  V30 11577 H 1067.22 0.191535 2.97384 0
M  V30 11578 H 1064.75 0.106287 1.46716 0
M  V30 11579 H 1066.71 -2.22558 3.52879 0
M  V30 11580 H 1065.34 -2.17107 2.38881 0
M  V30 11581 H 1064.39 -0.204109 3.79852 0
M  V30 11582 H 1065.71 -0.486465 4.96422 0
M  V30 11583 H 1064.86 -2.80528 5.37949 0
M  V30 11584 H 1063.6 -2.58928 4.13289 0
M  V30 11585 H 1062.6 -0.700091 5.45324 0
M  V30 11586 H 1063.83 -0.938775 6.7258 0
M  V30 11587 H 1061.77 -2.99829 5.83471 0
M  V30 11588 H 1061.69 -2.04331 7.27863 0
M  V30 11589 H 1062.96 -3.21888 7.09935 0
M  V30 11590 N 1067.19 -1.57141 0.120249 0
M  V30 11591 C 1068.12 -2.18398 -0.826112 0
M  V30 11592 C 1069.1 -1.12439 -1.27638 0
M  V30 11593 O 1070.28 -1.40679 -1.33877 0
M  V30 11594 C 1067.41 -2.78438 -2.0758 0
M  V30 11595 C 1066.37 -3.89991 -1.76327 0
M  V30 11596 C 1065.69 -4.36844 -3.08336 0
M  V30 11597 C 1066.99 -5.12031 -1.03062 0
M  V30 11598 H 1068.69 -2.97731 -0.315656 0
M  V30 11599 H 1066.23 -1.43213 -0.150387 0
M  V30 11600 H 1068.19 -3.19951 -2.74243 0
M  V30 11601 H 1066.91 -1.96396 -2.60953 0
M  V30 11602 H 1065.57 -3.49055 -1.12053 0
M  V30 11603 H 1065.22 -3.51659 -3.59646 0
M  V30 11604 H 1064.92 -5.1207 -2.88199 0
M  V30 11605 H 1066.44 -4.81009 -3.76116 0
M  V30 11606 H 1067.86 -5.50555 -1.59881 0
M  V30 11607 H 1066.25 -5.92848 -0.930146 0
M  V30 11608 H 1067.32 -4.84897 -0.017582 0
M  V30 11609 N 1068.67 0.153526 -1.5685 0
M  V30 11610 C 1069.6 1.19162 -2.00805 0
M  V30 11611 C 1070.58 1.45172 -0.886518 0
M  V30 11612 O 1071.76 1.56203 -1.15387 0
M  V30 11613 C 1068.89 2.52637 -2.38311 0
M  V30 11614 C 1067.85 2.41161 -3.53589 0
M  V30 11615 C 1067.17 3.79287 -3.76889 0
M  V30 11616 C 1068.47 1.90122 -4.86468 0
M  V30 11617 H 1070.17 0.82617 -2.87776 0
M  V30 11618 H 1067.71 0.395972 -1.38449 0
M  V30 11619 H 1069.67 3.25478 -2.6766 0
M  V30 11620 H 1068.39 2.91005 -1.4827 0
M  V30 11621 H 1067.05 1.70772 -3.24395 0
M  V30 11622 H 1066.7 4.15079 -2.84109 0
M  V30 11623 H 1066.4 3.72472 -4.54465 0
M  V30 11624 H 1067.92 4.53687 -4.08657 0
M  V30 11625 H 1069.33 2.52752 -5.14577 0
M  V30 11626 H 1067.73 1.94214 -5.67804 0
M  V30 11627 H 1068.8 0.856517 -4.77275 0
M  V30 11628 N 1070.14 1.51827 0.422667 0
M  V30 11629 C 1071.39 1.66423 1.1694 0
M  V30 11630 C 1071.75 0.382774 1.88554 0
M  V30 11631 O 1071.04 -0.622166 1.81217 0
M  V30 11632 C 1071.23 2.81572 2.20119 0
M  V30 11633 C 1071.06 4.20791 1.58634 0
M  V30 11634 C 1069.83 4.86517 1.36489 0
M  V30 11635 C 1072.03 5.03372 1.05456 0
M  V30 11636 N 1070.01 6.09809 0.70756 0
M  V30 11637 C 1071.38 6.17787 0.523359 0
M  V30 11638 C 1073.44 4.88797 0.947726 0
M  V30 11639 C 1072.14 7.19225 -0.104199 0
M  V30 11640 C 1074.17 5.90456 0.334042 0
M  V30 11641 C 1073.53 7.04153 -0.186551 0
M  V30 11642 H 1069.63 0.662756 0.415065 0
M  V30 11643 H 1072.21 1.89096 0.463778 0
M  V30 11644 H 1070.38 2.60538 2.88053 0
M  V30 11645 H 1072.11 2.85273 2.87056 0
M  V30 11646 H 1068.87 4.44641 1.63069 0
M  V30 11647 H 1069.29 6.75841 0.395909 0
M  V30 11648 H 1073.94 4.01135 1.33606 0
M  V30 11649 H 1071.65 8.06523 -0.504627 0
M  V30 11650 H 1075.24 5.81249 0.25308 0
M  V30 11651 H 1074.12 7.81469 -0.653943 0
M  V30 11652 N 1071.62 -0.679052 1.4222 0
M  V30 11653 C 1072.85 -1.46534 1.45641 0
M  V30 11654 C 1073.26 -1.89088 0.0649574 0
M  V30 11655 O 1072.6 -1.58436 -0.929712 0
M  V30 11656 C 1072.67 -2.74882 2.3169 0
M  V30 11657 C 1072.33 -2.5443 3.79624 0
M  V30 11658 C 1073.33 -2.19307 4.71382 0
M  V30 11659 C 1071.01 -2.69557 4.23845 0
M  V30 11660 C 1073.01 -1.99571 6.05351 0
M  V30 11661 C 1070.69 -2.49437 5.57875 0
M  V30 11662 C 1071.69 -2.14497 6.48444 0
M  V30 11663 O 1071.38 -1.94567 7.79999 0
M  V30 11664 H 1071.11 -0.457542 0.497626 0
M  V30 11665 H 1073.66 -0.842145 1.87342 0
M  V30 11666 H 1071.89 -3.39669 1.8483 0
M  V30 11667 H 1073.58 -3.3675 2.26615 0
M  V30 11668 H 1074.35 -2.0722 4.38503 0
M  V30 11669 H 1070.23 -2.95733 3.53642 0
M  V30 11670 H 1073.77 -1.72222 6.76007 0
M  V30 11671 H 1069.67 -2.61119 5.90328 0
M  V30 11672 H 1070.44 -2.092 7.91314 0
M  V30 11673 N 1073.1 -1.28322 -0.914942 0
M  V30 11674 C 1074.33 -1.18083 -1.69529 0
M  V30 11675 C 1074.74 0.263274 -1.87359 0
M  V30 11676 O 1074.08 1.18988 -1.39955 0
M  V30 11677 C 1074.14 -1.8062 -3.10832 0
M  V30 11678 C 1073.81 -3.29861 -3.16292 0
M  V30 11679 C 1074.8 -4.26313 -2.97578 0
M  V30 11680 C 1072.49 -3.70797 -3.38843 0
M  V30 11681 C 1074.48 -5.61677 -3.01326 0
M  V30 11682 C 1072.17 -5.06287 -3.42223 0
M  V30 11683 C 1073.17 -6.01537 -3.23485 0
M  V30 11684 O 1072.86 -7.34556 -3.26624 0
M  V30 11685 H 1072.59 -0.410931 -0.53676 0
M  V30 11686 H 1075.14 -1.6994 -1.15367 0
M  V30 11687 H 1073.37 -1.23255 -3.66531 0
M  V30 11688 H 1075.06 -1.64915 -3.70888 0
M  V30 11689 H 1075.83 -3.96023 -2.79984 0
M  V30 11690 H 1071.71 -2.97124 -3.52475 0
M  V30 11691 H 1075.25 -6.36 -2.86618 0
M  V30 11692 H 1071.15 -5.36228 -3.59346 0
M  V30 11693 H 1071.92 -7.43167 -3.42994 0
M  V30 11694 N 1074.58 1.12322 -1.10551 0
M  V30 11695 C 1075.82 1.8413 -0.849932 0
M  V30 11696 C 1076.16 1.83938 0.622946 0
M  V30 11697 O 1075.43 1.28579 1.45937 0
M  V30 11698 C 1075.72 3.31751 -1.40048 0
M  V30 11699 C 1075.57 3.40391 -2.9403 0
M  V30 11700 C 1076.89 4.27543 -1.04379 0
M  V30 11701 H 1074.01 0.668533 -0.310213 0
M  V30 11702 H 1076.65 1.31766 -1.36886 0
M  V30 11703 H 1074.8 3.76475 -0.959102 0
M  V30 11704 H 1076.47 3.04294 -3.46703 0
M  V30 11705 H 1074.71 2.809 -3.30571 0
M  V30 11706 H 1075.38 4.44252 -3.27635 0
M  V30 11707 H 1077.86 3.90951 -1.42466 0
M  V30 11708 H 1076.74 5.2924 -1.4559 0
M  V30 11709 H 1077 4.42075 0.0466316 0
M  V30 11710 N 1076.06 0.894434 1.2976 0
M  V30 11711 C 1077.02 0.373094 2.26143 0
M  V30 11712 C 1078.02 -0.489756 1.5316 0
M  V30 11713 O 1079.21 -0.29556 1.71674 0
M  V30 11714 C 1076.34 -0.467234 3.37683 0
M  V30 11715 H 1077.53 1.22427 2.73773 0
M  V30 11716 H 1075.09 0.672112 1.41111 0
M  V30 11717 H 1075.82 -1.33861 2.95384 0
M  V30 11718 H 1075.61 0.150954 3.91809 0
M  V30 11719 H 1077.1 -0.823469 4.094 0
M  V30 11720 N 1077.53 -1.43282 0.656365 0
M  V30 11721 C 1078.78 -2.01776 0.171039 0
M  V30 11722 C 1079.11 -1.51795 -1.21609 0
M  V30 11723 O 1078.36 -0.702864 -1.82643 0
M  V30 11724 C 1078.66 -3.57148 0.134225 0
M  V30 11725 C 1078.33 -4.26488 1.46352 0
M  V30 11726 C 1076.99 -4.45146 1.82753 0
M  V30 11727 C 1079.34 -4.65728 2.33981 0
M  V30 11728 C 1076.67 -5.0031 3.06443 0
M  V30 11729 C 1079.02 -5.22263 3.56966 0
M  V30 11730 C 1077.69 -5.39136 3.93559 0
M  V30 11731 H 1076.96 -0.738352 0.0625878 0
M  V30 11732 H 1079.6 -1.71716 0.847697 0
M  V30 11733 H 1077.91 -3.86768 -0.625892 0
M  V30 11734 H 1079.61 -4.00168 -0.258207 0
M  V30 11735 H 1076.2 -4.12313 1.1703 0
M  V30 11736 H 1080.38 -4.51003 2.07148 0
M  V30 11737 H 1075.64 -5.11559 3.34839 0
M  V30 11738 H 1079.81 -5.51614 4.25082 0
M  V30 11739 H 1077.44 -5.81646 4.89481 0
M  V30 11740 N 1079.01 -0.398486 -1.52479 0
M  V30 11741 C 1080.26 0.180752 -2.01692 0
M  V30 11742 C 1080.59 1.46044 -1.28457 0
M  V30 11743 O 1079.84 1.92051 -0.376162 0
M  V30 11744 C 1080.14 0.485909 -3.54081 0
M  V30 11745 C 1079.81 -0.703321 -4.45381 0
M  V30 11746 C 1078.47 -1.02955 -4.70057 0
M  V30 11747 C 1080.82 -1.49848 -4.99194 0
M  V30 11748 C 1078.15 -2.15231 -5.45795 0
M  V30 11749 C 1080.5 -2.61192 -5.76161 0
M  V30 11750 C 1079.17 -2.94313 -5.99113 0
M  V30 11751 H 1078.44 0.0661417 -0.738042 0
M  V30 11752 H 1081.08 -0.53772 -1.83796 0
M  V30 11753 H 1079.39 1.28582 -3.701 0
M  V30 11754 H 1081.09 0.946872 -3.89661 0
M  V30 11755 H 1077.68 -0.439062 -4.26345 0
M  V30 11756 H 1081.86 -1.25968 -4.80048 0
M  V30 11757 H 1077.12 -2.41252 -5.61789 0
M  V30 11758 H 1081.29 -3.23201 -6.16858 0
M  V30 11759 H 1078.92 -3.81431 -6.57583 0
M  V30 11760 N 1080.49 1.57075 -0.12858 0
M  V30 11761 C 1081.72 1.99876 0.534544 0
M  V30 11762 C 1082.13 1.00843 1.59612 0
M  V30 11763 O 1081.49 0.00268947 1.825 0
M  V30 11764 C 1081.54 3.42654 1.15198 0
M  V30 11765 O 1081.26 4.37899 0.132823 0
M  V30 11766 C 1082.76 4.00637 1.8975 0
M  V30 11767 H 1079.98 0.656073 0.140744 0
M  V30 11768 H 1082.53 2.03337 -0.217742 0
M  V30 11769 H 1080.68 3.40101 1.85499 0
M  V30 11770 H 1081.1 5.21253 0.582682 0
M  V30 11771 H 1082.57 5.02592 2.28266 0
M  V30 11772 H 1083.05 3.40313 2.7764 0
M  V30 11773 H 1083.65 4.06764 1.2419 0
M  V30 11774 N 1081.97 -0.145205 1.5693 0
M  V30 11775 C 1083.19 -0.876386 1.87974 0
M  V30 11776 C 1083.62 -1.73866 0.717795 0
M  V30 11777 O 1082.98 -1.78224 -0.332551 0
M  V30 11778 C 1083.03 -1.70746 3.17613 0
M  V30 11779 O 1082.13 -2.81188 3.01674 0
M  V30 11780 H 1081.47 -0.243987 0.617549 0
M  V30 11781 H 1084 -0.135482 2.04151 0
M  V30 11782 H 1084.01 -2.1021 3.49679 0
M  V30 11783 H 1082.69 -1.07429 4.01786 0
M  V30 11784 H 1081.26 -2.45117 2.81019 0
M  V30 11785 N 1083.45 -1.52049 -0.414609 0
M  V30 11786 C 1084.86 -1.58062 -0.993638 0
M  V30 11787 C 1085.21 -0.417795 -1.917 0
M  V30 11788 O 1084.33 0.462558 -2.11399 0
M  V30 11789 C 1084.93 -2.86471 -1.80886 0
M  V30 11790 C 1083.49 -2.94981 -2.33801 0
M  V30 11791 C 1082.64 -2.52949 -1.13631 0
M  V30 11792 H 1085.59 -1.57497 -0.19504 0
M  V30 11793 H 1085.61 -2.71515 -2.66571 0
M  V30 11794 H 1085.12 -3.71085 -1.13657 0
M  V30 11795 H 1083.22 -2.14849 -3.04419 0
M  V30 11796 H 1083.33 -3.99111 -2.65042 0
M  V30 11797 H 1081.7 -2.0667 -1.48861 0
M  V30 11798 H 1082.48 -3.39931 -0.479765 0
M  V30 11799 N 1084.93 0.6715 -1.42579 0
M  V30 11800 C 1086.17 1.43154 -1.43224 0
M  V30 11801 C 1086.5 1.94436 -0.0498695 0
M  V30 11802 O 1085.76 1.71521 0.942282 0
M  V30 11803 C 1086.05 2.64256 -2.40632 0
M  V30 11804 C 1085.72 2.31497 -3.86937 0
M  V30 11805 C 1084.38 2.22274 -4.26788 0
M  V30 11806 C 1086.73 2.04957 -4.7921 0
M  V30 11807 C 1084.06 1.84642 -5.56888 0
M  V30 11808 C 1086.41 1.68828 -6.09656 0
M  V30 11809 C 1085.08 1.58118 -6.48502 0
M  V30 11810 H 1084.35 0.523838 -0.524094 0
M  V30 11811 H 1087 0.765363 -1.7554 0
M  V30 11812 H 1085.3 3.35921 -2.01654 0
M  V30 11813 H 1087 3.22443 -2.38394 0
M  V30 11814 H 1083.59 2.39578 -3.55387 0
M  V30 11815 H 1087.77 2.11014 -4.49207 0
M  V30 11816 H 1083.03 1.74921 -5.85843 0
M  V30 11817 H 1087.2 1.47319 -6.8064 0
M  V30 11818 H 1084.83 1.28728 -7.49222 0
M  V30 11819 N 1086.4 1.28806 0.908124 0
M  V30 11820 C 1087.65 1.1646 1.66027 0
M  V30 11821 C 1087.98 -0.285025 1.92097 0
M  V30 11822 O 1087.26 -1.20675 1.52538 0
M  V30 11823 C 1087.54 1.96951 3.01467 0
M  V30 11824 C 1087.39 3.50007 2.82515 0
M  V30 11825 C 1088.71 1.78932 4.02084 0
M  V30 11826 H 1085.83 0.424435 0.602515 0
M  V30 11827 H 1088.47 1.58185 1.0525 0
M  V30 11828 H 1086.62 1.61495 3.53344 0
M  V30 11829 H 1088.3 3.95401 2.37605 0
M  V30 11830 H 1086.54 3.75356 2.17463 0
M  V30 11831 H 1087.21 4.01591 3.7872 0
M  V30 11832 H 1089.69 2.09885 3.59287 0
M  V30 11833 H 1088.56 2.37615 4.94803 0
M  V30 11834 H 1088.82 0.742286 4.35824 0
M  V30 11835 N 1087.88 -1.11734 1.11145 0
M  V30 11836 C 1089.13 -1.83677 0.859684 0
M  V30 11837 C 1089.46 -1.84265 -0.613182 0
M  V30 11838 O 1088.74 -1.29351 -1.45254 0
M  V30 11839 C 1089.02 -3.31003 1.41805 0
M  V30 11840 C 1088.87 -3.38827 2.95831 0
M  V30 11841 C 1090.19 -4.26984 1.06645 0
M  V30 11842 H 1087.31 -0.666879 0.313754 0
M  V30 11843 H 1089.95 -1.31038 1.37583 0
M  V30 11844 H 1088.1 -3.75961 0.979054 0
M  V30 11845 H 1089.77 -3.02451 3.48312 0
M  V30 11846 H 1088.02 -2.79143 3.32056 0
M  V30 11847 H 1088.69 -4.42508 3.29986 0
M  V30 11848 H 1091.16 -3.9019 1.44537 0
M  V30 11849 H 1090.04 -5.2846 1.48394 0
M  V30 11850 H 1090.3 -4.42094 -0.0231866 0
M  V30 11851 N 1089.36 -0.901303 -1.29284 0
M  V30 11852 C 1090.61 -0.528043 -1.95494 0
M  V30 11853 C 1090.93 0.92597 -1.71044 0
M  V30 11854 O 1090.19 1.67185 -1.01723 0
M  V30 11855 C 1090.49 -0.768828 -3.49033 0
M  V30 11856 C 1090.15 -2.20045 -3.93562 0
M  V30 11857 C 1088.82 -2.59189 -4.05431 0
M  V30 11858 C 1091.17 -3.13266 -4.1655 0
M  V30 11859 C 1088.5 -3.90733 -4.37658 0
M  V30 11860 C 1090.85 -4.4436 -4.50252 0
M  V30 11861 C 1089.51 -4.83375 -4.60331 0
M  V30 11862 H 1088.78 -0.193225 -0.715364 0
M  V30 11863 H 1091.43 -1.14027 -1.53851 0
M  V30 11864 H 1089.73 -0.0736997 -3.91731 0
M  V30 11865 H 1091.43 -0.459384 -3.9836 0
M  V30 11866 H 1088.02 -1.88666 -3.84842 0
M  V30 11867 H 1092.21 -2.84237 -4.06845 0
M  V30 11868 H 1087.46 -4.2068 -4.43665 0
M  V30 11869 H 1091.64 -5.16618 -4.66989 0
M  V30 11870 H 1089.26 -5.8534 -4.85058 0
M  V30 11871 N 1090.84 1.42931 -0.663954 0
M  V30 11872 C 1092.06 2.06544 -0.188201 0
M  V30 11873 C 1092.49 1.495 1.14155 0
M  V30 11874 O 1091.85 0.609164 1.7076 0
M  V30 11875 C 1091.89 3.60393 -0.122105 0
M  V30 11876 O 1091 4.02176 0.91258 0
M  V30 11877 H 1090.34 0.656458 -0.0997967 0
M  V30 11878 H 1092.87 1.83253 -0.909909 0
M  V30 11879 H 1092.88 4.07959 0.0576568 0
M  V30 11880 H 1091.55 4.01287 -1.09276 0
M  V30 11881 H 1090.13 3.6618 0.704738 0
M  V30 11882 N 1092.32 0.406567 1.52266 0
M  V30 11883 C 1093.56 -0.1627 2.02748 0
M  V30 11884 C 1093.92 -1.43022 1.28695 0
M  V30 11885 O 1093.21 -1.87715 0.383881 0
M  V30 11886 C 1093.4 -0.467124 3.54334 0
M  V30 11887 C 1093.23 0.76934 4.4307 0
M  V30 11888 C 1092 1.29377 4.88456 0
M  V30 11889 C 1094.2 1.64671 4.87225 0
M  V30 11890 N 1092.18 2.48599 5.61313 0
M  V30 11891 C 1093.55 2.68519 5.58836 0
M  V30 11892 C 1095.61 1.66477 4.69244 0
M  V30 11893 C 1094.31 3.74081 6.14374 0
M  V30 11894 C 1096.34 2.70956 5.25677 0
M  V30 11895 C 1095.7 3.73525 5.97209 0
M  V30 11896 H 1091.8 -0.0211706 0.781713 0
M  V30 11897 H 1094.38 0.560338 1.86463 0
M  V30 11898 H 1092.55 -1.15921 3.70698 0
M  V30 11899 H 1094.29 -1.02505 3.91503 0
M  V30 11900 H 1091.04 0.85219 4.6587 0
M  V30 11901 H 1091.46 3.0897 6.02384 0
M  V30 11902 H 1096.11 0.88519 4.1343 0
M  V30 11903 H 1093.82 4.52896 6.69261 0
M  V30 11904 H 1097.41 2.73258 5.13635 0
M  V30 11905 H 1096.29 4.53043 6.40095 0
M  V30 11906 N 1093.79 -1.57004 0.136909 0
M  V30 11907 C 1094.74 -2.17524 -0.823784 0
M  V30 11908 C 1095.74 -1.1294 -1.26258 0
M  V30 11909 O 1096.94 -1.3121 -1.23223 0
M  V30 11910 H 1093.32 -0.696381 -0.283827 0
M  V30 11911 H 1095.29 -2.96997 -0.289052 0
M  V30 11912 C 1094.04 -2.80331 -2.05693 0
M  V30 11913 H 1093.36 -3.60515 -1.72825 0
M  V30 11914 H 1094.8 -3.26192 -2.70878 0
M  V30 11915 C 1093.26 -1.78322 -2.85837 0
M  V30 11916 O 1093.79 -1.2475 -3.81838 0
M  V30 11917 N 1092 -1.47854 -2.50175 0
M  V30 11918 H 1091.54 -1.9161 -1.72173 0
M  V30 11919 H 1091.5 -0.798464 -3.04092 0
M  V30 11920 N 1095.27 0.136881 -1.57004 0
M  V30 11921 C 1096.52 0.849031 -1.84172 0
M  V30 11922 C 1096.85 1.80359 -0.720027 0
M  V30 11923 O 1096.13 1.92538 0.275584 0
M  V30 11924 C 1096.41 1.61465 -3.21871 0
M  V30 11925 C 1096.26 0.680902 -4.44616 0
M  V30 11926 C 1097.58 2.57488 -3.56914 0
M  V30 11927 H 1094.7 0.307209 -0.669919 0
M  V30 11928 H 1097.34 0.113862 -1.89659 0
M  V30 11929 H 1095.49 2.24137 -3.17325 0
M  V30 11930 H 1097.16 0.0644094 -4.61255 0
M  V30 11931 H 1095.41 -0.00883629 -4.33799 0
M  V30 11932 H 1096.08 1.25286 -5.37594 0
M  V30 11933 H 1098.55 2.0493 -3.62136 0
M  V30 11934 H 1097.43 3.08101 -4.54274 0
M  V30 11935 H 1097.69 3.39321 -2.83397 0
M  V30 11936 N 1096.75 1.52266 0.40654 0
M  V30 11937 C 1098 1.66699 1.15496 0
M  V30 11938 C 1098.33 0.397019 1.90098 0
M  V30 11939 O 1097.6 -0.604646 1.84863 0
M  V30 11940 C 1097.89 2.8907 2.14734 0
M  V30 11941 C 1097.74 4.26123 1.44012 0
M  V30 11942 C 1099.06 3.06966 3.15373 0
M  V30 11943 H 1096.18 0.606642 0.418515 0
M  V30 11944 H 1098.82 1.84826 0.440381 0
M  V30 11945 H 1096.97 2.73745 2.75673 0
M  V30 11946 H 1098.64 4.5318 0.861722 0
M  V30 11947 H 1096.89 4.27406 0.742064 0
M  V30 11948 H 1097.56 5.07799 2.16436 0
M  V30 11949 H 1100.03 3.21205 2.64512 0
M  V30 11950 H 1098.91 3.94097 3.82072 0
M  V30 11951 H 1099.17 2.20395 3.83247 0
M  V30 11952 N 1098.23 -0.663929 1.42933 0
M  V30 11953 C 1099.48 -1.42393 1.43981 0
M  V30 11954 C 1099.8 -1.94407 0.0601802 0
M  V30 11955 O 1099.06 -1.72019 -0.933172 0
M  V30 11956 C 1099.36 -2.62976 2.4203 0
M  V30 11957 C 1099.02 -2.29441 3.88159 0
M  V30 11958 C 1097.69 -2.20007 4.27961 0
M  V30 11959 C 1100.04 -2.02413 4.8029 0
M  V30 11960 C 1097.37 -1.81686 5.57859 0
M  V30 11961 C 1099.72 -1.65592 6.10542 0
M  V30 11962 C 1098.38 -1.54676 6.49332 0
M  V30 11963 H 1097.65 -0.521051 0.526865 0
M  V30 11964 H 1100.3 -0.756042 1.75944 0
M  V30 11965 H 1098.6 -3.34847 2.03433 0
M  V30 11966 H 1100.3 -3.21174 2.40101 0
M  V30 11967 H 1096.89 -2.3769 3.56653 0
M  V30 11968 H 1101.07 -2.08628 4.5032 0
M  V30 11969 H 1096.33 -1.71812 5.86763 0
M  V30 11970 H 1100.5 -1.43707 6.81411 0
M  V30 11971 H 1098.13 -1.24752 7.49894 0
M  V30 11972 N 1099.71 -1.29285 -0.901281 0
M  V30 11973 C 1100.94 -1.19874 -1.68267 0
M  V30 11974 C 1101.34 0.243387 -1.87628 0
M  V30 11975 O 1100.69 1.17497 -1.41209 0
M  V30 11976 C 1100.75 -1.83907 -3.08899 0
M  V30 11977 C 1100.41 -3.33198 -3.12775 0
M  V30 11978 C 1101.41 -4.29446 -2.9304 0
M  V30 11979 C 1099.1 -3.7437 -3.34892 0
M  V30 11980 C 1101.09 -5.64842 -2.95352 0
M  V30 11981 C 1098.78 -5.09888 -3.36834 0
M  V30 11982 C 1099.77 -6.04934 -3.17087 0
M  V30 11983 O 1099.46 -7.37979 -3.18815 0
M  V30 11984 H 1099.19 -0.416601 -0.532372 0
M  V30 11985 H 1101.75 -1.71154 -1.13558 0
M  V30 11986 H 1099.98 -1.27136 -3.65203 0
M  V30 11987 H 1101.67 -1.6884 -3.69118 0
M  V30 11988 H 1102.43 -3.9897 -2.75767 0
M  V30 11989 H 1098.31 -3.00846 -3.49303 0
M  V30 11990 H 1101.86 -6.39004 -2.79856 0
M  V30 11991 H 1097.75 -5.40009 -3.53638 0
M  V30 11992 H 1098.52 -7.46763 -3.35092 0
M  V30 11993 N 1101.18 1.11143 -1.11736 0
M  V30 11994 C 1102.43 1.82311 -0.862875 0
M  V30 11995 C 1102.75 1.85735 0.613326 0
M  V30 11996 O 1103.95 2.53034 0.984168 0
M  V30 11997 C 1102.41 3.27427 -1.49396 0
M  V30 11998 C 1102.02 3.32323 -3.00443 0
M  V30 11999 C 1103.76 4.03474 -1.31944 0
M  V30 12000 C 1101.67 4.71855 -3.56521 0
M  V30 12001 H 1100.6 0.683124 -0.31915 0
M  V30 12002 H 1103.25 1.25045 -1.34298 0
M  V30 12003 H 1101.63 3.84644 -0.941528 0
M  V30 12004 H 1102.8 2.84971 -3.62117 0
M  V30 12005 H 1101.12 2.69758 -3.17206 0
M  V30 12006 H 1103.72 5.06528 -1.71271 0
M  V30 12007 H 1104.06 4.15473 -0.262339 0
M  V30 12008 H 1104.59 3.52652 -1.84069 0
M  V30 12009 H 1101.33 4.65054 -4.61958 0
M  V30 12010 H 1100.85 5.19604 -2.99619 0
M  V30 12011 H 1102.53 5.40816 -3.55144 0
M  V30 12012 N 1102.66 0.908147 1.28804 0
M  V30 12013 C 1103.63 0.397058 2.25735 0
M  V30 12014 C 1104.63 -0.473483 1.53671 0
M  V30 12015 O 1105.82 -0.277335 1.71978 0
M  V30 12016 C 1102.95 -0.431392 3.38159 0
M  V30 12017 H 1104.14 1.25323 2.72459 0
M  V30 12018 H 1101.69 0.687041 1.4039 0
M  V30 12019 H 1102.43 -1.3072 2.96787 0
M  V30 12020 H 1102.21 0.192502 3.91627 0
M  V30 12021 H 1103.7 -0.78 4.10251 0
M  V30 12022 N 1104.14 -1.42577 0.671525 0
M  V30 12023 C 1105.39 -2.01584 0.192431 0
M  V30 12024 C 1105.72 -1.53076 -1.19992 0
M  V30 12025 O 1104.97 -0.722196 -1.81887 0
M  V30 12026 C 1105.27 -3.56985 0.172097 0
M  V30 12027 C 1104.94 -4.24912 1.50867 0
M  V30 12028 C 1103.6 -4.43182 1.87464 0
M  V30 12029 C 1105.95 -4.6322 2.38908 0
M  V30 12030 C 1103.28 -4.97031 3.11732 0
M  V30 12031 C 1105.63 -5.18447 3.62485 0
M  V30 12032 C 1104.29 -5.34932 3.99255 0
M  V30 12033 H 1103.56 -0.737647 0.0704155 0
M  V30 12034 H 1106.21 -1.70807 0.865862 0
M  V30 12035 H 1104.52 -3.87411 -0.584835 0
M  V30 12036 H 1106.21 -4.00419 -0.215749 0
M  V30 12037 H 1102.8 -4.11048 1.21397 0
M  V30 12038 H 1106.99 -4.4878 2.1192 0
M  V30 12039 H 1102.24 -5.07979 3.40246 0
M  V30 12040 H 1106.42 -5.47075 4.30909 0
M  V30 12041 H 1104.04 -5.76422 4.95623 0
M  V30 12042 N 1105.62 -0.414636 -1.52048 0
M  V30 12043 C 1106.55 0.399119 -2.30064 0
M  V30 12044 C 1107.53 1.04126 -1.34506 0
M  V30 12045 O 1108.71 1.04923 -1.63416 0
M  V30 12046 C 1105.84 1.51305 -3.12608 0
M  V30 12047 C 1104.8 0.995621 -4.16259 0
M  V30 12048 C 1104.12 2.20357 -4.87183 0
M  V30 12049 C 1105.42 0.0458178 -5.2228 0
M  V30 12050 H 1107.12 -0.251879 -2.98339 0
M  V30 12051 H 1104.66 -0.122579 -1.43477 0
M  V30 12052 H 1106.62 2.08936 -3.65956 0
M  V30 12053 H 1105.34 2.19201 -2.42113 0
M  V30 12054 H 1104 0.441676 -3.6393 0
M  V30 12055 H 1103.65 2.8682 -4.13211 0
M  V30 12056 H 1103.35 1.86385 -5.57256 0
M  V30 12057 H 1104.87 2.78584 -5.43345 0
M  V30 12058 H 1106.29 0.531102 -5.70835 0
M  V30 12059 H 1104.68 -0.20536 -5.99749 0
M  V30 12060 H 1105.75 -0.897807 -4.76516 0
M  V30 12061 N 1107.1 1.56929 -0.145233 0
M  V30 12062 C 1108.03 2.19685 0.791263 0
M  V30 12063 C 1109.01 1.14455 1.25833 0
M  V30 12064 O 1110.19 1.42791 1.31622 0
M  V30 12065 C 1107.32 2.81705 2.03124 0
M  V30 12066 C 1106.28 3.92746 1.70101 0
M  V30 12067 C 1105.6 4.41694 3.01347 0
M  V30 12068 C 1106.9 5.13606 0.949025 0
M  V30 12069 H 1108.6 2.98196 0.26825 0
M  V30 12070 H 1106.14 1.43434 0.127584 0
M  V30 12071 H 1108.1 3.24273 2.69119 0
M  V30 12072 H 1106.82 2.00523 2.57795 0
M  V30 12073 H 1105.48 3.50794 1.06486 0
M  V30 12074 H 1105.13 3.57336 3.54006 0
M  V30 12075 H 1104.83 5.1659 2.80016 0
M  V30 12076 H 1106.35 4.86931 3.68416 0
M  V30 12077 H 1107.76 5.53029 1.51102 0
M  V30 12078 H 1106.16 5.94252 0.835711 0
M  V30 12079 H 1107.23 4.84863 -0.0595631 0
M  V30 12080 N 1108.58 -0.128553 1.57075 0
M  V30 12081 C 1109.51 -1.15953 2.02675 0
M  V30 12082 C 1110.49 -1.43743 0.909501 0
M  V30 12083 O 1111.67 -1.54348 1.17857 0
M  V30 12084 C 1108.8 -2.48813 2.423 0
M  V30 12085 C 1107.76 -2.35506 3.57381 0
M  V30 12086 C 1107.08 -3.73243 3.82875 0
M  V30 12087 C 1108.38 -1.82359 4.89431 0
M  V30 12088 H 1110.08 -0.780283 2.89054 0
M  V30 12089 H 1107.62 -0.373896 1.39061 0
M  V30 12090 H 1109.57 -3.21179 2.72804 0
M  V30 12091 H 1108.3 -2.88609 1.52881 0
M  V30 12092 H 1106.96 -1.6559 3.27071 0
M  V30 12093 H 1106.61 -4.10507 2.90677 0
M  V30 12094 H 1106.31 -3.65195 4.60333 0
M  V30 12095 H 1107.83 -4.47128 4.15823 0
M  V30 12096 H 1109.24 -2.44533 5.18533 0
M  V30 12097 H 1107.64 -1.85156 5.70822 0
M  V30 12098 H 1108.71 -0.780478 4.78578 0
M  V30 12099 N 1110.05 -1.5248 -0.398459 0
M  V30 12100 C 1111.3 -1.67061 -1.14441 0
M  V30 12101 C 1111.63 -0.405821 -1.90219 0
M  V30 12102 O 1110.88 0.611532 -1.859 0
M  V30 12103 C 1111.18 -2.85038 -2.15611 0
M  V30 12104 C 1110.85 -4.22847 -1.56561 0
M  V30 12105 C 1109.51 -4.60329 -1.40182 0
M  V30 12106 C 1111.86 -5.08683 -1.1354 0
M  V30 12107 C 1109.19 -5.81314 -0.793149 0
M  V30 12108 C 1111.54 -6.30284 -0.540866 0
M  V30 12109 C 1110.21 -6.66505 -0.364297 0
M  V30 12110 H 1109.48 -0.611321 -0.418769 0
M  V30 12111 H 1112.12 -1.86604 -0.430241 0
M  V30 12112 H 1110.43 -2.59873 -2.93212 0
M  V30 12113 H 1112.13 -2.93516 -2.73221 0
M  V30 12114 H 1108.72 -3.93316 -1.70295 0
M  V30 12115 H 1112.9 -4.80301 -1.24999 0
M  V30 12116 H 1108.16 -6.07994 -0.64446 0
M  V30 12117 H 1112.33 -6.96115 -0.199167 0
M  V30 12118 H 1109.96 -7.60121 0.109439 0
M  V30 12119 N 1111.53 0.65634 -1.43283 0
M  V30 12120 C 1112.49 1.75117 -1.47874 0
M  V30 12121 C 1113.49 1.56629 -0.363846 0
M  V30 12122 O 1114.68 1.62584 -0.625464 0
M  V30 12123 C 1111.82 3.13957 -1.32831 0
M  V30 12124 H 1113.01 1.72429 -2.45374 0
M  V30 12125 H 1110.56 0.867704 -1.30002 0
M  V30 12126 H 1111.3 3.22259 -0.36326 0
M  V30 12127 H 1111.08 3.28781 -2.13649 0
M  V30 12128 H 1112.57 3.93799 -1.38969 0
M  V30 12129 N 1113.01 1.29761 0.894412 0
M  V30 12130 C 1114.24 1.20765 1.67629 0
M  V30 12131 C 1114.65 -0.233434 1.87754 0
M  V30 12132 O 1113.99 -1.16747 1.4183 0
M  V30 12133 C 1114.05 1.85542 3.07919 0
M  V30 12134 C 1113.72 3.34852 3.11004 0
M  V30 12135 C 1114.71 4.30994 2.90758 0
M  V30 12136 C 1112.4 3.76141 3.32901 0
M  V30 12137 C 1114.39 5.664 2.92352 0
M  V30 12138 C 1112.08 5.11667 3.34126 0
M  V30 12139 C 1113.08 6.06607 3.13874 0
M  V30 12140 O 1112.77 7.39659 3.14897 0
M  V30 12141 H 1112.5 0.419418 0.530155 0
M  V30 12142 H 1115.05 1.71754 1.12648 0
M  V30 12143 H 1113.28 1.29071 3.64524 0
M  V30 12144 H 1114.97 1.70795 3.68217 0
M  V30 12145 H 1115.74 4.00427 2.73648 0
M  V30 12146 H 1111.62 3.02694 3.47703 0
M  V30 12147 H 1115.16 6.40479 2.76464 0
M  V30 12148 H 1111.06 5.41877 3.50769 0
M  V30 12149 H 1111.82 7.4853 3.31127 0
M  V30 12150 N 1114.49 -1.10549 1.12324 0
M  V30 12151 C 1115.73 -1.82755 0.879117 0
M  V30 12152 C 1116.07 -1.84905 -0.593604 0
M  V30 12153 O 1115.34 -1.30884 -1.43873 0
M  V30 12154 C 1115.62 -3.29481 1.45308 0
M  V30 12155 C 1115.48 -3.3567 2.99408 0
M  V30 12156 C 1116.8 -4.25828 1.11167 0
M  V30 12157 H 1113.92 -0.663513 0.32081 0
M  V30 12158 H 1116.56 -1.29572 1.38965 0
M  V30 12159 H 1114.71 -3.74902 1.01887 0
M  V30 12160 H 1116.38 -2.98739 3.515 0
M  V30 12161 H 1114.62 -2.75606 3.34998 0
M  V30 12162 H 1115.29 -4.38983 3.34661 0
M  V30 12163 H 1117.77 -3.88635 1.48667 0
M  V30 12164 H 1116.65 -5.26857 1.53991 0
M  V30 12165 H 1116.91 -4.42094 0.0237046 0
M  V30 12166 N 1115.97 -0.914965 -1.28321 0
M  V30 12167 C 1116.9 -0.421292 -2.29668 0
M  V30 12168 C 1117.88 0.511743 -1.6222 0
M  V30 12169 O 1119.06 0.419218 -1.89621 0
M  V30 12170 C 1116.19 0.338364 -3.45648 0
M  V30 12171 C 1115.15 -0.505646 -4.25003 0
M  V30 12172 C 1114.47 0.382421 -5.33331 0
M  V30 12173 C 1115.77 -1.76354 -4.91626 0
M  V30 12174 H 1117.47 -1.26826 -2.71211 0
M  V30 12175 H 1115.01 -0.611291 -1.30381 0
M  V30 12176 H 1116.96 0.694578 -4.15636 0
M  V30 12177 H 1115.69 1.21925 -3.02988 0
M  V30 12178 H 1114.35 -0.844395 -3.56743 0
M  V30 12179 H 1114 1.26189 -4.86914 0
M  V30 12180 H 1113.7 -0.17871 -5.87328 0
M  V30 12181 H 1115.22 0.73449 -6.06166 0
M  V30 12182 H 1116.63 -1.47616 -5.5397 0
M  V30 12183 H 1115.03 -2.26717 -5.55625 0
M  V30 12184 H 1116.1 -2.49063 -4.16048 0
M  V30 12185 N 1117.44 1.42219 -0.679077 0
M  V30 12186 C 1118.37 2.33493 -0.0174528 0
M  V30 12187 C 1119.35 1.50915 0.78477 0
M  V30 12188 O 1120.54 1.79504 0.741065 0
M  V30 12189 C 1117.67 3.34576 0.931463 0
M  V30 12190 C 1116.62 4.2734 0.237527 0
M  V30 12191 C 1115.95 5.18664 1.29967 0
M  V30 12192 C 1117.25 5.14729 -0.886082 0
M  V30 12193 H 1118.94 2.89068 -0.779748 0
M  V30 12194 H 1116.49 1.38993 -0.376419 0
M  V30 12195 H 1118.44 3.97343 1.40343 0
M  V30 12196 H 1117.17 2.77315 1.72523 0
M  V30 12197 H 1115.83 3.65973 -0.214245 0
M  V30 12198 H 1115.47 4.57727 2.08554 0
M  V30 12199 H 1115.17 5.81558 0.840463 0
M  V30 12200 H 1116.7 5.84308 1.77249 0
M  V30 12201 H 1118.11 5.71158 -0.495141 0
M  V30 12202 H 1116.51 5.86478 -1.27135 0
M  V30 12203 H 1117.58 4.52874 -1.733 0
M  V30 12204 N 1118.92 0.422693 1.51826 0
M  V30 12205 C 1119.85 -0.440987 2.23899 0
M  V30 12206 C 1120.83 -1.03685 1.25252 0
M  V30 12207 O 1122.02 -1.08212 1.54345 0
M  V30 12208 C 1119.14 -1.61331 2.97809 0
M  V30 12209 C 1118.19 -1.13954 4.10995 0
M  V30 12210 S 1119.02 -0.0935426 5.35418 0
M  V30 12211 C 1120.18 -1.27087 6.12862 0
M  V30 12212 H 1120.41 0.170945 2.96808 0
M  V30 12213 H 1117.94 0.20709 1.53005 0
M  V30 12214 H 1119.9 -2.28546 3.40994 0
M  V30 12215 H 1118.56 -2.19662 2.24516 0
M  V30 12216 H 1117.76 -2.01578 4.61933 0
M  V30 12217 H 1117.36 -0.545838 3.69995 0
M  V30 12218 H 1119.65 -2.19199 6.4106 0
M  V30 12219 H 1120.59 -0.801752 7.03546 0
M  V30 12220 H 1121 -1.50281 5.44129 0
M  V30 12221 N 1120.4 -1.5685 0.153553 0
M  V30 12222 C 1121.68 -1.8796 -0.541328 0
M  V30 12223 C 1122.06 -1.06059 -1.82523 0
M  V30 12224 O 1121.4 -0.149295 -2.28012 0
M  V30 12225 C 1121.61 -3.39697 -0.800442 0
M  V30 12226 C 1122.96 -4.09057 -1.13832 0
M  V30 12227 O 1123.99 -3.44913 -0.889578 0
M  V30 12228 O 1122.85 -5.22347 -1.60673 0
M  V30 12229 H 1119.94 -0.779268 -0.276895 0
M  V30 12230 H 1122.49 -1.68626 0.190657 0
M  V30 12231 H 1121.26 -3.91151 0.107935 0
M  V30 12232 H 1120.88 -3.64582 -1.58638 0
M  V30 12233 N 1121.88 0.120221 -1.57141 0
M  V30 12234 C 1123.12 0.828222 -1.84788 0
M  V30 12235 C 1123.45 1.79936 -0.738459 0
M  V30 12236 O 1122.71 1.93824 0.270295 0
M  V30 12237 C 1123.01 1.61338 -3.18912 0
M  V30 12238 C 1122.67 0.786637 -4.43985 0
M  V30 12239 C 1121.33 0.558645 -4.77946 0
M  V30 12240 C 1123.69 0.210281 -5.20776 0
M  V30 12241 C 1121.01 -0.255975 -5.86141 0
M  V30 12242 C 1123.37 -0.591523 -6.29828 0
M  V30 12243 C 1122.03 -0.829843 -6.62322 0
M  V30 12244 H 1121.3 0.303068 -0.676188 0
M  V30 12245 H 1123.95 0.0906538 -1.91285 0
M  V30 12246 H 1122.25 2.42182 -3.07986 0
M  V30 12247 H 1123.95 2.16513 -3.37525 0
M  V30 12248 H 1120.54 0.974426 -4.17376 0
M  V30 12249 H 1124.72 0.373641 -4.94892 0
M  V30 12250 H 1119.98 -0.449849 -6.09743 0
M  V30 12251 H 1124.15 -1.04512 -6.88513 0
M  V30 12252 H 1121.78 -1.4629 -7.45992 0
M  V30 12253 N 1123.36 1.52689 0.390367 0
M  V30 12254 C 1124.31 1.73751 1.4763 0
M  V30 12255 C 1125.29 0.591572 1.4963 0
M  V30 12256 O 1126.48 0.849354 1.5529 0
M  V30 12257 C 1123.61 1.90855 2.85358 0
M  V30 12258 C 1122.7 3.11377 2.87933 0
M  V30 12259 N 1123.09 4.33751 2.6018 0
M  V30 12260 C 1121.39 3.11594 3.19101 0
M  V30 12261 C 1122.09 5.15346 2.69803 0
M  V30 12262 N 1121.06 4.51002 3.03476 0
M  V30 12263 H 1124.87 2.65994 1.24997 0
M  V30 12264 H 1122.38 1.50977 0.598301 0
M  V30 12265 H 1124.38 2.04065 3.63542 0
M  V30 12266 H 1123.04 0.998241 3.08974 0
M  V30 12267 H 1124.05 4.61907 2.34227 0
M  V30 12268 H 1120.72 2.30368 3.48191 0
M  V30 12269 H 1122.11 6.22892 2.51902 0
M  V30 12270 N 1124.83 -0.648732 1.43629 0
M  V30 12271 C 1126.06 -1.44117 1.49148 0
M  V30 12272 C 1126.48 -1.87767 0.111952 0
M  V30 12273 O 1125.84 -1.57655 -0.895249 0
M  V30 12274 C 1125.89 -2.64938 2.44623 0
M  V30 12275 O 1124.99 -3.64155 1.93559 0
M  V30 12276 H 1124.34 -0.431933 0.504312 0
M  V30 12277 H 1126.87 -0.793439 1.88589 0
M  V30 12278 H 1126.88 -3.12698 2.62076 0
M  V30 12279 H 1125.55 -2.3251 3.44836 0
M  V30 12280 H 1124.13 -3.23322 1.85789 0
M  V30 12281 N 1126.31 -1.30234 -0.887518 0
M  V30 12282 C 1127.56 -1.19086 -1.64153 0
M  V30 12283 C 1127.89 0.254428 -1.92526 0
M  V30 12284 O 1127.17 1.18233 -1.54438 0
M  V30 12285 C 1127.45 -2.01723 -2.98295 0
M  V30 12286 C 1127.3 -3.54458 -2.76911 0
M  V30 12287 C 1128.62 -1.85307 -3.99186 0
M  V30 12288 H 1125.74 -0.433967 -0.595686 0
M  V30 12289 H 1128.38 -1.59839 -1.0272 0
M  V30 12290 H 1126.53 -1.67096 -3.5073 0
M  V30 12291 H 1128.2 -3.99131 -2.31284 0
M  V30 12292 H 1126.45 -3.78768 -2.11464 0
M  V30 12293 H 1127.12 -4.07565 -3.72283 0
M  V30 12294 H 1129.59 -2.15575 -3.55903 0
M  V30 12295 H 1128.47 -2.45456 -4.90961 0
M  V30 12296 H 1128.73 -0.811528 -4.34588 0
M  V30 12297 N 1127.79 1.09952 -1.12909 0
M  V30 12298 C 1129.2 1.63516 -0.901087 0
M  V30 12299 C 1129.55 1.87932 0.563547 0
M  V30 12300 O 1128.68 1.625 1.42908 0
M  V30 12301 C 1129.27 2.97054 -1.62924 0
M  V30 12302 C 1127.83 3.47464 -1.44725 0
M  V30 12303 C 1126.98 2.21979 -1.66194 0
M  V30 12304 H 1129.93 0.933858 -1.28315 0
M  V30 12305 H 1129.95 3.64757 -1.08318 0
M  V30 12306 H 1129.46 2.79251 -2.69519 0
M  V30 12307 H 1127.56 3.70402 -0.40409 0
M  V30 12308 H 1127.68 4.25254 -2.20671 0
M  V30 12309 H 1126.04 2.30368 -1.0864 0
M  V30 12310 H 1126.82 2.06702 -2.74097 0
M  V30 12311 N 1129.27 0.921757 1.27833 0
M  V30 12312 C 1130.22 0.387357 2.24685 0
M  V30 12313 C 1131.2 -0.505036 1.52768 0
M  V30 12314 O 1132.39 -0.34345 1.73636 0
M  V30 12315 C 1129.52 -0.364168 3.41363 0
M  V30 12316 C 1128.61 0.544401 4.20591 0
M  V30 12317 N 1129 1.66158 4.77729 0
M  V30 12318 C 1127.3 0.346289 4.44654 0
M  V30 12319 C 1128 2.22619 5.37416 0
M  V30 12320 N 1126.98 1.51648 5.22019 0
M  V30 12321 H 1130.78 1.24045 2.6644 0
M  V30 12322 H 1128.29 0.775338 1.42696 0
M  V30 12323 H 1130.29 -0.763917 4.09841 0
M  V30 12324 H 1128.95 -1.21426 3.01141 0
M  V30 12325 H 1129.96 2.04406 4.75856 0
M  V30 12326 H 1126.64 -0.46363 4.14918 0
M  V30 12327 H 1128.03 3.16641 5.92611 0
M  V30 12328 N 1130.75 -1.41857 0.686609 0
M  V30 12329 C 1132.16 -1.84439 0.289662 0
M  V30 12330 C 1132.51 -1.57462 -1.17047 0
M  V30 12331 O 1131.63 -1.04046 -1.89745 0
M  V30 12332 C 1132.23 -3.34802 0.518948 0
M  V30 12333 C 1130.79 -3.75988 0.176007 0
M  V30 12334 C 1129.93 -2.65339 0.805632 0
M  V30 12335 H 1132.89 -1.31536 0.88792 0
M  V30 12336 H 1132.91 -3.79833 -0.225209 0
M  V30 12337 H 1132.42 -3.54405 1.58173 0
M  V30 12338 H 1130.52 -3.61989 -0.882865 0
M  V30 12339 H 1130.63 -4.75009 0.624772 0
M  V30 12340 H 1129 -2.53605 0.235966 0
M  V30 12341 H 1129.78 -2.87762 1.8721 0
M  V30 12342 N 1132.22 -0.430739 -1.51599 0
M  V30 12343 C 1133.64 0.0339139 -1.86669 0
M  V30 12344 C 1133.99 1.42533 -1.34829 0
M  V30 12345 O 1133.11 2.04889 -0.696376 0
M  V30 12346 C 1133.71 0.0683174 -3.38731 0
M  V30 12347 C 1132.27 0.477363 -3.73361 0
M  V30 12348 C 1131.41 -0.334258 -2.75278 0
M  V30 12349 H 1134.36 -0.646875 -1.44918 0
M  V30 12350 H 1134.38 0.879179 -3.70204 0
M  V30 12351 H 1133.9 -0.944501 -3.76432 0
M  V30 12352 H 1132 1.49603 -3.41247 0
M  V30 12353 H 1132.11 0.206744 -4.78654 0
M  V30 12354 H 1130.47 0.206503 -2.53861 0
M  V30 12355 H 1131.26 -1.34583 -3.1582 0
M  V30 12356 N 1133.7 1.56767 -0.161869 0
M  V30 12357 C 1134.61 2.21083 0.784814 0
M  V30 12358 C 1135.63 1.19959 1.26039 0
M  V30 12359 O 1136.8 1.52588 1.31449 0
M  V30 12360 C 1133.87 2.83153 2.00063 0
M  V30 12361 C 1132.93 3.9945 1.57285 0
M  V30 12362 C 1132.16 4.5855 2.7307 0
M  V30 12363 O 1132.39 4.16534 3.89686 0
M  V30 12364 O 1131.32 5.48575 2.47688 0
M  V30 12365 H 1135.15 3.02522 0.267243 0
M  V30 12366 H 1132.73 1.49255 0.0658783 0
M  V30 12367 H 1134.61 3.22546 2.71186 0
M  V30 12368 H 1133.29 2.04718 2.50744 0
M  V30 12369 H 1132.2 3.64745 0.831393 0
M  V30 12370 H 1133.53 4.7945 1.11304 0
M  V30 12371 N 1135.18 -0.111886 1.57202 0
M  V30 12372 C 1136.11 -1.13796 2.03894 0
M  V30 12373 C 1137.09 -1.4277 0.924696 0
M  V30 12374 O 1138.28 -1.53089 1.19488 0
M  V30 12375 C 1135.41 -2.46229 2.44925 0
M  V30 12376 C 1134.36 -2.31702 3.59859 0
M  V30 12377 C 1133.69 -3.69161 3.86813 0
M  V30 12378 C 1134.99 -1.77158 4.91337 0
M  V30 12379 H 1136.68 -0.749581 2.89865 0
M  V30 12380 H 1134.23 -0.359126 1.3945 0
M  V30 12381 H 1136.18 -3.18267 2.76195 0
M  V30 12382 H 1134.9 -2.86971 1.55933 0
M  V30 12383 H 1133.56 -1.62112 3.28809 0
M  V30 12384 H 1133.21 -4.07401 2.95015 0
M  V30 12385 H 1132.91 -3.60292 4.6418 0
M  V30 12386 H 1134.43 -4.42693 4.20542 0
M  V30 12387 H 1135.85 -2.3902 5.21097 0
M  V30 12388 H 1134.25 -1.79091 5.72753 0
M  V30 12389 H 1135.32 -0.729675 4.79379 0
M  V30 12390 N 1136.66 -1.52894 -0.382264 0
M  V30 12391 C 1137.9 -1.68515 -1.12829 0
M  V30 12392 C 1138.24 -0.427211 -1.89443 0
M  V30 12393 O 1137.51 0.57516 -1.85801 0
M  V30 12394 C 1137.8 -2.92449 -2.10108 0
M  V30 12395 C 1137.65 -4.2836 -1.37214 0
M  V30 12396 C 1138.97 -3.11944 -3.1045 0
M  V30 12397 H 1136.09 -0.613223 -0.408811 0
M  V30 12398 H 1138.73 -1.85503 -0.410921 0
M  V30 12399 H 1136.88 -2.78097 -2.71283 0
M  V30 12400 H 1138.55 -4.54493 -0.789516 0
M  V30 12401 H 1136.79 -4.28532 -0.673973 0
M  V30 12402 H 1137.46 -5.11178 -2.0833 0
M  V30 12403 H 1139.94 -3.25372 -2.59369 0
M  V30 12404 H 1138.82 -4.00125 -3.75754 0
M  V30 12405 H 1139.08 -2.26465 -3.79692 0
M  V30 12406 N 1138.14 0.641106 -1.43971 0
M  V30 12407 C 1139.07 1.76489 -1.52885 0
M  V30 12408 C 1140.05 1.65742 -0.38258 0
M  V30 12409 O 1141.23 1.84653 -0.601397 0
M  V30 12410 C 1138.36 3.14977 -1.4631 0
M  V30 12411 C 1137.32 3.40502 -2.59311 0
M  V30 12412 C 1136.64 4.78916 -2.37789 0
M  V30 12413 C 1137.94 3.34048 -4.01509 0
M  V30 12414 H 1139.64 1.69286 -2.46946 0
M  V30 12415 H 1137.18 0.813015 -1.18853 0
M  V30 12416 H 1139.14 3.9336 -1.51149 0
M  V30 12417 H 1137.86 3.2294 -0.487599 0
M  V30 12418 H 1136.52 2.64495 -2.53846 0
M  V30 12419 H 1136.17 4.8357 -1.38454 0
M  V30 12420 H 1135.87 4.96954 -3.13545 0
M  V30 12421 H 1137.39 5.59541 -2.4443 0
M  V30 12422 H 1138.81 4.0235 -4.08396 0
M  V30 12423 H 1137.2 3.63622 -4.77388 0
M  V30 12424 H 1138.27 2.32022 -4.25786 0
M  V30 12425 N 1139.62 1.30703 0.880598 0
M  V30 12426 C 1140.85 1.22536 1.66339 0
M  V30 12427 C 1141.25 -0.213507 1.87991 0
M  V30 12428 O 1140.6 -1.15236 1.43061 0
M  V30 12429 C 1140.66 1.88798 3.05934 0
M  V30 12430 C 1140.32 3.38131 3.07435 0
M  V30 12431 C 1141.32 4.34053 2.86171 0
M  V30 12432 C 1139 3.79651 3.28893 0
M  V30 12433 C 1141 5.69469 2.86328 0
M  V30 12434 C 1138.69 5.15182 3.2868 0
M  V30 12435 C 1139.68 6.09902 3.07423 0
M  V30 12436 O 1139.37 7.42957 3.07034 0
M  V30 12437 H 1139.1 0.425018 0.525677 0
M  V30 12438 H 1141.66 1.72939 1.1082 0
M  V30 12439 H 1139.89 1.3293 3.63134 0
M  V30 12440 H 1141.58 1.74691 3.66385 0
M  V30 12441 H 1142.34 4.03307 2.69385 0
M  V30 12442 H 1138.22 3.06365 3.44473 0
M  V30 12443 H 1141.77 6.43375 2.69655 0
M  V30 12444 H 1137.66 5.45567 3.45002 0
M  V30 12445 H 1138.43 7.52 3.23169 0
M  V30 12446 N 1141.09 -1.09351 1.1349 0
M  V30 12447 C 1142.32 -1.85844 0.92069 0
M  V30 12448 C 1142.74 -1.80616 -0.525303 0
M  V30 12449 O 1142.1 -1.1842 -1.37282 0
M  V30 12450 C 1142.15 -3.31716 1.4141 0
M  V30 12451 O 1141.25 -4.08014 0.599838 0
M  V30 12452 H 1140.59 -0.576242 0.32991 0
M  V30 12453 H 1143.12 -1.38084 1.50976 0
M  V30 12454 H 1143.13 -3.82564 1.41805 0
M  V30 12455 H 1141.81 -3.34837 2.46692 0
M  V30 12456 H 1140.39 -3.66944 0.663816 0
M  V30 12457 N 1142.57 -0.928524 -1.27343 0
M  V30 12458 C 1143.5 -0.445627 -2.29208 0
M  V30 12459 C 1144.48 0.494508 -1.62753 0
M  V30 12460 O 1145.67 0.399082 -1.90055 0
M  V30 12461 C 1142.8 0.301684 -3.45987 0
M  V30 12462 C 1141.75 -0.550695 -4.24442 0
M  V30 12463 C 1141.08 0.325833 -5.33706 0
M  V30 12464 C 1142.38 -1.81559 -4.89728 0
M  V30 12465 H 1144.07 -1.29696 -2.69851 0
M  V30 12466 H 1141.62 -0.625085 -1.29725 0
M  V30 12467 H 1143.57 0.650455 -4.1635 0
M  V30 12468 H 1142.29 1.18705 -3.04264 0
M  V30 12469 H 1140.95 -0.882185 -3.55827 0
M  V30 12470 H 1140.6 1.21018 -4.88225 0
M  V30 12471 H 1140.3 -0.240994 -5.87106 0
M  V30 12472 H 1141.83 0.670156 -6.06911 0
M  V30 12473 H 1143.24 -1.53483 -5.52373 0
M  V30 12474 H 1141.64 -2.32598 -5.53189 0
M  V30 12475 H 1142.71 -2.53461 -4.13383 0
M  V30 12476 N 1144.05 1.41491 -0.694123 0
M  V30 12477 C 1145.3 2.0155 -0.224809 0
M  V30 12478 C 1145.63 1.54844 1.17205 0
M  V30 12479 O 1144.9 0.75899 1.7908 0
M  V30 12480 C 1145.19 3.59003 -0.280884 0
M  V30 12481 C 1145.04 4.15839 -1.71458 0
M  V30 12482 C 1146.36 4.38624 0.360122 0
M  V30 12483 H 1143.48 0.732293 -0.0831632 0
M  V30 12484 H 1146.12 1.68258 -0.882569 0
M  V30 12485 H 1144.27 3.87496 0.279164 0
M  V30 12486 H 1145.94 3.98227 -2.32837 0
M  V30 12487 H 1144.18 3.70936 -2.2492 0
M  V30 12488 H 1144.86 5.24997 -1.70536 0
M  V30 12489 H 1147.33 4.15936 -0.11683 0
M  V30 12490 H 1146.21 5.48132 0.290337 0
M  V30 12491 H 1146.47 4.1797 1.44062 0
M  V30 12492 N 1145.53 0.438773 1.51369 0
M  V30 12493 C 1146.77 -0.127213 2.021 0
M  V30 12494 C 1147.1 -1.42587 1.32284 0
M  V30 12495 O 1146.36 -1.90986 0.426949 0
M  V30 12496 C 1146.66 -0.39186 3.55245 0
M  V30 12497 C 1146.32 0.821158 4.4336 0
M  V30 12498 C 1144.98 1.15381 4.67162 0
M  V30 12499 C 1147.34 1.6303 4.95046 0
M  V30 12500 C 1144.66 2.29626 5.39897 0
M  V30 12501 C 1147.02 2.76376 5.69033 0
M  V30 12502 C 1145.68 3.10094 5.91099 0
M  V30 12503 H 1144.95 -0.0465505 0.739536 0
M  V30 12504 H 1147.6 0.586261 1.82305 0
M  V30 12505 H 1145.9 -1.18724 3.73379 0
M  V30 12506 H 1147.6 -0.843228 3.92034 0
M  V30 12507 H 1144.19 0.551946 4.25031 0
M  V30 12508 H 1148.37 1.38651 4.76539 0
M  V30 12509 H 1143.63 2.56062 5.55196 0
M  V30 12510 H 1147.8 3.39442 6.08072 0
M  V30 12511 H 1145.43 3.98731 6.47238 0
M  V30 12512 N 1147.01 -1.56678 0.170181 0
M  V30 12513 C 1148.25 -1.9714 -0.475767 0
M  V30 12514 C 1148.58 -1.05611 -1.62972 0
M  V30 12515 O 1147.86 -0.103017 -1.94227 0
M  V30 12516 C 1148.14 -3.47072 -0.959828 0
M  V30 12517 C 1148 -4.4938 0.194225 0
M  V30 12518 C 1149.31 -4.00071 -1.83387 0
M  V30 12519 H 1146.43 -0.716776 -0.171466 0
M  V30 12520 H 1149.08 -1.88266 0.256086 0
M  V30 12521 H 1147.23 -3.54766 -1.58346 0
M  V30 12522 H 1148.9 -4.53748 0.83128 0
M  V30 12523 H 1147.14 -4.25393 0.849893 0
M  V30 12524 H 1147.81 -5.51685 -0.186575 0
M  V30 12525 H 1150.29 -3.95002 -1.30815 0
M  V30 12526 H 1149.16 -5.05398 -2.14159 0
M  V30 12527 H 1149.42 -3.43819 -2.77923 0
M  V30 12528 N 1148.48 0.103547 -1.57259 0
M  V30 12529 C 1149.41 1.12714 -2.04494 0
M  V30 12530 C 1150.39 1.42278 -0.932255 0
M  V30 12531 O 1151.58 1.52453 -1.20298 0
M  V30 12532 C 1148.71 2.44927 -2.46228 0
M  V30 12533 C 1147.66 2.2979 -3.61082 0
M  V30 12534 C 1146.99 3.67105 -3.88765 0
M  V30 12535 C 1148.29 1.7455 -4.9227 0
M  V30 12536 H 1149.98 0.734198 -2.90258 0
M  V30 12537 H 1147.53 0.351725 -1.39638 0
M  V30 12538 H 1149.48 3.16798 -2.77879 0
M  V30 12539 H 1148.21 2.8614 -1.57453 0
M  V30 12540 H 1146.87 1.60366 -3.29664 0
M  V30 12541 H 1146.51 4.05831 -2.97171 0
M  V30 12542 H 1146.21 3.57825 -4.66084 0
M  V30 12543 H 1147.74 4.40456 -4.22884 0
M  V30 12544 H 1149.15 2.36253 -5.22358 0
M  V30 12545 H 1147.55 1.76051 -5.73695 0
M  V30 12546 H 1148.62 0.704242 -4.79759 0
M  V30 12547 N 1149.96 1.53094 0.37415 0
M  V30 12548 C 1151.21 1.68861 1.11769 0
M  V30 12549 C 1151.54 0.436032 1.89549 0
M  V30 12550 O 1150.79 -0.581879 1.86849 0
M  V30 12551 C 1151.09 2.88432 2.11049 0
M  V30 12552 C 1150.76 4.25284 1.49814 0
M  V30 12553 C 1149.42 4.62501 1.32841 0
M  V30 12554 C 1151.77 5.10425 1.05433 0
M  V30 12555 C 1149.1 5.82502 0.700567 0
M  V30 12556 C 1151.45 6.31064 0.440525 0
M  V30 12557 C 1150.11 6.67 0.258216 0
M  V30 12558 H 1149.38 0.617906 0.40899 0
M  V30 12559 H 1152.03 1.87265 0.4005 0
M  V30 12560 H 1150.34 2.64505 2.8904 0
M  V30 12561 H 1152.03 2.97825 2.68517 0
M  V30 12562 H 1148.62 3.95976 1.64016 0
M  V30 12563 H 1152.81 4.82229 1.17342 0
M  V30 12564 H 1148.06 6.08942 0.547652 0
M  V30 12565 H 1152.24 6.96344 0.0883962 0
M  V30 12566 H 1149.86 7.59851 -0.230354 0
M  V30 12567 N 1151.44 -0.633461 1.44309 0
M  V30 12568 C 1152.68 -1.40465 1.48489 0
M  V30 12569 C 1153.04 -1.91664 0.113519 0
M  V30 12570 O 1154.24 -2.68783 0.0299948 0
M  V30 12571 C 1152.52 -2.54041 2.51392 0
M  V30 12572 S 1154.07 -3.42256 2.74602 0
M  V30 12573 H 1150.89 -0.479228 0.525225 0
M  V30 12574 H 1153.49 -0.733561 1.81216 0
M  V30 12575 H 1152.2 -2.14734 3.49739 0
M  V30 12576 H 1151.73 -3.25979 2.2023 0
M  V30 12577 H 1153.74 -4.51409 2.06021 0
M  V30 12578 N 1152.92 -1.31168 -0.873655 0
M  V30 12579 C 1154.2 -1.11285 -1.60857 0
M  V30 12580 C 1154.58 0.333788 -2.08444 0
M  V30 12581 O 1153.92 1.32726 -1.86 0
M  V30 12582 C 1154.13 -2.12379 -2.7694 0
M  V30 12583 C 1155.48 -2.44704 -3.46994 0
M  V30 12584 O 1156.51 -2.10778 -2.87143 0
M  V30 12585 O 1155.36 -3.02786 -4.54954 0
M  V30 12586 H 1152.46 -0.428177 -0.707526 0
M  V30 12587 H 1155 -1.42634 -0.91944 0
M  V30 12588 H 1153.78 -3.09703 -2.39164 0
M  V30 12589 H 1153.4 -1.81914 -3.53544 0
M  V30 12590 N 1154.4 1.08748 -1.14068 0
M  V30 12591 C 1155.31 2.19123 -0.837998 0
M  V30 12592 C 1156.32 1.73065 0.180164 0
M  V30 12593 O 1157.5 2.01398 0.00952285 0
M  V30 12594 C 1154.56 3.45257 -0.316 0
M  V30 12595 C 1153.62 4.05959 -1.39628 0
M  V30 12596 C 1152.86 5.26072 -0.899095 0
M  V30 12597 O 1153.08 5.69804 0.260744 0
M  V30 12598 O 1152.01 5.7808 -1.67652 0
M  V30 12599 H 1155.84 2.4748 -1.76033 0
M  V30 12600 H 1153.43 1.17816 -0.918675 0
M  V30 12601 H 1155.31 4.21389 -0.0306425 0
M  V30 12602 H 1153.98 3.18486 0.578654 0
M  V30 12603 H 1152.89 3.31432 -1.73505 0
M  V30 12604 H 1154.22 4.36971 -2.26533 0
M  V30 12605 N 1155.87 0.935264 1.26849 0
M  V30 12606 C 1157.12 0.580548 1.94313 0
M  V30 12607 C 1157.45 -0.877205 1.73259 0
M  V30 12608 O 1156.73 -1.62679 1.06611 0
M  V30 12609 C 1157.01 0.916445 3.48243 0
M  V30 12610 C 1156.86 2.42851 3.78607 0
M  V30 12611 C 1158.18 0.427665 4.38017 0
M  V30 12612 H 1155.3 0.21239 0.705733 0
M  V30 12613 H 1157.94 1.16841 1.49827 0
M  V30 12614 H 1156.09 0.416169 3.86265 0
M  V30 12615 H 1157.77 3.00106 3.50335 0
M  V30 12616 H 1156.01 2.8745 3.24892 0
M  V30 12617 H 1156.68 2.61405 4.8618 0
M  V30 12618 H 1159.16 0.856525 4.07189 0
M  V30 12619 H 1158.03 0.691571 5.44526 0
M  V30 12620 H 1158.29 -0.672344 4.36958 0
M  V30 12621 N 1157.35 -1.41121 0.701616 0
M  V30 12622 C 1158.77 -1.55162 0.373766 0
M  V30 12623 C 1158.97 -1.6759 -1.11875 0
M  V30 12624 O 1158.02 -1.65768 -1.90465 0
M  V30 12625 C 1159.34 -2.78758 1.12759 0
M  V30 12626 C 1160.89 -2.92561 1.11253 0
M  V30 12627 C 1161.36 -4.19052 1.84822 0
M  V30 12628 N 1162.85 -4.26023 1.81821 0
M  V30 12629 C 1163.59 -5.22771 2.3558 0
M  V30 12630 N 1163.08 -6.25512 2.97836 0
M  V30 12631 N 1164.88 -5.14752 2.25802 0
M  V30 12632 H 1157.03 -1.31299 1.66956 0
M  V30 12633 H 1159.29 -0.633894 0.704898 0
M  V30 12634 H 1159 -2.75804 2.18231 0
M  V30 12635 H 1158.87 -3.70456 0.710095 0
M  V30 12636 H 1161.26 -2.95026 0.0660506 0
M  V30 12637 H 1161.34 -2.0202 1.56913 0
M  V30 12638 H 1160.98 -4.17349 2.89452 0
M  V30 12639 H 1160.91 -5.08577 1.36592 0
M  V30 12640 H 1163.4 -3.52411 1.36438 0
M  V30 12641 H 1163.72 -6.95736 3.36409 0
M  V30 12642 H 1162.06 -6.25997 3.01916 0
M  V30 12643 H 1165.25 -4.33414 1.76833 0
M  V30 12644 H 1165.42 -5.89983 2.68001 0
M  V30 12645 N 1158.83 -0.446794 -1.51134 0
M  V30 12646 C 1159.76 0.395804 -2.25757 0
M  V30 12647 C 1160.78 0.978178 -1.30137 0
M  V30 12648 O 1161.96 0.87071 -1.55823 0
M  V30 12649 C 1159.06 1.56665 -3.00515 0
M  V30 12650 C 1158.24 1.10146 -4.23305 0
M  V30 12651 C 1157.3 2.14352 -4.80562 0
M  V30 12652 O 1156.32 1.73401 -5.42145 0
M  V30 12653 N 1157.52 3.46932 -4.65423 0
M  V30 12654 H 1160.29 -0.243808 -2.98707 0
M  V30 12655 H 1157.85 -0.276205 -1.59527 0
M  V30 12656 H 1159.84 2.26019 -3.35704 0
M  V30 12657 H 1158.41 2.11142 -2.30516 0
M  V30 12658 H 1157.63 0.234644 -3.93501 0
M  V30 12659 H 1158.92 0.768185 -5.02968 0
M  V30 12660 H 1158.32 3.82929 -4.16391 0
M  V30 12661 H 1156.88 4.12154 -5.04948 0
M  V30 12662 N 1160.31 1.56586 -0.178487 0
M  V30 12663 C 1161.55 1.98159 0.45876 0
M  V30 12664 C 1161.91 1.0629 1.60375 0
M  V30 12665 O 1161.2 0.103975 1.91318 0
M  V30 12666 C 1161.4 3.43629 0.982552 0
M  V30 12667 C 1161.23 4.49565 -0.110152 0
M  V30 12668 C 1160 5.02162 -0.562228 0
M  V30 12669 C 1162.19 5.06129 -0.913143 0
M  V30 12670 N 1160.18 5.91741 -1.63449 0
M  V30 12671 C 1161.55 5.92217 -1.83517 0
M  V30 12672 C 1163.6 4.88608 -0.957421 0
M  V30 12673 C 1162.3 6.6266 -2.79775 0
M  V30 12674 C 1164.33 5.59777 -1.90798 0
M  V30 12675 C 1163.69 6.45599 -2.81747 0
M  V30 12676 H 1159.79 0.770124 0.13577 0
M  V30 12677 H 1162.38 1.92671 -0.280358 0
M  V30 12678 H 1160.55 3.49649 1.69117 0
M  V30 12679 H 1162.28 3.72199 1.58902 0
M  V30 12680 H 1159.03 4.73334 -0.158612 0
M  V30 12681 H 1159.46 6.41235 -2.17132 0
M  V30 12682 H 1164.1 4.21948 -0.268285 0
M  V30 12683 H 1161.82 7.28529 -3.49673 0
M  V30 12684 H 1165.4 5.48204 -1.94844 0
M  V30 12685 H 1164.28 6.99701 -3.54102 0
M  V30 12686 N 1161.79 -0.095206 1.57312 0
M  V30 12687 C 1163.02 -0.811092 1.90013 0
M  V30 12688 C 1163.42 -1.72807 0.770359 0
M  V30 12689 O 1162.77 -1.81755 -0.266615 0
M  V30 12690 C 1162.83 -1.67744 3.17966 0
M  V30 12691 C 1162.49 -0.932301 4.47389 0
M  V30 12692 C 1163.49 -0.262161 5.19239 0
M  V30 12693 C 1161.18 -0.906414 4.94054 0
M  V30 12694 C 1163.17 0.423898 6.35989 0
M  V30 12695 C 1160.86 -0.216569 6.10716 0
M  V30 12696 C 1161.85 0.447408 6.81533 0
M  V30 12697 O 1161.54 1.12619 7.95972 0
M  V30 12698 H 1161.27 -0.237154 0.633035 0
M  V30 12699 H 1163.83 -0.0768976 2.05256 0
M  V30 12700 H 1162.06 -2.45387 2.98868 0
M  V30 12701 H 1163.75 -2.26988 3.36498 0
M  V30 12702 H 1164.51 -0.273621 4.84228 0
M  V30 12703 H 1160.39 -1.41267 4.38822 0
M  V30 12704 H 1163.94 0.942727 6.91201 0
M  V30 12705 H 1159.83 -0.202955 6.45181 0
M  V30 12706 H 1160.6 1.03308 8.11954 0
M  V30 12707 N 1163.26 -1.53291 -0.366026 0
M  V30 12708 C 1164.51 -1.69702 -1.11036 0
M  V30 12709 C 1164.84 -0.44728 -1.88979 0
M  V30 12710 O 1164.12 0.55542 -1.86401 0
M  V30 12711 C 1164.4 -2.94661 -2.06995 0
M  V30 12712 C 1164.25 -4.29791 -1.32663 0
M  V30 12713 C 1165.57 -3.15219 -3.07123 0
M  V30 12714 H 1162.69 -0.617525 -0.402284 0
M  V30 12715 H 1165.33 -1.85929 -0.391223 0
M  V30 12716 H 1163.48 -2.80958 -2.68318 0
M  V30 12717 H 1165.16 -4.55305 -0.741266 0
M  V30 12718 H 1163.4 -4.29223 -0.628484 0
M  V30 12719 H 1164.07 -5.13359 -2.02896 0
M  V30 12720 H 1166.55 -3.28105 -2.55903 0
M  V30 12721 H 1165.42 -4.04088 -3.71489 0
M  V30 12722 H 1165.68 -2.30479 -3.77269 0
M  V30 12723 N 1164.74 0.6258 -1.44643 0
M  V30 12724 C 1165.69 1.75869 -1.52226 0
M  V30 12725 C 1166.68 1.64765 -0.39355 0
M  V30 12726 O 1167.89 1.70779 -0.568718 0
M  V30 12727 H 1164.27 0.580712 -0.477784 0
M  V30 12728 H 1166.24 1.66596 -2.47565 0
M  V30 12729 C 1164.99 3.14217 -1.48873 0
M  V30 12730 H 1164.31 3.23411 -2.35043 0
M  V30 12731 H 1165.75 3.93365 -1.58239 0
M  V30 12732 C 1164.21 3.36243 -0.210299 0
M  V30 12733 O 1164.74 3.95243 0.717335 0
M  V30 12734 N 1162.94 2.90385 -0.111744 0
M  V30 12735 H 1162.49 2.42555 -0.867466 0
M  V30 12736 H 1162.45 3.05498 0.742871 0
M  V30 12737 N 1166.22 1.31629 0.866686 0
M  V30 12738 C 1167.47 1.21263 1.61678 0
M  V30 12739 C 1167.79 -0.228562 1.93656 0
M  V30 12740 O 1167.06 -1.15014 1.58583 0
M  V30 12741 H 1165.64 0.445817 0.59938 0
M  V30 12742 H 1168.3 1.64998 1.03739 0
M  V30 12743 H 1167.4 1.78669 2.55898 0
M  V30 12744 N 1167.7 -1.08142 1.14644 0
M  V30 12745 C 1168.95 -1.80849 0.917685 0
M  V30 12746 C 1169.28 -1.86123 -0.554249 0
M  V30 12747 O 1168.55 -1.33907 -1.41065 0
M  V30 12748 C 1168.84 -3.26325 1.52264 0
M  V30 12749 C 1168.69 -3.29244 3.06461 0
M  V30 12750 C 1170.01 -4.23375 1.20175 0
M  V30 12751 H 1167.13 -0.656559 0.334812 0
M  V30 12752 H 1169.77 -1.26595 1.41682 0
M  V30 12753 H 1167.92 -3.72656 1.09817 0
M  V30 12754 H 1169.59 -2.91216 3.57758 0
M  V30 12755 H 1167.83 -2.68438 3.40769 0
M  V30 12756 H 1168.51 -4.31785 3.43897 0
M  V30 12757 H 1170.98 -3.85394 1.56877 0
M  V30 12758 H 1169.86 -5.23472 1.65132 0
M  V30 12759 H 1170.12 -4.41944 0.117474 0
M  V30 12760 N 1169.18 -0.941978 -1.26351 0
M  V30 12761 C 1170.13 -0.443011 -2.28342 0
M  V30 12762 C 1171.12 0.48013 -1.62453 0
M  V30 12763 O 1172.33 0.358255 -1.76399 0
M  V30 12764 H 1168.7 -0.124728 -0.741584 0
M  V30 12765 H 1170.67 -1.31573 -2.67827 0
M  V30 12766 C 1169.42 0.275675 -3.46605 0
M  V30 12767 H 1168.74 -0.425504 -3.97529 0
M  V30 12768 H 1170.18 0.589012 -4.19889 0
M  V30 12769 C 1168.64 1.49376 -3.01974 0
M  V30 12770 O 1169.17 2.59203 -3.06883 0
M  V30 12771 N 1167.38 1.35061 -2.57307 0
M  V30 12772 H 1166.93 0.457045 -2.53513 0
M  V30 12773 H 1166.88 2.16681 -2.27809 0
M  V30 12774 N 1170.66 1.40747 -0.709091 0
M  V30 12775 C 1171.89 2.05022 -0.254887 0
M  V30 12776 C 1172.29 1.5351 1.10595 0
M  V30 12777 O 1171.64 0.683912 1.70494 0
M  V30 12778 C 1171.7 3.59188 -0.149823 0
M  V30 12779 C 1171.36 4.33557 -1.44489 0
M  V30 12780 C 1172.36 4.61941 -2.3855 0
M  V30 12781 C 1170.04 4.72585 -1.70201 0
M  V30 12782 C 1172.04 5.2833 -3.56575 0
M  V30 12783 C 1169.73 5.38707 -2.88509 0
M  V30 12784 C 1170.72 5.66509 -3.81518 0
M  V30 12785 O 1170.41 6.31267 -4.97752 0
M  V30 12786 H 1170.14 0.666405 -0.113493 0
M  V30 12787 H 1172.7 1.81261 -0.966099 0
M  V30 12788 H 1170.93 3.81742 0.617276 0
M  V30 12789 H 1172.62 4.05008 0.268965 0
M  V30 12790 H 1173.38 4.32259 -2.19947 0
M  V30 12791 H 1169.26 4.50318 -0.986628 0
M  V30 12792 H 1172.81 5.49947 -4.2919 0
M  V30 12793 H 1168.7 5.67809 -3.07023 0
M  V30 12794 H 1169.47 6.49764 -4.97745 0
M  V30 12795 N 1172.13 0.454803 1.50895 0
M  V30 12796 C 1173.38 -0.10577 2.02224 0
M  V30 12797 C 1173.71 -1.41176 1.33789 0
M  V30 12798 O 1172.96 -1.90522 0.447181 0
M  V30 12799 C 1173.26 -0.354159 3.55641 0
M  V30 12800 C 1172.93 0.868136 4.42464 0
M  V30 12801 C 1171.59 1.2033 4.65912 0
M  V30 12802 C 1173.94 1.68272 4.93289 0
M  V30 12803 C 1171.27 2.3534 5.37431 0
M  V30 12804 C 1173.62 2.82396 5.6607 0
M  V30 12805 C 1172.29 3.16346 5.87777 0
M  V30 12806 H 1171.56 -0.0387041 0.739989 0
M  V30 12807 H 1174.2 0.605564 1.81673 0
M  V30 12808 H 1172.51 -1.14757 3.74617 0
M  V30 12809 H 1174.21 -0.8016 3.92906 0
M  V30 12810 H 1170.8 0.596995 4.24422 0
M  V30 12811 H 1174.98 1.43698 4.75042 0
M  V30 12812 H 1170.24 2.61936 5.52449 0
M  V30 12813 H 1174.41 3.45873 6.04438 0
M  V30 12814 H 1172.04 4.05574 6.42973 0
M  V30 12815 N 1173.61 -1.56489 0.186789 0
M  V30 12816 C 1174.84 -2.01722 -0.459993 0
M  V30 12817 C 1175.25 -1.06697 -1.5576 0
M  V30 12818 O 1174.61 -0.0704212 -1.82364 0
M  V30 12819 C 1174.66 -3.46693 -1.02401 0
M  V30 12820 O 1174.38 -4.3809 0.0297916 0
M  V30 12821 C 1175.88 -4.07403 -1.7475 0
M  V30 12822 H 1173.1 -0.660845 -0.116298 0
M  V30 12823 H 1175.65 -2.02389 0.293059 0
M  V30 12824 H 1173.8 -3.46752 -1.72749 0
M  V30 12825 H 1174.22 -5.23057 -0.388821 0
M  V30 12826 H 1175.69 -5.10718 -2.09455 0
M  V30 12827 H 1176.17 -3.50383 -2.64818 0
M  V30 12828 H 1176.77 -4.11093 -1.09007 0
M  V30 12829 N 1175.09 0.086862 -1.5736 0
M  V30 12830 C 1176.37 0.820984 -1.77537 0
M  V30 12831 C 1176.75 1.96534 -0.770554 0
M  V30 12832 O 1176.09 2.27629 0.199334 0
M  V30 12833 C 1176.3 1.30793 -3.23565 0
M  V30 12834 C 1177.65 1.7474 -3.86977 0
M  V30 12835 O 1178.68 1.40396 -3.27364 0
M  V30 12836 O 1177.54 2.38271 -4.91822 0
M  V30 12837 H 1174.63 0.392228 -0.72807 0
M  V30 12838 H 1177.18 0.0681051 -1.69563 0
M  V30 12839 H 1175.95 0.488409 -3.8824 0
M  V30 12840 H 1175.57 2.12258 -3.36203 0
M  V30 12841 N 1176.57 1.53483 0.357892 0
M  V30 12842 C 1177.5 1.83444 1.44466 0
M  V30 12843 C 1178.48 0.688486 1.55544 0
M  V30 12844 O 1179.66 0.93906 1.69986 0
M  V30 12845 C 1176.79 2.03122 2.81707 0
M  V30 12846 C 1175.75 3.1891 2.85448 0
M  V30 12847 C 1175.07 3.23895 4.25436 0
M  V30 12848 C 1176.37 4.57334 2.52275 0
M  V30 12849 H 1178.07 2.74456 1.19642 0
M  V30 12850 H 1175.61 1.3206 0.574112 0
M  V30 12851 H 1177.57 2.22666 3.57768 0
M  V30 12852 H 1176.29 1.08827 3.07935 0
M  V30 12853 H 1174.95 2.99199 2.11838 0
M  V30 12854 H 1174.6 2.27223 4.48753 0
M  V30 12855 H 1174.3 4.01694 4.28854 0
M  V30 12856 H 1175.82 3.45632 5.0336 0
M  V30 12857 H 1177.24 4.76988 3.1805 0
M  V30 12858 H 1175.63 5.37431 2.66998 0
M  V30 12859 H 1176.7 4.61921 1.47501 0
M  V30 12860 N 1178.05 -0.61812 1.44973 0
M  V30 12861 C 1179.29 -1.37754 1.4965 0
M  V30 12862 C 1179.65 -1.91945 0.132201 0
M  V30 12863 O 1178.94 -1.71493 -0.854439 0
M  V30 12864 C 1179.13 -2.55143 2.50274 0
M  V30 12865 C 1178.96 -2.12446 3.96354 0
M  V30 12866 C 1177.73 -1.99112 4.64416 0
M  V30 12867 C 1179.93 -1.70557 4.85196 0
M  V30 12868 N 1177.91 -1.50114 5.95264 0
M  V30 12869 C 1179.28 -1.329 6.05589 0
M  V30 12870 C 1181.34 -1.58054 4.72147 0
M  V30 12871 C 1180.04 -0.839882 7.1438 0
M  V30 12872 C 1182.07 -1.10547 5.80976 0
M  V30 12873 C 1181.43 -0.738477 7.00518 0
M  V30 12874 H 1177.53 -0.498393 0.602601 0
M  V30 12875 H 1180.11 -0.70775 1.81381 0
M  V30 12876 H 1178.28 -3.19732 2.20513 0
M  V30 12877 H 1180.02 -3.21988 2.45166 0
M  V30 12878 H 1176.77 -2.19971 4.19416 0
M  V30 12879 H 1177.19 -1.27878 6.64813 0
M  V30 12880 H 1181.84 -1.85056 3.8015 0
M  V30 12881 H 1179.55 -0.557395 8.06175 0
M  V30 12882 H 1183.14 -1.01314 5.72911 0
M  V30 12883 H 1182.02 -0.376513 7.83296 0
M  V30 12884 N 1179.52 -1.32087 -0.859693 0
M  V30 12885 C 1180.47 -1.20549 -1.98924 0
M  V30 12886 C 1181.47 -0.111422 -1.69033 0
M  V30 12887 O 1182.67 -0.27401 -1.77902 0
M  V30 12888 H 1179.05 -0.373538 -0.652667 0
M  V30 12889 H 1181.02 -2.16091 -2.05785 0
M  V30 12890 C 1179.77 -0.940226 -3.34746 0
M  V30 12891 H 1179.09 -1.77427 -3.58273 0
M  V30 12892 H 1180.53 -0.899712 -4.14344 0
M  V30 12893 C 1178.99 0.357042 -3.35003 0
M  V30 12894 O 1179.52 1.37054 -3.77596 0
M  V30 12895 N 1177.72 0.37723 -2.88141 0
M  V30 12896 H 1177.27 -0.448051 -2.53674 0
M  V30 12897 H 1177.23 1.24509 -2.88695 0
M  V30 12898 N 1181 1.07532 -1.15215 0
M  V30 12899 C 1182.25 1.8036 -0.927263 0
M  V30 12900 C 1182.58 1.86414 0.544371 0
M  V30 12901 O 1181.86 1.34653 1.40353 0
M  V30 12902 C 1182.14 3.25512 -1.53992 0
M  V30 12903 C 1181.99 3.27614 -3.08203 0
M  V30 12904 C 1183.31 4.22731 -1.22418 0
M  V30 12905 H 1180.43 0.654775 -0.338289 0
M  V30 12906 H 1183.07 1.25842 -1.42351 0
M  V30 12907 H 1181.22 3.72068 -1.11791 0
M  V30 12908 H 1182.89 2.89315 -3.59297 0
M  V30 12909 H 1181.14 2.66627 -3.42188 0
M  V30 12910 H 1181.81 4.29956 -3.46182 0
M  V30 12911 H 1184.28 3.84557 -1.58919 0
M  V30 12912 H 1183.16 5.22589 -1.67906 0
M  V30 12913 H 1183.42 4.41875 -0.14091 0
M  V30 12914 N 1182.48 0.948665 1.2585 0
M  V30 12915 C 1183.41 0.408398 2.24516 0
M  V30 12916 C 1184.39 -0.506954 1.54495 0
M  V30 12917 O 1185.58 -0.442695 1.83228 0
M  V30 12918 C 1182.7 -0.41241 3.3618 0
M  V30 12919 C 1181.75 0.442483 4.24198 0
M  V30 12920 S 1182.58 1.87106 5.01749 0
M  V30 12921 C 1183.74 1.05851 6.16884 0
M  V30 12922 H 1183.97 1.24458 2.69995 0
M  V30 12923 H 1181.5 0.752309 1.34832 0
M  V30 12924 H 1183.46 -0.880064 4.00955 0
M  V30 12925 H 1182.12 -1.22335 2.89297 0
M  V30 12926 H 1181.32 -0.186767 5.03654 0
M  V30 12927 H 1180.92 0.845113 3.64327 0
M  V30 12928 H 1183.21 0.304329 6.76816 0
M  V30 12929 H 1184.15 1.82678 6.8413 0
M  V30 12930 H 1184.56 0.591269 5.61395 0
M  V30 12931 N 1183.96 -1.40369 0.716545 0
M  V30 12932 C 1185.24 -1.94737 0.183576 0
M  V30 12933 C 1185.62 -1.65464 -1.31092 0
M  V30 12934 O 1184.96 -0.972832 -2.06756 0
M  V30 12935 C 1185.17 -3.45438 0.497339 0
M  V30 12936 C 1186.52 -4.2235 0.436526 0
M  V30 12937 O 1187.55 -3.53553 0.433454 0
M  V30 12938 O 1186.4 -5.44923 0.41489 0
M  V30 12939 H 1183.5 -0.82655 0.0272785 0
M  V30 12940 H 1186.04 -1.49972 0.794143 0
M  V30 12941 H 1184.82 -3.60107 1.53097 0
M  V30 12942 H 1184.44 -3.97342 -0.143141 0
M  V30 12943 N 1185.44 -0.462799 -1.50652 0
M  V30 12944 C 1186.66 0.0929761 -2.06691 0
M  V30 12945 C 1187.08 1.34241 -1.32758 0
M  V30 12946 O 1186.44 1.78187 -0.394427 0
M  V30 12947 C 1186.49 0.389492 -3.59396 0
M  V30 12948 O 1186.21 -0.810379 -4.3054 0
M  V30 12949 C 1187.71 0.993147 -4.32032 0
M  V30 12950 H 1184.93 -0.00338664 -0.670991 0
M  V30 12951 H 1187.47 -0.649201 -1.93922 0
M  V30 12952 H 1185.63 1.08159 -3.71995 0
M  V30 12953 H 1186.04 -0.54996 -5.21609 0
M  V30 12954 H 1187.52 1.15044 -5.39878 0
M  V30 12955 H 1187.99 1.98106 -3.91983 0
M  V30 12956 H 1188.6 0.339677 -4.23941 0
M  V30 12957 N 1186.91 1.56388 -0.195085 0
M  V30 12958 C 1187.84 2.22091 0.720971 0
M  V30 12959 C 1188.83 1.184 1.22128 0
M  V30 12960 O 1190.01 1.46907 1.27012 0
M  V30 12961 C 1187.14 2.88025 1.94059 0
M  V30 12962 C 1186.09 3.97959 1.5752 0
M  V30 12963 C 1185.42 4.51058 2.87143 0
M  V30 12964 C 1186.72 5.16365 0.785145 0
M  V30 12965 H 1188.41 2.98898 0.173245 0
M  V30 12966 H 1185.96 1.43767 0.0818868 0
M  V30 12967 H 1187.91 3.32671 2.58666 0
M  V30 12968 H 1186.64 2.08623 2.51285 0
M  V30 12969 H 1185.3 3.54004 0.952715 0
M  V30 12970 H 1184.94 3.68418 3.42458 0
M  V30 12971 H 1184.64 5.25237 2.63439 0
M  V30 12972 H 1186.17 4.98406 3.52738 0
M  V30 12973 H 1187.58 5.57556 1.33431 0
M  V30 12974 H 1185.98 5.9661 0.646231 0
M  V30 12975 H 1187.05 4.84428 -0.213789 0
M  V30 12976 N 1188.39 -0.0785156 1.57404 0
M  V30 12977 C 1189.64 -0.777399 1.8655 0
M  V30 12978 C 1189.96 -1.78451 0.786142 0
M  V30 12979 O 1189.23 -1.95016 -0.185911 0
M  V30 12980 H 1187.81 -0.290097 0.688369 0
M  V30 12981 H 1190.47 -0.0562017 1.94819 0
M  V30 12982 H 1189.57 -1.29776 2.83839 0
M  V30 12983 N 1189.87 -1.5367 -0.349747 0
M  V30 12984 C 1190.8 -1.84208 -1.43492 0
M  V30 12985 C 1191.78 -0.696725 -1.55177 0
M  V30 12986 O 1192.97 -0.948061 -1.69486 0
M  V30 12987 C 1190.1 -2.04613 -2.80625 0
M  V30 12988 C 1189.05 -3.20419 -2.83753 0
M  V30 12989 C 1188.38 -3.26147 -4.23713 0
M  V30 12990 C 1189.68 -4.58666 -2.49846 0
M  V30 12991 H 1191.37 -2.75087 -1.18185 0
M  V30 12992 H 1188.92 -1.32363 -0.567101 0
M  V30 12993 H 1190.87 -2.2456 -3.56582 0
M  V30 12994 H 1189.59 -1.10459 -3.07354 0
M  V30 12995 H 1188.25 -3.00318 -2.10249 0
M  V30 12996 H 1187.9 -2.29599 -4.47541 0
M  V30 12997 H 1187.6 -4.03963 -4.26717 0
M  V30 12998 H 1189.12 -3.48296 -5.0152 0
M  V30 12999 H 1190.54 -4.78668 -3.15516 0
M  V30 13000 H 1188.94 -5.3884 -2.64144 0
M  V30 13001 H 1190.01 -4.62697 -1.4505 0
M  V30 13002 N 1191.35 0.610423 -1.45298 0
M  V30 13003 C 1192.6 1.36951 -1.49167 0
M  V30 13004 C 1192.92 1.9405 -0.132292 0
M  V30 13005 O 1192.18 1.75363 0.868686 0
M  V30 13006 C 1192.48 2.53812 -2.51623 0
M  V30 13007 C 1192.14 2.14877 -3.96407 0
M  V30 13008 C 1190.81 2.03972 -4.35831 0
M  V30 13009 C 1193.16 1.84448 -4.87472 0
M  V30 13010 C 1190.49 1.60856 -5.64218 0
M  V30 13011 C 1192.84 1.42818 -6.16268 0
M  V30 13012 C 1191.5 1.3047 -6.54625 0
M  V30 13013 H 1190.77 0.501138 -0.54584 0
M  V30 13014 H 1193.42 0.690221 -1.78629 0
M  V30 13015 H 1191.72 3.27066 -2.1572 0
M  V30 13016 H 1193.42 3.12041 -2.51856 0
M  V30 13017 H 1190.01 2.2429 -3.65229 0
M  V30 13018 H 1194.19 1.91771 -4.57753 0
M  V30 13019 H 1189.45 1.49916 -5.92735 0
M  V30 13020 H 1193.62 1.18318 -6.86275 0
M  V30 13021 H 1191.25 0.968347 -7.54007 0
M  V30 13022 N 1192.83 1.32541 0.852676 0
M  V30 13023 C 1194.06 1.26037 1.63702 0
M  V30 13024 C 1194.46 -0.173583 1.88402 0
M  V30 13025 O 1193.81 -1.12175 1.45473 0
M  V30 13026 C 1193.87 1.95245 3.01861 0
M  V30 13027 C 1193.53 3.44576 3.00193 0
M  V30 13028 C 1194.53 4.40026 2.76899 0
M  V30 13029 C 1192.22 3.86541 3.20766 0
M  V30 13030 C 1194.21 5.75414 2.74185 0
M  V30 13031 C 1191.9 5.22038 3.17678 0
M  V30 13032 C 1192.89 6.16286 2.94416 0
M  V30 13033 O 1192.58 7.49303 2.91206 0
M  V30 13034 H 1192.31 0.436073 0.516543 0
M  V30 13035 H 1194.87 1.75251 1.07127 0
M  V30 13036 H 1193.1 1.40603 3.60233 0
M  V30 13037 H 1194.79 1.82423 3.62597 0
M  V30 13038 H 1195.55 4.0893 2.6077 0
M  V30 13039 H 1191.43 3.13603 3.37897 0
M  V30 13040 H 1194.98 6.4895 2.55947 0
M  V30 13041 H 1190.87 5.52762 3.33353 0
M  V30 13042 H 1191.64 7.58686 3.07146 0
M  V30 13043 N 1194.3 -1.0692 1.15784 0
M  V30 13044 C 1195.55 -1.796 0.935429 0
M  V30 13045 C 1195.88 -1.86935 -0.537173 0
M  V30 13046 O 1195.13 -1.35244 -1.41448 0
M  V30 13047 C 1195.43 -3.24389 1.50022 0
M  V30 13048 C 1195.1 -3.37145 2.99406 0
M  V30 13049 C 1193.76 -3.40334 3.40186 0
M  V30 13050 C 1196.11 -3.39584 3.95389 0
M  V30 13051 C 1193.44 -3.43569 4.75581 0
M  V30 13052 C 1195.79 -3.44356 5.30661 0
M  V30 13053 C 1194.46 -3.45824 5.70931 0
M  V30 13054 H 1193.73 -0.657201 0.342298 0
M  V30 13055 H 1196.37 -1.25784 1.44397 0
M  V30 13056 H 1194.68 -3.81015 0.91297 0
M  V30 13057 H 1196.38 -3.79209 1.30389 0
M  V30 13058 H 1192.97 -3.35365 2.66887 0
M  V30 13059 H 1197.15 -3.36337 3.64954 0
M  V30 13060 H 1192.41 -3.43006 5.06119 0
M  V30 13061 H 1196.58 -3.4519 6.04828 0
M  V30 13062 H 1194.21 -3.48084 6.75826 0
M  V30 13063 N 1195.78 -0.955326 -1.25345 0
M  V30 13064 C 1197.03 -0.606149 -1.92377 0
M  V30 13065 C 1197.34 0.860927 -1.75634 0
M  V30 13066 O 1198.55 1.3201 -2.37246 0
M  V30 13067 C 1197.01 -1.03341 -3.44744 0
M  V30 13068 C 1196.61 -2.52308 -3.70196 0
M  V30 13069 C 1198.36 -0.756797 -4.17699 0
M  V30 13070 C 1196.27 -2.88831 -5.16072 0
M  V30 13071 H 1195.2 -0.222994 -0.720271 0
M  V30 13072 H 1197.85 -1.15987 -1.42194 0
M  V30 13073 H 1196.23 -0.408096 -3.93892 0
M  V30 13074 H 1197.4 -3.19864 -3.31698 0
M  V30 13075 H 1195.72 -2.77448 -3.10502 0
M  V30 13076 H 1198.31 -1.00583 -5.25154 0
M  V30 13077 H 1198.66 0.306794 -4.15168 0
M  V30 13078 H 1199.19 -1.34249 -3.74462 0
M  V30 13079 H 1195.93 -3.9421 -5.23716 0
M  V30 13080 H 1195.45 -2.25948 -5.55614 0
M  V30 13081 H 1197.13 -2.78061 -5.84201 0
M  V30 13082 N 1197.26 1.39987 -0.723979 0
M  V30 13083 C 1198.22 2.29041 -0.0854583 0
M  V30 13084 C 1199.22 1.45777 0.678657 0
M  V30 13085 O 1200.41 1.66588 0.509311 0
M  V30 13086 C 1197.55 3.29115 0.88859 0
M  V30 13087 H 1198.74 2.87006 -0.869903 0
M  V30 13088 H 1196.29 1.48449 -0.489136 0
M  V30 13089 H 1197.03 2.76184 1.69979 0
M  V30 13090 H 1196.81 3.90593 0.343454 0
M  V30 13091 H 1198.3 3.95778 1.33227 0
M  V30 13092 N 1198.74 0.470782 1.50404 0
M  V30 13093 C 1199.99 -0.0841494 2.01925 0
M  V30 13094 C 1200.31 -1.40244 1.35487 0
M  V30 13095 O 1199.58 -1.89409 0.500111 0
M  V30 13096 H 1198.16 -0.0340884 0.746222 0
M  V30 13097 H 1200.82 0.621133 1.84738 0
M  V30 13098 H 1199.92 -0.235877 3.11207 0
M  V30 13099 N 1200.22 -1.56282 0.203376 0
M  V30 13100 C 1201.47 -1.96987 -0.433461 0
M  V30 13101 C 1201.78 -1.09344 -1.62183 0
M  V30 13102 O 1202.99 -1.39868 -2.327 0
M  V30 13103 C 1201.44 -3.50374 -0.82257 0
M  V30 13104 C 1201.05 -4.46693 0.341969 0
M  V30 13105 C 1202.79 -3.99831 -1.42603 0
M  V30 13106 C 1200.7 -5.9136 -0.0685608 0
M  V30 13107 H 1199.63 -0.735564 -0.165717 0
M  V30 13108 H 1202.28 -1.81085 0.296708 0
M  V30 13109 H 1200.66 -3.6181 -1.60964 0
M  V30 13110 H 1201.84 -4.46994 1.11952 0
M  V30 13111 H 1200.15 -4.07476 0.857463 0
M  V30 13112 H 1202.75 -5.05398 -1.74577 0
M  V30 13113 H 1203.09 -3.4462 -2.33544 0
M  V30 13114 H 1203.63 -3.91543 -0.702758 0
M  V30 13115 H 1200.36 -6.50515 0.80688 0
M  V30 13116 H 1199.88 -5.94295 -0.810798 0
M  V30 13117 H 1201.56 -6.45053 -0.501525 0
M  V30 13118 N 1201.7 0.070167 -1.57444 0
M  V30 13119 C 1202.94 0.770153 -1.87607 0
M  V30 13120 C 1203.27 1.77143 -0.795875 0
M  V30 13121 O 1202.55 1.93533 0.193674 0
M  V30 13122 C 1202.83 1.47668 -3.2843 0
M  V30 13123 C 1202.69 0.491712 -4.47104 0
M  V30 13124 C 1204 2.42118 -3.67514 0
M  V30 13125 H 1201.12 0.278519 -0.682346 0
M  V30 13126 H 1203.77 0.0333184 -1.89971 0
M  V30 13127 H 1201.92 2.10476 -3.26546 0
M  V30 13128 H 1203.59 -0.131283 -4.61113 0
M  V30 13129 H 1201.83 -0.192817 -4.33371 0
M  V30 13130 H 1202.5 1.02372 -5.42424 0
M  V30 13131 H 1204.98 1.89387 -3.70502 0
M  V30 13132 H 1203.85 2.88556 -4.66933 0
M  V30 13133 H 1204.11 3.26995 -2.97534 0
M  V30 13134 N 1203.17 1.53854 0.341593 0
M  V30 13135 C 1204.42 1.71194 1.08162 0
M  V30 13136 C 1204.75 0.47614 1.88582 0
M  V30 13137 O 1204 -0.542115 1.88041 0
M  V30 13138 C 1204.3 2.92844 2.04884 0
M  V30 13139 C 1203.97 4.28366 1.40759 0
M  V30 13140 C 1202.63 4.65214 1.23 0
M  V30 13141 C 1204.98 5.12546 0.945819 0
M  V30 13142 C 1202.31 5.83857 0.576852 0
M  V30 13143 C 1204.66 6.31857 0.306568 0
M  V30 13144 C 1203.33 6.67398 0.116677 0
M  V30 13145 H 1202.6 0.626442 0.395792 0
M  V30 13146 H 1205.24 1.88073 0.360688 0
M  V30 13147 H 1203.55 2.70576 2.83365 0
M  V30 13148 H 1205.25 3.03454 2.62139 0
M  V30 13149 H 1201.84 3.99366 1.5558 0
M  V30 13150 H 1206.02 4.84609 1.07087 0
M  V30 13151 H 1201.28 6.09967 0.418363 0
M  V30 13152 H 1205.45 6.96375 -0.0593285 0
M  V30 13153 H 1203.08 7.59191 -0.391477 0
M  V30 13154 N 1204.65 -0.602709 1.4562 0
M  V30 13155 C 1206.07 -0.923983 1.30133 0
M  V30 13156 C 1206.27 -1.99842 0.25796 0
M  V30 13157 O 1205.32 -2.50112 -0.346414 0
M  V30 13158 C 1206.64 -1.36029 2.68173 0
M  V30 13159 C 1208.18 -1.47423 2.76108 0
M  V30 13160 C 1208.66 -1.94427 4.14683 0
M  V30 13161 N 1210.15 -2.01653 4.17002 0
M  V30 13162 C 1210.89 -2.39255 5.211 0
M  V30 13163 N 1210.38 -2.75791 6.3554 0
M  V30 13164 N 1212.17 -2.39636 5.08459 0
M  V30 13165 H 1204.33 0.107377 2.12128 0
M  V30 13166 H 1206.59 -0.0146216 0.947887 0
M  V30 13167 H 1206.29 -0.644949 3.45736 0
M  V30 13168 H 1206.17 -2.32584 2.96959 0
M  V30 13169 H 1208.56 -2.18047 1.98845 0
M  V30 13170 H 1208.64 -0.4917 2.5103 0
M  V30 13171 H 1208.28 -1.24389 4.92433 0
M  V30 13172 H 1208.21 -2.93603 4.37156 0
M  V30 13173 H 1210.7 -1.75988 3.3442 0
M  V30 13174 H 1211.01 -3.03378 7.10761 0
M  V30 13175 H 1209.36 -2.73475 6.38934 0
M  V30 13176 H 1212.55 -2.10502 4.18098 0
M  V30 13177 H 1212.72 -2.68614 5.89704 0
M  V30 13178 N 1206.13 -1.32992 -0.845635 0
M  V30 13179 C 1207.06 -1.25301 -1.97033 0
M  V30 13180 C 1208.04 -0.134966 -1.69564 0
M  V30 13181 O 1209.23 -0.323629 -1.91484 0
M  V30 13182 C 1206.36 -0.984551 -3.33052 0
M  V30 13183 C 1205.31 -2.06481 -3.749 0
M  V30 13184 C 1204.64 -1.6486 -5.08651 0
M  V30 13185 C 1205.94 -3.48083 -3.89404 0
M  V30 13186 H 1207.63 -2.194 -2.03725 0
M  V30 13187 H 1205.18 -1.05621 -0.978783 0
M  V30 13188 H 1207.13 -0.917269 -4.11296 0
M  V30 13189 H 1205.85 -0.00793116 -3.26599 0
M  V30 13190 H 1204.51 -2.1224 -2.98915 0
M  V30 13191 H 1204.16 -0.659183 -4.98662 0
M  V30 13192 H 1203.86 -2.37145 -5.37621 0
M  V30 13193 H 1205.38 -1.59585 -5.89377 0
M  V30 13194 H 1206.8 -3.44863 -4.57976 0
M  V30 13195 H 1205.19 -4.18796 -4.29802 0
M  V30 13196 H 1206.26 -3.87084 -2.92051 0
M  V30 13197 N 1207.61 1.06304 -1.1635 0
M  V30 13198 C 1208.56 2.12032 -0.83825 0
M  V30 13199 C 1209.54 1.59864 0.182254 0
M  V30 13200 O 1210.73 1.7699 -0.0185576 0
M  V30 13201 C 1207.86 3.41603 -0.340968 0
M  V30 13202 C 1206.95 4.00596 -1.39225 0
M  V30 13203 N 1207.34 4.33703 -2.6026 0
M  V30 13204 C 1205.64 4.28199 -1.24748 0
M  V30 13205 C 1206.34 4.80595 -3.27725 0
M  V30 13206 N 1205.31 4.80023 -2.55105 0
M  V30 13207 H 1209.12 2.35475 -1.75866 0
M  V30 13208 H 1206.63 1.23845 -1.05053 0
M  V30 13209 H 1208.63 4.16804 -0.0895629 0
M  V30 13210 H 1207.29 3.19598 0.57337 0
M  V30 13211 H 1208.3 4.24055 -2.97318 0
M  V30 13212 H 1204.98 4.15638 -0.393887 0
M  V30 13213 H 1206.37 5.15416 -4.31041 0
M  V30 13214 N 1209.09 0.96196 1.24836 0
M  V30 13215 C 1210.31 0.637709 1.97353 0
M  V30 13216 C 1210.74 -0.784919 1.7094 0
M  V30 13217 O 1210.09 -1.53188 0.969694 0
M  V30 13218 C 1210.14 0.911485 3.4889 0
M  V30 13219 O 1209.25 -0.00601668 4.124 0
M  V30 13220 H 1208.59 0.241685 0.618453 0
M  V30 13221 H 1211.12 1.29055 1.58764 0
M  V30 13222 H 1211.13 0.840702 3.99245 0
M  V30 13223 H 1209.8 1.9483 3.67442 0
M  V30 13224 H 1208.38 0.117597 3.72715 0
M  V30 13225 N 1210.56 -1.39601 0.731392 0
M  V30 13226 C 1211.79 -2.05411 0.286532 0
M  V30 13227 C 1212.21 -1.54777 -1.06892 0
M  V30 13228 O 1211.57 -0.689942 -1.67659 0
M  V30 13229 C 1211.62 -3.594 0.293914 0
M  V30 13230 O 1210.72 -4.06072 -0.719657 0
M  V30 13231 H 1210.06 -0.650949 0.131004 0
M  V30 13232 H 1212.59 -1.78703 0.996305 0
M  V30 13233 H 1212.6 -4.0777 0.137052 0
M  V30 13234 H 1211.28 -3.95617 1.28298 0
M  V30 13235 H 1209.86 -3.69125 -0.529226 0
M  V30 13236 N 1212.04 -0.478751 -1.50152 0
M  V30 13237 C 1212.99 0.325375 -2.30313 0
M  V30 13238 C 1213.98 0.983372 -1.37935 0
M  V30 13239 O 1215.19 0.913601 -1.55091 0
M  V30 13240 H 1211.57 0.123775 -0.741744 0
M  V30 13241 H 1213.54 -0.371004 -2.96085 0
M  V30 13242 C 1212.29 1.39026 -3.18696 0
M  V30 13243 H 1211.61 0.893329 -3.89692 0
M  V30 13244 H 1213.05 1.92533 -3.77766 0
M  V30 13245 C 1211.51 2.39637 -2.36803 0
M  V30 13246 O 1212.04 3.45067 -2.05649 0
M  V30 13247 N 1210.24 2.11546 -1.9924 0
M  V30 13248 H 1209.79 1.25832 -2.24775 0
M  V30 13249 H 1209.75 2.79096 -1.44751 0
M  V30 13250 N 1213.52 1.56172 -0.211661 0
M  V30 13251 C 1214.47 2.19849 0.702515 0
M  V30 13252 C 1215.44 1.15091 1.19763 0
M  V30 13253 O 1216.62 1.43408 1.25852 0
M  V30 13254 C 1213.76 2.87468 1.90935 0
M  V30 13255 C 1212.88 4.06794 1.45406 0
M  V30 13256 C 1212.01 4.62224 2.61769 0
M  V30 13257 C 1211.05 5.73872 2.12926 0
M  V30 13258 N 1210.19 6.23635 3.22526 0
M  V30 13259 H 1215.03 2.97608 0.152777 0
M  V30 13260 H 1212.56 1.46962 0.0636596 0
M  V30 13261 H 1214.52 3.24851 2.61777 0
M  V30 13262 H 1213.15 2.12244 2.43213 0
M  V30 13263 H 1212.2 3.74962 0.640907 0
M  V30 13264 H 1213.52 4.87497 1.05584 0
M  V30 13265 H 1212.67 5.01999 3.40709 0
M  V30 13266 H 1211.41 3.80662 3.04873 0
M  V30 13267 H 1210.41 5.33609 1.32445 0
M  V30 13268 H 1211.64 6.57262 1.70833 0
M  V30 13269 H 1209.58 5.44991 3.65131 0
M  V30 13270 H 1209.5 6.99435 2.86926 0
M  V30 13271 H 1210.77 6.68066 4.01631 0
M  V30 13272 N 1215 -0.0618163 1.57479 0
M  V30 13273 C 1216.22 -0.775513 1.92355 0
M  V30 13274 C 1216.65 -1.69816 0.808949 0
M  V30 13275 O 1216.01 -1.79736 -0.23761 0
M  V30 13276 C 1216.05 -1.5367 3.26218 0
M  V30 13277 O 1215.16 -2.64802 3.16155 0
M  V30 13278 H 1214.5 -0.210909 0.629614 0
M  V30 13279 H 1217.03 -0.0270752 2.04582 0
M  V30 13280 H 1217.04 -1.91379 3.6033 0
M  V30 13281 H 1215.71 -0.859798 4.06916 0
M  V30 13282 H 1214.29 -2.29876 2.93618 0
M  V30 13283 N 1216.48 -1.54033 -0.333429 0
M  V30 13284 C 1217.7 -1.76031 -1.09672 0
M  V30 13285 C 1218.13 -0.502844 -1.81254 0
M  V30 13286 O 1217.48 0.54509 -1.72912 0
M  V30 13287 C 1217.53 -2.947 -2.07809 0
M  V30 13288 O 1216.64 -2.65555 -3.15522 0
M  V30 13289 H 1215.98 -0.583611 -0.316692 0
M  V30 13290 H 1218.51 -2.01026 -0.380732 0
M  V30 13291 H 1218.52 -3.21771 -2.50853 0
M  V30 13292 H 1217.19 -3.85895 -1.55106 0
M  V30 13293 H 1215.77 -2.49403 -2.77223 0
M  V30 13294 N 1217.95 0.594978 -1.45938 0
M  V30 13295 C 1218.88 1.71536 -1.58422 0
M  V30 13296 C 1219.87 1.64441 -0.435116 0
M  V30 13297 O 1221.05 1.82647 -0.659839 0
M  V30 13298 C 1218.18 3.10163 -1.56257 0
M  V30 13299 C 1217.13 3.3208 -2.70013 0
M  V30 13300 C 1216.46 4.71108 -2.52905 0
M  V30 13301 C 1217.76 3.21105 -4.11933 0
M  V30 13302 H 1219.45 1.61344 -2.52207 0
M  V30 13303 H 1217 0.774791 -1.2138 0
M  V30 13304 H 1218.95 3.88352 -1.63587 0
M  V30 13305 H 1217.68 3.21225 -0.590093 0
M  V30 13306 H 1216.34 2.56286 -2.62132 0
M  V30 13307 H 1215.98 4.7892 -1.53768 0
M  V30 13308 H 1215.68 4.86727 -3.29197 0
M  V30 13309 H 1217.21 5.51482 -2.62107 0
M  V30 13310 H 1218.62 3.89153 -4.2099 0
M  V30 13311 H 1217.02 3.4825 -4.88715 0
M  V30 13312 H 1218.09 2.18359 -4.32952 0
M  V30 13313 N 1219.43 1.33438 0.838571 0
M  V30 13314 C 1220.66 1.27766 1.62356 0
M  V30 13315 C 1221.07 -0.15359 1.88576 0
M  V30 13316 O 1220.41 -1.10626 1.46654 0
M  V30 13317 C 1220.48 1.98435 2.99773 0
M  V30 13318 C 1220.14 3.47741 2.96522 0
M  V30 13319 C 1221.14 4.42938 2.72217 0
M  V30 13320 C 1218.82 3.89922 3.16648 0
M  V30 13321 C 1220.82 5.7829 2.68066 0
M  V30 13322 C 1218.5 5.25378 3.12123 0
M  V30 13323 C 1219.5 6.19374 2.87863 0
M  V30 13324 O 1219.19 7.52349 2.83242 0
M  V30 13325 H 1218.92 0.441527 0.511889 0
M  V30 13326 H 1221.47 1.76377 1.05262 0
M  V30 13327 H 1219.7 1.44415 3.58721 0
M  V30 13328 H 1221.39 1.86258 3.60642 0
M  V30 13329 H 1222.16 4.11673 2.56418 0
M  V30 13330 H 1218.04 3.17169 3.34552 0
M  V30 13331 H 1221.58 6.51629 2.4905 0
M  V30 13332 H 1217.48 5.56267 3.27471 0
M  V30 13333 H 1218.25 7.61901 2.99082 0
M  V30 13334 N 1220.91 -1.05686 1.16912 0
M  V30 13335 C 1222.14 -1.82821 0.979348 0
M  V30 13336 C 1222.56 -1.82196 -0.467575 0
M  V30 13337 O 1221.92 -1.22727 -1.33445 0
M  V30 13338 C 1221.97 -3.2705 1.51891 0
M  V30 13339 O 1221.07 -4.05899 0.729341 0
M  V30 13340 H 1220.41 -0.565455 0.348076 0
M  V30 13341 H 1222.94 -1.33211 1.55293 0
M  V30 13342 H 1222.95 -3.77859 1.53904 0
M  V30 13343 H 1221.63 -3.26819 2.5722 0
M  V30 13344 H 1220.2 -3.64646 0.780221 0
M  V30 13345 N 1222.39 -0.968567 -1.24324 0
M  V30 13346 C 1223.64 -0.629682 -1.9204 0
M  V30 13347 C 1223.96 0.837906 -1.7608 0
M  V30 13348 O 1223.23 1.5982 -1.13289 0
M  V30 13349 H 1221.81 -0.229901 -0.710742 0
M  V30 13350 H 1224.47 -1.22982 -1.512 0
M  V30 13351 H 1223.57 -0.871034 -2.99699 0
M  V30 13352 N 1223.87 1.39211 -0.738786 0
M  V30 13353 C 1225.28 1.54116 -0.414773 0
M  V30 13354 C 1225.48 1.70497 1.07392 0
M  V30 13355 O 1224.54 1.7076 1.86003 0
M  V30 13356 C 1225.85 2.7567 -1.2011 0
M  V30 13357 C 1227.4 2.89508 -1.1897 0
M  V30 13358 C 1227.87 4.14005 -1.95868 0
M  V30 13359 N 1229.37 4.21052 -1.93053 0
M  V30 13360 C 1230.1 5.16341 -2.49358 0
M  V30 13361 N 1229.6 6.17396 -3.14316 0
M  V30 13362 N 1231.39 5.08585 -2.3937 0
M  V30 13363 H 1223.54 1.26827 -1.70378 0
M  V30 13364 H 1225.8 0.614983 -0.721457 0
M  V30 13365 H 1225.51 2.69922 -2.25467 0
M  V30 13366 H 1225.38 3.68443 -0.808065 0
M  V30 13367 H 1227.77 2.94747 -0.144248 0
M  V30 13368 H 1227.85 1.97788 -1.62214 0
M  V30 13369 H 1227.5 4.09527 -3.00416 0
M  V30 13370 H 1227.43 5.04776 -1.50028 0
M  V30 13371 H 1229.92 3.48669 -1.45733 0
M  V30 13372 H 1230.23 6.86572 -3.54737 0
M  V30 13373 H 1228.57 6.17772 -3.18407 0
M  V30 13374 H 1231.77 4.28573 -1.88262 0
M  V30 13375 H 1231.94 5.8267 -2.83549 0
M  V30 13376 N 1225.34 0.486708 1.49896 0
M  V30 13377 C 1226.59 -0.0629451 2.02702 0
M  V30 13378 C 1226.92 -1.37956 1.36681 0
M  V30 13379 O 1226.2 -1.88025 0.497678 0
M  V30 13380 C 1226.48 -0.230461 3.59362 0
M  V30 13381 C 1226.33 1.10828 4.35933 0
M  V30 13382 C 1227.65 -0.977785 4.29101 0
M  V30 13383 H 1224.77 -0.0214017 0.736689 0
M  V30 13384 H 1227.41 0.635339 1.79063 0
M  V30 13385 H 1225.56 -0.825222 3.79634 0
M  V30 13386 H 1227.24 1.74082 4.27192 0
M  V30 13387 H 1225.48 1.7011 3.99055 0
M  V30 13388 H 1226.15 0.944532 5.43859 0
M  V30 13389 H 1228.63 -0.473505 4.13397 0
M  V30 13390 H 1227.5 -1.06382 5.38492 0
M  V30 13391 H 1227.76 -2.01813 3.9335 0
M  V30 13392 N 1226.82 -1.56058 0.219941 0
M  V30 13393 C 1228.07 -1.97436 -0.412543 0
M  V30 13394 C 1228.39 -1.11058 -1.61014 0
M  V30 13395 O 1229.59 -1.42328 -2.31203 0
M  V30 13396 C 1228.05 -3.51227 -0.785362 0
M  V30 13397 C 1227.66 -4.46305 0.389328 0
M  V30 13398 C 1229.4 -4.01321 -1.38354 0
M  V30 13399 C 1227.31 -5.914 -0.00583531 0
M  V30 13400 H 1226.24 -0.73728 -0.157906 0
M  V30 13401 H 1228.89 -1.8076 0.315898 0
M  V30 13402 H 1227.27 -3.63497 -1.57118 0
M  V30 13403 H 1228.44 -4.45781 1.16686 0
M  V30 13404 H 1226.76 -4.06543 0.900633 0
M  V30 13405 H 1229.36 -5.07221 -1.69207 0
M  V30 13406 H 1229.7 -3.47077 -2.29876 0
M  V30 13407 H 1230.23 -3.92267 -0.66119 0
M  V30 13408 H 1226.97 -6.49623 0.87583 0
M  V30 13409 H 1226.49 -5.95121 -0.74772 0
M  V30 13410 H 1228.17 -6.45549 -0.43308 0
M  V30 13411 N 1228.3 0.053464 -1.57509 0
M  V30 13412 C 1229.55 0.749102 -1.88135 0
M  V30 13413 C 1229.88 1.76642 -0.814111 0
M  V30 13414 O 1229.13 1.94796 0.187845 0
M  V30 13415 C 1229.43 1.47666 -3.25468 0
M  V30 13416 C 1229.1 0.597619 -4.46922 0
M  V30 13417 C 1227.76 0.355429 -4.79886 0
M  V30 13418 C 1230.11 -0.0107869 -5.21199 0
M  V30 13419 C 1227.44 -0.504347 -5.84528 0
M  V30 13420 C 1229.79 -0.858123 -6.26753 0
M  V30 13421 C 1228.45 -1.11001 -6.58206 0
M  V30 13422 H 1227.72 0.274116 -0.688434 0
M  V30 13423 H 1230.37 0.00944162 -1.91498 0
M  V30 13424 H 1228.68 2.28901 -3.1798 0
M  V30 13425 H 1230.37 2.02002 -3.46404 0
M  V30 13426 H 1226.96 0.796526 -4.21134 0
M  V30 13427 H 1231.15 0.163404 -4.96031 0
M  V30 13428 H 1226.4 -0.708057 -6.07286 0
M  V30 13429 H 1230.58 -1.3362 -6.83461 0
M  V30 13430 H 1228.2 -1.77798 -7.39116 0
M  V30 13431 N 1229.78 1.54207 0.325255 0
M  V30 13432 C 1231.02 1.74055 1.07164 0
M  V30 13433 C 1231.38 0.502722 1.85302 0
M  V30 13434 O 1232.58 0.578525 2.62501 0
M  V30 13435 C 1230.86 2.97994 1.97319 0
M  V30 13436 S 1232.41 3.38737 2.78931 0
M  V30 13437 H 1229.23 0.612059 0.361808 0
M  V30 13438 H 1231.83 1.92381 0.347837 0
M  V30 13439 H 1230.54 3.86235 1.38747 0
M  V30 13440 H 1230.07 2.82187 2.74106 0
M  V30 13441 H 1232.08 2.93904 3.99794 0
M  V30 13442 N 1231.26 -0.58723 1.46251 0
M  V30 13443 C 1232.19 -1.70694 1.5933 0
M  V30 13444 C 1233.17 -1.64208 0.443831 0
M  V30 13445 O 1234.35 -1.82294 0.669516 0
M  V30 13446 C 1231.48 -3.0933 1.579 0
M  V30 13447 C 1230.44 -3.30643 2.7177 0
M  V30 13448 C 1229.76 -4.69761 2.554 0
M  V30 13449 C 1231.06 -3.18916 4.1363 0
M  V30 13450 H 1232.76 -1.60004 2.53059 0
M  V30 13451 H 1230.3 -0.768343 1.21789 0
M  V30 13452 H 1232.26 -3.87479 1.65644 0
M  V30 13453 H 1230.98 -3.20907 0.60712 0
M  V30 13454 H 1229.64 -2.54892 2.63488 0
M  V30 13455 H 1229.29 -4.78098 1.56306 0
M  V30 13456 H 1228.99 -4.84974 3.31774 0
M  V30 13457 H 1230.51 -5.50084 2.65028 0
M  V30 13458 H 1231.93 -3.86915 4.23048 0
M  V30 13459 H 1230.32 -3.45653 4.90555 0
M  V30 13460 H 1231.39 -2.1606 4.34104 0
M  V30 13461 N 1232.74 -1.33881 -0.831482 0
M  V30 13462 C 1234.01 -1.16346 -1.57236 0
M  V30 13463 C 1234.39 0.267304 -2.09401 0
M  V30 13464 O 1233.74 1.26742 -1.90128 0
M  V30 13465 C 1233.95 -2.21082 -2.70044 0
M  V30 13466 C 1235.3 -2.5562 -3.39033 0
M  V30 13467 O 1236.32 -2.19806 -2.80292 0
M  V30 13468 O 1235.18 -3.17106 -4.45091 0
M  V30 13469 H 1232.28 -0.450469 -0.693546 0
M  V30 13470 H 1234.82 -1.45487 -0.873597 0
M  V30 13471 H 1233.59 -3.17155 -2.2919 0
M  V30 13472 H 1233.22 -1.9307 -3.47577 0
M  V30 13473 N 1234.21 1.05064 -1.1747 0
M  V30 13474 C 1235.44 1.81497 -0.987031 0
M  V30 13475 C 1235.85 1.83323 0.467921 0
M  V30 13476 O 1235.19 1.26006 1.33672 0
M  V30 13477 C 1235.26 3.28826 -1.45306 0
M  V30 13478 C 1234.92 3.50681 -2.93039 0
M  V30 13479 C 1235.92 3.42699 -3.90965 0
M  V30 13480 C 1233.6 3.77602 -3.31243 0
M  V30 13481 C 1235.6 3.61325 -5.25093 0
M  V30 13482 C 1233.28 3.95876 -4.65538 0
M  V30 13483 C 1234.28 3.87737 -5.62271 0
M  V30 13484 O 1233.97 4.055 -6.94136 0
M  V30 13485 H 1233.7 0.578734 -0.349347 0
M  V30 13486 H 1236.26 1.33373 -1.56208 0
M  V30 13487 H 1234.49 3.77872 -0.821581 0
M  V30 13488 H 1236.17 3.86788 -1.23085 0
M  V30 13489 H 1236.94 3.21877 -3.62795 0
M  V30 13490 H 1232.82 3.8304 -2.56517 0
M  V30 13491 H 1236.36 3.54888 -6.00583 0
M  V30 13492 H 1232.26 4.16191 -4.93412 0
M  V30 13493 H 1233.03 4.22718 -7.00894 0
M  V30 13494 N 1235.69 0.975146 1.23809 0
M  V30 13495 C 1236.94 0.636678 1.91388 0
M  V30 13496 C 1237.25 -0.832876 1.76982 0
M  V30 13497 O 1238.46 -1.28218 2.39316 0
M  V30 13498 C 1236.92 1.08813 3.43057 0
M  V30 13499 C 1236.52 2.58165 3.66135 0
M  V30 13500 C 1238.27 0.823154 4.16443 0
M  V30 13501 C 1236.17 2.97004 5.11412 0
M  V30 13502 H 1235.1 0.234424 0.716632 0
M  V30 13503 H 1237.76 1.18235 1.40331 0
M  V30 13504 H 1236.14 0.470709 3.93192 0
M  V30 13505 H 1237.31 3.25101 3.26567 0
M  V30 13506 H 1235.63 2.82353 3.06049 0
M  V30 13507 H 1238.22 1.08925 5.23488 0
M  V30 13508 H 1238.57 -0.240705 4.15604 0
M  V30 13509 H 1239.1 1.4019 3.72279 0
M  V30 13510 H 1235.84 4.02492 5.17378 0
M  V30 13511 H 1235.36 2.34759 5.51949 0
M  V30 13512 H 1237.04 2.8732 5.79704 0
M  V30 13513 N 1237.17 -1.38817 0.746158 0
M  V30 13514 C 1238.42 -1.99519 0.295839 0
M  V30 13515 C 1238.73 -1.59897 -1.12661 0
M  V30 13516 O 1239.94 -2.13514 -1.67702 0
M  V30 13517 C 1238.39 -3.56712 0.477984 0
M  V30 13518 C 1238 -4.0529 1.90904 0
M  V30 13519 C 1239.75 -4.24405 0.0900039 0
M  V30 13520 C 1237.65 -5.55097 2.04014 0
M  V30 13521 H 1236.58 -0.746389 0.106861 0
M  V30 13522 H 1239.23 -1.58676 0.921637 0
M  V30 13523 H 1237.62 -3.95406 -0.216884 0
M  V30 13524 H 1238.79 -3.77904 2.63677 0
M  V30 13525 H 1237.1 -3.50297 2.25125 0
M  V30 13526 H 1239.7 -5.3444 0.16682 0
M  V30 13527 H 1240.04 -4.05166 -0.956349 0
M  V30 13528 H 1240.58 -3.90924 0.736446 0
M  V30 13529 H 1237.32 -5.7923 3.06877 0
M  V30 13530 H 1236.84 -5.8425 1.35692 0
M  V30 13531 H 1238.52 -6.20682 1.82656 0
M  V30 13532 N 1238.65 -0.49465 -1.49636 0
M  V30 13533 C 1239.89 0.0521172 -2.02433 0
M  V30 13534 C 1240.22 1.37579 -1.37485 0
M  V30 13535 O 1239.48 1.8927 -0.497538 0
M  V30 13536 C 1239.78 0.259743 -3.56455 0
M  V30 13537 C 1239.44 -0.985143 -4.40007 0
M  V30 13538 C 1238.1 -1.3264 -4.62558 0
M  V30 13539 C 1240.46 -1.81291 -4.88654 0
M  V30 13540 C 1237.78 -2.49506 -5.31003 0
M  V30 13541 C 1240.14 -2.97305 -5.58384 0
M  V30 13542 C 1238.8 -3.31818 -5.79183 0
M  V30 13543 H 1238.07 0.0190711 -0.740755 0
M  V30 13544 H 1240.72 -0.653519 -1.80004 0
M  V30 13545 H 1239.02 1.04785 -3.77528 0
M  V30 13546 H 1240.72 0.697146 -3.94893 0
M  V30 13547 H 1237.31 -0.709313 -4.2269 0
M  V30 13548 H 1241.49 -1.56242 -4.71065 0
M  V30 13549 H 1236.75 -2.76491 -5.4531 0
M  V30 13550 H 1240.92 -3.61777 -5.95055 0
M  V30 13551 H 1238.55 -4.22478 -6.31994 0
M  V30 13552 N 1240.13 1.55939 -0.228214 0
M  V30 13553 C 1241.35 2.0287 0.406348 0
M  V30 13554 C 1241.77 1.1079 1.52876 0
M  V30 13555 O 1241.13 0.118747 1.82113 0
M  V30 13556 C 1241.18 3.49286 0.931734 0
M  V30 13557 O 1240.9 4.37857 -0.145933 0
M  V30 13558 C 1242.4 4.11893 1.63887 0
M  V30 13559 H 1239.62 0.663696 0.0987358 0
M  V30 13560 H 1242.16 2.01541 -0.346616 0
M  V30 13561 H 1240.32 3.5121 1.63494 0
M  V30 13562 H 1240.73 5.23904 0.250005 0
M  V30 13563 H 1242.21 5.16091 1.95841 0
M  V30 13564 H 1242.68 3.57281 2.55435 0
M  V30 13565 H 1243.29 4.13839 0.980697 0
M  V30 13566 N 1241.6 -0.0451101 1.57535 0
M  V30 13567 C 1242.53 -1.05046 2.08537 0
M  V30 13568 C 1243.52 -1.3872 0.984418 0
M  V30 13569 O 1244.7 -1.47884 1.25873 0
M  V30 13570 C 1241.83 -2.3562 2.55148 0
M  V30 13571 C 1240.78 -2.16231 3.69362 0
M  V30 13572 C 1240.11 -3.52423 4.02122 0
M  V30 13573 C 1241.41 -1.56159 4.98409 0
M  V30 13574 H 1243.1 -0.625965 2.92783 0
M  V30 13575 H 1240.65 -0.299657 1.40848 0
M  V30 13576 H 1242.6 -3.06266 2.89446 0
M  V30 13577 H 1241.33 -2.80099 1.67964 0
M  V30 13578 H 1239.99 -1.4802 3.35389 0
M  V30 13579 H 1239.63 -3.94522 3.12028 0
M  V30 13580 H 1239.33 -3.4028 4.79044 0
M  V30 13581 H 1240.86 -4.24458 4.38939 0
M  V30 13582 H 1242.27 -2.16703 5.30766 0
M  V30 13583 H 1240.67 -1.54638 5.79834 0
M  V30 13584 H 1241.74 -0.525698 4.82042 0
M  V30 13585 N 1243.08 -1.54377 -0.317073 0
M  V30 13586 C 1244.5 -1.45232 -0.6618 0
M  V30 13587 C 1244.7 -0.630457 -1.91383 0
M  V30 13588 O 1243.75 -0.13181 -2.52156 0
M  V30 13589 C 1245.07 -2.89025 -0.829761 0
M  V30 13590 C 1246.62 -2.98967 -0.926685 0
M  V30 13591 C 1247.09 -4.43923 -1.12677 0
M  V30 13592 N 1248.58 -4.47564 -1.19335 0
M  V30 13593 C 1249.32 -5.56887 -1.36617 0
M  V30 13594 N 1248.81 -6.76167 -1.50899 0
M  V30 13595 N 1250.61 -5.44546 -1.39377 0
M  V30 13596 H 1242.76 -2.0629 0.505766 0
M  V30 13597 H 1245.02 -0.933615 0.164522 0
M  V30 13598 H 1244.73 -3.51695 0.0190945 0
M  V30 13599 H 1244.6 -3.35515 -1.72364 0
M  V30 13600 H 1246.99 -2.36421 -1.76604 0
M  V30 13601 H 1247.07 -2.55798 -0.00913402 0
M  V30 13602 H 1246.71 -5.07059 -0.29224 0
M  V30 13603 H 1246.64 -4.84708 -2.05829 0
M  V30 13604 H 1249.13 -3.61623 -1.09715 0
M  V30 13605 H 1249.45 -7.55242 -1.63796 0
M  V30 13606 H 1247.79 -6.79062 -1.47985 0
M  V30 13607 H 1250.98 -4.50311 -1.27819 0
M  V30 13608 H 1251.15 -6.29799 -1.52502 0
M  V30 13609 N 1244.56 0.579466 -1.4656 0
M  V30 13610 C 1245.49 1.69846 -1.60233 0
M  V30 13611 C 1246.47 1.6397 -0.452533 0
M  V30 13612 O 1247.66 1.81936 -0.679174 0
M  V30 13613 C 1244.79 3.08488 -1.59538 0
M  V30 13614 C 1243.74 3.29197 -2.7352 0
M  V30 13615 C 1243.07 4.684 -2.57887 0
M  V30 13616 C 1244.37 3.16718 -4.15315 0
M  V30 13617 H 1246.06 1.5866 -2.53904 0
M  V30 13618 H 1243.61 0.761873 -1.22194 0
M  V30 13619 H 1245.56 3.86595 -1.67696 0
M  V30 13620 H 1244.28 3.20581 -0.62413 0
M  V30 13621 H 1242.94 2.53491 -2.64836 0
M  V30 13622 H 1242.59 4.77262 -1.58839 0
M  V30 13623 H 1242.29 4.83208 -3.34341 0
M  V30 13624 H 1243.81 5.48671 -2.67942 0
M  V30 13625 H 1245.23 3.84666 -4.25094 0
M  V30 13626 H 1243.63 3.43047 -4.92381 0
M  V30 13627 H 1244.7 2.13755 -4.35244 0
M  V30 13628 N 1246.04 1.3432 0.824371 0
M  V30 13629 C 1247.29 1.25938 1.57552 0
M  V30 13630 C 1247.6 -0.169298 1.94866 0
M  V30 13631 O 1248.81 -0.375262 2.68894 0
M  V30 13632 C 1247.26 2.20757 2.84244 0
M  V30 13633 C 1246.87 3.68873 2.54237 0
M  V30 13634 C 1248.61 2.21279 3.62265 0
M  V30 13635 C 1246.52 4.55566 3.77113 0
M  V30 13636 H 1245.45 0.467832 0.591311 0
M  V30 13637 H 1248.1 1.59476 0.907724 0
M  V30 13638 H 1246.48 1.80168 3.52641 0
M  V30 13639 H 1247.66 4.17991 1.93959 0
M  V30 13640 H 1245.97 3.70784 1.89494 0
M  V30 13641 H 1248.57 2.83272 4.53499 0
M  V30 13642 H 1248.91 1.2117 3.98276 0
M  V30 13643 H 1249.45 2.60305 3.00809 0
M  V30 13644 H 1246.19 5.56605 3.46223 0
M  V30 13645 H 1245.71 4.11184 4.36678 0
M  V30 13646 H 1247.38 4.701 4.44539 0
M  V30 13647 N 1247.52 -1.0444 1.18026 0
M  V30 13648 C 1248.47 -2.10671 0.871877 0
M  V30 13649 C 1249.45 -1.60134 -0.156798 0
M  V30 13650 O 1250.64 -1.76938 0.0467129 0
M  V30 13651 C 1247.77 -3.41017 0.395271 0
M  V30 13652 C 1246.86 -3.98331 1.4558 0
M  V30 13653 N 1247.25 -4.29508 2.67127 0
M  V30 13654 C 1245.55 -4.2616 1.31544 0
M  V30 13655 C 1246.25 -4.7532 3.35329 0
M  V30 13656 N 1245.22 -4.75904 2.6271 0
M  V30 13657 H 1249.03 -2.32647 1.79589 0
M  V30 13658 H 1246.54 -1.22158 1.0701 0
M  V30 13659 H 1248.54 -4.16609 0.155861 0
M  V30 13660 H 1247.2 -3.20469 -0.522452 0
M  V30 13661 H 1248.21 -4.19271 3.04027 0
M  V30 13662 H 1244.88 -4.14959 0.459962 0
M  V30 13663 H 1246.27 -5.08493 4.39186 0
M  V30 13664 N 1248.99 -0.981699 -1.2329 0
M  V30 13665 C 1250.24 -0.646818 -1.91048 0
M  V30 13666 C 1250.56 0.823479 -1.77421 0
M  V30 13667 O 1251.76 1.26948 -2.39993 0
M  V30 13668 C 1250.22 -1.1063 -3.42475 0
M  V30 13669 C 1249.83 -2.60103 -3.6476 0
M  V30 13670 C 1251.57 -0.845227 -4.16 0
M  V30 13671 C 1249.48 -2.99712 -5.0983 0
M  V30 13672 H 1248.41 -0.238221 -0.715379 0
M  V30 13673 H 1251.06 -1.18977 -1.39702 0
M  V30 13674 H 1249.44 -0.491554 -3.92937 0
M  V30 13675 H 1250.61 -3.26828 -3.24839 0
M  V30 13676 H 1248.93 -2.83972 -3.04547 0
M  V30 13677 H 1251.53 -1.11699 -5.22903 0
M  V30 13678 H 1251.87 0.218661 -4.15725 0
M  V30 13679 H 1252.4 -1.42162 -3.7153 0
M  V30 13680 H 1249.14 -4.0523 -5.15237 0
M  V30 13681 H 1248.66 -2.37683 -5.50697 0
M  V30 13682 H 1250.34 -2.9039 -5.78172 0
M  V30 13683 N 1250.47 1.3842 -0.753509 0
M  V30 13684 C 1251.72 2.00119 -0.309633 0
M  V30 13685 C 1252.05 1.59811 1.10863 0
M  V30 13686 O 1251.3 0.827013 1.77367 0
M  V30 13687 C 1251.6 3.55375 -0.379937 0
M  V30 13688 C 1251.27 4.15393 -1.75384 0
M  V30 13689 C 1249.93 4.31499 -2.12984 0
M  V30 13690 C 1252.28 4.48503 -2.65508 0
M  V30 13691 C 1249.61 4.78011 -3.4018 0
M  V30 13692 C 1251.96 4.96431 -3.92095 0
M  V30 13693 C 1250.63 5.10744 -4.29764 0
M  V30 13694 H 1249.9 0.732286 -0.113303 0
M  V30 13695 H 1252.54 1.65468 -0.963975 0
M  V30 13696 H 1250.85 3.90161 0.357969 0
M  V30 13697 H 1252.54 4.00996 -0.0180738 0
M  V30 13698 H 1249.13 4.03271 -1.45156 0
M  V30 13699 H 1253.32 4.35661 -2.37724 0
M  V30 13700 H 1248.57 4.87277 -3.69284 0
M  V30 13701 H 1252.75 5.21021 -4.62072 0
M  V30 13702 H 1250.38 5.46545 -5.28387 0
M  V30 13703 N 1251.95 0.502579 1.49372 0
M  V30 13704 C 1253.18 -0.0381429 2.06865 0
M  V30 13705 C 1253.59 -1.30674 1.36271 0
M  V30 13706 O 1252.95 -1.77078 0.441532 0
M  V30 13707 C 1253 -0.294068 3.60302 0
M  V30 13708 O 1252.72 0.924244 4.2824 0
M  V30 13709 C 1254.22 -0.878253 4.34513 0
M  V30 13710 H 1251.44 0.0211756 0.670666 0
M  V30 13711 H 1253.99 0.700387 1.92132 0
M  V30 13712 H 1252.14 -0.982583 3.74732 0
M  V30 13713 H 1252.56 0.688062 5.19967 0
M  V30 13714 H 1254.03 -1.0069 5.42739 0
M  V30 13715 H 1254.51 -1.87643 3.97098 0
M  V30 13716 H 1255.11 -0.227157 4.24693 0
M  V30 13717 N 1253.43 -1.55816 0.23648 0
M  V30 13718 C 1254.67 -1.98981 -0.391725 0
M  V30 13719 C 1255.01 -1.12428 -1.58346 0
M  V30 13720 O 1254.28 -0.185303 -1.93615 0
M  V30 13721 C 1254.57 -3.50831 -0.811759 0
M  V30 13722 C 1254.42 -4.48152 0.384648 0
M  V30 13723 C 1255.74 -4.07489 -1.66254 0
M  V30 13724 H 1252.86 -0.723404 -0.140911 0
M  V30 13725 H 1255.5 -1.87011 0.335706 0
M  V30 13726 H 1253.65 -3.61162 -1.43157 0
M  V30 13727 H 1255.32 -4.49814 1.02298 0
M  V30 13728 H 1253.56 -4.21406 1.02955 0
M  V30 13729 H 1254.23 -5.51979 0.0475809 0
M  V30 13730 H 1256.71 -4.00195 -1.13944 0
M  V30 13731 H 1255.59 -5.14026 -1.92531 0
M  V30 13732 H 1255.85 -3.55297 -2.6309 0
M  V30 13733 N 1254.91 0.036755 -1.57557 0
M  V30 13734 C 1256.13 0.744813 -1.93565 0
M  V30 13735 C 1256.56 1.68508 -0.835863 0
M  V30 13736 O 1255.91 1.80091 0.208986 0
M  V30 13737 C 1255.96 1.48461 -3.28621 0
M  V30 13738 O 1255.07 2.59739 -3.20327 0
M  V30 13739 H 1254.41 0.200866 -0.632889 0
M  V30 13740 H 1256.94 -0.00547543 -2.04599 0
M  V30 13741 H 1256.95 1.85622 -3.63329 0
M  V30 13742 H 1255.62 0.794953 -4.08232 0
M  V30 13743 H 1254.2 2.25176 -2.97237 0
M  V30 13744 N 1256.39 1.54543 0.308881 0
M  V30 13745 C 1257.8 1.45581 0.654088 0
M  V30 13746 C 1258 0.640597 1.91046 0
M  V30 13747 O 1257.06 0.14518 2.52082 0
M  V30 13748 C 1258.37 2.89461 0.814422 0
M  V30 13749 C 1259.92 2.99455 0.910817 0
M  V30 13750 C 1260.39 4.44515 1.10321 0
M  V30 13751 N 1261.88 4.4819 1.1696 0
M  V30 13752 C 1262.62 5.57604 1.33661 0
M  V30 13753 N 1262.12 6.76957 1.47311 0
M  V30 13754 N 1263.91 5.45278 1.36487 0
M  V30 13755 H 1256.06 2.06019 -0.516699 0
M  V30 13756 H 1258.32 0.932729 -0.169471 0
M  V30 13757 H 1258.03 3.5168 -0.0377455 0
M  V30 13758 H 1257.9 3.36425 1.70582 0
M  V30 13759 H 1260.29 2.37355 1.75348 0
M  V30 13760 H 1260.37 2.558 -0.00443172 0
M  V30 13761 H 1260.01 5.07206 0.265346 0
M  V30 13762 H 1259.94 4.85793 2.03256 0
M  V30 13763 H 1262.44 3.62199 1.07796 0
M  V30 13764 H 1262.75 7.561 1.59788 0
M  V30 13765 H 1261.09 6.79837 1.44382 0
M  V30 13766 H 1264.28 4.50983 1.25429 0
M  V30 13767 H 1264.46 6.30599 1.4916 0
M  V30 13768 N 1257.86 -0.571685 1.46866 0
M  V30 13769 C 1258.81 -1.70098 1.58649 0
M  V30 13770 C 1259.81 -1.63191 0.45443 0
M  V30 13771 O 1261.01 -1.68551 0.63171 0
M  V30 13772 H 1257.39 -0.56258 0.499007 0
M  V30 13773 H 1259.36 -1.57293 2.53577 0
M  V30 13774 C 1258.11 -3.08475 1.60433 0
M  V30 13775 H 1257.43 -3.14465 2.46884 0
M  V30 13776 H 1258.87 -3.87221 1.7273 0
M  V30 13777 C 1257.33 -3.35231 0.334948 0
M  V30 13778 O 1257.86 -3.97633 -0.570149 0
M  V30 13779 N 1256.06 -2.8977 0.219441 0
M  V30 13780 H 1255.61 -2.39168 0.956891 0
M  V30 13781 H 1255.57 -3.08044 -0.628975 0
M  V30 13782 N 1259.34 -1.34755 -0.817236 0
M  V30 13783 C 1260.27 -1.29452 -1.94331 0
M  V30 13784 C 1261.25 -0.170902 -1.69239 0
M  V30 13785 O 1262.44 -0.364173 -1.90755 0
M  V30 13786 C 1259.57 -1.05497 -3.30889 0
M  V30 13787 C 1258.52 -2.14386 -3.70436 0
M  V30 13788 C 1257.85 -1.75612 -5.05039 0
M  V30 13789 C 1259.15 -3.56265 -3.81933 0
M  V30 13790 H 1260.84 -2.23672 -1.99025 0
M  V30 13791 H 1258.39 -1.07674 -0.956159 0
M  V30 13792 H 1260.34 -1.0043 -4.09257 0
M  V30 13793 H 1259.06 -0.0772059 -3.26509 0
M  V30 13794 H 1257.72 -2.18532 -2.94345 0
M  V30 13795 H 1257.37 -0.764809 -4.97152 0
M  V30 13796 H 1257.07 -2.48495 -5.3247 0
M  V30 13797 H 1258.6 -1.72051 -5.85859 0
M  V30 13798 H 1260.01 -3.545 -4.50558 0
M  V30 13799 H 1258.41 -4.27818 -4.20822 0
M  V30 13800 H 1259.48 -3.93192 -2.83775 0
M  V30 13801 N 1260.82 1.03812 -1.18578 0
M  V30 13802 C 1262.07 1.76706 -0.980776 0
M  V30 13803 C 1262.39 1.88729 0.490562 0
M  V30 13804 O 1261.66 1.41413 1.35569 0
M  V30 13805 H 1260.24 0.654586 -0.359898 0
M  V30 13806 H 1262.9 1.25274 -1.49306 0
M  V30 13807 H 1262 2.77876 -1.42096 0
M  V30 13808 N 1262.3 0.988223 1.22768 0
M  V30 13809 C 1263.71 0.697281 1.7319 0
M  V30 13810 C 1264.06 -0.786111 1.79763 0
M  V30 13811 O 1263.18 -1.61465 1.44077 0
M  V30 13812 C 1263.78 1.25905 3.14537 0
M  V30 13813 C 1262.34 1.01759 3.62384 0
M  V30 13814 C 1261.49 1.38207 2.40404 0
M  V30 13815 H 1264.44 1.16114 1.08181 0
M  V30 13816 H 1264.46 0.635315 3.75159 0
M  V30 13817 H 1263.97 2.33869 3.09721 0
M  V30 13818 H 1262.07 -0.045627 3.72572 0
M  V30 13819 H 1262.18 1.67767 4.48766 0
M  V30 13820 H 1260.55 0.800607 2.4179 0
M  V30 13821 H 1261.33 2.47165 2.38253 0
M  V30 13822 N 1263.78 -1.38018 0.760839 0
M  V30 13823 C 1264.72 -2.30387 0.13796 0
M  V30 13824 C 1265.69 -1.50548 -0.701754 0
M  V30 13825 O 1266.88 -1.79154 -0.656381 0
M  V30 13826 C 1264.02 -3.36993 -0.743642 0
M  V30 13827 C 1263.13 -4.31856 0.111489 0
M  V30 13828 C 1262.27 -5.25534 -0.773796 0
M  V30 13829 C 1261.3 -6.12042 0.0845311 0
M  V30 13830 N 1260.44 -6.97995 -0.758118 0
M  V30 13831 H 1265.28 -2.83077 0.931212 0
M  V30 13832 H 1262.82 -1.39361 0.470833 0
M  V30 13833 H 1264.78 -3.97417 -1.26948 0
M  V30 13834 H 1263.41 -2.85695 -1.50261 0
M  V30 13835 H 1262.46 -3.72832 0.755031 0
M  V30 13836 H 1263.77 -4.92758 0.774042 0
M  V30 13837 H 1262.92 -5.9111 -1.36653 0
M  V30 13838 H 1261.66 -4.65017 -1.47006 0
M  V30 13839 H 1260.67 -5.45455 0.689883 0
M  V30 13840 H 1261.89 -6.74629 0.777966 0
M  V30 13841 H 1259.84 -6.40018 -1.4392 0
M  V30 13842 H 1259.76 -7.55846 -0.152623 0
M  V30 13843 H 1261.02 -7.67973 -1.33559 0
M  V30 13844 N 1265.25 -0.510493 -1.49103 0
M  V30 13845 C 1266.5 0.0325393 -2.01674 0
M  V30 13846 C 1266.82 1.37162 -1.39448 0
M  V30 13847 O 1268.02 2.00189 -1.83402 0
M  V30 13848 C 1266.48 0.108433 -3.59737 0
M  V30 13849 C 1266.09 -1.22458 -4.30939 0
M  V30 13850 C 1267.83 0.601326 -4.20219 0
M  V30 13851 C 1265.74 -1.11033 -5.80884 0
M  V30 13852 H 1264.67 0.0159333 -0.753832 0
M  V30 13853 H 1267.32 -0.651344 -1.71551 0
M  V30 13854 H 1265.7 0.856974 -3.86616 0
M  V30 13855 H 1266.87 -1.98715 -4.15751 0
M  V30 13856 H 1265.19 -1.65166 -3.82242 0
M  V30 13857 H 1267.79 0.704462 -5.30039 0
M  V30 13858 H 1268.13 1.60247 -3.84222 0
M  V30 13859 H 1268.66 -0.0909561 -3.97696 0
M  V30 13860 H 1265.4 -2.08603 -6.21422 0
M  V30 13861 H 1264.92 -0.388798 -5.98539 0
M  V30 13862 H 1266.6 -0.792949 -6.42123 0
M  V30 13863 N 1266.73 1.55688 -0.24474 0
M  V30 13864 C 1267.98 1.98067 0.381081 0
M  V30 13865 C 1268.29 1.13606 1.59227 0
M  V30 13866 O 1269.5 1.45988 2.2891 0
M  V30 13867 C 1267.96 3.52432 0.729385 0
M  V30 13868 C 1267.56 4.45629 -0.460282 0
M  V30 13869 C 1269.31 4.03471 1.31952 0
M  V30 13870 C 1267.21 5.91334 -0.088252 0
M  V30 13871 H 1266.14 0.739699 0.146157 0
M  V30 13872 H 1268.8 1.80235 -0.344615 0
M  V30 13873 H 1267.18 3.65951 1.51315 0
M  V30 13874 H 1268.35 4.43868 -1.23764 0
M  V30 13875 H 1266.67 4.05059 -0.965197 0
M  V30 13876 H 1269.26 5.09849 1.61116 0
M  V30 13877 H 1269.61 3.50691 2.24325 0
M  V30 13878 H 1270.14 3.93269 0.5987 0
M  V30 13879 H 1266.88 6.48147 -0.979069 0
M  V30 13880 H 1266.4 5.96235 0.652947 0
M  V30 13881 H 1268.08 6.46156 0.330324 0
M  V30 13882 N 1268.21 -0.0283989 1.57574 0
M  V30 13883 C 1269.14 -1.06191 2.01987 0
M  V30 13884 C 1270.12 -1.35131 0.90434 0
M  V30 13885 O 1271.3 -1.47777 1.17023 0
M  V30 13886 C 1268.43 -2.39646 2.39348 0
M  V30 13887 C 1267.48 -2.26558 3.6135 0
M  V30 13888 S 1268.31 -1.61839 5.10459 0
M  V30 13889 C 1269.47 -2.96783 5.51063 0
M  V30 13890 H 1269.7 -0.683625 2.89333 0
M  V30 13891 H 1267.23 -0.238394 1.52548 0
M  V30 13892 H 1269.19 -3.16394 2.61544 0
M  V30 13893 H 1267.85 -2.74622 1.52452 0
M  V30 13894 H 1267.04 -3.25079 3.85149 0
M  V30 13895 H 1266.65 -1.57954 3.39008 0
M  V30 13896 H 1268.94 -3.93111 5.51788 0
M  V30 13897 H 1269.88 -2.77716 6.51367 0
M  V30 13898 H 1270.29 -2.99386 4.78569 0
M  V30 13899 N 1269.69 -1.54705 -0.300681 0
M  V30 13900 C 1270.62 -1.88679 -1.37559 0
M  V30 13901 C 1271.6 -0.74574 -1.52881 0
M  V30 13902 O 1272.78 -1.0015 -1.66384 0
M  V30 13903 C 1269.91 -2.13438 -2.73974 0
M  V30 13904 C 1268.87 -3.29284 -2.73415 0
M  V30 13905 C 1268.19 -3.39462 -4.13122 0
M  V30 13906 C 1269.49 -4.66382 -2.35128 0
M  V30 13907 H 1271.19 -2.78707 -1.09373 0
M  V30 13908 H 1268.73 -1.341 -0.524704 0
M  V30 13909 H 1270.69 -2.35791 -3.49257 0
M  V30 13910 H 1269.41 -1.20181 -3.03684 0
M  V30 13911 H 1268.07 -3.06855 -2.00588 0
M  V30 13912 H 1267.72 -2.43721 -4.4001 0
M  V30 13913 H 1267.42 -4.17334 -4.1365 0
M  V30 13914 H 1268.94 -3.64075 -4.90185 0
M  V30 13915 H 1270.36 -4.88463 -3.00128 0
M  V30 13916 H 1268.75 -5.4697 -2.46867 0
M  V30 13917 H 1269.82 -4.67078 -1.30256 0
M  V30 13918 N 1271.17 0.563888 -1.47167 0
M  V30 13919 C 1272.1 1.68655 -1.55204 0
M  V30 13920 C 1273.11 1.56776 -0.438769 0
M  V30 13921 O 1274.3 1.63856 -0.708059 0
M  V30 13922 C 1271.4 3.07068 -1.43396 0
M  V30 13923 C 1270.57 3.44767 -2.69174 0
M  V30 13924 C 1269.63 4.62316 -2.51298 0
M  V30 13925 O 1268.66 4.67231 -3.2509 0
M  V30 13926 N 1269.86 5.58389 -1.58688 0
M  V30 13927 H 1272.63 1.62209 -2.52009 0
M  V30 13928 H 1270.19 0.750359 -1.43462 0
M  V30 13929 H 1272.18 3.83529 -1.29181 0
M  V30 13930 H 1270.75 3.07777 -0.546997 0
M  V30 13931 H 1269.97 2.57821 -2.98198 0
M  V30 13932 H 1271.26 3.66726 -3.52689 0
M  V30 13933 H 1270.65 5.57169 -0.978737 0
M  V30 13934 H 1269.21 6.34204 -1.50428 0
M  V30 13935 N 1272.64 1.35187 0.810078 0
M  V30 13936 C 1274.06 1.15149 1.10512 0
M  V30 13937 C 1274.26 -0.038394 2.01463 0
M  V30 13938 O 1273.32 -0.710056 2.42311 0
M  V30 13939 C 1274.63 2.45282 1.73946 0
M  V30 13940 C 1276.18 2.51457 1.86382 0
M  V30 13941 C 1276.65 3.81625 2.53232 0
M  V30 13942 N 1278.14 3.82856 2.6072 0
M  V30 13943 C 1278.88 4.80302 3.13206 0
M  V30 13944 N 1278.37 5.88134 3.66156 0
M  V30 13945 N 1280.17 4.67743 3.11726 0
M  V30 13946 H 1272.32 2.11405 0.205391 0
M  V30 13947 H 1274.58 0.935457 0.153702 0
M  V30 13948 H 1274.29 3.32512 1.14582 0
M  V30 13949 H 1274.16 2.59573 2.73682 0
M  V30 13950 H 1276.55 1.64659 2.44891 0
M  V30 13951 H 1276.63 2.41084 0.855113 0
M  V30 13952 H 1276.27 4.68819 1.95375 0
M  V30 13953 H 1276.2 3.89285 3.54633 0
M  V30 13954 H 1278.69 3.04941 2.23203 0
M  V30 13955 H 1279.01 6.58487 4.04494 0
M  V30 13956 H 1277.35 5.91831 3.64364 0
M  V30 13957 H 1280.54 3.82642 2.69635 0
M  V30 13958 H 1280.72 5.43849 3.52324 0
M  V30 13959 N 1274.12 -1.03182 1.19127 0
M  V30 13960 C 1275.06 -2.10977 0.869702 0
M  V30 13961 C 1276.03 -1.61687 -0.172032 0
M  V30 13962 O 1277.22 -1.88436 -0.0490025 0
M  V30 13963 C 1274.34 -3.37359 0.301049 0
M  V30 13964 C 1273.39 -4.05515 1.32137 0
M  V30 13965 S 1274.22 -4.51415 2.88071 0
M  V30 13966 C 1275.38 -5.81018 2.32741 0
M  V30 13967 H 1275.61 -2.37929 1.78261 0
M  V30 13968 H 1273.15 -1.16079 1.01809 0
M  V30 13969 H 1275.1 -4.10495 -0.0205205 0
M  V30 13970 H 1273.76 -3.08507 -0.590118 0
M  V30 13971 H 1272.96 -4.9639 0.872547 0
M  V30 13972 H 1272.56 -3.38536 1.58963 0
M  V30 13973 H 1274.85 -6.5542 1.71552 0
M  V30 13974 H 1275.79 -6.30677 3.21951 0
M  V30 13975 H 1276.2 -5.36549 1.75429 0
M  V30 13976 N 1275.6 -0.99472 -1.22242 0
M  V30 13977 C 1276.53 -0.566499 -2.26524 0
M  V30 13978 C 1277.51 0.407541 -1.65146 0
M  V30 13979 O 1278.7 0.297777 -1.91903 0
M  V30 13980 C 1275.83 0.11786 -3.471 0
M  V30 13981 C 1274.78 -0.774908 -4.20927 0
M  V30 13982 C 1274.11 0.0424687 -5.34683 0
M  V30 13983 C 1275.41 -2.07263 -4.79416 0
M  V30 13984 H 1277.1 -1.43818 -2.62596 0
M  V30 13985 H 1274.65 -0.692971 -1.2623 0
M  V30 13986 H 1276.6 0.428842 -4.19212 0
M  V30 13987 H 1275.32 1.0241 -3.10129 0
M  V30 13988 H 1273.98 -1.06956 -3.50651 0
M  V30 13989 H 1273.63 0.949677 -4.93954 0
M  V30 13990 H 1273.33 -0.551867 -5.85003 0
M  V30 13991 H 1274.85 0.347504 -6.0961 0
M  V30 13992 H 1276.27 -1.82548 -5.4346 0
M  V30 13993 H 1274.67 -2.61594 -5.40082 0
M  V30 13994 H 1275.74 -2.75017 -3.99366 0
M  V30 13995 N 1277.08 1.37613 -0.768148 0
M  V30 13996 C 1278.33 1.99023 -0.327543 0
M  V30 13997 C 1278.64 1.61669 1.10103 0
M  V30 13998 O 1279.85 2.16155 1.64284 0
M  V30 13999 C 1278.3 3.55906 -0.534674 0
M  V30 14000 C 1277.91 4.02201 -1.97327 0
M  V30 14001 C 1279.65 4.24208 -0.157512 0
M  V30 14002 C 1277.56 5.51781 -2.12819 0
M  V30 14003 H 1276.49 0.744595 -0.118722 0
M  V30 14004 H 1279.14 1.5719 -0.946764 0
M  V30 14005 H 1277.52 3.95701 0.153951 0
M  V30 14006 H 1278.7 3.73661 -2.69655 0
M  V30 14007 H 1277.01 3.46671 -2.30669 0
M  V30 14008 H 1279.61 5.34107 -0.251824 0
M  V30 14009 H 1279.95 4.06636 0.89177 0
M  V30 14010 H 1280.49 3.89703 -0.798546 0
M  V30 14011 H 1277.23 5.74274 -3.16053 0
M  V30 14012 H 1276.75 5.82017 -1.4497 0
M  V30 14013 H 1278.42 6.17697 -1.92508 0
M  V30 14014 N 1278.56 0.518393 1.4883 0
M  V30 14015 C 1279.83 -0.0837498 1.95421 0
M  V30 14016 C 1280.21 -1.52435 1.46037 0
M  V30 14017 O 1279.56 -2.18093 0.681736 0
M  V30 14018 C 1279.77 0.0215333 3.48993 0
M  V30 14019 C 1281.12 -0.143615 4.24357 0
M  V30 14020 O 1282.14 -0.0528223 3.56161 0
M  V30 14021 O 1281 -0.332231 5.45489 0
M  V30 14022 H 1278.1 -0.0857132 0.822546 0
M  V30 14023 H 1280.64 0.582169 1.59402 0
M  V30 14024 H 1279.41 1.02549 3.77623 0
M  V30 14025 H 1279.04 -0.683756 3.91677 0
M  V30 14026 N 1280.03 -1.55556 0.252993 0
M  V30 14027 C 1281.28 -1.99385 -0.370599 0
M  V30 14028 C 1281.61 -1.14101 -1.57145 0
M  V30 14029 O 1280.89 -0.205828 -1.93408 0
M  V30 14030 C 1281.17 -3.51672 -0.774503 0
M  V30 14031 C 1281.02 -4.47719 0.432159 0
M  V30 14032 C 1282.34 -4.0923 -1.61923 0
M  V30 14033 H 1279.46 -0.724858 -0.133231 0
M  V30 14034 H 1282.1 -1.86644 0.355522 0
M  V30 14035 H 1280.25 -3.62661 -1.39318 0
M  V30 14036 H 1281.93 -4.48704 1.07063 0
M  V30 14037 H 1280.17 -4.2029 1.07419 0
M  V30 14038 H 1280.84 -5.51898 0.106123 0
M  V30 14039 H 1283.32 -4.01381 -1.09693 0
M  V30 14040 H 1282.19 -5.16039 -1.87068 0
M  V30 14041 H 1282.45 -3.58067 -2.59307 0
M  V30 14042 N 1281.51 0.0200419 -1.57587 0
M  V30 14043 C 1282.76 0.709027 -1.89681 0
M  V30 14044 C 1283.09 1.74876 -0.851396 0
M  V30 14045 O 1282.34 1.95151 0.146483 0
M  V30 14046 C 1282.64 1.40729 -3.28527 0
M  V30 14047 C 1282.31 0.502686 -4.48089 0
M  V30 14048 C 1280.97 0.253558 -4.80532 0
M  V30 14049 C 1283.32 -0.121338 -5.21059 0
M  V30 14050 C 1280.65 -0.628221 -5.83327 0
M  V30 14051 C 1283 -0.990873 -6.24792 0
M  V30 14052 C 1281.67 -1.24937 -6.55703 0
M  V30 14053 H 1280.94 0.259451 -0.694094 0
M  V30 14054 H 1283.58 -0.03118 -1.91475 0
M  V30 14055 H 1281.89 2.22105 -3.22764 0
M  V30 14056 H 1283.58 1.94609 -3.50611 0
M  V30 14057 H 1280.17 0.707018 -4.22728 0
M  V30 14058 H 1284.36 0.0581516 -4.96266 0
M  V30 14059 H 1279.61 -0.836712 -6.05648 0
M  V30 14060 H 1283.79 -1.48087 -6.80473 0
M  V30 14061 H 1281.42 -1.93436 -7.35178 0
M  V30 14062 N 1282.99 1.54862 0.292472 0
M  V30 14063 C 1284.24 1.74548 1.02661 0
M  V30 14064 C 1284.57 0.535895 1.86972 0
M  V30 14065 O 1283.82 -0.482016 1.89671 0
M  V30 14066 C 1284.12 2.99214 1.95463 0
M  V30 14067 C 1283.79 4.32628 1.2706 0
M  V30 14068 C 1282.45 4.68892 1.08138 0
M  V30 14069 C 1284.8 5.15296 0.782278 0
M  V30 14070 C 1282.13 5.85397 0.39081 0
M  V30 14071 C 1284.48 6.32512 0.105392 0
M  V30 14072 C 1283.14 6.67431 -0.0957097 0
M  V30 14073 H 1282.41 0.638717 0.375662 0
M  V30 14074 H 1285.06 1.89125 0.300672 0
M  V30 14075 H 1283.37 2.79454 2.74613 0
M  V30 14076 H 1285.06 3.1164 2.52352 0
M  V30 14077 H 1281.65 4.04113 1.42796 0
M  V30 14078 H 1285.84 4.87771 0.916151 0
M  V30 14079 H 1281.09 6.10989 0.224095 0
M  V30 14080 H 1285.27 6.95833 -0.280845 0
M  V30 14081 H 1282.89 7.57562 -0.63281 0
M  V30 14082 N 1284.47 -0.556076 1.47464 0
M  V30 14083 C 1285.72 -1.3132 1.54147 0
M  V30 14084 C 1286.04 -1.93425 0.204221 0
M  V30 14085 O 1285.3 -1.78467 -0.803002 0
M  V30 14086 C 1285.6 -2.44298 2.6087 0
M  V30 14087 C 1285.26 -2.00016 4.04109 0
M  V30 14088 C 1283.93 -1.87656 4.43101 0
M  V30 14089 C 1286.28 -1.66228 4.93981 0
M  V30 14090 C 1283.61 -1.39805 5.698 0
M  V30 14091 C 1285.96 -1.19848 6.21144 0
M  V30 14092 C 1284.62 -1.06084 6.59016 0
M  V30 14093 H 1283.89 -0.480534 0.564064 0
M  V30 14094 H 1286.54 -0.623449 1.81067 0
M  V30 14095 H 1284.84 -3.18834 2.27711 0
M  V30 14096 H 1286.54 -3.02479 2.63263 0
M  V30 14097 H 1283.13 -2.1058 3.73302 0
M  V30 14098 H 1287.31 -1.7465 4.64555 0
M  V30 14099 H 1282.57 -1.27814 5.97891 0
M  V30 14100 H 1286.74 -0.927657 6.90194 0
M  V30 14101 H 1284.37 -0.687834 7.57082 0
M  V30 14102 N 1285.95 -1.35615 -0.802897 0
M  V30 14103 C 1286.88 -1.31506 -1.92947 0
M  V30 14104 C 1287.86 -0.188843 -1.69048 0
M  V30 14105 O 1289.04 -0.384384 -1.90358 0
M  V30 14106 C 1286.17 -1.09001 -3.29752 0
M  V30 14107 C 1285.13 -2.18303 -3.68141 0
M  V30 14108 C 1284.45 -1.80959 -5.03148 0
M  V30 14109 C 1285.75 -3.60296 -3.78132 0
M  V30 14110 H 1287.45 -2.25771 -1.96642 0
M  V30 14111 H 1284.99 -1.08682 -0.944685 0
M  V30 14112 H 1286.95 -1.04766 -4.08169 0
M  V30 14113 H 1285.67 -0.111832 -3.26408 0
M  V30 14114 H 1284.33 -2.21642 -2.92011 0
M  V30 14115 H 1283.98 -0.817495 -4.96312 0
M  V30 14116 H 1283.68 -2.54129 -5.29804 0
M  V30 14117 H 1285.2 -1.78255 -5.84001 0
M  V30 14118 H 1286.62 -3.59259 -4.46773 0
M  V30 14119 H 1285.01 -4.32258 -4.16261 0
M  V30 14120 H 1286.08 -3.9618 -2.79588 0
M  V30 14121 N 1287.43 1.02549 -1.19673 0
M  V30 14122 C 1288.67 1.76004 -1.00144 0
M  V30 14123 C 1289 1.888 0.467423 0
M  V30 14124 O 1288.26 1.404 1.36331 0
M  V30 14125 C 1288.55 3.18597 -1.61959 0
M  V30 14126 C 1288.22 3.258 -3.11713 0
M  V30 14127 C 1286.88 3.27473 -3.52583 0
M  V30 14128 C 1289.23 3.24675 -4.0772 0
M  V30 14129 C 1286.56 3.25681 -4.88005 0
M  V30 14130 C 1288.91 3.24424 -5.43076 0
M  V30 14131 C 1287.58 3.24396 -5.83372 0
M  V30 14132 H 1286.85 0.644044 -0.366453 0
M  V30 14133 H 1289.5 1.20338 -1.48966 0
M  V30 14134 H 1287.8 3.77364 -1.05375 0
M  V30 14135 H 1289.5 3.74109 -1.44374 0
M  V30 14136 H 1286.09 3.25228 -2.7915 0
M  V30 14137 H 1290.27 3.2256 -3.77185 0
M  V30 14138 H 1285.53 3.23986 -5.18501 0
M  V30 14139 H 1289.7 3.22504 -6.17223 0
M  V30 14140 H 1287.33 3.22762 -6.8828 0
M  V30 14141 N 1288.9 1.00119 1.21713 0
M  V30 14142 C 1289.83 0.578504 2.2622 0
M  V30 14143 C 1290.81 -0.398777 1.6536 0
M  V30 14144 O 1292 -0.287596 1.92059 0
M  V30 14145 C 1289.13 -0.0994508 3.47158 0
M  V30 14146 C 1288.08 0.79722 4.2051 0
M  V30 14147 C 1287.41 -0.0141125 5.34698 0
M  V30 14148 C 1288.71 2.09802 4.7831 0
M  V30 14149 H 1290.4 1.45208 2.6183 0
M  V30 14150 H 1287.95 0.699656 1.2586 0
M  V30 14151 H 1289.9 -0.406605 4.19434 0
M  V30 14152 H 1288.63 -1.00763 3.10667 0
M  V30 14153 H 1287.29 1.08814 3.50079 0
M  V30 14154 H 1286.93 -0.923468 4.9445 0
M  V30 14155 H 1286.63 0.582883 5.84702 0
M  V30 14156 H 1288.16 -0.31517 6.09786 0
M  V30 14157 H 1289.57 1.85427 5.42485 0
M  V30 14158 H 1287.97 2.64455 5.38687 0
M  V30 14159 H 1289.04 2.77132 3.97902 0
M  V30 14160 N 1290.38 -1.37203 0.775435 0
M  V30 14161 C 1291.63 -1.99601 0.341431 0
M  V30 14162 C 1291.96 -1.61555 -1.08306 0
M  V30 14163 O 1291.21 -0.855126 -1.76029 0
M  V30 14164 C 1291.51 -3.54725 0.436426 0
M  V30 14165 C 1291.18 -4.1255 1.8197 0
M  V30 14166 C 1289.84 -4.28056 2.19822 0
M  V30 14167 C 1292.19 -4.44222 2.7261 0
M  V30 14168 C 1289.52 -4.72538 3.47742 0
M  V30 14169 C 1291.87 -4.90131 3.99943 0
M  V30 14170 C 1290.53 -5.03842 4.37835 0
M  V30 14171 H 1289.8 -0.730391 0.124938 0
M  V30 14172 H 1292.45 -1.63914 0.990177 0
M  V30 14173 H 1290.76 -3.90681 -0.295852 0
M  V30 14174 H 1292.45 -4.00916 0.0818664 0
M  V30 14175 H 1289.04 -4.00911 1.51553 0
M  V30 14176 H 1293.23 -4.31824 2.44625 0
M  V30 14177 H 1288.48 -4.81341 3.76989 0
M  V30 14178 H 1292.66 -5.13604 4.70302 0
M  V30 14179 H 1290.28 -5.3807 5.37015 0
M  V30 14180 N 1291.86 -0.526279 -1.48553 0
M  V30 14181 C 1292.82 0.227739 -2.28066 0
M  V30 14182 C 1293.82 0.871146 -1.35158 0
M  V30 14183 O 1295.01 0.731769 -1.58085 0
M  V30 14184 C 1292.14 1.32918 -3.1392 0
M  V30 14185 H 1293.34 -0.470313 -2.96189 0
M  V30 14186 H 1290.89 -0.282089 -1.53733 0
M  V30 14187 H 1291.63 2.0606 -2.50419 0
M  V30 14188 H 1291.41 0.872991 -3.82258 0
M  V30 14189 H 1292.9 1.85964 -3.73908 0
M  V30 14190 N 1293.34 1.5542 -0.261239 0
M  V30 14191 C 1294.58 1.99579 0.36002 0
M  V30 14192 C 1294.92 1.14933 1.56538 0
M  V30 14193 O 1294.19 0.216082 1.93296 0
M  V30 14194 C 1294.47 3.52078 0.755842 0
M  V30 14195 C 1294.33 4.47484 -0.455896 0
M  V30 14196 C 1295.65 4.10083 1.5975 0
M  V30 14197 H 1292.77 0.725554 0.129385 0
M  V30 14198 H 1295.41 1.86453 -0.365415 0
M  V30 14199 H 1293.56 3.63394 1.37393 0
M  V30 14200 H 1295.23 4.4813 -1.09441 0
M  V30 14201 H 1293.47 4.19714 -1.09646 0
M  V30 14202 H 1294.14 5.51834 -0.13539 0
M  V30 14203 H 1296.62 4.01957 1.07562 0
M  V30 14204 H 1295.5 5.17024 1.84329 0
M  V30 14205 H 1295.76 3.59438 2.57404 0
M  V30 14206 N 1294.82 -0.0116844 1.57596 0
M  V30 14207 C 1296.06 -0.694423 1.91179 0
M  V30 14208 C 1296.42 -1.72025 0.861703 0
M  V30 14209 O 1295.71 -1.91175 -0.127545 0
M  V30 14210 C 1295.9 -1.38985 3.29269 0
M  V30 14211 C 1295.73 -0.432902 4.47611 0
M  V30 14212 C 1294.5 -0.0475684 5.05278 0
M  V30 14213 C 1296.7 0.296001 5.13447 0
M  V30 14214 N 1294.68 0.908817 6.07136 0
M  V30 14215 C 1296.05 1.10746 6.10029 0
M  V30 14216 C 1298.11 0.361088 4.96589 0
M  V30 14217 C 1296.81 1.97805 6.91568 0
M  V30 14218 C 1298.84 1.21887 5.78703 0
M  V30 14219 C 1298.2 2.0182 6.74869 0
M  V30 14220 H 1294.3 -0.227668 0.748125 0
M  V30 14221 H 1296.88 0.0459176 1.94646 0
M  V30 14222 H 1295.05 -2.10055 3.26698 0
M  V30 14223 H 1296.79 -2.02636 3.50315 0
M  V30 14224 H 1293.54 -0.413466 4.71792 0
M  V30 14225 H 1293.96 1.38203 6.62743 0
M  V30 14226 H 1298.61 -0.242613 4.22103 0
M  V30 14227 H 1296.32 2.59248 7.65386 0
M  V30 14228 H 1299.91 1.27299 5.67703 0
M  V30 14229 H 1298.79 2.67121 7.37303 0
M  V30 14230 N 1296.29 -1.55015 -0.284256 0
M  V30 14231 C 1297.23 -1.82031 -1.37623 0
M  V30 14232 C 1298.2 -0.672564 -1.48038 0
M  V30 14233 O 1299.39 -0.914349 -1.64839 0
M  V30 14234 C 1296.52 -1.97193 -2.75377 0
M  V30 14235 C 1295.56 -3.19699 -2.82303 0
M  V30 14236 S 1296.39 -4.77348 -2.42691 0
M  V30 14237 C 1297.55 -4.95468 -3.82442 0
M  V30 14238 H 1297.78 -2.74366 -1.14502 0
M  V30 14239 H 1295.32 -1.46642 -0.483283 0
M  V30 14240 H 1297.27 -2.06614 -3.54713 0
M  V30 14241 H 1295.94 -1.05766 -2.95757 0
M  V30 14242 H 1295.13 -3.27161 -3.83382 0
M  V30 14243 H 1294.73 -3.08811 -2.10978 0
M  V30 14244 H 1297.02 -4.80519 -4.77606 0
M  V30 14245 H 1297.97 -5.97538 -3.7994 0
M  V30 14246 H 1298.37 -4.23516 -3.73222 0
M  V30 14247 N 1297.77 0.548248 -1.47757 0
M  V30 14248 C 1299.02 1.30694 -1.55071 0
M  V30 14249 C 1299.35 1.92994 -0.216075 0
M  V30 14250 O 1298.63 1.78341 0.776196 0
M  V30 14251 C 1298.91 2.41024 -2.67543 0
M  V30 14252 C 1298.76 1.83534 -4.10652 0
M  V30 14253 C 1300.08 3.42902 -2.75874 0
M  V30 14254 H 1297.2 0.47383 -0.564494 0
M  V30 14255 H 1299.84 0.612628 -1.79852 0
M  V30 14256 H 1297.99 3.00248 -2.46543 0
M  V30 14257 H 1299.66 1.28503 -4.4304 0
M  V30 14258 H 1297.91 1.14161 -4.18509 0
M  V30 14259 H 1298.58 2.63335 -4.85138 0
M  V30 14260 H 1301.05 2.9361 -2.94843 0
M  V30 14261 H 1299.93 4.17516 -3.5633 0
M  V30 14262 H 1300.19 4.02314 -1.83291 0
M  V30 14263 N 1299.25 1.36039 0.795694 0
M  V30 14264 C 1300.21 1.29709 1.88966 0
M  V30 14265 C 1301.21 0.206142 1.59473 0
M  V30 14266 O 1302.4 0.460534 1.68002 0
M  V30 14267 C 1299.53 1.00922 3.25619 0
M  V30 14268 H 1300.73 2.26993 1.95995 0
M  V30 14269 H 1298.28 1.2072 0.992791 0
M  V30 14270 H 1299.02 0.0407027 3.24274 0
M  V30 14271 H 1298.8 1.79863 3.48413 0
M  V30 14272 H 1300.29 0.990826 4.05675 0
M  V30 14273 N 1300.73 -1.01913 1.20215 0
M  V30 14274 C 1301.98 -1.7547 1.01076 0
M  V30 14275 C 1302.3 -1.89045 -0.457404 0
M  V30 14276 O 1301.56 -1.41121 -1.35585 0
M  V30 14277 C 1301.86 -3.17734 1.63646 0
M  V30 14278 C 1301.52 -3.24143 3.13436 0
M  V30 14279 C 1300.19 -3.25599 3.54315 0
M  V30 14280 C 1302.54 -3.22508 4.09436 0
M  V30 14281 C 1299.87 -3.23089 4.89725 0
M  V30 14282 C 1302.22 -3.21539 5.44789 0
M  V30 14283 C 1300.88 -3.21298 5.85085 0
M  V30 14284 H 1300.15 -0.642092 0.369864 0
M  V30 14285 H 1302.8 -1.19547 1.49602 0
M  V30 14286 H 1301.1 -3.76799 1.07375 0
M  V30 14287 H 1302.8 -3.73338 1.46356 0
M  V30 14288 H 1299.39 -3.23743 2.80871 0
M  V30 14289 H 1303.57 -3.20555 3.7889 0
M  V30 14290 H 1298.83 -3.21231 5.20212 0
M  V30 14291 H 1303 -3.19226 6.18924 0
M  V30 14292 H 1300.63 -3.19107 6.89982 0
M  V30 14293 N 1302.21 -1.00763 -1.2118 0
M  V30 14294 C 1303.45 -0.690459 -1.8994 0
M  V30 14295 C 1303.78 0.781464 -1.78656 0
M  V30 14296 O 1303.05 1.56135 -1.18316 0
M  V30 14297 H 1301.63 -0.252397 -0.703068 0
M  V30 14298 H 1304.29 -1.2773 -1.47211 0
M  V30 14299 H 1303.38 -0.96594 -2.96776 0
M  V30 14300 N 1303.68 1.3679 -0.7827 0
M  V30 14301 C 1304.93 1.99712 -0.352533 0
M  V30 14302 C 1305.26 1.61984 1.0712 0
M  V30 14303 O 1304.54 0.871342 1.7389 0
M  V30 14304 C 1304.82 3.5649 -0.508628 0
M  V30 14305 C 1304.67 4.04093 -1.97557 0
M  V30 14306 C 1305.99 4.40026 0.0804447 0
M  V30 14307 H 1303.11 0.725522 -0.129566 0
M  V30 14308 H 1305.75 1.62305 -0.987788 0
M  V30 14309 H 1303.9 3.88487 0.0321664 0
M  V30 14310 H 1305.58 3.82613 -2.57691 0
M  V30 14311 H 1303.82 3.55881 -2.48055 0
M  V30 14312 H 1304.49 5.13088 -2.03579 0
M  V30 14313 H 1306.97 4.14351 -0.381113 0
M  V30 14314 H 1305.84 5.48868 -0.0588424 0
M  V30 14315 H 1306.1 4.26285 1.17189 0
M  V30 14316 N 1305.16 0.53415 1.48272 0
M  V30 14317 C 1306.13 -0.215641 2.28183 0
M  V30 14318 C 1307.13 -0.863966 1.35618 0
M  V30 14319 O 1308.32 -0.723375 1.58471 0
M  V30 14320 C 1305.45 -1.31251 3.1462 0
M  V30 14321 H 1306.64 0.486014 2.95936 0
M  V30 14322 H 1304.19 0.290237 1.53582 0
M  V30 14323 H 1304.93 -2.04729 2.51508 0
M  V30 14324 H 1304.71 -0.852706 3.82716 0
M  V30 14325 H 1306.2 -1.83978 3.74889 0
M  V30 14326 N 1306.64 -1.55279 0.269478 0
M  V30 14327 C 1308.06 -1.59374 -0.0848147 0
M  V30 14328 C 1308.26 -1.2867 -1.55068 0
M  V30 14329 O 1307.31 -1.04486 -2.29867 0
M  V30 14330 C 1308.63 -2.99349 0.284735 0
M  V30 14331 C 1310.17 -3.12147 0.230887 0
M  V30 14332 C 1310.65 -4.54379 0.574795 0
M  V30 14333 N 1312.14 -4.60202 0.526136 0
M  V30 14334 C 1312.87 -5.68273 0.765109 0
M  V30 14335 N 1312.37 -6.84512 1.0684 0
M  V30 14336 N 1314.16 -5.57796 0.694287 0
M  V30 14337 H 1306.31 -1.73503 1.22517 0
M  V30 14338 H 1308.58 -0.808771 0.494564 0
M  V30 14339 H 1308.28 -3.26633 1.30398 0
M  V30 14340 H 1308.16 -3.75309 -0.377199 0
M  V30 14341 H 1310.54 -2.84631 -0.779064 0
M  V30 14342 H 1310.63 -2.38412 0.926998 0
M  V30 14343 H 1310.27 -4.8262 1.58241 0
M  V30 14344 H 1310.2 -5.26406 -0.143044 0
M  V30 14345 H 1312.69 -3.76696 0.301368 0
M  V30 14346 H 1313 -7.62826 1.23757 0
M  V30 14347 H 1311.35 -6.86141 1.10612 0
M  V30 14348 H 1314.54 -4.65862 0.457226 0
M  V30 14349 H 1314.71 -6.41943 0.883913 0
M  V30 14350 N 1308.12 0.00332656 -1.576 0
M  V30 14351 C 1309.05 1.02391 -2.05058 0
M  V30 14352 C 1310.06 1.30903 -0.967901 0
M  V30 14353 O 1311.25 1.27937 -1.24476 0
M  V30 14354 C 1308.35 2.35947 -2.43274 0
M  V30 14355 C 1307.53 2.26423 -3.74234 0
M  V30 14356 C 1306.58 3.4264 -3.99355 0
M  V30 14357 O 1305.61 3.20977 -4.70067 0
M  V30 14358 N 1306.81 4.65379 -3.46991 0
M  V30 14359 H 1309.58 0.619216 -2.93233 0
M  V30 14360 H 1307.14 0.190777 -1.60772 0
M  V30 14361 H 1309.13 3.12462 -2.57196 0
M  V30 14362 H 1307.7 2.6817 -1.60635 0
M  V30 14363 H 1306.92 1.34841 -3.70421 0
M  V30 14364 H 1308.21 2.17229 -4.60097 0
M  V30 14365 H 1307.61 4.85878 -2.89723 0
M  V30 14366 H 1306.16 5.39171 -3.66249 0
M  V30 14367 N 1309.6 1.55164 0.276031 0
M  V30 14368 C 1310.84 1.7528 1.00604 0
M  V30 14369 C 1311.17 0.555256 1.86928 0
M  V30 14370 O 1310.44 -0.429917 1.91124 0
M  V30 14371 H 1309.02 0.646377 0.374441 0
M  V30 14372 H 1311.68 1.92562 0.300992 0
M  V30 14373 H 1310.77 2.65245 1.64473 0
M  V30 14374 N 1311.07 -0.540404 1.48045 0
M  V30 14375 C 1312.32 -1.2932 1.54787 0
M  V30 14376 C 1312.64 -1.94335 0.222109 0
M  V30 14377 O 1313.84 -2.70982 0.167675 0
M  V30 14378 C 1312.3 -2.34594 2.72935 0
M  V30 14379 C 1311.91 -1.75696 4.1211 0
M  V30 14380 C 1313.65 -3.10949 2.88982 0
M  V30 14381 C 1311.56 -2.78849 5.21534 0
M  V30 14382 H 1310.49 -0.486315 0.576206 0
M  V30 14383 H 1313.14 -0.571998 1.74357 0
M  V30 14384 H 1311.52 -3.09704 2.46778 0
M  V30 14385 H 1312.69 -1.06845 4.48242 0
M  V30 14386 H 1311.01 -1.11869 4.01091 0
M  V30 14387 H 1313.61 -3.88012 3.679 0
M  V30 14388 H 1313.95 -3.66173 1.98048 0
M  V30 14389 H 1314.48 -2.42953 3.1499 0
M  V30 14390 H 1311.22 -2.28459 6.144 0
M  V30 14391 H 1310.74 -3.46059 4.89901 0
M  V30 14392 H 1312.42 -3.4203 5.49203 0
M  V30 14393 N 1312.55 -1.36459 -0.788468 0
M  V30 14394 C 1313.48 -1.33545 -1.91541 0
M  V30 14395 C 1314.46 -0.206762 -1.68839 0
M  V30 14396 O 1315.65 -0.404553 -1.89939 0
M  V30 14397 C 1312.78 -1.12492 -3.28577 0
M  V30 14398 C 1311.73 -2.22196 -3.65805 0
M  V30 14399 C 1311.06 -1.86285 -5.01201 0
M  V30 14400 C 1312.36 -3.64286 -3.7429 0
M  V30 14401 H 1314.05 -2.27844 -1.94236 0
M  V30 14402 H 1311.6 -1.09677 -0.933105 0
M  V30 14403 H 1313.55 -1.09089 -4.07035 0
M  V30 14404 H 1312.28 -0.146446 -3.26272 0
M  V30 14405 H 1310.93 -2.24727 -2.89644 0
M  V30 14406 H 1310.58 -0.87009 -4.95417 0
M  V30 14407 H 1310.28 -2.59734 -5.27079 0
M  V30 14408 H 1311.81 -1.84439 -5.82078 0
M  V30 14409 H 1313.22 -3.63977 -4.42937 0
M  V30 14410 H 1311.62 -4.36648 -4.11653 0
M  V30 14411 H 1312.69 -3.99123 -2.75371 0
M  V30 14412 N 1314.03 1.01274 -1.20754 0
M  V30 14413 C 1315.45 1.27256 -0.963221 0
M  V30 14414 C 1315.65 1.98349 0.354972 0
M  V30 14415 O 1314.7 2.28116 1.08255 0
M  V30 14416 C 1316.02 2.1038 -2.14851 0
M  V30 14417 C 1317.56 2.23633 -2.18991 0
M  V30 14418 C 1318.04 3.10136 -3.37016 0
M  V30 14419 N 1319.53 3.17724 -3.37054 0
M  V30 14420 C 1320.26 3.84891 -4.25025 0
M  V30 14421 N 1319.76 4.54152 -5.23181 0
M  V30 14422 N 1321.55 3.81454 -4.12855 0
M  V30 14423 H 1313.7 0.535534 -2.05538 0
M  V30 14424 H 1315.97 0.299006 -0.899611 0
M  V30 14425 H 1315.67 1.65484 -3.10335 0
M  V30 14426 H 1315.55 3.11122 -2.13267 0
M  V30 14427 H 1317.93 2.67753 -1.24067 0
M  V30 14428 H 1318.02 1.22387 -2.24622 0
M  V30 14429 H 1317.66 2.66721 -4.32229 0
M  V30 14430 H 1317.59 4.11478 -3.28623 0
M  V30 14431 H 1320.08 2.68412 -2.66014 0
M  V30 14432 H 1320.39 5.03084 -5.86623 0
M  V30 14433 H 1318.74 4.52964 -5.27113 0
M  V30 14434 H 1321.93 3.26494 -3.35439 0
M  V30 14435 H 1322.1 4.33523 -4.81624 0
M  V30 14436 N 1315.51 1.01404 1.20644 0
M  V30 14437 C 1316.44 0.540288 2.22741 0
M  V30 14438 C 1317.45 -0.375953 1.584 0
M  V30 14439 O 1318.64 -0.174708 1.77643 0
M  V30 14440 C 1315.74 -0.233766 3.38093 0
M  V30 14441 C 1314.92 0.683759 4.32023 0
M  V30 14442 C 1313.98 -0.0422681 5.26183 0
M  V30 14443 O 1313 0.579392 5.66243 0
M  V30 14444 N 1314.2 -1.31794 5.65341 0
M  V30 14445 H 1316.97 1.41831 2.64015 0
M  V30 14446 H 1314.53 0.891265 1.35159 0
M  V30 14447 H 1316.52 -0.728645 3.98087 0
M  V30 14448 H 1315.09 -1.01306 2.9573 0
M  V30 14449 H 1314.31 1.35899 3.70034 0
M  V30 14450 H 1315.6 1.30786 4.91704 0
M  V30 14451 H 1315 -1.84399 5.34802 0
M  V30 14452 H 1313.55 -1.7576 6.27656 0
M  V30 14453 N 1316.99 -1.36373 0.789944 0
M  V30 14454 C 1317.94 -2.31928 0.17666 0
M  V30 14455 C 1318.93 -1.55831 -0.664316 0
M  V30 14456 O 1320.14 -1.71089 -0.559341 0
M  V30 14457 H 1316.51 -0.751021 0.038353 0
M  V30 14458 H 1318.48 -2.81216 0.998004 0
M  V30 14459 C 1317.23 -3.41112 -0.673646 0
M  V30 14460 H 1316.55 -3.99784 -0.0358875 0
M  V30 14461 H 1317.99 -4.10292 -1.06942 0
M  V30 14462 C 1316.45 -2.82728 -1.83211 0
M  V30 14463 O 1316.98 -2.74935 -2.92871 0
M  V30 14464 N 1315.19 -2.4001 -1.6384 0
M  V30 14465 H 1314.74 -2.46549 -0.746423 0
M  V30 14466 H 1314.69 -2.01294 -2.41512 0
M  V30 14467 N 1318.47 -0.542005 -1.47987 0
M  V30 14468 C 1319.38 0.217677 -2.33588 0
M  V30 14469 C 1320.39 0.927093 -1.47245 0
M  V30 14470 O 1321.57 0.899378 -1.80203 0
M  V30 14471 C 1318.63 1.24376 -3.23622 0
M  V30 14472 C 1317.69 0.543407 -4.25847 0
M  V30 14473 C 1316.93 1.5206 -5.11579 0
M  V30 14474 O 1317.15 2.75425 -4.99497 0
M  V30 14475 O 1316.08 1.05341 -5.9261 0
M  V30 14476 H 1319.91 -0.484089 -2.99817 0
M  V30 14477 H 1317.49 -0.302783 -1.463 0
M  V30 14478 H 1319.38 1.83644 -3.7928 0
M  V30 14479 H 1318.05 1.92772 -2.6004 0
M  V30 14480 H 1316.96 -0.090074 -3.73992 0
M  V30 14481 H 1318.29 -0.0988264 -4.92101 0
M  V30 14482 N 1319.94 1.55134 -0.277709 0
M  V30 14483 C 1320.88 2.20028 0.641913 0
M  V30 14484 C 1321.89 1.18578 1.11549 0
M  V30 14485 O 1323.08 1.45291 1.03695 0
M  V30 14486 C 1320.18 2.81443 1.88794 0
M  V30 14487 C 1319.35 4.08607 1.56074 0
M  V30 14488 C 1318.41 4.54045 2.6595 0
M  V30 14489 O 1317.44 5.19762 2.32026 0
M  V30 14490 N 1318.64 4.24403 3.96058 0
M  V30 14491 H 1321.4 2.99575 0.0864929 0
M  V30 14492 H 1318.96 1.61598 -0.0989178 0
M  V30 14493 H 1320.96 3.08784 2.616 0
M  V30 14494 H 1319.53 2.05873 2.35234 0
M  V30 14495 H 1318.75 3.88527 0.666388 0
M  V30 14496 H 1320.03 4.91455 1.31719 0
M  V30 14497 H 1319.43 3.71708 4.26439 0
M  V30 14498 H 1317.99 4.56509 4.65234 0
M  V30 14499 N 1321.42 0.00503138 1.57599 0
M  V30 14500 C 1322.84 -0.351109 1.5569 0
M  V30 14501 C 1323.04 -1.74465 1.00818 0
M  V30 14502 O 1322.09 -2.44144 0.64422 0
M  V30 14503 C 1323.41 -0.221738 2.99881 0
M  V30 14504 C 1324.95 -0.296303 3.11594 0
M  V30 14505 C 1325.43 -0.195998 4.5758 0
M  V30 14506 N 1326.92 -0.253741 4.62504 0
M  V30 14507 C 1327.66 -0.199546 5.73053 0
M  V30 14508 N 1327.15 -0.0956553 6.92734 0
M  V30 14509 N 1328.94 -0.251779 5.61536 0
M  V30 14510 H 1321.1 0.916578 1.91605 0
M  V30 14511 H 1323.36 0.351802 0.880306 0
M  V30 14512 H 1323.06 0.737255 3.43886 0
M  V30 14513 H 1322.94 -1.00178 3.63654 0
M  V30 14514 H 1325.33 -1.24574 2.67517 0
M  V30 14515 H 1325.41 0.513692 2.50589 0
M  V30 14516 H 1325.05 0.749918 5.02333 0
M  V30 14517 H 1324.98 -1.02455 5.16537 0
M  V30 14518 H 1327.47 -0.335163 3.76411 0
M  V30 14519 H 1327.78 -0.0603357 7.72776 0
M  V30 14520 H 1326.13 -0.0612113 6.94973 0
M  V30 14521 H 1329.32 -0.331173 4.66927 0
M  V30 14522 H 1329.49 -0.206078 6.47672 0
M  V30 14523 N 1322.9 -1.55308 -0.267798 0
M  V30 14524 C 1324.15 -1.77342 -0.99606 0
M  V30 14525 C 1324.5 -0.570502 -1.83747 0
M  V30 14526 O 1323.79 0.436721 -1.86556 0
M  V30 14527 C 1323.99 -3.02286 -1.90678 0
M  V30 14528 C 1323.82 -4.34614 -1.15501 0
M  V30 14529 C 1322.59 -4.97779 -0.868576 0
M  V30 14530 C 1324.78 -5.11427 -0.542865 0
M  V30 14531 N 1322.77 -6.13833 -0.0905541 0
M  V30 14532 C 1324.14 -6.19918 0.100738 0
M  V30 14533 C 1326.19 -4.95851 -0.45123 0
M  V30 14534 C 1324.9 -7.14528 0.827151 0
M  V30 14535 C 1326.92 -5.90821 0.261602 0
M  V30 14536 C 1326.28 -6.98705 0.893924 0
M  V30 14537 H 1322.38 -0.701146 -0.346292 0
M  V30 14538 H 1324.97 -1.92802 -0.271211 0
M  V30 14539 H 1323.14 -2.88192 -2.60384 0
M  V30 14540 H 1324.87 -3.12702 -2.56904 0
M  V30 14541 H 1321.62 -4.58789 -1.17515 0
M  V30 14542 H 1322.05 -6.76396 0.28594 0
M  V30 14543 H 1326.69 -4.1254 -0.925774 0
M  V30 14544 H 1324.41 -7.97356 1.31336 0
M  V30 14545 H 1327.99 -5.80847 0.332892 0
M  V30 14546 H 1326.87 -7.70927 1.43672 0
M  V30 14547 N 1324.38 0.532545 -1.4833 0
M  V30 14548 C 1325.79 0.860843 -1.34394 0
M  V30 14549 C 1325.99 1.98384 -0.353013 0
M  V30 14550 O 1325.05 2.5148 0.226688 0
M  V30 14551 C 1326.36 1.23079 -2.74358 0
M  V30 14552 C 1327.91 1.34082 -2.82827 0
M  V30 14553 C 1328.39 1.74421 -4.23487 0
M  V30 14554 N 1329.88 1.81528 -4.26148 0
M  V30 14555 C 1330.61 2.1412 -5.31921 0
M  V30 14556 N 1330.11 2.45154 -6.47975 0
M  V30 14557 N 1331.9 2.15104 -5.19314 0
M  V30 14558 H 1324.05 -0.208464 -2.11375 0
M  V30 14559 H 1326.31 -0.03062 -0.947505 0
M  V30 14560 H 1326.02 0.47926 -3.48419 0
M  V30 14561 H 1325.89 2.18151 -3.07718 0
M  V30 14562 H 1328.28 2.08311 -2.09022 0
M  V30 14563 H 1328.36 0.37137 -2.5309 0
M  V30 14564 H 1328.01 1.00752 -4.97807 0
M  V30 14565 H 1327.94 2.72411 -4.50666 0
M  V30 14566 H 1330.43 1.59832 -3.42436 0
M  V30 14567 H 1330.74 2.69121 -7.24426 0
M  V30 14568 H 1329.09 2.42679 -6.51254 0
M  V30 14569 H 1332.28 1.90315 -4.27666 0
M  V30 14570 H 1332.45 2.40173 -6.01848 0
M  V30 14571 N 1325.86 1.36875 0.78122 0
M  V30 14572 C 1327.1 1.32761 1.54097 0
M  V30 14573 C 1327.46 -0.0900914 1.92189 0
M  V30 14574 O 1326.75 -1.04655 1.60492 0
M  V30 14575 C 1326.94 2.19173 2.82309 0
M  V30 14576 C 1326.77 3.69203 2.56747 0
M  V30 14577 C 1325.54 4.38349 2.51353 0
M  V30 14578 C 1327.74 4.62283 2.25386 0
M  V30 14579 N 1325.72 5.73974 2.17776 0
M  V30 14580 C 1327.09 5.86216 2.01867 0
M  V30 14581 C 1329.15 4.50764 2.11462 0
M  V30 14582 C 1327.85 6.99923 1.65832 0
M  V30 14583 C 1329.88 5.64346 1.76825 0
M  V30 14584 C 1329.24 6.87324 1.5416 0
M  V30 14585 H 1325.34 0.541089 0.564577 0
M  V30 14586 H 1327.92 1.72006 0.912249 0
M  V30 14587 H 1326.09 1.82159 3.43034 0
M  V30 14588 H 1327.83 2.06388 3.48118 0
M  V30 14589 H 1324.58 3.91243 2.66882 0
M  V30 14590 H 1325 6.45624 2.03711 0
M  V30 14591 H 1329.65 3.56266 2.27672 0
M  V30 14592 H 1327.36 7.94364 1.4836 0
M  V30 14593 H 1330.95 5.574 1.66723 0
M  V30 14594 H 1329.83 7.73724 1.27753 0
M  V30 14595 N 1327.33 -1.00632 1.21289 0
M  V30 14596 C 1328.58 -1.73802 1.02351 0
M  V30 14597 C 1328.9 -1.90503 -0.443611 0
M  V30 14598 O 1330.1 -2.60868 -0.752356 0
M  V30 14599 C 1328.56 -3.12647 1.78269 0
M  V30 14600 C 1328.17 -3.03923 3.29142 0
M  V30 14601 C 1329.91 -3.89956 1.67735 0
M  V30 14602 C 1327.82 -4.3784 3.97556 0
M  V30 14603 H 1326.75 -0.651616 0.379358 0
M  V30 14604 H 1329.4 -1.12446 1.45011 0
M  V30 14605 H 1327.78 -3.74605 1.28401 0
M  V30 14606 H 1328.95 -2.51211 3.86303 0
M  V30 14607 H 1327.27 -2.40103 3.40205 0
M  V30 14608 H 1329.87 -4.89051 2.1618 0
M  V30 14609 H 1330.21 -4.11423 0.635338 0
M  V30 14610 H 1330.74 -3.34647 2.15072 0
M  V30 14611 H 1327.48 -4.21573 5.01952 0
M  V30 14612 H 1327 -4.90518 3.45184 0
M  V30 14613 H 1328.68 -5.06644 4.02393 0
M  V30 14614 N 1328.81 -1.02043 -1.20104 0
M  V30 14615 C 1330.06 -0.711973 -1.89571 0
M  V30 14616 C 1330.39 0.758725 -1.79091 0
M  V30 14617 O 1329.64 1.56728 -1.17195 0
M  V30 14618 C 1329.94 -1.098 -3.40116 0
M  V30 14619 C 1329.61 -2.56555 -3.70797 0
M  V30 14620 C 1328.27 -2.96653 -3.78881 0
M  V30 14621 C 1330.62 -3.51543 -3.84795 0
M  V30 14622 C 1327.95 -4.30669 -3.98424 0
M  V30 14623 C 1330.3 -4.85252 -4.05849 0
M  V30 14624 C 1328.96 -5.2505 -4.12163 0
M  V30 14625 H 1328.23 -0.260529 -0.69369 0
M  V30 14626 H 1330.88 -1.28172 -1.42282 0
M  V30 14627 H 1329.19 -0.446738 -3.89245 0
M  V30 14628 H 1330.88 -0.836985 -3.92168 0
M  V30 14629 H 1327.47 -2.24488 -3.65107 0
M  V30 14630 H 1331.66 -3.21721 -3.77901 0
M  V30 14631 H 1326.91 -4.61052 -4.01548 0
M  V30 14632 H 1331.09 -5.58777 -4.15622 0
M  V30 14633 H 1328.71 -6.28908 -4.27059 0
M  V30 14634 N 1330.29 1.35952 -0.797165 0
M  V30 14635 C 1331.71 1.52218 -0.479765 0
M  V30 14636 C 1331.91 1.74898 1.00064 0
M  V30 14637 O 1330.96 1.78495 1.78594 0
M  V30 14638 C 1332.28 2.70328 -1.31694 0
M  V30 14639 C 1333.82 2.84202 -1.31142 0
M  V30 14640 C 1334.3 4.05325 -2.13251 0
M  V30 14641 N 1335.79 4.12485 -2.10737 0
M  V30 14642 C 1336.52 5.053 -2.71033 0
M  V30 14643 N 1336.02 6.03509 -3.40219 0
M  V30 14644 N 1337.81 4.97975 -2.60725 0
M  V30 14645 H 1329.96 1.19486 -1.75604 0
M  V30 14646 H 1332.23 0.58383 -0.746892 0
M  V30 14647 H 1331.93 2.60116 -2.36712 0
M  V30 14648 H 1331.81 3.64684 -0.963607 0
M  V30 14649 H 1334.19 2.9387 -0.269131 0
M  V30 14650 H 1334.28 1.9073 -1.70457 0
M  V30 14651 H 1333.92 3.96417 -3.17515 0
M  V30 14652 H 1333.85 4.97959 -1.71302 0
M  V30 14653 H 1336.34 3.42174 -1.6039 0
M  V30 14654 H 1336.65 6.70909 -3.83537 0
M  V30 14655 H 1335 6.03711 -3.44322 0
M  V30 14656 H 1338.19 4.20203 -2.0627 0
M  V30 14657 H 1338.36 5.70119 -3.08007 0
M  V30 14658 N 1331.77 0.549846 1.47697 0
M  V30 14659 C 1332.99 0.0256819 2.07384 0
M  V30 14660 C 1333.42 -1.25525 1.4009 0
M  V30 14661 O 1332.78 -1.7501 0.473406 0
M  V30 14662 C 1332.82 -0.160835 3.60241 0
M  V30 14663 O 1331.93 -1.22509 3.93783 0
M  V30 14664 H 1331.27 0.0480204 0.662261 0
M  V30 14665 H 1333.8 0.763429 1.89823 0
M  V30 14666 H 1333.81 -0.377337 4.06251 0
M  V30 14667 H 1332.48 0.774774 4.0862 0
M  V30 14668 H 1331.06 -0.98967 3.59527 0
M  V30 14669 N 1333.25 -1.54984 0.285932 0
M  V30 14670 C 1334.49 -2.00126 -0.328223 0
M  V30 14671 C 1334.83 -1.17409 -1.54689 0
M  V30 14672 O 1334.1 -0.246806 -1.92928 0
M  V30 14673 C 1334.38 -3.53236 -0.699733 0
M  V30 14674 C 1334.24 -4.46702 0.527029 0
M  V30 14675 C 1335.56 -4.12572 -1.53206 0
M  V30 14676 H 1332.67 -0.727521 -0.117825 0
M  V30 14677 H 1335.32 -1.85848 0.395032 0
M  V30 14678 H 1333.47 -3.65534 -1.31594 0
M  V30 14679 H 1335.14 -4.46332 1.16557 0
M  V30 14680 H 1333.38 -4.17917 1.1631 0
M  V30 14681 H 1334.05 -5.51549 0.223165 0
M  V30 14682 H 1336.53 -4.03618 -1.01154 0
M  V30 14683 H 1335.4 -5.19891 -1.7608 0
M  V30 14684 H 1335.67 -3.63487 -2.51654 0
M  V30 14685 N 1334.72 -0.0133892 -1.57594 0
M  V30 14686 C 1335.97 0.667896 -1.90321 0
M  V30 14687 C 1336.29 1.74187 -0.88984 0
M  V30 14688 O 1337.49 2.47871 -1.10779 0
M  V30 14689 C 1335.95 1.23917 -3.37894 0
M  V30 14690 C 1335.56 0.199313 -4.47556 0
M  V30 14691 C 1337.3 1.89788 -3.79712 0
M  V30 14692 C 1335.21 0.781339 -5.86216 0
M  V30 14693 H 1334.14 0.253229 -0.710205 0
M  V30 14694 H 1336.79 -0.0761229 -1.83342 0
M  V30 14695 H 1335.17 2.03429 -3.39754 0
M  V30 14696 H 1336.34 -0.572196 -4.57234 0
M  V30 14697 H 1334.66 -0.359719 -4.14843 0
M  V30 14698 H 1337.26 2.34262 -4.80651 0
M  V30 14699 H 1337.6 2.73406 -3.13934 0
M  V30 14700 H 1338.13 1.16989 -3.80208 0
M  V30 14701 H 1334.87 -0.0163598 -6.55498 0
M  V30 14702 H 1334.39 1.5217 -5.80176 0
M  V30 14703 H 1336.07 1.2759 -6.34295 0
M  V30 14704 N 1336.2 1.55448 0.259558 0
M  V30 14705 C 1337.43 1.80465 1.00577 0
M  V30 14706 C 1337.84 0.585001 1.79929 0
M  V30 14707 O 1337.18 -0.455641 1.7796 0
M  V30 14708 C 1337.25 2.98634 2.00146 0
M  V30 14709 C 1336.91 4.35154 1.39607 0
M  V30 14710 C 1337.91 5.13631 0.804923 0
M  V30 14711 C 1335.59 4.81833 1.41923 0
M  V30 14712 C 1337.59 6.36929 0.245007 0
M  V30 14713 C 1335.27 6.05083 0.855458 0
M  V30 14714 C 1336.27 6.82469 0.269359 0
M  V30 14715 O 1335.96 8.03392 -0.285743 0
M  V30 14716 H 1335.69 0.604693 0.302196 0
M  V30 14717 H 1338.24 2.0332 0.291599 0
M  V30 14718 H 1336.47 2.71504 2.75359 0
M  V30 14719 H 1338.16 3.10855 2.61006 0
M  V30 14720 H 1338.93 4.78693 0.779625 0
M  V30 14721 H 1334.81 4.21599 1.86481 0
M  V30 14722 H 1338.35 6.97274 -0.213098 0
M  V30 14723 H 1334.25 6.395 0.878041 0
M  V30 14724 H 1335.02 8.1831 -0.17639 0
M  V30 14725 N 1337.68 -0.524672 1.4861 0
M  V30 14726 C 1338.59 -1.65554 1.6622 0
M  V30 14727 C 1339.61 -1.65254 0.54471 0
M  V30 14728 O 1340.78 -1.84109 0.816454 0
M  V30 14729 C 1337.85 -3.02003 1.7028 0
M  V30 14730 C 1336.91 -3.13116 2.93695 0
M  V30 14731 C 1336.14 -4.43055 2.97553 0
M  V30 14732 O 1336.36 -5.30468 2.09667 0
M  V30 14733 O 1335.3 -4.58646 3.89779 0
M  V30 14734 H 1339.12 -1.53633 2.61974 0
M  V30 14735 H 1336.71 -0.698354 1.32073 0
M  V30 14736 H 1338.59 -3.83143 1.75441 0
M  V30 14737 H 1337.27 -3.14236 0.777002 0
M  V30 14738 H 1336.17 -2.31251 2.94064 0
M  V30 14739 H 1337.51 -3.058 3.85677 0
M  V30 14740 N 1339.16 -1.37287 -0.77395 0
M  V30 14741 C 1340.57 -1.28954 -1.3501 0
M  V30 14742 C 1340.92 0.0638301 -1.96096 0
M  V30 14743 O 1340.05 0.965624 -1.93661 0
M  V30 14744 C 1340.64 -2.3352 -2.45467 0
M  V30 14745 C 1339.2 -2.28828 -2.98856 0
M  V30 14746 C 1338.35 -2.17468 -1.72055 0
M  V30 14747 H 1341.3 -1.47941 -0.57438 0
M  V30 14748 H 1341.32 -1.98058 -3.24889 0
M  V30 14749 H 1340.83 -3.32009 -2.00977 0
M  V30 14750 H 1338.93 -1.33855 -3.47726 0
M  V30 14751 H 1339.04 -3.22152 -3.54619 0
M  V30 14752 H 1337.41 -1.63977 -1.94894 0
M  V30 14753 H 1338.19 -3.17868 -1.29672 0
M  V30 14754 N 1340.64 0.999871 -1.21821 0
M  V30 14755 C 1341.87 1.77148 -1.06312 0
M  V30 14756 C 1342.27 1.85142 0.389747 0
M  V30 14757 O 1341.62 1.31562 1.28207 0
M  V30 14758 C 1341.68 3.22367 -1.59122 0
M  V30 14759 C 1341.34 3.37937 -3.07649 0
M  V30 14760 C 1342.34 3.25808 -4.05148 0
M  V30 14761 C 1340.03 3.63213 -3.46961 0
M  V30 14762 C 1342.02 3.38729 -5.39946 0
M  V30 14763 C 1339.71 3.75775 -4.81909 0
M  V30 14764 C 1340.7 3.6354 -5.78211 0
M  V30 14765 O 1340.39 3.75694 -7.1071 0
M  V30 14766 H 1340.12 0.563396 -0.373578 0
M  V30 14767 H 1342.68 1.26627 -1.61724 0
M  V30 14768 H 1340.91 3.74047 -0.98111 0
M  V30 14769 H 1342.6 3.81219 -1.39379 0
M  V30 14770 H 1343.36 3.062 -3.76121 0
M  V30 14771 H 1339.24 3.71816 -2.72533 0
M  V30 14772 H 1342.79 3.29096 -6.15095 0
M  V30 14773 H 1338.68 3.94889 -5.1062 0
M  V30 14774 H 1339.45 3.9261 -7.18192 0
M  V30 14775 N 1342.11 1.02678 1.19562 0
M  V30 14776 C 1343.04 0.626359 2.24942 0
M  V30 14777 C 1344.03 -0.363612 1.66168 0
M  V30 14778 O 1345.21 -0.246793 1.92625 0
M  V30 14779 C 1342.34 -0.0257912 3.4729 0
M  V30 14780 C 1341.29 0.886237 4.18724 0
M  V30 14781 C 1340.62 0.0993081 5.34608 0
M  V30 14782 C 1341.92 2.19901 4.73752 0
M  V30 14783 H 1343.61 1.50729 2.58691 0
M  V30 14784 H 1341.16 0.726195 1.24348 0
M  V30 14785 H 1343.11 -0.317545 4.20202 0
M  V30 14786 H 1341.84 -0.941511 3.12735 0
M  V30 14787 H 1340.5 1.16215 3.47692 0
M  V30 14788 H 1340.14 -0.81838 4.96298 0
M  V30 14789 H 1339.84 0.706776 5.83334 0
M  V30 14790 H 1341.37 -0.185754 6.10317 0
M  V30 14791 H 1342.78 1.96892 5.3843 0
M  V30 14792 H 1341.18 2.75821 5.32956 0
M  V30 14793 H 1342.25 2.85509 3.91934 0
M  V30 14794 N 1343.59 -1.35528 0.804364 0
M  V30 14795 C 1344.56 -2.28153 0.21885 0
M  V30 14796 C 1345.56 -1.49486 -0.592511 0
M  V30 14797 O 1346.75 -1.69274 -0.411319 0
M  V30 14798 C 1343.88 -3.33736 -0.695195 0
M  V30 14799 H 1345.07 -2.81446 1.03576 0
M  V30 14800 H 1342.62 -1.45345 0.574854 0
M  V30 14801 H 1343.36 -2.85625 -1.53587 0
M  V30 14802 H 1343.14 -3.91931 -0.115143 0
M  V30 14803 H 1344.63 -4.02872 -1.09925 0
M  V30 14804 N 1345.07 -0.557671 -1.47404 0
M  V30 14805 C 1346 0.237612 -2.2696 0
M  V30 14806 C 1346.98 0.919871 -1.34079 0
M  V30 14807 O 1348.17 0.938767 -1.63461 0
M  V30 14808 C 1345.29 1.33863 -3.11124 0
M  V30 14809 C 1344.34 0.764877 -4.19585 0
M  V30 14810 S 1345.17 -0.388893 -5.34086 0
M  V30 14811 C 1346.33 0.713932 -6.21815 0
M  V30 14812 H 1346.56 -0.437477 -2.94064 0
M  V30 14813 H 1344.09 -0.344004 -1.50519 0
M  V30 14814 H 1346.05 1.96917 -3.60186 0
M  V30 14815 H 1344.71 1.98556 -2.43381 0
M  V30 14816 H 1343.91 1.5917 -4.78206 0
M  V30 14817 H 1343.51 0.210502 -3.73407 0
M  V30 14818 H 1345.8 1.60592 -6.58192 0
M  V30 14819 H 1346.74 0.165069 -7.07908 0
M  V30 14820 H 1347.15 1.00681 -5.55449 0
M  V30 14821 N 1346.55 1.54831 -0.294147 0
M  V30 14822 C 1347.8 2.00001 0.317135 0
M  V30 14823 C 1348.12 1.18256 1.54421 0
M  V30 14824 O 1347.38 0.245035 1.9416 0
M  V30 14825 C 1347.68 3.4997 0.72495 0
M  V30 14826 C 1347.34 4.49126 -0.399616 0
M  V30 14827 C 1346.01 4.75958 -0.708354 0
M  V30 14828 C 1348.36 5.08208 -1.15644 0
M  V30 14829 C 1345.69 5.59137 -1.77716 0
M  V30 14830 C 1348.04 5.9255 -2.21512 0
M  V30 14831 C 1346.7 6.17695 -2.52999 0
M  V30 14832 H 1345.97 0.731856 0.116048 0
M  V30 14833 H 1348.62 1.87019 -0.41182 0
M  V30 14834 H 1346.92 3.60526 1.53388 0
M  V30 14835 H 1348.62 3.82341 1.20898 0
M  V30 14836 H 1345.21 4.28341 -0.148877 0
M  V30 14837 H 1349.4 4.87486 -0.931178 0
M  V30 14838 H 1344.65 5.76859 -2.02592 0
M  V30 14839 H 1348.83 6.37359 -2.80617 0
M  V30 14840 H 1346.45 6.81939 -3.35951 0
M  V30 14841 N 1348.03 0.0217466 1.57585 0
M  V30 14842 C 1349.28 -0.657187 1.91116 0
M  V30 14843 C 1349.6 -1.7309 0.898039 0
M  V30 14844 O 1348.87 -1.95803 -0.0615116 0
M  V30 14845 H 1347.45 -0.245732 0.705425 0
M  V30 14846 H 1350.11 0.0678096 1.94782 0
M  V30 14847 H 1349.2 -1.11462 2.91518 0
M  V30 14848 N 1349.51 -1.55583 -0.251311 0
M  V30 14849 C 1350.44 -1.86388 -1.33387 0
M  V30 14850 C 1351.45 -0.749829 -1.44504 0
M  V30 14851 O 1352.64 -1.0279 -1.45933 0
M  V30 14852 C 1349.74 -2.0311 -2.71293 0
M  V30 14853 C 1348.91 -3.33937 -2.82498 0
M  V30 14854 C 1347.97 -3.40455 -4.01219 0
M  V30 14855 O 1347 -4.13695 -3.90954 0
M  V30 14856 N 1348.2 -2.69427 -5.14188 0
M  V30 14857 H 1350.96 -2.79834 -1.07298 0
M  V30 14858 H 1348.53 -1.55766 -0.441418 0
M  V30 14859 H 1350.52 -2.04817 -3.49045 0
M  V30 14860 H 1349.09 -1.16429 -2.90109 0
M  V30 14861 H 1348.31 -3.44584 -1.91456 0
M  V30 14862 H 1349.6 -4.20176 -2.86931 0
M  V30 14863 H 1348.99 -2.09647 -5.25419 0
M  V30 14864 H 1347.55 -2.76832 -5.90091 0
M  V30 14865 N 1350.98 0.516783 -1.48886 0
M  V30 14866 C 1352.23 1.27375 -1.57808 0
M  V30 14867 C 1352.56 1.92492 -0.256963 0
M  V30 14868 O 1351.84 1.79947 0.738193 0
M  V30 14869 C 1352.12 2.35295 -2.72595 0
M  V30 14870 C 1351.97 1.74783 -4.14453 0
M  V30 14871 C 1353.29 3.36973 -2.83085 0
M  V30 14872 H 1350.41 0.46175 -0.574418 0
M  V30 14873 H 1353.05 0.57434 -1.81111 0
M  V30 14874 H 1351.2 2.94951 -2.52857 0
M  V30 14875 H 1352.88 1.19076 -4.45666 0
M  V30 14876 H 1351.12 1.05258 -4.20836 0
M  V30 14877 H 1351.79 2.52985 -4.90615 0
M  V30 14878 H 1354.27 2.87289 -3.01005 0
M  V30 14879 H 1353.14 4.09864 -3.65106 0
M  V30 14880 H 1353.4 3.98336 -1.91784 0
M  V30 14881 N 1352.46 1.37696 0.766659 0
M  V30 14882 C 1353.87 1.29668 1.34324 0
M  V30 14883 C 1354.22 -0.0534297 1.96127 0
M  V30 14884 O 1353.35 -0.95534 1.94171 0
M  V30 14885 C 1353.94 2.34818 2.44225 0
M  V30 14886 C 1352.5 2.3041 2.97638 0
M  V30 14887 C 1351.65 2.18378 1.70899 0
M  V30 14888 H 1354.6 1.48244 0.566526 0
M  V30 14889 H 1354.62 1.99778 3.23835 0
M  V30 14890 H 1354.13 3.3307 1.99214 0
M  V30 14891 H 1352.23 1.35698 3.47011 0
M  V30 14892 H 1352.35 3.24028 3.52906 0
M  V30 14893 H 1350.71 1.65008 1.94021 0
M  V30 14894 H 1351.49 3.18551 1.27985 0
M  V30 14895 N 1353.94 -0.993397 1.22349 0
M  V30 14896 C 1355.16 -1.77373 1.07488 0
M  V30 14897 C 1355.59 -1.84418 -0.37034 0
M  V30 14898 O 1354.95 -1.29629 -1.26752 0
M  V30 14899 C 1355 -3.18538 1.69014 0
M  V30 14900 O 1354.1 -4.01463 0.943474 0
M  V30 14901 H 1353.44 -0.546209 0.37756 0
M  V30 14902 H 1355.97 -1.24792 1.62136 0
M  V30 14903 H 1355.98 -3.6917 1.73717 0
M  V30 14904 H 1354.66 -3.12725 2.74182 0
M  V30 14905 H 1353.23 -3.59998 0.972415 0
M  V30 14906 N 1355.42 -1.03311 -1.19015 0
M  V30 14907 C 1356.69 -0.646539 -1.84606 0
M  V30 14908 C 1357.07 0.87449 -1.92135 0
M  V30 14909 O 1356.42 1.77291 -1.44154 0
M  V30 14910 C 1356.63 -1.31354 -3.23338 0
M  V30 14911 C 1357.98 -1.43949 -3.99455 0
M  V30 14912 O 1359 -1.27104 -3.32751 0
M  V30 14913 O 1357.86 -1.71328 -5.1895 0
M  V30 14914 H 1354.96 -0.225267 -0.795728 0
M  V30 14915 H 1357.5 -1.13152 -1.2647 0
M  V30 14916 H 1356.28 -2.3521 -3.12717 0
M  V30 14917 H 1355.9 -0.816688 -3.89122 0
M  V30 14918 N 1356.9 1.35099 -0.81154 0
M  V30 14919 C 1358.14 1.9892 -0.394815 0
M  V30 14920 C 1358.47 1.6422 1.0366 0
M  V30 14921 O 1357.75 0.908031 1.72003 0
M  V30 14922 C 1358.03 3.55331 -0.58413 0
M  V30 14923 C 1357.89 3.99812 -2.06084 0
M  V30 14924 C 1359.2 4.40098 -0.0129096 0
M  V30 14925 H 1356.32 0.72261 -0.144926 0
M  V30 14926 H 1358.97 1.60173 -1.02199 0
M  V30 14927 H 1357.12 3.88468 -0.0502446 0
M  V30 14928 H 1358.79 3.77061 -2.65749 0
M  V30 14929 H 1357.03 3.50539 -2.55548 0
M  V30 14930 H 1357.7 5.08655 -2.14416 0
M  V30 14931 H 1360.18 4.13449 -0.468917 0
M  V30 14932 H 1359.05 5.4862 -0.175252 0
M  V30 14933 H 1359.31 4.28675 1.0812 0
M  V30 14934 N 1358.37 0.56548 1.47106 0
M  V30 14935 C 1359.65 -0.0215358 1.95588 0
M  V30 14936 C 1360.03 -1.47712 1.50813 0
M  V30 14937 O 1359.38 -2.15814 0.750776 0
M  V30 14938 C 1359.59 0.132552 3.48748 0
M  V30 14939 C 1360.94 -0.00853591 4.24599 0
M  V30 14940 O 1361.96 0.0605142 3.56149 0
M  V30 14941 O 1360.82 -0.158519 5.4627 0
M  V30 14942 H 1357.91 -0.0595011 0.824857 0
M  V30 14943 H 1360.46 0.632586 1.57469 0
M  V30 14944 H 1359.23 1.14511 3.7417 0
M  V30 14945 H 1358.85 -0.558801 3.93654 0
M  V30 14946 N 1359.85 -1.54672 0.302354 0
M  V30 14947 C 1361.1 -1.99771 -0.305919 0
M  V30 14948 C 1361.42 -1.19225 -1.54306 0
M  V30 14949 O 1360.69 -0.288569 -1.93763 0
M  V30 14950 H 1359.27 -0.737934 -0.116026 0
M  V30 14951 H 1361.93 -1.90452 0.413997 0
M  V30 14952 H 1361.03 -3.06719 -0.577024 0
M  V30 14953 N 1361.33 -0.0301034 -1.57571 0
M  V30 14954 C 1362.56 0.658488 -1.96142 0
M  V30 14955 C 1362.97 1.65606 -0.906644 0
M  V30 14956 O 1362.33 1.82159 0.111441 0
M  V30 14957 C 1362.38 1.364 -3.34779 0
M  V30 14958 O 1362.1 0.4064 -4.36211 0
M  V30 14959 C 1363.6 2.14432 -3.87987 0
M  V30 14960 H 1360.82 0.181496 -0.645988 0
M  V30 14961 H 1363.37 -0.09016 -2.04301 0
M  V30 14962 H 1361.52 2.06404 -3.27836 0
M  V30 14963 H 1361.94 0.907503 -5.16589 0
M  V30 14964 H 1363.41 2.59248 -4.87334 0
M  V30 14965 H 1363.89 2.98377 -3.22285 0
M  V30 14966 H 1364.49 1.49383 -3.98202 0
M  V30 14967 N 1362.81 1.55714 0.243056 0
M  V30 14968 C 1364.04 1.81786 0.98801 0
M  V30 14969 C 1364.45 0.606352 1.78798 0
M  V30 14970 O 1363.81 -0.425018 1.77482 0
M  V30 14971 C 1363.86 3.06121 1.92281 0
M  V30 14972 O 1363.58 4.22595 1.15521 0
M  V30 14973 C 1365.08 3.45021 2.78344 0
M  V30 14974 H 1362.3 0.604829 0.290557 0
M  V30 14975 H 1364.85 2.02779 0.26478 0
M  V30 14976 H 1363 2.87167 2.60027 0
M  V30 14977 H 1363.41 4.93088 1.78786 0
M  V30 14978 H 1364.89 4.35112 3.39678 0
M  V30 14979 H 1365.37 2.65782 3.49652 0
M  V30 14980 H 1365.97 3.66339 2.16045 0
M  V30 14981 N 1364.29 -0.50888 1.49158 0
M  V30 14982 C 1365.52 -1.28585 1.61708 0
M  V30 14983 C 1365.92 -1.87047 0.284629 0
M  V30 14984 O 1365.27 -1.68182 -0.738959 0
M  V30 14985 C 1365.33 -2.46043 2.62113 0
M  V30 14986 C 1364.99 -2.0851 4.0666 0
M  V30 14987 C 1365.99 -1.62943 4.93706 0
M  V30 14988 C 1363.68 -2.18386 4.52342 0
M  V30 14989 C 1365.67 -1.27747 6.24467 0
M  V30 14990 C 1363.36 -1.82801 5.83118 0
M  V30 14991 C 1364.35 -1.37555 6.69005 0
M  V30 14992 O 1364.04 -1.02447 7.97345 0
M  V30 14993 H 1363.77 -0.396504 0.547504 0
M  V30 14994 H 1366.33 -0.61834 1.95872 0
M  V30 14995 H 1364.56 -3.15844 2.23113 0
M  V30 14996 H 1366.25 -3.08081 2.64275 0
M  V30 14997 H 1367.01 -1.54766 4.59644 0
M  V30 14998 H 1362.89 -2.52556 3.85664 0
M  V30 14999 H 1366.44 -0.923589 6.91459 0
M  V30 15000 H 1362.33 -1.90626 6.16711 0
M  V30 15001 H 1363.1 -1.15663 8.10287 0
M  V30 15002 N 1365.76 -1.381 -0.759346 0
M  V30 15003 C 1367.04 -1.24517 -1.50847 0
M  V30 15004 C 1367.42 0.155929 -2.10523 0
M  V30 15005 O 1366.77 1.16485 -1.96579 0
M  V30 15006 C 1366.98 -2.35086 -2.57945 0
M  V30 15007 C 1368.33 -2.73232 -3.25007 0
M  V30 15008 O 1369.35 -2.34355 -2.68247 0
M  V30 15009 O 1368.21 -3.40254 -4.27656 0
M  V30 15010 H 1365.3 -0.486599 -0.668693 0
M  V30 15011 H 1367.85 -1.49913 -0.795249 0
M  V30 15012 H 1366.62 -3.28858 -2.12056 0
M  V30 15013 H 1366.25 -2.11222 -3.36854 0
M  V30 15014 N 1367.24 0.986894 -1.22875 0
M  V30 15015 C 1368.49 1.72729 -1.05693 0
M  V30 15016 C 1368.82 1.90191 0.407121 0
M  V30 15017 O 1368.07 1.44667 1.31796 0
M  V30 15018 C 1368.37 3.13283 -1.72012 0
M  V30 15019 C 1368.04 3.15719 -3.2192 0
M  V30 15020 C 1366.7 3.1609 -3.62823 0
M  V30 15021 C 1369.05 3.11539 -4.17843 0
M  V30 15022 C 1366.38 3.09991 -4.98119 0
M  V30 15023 C 1368.73 3.06982 -5.53123 0
M  V30 15024 C 1367.4 3.05672 -5.93397 0
M  V30 15025 H 1366.67 0.63206 -0.386758 0
M  V30 15026 H 1369.31 1.15538 -1.52719 0
M  V30 15027 H 1367.62 3.7382 -1.17327 0
M  V30 15028 H 1369.31 3.69326 -1.56203 0
M  V30 15029 H 1365.9 3.16183 -2.89355 0
M  V30 15030 H 1370.09 3.10397 -3.87256 0
M  V30 15031 H 1365.34 3.07326 -5.28546 0
M  V30 15032 H 1369.52 3.02705 -6.27171 0
M  V30 15033 H 1367.15 3.00701 -6.982 0
M  V30 15034 N 1368.72 1.0394 1.18466 0
M  V30 15035 C 1369.68 0.633804 2.20262 0
M  V30 15036 C 1370.68 -0.308136 1.5782 0
M  V30 15037 O 1371.87 -0.0937087 1.73948 0
M  V30 15038 C 1369.01 -0.0709693 3.40826 0
M  V30 15039 H 1370.2 1.53463 2.57661 0
M  V30 15040 H 1367.75 0.831806 1.32328 0
M  V30 15041 H 1368.49 -0.985659 3.08958 0
M  V30 15042 H 1368.27 0.606023 3.87388 0
M  V30 15043 H 1369.76 -0.341298 4.16203 0
M  V30 15044 N 1370.2 -1.34667 0.818693 0
M  V30 15045 C 1371.15 -2.27031 0.210001 0
M  V30 15046 C 1372.13 -1.48338 -0.623258 0
M  V30 15047 O 1373.32 -1.70409 -0.478531 0
M  V30 15048 C 1370.45 -3.37457 -0.63069 0
M  V30 15049 C 1369.54 -4.23565 0.212964 0
M  V30 15050 N 1369.93 -4.89286 1.28191 0
M  V30 15051 C 1368.23 -4.46 -0.00340477 0
M  V30 15052 C 1368.93 -5.53216 1.79798 0
M  V30 15053 N 1367.91 -5.32302 1.10253 0
M  V30 15054 H 1371.71 -2.75345 1.02773 0
M  V30 15055 H 1369.22 -1.48336 0.661071 0
M  V30 15056 H 1371.22 -4.0259 -1.0829 0
M  V30 15057 H 1369.88 -2.90694 -1.44663 0
M  V30 15058 H 1370.89 -4.90417 1.66467 0
M  V30 15059 H 1367.57 -4.10005 -0.787516 0
M  V30 15060 H 1368.96 -6.15613 2.69203 0
M  V30 15061 N 1371.68 -0.573274 -1.46804 0
M  V30 15062 C 1372.92 -0.057823 -2.04318 0
M  V30 15063 C 1373.28 1.27424 -1.43622 0
M  V30 15064 O 1374.48 1.87835 -1.92279 0
M  V30 15065 C 1372.75 0.016823 -3.57396 0
M  V30 15066 S 1374.31 0.476068 -4.3621 0
M  V30 15067 H 1371.13 -0.0329025 -0.710238 0
M  V30 15068 H 1373.73 -0.76364 -1.79969 0
M  V30 15069 H 1372.44 -0.956757 -3.99092 0
M  V30 15070 H 1371.97 0.745702 -3.86268 0
M  V30 15071 H 1373.98 1.73268 -4.64965 0
M  V30 15072 N 1373.15 1.5451 -0.310553 0
M  V30 15073 C 1374.38 2.04739 0.29824 0
M  V30 15074 C 1374.8 1.18737 1.46788 0
M  V30 15075 O 1374.15 0.215114 1.81228 0
M  V30 15076 C 1374.21 3.53734 0.745274 0
M  V30 15077 O 1373.93 4.36468 -0.377826 0
M  V30 15078 C 1375.43 4.20001 1.41823 0
M  V30 15079 H 1372.65 0.667997 0.0634159 0
M  V30 15080 H 1375.19 1.9942 -0.452961 0
M  V30 15081 H 1373.35 3.59383 1.44648 0
M  V30 15082 H 1373.76 5.24492 -0.0280567 0
M  V30 15083 H 1375.23 5.25747 1.68209 0
M  V30 15084 H 1375.71 3.70319 2.36137 0
M  V30 15085 H 1376.32 4.18455 0.759951 0
M  V30 15086 N 1374.63 0.0384594 1.57553 0
M  V30 15087 C 1375.88 -0.63814 1.92182 0
M  V30 15088 C 1376.21 -1.71595 0.915714 0
M  V30 15089 O 1375.46 -1.9556 -0.0739533 0
M  V30 15090 C 1375.76 -1.28439 3.33524 0
M  V30 15091 C 1375.43 -0.336034 4.49646 0
M  V30 15092 C 1374.09 -0.0750373 4.81141 0
M  V30 15093 C 1376.44 0.314642 5.20249 0
M  V30 15094 C 1373.77 0.844286 5.80593 0
M  V30 15095 C 1376.12 1.22208 6.20684 0
M  V30 15096 C 1374.79 1.49187 6.50615 0
M  V30 15097 H 1374.06 -0.233512 0.703245 0
M  V30 15098 H 1376.7 0.102223 1.91227 0
M  V30 15099 H 1375.01 -2.09973 3.30785 0
M  V30 15100 H 1376.71 -1.81462 3.57593 0
M  V30 15101 H 1373.3 -0.549638 4.25061 0
M  V30 15102 H 1377.48 0.126074 4.9614 0
M  V30 15103 H 1372.74 1.06092 6.02125 0
M  V30 15104 H 1376.91 1.7324 6.74508 0
M  V30 15105 H 1374.54 2.20588 7.27492 0
M  V30 15106 N 1376.11 -1.55841 -0.234795 0
M  V30 15107 C 1377.34 -1.82307 -0.978355 0
M  V30 15108 C 1377.75 -0.615825 -1.78474 0
M  V30 15109 O 1377.11 0.4156 -1.77705 0
M  V30 15110 C 1377.16 -3.07136 -1.90655 0
M  V30 15111 O 1376.88 -4.23202 -1.13278 0
M  V30 15112 C 1378.38 -3.46492 -2.76511 0
M  V30 15113 H 1375.6 -0.606361 -0.287345 0
M  V30 15114 H 1378.15 -2.02916 -0.254023 0
M  V30 15115 H 1376.3 -2.88542 -2.58501 0
M  V30 15116 H 1376.72 -4.94029 -1.76168 0
M  V30 15117 H 1378.19 -4.36908 -3.37366 0
M  V30 15118 H 1378.67 -2.67633 -3.48238 0
M  V30 15119 H 1379.27 -3.6748 -2.14099 0
M  V30 15120 N 1377.59 0.500963 -1.49426 0
M  V30 15121 C 1378.84 1.25261 -1.58601 0
M  V30 15122 C 1379.16 1.93056 -0.274647 0
M  V30 15123 O 1378.43 1.82736 0.706003 0
M  V30 15124 H 1377.01 0.465328 -0.584362 0
M  V30 15125 H 1379.67 0.580588 -1.86052 0
M  V30 15126 H 1378.77 2.01652 -2.38208 0
M  V30 15127 N 1379.07 1.38501 0.752011 0
M  V30 15128 C 1380.02 1.35975 1.88716 0
M  V30 15129 C 1381.01 0.245392 1.67613 0
M  V30 15130 O 1382.22 0.414514 1.75162 0
M  V30 15131 H 1378.59 0.424221 0.620919 0
M  V30 15132 H 1380.56 2.3176 1.87962 0
M  V30 15133 C 1379.31 1.20326 3.26216 0
M  V30 15134 H 1378.63 2.05336 3.43041 0
M  V30 15135 H 1380.07 1.22613 4.05884 0
M  V30 15136 C 1378.53 -0.0897029 3.36781 0
M  V30 15137 O 1379.06 -1.06615 3.87293 0
M  V30 15138 N 1377.27 -0.147065 2.90228 0
M  V30 15139 H 1376.82 0.648216 2.49311 0
M  V30 15140 H 1376.77 -1.01174 2.97676 0
M  V30 15141 N 1380.55 -0.980364 1.23396 0
M  V30 15142 C 1381.46 -2.10688 1.03188 0
M  V30 15143 C 1382.47 -1.73984 -0.0236159 0
M  V30 15144 O 1383.65 -2.00666 0.171841 0
M  V30 15145 C 1380.71 -3.4101 0.625563 0
M  V30 15146 C 1379.77 -3.91739 1.75611 0
M  V30 15147 C 1379.01 -5.15841 1.36908 0
M  V30 15148 O 1379.23 -5.69837 0.253329 0
M  V30 15149 O 1378.16 -5.60638 2.19018 0
M  V30 15150 H 1381.99 -2.30626 1.97599 0
M  V30 15151 H 1379.57 -1.09067 1.02102 0
M  V30 15152 H 1381.46 -4.19402 0.409909 0
M  V30 15153 H 1380.13 -3.22402 -0.28956 0
M  V30 15154 H 1379.04 -3.14464 2.0264 0
M  V30 15155 H 1380.37 -4.14801 2.64955 0
M  V30 15156 N 1382.02 -1.04567 -1.17913 0
M  V30 15157 C 1383.25 -0.772146 -1.92491 0
M  V30 15158 C 1383.67 0.665297 -1.75942 0
M  V30 15159 O 1383.03 1.46144 -1.07292 0
M  V30 15160 C 1383.08 -1.14966 -3.41782 0
M  V30 15161 O 1382.18 -0.278091 -4.11461 0
M  V30 15162 H 1381.52 -0.283715 -0.600335 0
M  V30 15163 H 1384.05 -1.39685 -1.49496 0
M  V30 15164 H 1384.06 -1.11374 -3.92505 0
M  V30 15165 H 1382.74 -2.1968 -3.53148 0
M  V30 15166 H 1381.32 -0.374073 -3.71019 0
M  V30 15167 N 1383.5 1.34231 -0.825823 0
M  V30 15168 C 1384.45 2.29467 -0.247724 0
M  V30 15169 C 1385.42 1.53724 0.629127 0
M  V30 15170 O 1386.6 1.82082 0.570156 0
M  V30 15171 C 1383.74 3.40157 0.582012 0
M  V30 15172 C 1382.86 4.30832 -0.317406 0
M  V30 15173 C 1381.99 5.28627 0.522176 0
M  V30 15174 C 1381.03 6.10941 -0.376448 0
M  V30 15175 N 1380.17 7.00817 0.424232 0
M  V30 15176 H 1385.01 2.78311 -1.06521 0
M  V30 15177 H 1382.54 1.36956 -0.536788 0
M  V30 15178 H 1384.5 4.03021 1.07843 0
M  V30 15179 H 1383.13 2.92539 1.36459 0
M  V30 15180 H 1382.18 3.68805 -0.932054 0
M  V30 15181 H 1383.5 4.88503 -1.00826 0
M  V30 15182 H 1382.65 5.96957 1.08295 0
M  V30 15183 H 1381.39 4.71501 1.24652 0
M  V30 15184 H 1380.39 5.41542 -0.94934 0
M  V30 15185 H 1381.62 6.70149 -1.09895 0
M  V30 15186 H 1379.57 6.46156 1.1322 0
M  V30 15187 H 1379.48 7.55713 -0.208175 0
M  V30 15188 H 1380.75 7.7347 0.967664 0
M  V30 15189 N 1384.98 0.581051 1.46498 0
M  V30 15190 C 1386.39 0.154032 1.86064 0
M  V30 15191 C 1386.74 -1.28247 1.48483 0
M  V30 15192 O 1385.87 -1.96845 0.898945 0
M  V30 15193 C 1386.46 0.272764 3.377 0
M  V30 15194 C 1385.02 -0.0993724 3.76269 0
M  V30 15195 C 1384.17 0.60947 2.70519 0
M  V30 15196 H 1387.12 0.78937 1.37676 0
M  V30 15197 H 1387.14 -0.502326 3.7717 0
M  V30 15198 H 1386.65 1.31837 3.65021 0
M  V30 15199 H 1384.75 -1.14517 3.54565 0
M  V30 15200 H 1384.87 0.275791 4.78306 0
M  V30 15201 H 1383.23 0.0499083 2.54651 0
M  V30 15202 H 1384.01 1.65669 3.0068 0
M  V30 15203 N 1386.46 -1.54343 0.318742 0
M  V30 15204 C 1387.39 -2.27118 -0.542206 0
M  V30 15205 C 1388.37 -1.27731 -1.12334 0
M  V30 15206 O 1389.55 -1.56535 -1.14937 0
M  V30 15207 C 1386.68 -3.02535 -1.70558 0
M  V30 15208 C 1385.64 -4.09218 -1.25398 0
M  V30 15209 C 1384.96 -4.72449 -2.50391 0
M  V30 15210 C 1386.26 -5.20971 -0.372332 0
M  V30 15211 H 1387.96 -2.9933 0.0648226 0
M  V30 15212 H 1385.5 -1.43963 0.0326168 0
M  V30 15213 H 1387.46 -3.52174 -2.31412 0
M  V30 15214 H 1386.18 -2.27931 -2.33912 0
M  V30 15215 H 1384.84 -3.60455 -0.668392 0
M  V30 15216 H 1384.49 -3.94466 -3.12099 0
M  V30 15217 H 1384.19 -5.4451 -2.20868 0
M  V30 15218 H 1385.71 -5.2486 -3.12016 0
M  V30 15219 H 1387.13 -5.66396 -0.887029 0
M  V30 15220 H 1385.52 -5.99859 -0.17009 0
M  V30 15221 H 1386.59 -4.81198 0.598064 0
M  V30 15222 N 1387.94 -0.0468143 -1.5753 0
M  V30 15223 C 1389.18 0.631887 -1.94388 0
M  V30 15224 C 1389.54 1.68265 -0.924715 0
M  V30 15225 O 1390.74 2.41511 -1.18008 0
M  V30 15226 C 1389.01 1.21642 -3.36063 0
M  V30 15227 S 1390.57 1.91373 -3.94869 0
M  V30 15228 H 1387.39 0.207594 -0.680019 0
M  V30 15229 H 1389.99 -0.11471 -1.95163 0
M  V30 15230 H 1388.69 0.439479 -4.0804 0
M  V30 15231 H 1388.23 1.99993 -3.38772 0
M  V30 15232 H 1390.24 3.19392 -3.79741 0
M  V30 15233 N 1389.41 1.55964 0.226527 0
M  V30 15234 C 1390.66 1.7901 0.95306 0
M  V30 15235 C 1390.99 0.615608 1.84184 0
M  V30 15236 O 1390.27 -0.385341 1.90645 0
M  V30 15237 C 1390.55 3.12101 1.79624 0
M  V30 15238 C 1390.4 4.3999 0.934286 0
M  V30 15239 C 1391.72 3.4159 2.77496 0
M  V30 15240 H 1388.84 0.651236 0.345052 0
M  V30 15241 H 1391.48 1.88696 0.222236 0
M  V30 15242 H 1389.63 3.03975 2.41933 0
M  V30 15243 H 1391.31 4.6013 0.328328 0
M  V30 15244 H 1389.55 4.33138 0.239487 0
M  V30 15245 H 1390.22 5.29541 1.55853 0
M  V30 15246 H 1392.7 3.49812 2.25323 0
M  V30 15247 H 1391.57 4.35894 3.33599 0
M  V30 15248 H 1391.83 2.6351 3.54986 0
M  V30 15249 N 1390.89 -0.493031 1.4969 0
M  V30 15250 C 1391.8 -1.61991 1.69694 0
M  V30 15251 C 1392.82 -1.64061 0.579641 0
M  V30 15252 O 1393.99 -1.82335 0.855323 0
M  V30 15253 C 1391.06 -2.98323 1.76648 0
M  V30 15254 C 1390.12 -3.06816 3.00271 0
M  V30 15255 C 1389.35 -4.36644 3.06883 0
M  V30 15256 O 1389.58 -5.25901 2.20872 0
M  V30 15257 O 1388.51 -4.50275 3.99419 0
M  V30 15258 H 1392.34 -1.48042 2.65174 0
M  V30 15259 H 1389.92 -0.670182 1.33525 0
M  V30 15260 H 1391.8 -3.79335 1.83529 0
M  V30 15261 H 1390.48 -3.12517 0.843482 0
M  V30 15262 H 1389.39 -2.24962 2.98903 0
M  V30 15263 H 1390.72 -2.97551 3.92077 0
M  V30 15264 N 1392.37 -1.38898 -0.744656 0
M  V30 15265 C 1393.3 -1.39571 -1.87195 0
M  V30 15266 C 1394.28 -0.260372 -1.68095 0
M  V30 15267 O 1395.47 -0.464776 -1.88556 0
M  V30 15268 C 1392.6 -1.22889 -3.24832 0
M  V30 15269 C 1391.55 -2.33721 -3.58551 0
M  V30 15270 C 1390.88 -2.02136 -4.9502 0
M  V30 15271 C 1392.18 -3.7601 -3.62511 0
M  V30 15272 H 1393.87 -2.33908 -1.86889 0
M  V30 15273 H 1391.42 -1.12591 -0.897739 0
M  V30 15274 H 1393.37 -1.21983 -4.03359 0
M  V30 15275 H 1392.09 -0.250172 -3.2564 0
M  V30 15276 H 1390.75 -2.33828 -2.82348 0
M  V30 15277 H 1390.4 -1.02726 -4.92399 0
M  V30 15278 H 1390.1 -2.76371 -5.18549 0
M  V30 15279 H 1391.62 -2.02864 -5.75915 0
M  V30 15280 H 1393.04 -3.77885 -4.31133 0
M  V30 15281 H 1391.44 -4.49524 -3.97553 0
M  V30 15282 H 1392.51 -4.07682 -2.62533 0
M  V30 15283 N 1393.85 0.973806 -1.23914 0
M  V30 15284 C 1395.13 1.69087 -0.9833 0
M  V30 15285 C 1395.51 2.05186 0.49619 0
M  V30 15286 O 1394.85 1.75021 1.46901 0
M  V30 15287 C 1395.06 2.92739 -1.90012 0
M  V30 15288 C 1396.41 3.65112 -2.16745 0
M  V30 15289 O 1397.44 3.02785 -1.87616 0
M  V30 15290 O 1396.29 4.77293 -2.66183 0
M  V30 15291 H 1393.39 0.738919 -0.371386 0
M  V30 15292 H 1395.93 1.02844 -1.34986 0
M  V30 15293 H 1394.71 2.6271 -2.89999 0
M  V30 15294 H 1394.33 3.66718 -1.53635 0
M  V30 15295 N 1395.33 1.05191 1.17357 0
M  V30 15296 C 1396.24 0.663617 2.25018 0
M  V30 15297 C 1397.25 -0.315299 1.71119 0
M  V30 15298 O 1398.43 -0.167398 2.00703 0
M  V30 15299 C 1395.49 0.0443307 3.46672 0
M  V30 15300 C 1394.55 1.07369 4.15656 0
M  V30 15301 C 1393.79 0.483864 5.31502 0
M  V30 15302 O 1394.01 -0.706692 5.66005 0
M  V30 15303 O 1392.94 1.21812 5.89445 0
M  V30 15304 H 1396.77 1.56088 2.60519 0
M  V30 15305 H 1394.36 0.823474 1.24657 0
M  V30 15306 H 1396.24 -0.299839 4.20332 0
M  V30 15307 H 1394.91 -0.826579 3.12969 0
M  V30 15308 H 1393.82 1.46985 3.44015 0
M  V30 15309 H 1395.15 1.91575 4.53387 0
M  V30 15310 N 1396.8 -1.33791 0.83293 0
M  V30 15311 C 1397.75 -2.26795 0.234069 0
M  V30 15312 C 1398.74 -1.48991 -0.60749 0
M  V30 15313 O 1399.93 -1.70907 -0.46043 0
M  V30 15314 C 1397.06 -3.38107 -0.594863 0
M  V30 15315 C 1396.15 -4.23315 0.257877 0
M  V30 15316 N 1396.54 -4.87899 1.33373 0
M  V30 15317 C 1394.83 -4.45978 0.0438997 0
M  V30 15318 C 1395.54 -5.51278 1.85655 0
M  V30 15319 N 1394.51 -5.31103 1.15892 0
M  V30 15320 H 1398.31 -2.7424 1.05688 0
M  V30 15321 H 1395.83 -1.47627 0.676767 0
M  V30 15322 H 1397.82 -4.03716 -1.04014 0
M  V30 15323 H 1396.48 -2.92212 -1.41571 0
M  V30 15324 H 1397.5 -4.88624 1.71659 0
M  V30 15325 H 1394.17 -4.10818 -0.743985 0
M  V30 15326 H 1395.56 -6.12723 2.75717 0
M  V30 15327 N 1398.28 -0.588812 -1.46187 0
M  V30 15328 C 1399.23 0.153638 -2.32092 0
M  V30 15329 C 1400.22 0.878346 -1.4485 0
M  V30 15330 O 1401.43 0.796042 -1.61441 0
M  V30 15331 H 1397.81 0.0684129 -0.748882 0
M  V30 15332 H 1399.78 -0.58961 -2.92517 0
M  V30 15333 C 1398.53 1.15003 -3.28131 0
M  V30 15334 H 1397.85 0.601804 -3.95245 0
M  V30 15335 H 1399.29 1.6398 -3.91007 0
M  V30 15336 C 1397.75 2.21411 -2.53926 0
M  V30 15337 O 1398.28 3.28862 -2.30679 0
M  V30 15338 N 1396.48 1.96184 -2.14383 0
M  V30 15339 H 1396.03 1.08812 -2.3349 0
M  V30 15340 H 1395.99 2.6759 -1.65055 0
M  V30 15341 N 1399.76 1.54172 -0.326923 0
M  V30 15342 C 1400.69 2.27402 0.530154 0
M  V30 15343 C 1401.67 1.28325 1.11655 0
M  V30 15344 O 1402.86 1.57142 1.14105 0
M  V30 15345 C 1399.99 3.03435 1.68951 0
M  V30 15346 C 1398.94 4.09877 1.23226 0
M  V30 15347 C 1398.27 4.7377 2.47882 0
M  V30 15348 C 1399.57 5.21161 0.344698 0
M  V30 15349 H 1401.26 2.99291 -0.0806959 0
M  V30 15350 H 1398.81 1.43944 -0.0402511 0
M  V30 15351 H 1400.76 3.53396 2.29541 0
M  V30 15352 H 1399.48 2.29169 2.327 0
M  V30 15353 H 1398.14 3.60805 0.649267 0
M  V30 15354 H 1397.79 3.96116 3.10002 0
M  V30 15355 H 1397.49 5.45674 2.17977 0
M  V30 15356 H 1399.01 5.26507 3.09229 0
M  V30 15357 H 1400.43 5.66859 0.856979 0
M  V30 15358 H 1398.83 5.99941 0.138276 0
M  V30 15359 H 1399.9 4.80874 -0.623575 0
M  V30 15360 N 1401.24 0.0551678 1.57503 0
M  V30 15361 C 1402.65 -0.479948 1.80426 0
M  V30 15362 C 1403 -1.70673 0.967733 0
M  V30 15363 O 1402.13 -2.15604 0.185462 0
M  V30 15364 C 1402.72 -0.877496 3.27239 0
M  V30 15365 C 1401.28 -1.35757 3.51066 0
M  V30 15366 C 1400.43 -0.334681 2.75273 0
M  V30 15367 H 1403.38 0.281016 1.56192 0
M  V30 15368 H 1403.4 -1.74013 3.38378 0
M  V30 15369 H 1402.91 0.015571 3.88097 0
M  V30 15370 H 1401.01 -2.26969 2.95492 0
M  V30 15371 H 1401.12 -1.34697 4.59776 0
M  V30 15372 H 1399.49 -0.808421 2.4153 0
M  V30 15373 H 1400.27 0.550369 3.3886 0
M  V30 15374 N 1402.72 -1.56081 -0.218252 0
M  V30 15375 C 1404.13 -1.49147 -0.568098 0
M  V30 15376 C 1404.33 -0.750893 -1.86986 0
M  V30 15377 O 1403.39 -0.291904 -2.50807 0
M  V30 15378 C 1404.7 -2.93717 -0.644272 0
M  V30 15379 C 1406.25 -3.04256 -0.734677 0
M  V30 15380 C 1406.72 -4.50191 -0.842167 0
M  V30 15381 N 1408.22 -4.54247 -0.906302 0
M  V30 15382 C 1408.95 -5.64448 -1.00924 0
M  V30 15383 N 1408.45 -6.84394 -1.07592 0
M  V30 15384 N 1410.24 -5.52308 -1.04463 0
M  V30 15385 H 1402.39 -2.02656 0.635935 0
M  V30 15386 H 1404.65 -0.921262 0.223563 0
M  V30 15387 H 1404.36 -3.50861 0.242721 0
M  V30 15388 H 1404.23 -3.45798 -1.50678 0
M  V30 15389 H 1406.62 -2.47174 -1.61211 0
M  V30 15390 H 1406.7 -2.55339 0.153563 0
M  V30 15391 H 1406.35 -5.07891 0.0308214 0
M  V30 15392 H 1406.28 -4.96817 -1.74587 0
M  V30 15393 H 1408.77 -3.67868 -0.864954 0
M  V30 15394 H 1409.08 -7.6413 -1.15433 0
M  V30 15395 H 1407.42 -6.87099 -1.045 0
M  V30 15396 H 1410.62 -4.57528 -0.989218 0
M  V30 15397 H 1410.79 -6.38223 -1.1214 0
M  V30 15398 N 1404.2 0.485086 -1.49949 0
M  V30 15399 C 1405.44 1.23816 -1.60237 0
M  V30 15400 C 1405.77 1.9223 -0.296274 0
M  V30 15401 O 1405.03 1.82095 0.716939 0
M  V30 15402 C 1405.32 2.31573 -2.72229 0
M  V30 15403 C 1404.99 1.80508 -4.13192 0
M  V30 15404 C 1403.65 1.66301 -4.5155 0
M  V30 15405 C 1406 1.42471 -5.0135 0
M  V30 15406 C 1403.33 1.1246 -5.75821 0
M  V30 15407 C 1405.68 0.900757 -6.26154 0
M  V30 15408 C 1404.35 0.74521 -6.63327 0
M  V30 15409 H 1403.62 0.453075 -0.586348 0
M  V30 15410 H 1406.27 0.536349 -1.83836 0
M  V30 15411 H 1404.57 3.07606 -2.42663 0
M  V30 15412 H 1406.27 2.89574 -2.77395 0
M  V30 15413 H 1402.86 1.92529 -3.82924 0
M  V30 15414 H 1407.04 1.52287 -4.72358 0
M  V30 15415 H 1402.3 0.991422 -6.03308 0
M  V30 15416 H 1406.47 0.5973 -6.93834 0
M  V30 15417 H 1404.1 0.325838 -7.59501 0
M  V30 15418 N 1405.67 1.39291 0.737279 0
M  V30 15419 C 1407.08 1.32489 1.31543 0
M  V30 15420 C 1407.44 -0.0118162 1.96196 0
M  V30 15421 O 1406.56 -0.913938 1.96153 0
M  V30 15422 C 1407.16 2.39946 2.39189 0
M  V30 15423 C 1405.71 2.36671 2.92684 0
M  V30 15424 C 1404.86 2.21953 1.66229 0
M  V30 15425 H 1407.81 1.49412 0.534954 0
M  V30 15426 H 1407.83 2.06603 3.19524 0
M  V30 15427 H 1407.35 3.3722 1.92104 0
M  V30 15428 H 1405.45 1.43028 3.44055 0
M  V30 15429 H 1405.56 3.31441 3.45953 0
M  V30 15430 H 1403.92 1.69087 1.90478 0
M  V30 15431 H 1404.71 3.21194 1.21199 0
M  V30 15432 N 1407.15 -0.967221 1.24429 0
M  V30 15433 C 1408.06 -2.09582 1.05417 0
M  V30 15434 C 1409.08 -1.73999 -0.00516127 0
M  V30 15435 O 1410.25 -2.00472 0.193115 0
M  V30 15436 C 1407.32 -3.40327 0.661697 0
M  V30 15437 C 1406.38 -3.89854 1.79756 0
M  V30 15438 C 1405.61 -5.1436 1.42372 0
M  V30 15439 O 1405.84 -5.69536 0.313754 0
M  V30 15440 O 1404.77 -5.58283 2.24952 0
M  V30 15441 H 1408.6 -2.28517 2.00034 0
M  V30 15442 H 1406.18 -1.07978 1.03253 0
M  V30 15443 H 1408.06 -4.18943 0.454369 0
M  V30 15444 H 1406.74 -3.22691 -0.255348 0
M  V30 15445 H 1405.64 -3.12297 2.05964 0
M  V30 15446 H 1406.98 -4.11967 2.69339 0
M  V30 15447 N 1408.63 -1.05812 -1.16797 0
M  V30 15448 C 1409.88 -0.782869 -1.8773 0
M  V30 15449 C 1410.23 0.683013 -1.79869 0
M  V30 15450 O 1409.52 1.49357 -1.20012 0
M  V30 15451 C 1409.72 -1.20565 -3.3645 0
M  V30 15452 C 1409.55 -2.71109 -3.58789 0
M  V30 15453 C 1408.32 -3.38506 -3.75155 0
M  V30 15454 C 1410.51 -3.69327 -3.57914 0
M  V30 15455 N 1408.5 -4.77851 -3.85398 0
M  V30 15456 C 1409.87 -4.94431 -3.74082 0
M  V30 15457 C 1411.92 -3.62707 -3.41099 0
M  V30 15458 C 1410.63 -6.13707 -3.75175 0
M  V30 15459 C 1412.65 -4.81429 -3.43483 0
M  V30 15460 C 1412.01 -6.0536 -3.60165 0
M  V30 15461 H 1408.11 -0.338798 -0.704798 0
M  V30 15462 H 1410.7 -1.3513 -1.40171 0
M  V30 15463 H 1408.87 -0.665104 -3.82663 0
M  V30 15464 H 1410.6 -0.879581 -3.95026 0
M  V30 15465 H 1407.35 -2.88907 -3.75273 0
M  V30 15466 H 1407.78 -5.50324 -3.943 0
M  V30 15467 H 1412.42 -2.67851 -3.27133 0
M  V30 15468 H 1410.14 -7.08901 -3.87925 0
M  V30 15469 H 1413.72 -4.77966 -3.31722 0
M  V30 15470 H 1412.6 -6.95688 -3.61923 0
M  V30 15471 N 1410.11 1.33347 -0.840014 0
M  V30 15472 C 1411.36 1.97007 -0.432581 0
M  V30 15473 C 1411.67 1.67278 1.01378 0
M  V30 15474 O 1412.88 2.2456 1.52595 0
M  V30 15475 C 1411.33 3.52572 -0.72258 0
M  V30 15476 C 1410.94 3.91176 -2.1837 0
M  V30 15477 C 1412.68 4.22776 -0.382153 0
M  V30 15478 C 1410.59 5.39724 -2.41768 0
M  V30 15479 H 1409.52 0.737255 -0.158024 0
M  V30 15480 H 1412.17 1.5195 -1.02876 0
M  V30 15481 H 1410.55 3.9596 -0.0560179 0
M  V30 15482 H 1411.73 3.58842 -2.89083 0
M  V30 15483 H 1410.04 3.33956 -2.48721 0
M  V30 15484 H 1412.64 5.32021 -0.534588 0
M  V30 15485 H 1412.98 4.10792 0.674967 0
M  V30 15486 H 1413.52 3.84922 -1.004 0
M  V30 15487 H 1410.25 5.56713 -3.4605 0
M  V30 15488 H 1409.77 5.73514 -1.75617 0
M  V30 15489 H 1411.45 6.06624 -2.2498 0
M  V30 15490 N 1411.59 0.596556 1.45873 0
M  V30 15491 C 1412.81 0.0934926 2.06689 0
M  V30 15492 C 1413.23 -1.21743 1.44305 0
M  V30 15493 O 1412.59 -1.73912 0.553253 0
M  V30 15494 C 1412.64 -0.0643337 3.61443 0
M  V30 15495 O 1412.36 1.19472 4.21495 0
M  V30 15496 C 1413.86 -0.600141 4.39219 0
M  V30 15497 H 1411.08 0.0637846 0.667961 0
M  V30 15498 H 1413.62 0.821159 1.87289 0
M  V30 15499 H 1411.78 -0.742278 3.80222 0
M  V30 15500 H 1412.19 1.01735 5.14539 0
M  V30 15501 H 1413.67 -0.6597 5.48044 0
M  V30 15502 H 1414.14 -1.62009 4.08227 0
M  V30 15503 H 1414.75 0.0433915 4.25278 0
M  V30 15504 N 1413.06 -1.53996 0.335095 0
M  V30 15505 C 1414.31 -1.99952 -0.264954 0
M  V30 15506 C 1414.63 -1.22696 -1.52332 0
M  V30 15507 O 1415.83 -1.59086 -2.20009 0
M  V30 15508 C 1414.29 -3.56085 -0.522667 0
M  V30 15509 C 1413.9 -4.42188 0.719314 0
M  V30 15510 C 1415.64 -4.10478 -1.08204 0
M  V30 15511 C 1413.55 -5.89814 0.432867 0
M  V30 15512 H 1412.48 -0.746962 -0.102782 0
M  V30 15513 H 1415.13 -1.77919 0.449111 0
M  V30 15514 H 1413.51 -3.7415 -1.29722 0
M  V30 15515 H 1414.68 -4.35898 1.49432 0
M  V30 15516 H 1413 -3.98743 1.19972 0
M  V30 15517 H 1415.6 -5.18375 -1.31116 0
M  V30 15518 H 1415.94 -3.63173 -2.03497 0
M  V30 15519 H 1416.47 -3.96091 -0.368395 0
M  V30 15520 H 1413.21 -6.41336 1.35529 0
M  V30 15521 H 1412.73 -5.99028 -0.304214 0
M  V30 15522 H 1414.41 -6.46983 0.0469657 0
M  V30 15523 N 1414.54 -0.0635198 -1.57472 0
M  V30 15524 C 1415.95 0.470372 -1.80678 0
M  V30 15525 C 1416.3 1.70158 -0.976771 0
M  V30 15526 O 1415.43 2.15502 -0.196893 0
M  V30 15527 C 1416.02 0.860129 -3.277 0
M  V30 15528 C 1414.58 1.33893 -3.51781 0
M  V30 15529 C 1413.73 0.320078 -2.75447 0
M  V30 15530 H 1416.68 -0.289295 -1.56041 0
M  V30 15531 H 1416.7 1.72216 -3.39296 0
M  V30 15532 H 1416.21 -0.0361525 -3.88083 0
M  V30 15533 H 1414.31 2.25399 -2.96692 0
M  V30 15534 H 1414.43 1.32257 -4.60483 0
M  V30 15535 H 1412.79 0.795601 -2.41955 0
M  V30 15536 H 1413.57 -0.568332 -3.38563 0
M  V30 15537 N 1416.02 1.56195 0.209972 0
M  V30 15538 C 1416.95 1.96378 1.26324 0
M  V30 15539 C 1417.93 0.833606 1.48273 0
M  V30 15540 O 1419.12 1.0968 1.60262 0
M  V30 15541 C 1416.25 2.29048 2.61064 0
M  V30 15542 C 1415.2 3.44665 2.53752 0
M  V30 15543 C 1414.53 3.6297 3.92628 0
M  V30 15544 C 1415.83 4.79297 2.07536 0
M  V30 15545 H 1417.52 2.8461 0.929379 0
M  V30 15546 H 1415.07 1.36931 0.445627 0
M  V30 15547 H 1417.02 2.55752 3.34916 0
M  V30 15548 H 1415.74 1.37682 2.96161 0
M  V30 15549 H 1414.4 3.18028 1.82356 0
M  V30 15550 H 1414.05 2.68961 4.25052 0
M  V30 15551 H 1413.75 4.40741 3.88614 0
M  V30 15552 H 1415.27 3.92035 4.68125 0
M  V30 15553 H 1416.69 5.05131 2.71138 0
M  V30 15554 H 1415.08 5.60433 2.14557 0
M  V30 15555 H 1416.15 4.73877 1.02802 0
M  V30 15556 N 1417.5 -0.477127 1.50204 0
M  V30 15557 C 1418.74 -1.23147 1.6113 0
M  V30 15558 C 1419.08 -1.91743 0.307909 0
M  V30 15559 O 1418.35 -1.81841 -0.690223 0
M  V30 15560 C 1418.63 -2.27985 2.78738 0
M  V30 15561 C 1418.49 -1.63733 4.18941 0
M  V30 15562 C 1419.81 -3.29349 2.9192 0
M  V30 15563 H 1416.93 -0.446358 0.586459 0
M  V30 15564 H 1419.57 -0.52612 1.8257 0
M  V30 15565 H 1417.72 -2.88143 2.60588 0
M  V30 15566 H 1419.39 -1.07218 4.48667 0
M  V30 15567 H 1417.63 -0.940634 4.23479 0
M  V30 15568 H 1418.3 -2.39888 4.9715 0
M  V30 15569 H 1420.78 -2.79208 3.08516 0
M  V30 15570 H 1419.66 -4.0004 3.75845 0
M  V30 15571 H 1419.92 -3.93111 2.02278 0
M  V30 15572 N 1418.98 -1.3968 -0.729882 0
M  V30 15573 C 1420.22 -1.3862 -1.50213 0
M  V30 15574 C 1420.58 0.0167409 -1.91993 0
M  V30 15575 O 1421.78 0.15238 -2.68368 0
M  V30 15576 C 1420.05 -2.33583 -2.70507 0
M  V30 15577 S 1421.61 -2.50756 -3.60093 0
M  V30 15578 H 1418.43 -0.491511 -0.513749 0
M  V30 15579 H 1421.03 -1.75823 -0.854783 0
M  V30 15580 H 1419.74 -3.34369 -2.37961 0
M  V30 15581 H 1419.27 -1.97613 -3.40166 0
M  V30 15582 H 1421.28 -1.74929 -4.64343 0
M  V30 15583 N 1420.45 0.960609 -1.2494 0
M  V30 15584 C 1421.7 1.69884 -1.08731 0
M  V30 15585 C 1422.02 1.92018 0.372602 0
M  V30 15586 O 1423.22 2.6348 0.655018 0
M  V30 15587 C 1421.68 3.05815 -1.8975 0
M  V30 15588 C 1421.29 2.91498 -3.40196 0
M  V30 15589 C 1423.03 3.83462 -1.82092 0
M  V30 15590 C 1420.94 4.22783 -4.13532 0
M  V30 15591 H 1419.87 0.637087 -0.403281 0
M  V30 15592 H 1422.52 1.06987 -1.49084 0
M  V30 15593 H 1420.9 3.69582 -1.42216 0
M  V30 15594 H 1422.07 2.367 -3.9536 0
M  V30 15595 H 1420.39 2.27312 -3.48882 0
M  V30 15596 H 1422.99 4.8069 -2.34181 0
M  V30 15597 H 1423.33 4.08782 -0.787597 0
M  V30 15598 H 1423.86 3.26435 -2.27344 0
M  V30 15599 H 1420.6 4.02653 -5.17253 0
M  V30 15600 H 1420.12 4.77369 -3.63152 0
M  V30 15601 H 1421.8 4.91361 -4.2092 0
M  V30 15602 N 1421.93 1.0643 1.16234 0
M  V30 15603 C 1423.16 0.80148 1.9042 0
M  V30 15604 C 1423.57 -0.648064 1.77755 0
M  V30 15605 O 1422.91 -1.4555 1.12076 0
M  V30 15606 C 1422.98 1.11855 3.41656 0
M  V30 15607 C 1422.64 2.5668 3.78107 0
M  V30 15608 C 1423.64 3.54914 3.79911 0
M  V30 15609 C 1421.32 2.92015 4.08696 0
M  V30 15610 C 1423.32 4.86522 4.11795 0
M  V30 15611 C 1421 4.23823 4.40247 0
M  V30 15612 C 1422 5.20887 4.41776 0
M  V30 15613 O 1421.69 6.50329 4.72575 0
M  V30 15614 H 1421.42 0.290009 0.610632 0
M  V30 15615 H 1423.97 1.42157 1.48258 0
M  V30 15616 H 1422.2 0.441395 3.84173 0
M  V30 15617 H 1423.89 0.839759 3.97118 0
M  V30 15618 H 1424.66 3.28957 3.56388 0
M  V30 15619 H 1420.54 2.17119 4.0667 0
M  V30 15620 H 1424.08 5.62278 4.12903 0
M  V30 15621 H 1419.98 4.49538 4.63235 0
M  V30 15622 H 1420.75 6.55339 4.90381 0
M  V30 15623 N 1423.41 -1.329 0.847073 0
M  V30 15624 C 1424.34 -2.27027 0.231111 0
M  V30 15625 C 1425.32 -1.50045 -0.626524 0
M  V30 15626 O 1426.51 -1.79193 -0.58499 0
M  V30 15627 C 1423.63 -3.31911 -0.67472 0
M  V30 15628 C 1422.68 -4.26362 0.108531 0
M  V30 15629 S 1423.51 -5.14874 1.4719 0
M  V30 15630 C 1424.67 -6.23285 0.571586 0
M  V30 15631 H 1424.9 -2.78922 1.02906 0
M  V30 15632 H 1422.43 -1.40315 0.64428 0
M  V30 15633 H 1424.39 -3.92821 -1.19172 0
M  V30 15634 H 1423.05 -2.78815 -1.44641 0
M  V30 15635 H 1422.25 -5.00639 -0.581079 0
M  V30 15636 H 1421.85 -3.69831 0.556863 0
M  V30 15637 H 1424.14 -6.77119 -0.227261 0
M  V30 15638 H 1425.08 -6.96347 1.28477 0
M  V30 15639 H 1425.49 -5.64303 0.149291 0
M  V30 15640 N 1424.89 -0.604284 -1.45555 0
M  V30 15641 C 1425.82 0.103859 -2.33269 0
M  V30 15642 C 1426.8 0.862104 -1.46635 0
M  V30 15643 O 1427.98 0.833308 -1.75413 0
M  V30 15644 C 1425.11 1.104 -3.29286 0
M  V30 15645 C 1424.07 0.459189 -4.2553 0
M  V30 15646 C 1423.39 1.56734 -5.11213 0
M  V30 15647 C 1424.69 -0.617509 -5.18637 0
M  V30 15648 H 1426.39 -0.628538 -2.92728 0
M  V30 15649 H 1423.93 -0.303711 -1.40761 0
M  V30 15650 H 1425.89 1.60794 -3.89517 0
M  V30 15651 H 1424.61 1.86695 -2.67979 0
M  V30 15652 H 1423.27 -0.0238508 -3.66592 0
M  V30 15653 H 1422.92 2.32049 -4.46276 0
M  V30 15654 H 1422.62 1.14142 -5.76407 0
M  V30 15655 H 1424.14 2.07361 -5.74312 0
M  V30 15656 H 1425.56 -0.197784 -5.72959 0
M  V30 15657 H 1423.95 -0.96499 -5.9229 0
M  V30 15658 H 1425.02 -1.49541 -4.61265 0
M  V30 15659 N 1426.37 1.53816 -0.343257 0
M  V30 15660 C 1427.59 2.05796 0.257418 0
M  V30 15661 C 1428.02 1.2166 1.43459 0
M  V30 15662 O 1427.37 0.230278 1.79832 0
M  V30 15663 C 1427.42 3.54681 0.65068 0
M  V30 15664 O 1426.53 3.73394 1.75074 0
M  V30 15665 H 1425.87 0.662622 0.042757 0
M  V30 15666 H 1428.4 1.98462 -0.497386 0
M  V30 15667 H 1428.41 3.97308 0.927914 0
M  V30 15668 H 1427.08 4.15368 -0.210199 0
M  V30 15669 H 1425.66 3.42669 1.4708 0
M  V30 15670 N 1427.84 0.0718701 1.57436 0
M  V30 15671 C 1429.07 -0.606253 1.97819 0
M  V30 15672 C 1429.49 -1.63144 0.950233 0
M  V30 15673 O 1428.84 -1.82391 -0.0631051 0
M  V30 15674 C 1428.9 -1.27476 3.38278 0
M  V30 15675 O 1428.62 -0.290603 4.37135 0
M  V30 15676 C 1430.12 -2.0407 3.93536 0
M  V30 15677 H 1427.34 -0.164305 0.650573 0
M  V30 15678 H 1429.88 0.144295 2.0399 0
M  V30 15679 H 1428.04 -1.97639 3.33193 0
M  V30 15680 H 1428.45 -0.77022 5.18814 0
M  V30 15681 H 1429.92 -2.46237 4.94036 0
M  V30 15682 H 1430.4 -2.89728 3.30083 0
M  V30 15683 H 1431.01 -1.38773 4.02022 0
M  V30 15684 N 1429.32 -1.56304 -0.201686 0
M  V30 15685 C 1430.27 -1.94901 -1.26949 0
M  V30 15686 C 1431.26 -0.833574 -1.47472 0
M  V30 15687 O 1432.47 -1.01854 -1.48411 0
M  V30 15688 H 1428.85 -0.619663 -0.426053 0
M  V30 15689 H 1430.82 -2.83964 -0.9169 0
M  V30 15690 C 1429.57 -2.29913 -2.60835 0
M  V30 15691 H 1428.89 -3.15268 -2.45858 0
M  V30 15692 H 1430.33 -2.60789 -3.34313 0
M  V30 15693 C 1428.79 -1.13136 -3.17335 0
M  V30 15694 O 1429.32 -0.402915 -3.99674 0
M  V30 15695 N 1427.52 -0.909912 -2.75987 0
M  V30 15696 H 1427.07 -1.50402 -2.09134 0
M  V30 15697 H 1427.03 -0.130348 -3.1413 0
M  V30 15698 N 1430.8 0.469154 -1.50455 0
M  V30 15699 C 1432.05 1.21788 -1.60781 0
M  V30 15700 C 1432.36 1.93054 -0.314576 0
M  V30 15701 O 1433.57 2.69873 -0.296773 0
M  V30 15702 C 1432.02 2.21305 -2.83817 0
M  V30 15703 C 1431.63 1.55833 -4.20024 0
M  V30 15704 C 1433.38 2.96808 -3.03489 0
M  V30 15705 C 1431.28 2.53648 -5.34244 0
M  V30 15706 H 1430.21 0.45827 -0.598752 0
M  V30 15707 H 1432.86 0.488159 -1.76888 0
M  V30 15708 H 1431.25 2.97577 -2.61273 0
M  V30 15709 H 1432.42 0.853371 -4.52829 0
M  V30 15710 H 1430.74 0.926046 -4.05972 0
M  V30 15711 H 1433.33 3.70017 -3.85994 0
M  V30 15712 H 1433.68 3.56307 -2.15293 0
M  V30 15713 H 1434.21 2.27648 -3.26223 0
M  V30 15714 H 1430.95 1.98885 -6.246 0
M  V30 15715 H 1430.47 3.22291 -5.05854 0
M  V30 15716 H 1432.15 3.15438 -5.64897 0
M  V30 15717 N 1432.28 1.40065 0.722464 0
M  V30 15718 C 1433.21 1.42532 1.84951 0
M  V30 15719 C 1434.19 0.287082 1.6766 0
M  V30 15720 O 1435.37 0.494715 1.87793 0
M  V30 15721 C 1432.5 1.28041 3.22836 0
M  V30 15722 C 1431.46 2.39396 3.54787 0
M  V30 15723 C 1430.78 2.09986 4.91742 0
M  V30 15724 C 1432.08 3.81729 3.56483 0
M  V30 15725 H 1433.78 2.36851 1.83144 0
M  V30 15726 H 1431.32 1.14005 0.879714 0
M  V30 15727 H 1433.28 1.28385 4.01367 0
M  V30 15728 H 1432 0.301947 3.25201 0
M  V30 15729 H 1430.66 2.3829 2.78592 0
M  V30 15730 H 1430.31 1.10547 4.90702 0
M  V30 15731 H 1430.01 2.84586 5.14086 0
M  V30 15732 H 1431.53 2.12 5.72615 0
M  V30 15733 H 1432.95 3.84696 4.25067 0
M  V30 15734 H 1431.34 4.55791 3.90351 0
M  V30 15735 H 1432.41 4.11807 2.56014 0
M  V30 15736 N 1433.76 -0.95397 1.25448 0
M  V30 15737 C 1434.69 -2.06828 1.08372 0
M  V30 15738 C 1435.67 -1.70098 -0.00741585 0
M  V30 15739 O 1436.85 -1.93521 0.16224 0
M  V30 15740 C 1433.98 -3.40124 0.702365 0
M  V30 15741 C 1432.94 -3.90865 1.74381 0
M  V30 15742 C 1432.26 -5.20663 1.21712 0
M  V30 15743 C 1433.56 -4.17169 3.14273 0
M  V30 15744 H 1435.26 -2.21372 2.01581 0
M  V30 15745 H 1432.8 -1.06374 0.970592 0
M  V30 15746 H 1434.76 -4.17529 0.569837 0
M  V30 15747 H 1433.48 -3.2552 -0.265428 0
M  V30 15748 H 1432.14 -3.15628 1.86479 0
M  V30 15749 H 1431.79 -5.02429 0.23954 0
M  V30 15750 H 1431.49 -5.55581 1.91319 0
M  V30 15751 H 1433.01 -6.00665 1.097 0
M  V30 15752 H 1434.43 -4.85231 3.05325 0
M  V30 15753 H 1432.82 -4.63344 3.81356 0
M  V30 15754 H 1433.89 -3.23421 3.61285 0
M  V30 15755 N 1435.24 -1.07045 -1.15668 0
M  V30 15756 C 1436.48 -0.792908 -1.86657 0
M  V30 15757 C 1436.81 0.679213 -1.81935 0
M  V30 15758 O 1436.09 1.49822 -1.2403 0
M  V30 15759 C 1436.37 -1.2978 -3.35901 0
M  V30 15760 C 1436.23 -2.83424 -3.49272 0
M  V30 15761 C 1437.54 -0.911821 -4.30551 0
M  V30 15762 H 1434.66 -0.289509 -0.677756 0
M  V30 15763 H 1437.31 -1.32769 -1.35913 0
M  V30 15764 H 1435.46 -0.84288 -3.79246 0
M  V30 15765 H 1437.13 -3.37182 -3.14811 0
M  V30 15766 H 1435.37 -3.21777 -2.90933 0
M  V30 15767 H 1436.04 -3.13819 -4.54116 0
M  V30 15768 H 1438.52 -1.30376 -3.95147 0
M  V30 15769 H 1437.39 -1.29247 -5.33467 0
M  V30 15770 H 1437.65 0.18255 -4.41723 0
M  V30 15771 N 1436.71 1.32449 -0.85411 0
M  V30 15772 C 1437.66 2.30821 -0.287115 0
M  V30 15773 C 1438.66 1.58823 0.58921 0
M  V30 15774 O 1439.86 1.73563 0.477075 0
M  V30 15775 H 1436.24 0.748336 -0.0741416 0
M  V30 15776 H 1438.21 2.76134 -1.13104 0
M  V30 15777 C 1436.96 3.43937 0.51013 0
M  V30 15778 H 1436.28 3.995 -0.154895 0
M  V30 15779 H 1437.72 4.14927 0.872451 0
M  V30 15780 C 1436.18 2.91147 1.69513 0
M  V30 15781 O 1436.71 2.88595 2.7942 0
M  V30 15782 N 1434.91 2.47554 1.52202 0
M  V30 15783 H 1434.46 2.49829 0.627941 0
M  V30 15784 H 1434.42 2.12587 2.31633 0
M  V30 15785 N 1438.19 0.611994 1.45232 0
M  V30 15786 C 1439.12 -0.0914869 2.33321 0
M  V30 15787 C 1440.1 -0.854315 1.4709 0
M  V30 15788 O 1441.29 -0.823994 1.75852 0
M  V30 15789 C 1438.42 -1.08652 3.29867 0
M  V30 15790 C 1437.37 -0.436615 4.25767 0
M  V30 15791 C 1436.7 -1.54021 5.12037 0
M  V30 15792 C 1438 0.645005 5.18302 0
M  V30 15793 H 1439.69 0.644053 2.92391 0
M  V30 15794 H 1437.24 0.311171 1.40598 0
M  V30 15795 H 1439.19 -1.58726 3.90364 0
M  V30 15796 H 1437.91 -1.85271 2.68965 0
M  V30 15797 H 1436.57 0.0432918 3.66574 0
M  V30 15798 H 1436.22 -2.29679 4.475 0
M  V30 15799 H 1435.92 -1.11084 5.77005 0
M  V30 15800 H 1437.45 -2.04313 5.75403 0
M  V30 15801 H 1438.86 0.228166 5.72846 0
M  V30 15802 H 1437.26 0.996387 5.9177 0
M  V30 15803 H 1438.33 1.51985 4.60466 0
M  V30 15804 N 1439.67 -1.53632 0.351409 0
M  V30 15805 C 1440.6 -2.28217 -0.49391 0
M  V30 15806 C 1441.58 -1.30085 -1.09599 0
M  V30 15807 O 1442.77 -1.58938 -1.1159 0
M  V30 15808 C 1439.9 -3.06085 -1.64102 0
M  V30 15809 C 1438.85 -4.11786 -1.16689 0
M  V30 15810 C 1438.18 -4.77654 -2.40314 0
M  V30 15811 C 1439.48 -5.21644 -0.261742 0
M  V30 15812 H 1441.17 -2.99125 0.1283 0
M  V30 15813 H 1438.72 -1.43861 0.0631462 0
M  V30 15814 H 1440.67 -3.57003 -2.2389 0
M  V30 15815 H 1439.39 -2.32842 -2.29025 0
M  V30 15816 H 1438.05 -3.61792 -0.591784 0
M  V30 15817 H 1437.7 -4.00997 -3.03661 0
M  V30 15818 H 1437.4 -5.49072 -2.09268 0
M  V30 15819 H 1438.92 -5.3136 -3.00813 0
M  V30 15820 H 1440.34 -5.6815 -0.766689 0
M  V30 15821 H 1438.73 -6.00085 -0.0428132 0
M  V30 15822 H 1439.8 -4.79821 0.699999 0
M  V30 15823 N 1441.15 -0.0802183 -1.57396 0
M  V30 15824 C 1442.39 0.587831 -1.94094 0
M  V30 15825 C 1442.73 1.6875 -0.961093 0
M  V30 15826 O 1442 1.94498 0.00832799 0
M  V30 15827 C 1442.28 1.15692 -3.41009 0
M  V30 15828 C 1442.14 0.0633211 -4.49755 0
M  V30 15829 C 1443.46 2.05987 -3.88918 0
M  V30 15830 H 1440.58 0.212214 -0.705786 0
M  V30 15831 H 1443.22 -0.147902 -1.89423 0
M  V30 15832 H 1441.37 1.78394 -3.4512 0
M  V30 15833 H 1443.04 -0.57019 -4.57763 0
M  V30 15834 H 1441.28 -0.605003 -4.2956 0
M  V30 15835 H 1441.95 0.502056 -5.49712 0
M  V30 15836 H 1444.43 1.5321 -3.86867 0
M  V30 15837 H 1443.31 2.42737 -4.92311 0
M  V30 15838 H 1443.57 2.97147 -3.27347 0
M  V30 15839 N 1442.63 1.56409 0.193394 0
M  V30 15840 C 1443.59 1.93822 1.22334 0
M  V30 15841 C 1444.59 0.819513 1.3835 0
M  V30 15842 O 1445.78 1.0869 1.36132 0
M  V30 15843 C 1442.91 2.21375 2.59241 0
M  V30 15844 H 1444.1 2.85967 0.903502 0
M  V30 15845 H 1441.66 1.50125 0.43498 0
M  V30 15846 H 1442.39 1.31874 2.96277 0
M  V30 15847 H 1442.18 3.02899 2.48988 0
M  V30 15848 H 1443.67 2.51319 3.33509 0
M  V30 15849 N 1444.1 -0.461169 1.50702 0
M  V30 15850 C 1445.04 -1.57702 1.64941 0
M  V30 15851 C 1446.01 -1.54808 0.497312 0
M  V30 15852 O 1447.2 -1.74286 0.718104 0
M  V30 15853 C 1444.33 -2.96285 1.64112 0
M  V30 15854 C 1443.37 -3.17296 2.85001 0
M  V30 15855 S 1444.2 -2.96134 4.46167 0
M  V30 15856 C 1445.36 -4.37042 4.48046 0
M  V30 15857 H 1445.59 -1.45386 2.59327 0
M  V30 15858 H 1443.13 -0.649209 1.40088 0
M  V30 15859 H 1445.08 -3.76178 1.64318 0
M  V30 15860 H 1443.75 -3.05983 0.709442 0
M  V30 15861 H 1442.94 -4.18561 2.80754 0
M  V30 15862 H 1442.54 -2.45191 2.82413 0
M  V30 15863 H 1444.83 -5.29846 4.2222 0
M  V30 15864 H 1445.78 -4.4633 5.49723 0
M  V30 15865 H 1446.18 -4.19584 3.77637 0
M  V30 15866 N 1445.58 -1.40446 -0.715026 0
M  V30 15867 C 1446.83 -1.38754 -1.47491 0
M  V30 15868 C 1447.16 0.0099443 -1.94497 0
M  V30 15869 O 1446.41 0.99458 -1.68543 0
M  V30 15870 C 1446.71 -2.32392 -2.7153 0
M  V30 15871 C 1446.38 -3.79635 -2.43286 0
M  V30 15872 C 1445.04 -4.19751 -2.35293 0
M  V30 15873 C 1447.39 -4.72681 -2.19596 0
M  V30 15874 C 1444.72 -5.50947 -2.01679 0
M  V30 15875 C 1447.07 -6.04176 -1.87495 0
M  V30 15876 C 1445.73 -6.43333 -1.77985 0
M  V30 15877 H 1445 -0.507738 -0.539706 0
M  V30 15878 H 1447.65 -1.73104 -0.81898 0
M  V30 15879 H 1445.96 -1.91229 -3.41963 0
M  V30 15880 H 1447.65 -2.28366 -3.29621 0
M  V30 15881 H 1444.24 -3.47852 -2.50393 0
M  V30 15882 H 1448.43 -4.42506 -2.24727 0
M  V30 15883 H 1443.68 -5.80187 -1.92854 0
M  V30 15884 H 1447.86 -6.75788 -1.68179 0
M  V30 15885 H 1445.48 -7.44909 -1.51706 0
M  V30 15886 N 1447.06 0.947303 -1.25952 0
M  V30 15887 C 1448.31 1.68945 -1.10915 0
M  V30 15888 C 1448.63 1.91848 0.349216 0
M  V30 15889 O 1447.9 1.5108 1.24706 0
M  V30 15890 H 1446.48 0.626086 -0.407462 0
M  V30 15891 H 1449.14 1.13854 -1.58187 0
M  V30 15892 H 1448.24 2.6657 -1.62317 0
M  V30 15893 N 1448.54 1.07657 1.15099 0
M  V30 15894 C 1449.77 0.821631 1.89559 0
M  V30 15895 C 1450.18 -0.629174 1.78432 0
M  V30 15896 O 1449.52 -1.44353 1.13613 0
M  V30 15897 C 1449.58 1.15473 3.4045 0
M  V30 15898 C 1449.25 2.60675 3.75363 0
M  V30 15899 C 1450.24 3.58923 3.76125 0
M  V30 15900 C 1447.93 2.96333 4.05576 0
M  V30 15901 C 1449.92 4.90863 4.06611 0
M  V30 15902 C 1447.61 4.28469 4.35727 0
M  V30 15903 C 1448.61 5.25543 4.36226 0
M  V30 15904 O 1448.29 6.55305 4.65651 0
M  V30 15905 H 1448.03 0.296469 0.607521 0
M  V30 15906 H 1450.58 1.43722 1.46742 0
M  V30 15907 H 1448.81 0.482117 3.83683 0
M  V30 15908 H 1450.5 0.881832 3.96205 0
M  V30 15909 H 1451.27 3.32718 3.52879 0
M  V30 15910 H 1447.14 2.2142 4.04344 0
M  V30 15911 H 1450.69 5.66626 4.06916 0
M  V30 15912 H 1446.59 4.54425 4.58441 0
M  V30 15913 H 1447.35 6.60503 4.83402 0
M  V30 15914 N 1450.02 -1.31994 0.861122 0
M  V30 15915 C 1451.24 -2.01211 0.481865 0
M  V30 15916 C 1451.66 -1.64687 -0.923233 0
M  V30 15917 O 1451.02 -0.87151 -1.60346 0
M  V30 15918 C 1451.07 -3.56162 0.618919 0
M  V30 15919 O 1450.79 -3.91376 1.96868 0
M  V30 15920 C 1452.29 -4.42652 0.239514 0
M  V30 15921 H 1449.51 -0.643922 0.188693 0
M  V30 15922 H 1452.05 -1.68427 1.15985 0
M  V30 15923 H 1450.21 -3.87398 -0.0114042 0
M  V30 15924 H 1450.62 -4.86095 1.97008 0
M  V30 15925 H 1452.1 -5.50646 0.386394 0
M  V30 15926 H 1452.57 -4.31466 -0.820598 0
M  V30 15927 H 1453.18 -4.16818 0.845175 0
M  V30 15928 N 1451.49 -0.619688 -1.44906 0
M  V30 15929 C 1452.74 -0.11981 -2.02446 0
M  V30 15930 C 1453.07 1.2509 -1.48546 0
M  V30 15931 O 1452.35 1.82781 -0.664942 0
M  V30 15932 C 1452.63 -0.0940205 -3.59977 0
M  V30 15933 C 1452.48 -1.49626 -4.24184 0
M  V30 15934 C 1453.8 0.58748 -4.36161 0
M  V30 15935 H 1450.92 -0.0450119 -0.735624 0
M  V30 15936 H 1453.56 -0.793975 -1.72615 0
M  V30 15937 H 1451.71 0.480073 -3.85522 0
M  V30 15938 H 1453.39 -2.11836 -4.09784 0
M  V30 15939 H 1451.63 -2.05348 -3.82119 0
M  V30 15940 H 1452.3 -1.43035 -5.33146 0
M  V30 15941 H 1454.78 0.0993863 -4.15981 0
M  V30 15942 H 1453.65 0.574672 -5.45883 0
M  V30 15943 H 1453.91 1.65579 -4.09922 0
M  V30 15944 N 1452.97 1.53444 -0.359552 0
M  V30 15945 C 1454.22 2.00769 0.231564 0
M  V30 15946 C 1454.54 1.2487 1.49775 0
M  V30 15947 O 1453.81 0.360284 1.92558 0
M  V30 15948 H 1452.39 0.741732 0.0885581 0
M  V30 15949 H 1455.05 1.88785 -0.484397 0
M  V30 15950 H 1454.15 3.0865 0.462789 0
M  V30 15951 N 1454.45 0.0885642 1.57351 0
M  V30 15952 C 1455.68 -0.585238 1.9845 0
M  V30 15953 C 1456.09 -1.62127 0.967483 0
M  V30 15954 O 1455.45 -1.82448 -0.0437565 0
M  V30 15955 C 1455.5 -1.23881 3.39611 0
M  V30 15956 O 1455.22 -0.244223 4.37419 0
M  V30 15957 C 1456.72 -1.99885 3.95678 0
M  V30 15958 H 1453.94 -0.157396 0.652279 0
M  V30 15959 H 1456.49 0.165923 2.03826 0
M  V30 15960 H 1454.64 -1.94094 3.3527 0
M  V30 15961 H 1455.06 -0.715149 5.19602 0
M  V30 15962 H 1456.53 -2.40983 4.9662 0
M  V30 15963 H 1457.01 -2.8621 3.33137 0
M  V30 15964 H 1457.61 -1.34501 4.03472 0
M  V30 15965 N 1455.93 -1.56509 -0.185096 0
M  V30 15966 C 1457.17 -1.81474 -0.905263 0
M  V30 15967 C 1457.51 -0.664225 -1.82488 0
M  V30 15968 O 1456.78 0.33466 -1.91599 0
M  V30 15969 C 1457.07 -3.16754 -1.71287 0
M  V30 15970 C 1456.92 -4.42312 -0.817302 0
M  V30 15971 C 1458.24 -3.48828 -2.68342 0
M  V30 15972 H 1455.36 -0.660155 -0.327664 0
M  V30 15973 H 1458 -1.89219 -0.172129 0
M  V30 15974 H 1456.15 -3.10282 -2.33789 0
M  V30 15975 H 1457.82 -4.60839 -0.206218 0
M  V30 15976 H 1456.06 -4.33621 -0.124564 0
M  V30 15977 H 1456.73 -5.33487 -1.41758 0
M  V30 15978 H 1459.21 -3.55663 -2.15969 0
M  V30 15979 H 1458.09 -4.44585 -3.21924 0
M  V30 15980 H 1458.35 -2.72829 -3.47875 0
M  V30 15981 N 1457.41 0.45317 -1.50944 0
M  V30 15982 C 1458.34 1.56678 -1.67287 0
M  V30 15983 C 1459.35 1.53089 -0.553853 0
M  V30 15984 O 1460.54 1.58152 -0.827653 0
M  V30 15985 C 1457.64 2.95585 -1.65779 0
M  V30 15986 C 1456.81 3.2385 -2.94007 0
M  V30 15987 C 1455.87 4.42401 -2.84899 0
M  V30 15988 O 1454.9 4.4183 -3.58853 0
M  V30 15989 N 1456.1 5.4508 -1.99671 0
M  V30 15990 H 1458.87 1.43069 -2.63347 0
M  V30 15991 H 1456.43 0.641875 -1.48632 0
M  V30 15992 H 1458.42 3.7289 -1.57275 0
M  V30 15993 H 1456.99 3.02872 -0.773791 0
M  V30 15994 H 1456.21 2.34991 -3.16501 0
M  V30 15995 H 1457.5 3.39554 -3.7892 0
M  V30 15996 H 1456.89 5.48374 -1.38933 0
M  V30 15997 H 1455.45 6.21298 -1.97057 0
M  V30 15998 N 1458.88 1.40823 0.707568 0
M  V30 15999 C 1459.79 1.44058 1.85161 0
M  V30 16000 C 1460.81 0.332357 1.70796 0
M  V30 16001 O 1461.99 0.578205 1.92922 0
M  V30 16002 C 1459.05 1.3091 3.21035 0
M  V30 16003 C 1458.11 2.51944 3.47595 0
M  V30 16004 C 1457.35 2.39414 4.76987 0
M  V30 16005 O 1457.57 1.41224 5.52641 0
M  V30 16006 O 1456.5 3.28944 5.04063 0
M  V30 16007 H 1460.33 2.40551 1.85388 0
M  V30 16008 H 1457.91 1.22232 0.859052 0
M  V30 16009 H 1459.8 1.25816 4.02179 0
M  V30 16010 H 1458.47 0.375263 3.21517 0
M  V30 16011 H 1457.38 2.62615 2.66428 0
M  V30 16012 H 1458.71 3.44115 3.51917 0
M  V30 16013 N 1460.36 -0.94061 1.26453 0
M  V30 16014 C 1461.31 -2.06073 1.07873 0
M  V30 16015 C 1462.3 -1.69399 0.0055001 0
M  V30 16016 O 1463.51 -1.79267 0.162224 0
M  V30 16017 H 1459.89 -0.674748 0.331993 0
M  V30 16018 H 1461.86 -2.18895 2.02799 0
M  V30 16019 C 1460.61 -3.39971 0.729054 0
M  V30 16020 H 1459.93 -3.68667 1.54675 0
M  V30 16021 H 1461.37 -4.1916 0.638844 0
M  V30 16022 C 1459.83 -3.32114 -0.565835 0
M  V30 16023 O 1460.36 -3.68287 -1.60399 0
M  V30 16024 N 1458.56 -2.85218 -0.556679 0
M  V30 16025 H 1458.11 -2.55979 0.288541 0
M  V30 16026 H 1458.07 -2.80344 -1.42318 0
M  V30 16027 N 1461.84 -1.08266 -1.14527 0
M  V30 16028 C 1462.79 -0.705807 -2.21633 0
M  V30 16029 C 1463.78 0.287758 -1.66938 0
M  V30 16030 O 1464.99 0.150479 -1.7937 0
M  V30 16031 H 1461.36 -0.210206 -0.722023 0
M  V30 16032 H 1463.33 -1.61855 -2.5069 0
M  V30 16033 C 1462.08 -0.129673 -3.47458 0
M  V30 16034 H 1461.41 -0.885365 -3.89873 0
M  V30 16035 H 1462.85 0.0962264 -4.23891 0
M  V30 16036 C 1461.31 1.13208 -3.1731 0
M  V30 16037 O 1461.84 2.21717 -3.34969 0
M  V30 16038 N 1460.04 1.0419 -2.7128 0
M  V30 16039 H 1459.59 0.15883 -2.5711 0
M  V30 16040 H 1459.55 1.88689 -2.51483 0
M  V30 16041 N 1463.32 1.31536 -0.86811 0
M  V30 16042 C 1464.6 1.9149 -0.398866 0
M  V30 16043 C 1464.98 1.79008 1.1189 0
M  V30 16044 O 1464.32 1.19659 1.94664 0
M  V30 16045 C 1464.53 3.37771 -0.878173 0
M  V30 16046 C 1465.88 4.14882 -0.903216 0
M  V30 16047 O 1466.91 3.46545 -0.823703 0
M  V30 16048 O 1465.77 5.36936 -1.01794 0
M  V30 16049 H 1462.86 0.818398 -0.118971 0
M  V30 16050 H 1465.41 1.40216 -0.955899 0
M  V30 16051 H 1464.18 3.40861 -1.9217 0
M  V30 16052 H 1463.8 3.96472 -0.299346 0
M  V30 16053 N 1464.8 0.627364 1.44575 0
M  V30 16054 C 1465.73 -0.118179 2.28895 0
M  V30 16055 C 1466.74 -0.812569 1.41071 0
M  V30 16056 O 1467.93 -0.674646 1.6526 0
M  V30 16057 C 1465.03 -1.18937 3.17344 0
M  V30 16058 C 1464.2 -0.578226 4.33561 0
M  V30 16059 C 1463.26 -1.54288 5.03072 0
M  V30 16060 O 1462.29 -1.06148 5.59215 0
M  V30 16061 N 1463.49 -2.87725 5.04177 0
M  V30 16062 H 1466.26 0.605442 2.93521 0
M  V30 16063 H 1463.82 0.468253 1.54981 0
M  V30 16064 H 1465.81 -1.83494 3.60711 0
M  V30 16065 H 1464.38 -1.81526 2.54494 0
M  V30 16066 H 1463.6 0.245883 3.93432 0
M  V30 16067 H 1464.89 -0.150502 5.08577 0
M  V30 16068 H 1464.29 -3.29421 4.5989 0
M  V30 16069 H 1462.84 -3.47653 5.51344 0
M  V30 16070 N 1466.28 -1.53251 0.367684 0
M  V30 16071 C 1467.52 -2.01585 -0.221679 0
M  V30 16072 C 1467.85 -1.25444 -1.48248 0
M  V30 16073 O 1467.13 -0.348726 -1.91348 0
M  V30 16074 C 1467.41 -3.56449 -0.511507 0
M  V30 16075 C 1467.27 -4.4328 0.763075 0
M  V30 16076 C 1468.58 -4.20113 -1.31121 0
M  V30 16077 H 1465.7 -0.732743 -0.0790954 0
M  V30 16078 H 1468.35 -1.83493 0.492991 0
M  V30 16079 H 1466.5 -3.71996 -1.12033 0
M  V30 16080 H 1468.17 -4.39526 1.40052 0
M  V30 16081 H 1466.41 -4.11164 1.38299 0
M  V30 16082 H 1467.08 -5.4959 0.515215 0
M  V30 16083 H 1469.56 -4.08412 -0.796169 0
M  V30 16084 H 1468.43 -5.28494 -1.48274 0
M  V30 16085 H 1468.69 -3.76316 -2.32032 0
M  V30 16086 N 1467.75 -0.0969077 -1.57302 0
M  V30 16087 C 1469 0.561074 -1.95508 0
M  V30 16088 C 1469.35 1.6568 -0.97816 0
M  V30 16089 O 1468.65 1.91599 -0.00445428 0
M  V30 16090 C 1468.84 1.15972 -3.38061 0
M  V30 16091 C 1468.67 0.123524 -4.4953 0
M  V30 16092 C 1467.44 -0.30062 -5.04405 0
M  V30 16093 C 1469.64 -0.649001 -5.10189 0
M  V30 16094 N 1467.62 -1.3249 -5.99433 0
M  V30 16095 C 1468.99 -1.52506 -6.00951 0
M  V30 16096 C 1471.05 -0.70232 -4.92922 0
M  V30 16097 C 1469.75 -2.44976 -6.76298 0
M  V30 16098 C 1471.78 -1.61463 -5.68932 0
M  V30 16099 C 1471.14 -2.47831 -6.59363 0
M  V30 16100 H 1467.24 0.175591 -0.762031 0
M  V30 16101 H 1469.82 -0.179896 -1.93867 0
M  V30 16102 H 1467.99 1.87051 -3.40392 0
M  V30 16103 H 1469.72 1.78022 -3.63442 0
M  V30 16104 H 1466.48 0.0874763 -4.73519 0
M  V30 16105 H 1466.9 -1.8353 -6.51648 0
M  V30 16106 H 1471.54 -0.0487412 -4.22772 0
M  V30 16107 H 1469.26 -3.11358 -7.45709 0
M  V30 16108 H 1472.85 -1.66104 -5.57585 0
M  V30 16109 H 1471.73 -3.17278 -7.1715 0
M  V30 16110 N 1469.23 1.56605 0.176793 0
M  V30 16111 C 1470.18 1.95985 1.21896 0
M  V30 16112 C 1471.15 0.822983 1.44278 0
M  V30 16113 O 1472.33 1.08266 1.57109 0
M  V30 16114 C 1469.47 2.32029 2.55454 0
M  V30 16115 C 1468.59 3.58867 2.40497 0
M  V30 16116 C 1467.72 3.84148 3.66884 0
M  V30 16117 C 1466.76 5.04352 3.46837 0
M  V30 16118 N 1465.9 5.25794 4.6528 0
M  V30 16119 H 1470.74 2.84829 0.876137 0
M  V30 16120 H 1468.27 1.4094 0.421221 0
M  V30 16121 H 1470.23 2.50947 3.33289 0
M  V30 16122 H 1468.86 1.46301 2.87743 0
M  V30 16123 H 1467.91 3.47893 1.53866 0
M  V30 16124 H 1469.23 4.46859 2.21627 0
M  V30 16125 H 1468.38 4.03404 4.53155 0
M  V30 16126 H 1467.12 2.9452 3.88727 0
M  V30 16127 H 1466.12 4.84999 2.58952 0
M  V30 16128 H 1467.35 5.95505 3.26421 0
M  V30 16129 H 1465.3 4.39117 4.87352 0
M  V30 16130 H 1465.21 6.07999 4.49303 0
M  V30 16131 H 1466.48 5.49524 5.5285 0
M  V30 16132 N 1470.71 -0.445159 1.51182 0
M  V30 16133 C 1471.96 -1.19524 1.63463 0
M  V30 16134 C 1472.28 -1.91377 0.347136 0
M  V30 16135 O 1471.54 -1.83932 -0.668408 0
M  V30 16136 C 1471.84 -2.24274 2.78273 0
M  V30 16137 C 1471.5 -1.6949 4.17833 0
M  V30 16138 C 1470.17 -1.54271 4.558 0
M  V30 16139 C 1472.52 -1.29128 5.04951 0
M  V30 16140 C 1469.85 -0.971532 5.786 0
M  V30 16141 C 1472.2 -0.734426 6.28322 0
M  V30 16142 C 1470.86 -0.569079 6.6507 0
M  V30 16143 H 1470.13 -0.437369 0.598155 0
M  V30 16144 H 1472.78 -0.48742 1.85193 0
M  V30 16145 H 1471.08 -3.01065 2.50734 0
M  V30 16146 H 1472.78 -2.82117 2.84975 0
M  V30 16147 H 1469.37 -1.82309 3.87894 0
M  V30 16148 H 1473.56 -1.39709 4.7623 0
M  V30 16149 H 1468.81 -0.831117 6.05725 0
M  V30 16150 H 1472.99 -0.413133 6.95173 0
M  V30 16151 H 1470.61 -0.124355 7.60098 0
M  V30 16152 N 1472.19 -1.41197 -0.700089 0
M  V30 16153 C 1473.12 -1.38616 -1.82533 0
M  V30 16154 C 1474.13 -0.289047 -1.60213 0
M  V30 16155 O 1475.32 -0.550465 -1.698 0
M  V30 16156 C 1472.42 -1.13815 -3.19217 0
M  V30 16157 C 1471.59 -2.3548 -3.68603 0
M  V30 16158 C 1470.65 -2.06604 -4.83943 0
M  V30 16159 O 1469.68 -2.79604 -4.95792 0
M  V30 16160 N 1470.88 -1.05351 -5.7086 0
M  V30 16161 H 1473.65 -2.35598 -1.8524 0
M  V30 16162 H 1471.21 -1.3575 -0.882238 0
M  V30 16163 H 1473.2 -0.924571 -3.93997 0
M  V30 16164 H 1471.77 -0.254468 -3.11563 0
M  V30 16165 H 1470.99 -2.72569 -2.8478 0
M  V30 16166 H 1472.28 -3.16553 -3.98336 0
M  V30 16167 H 1471.68 -0.449223 -5.63914 0
M  V30 16168 H 1470.23 -0.899819 -6.45559 0
M  V30 16169 N 1473.67 0.933891 -1.2695 0
M  V30 16170 C 1475.08 1.20873 -1.0422 0
M  V30 16171 C 1475.28 2.00205 0.228112 0
M  V30 16172 O 1474.34 2.34539 0.935284 0
M  V30 16173 C 1475.65 1.9629 -2.27795 0
M  V30 16174 C 1477.2 2.09254 -2.3277 0
M  V30 16175 C 1477.67 2.88075 -3.56057 0
M  V30 16176 N 1479.16 2.95646 -3.56578 0
M  V30 16177 C 1479.9 3.57082 -4.48642 0
M  V30 16178 N 1479.4 4.1996 -5.51004 0
M  V30 16179 N 1481.19 3.54425 -4.36279 0
M  V30 16180 H 1473.34 0.403735 -2.08528 0
M  V30 16181 H 1475.6 0.241189 -0.916805 0
M  V30 16182 H 1475.31 1.45412 -3.20231 0
M  V30 16183 H 1475.18 2.9693 -2.32621 0
M  V30 16184 H 1477.57 2.5932 -1.40844 0
M  V30 16185 H 1477.65 1.07854 -2.31951 0
M  V30 16186 H 1477.29 2.38693 -4.48317 0
M  V30 16187 H 1477.22 3.89746 -3.54126 0
M  V30 16188 H 1479.72 2.50951 -2.82545 0
M  V30 16189 H 1480.03 4.64758 -6.1743 0
M  V30 16190 H 1478.37 4.18525 -5.54853 0
M  V30 16191 H 1481.56 3.045 -3.55524 0
M  V30 16192 H 1481.74 4.02016 -5.0822 0
M  V30 16193 N 1475.14 1.08871 1.13951 0
M  V30 16194 C 1476.37 0.841691 1.88677 0
M  V30 16195 C 1476.78 -0.610213 1.79089 0
M  V30 16196 O 1476.12 -1.4314 1.15138 0
M  V30 16197 C 1476.19 1.19077 3.39206 0
M  V30 16198 C 1475.85 2.64642 3.72577 0
M  V30 16199 C 1476.85 3.62892 3.72297 0
M  V30 16200 C 1474.53 3.00618 4.0241 0
M  V30 16201 C 1476.53 4.95148 4.01382 0
M  V30 16202 C 1474.21 4.33066 4.31158 0
M  V30 16203 C 1475.21 5.3014 4.30628 0
M  V30 16204 O 1474.9 6.60207 4.58675 0
M  V30 16205 H 1474.63 0.302896 0.604343 0
M  V30 16206 H 1477.19 1.4527 1.45209 0
M  V30 16207 H 1475.42 0.522784 3.8315 0
M  V30 16208 H 1477.1 0.923805 3.95248 0
M  V30 16209 H 1477.87 3.36442 3.4933 0
M  V30 16210 H 1473.75 2.25696 4.01973 0
M  V30 16211 H 1477.29 5.7091 4.00884 0
M  V30 16212 H 1473.19 4.59262 4.53595 0
M  V30 16213 H 1473.96 6.65593 4.7637 0
M  V30 16214 N 1476.62 -1.31073 0.875073 0
M  V30 16215 C 1477.87 -1.96518 0.488549 0
M  V30 16216 C 1478.2 -1.69144 -0.960243 0
M  V30 16217 O 1477.45 -0.983344 -1.69201 0
M  V30 16218 C 1477.75 -3.50511 0.698351 0
M  V30 16219 C 1477.42 -3.97915 2.12071 0
M  V30 16220 C 1476.08 -4.10571 2.50968 0
M  V30 16221 C 1478.43 -4.22777 3.0481 0
M  V30 16222 C 1475.76 -4.45442 3.81836 0
M  V30 16223 C 1478.11 -4.59114 4.35198 0
M  V30 16224 C 1476.77 -4.69977 4.74002 0
M  V30 16225 H 1476.04 -0.719111 0.178773 0
M  V30 16226 H 1478.69 -1.56117 1.10904 0
M  V30 16227 H 1477 -3.918 -0.00523937 0
M  V30 16228 H 1478.69 -3.99205 0.379031 0
M  V30 16229 H 1475.28 -3.88565 1.80874 0
M  V30 16230 H 1479.47 -4.12489 2.75983 0
M  V30 16231 H 1474.72 -4.52051 4.11655 0
M  V30 16232 H 1478.9 -4.77303 5.07105 0
M  V30 16233 H 1476.52 -4.96753 5.75448 0
M  V30 16234 N 1478.1 -0.635022 -1.4424 0
M  V30 16235 C 1479.03 0.0543561 -2.33437 0
M  V30 16236 C 1480.01 0.830807 -1.48431 0
M  V30 16237 O 1481.2 0.795913 -1.77141 0
M  V30 16238 C 1478.33 1.03391 -3.31553 0
M  V30 16239 C 1477.28 0.368824 -4.26408 0
M  V30 16240 C 1476.61 1.45855 -5.14422 0
M  V30 16241 C 1477.91 -0.727381 -5.1721 0
M  V30 16242 H 1479.6 -0.690489 -2.91329 0
M  V30 16243 H 1477.15 -0.3335 -1.40085 0
M  V30 16244 H 1479.1 1.52495 -3.9284 0
M  V30 16245 H 1477.82 1.80969 -2.71878 0
M  V30 16246 H 1476.48 -0.101605 -3.66459 0
M  V30 16247 H 1476.13 2.22531 -4.51098 0
M  V30 16248 H 1475.83 1.0189 -5.78699 0
M  V30 16249 H 1477.35 1.95132 -5.78581 0
M  V30 16250 H 1478.77 -0.319272 -5.7241 0
M  V30 16251 H 1477.17 -1.09041 -5.9011 0
M  V30 16252 H 1478.24 -1.59292 -4.57989 0
M  V30 16253 N 1479.58 1.53054 -0.375806 0
M  V30 16254 C 1480.82 2.017 0.210985 0
M  V30 16255 C 1481.16 1.26228 1.47581 0
M  V30 16256 O 1480.43 0.358869 1.91161 0
M  V30 16257 C 1480.72 3.56715 0.492596 0
M  V30 16258 C 1480.57 4.42869 -0.786573 0
M  V30 16259 C 1481.89 4.20803 1.28891 0
M  V30 16260 H 1479.01 0.733153 0.0752084 0
M  V30 16261 H 1481.65 1.83229 -0.502715 0
M  V30 16262 H 1479.8 3.72585 1.10059 0
M  V30 16263 H 1481.47 4.38777 -1.42381 0
M  V30 16264 H 1479.71 4.10425 -1.40478 0
M  V30 16265 H 1480.38 5.49309 -0.544354 0
M  V30 16266 H 1482.86 4.08828 0.774498 0
M  V30 16267 H 1481.74 5.29273 1.45469 0
M  V30 16268 H 1482 3.77541 2.30033 0
M  V30 16269 N 1481.06 0.105248 1.57248 0
M  V30 16270 C 1481.99 -0.880221 2.11624 0
M  V30 16271 C 1483 -1.23924 1.05578 0
M  V30 16272 O 1484.19 -1.19059 1.32994 0
M  V30 16273 C 1481.29 -2.18628 2.5895 0
M  V30 16274 C 1480.46 -2.00105 3.88943 0
M  V30 16275 C 1479.52 -3.14315 4.2201 0
M  V30 16276 O 1478.55 -2.87832 4.91061 0
M  V30 16277 N 1479.75 -4.4037 3.78226 0
M  V30 16278 H 1482.52 -0.415742 2.96802 0
M  V30 16279 H 1480.08 -0.0795714 1.61704 0
M  V30 16280 H 1482.07 -2.94002 2.7811 0
M  V30 16281 H 1480.64 -2.56467 1.78727 0
M  V30 16282 H 1479.86 -1.09003 3.7883 0
M  V30 16283 H 1481.15 -1.85018 4.73968 0
M  V30 16284 H 1480.54 -4.64765 3.22506 0
M  V30 16285 H 1479.1 -5.1266 4.02521 0
M  V30 16286 N 1482.53 -1.56697 -0.168486 0
M  V30 16287 C 1483.44 -1.99866 -1.22845 0
M  V30 16288 C 1484.46 -0.910491 -1.48277 0
M  V30 16289 O 1485.64 -1.21834 -1.6037 0
M  V30 16290 C 1482.7 -2.35227 -2.54694 0
M  V30 16291 C 1481.76 -3.57886 -2.37099 0
M  V30 16292 C 1481 -3.91551 -3.62661 0
M  V30 16293 O 1481.22 -3.26148 -4.67957 0
M  V30 16294 O 1480.15 -4.8489 -3.56603 0
M  V30 16295 H 1483.98 -2.90305 -0.892015 0
M  V30 16296 H 1481.56 -1.44602 -0.375571 0
M  V30 16297 H 1483.45 -2.58928 -3.32467 0
M  V30 16298 H 1482.12 -1.4795 -2.87911 0
M  V30 16299 H 1481.03 -3.394 -1.57348 0
M  V30 16300 H 1482.36 -4.45714 -2.08806 0
M  V30 16301 N 1484.01 0.437135 -1.51416 0
M  V30 16302 C 1485.24 1.20723 -1.67659 0
M  V30 16303 C 1485.65 1.85476 -0.373547 0
M  V30 16304 O 1484.99 1.71516 0.657876 0
M  V30 16305 C 1485.06 2.33257 -2.73553 0
M  V30 16306 C 1484.72 1.8887 -4.16146 0
M  V30 16307 C 1485.72 1.39203 -5.00918 0
M  V30 16308 C 1483.4 1.96555 -4.62246 0
M  V30 16309 C 1485.4 0.978071 -6.29851 0
M  V30 16310 C 1483.08 1.54771 -5.91176 0
M  V30 16311 C 1484.08 1.05479 -6.74806 0
M  V30 16312 O 1483.77 0.64288 -8.01325 0
M  V30 16313 H 1483.5 0.36993 -0.565798 0
M  V30 16314 H 1486.05 0.524183 -1.98599 0
M  V30 16315 H 1484.28 3.04839 -2.37929 0
M  V30 16316 H 1485.97 2.95121 -2.78673 0
M  V30 16317 H 1486.74 1.3266 -4.66505 0
M  V30 16318 H 1482.62 2.33868 -3.97274 0
M  V30 16319 H 1486.16 0.592633 -6.95078 0
M  V30 16320 H 1482.06 1.60985 -6.25103 0
M  V30 16321 H 1482.83 0.768711 -8.14882 0
M  V30 16322 N 1485.49 1.41566 0.692592 0
M  V30 16323 C 1486.73 1.42554 1.46485 0
M  V30 16324 C 1487.09 0.0341685 1.9197 0
M  V30 16325 O 1488.3 -0.0811732 2.68677 0
M  V30 16326 C 1486.57 2.40673 2.64218 0
M  V30 16327 S 1488.13 2.60215 3.53318 0
M  V30 16328 H 1484.94 0.50496 0.500537 0
M  V30 16329 H 1487.55 1.78027 0.807867 0
M  V30 16330 H 1486.25 3.40561 2.29012 0
M  V30 16331 H 1485.78 2.06562 3.34807 0
M  V30 16332 H 1487.8 1.87179 4.59542 0
M  V30 16333 N 1486.97 -0.927146 1.27443 0
M  V30 16334 C 1488.19 -1.71426 1.16739 0
M  V30 16335 C 1488.62 -1.86122 -0.272063 0
M  V30 16336 O 1487.98 -1.36165 -1.19703 0
M  V30 16337 C 1488.02 -3.09131 1.85661 0
M  V30 16338 O 1487.13 -3.95897 1.15495 0
M  V30 16339 H 1486.47 -0.525428 0.405983 0
M  V30 16340 H 1489 -1.16022 1.68523 0
M  V30 16341 H 1489.01 -3.59442 1.93042 0
M  V30 16342 H 1487.68 -2.97752 2.90373 0
M  V30 16343 H 1486.26 -3.54337 1.16187 0
M  V30 16344 N 1488.45 -1.09474 -1.13372 0
M  V30 16345 C 1489.86 -0.824541 -1.36651 0
M  V30 16346 C 1490.06 0.560903 -1.93536 0
M  V30 16347 O 1489.12 1.31567 -2.15514 0
M  V30 16348 C 1490.43 -1.91618 -2.31739 0
M  V30 16349 C 1491.98 -1.94346 -2.45354 0
M  V30 16350 C 1492.45 -3.02655 -3.4375 0
M  V30 16351 N 1493.95 -3.01898 -3.513 0
M  V30 16352 C 1494.68 -3.82344 -4.27318 0
M  V30 16353 N 1494.18 -4.727 -5.06484 0
M  V30 16354 N 1495.97 -3.70602 -4.22623 0
M  V30 16355 H 1488.12 -1.98793 -0.748005 0
M  V30 16356 H 1490.38 -0.863318 -0.391646 0
M  V30 16357 H 1490.09 -2.91282 -1.97098 0
M  V30 16358 H 1489.96 -1.79484 -3.31761 0
M  V30 16359 H 1492.35 -0.953206 -2.79281 0
M  V30 16360 H 1492.43 -2.10558 -1.45255 0
M  V30 16361 H 1492.08 -4.01894 -3.10553 0
M  V30 16362 H 1492.01 -2.83687 -4.43655 0
M  V30 16363 H 1494.5 -2.36417 -2.94814 0
M  V30 16364 H 1494.81 -5.30665 -5.61796 0
M  V30 16365 H 1493.15 -4.76736 -5.05715 0
M  V30 16366 H 1496.35 -2.99372 -3.59853 0
M  V30 16367 H 1496.52 -4.33535 -4.81614 0
M  V30 16368 N 1489.92 1.30607 -0.882012 0
M  V30 16369 C 1490.85 2.30666 -0.362706 0
M  V30 16370 C 1491.84 1.60865 0.552861 0
M  V30 16371 O 1493.02 1.88493 0.467339 0
M  V30 16372 C 1490.15 3.44675 0.42622 0
M  V30 16373 C 1489.1 4.26152 -0.397322 0
M  V30 16374 C 1488.43 5.32185 0.518027 0
M  V30 16375 C 1489.73 4.95955 -1.63785 0
M  V30 16376 H 1491.42 2.74351 -1.19883 0
M  V30 16377 H 1488.97 1.31895 -0.577912 0
M  V30 16378 H 1490.92 4.13734 0.80013 0
M  V30 16379 H 1489.65 2.99787 1.29597 0
M  V30 16380 H 1488.31 3.58776 -0.753332 0
M  V30 16381 H 1487.95 4.83545 1.3854 0
M  V30 16382 H 1487.65 5.87593 -0.0291802 0
M  V30 16383 H 1489.18 6.04101 0.888518 0
M  V30 16384 H 1490.59 5.57547 -1.3347 0
M  V30 16385 H 1488.99 5.61215 -2.12504 0
M  V30 16386 H 1490.06 4.22252 -2.38394 0
M  V30 16387 N 1491.4 0.642663 1.43901 0
M  V30 16388 C 1492.35 -0.0673926 2.32502 0
M  V30 16389 C 1493.34 -0.823981 1.4801 0
M  V30 16390 O 1494.55 -0.735575 1.64284 0
M  V30 16391 H 1490.93 -0.0405715 0.750905 0
M  V30 16392 H 1492.9 0.69777 2.90127 0
M  V30 16393 C 1491.65 -1.02745 3.32173 0
M  V30 16394 H 1490.97 -0.454697 3.97206 0
M  V30 16395 H 1492.41 -1.49355 3.96824 0
M  V30 16396 C 1490.87 -2.11835 2.61969 0
M  V30 16397 O 1491.4 -3.20074 2.42725 0
M  V30 16398 N 1489.6 -1.88092 2.21517 0
M  V30 16399 H 1489.15 -1.00072 2.37368 0
M  V30 16400 H 1489.11 -2.61279 1.74873 0
M  V30 16401 N 1492.88 -1.52852 0.383918 0
M  V30 16402 C 1494.13 -2.00694 -0.201206 0
M  V30 16403 C 1494.44 -1.2748 -1.48352 0
M  V30 16404 O 1495.65 -1.66005 -2.14836 0
M  V30 16405 C 1494.11 -3.57567 -0.409117 0
M  V30 16406 C 1493.71 -4.39675 0.859628 0
M  V30 16407 C 1495.46 -4.13713 -0.950899 0
M  V30 16408 C 1493.36 -5.88138 0.620292 0
M  V30 16409 H 1492.29 -0.749854 -0.0789656 0
M  V30 16410 H 1494.95 -1.764 0.505488 0
M  V30 16411 H 1493.33 -3.78088 -1.17753 0
M  V30 16412 H 1494.5 -4.30923 1.63224 0
M  V30 16413 H 1492.82 -3.94724 1.32597 0
M  V30 16414 H 1495.41 -5.22284 -1.14558 0
M  V30 16415 H 1495.76 -3.69463 -1.9184 0
M  V30 16416 H 1496.29 -3.97062 -0.242195 0
M  V30 16417 H 1493.03 -6.367 1.55864 0
M  V30 16418 H 1492.55 -5.99693 -0.113483 0
M  V30 16419 H 1494.23 -6.46506 0.252775 0
M  V30 16420 N 1494.36 -0.113586 -1.5719 0
M  V30 16421 C 1495.77 0.412653 -1.82083 0
M  V30 16422 C 1496.12 1.66964 -1.03041 0
M  V30 16423 O 1495.25 2.14767 -0.265354 0
M  V30 16424 C 1495.84 0.755439 -3.3027 0
M  V30 16425 C 1494.4 1.22634 -3.55862 0
M  V30 16426 C 1493.55 0.232285 -2.76325 0
M  V30 16427 H 1496.5 -0.338792 -1.55042 0
M  V30 16428 H 1496.52 1.61335 -3.44603 0
M  V30 16429 H 1496.03 -0.1596 -3.87772 0
M  V30 16430 H 1494.13 2.15846 -3.03713 0
M  V30 16431 H 1494.25 1.1754 -4.64458 0
M  V30 16432 H 1492.61 0.718222 -2.44364 0
M  V30 16433 H 1493.39 -0.675756 -3.36583 0
M  V30 16434 N 1495.84 1.56784 0.160173 0
M  V30 16435 C 1497.08 1.82621 0.874982 0
M  V30 16436 C 1497.41 0.692427 1.81757 0
M  V30 16437 O 1496.67 -0.319535 1.93074 0
M  V30 16438 C 1496.97 3.14703 1.69402 0
M  V30 16439 C 1496.63 4.41839 0.899373 0
M  V30 16440 C 1495.29 4.7637 0.680099 0
M  V30 16441 C 1497.65 5.20072 0.342747 0
M  V30 16442 C 1494.97 5.86603 -0.106723 0
M  V30 16443 C 1497.33 6.3113 -0.431044 0
M  V30 16444 C 1495.99 6.64219 -0.661017 0
M  V30 16445 H 1495.26 0.668256 0.320178 0
M  V30 16446 H 1497.91 1.90993 0.139305 0
M  V30 16447 H 1496.21 3.01723 2.49941 0
M  V30 16448 H 1497.91 3.31906 2.25032 0
M  V30 16449 H 1494.5 4.14761 1.08033 0
M  V30 16450 H 1498.68 4.9378 0.499467 0
M  V30 16451 H 1493.94 6.1069 -0.294528 0
M  V30 16452 H 1498.11 6.9095 -0.869557 0
M  V30 16453 H 1495.74 7.49473 -1.27257 0
M  V30 16454 N 1497.32 -0.429099 1.51646 0
M  V30 16455 C 1498.73 -1.00868 1.57107 0
M  V30 16456 C 1499.08 -1.9209 0.399483 0
M  V30 16457 O 1498.2 -2.10948 -0.482709 0
M  V30 16458 C 1498.8 -1.83612 2.84732 0
M  V30 16459 C 1497.36 -2.36605 2.92737 0
M  V30 16460 C 1496.5 -1.1604 2.51853 0
M  V30 16461 H 1499.45 -0.21006 1.57304 0
M  V30 16462 H 1499.48 -2.69149 2.68959 0
M  V30 16463 H 1498.99 -1.17192 3.69983 0
M  V30 16464 H 1497.09 -3.06455 2.11934 0
M  V30 16465 H 1497.2 -2.68838 3.96564 0
M  V30 16466 H 1495.57 -1.50826 2.0524 0
M  V30 16467 H 1496.35 -0.51218 3.39458 0
M  V30 16468 N 1498.79 -1.41931 -0.685074 0
M  V30 16469 C 1500.04 -1.41852 -1.44514 0
M  V30 16470 C 1500.37 -0.0313137 -1.94475 0
M  V30 16471 O 1499.62 0.958606 -1.70614 0
M  V30 16472 C 1499.92 -2.38099 -2.6654 0
M  V30 16473 C 1499.59 -3.8471 -2.35178 0
M  V30 16474 C 1498.25 -4.24647 -2.26336 0
M  V30 16475 C 1500.6 -4.77232 -2.0952 0
M  V30 16476 C 1497.93 -5.55101 -1.89947 0
M  V30 16477 C 1500.28 -6.08017 -1.74638 0
M  V30 16478 C 1498.95 -6.46964 -1.64299 0
M  V30 16479 H 1498.22 -0.519072 -0.528815 0
M  V30 16480 H 1500.86 -1.74802 -0.782078 0
M  V30 16481 H 1499.17 -1.9844 -3.3783 0
M  V30 16482 H 1500.87 -2.35306 -3.24703 0
M  V30 16483 H 1497.46 -3.53085 -2.42959 0
M  V30 16484 H 1501.64 -4.47173 -2.1529 0
M  V30 16485 H 1496.9 -5.84148 -1.80503 0
M  V30 16486 H 1501.07 -6.79203 -1.53807 0
M  V30 16487 H 1498.7 -7.47959 -1.35871 0
M  V30 16488 N 1500.27 0.920374 -1.27933 0
M  V30 16489 C 1501.52 1.66338 -1.14081 0
M  V30 16490 C 1501.83 1.93107 0.311324 0
M  V30 16491 O 1503.04 2.65431 0.570862 0
M  V30 16492 C 1501.5 2.99624 -1.99383 0
M  V30 16493 C 1501.1 2.80527 -3.49297 0
M  V30 16494 C 1502.85 3.77474 -1.94199 0
M  V30 16495 C 1500.75 4.09413 -4.26773 0
M  V30 16496 H 1499.68 0.623935 -0.423346 0
M  V30 16497 H 1502.34 1.0219 -1.52412 0
M  V30 16498 H 1500.72 3.6487 -1.53902 0
M  V30 16499 H 1501.89 2.24002 -4.02691 0
M  V30 16500 H 1500.21 2.16097 -3.55937 0
M  V30 16501 H 1502.8 4.72997 -2.49356 0
M  V30 16502 H 1503.15 4.06069 -0.917249 0
M  V30 16503 H 1503.68 3.19036 -2.37614 0
M  V30 16504 H 1500.42 3.85994 -5.29801 0
M  V30 16505 H 1499.94 4.65574 -3.78155 0
M  V30 16506 H 1501.62 4.77721 -4.36339 0
M  V30 16507 N 1501.75 1.10074 1.1279 0
M  V30 16508 C 1503 0.842118 1.84489 0
M  V30 16509 C 1503.33 -0.630737 1.83672 0
M  V30 16510 O 1502.6 -1.46481 1.27959 0
M  V30 16511 C 1502.89 1.3864 3.32342 0
M  V30 16512 C 1502.74 2.92585 3.41635 0
M  V30 16513 C 1504.06 1.02565 4.27982 0
M  V30 16514 H 1501.18 0.307376 0.669842 0
M  V30 16515 H 1503.82 1.36326 1.32345 0
M  V30 16516 H 1501.97 0.943134 3.76878 0
M  V30 16517 H 1503.64 3.4541 3.0576 0
M  V30 16518 H 1501.88 3.29378 2.82299 0
M  V30 16519 H 1502.56 3.25749 4.45636 0
M  V30 16520 H 1505.03 1.40807 3.91552 0
M  V30 16521 H 1503.91 1.43345 5.29852 0
M  V30 16522 H 1504.17 -0.0653712 4.42052 0
M  V30 16523 N 1503.23 -1.30138 0.888926 0
M  V30 16524 C 1504.47 -1.95989 0.509365 0
M  V30 16525 C 1504.8 -1.70153 -0.942249 0
M  V30 16526 O 1504.06 -1.00123 -1.68148 0
M  V30 16527 C 1504.36 -3.4975 0.735488 0
M  V30 16528 C 1504.02 -3.95644 2.1628 0
M  V30 16529 C 1502.68 -4.07886 2.55309 0
M  V30 16530 C 1505.04 -4.1952 3.09277 0
M  V30 16531 C 1502.36 -4.41367 3.86539 0
M  V30 16532 C 1504.72 -4.54472 4.40043 0
M  V30 16533 C 1503.38 -4.64923 4.7896 0
M  V30 16534 H 1502.65 -0.717175 0.18639 0
M  V30 16535 H 1505.3 -1.54932 1.12553 0
M  V30 16536 H 1503.6 -3.91783 0.0363165 0
M  V30 16537 H 1505.3 -3.9878 0.421351 0
M  V30 16538 H 1501.89 -3.86624 1.84985 0
M  V30 16539 H 1506.07 -4.09539 2.80342 0
M  V30 16540 H 1501.33 -4.47659 4.16427 0
M  V30 16541 H 1505.5 -4.71897 5.12138 0
M  V30 16542 H 1503.13 -4.90622 5.80685 0
M  V30 16543 N 1504.71 -0.650285 -1.43559 0
M  V30 16544 C 1505.67 0.0336325 -2.29175 0
M  V30 16545 C 1506.67 0.753465 -1.42055 0
M  V30 16546 O 1507.86 0.595158 -1.63718 0
M  V30 16547 C 1504.99 1.05835 -3.24055 0
M  V30 16548 H 1506.18 -0.719643 -2.91138 0
M  V30 16549 H 1503.74 -0.411363 -1.5079 0
M  V30 16550 H 1504.47 1.84096 -2.66982 0
M  V30 16551 H 1504.26 0.545884 -3.88281 0
M  V30 16552 H 1505.75 1.53606 -3.88323 0
M  V30 16553 N 1506.18 1.52647 -0.392018 0
M  V30 16554 C 1507.41 2.05734 0.189018 0
M  V30 16555 C 1507.82 1.26338 1.40838 0
M  V30 16556 O 1507.16 0.303866 1.81169 0
M  V30 16557 C 1507.23 3.54095 0.621026 0
M  V30 16558 C 1506.89 4.54416 -0.485249 0
M  V30 16559 C 1507.89 5.02241 -1.3435 0
M  V30 16560 C 1505.57 4.98037 -0.653055 0
M  V30 16561 C 1507.57 5.92313 -2.35467 0
M  V30 16562 C 1505.25 5.87908 -1.66755 0
M  V30 16563 C 1506.25 6.34939 -2.51677 0
M  V30 16564 O 1505.94 7.23034 -3.51392 0
M  V30 16565 H 1505.67 0.675266 0.0315024 0
M  V30 16566 H 1508.23 1.97717 -0.556535 0
M  V30 16567 H 1506.46 3.5974 1.4186 0
M  V30 16568 H 1508.14 3.8991 1.12804 0
M  V30 16569 H 1508.91 4.6927 -1.22518 0
M  V30 16570 H 1504.79 4.61 -0.00176071 0
M  V30 16571 H 1508.33 6.28944 -3.01786 0
M  V30 16572 H 1504.23 6.20293 -1.78624 0
M  V30 16573 H 1505 7.41102 -3.47433 0
M  V30 16574 N 1507.66 0.121921 1.57128 0
M  V30 16575 C 1508.91 -0.535371 1.95295 0
M  V30 16576 C 1509.24 -1.665 1.00539 0
M  V30 16577 O 1508.49 -1.95677 0.0298129 0
M  V30 16578 C 1508.79 -1.10579 3.39863 0
M  V30 16579 C 1508.46 -0.0972144 4.50795 0
M  V30 16580 C 1507.12 0.180111 4.80863 0
M  V30 16581 C 1509.47 0.589973 5.1785 0
M  V30 16582 C 1506.8 1.15086 5.75302 0
M  V30 16583 C 1509.15 1.54937 6.13333 0
M  V30 16584 C 1507.82 1.83465 6.41792 0
M  V30 16585 H 1507.09 -0.195906 0.714634 0
M  V30 16586 H 1509.73 0.203445 1.90416 0
M  V30 16587 H 1508.04 -1.92143 3.4145 0
M  V30 16588 H 1509.73 -1.62252 3.66709 0
M  V30 16589 H 1506.32 -0.32355 4.27377 0
M  V30 16590 H 1510.51 0.38889 4.94774 0
M  V30 16591 H 1505.76 1.3786 5.95655 0
M  V30 16592 H 1509.94 2.08751 6.64376 0
M  V30 16593 H 1507.57 2.58841 7.14777 0
M  V30 16594 N 1509.14 -1.56867 -0.151857 0
M  V30 16595 C 1510.37 -1.86965 -0.879066 0
M  V30 16596 C 1510.78 -0.70756 -1.75471 0
M  V30 16597 O 1510.12 0.331966 -1.80676 0
M  V30 16598 C 1510.18 -3.11712 -1.79098 0
M  V30 16599 C 1509.85 -4.43737 -1.09298 0
M  V30 16600 C 1510.84 -5.17956 -0.449181 0
M  V30 16601 C 1508.53 -4.90465 -1.08394 0
M  V30 16602 C 1510.52 -6.37104 0.194342 0
M  V30 16603 C 1508.21 -6.09538 -0.436597 0
M  V30 16604 C 1509.21 -6.82703 0.201419 0
M  V30 16605 O 1508.9 -7.99515 0.838504 0
M  V30 16606 H 1508.63 -0.624074 -0.259822 0
M  V30 16607 H 1511.18 -2.04845 -0.150844 0
M  V30 16608 H 1509.41 -2.89828 -2.56002 0
M  V30 16609 H 1511.1 -3.28097 -2.38972 0
M  V30 16610 H 1511.87 -4.82926 -0.448012 0
M  V30 16611 H 1507.75 -4.33444 -1.56995 0
M  V30 16612 H 1511.29 -6.9415 0.69293 0
M  V30 16613 H 1507.19 -6.4403 -0.435417 0
M  V30 16614 H 1507.96 -8.15151 0.739688 0
M  V30 16615 N 1510.62 0.421051 -1.51871 0
M  V30 16616 C 1511.55 1.53273 -1.69064 0
M  V30 16617 C 1512.53 1.53435 -0.538182 0
M  V30 16618 O 1513.71 1.72321 -0.76406 0
M  V30 16619 C 1510.84 2.9183 -1.7191 0
M  V30 16620 C 1509.89 3.09628 -2.93314 0
M  V30 16621 S 1510.72 2.842 -4.53862 0
M  V30 16622 C 1511.88 4.25009 -4.59476 0
M  V30 16623 H 1512.11 1.38459 -2.6309 0
M  V30 16624 H 1509.64 0.611839 -1.4176 0
M  V30 16625 H 1511.6 3.71689 -1.74234 0
M  V30 16626 H 1510.26 3.03995 -0.790319 0
M  V30 16627 H 1509.45 4.1097 -2.91753 0
M  V30 16628 H 1509.06 2.37617 -2.88815 0
M  V30 16629 H 1511.35 5.18465 -4.36119 0
M  V30 16630 H 1512.29 4.31598 -5.61363 0
M  V30 16631 H 1512.7 4.09424 -3.88629 0
M  V30 16632 N 1512.1 1.42293 0.677538 0
M  V30 16633 C 1513.34 1.42827 1.43973 0
M  V30 16634 C 1513.68 0.0435041 1.94151 0
M  V30 16635 O 1512.95 -0.931794 1.70727 0
M  V30 16636 C 1513.23 2.45037 2.63873 0
M  V30 16637 C 1513.09 3.92694 2.19344 0
M  V30 16638 C 1514.41 2.4427 3.66087 0
M  V30 16639 H 1511.52 0.520097 0.522176 0
M  V30 16640 H 1514.17 1.73688 0.770219 0
M  V30 16641 H 1512.32 2.18851 3.20993 0
M  V30 16642 H 1513.99 4.2985 1.67412 0
M  V30 16643 H 1512.23 4.06692 1.50944 0
M  V30 16644 H 1512.9 4.59784 3.05455 0
M  V30 16645 H 1515.38 2.67551 3.18678 0
M  V30 16646 H 1514.25 3.17769 4.47564 0
M  V30 16647 H 1514.52 1.46769 4.17027 0
M  V30 16648 N 1513.57 -0.913576 1.28419 0
M  V30 16649 C 1514.82 -1.66519 1.15755 0
M  V30 16650 C 1515.15 -1.91974 -0.293166 0
M  V30 16651 O 1514.43 -1.52025 -1.21321 0
M  V30 16652 C 1514.71 -3.02299 1.95672 0
M  V30 16653 C 1514.56 -2.83996 3.48807 0
M  V30 16654 C 1515.88 -4.02838 1.77226 0
M  V30 16655 H 1513 -0.604309 0.421877 0
M  V30 16656 H 1515.64 -1.05919 1.57737 0
M  V30 16657 H 1513.79 -3.54025 1.59995 0
M  V30 16658 H 1515.47 -2.39279 3.9439 0
M  V30 16659 H 1513.71 -2.19052 3.74431 0
M  V30 16660 H 1514.38 -3.80419 3.99982 0
M  V30 16661 H 1516.86 -3.60174 2.0836 0
M  V30 16662 H 1515.73 -4.95806 2.35515 0
M  V30 16663 H 1515.99 -4.36135 0.723804 0
M  V30 16664 N 1515.05 -1.1067 -1.12204 0
M  V30 16665 C 1516 -0.757745 -2.18007 0
M  V30 16666 C 1516.97 0.26706 -1.63939 0
M  V30 16667 O 1518.15 0.145789 -1.90242 0
M  V30 16668 C 1515.29 -0.198379 -3.44529 0
M  V30 16669 C 1514.41 -1.27878 -4.12639 0
M  V30 16670 C 1513.54 -0.6808 -5.26819 0
M  V30 16671 C 1512.58 -1.74161 -5.868 0
M  V30 16672 N 1511.72 -1.16372 -6.92389 0
M  V30 16673 H 1516.56 -1.66418 -2.47202 0
M  V30 16674 H 1514.1 -0.831216 -1.21364 0
M  V30 16675 H 1516.05 0.143838 -4.16952 0
M  V30 16676 H 1514.68 0.671279 -3.15743 0
M  V30 16677 H 1513.74 -1.73808 -3.38371 0
M  V30 16678 H 1515.05 -2.08169 -4.53285 0
M  V30 16679 H 1514.2 -0.288172 -6.06015 0
M  V30 16680 H 1512.94 0.153521 -4.87458 0
M  V30 16681 H 1511.95 -2.14364 -5.06289 0
M  V30 16682 H 1513.17 -2.57882 -6.28231 0
M  V30 16683 H 1511.12 -0.350899 -6.55061 0
M  V30 16684 H 1511.03 -1.90344 -7.31646 0
M  V30 16685 H 1512.3 -0.797715 -7.75407 0
M  V30 16686 N 1516.53 1.29665 -0.895815 0
M  V30 16687 C 1517.48 2.27831 -0.369011 0
M  V30 16688 C 1518.45 1.56843 0.546756 0
M  V30 16689 O 1519.63 1.84848 0.472837 0
M  V30 16690 C 1516.77 3.42764 0.400884 0
M  V30 16691 C 1515.89 4.28544 -0.545335 0
M  V30 16692 C 1515.02 5.30652 0.241228 0
M  V30 16693 C 1514.06 6.08087 -0.699765 0
M  V30 16694 N 1513.2 7.02081 0.0521477 0
M  V30 16695 H 1518.04 2.72274 -1.21124 0
M  V30 16696 H 1515.57 1.33918 -0.608631 0
M  V30 16697 H 1517.53 4.08171 0.863277 0
M  V30 16698 H 1516.16 2.99361 1.2076 0
M  V30 16699 H 1515.21 3.63346 -1.12624 0
M  V30 16700 H 1516.53 4.82472 -1.26579 0
M  V30 16701 H 1515.68 6.01858 0.764994 0
M  V30 16702 H 1514.42 4.77446 0.994838 0
M  V30 16703 H 1513.42 5.35748 -1.23507 0
M  V30 16704 H 1514.65 6.63382 -1.45264 0
M  V30 16705 H 1512.59 6.51249 0.788096 0
M  V30 16706 H 1512.51 7.53547 -0.60847 0
M  V30 16707 H 1513.78 7.77512 0.556304 0
M  V30 16708 N 1518.01 0.657889 1.43212 0
M  V30 16709 C 1519.25 0.176848 2.03634 0
M  V30 16710 C 1519.61 -1.18833 1.50807 0
M  V30 16711 O 1520.81 -1.76305 2.02904 0
M  V30 16712 C 1519.08 0.191578 3.56886 0
M  V30 16713 S 1520.64 -0.220935 4.38243 0
M  V30 16714 H 1517.46 0.0742555 0.707112 0
M  V30 16715 H 1520.06 0.867268 1.7521 0
M  V30 16716 H 1518.77 1.18781 3.92835 0
M  V30 16717 H 1518.3 -0.519229 3.89958 0
M  V30 16718 H 1520.31 -1.45865 4.74276 0
M  V30 16719 N 1519.49 -1.52437 0.400108 0
M  V30 16720 C 1520.73 -2.01711 -0.178605 0
M  V30 16721 C 1521.06 -1.28613 -1.45908 0
M  V30 16722 O 1520.32 -0.378206 -1.92011 0
M  V30 16723 C 1520.62 -3.54133 -0.482141 0
M  V30 16724 C 1520.28 -4.45306 0.70806 0
M  V30 16725 C 1518.94 -4.69947 1.03455 0
M  V30 16726 C 1521.3 -4.99035 1.50379 0
M  V30 16727 C 1518.62 -5.45566 2.15812 0
M  V30 16728 C 1520.98 -5.75883 2.61805 0
M  V30 16729 C 1519.64 -5.98799 2.9495 0
M  V30 16730 H 1518.91 -0.738112 -0.0653562 0
M  V30 16731 H 1521.56 -1.83738 0.539676 0
M  V30 16732 H 1519.86 -3.70237 -1.28188 0
M  V30 16733 H 1521.56 -3.89761 -0.942725 0
M  V30 16734 H 1518.15 -4.26298 0.443599 0
M  V30 16735 H 1522.33 -4.79913 1.26479 0
M  V30 16736 H 1517.59 -5.61532 2.4185 0
M  V30 16737 H 1521.76 -6.16514 3.23857 0
M  V30 16738 H 1519.39 -6.57176 3.8213 0
M  V30 16739 N 1520.96 -0.130252 -1.57061 0
M  V30 16740 C 1521.91 0.815767 -2.15902 0
M  V30 16741 C 1522.88 1.2558 -1.08715 0
M  V30 16742 O 1524.07 1.33132 -1.36677 0
M  V30 16743 C 1521.21 2.0561 -2.77162 0
M  V30 16744 C 1520.32 1.6634 -3.98692 0
M  V30 16745 C 1519.45 2.85425 -4.48002 0
M  V30 16746 C 1518.49 2.42449 -5.62036 0
M  V30 16747 N 1517.63 3.54486 -6.0604 0
M  V30 16748 H 1522.47 0.307164 -2.96413 0
M  V30 16749 H 1520.01 0.139913 -1.46433 0
M  V30 16750 H 1521.97 2.78298 -3.10815 0
M  V30 16751 H 1520.6 2.5391 -1.99323 0
M  V30 16752 H 1519.65 0.834817 -3.71127 0
M  V30 16753 H 1520.96 1.30765 -4.81354 0
M  V30 16754 H 1520.11 3.66325 -4.83623 0
M  V30 16755 H 1518.85 3.24235 -3.64312 0
M  V30 16756 H 1517.86 1.59985 -5.26008 0
M  V30 16757 H 1519.08 2.04744 -6.475 0
M  V30 16758 H 1517.03 3.92948 -5.25289 0
M  V30 16759 H 1516.95 3.22871 -6.83586 0
M  V30 16760 H 1518.21 4.35792 -6.46302 0
M  V30 16761 N 1522.44 1.56945 0.143535 0
M  V30 16762 C 1523.68 1.85347 0.861738 0
M  V30 16763 C 1524.05 0.715009 1.7819 0
M  V30 16764 O 1525.25 0.880162 2.53981 0
M  V30 16765 C 1523.52 3.18937 1.61288 0
M  V30 16766 S 1525.08 3.68904 2.37603 0
M  V30 16767 H 1521.9 0.650015 0.2881 0
M  V30 16768 H 1524.5 1.95122 0.121527 0
M  V30 16769 H 1523.2 3.9976 0.928434 0
M  V30 16770 H 1522.73 3.12176 2.39394 0
M  V30 16771 H 1524.75 3.38445 3.62863 0
M  V30 16772 N 1523.92 -0.412991 1.52093 0
M  V30 16773 C 1525.16 -1.16951 1.67636 0
M  V30 16774 C 1525.53 -1.87875 0.39583 0
M  V30 16775 O 1526.73 -2.65382 0.42732 0
M  V30 16776 C 1525 -2.14052 2.8621 0
M  V30 16777 S 1526.56 -2.97863 3.22215 0
M  V30 16778 H 1523.37 -0.396249 0.590345 0
M  V30 16779 H 1525.98 -0.457386 1.90074 0
M  V30 16780 H 1524.68 -1.60628 3.7766 0
M  V30 16781 H 1524.21 -2.89809 2.66034 0
M  V30 16782 H 1526.23 -4.15961 2.70538 0
M  V30 16783 N 1525.4 -1.4265 -0.669982 0
M  V30 16784 C 1526.64 -1.44866 -1.44199 0
M  V30 16785 C 1527 -0.0647049 -1.91891 0
M  V30 16786 O 1528.2 0.0384187 -2.68773 0
M  V30 16787 C 1526.48 -2.44846 -2.60356 0
M  V30 16788 S 1528.03 -2.65803 -3.49134 0
M  V30 16789 H 1524.85 -0.512859 -0.49244 0
M  V30 16790 H 1527.45 -1.7929 -0.779442 0
M  V30 16791 H 1526.16 -3.44161 -2.23565 0
M  V30 16792 H 1525.69 -2.11863 -3.31478 0
M  V30 16793 H 1527.7 -1.94466 -4.56506 0
M  V30 16794 N 1526.88 0.906753 -1.28902 0
M  V30 16795 C 1527.82 2.01004 -1.13429 0
M  V30 16796 C 1528.79 1.66074 -0.0295031 0
M  V30 16797 O 1529.98 1.89793 -0.195727 0
M  V30 16798 C 1527.12 3.35473 -0.809457 0
M  V30 16799 C 1526.23 3.83229 -1.99398 0
M  V30 16800 C 1525.37 5.06241 -1.60915 0
M  V30 16801 C 1524.41 5.46348 -2.7599 0
M  V30 16802 N 1523.54 6.60548 -2.37952 0
M  V30 16803 H 1528.38 2.13571 -2.07825 0
M  V30 16804 H 1525.92 1.046 -1.03428 0
M  V30 16805 H 1527.88 4.12836 -0.601845 0
M  V30 16806 H 1526.51 3.22652 0.0975896 0
M  V30 16807 H 1525.56 3.01962 -2.31351 0
M  V30 16808 H 1526.87 4.08908 -2.85649 0
M  V30 16809 H 1526.03 5.91168 -1.36401 0
M  V30 16810 H 1524.77 4.82385 -0.718021 0
M  V30 16811 H 1523.77 4.59959 -3.01195 0
M  V30 16812 H 1525 5.72188 -3.65757 0
M  V30 16813 H 1522.94 6.38309 -1.51318 0
M  V30 16814 H 1522.86 6.85987 -3.17738 0
M  V30 16815 H 1524.13 7.48762 -2.1674 0
M  V30 16816 N 1528.36 1.11264 1.11616 0
M  V30 16817 C 1529.27 0.781961 2.21184 0
M  V30 16818 C 1530.28 -0.224149 1.7255 0
M  V30 16819 O 1531.46 -0.0607743 2.01308 0
M  V30 16820 C 1528.52 0.228031 3.45949 0
M  V30 16821 C 1527.58 1.29251 4.09381 0
M  V30 16822 C 1526.82 0.764921 5.2819 0
M  V30 16823 O 1527.04 -0.405671 5.68956 0
M  V30 16824 O 1525.97 1.52886 5.82159 0
M  V30 16825 H 1529.8 1.69678 2.51879 0
M  V30 16826 H 1527.38 0.888394 1.20116 0
M  V30 16827 H 1529.27 -0.0766085 4.2133 0
M  V30 16828 H 1527.94 -0.659519 3.1691 0
M  V30 16829 H 1526.85 1.65014 3.3574 0
M  V30 16830 H 1528.18 2.15339 4.42595 0
M  V30 16831 N 1529.83 -1.29188 0.902679 0
M  V30 16832 C 1530.78 -2.27632 0.381088 0
M  V30 16833 C 1531.75 -1.57131 -0.538431 0
M  V30 16834 O 1532.94 -1.85096 -0.463027 0
M  V30 16835 C 1530.08 -3.42971 -0.382701 0
M  V30 16836 C 1529.19 -4.28249 0.568054 0
M  V30 16837 C 1528.32 -5.30772 -0.213082 0
M  V30 16838 C 1527.36 -6.07707 0.732004 0
M  V30 16839 N 1526.5 -7.02098 -0.0149139 0
M  V30 16840 H 1531.34 -2.71628 1.22566 0
M  V30 16841 H 1528.88 -1.33594 0.615724 0
M  V30 16842 H 1530.83 -4.08623 -0.841619 0
M  V30 16843 H 1529.46 -2.99997 -1.19171 0
M  V30 16844 H 1528.52 -3.62743 1.14549 0
M  V30 16845 H 1529.83 -4.81794 1.29136 0
M  V30 16846 H 1528.98 -6.02255 -0.733065 0
M  V30 16847 H 1527.72 -4.77966 -0.969504 0
M  V30 16848 H 1526.73 -5.35086 1.26346 0
M  V30 16849 H 1527.95 -6.62602 1.4878 0
M  V30 16850 H 1525.9 -6.51658 -0.753548 0
M  V30 16851 H 1525.81 -7.53214 0.648423 0
M  V30 16852 H 1527.08 -7.77796 -0.515062 0
M  V30 16853 N 1531.31 -0.665475 -1.42861 0
M  V30 16854 C 1532.26 0.030395 -2.3258 0
M  V30 16855 C 1533.25 0.800329 -1.49302 0
M  V30 16856 O 1534.46 0.709346 -1.65434 0
M  V30 16857 H 1530.83 0.0286201 -0.751455 0
M  V30 16858 H 1532.81 -0.743838 -2.8898 0
M  V30 16859 C 1531.55 0.974474 -3.33765 0
M  V30 16860 H 1530.88 0.391447 -3.97879 0
M  V30 16861 H 1532.32 1.43023 -3.99149 0
M  V30 16862 C 1530.78 2.0764 -2.65306 0
M  V30 16863 O 1531.31 3.16172 -2.47787 0
M  V30 16864 N 1529.51 1.84544 -2.24481 0
M  V30 16865 H 1529.06 0.962826 -2.3893 0
M  V30 16866 H 1529.02 2.58464 -1.79007 0
M  V30 16867 N 1532.79 1.52222 -0.408187 0
M  V30 16868 C 1533.72 2.23468 0.462332 0
M  V30 16869 C 1534.7 1.24257 1.04876 0
M  V30 16870 O 1535.88 1.53305 1.0968 0
M  V30 16871 C 1533.01 2.96256 1.64165 0
M  V30 16872 C 1532.06 4.09889 1.1787 0
M  V30 16873 S 1532.89 5.35305 0.144629 0
M  V30 16874 C 1534.05 6.11621 1.3293 0
M  V30 16875 H 1534.28 2.96958 -0.142615 0
M  V30 16876 H 1531.81 1.53196 -0.19248 0
M  V30 16877 H 1533.77 3.38798 2.3179 0
M  V30 16878 H 1532.43 2.2241 2.21794 0
M  V30 16879 H 1531.62 4.59989 2.05977 0
M  V30 16880 H 1531.23 3.69458 0.581119 0
M  V30 16881 H 1533.52 6.38939 2.25306 0
M  V30 16882 H 1534.46 7.02749 0.86885 0
M  V30 16883 H 1534.87 5.4267 1.55466 0
M  V30 16884 N 1534.27 0.138579 1.5699 0
M  V30 16885 C 1535.18 -0.817548 2.19894 0
M  V30 16886 C 1536.19 -1.27806 1.18075 0
M  V30 16887 O 1537.37 -1.33699 1.5062 0
M  V30 16888 C 1534.43 -2.04244 2.80152 0
M  V30 16889 C 1533.5 -1.63197 3.97071 0
M  V30 16890 C 1532.73 -2.79847 4.54446 0
M  V30 16891 O 1532.95 -3.95827 4.10703 0
M  V30 16892 O 1531.89 -2.55804 5.44838 0
M  V30 16893 H 1535.71 -0.312123 3.02092 0
M  V30 16894 H 1533.3 -0.0880281 1.4914 0
M  V30 16895 H 1535.18 -2.75945 3.18485 0
M  V30 16896 H 1533.85 -2.53755 2.00973 0
M  V30 16897 H 1532.76 -0.885448 3.6347 0
M  V30 16898 H 1534.09 -1.1841 4.77745 0
M  V30 16899 N 1535.75 -1.57019 -0.13521 0
M  V30 16900 C 1536.97 -1.88528 -0.864399 0
M  V30 16901 C 1537.4 -0.728852 -1.73405 0
M  V30 16902 O 1536.75 0.321196 -1.78432 0
M  V30 16903 C 1536.8 -3.18694 -1.6872 0
M  V30 16904 O 1535.91 -3.03458 -2.79262 0
M  V30 16905 H 1535.25 -0.61909 -0.24005 0
M  V30 16906 H 1537.78 -2.04233 -0.12248 0
M  V30 16907 H 1537.79 -3.51011 -2.0798 0
M  V30 16908 H 1536.46 -4.02462 -1.04868 0
M  V30 16909 H 1535.04 -2.82575 -2.43323 0
M  V30 16910 N 1537.22 0.404919 -1.52309 0
M  V30 16911 C 1538.45 1.17764 -1.70723 0
M  V30 16912 C 1538.87 1.83403 -0.417744 0
M  V30 16913 O 1538.23 1.70181 0.625157 0
M  V30 16914 C 1538.28 2.2133 -2.84685 0
M  V30 16915 O 1537.38 3.27566 -2.50548 0
M  V30 16916 H 1536.73 0.343572 -0.568203 0
M  V30 16917 H 1539.26 0.474093 -1.99031 0
M  V30 16918 H 1539.27 2.6559 -3.09719 0
M  V30 16919 H 1537.94 1.72939 -3.78239 0
M  V30 16920 H 1536.52 2.88556 -2.36199 0
M  V30 16921 N 1538.7 1.43003 0.662408 0
M  V30 16922 C 1539.95 1.44346 1.4245 0
M  V30 16923 C 1540.28 0.064094 1.94094 0
M  V30 16924 O 1539.56 -0.913633 1.71706 0
M  V30 16925 C 1539.84 2.47822 2.61259 0
M  V30 16926 C 1539.69 3.94998 2.15166 0
M  V30 16927 C 1541.01 2.48139 3.63476 0
M  V30 16928 H 1538.13 0.525606 0.51663 0
M  V30 16929 H 1540.77 1.74495 0.751754 0
M  V30 16930 H 1538.92 2.22244 3.18653 0
M  V30 16931 H 1540.59 4.31601 1.62843 0
M  V30 16932 H 1538.84 4.0827 1.46622 0
M  V30 16933 H 1539.51 4.62998 3.00561 0
M  V30 16934 H 1541.98 2.70916 3.15823 0
M  V30 16935 H 1540.86 3.22498 4.44169 0
M  V30 16936 H 1541.12 1.51184 4.15447 0
M  V30 16937 N 1540.18 -0.899904 1.29381 0
M  V30 16938 C 1541.42 -1.66468 1.18608 0
M  V30 16939 C 1541.78 -1.90255 -0.258287 0
M  V30 16940 O 1542.99 -2.64315 -0.488987 0
M  V30 16941 C 1541.26 -2.97758 1.97674 0
M  V30 16942 S 1542.82 -3.88794 2.03433 0
M  V30 16943 H 1539.63 -0.571533 0.422931 0
M  V30 16944 H 1542.24 -1.06931 1.63664 0
M  V30 16945 H 1540.94 -2.78158 3.01755 0
M  V30 16946 H 1540.47 -3.62335 1.53221 0
M  V30 16947 H 1542.49 -4.82669 1.15086 0
M  V30 16948 N 1541.66 -1.11854 -1.11024 0
M  V30 16949 C 1542.9 -0.880082 -1.84483 0
M  V30 16950 C 1543.26 0.583659 -1.82914 0
M  V30 16951 O 1544.46 0.939053 -2.51864 0
M  V30 16952 C 1542.73 -1.43158 -3.27476 0
M  V30 16953 S 1544.29 -1.33075 -4.18135 0
M  V30 16954 H 1541.11 -0.317635 -0.636105 0
M  V30 16955 H 1543.71 -1.42688 -1.33642 0
M  V30 16956 H 1542.42 -2.49061 -3.26185 0
M  V30 16957 H 1541.95 -0.882005 -3.83385 0
M  V30 16958 H 1543.96 -0.298149 -4.95303 0
M  V30 16959 N 1543.14 1.28707 -0.909517 0
M  V30 16960 C 1544.38 1.95154 -0.540481 0
M  V30 16961 C 1544.71 1.7163 0.91506 0
M  V30 16962 O 1543.97 1.02786 1.66534 0
M  V30 16963 C 1544.27 3.48536 -0.791037 0
M  V30 16964 C 1543.93 3.92153 -2.22546 0
M  V30 16965 C 1542.59 4.03772 -2.61766 0
M  V30 16966 C 1544.95 4.14547 -3.15912 0
M  V30 16967 C 1542.27 4.35162 -3.93511 0
M  V30 16968 C 1544.63 4.47414 -4.47218 0
M  V30 16969 C 1543.29 4.57244 -4.86296 0
M  V30 16970 H 1542.56 0.714119 -0.197776 0
M  V30 16971 H 1545.21 1.53122 -1.15004 0
M  V30 16972 H 1543.51 3.91676 -0.0986412 0
M  V30 16973 H 1545.21 3.98059 -0.48474 0
M  V30 16974 H 1541.8 3.83633 -1.91113 0
M  V30 16975 H 1545.98 4.05027 -2.86822 0
M  V30 16976 H 1541.24 4.40977 -4.23496 0
M  V30 16977 H 1545.41 4.6369 -5.19581 0
M  V30 16978 H 1543.04 4.81321 -5.88416 0
M  V30 16979 N 1544.61 0.673042 1.42506 0
M  V30 16980 C 1545.56 -0.00638067 2.30799 0
M  V30 16981 C 1546.53 -0.794524 1.45865 0
M  V30 16982 O 1547.72 -0.767129 1.74699 0
M  V30 16983 C 1544.86 -0.952923 3.31683 0
M  V30 16984 C 1543.97 -0.158787 4.31708 0
M  V30 16985 C 1543.1 -1.10092 5.19666 0
M  V30 16986 C 1542.14 -0.29837 6.11372 0
M  V30 16987 N 1541.28 -1.19312 6.91888 0
M  V30 16988 H 1546.12 0.75237 2.88346 0
M  V30 16989 H 1543.66 0.382763 1.42033 0
M  V30 16990 H 1545.62 -1.51552 3.887 0
M  V30 16991 H 1544.25 -1.67832 2.75739 0
M  V30 16992 H 1543.3 0.520406 3.76823 0
M  V30 16993 H 1544.61 0.464385 4.96634 0
M  V30 16994 H 1543.76 -1.7335 5.81407 0
M  V30 16995 H 1542.5 -1.75798 4.54914 0
M  V30 16996 H 1541.51 0.347437 5.48701 0
M  V30 16997 H 1542.73 0.354569 6.78174 0
M  V30 16998 H 1540.68 -1.83661 6.29765 0
M  V30 16999 H 1540.6 -0.624986 7.53412 0
M  V30 17000 H 1541.86 -1.81323 7.58118 0
M  V30 17001 N 1546.09 -1.52004 0.416254 0
M  V30 17002 C 1547.04 -2.28771 -0.420331 0
M  V30 17003 C 1548.03 -1.33751 -1.03957 0
M  V30 17004 O 1549.24 -1.51181 -0.976951 0
M  V30 17005 H 1545.62 -0.735991 -0.15434 0
M  V30 17006 H 1547.59 -2.97366 0.248255 0
M  V30 17007 C 1546.34 -3.12675 -1.52085 0
M  V30 17008 H 1545.66 -3.85665 -1.0537 0
M  V30 17009 H 1547.1 -3.69482 -2.07989 0
M  V30 17010 C 1545.56 -2.26692 -2.49224 0
M  V30 17011 O 1546.09 -1.91205 -3.53276 0
M  V30 17012 N 1544.29 -1.90322 -2.19604 0
M  V30 17013 H 1543.84 -2.1938 -1.35019 0
M  V30 17014 H 1543.8 -1.33086 -2.84843 0
M  V30 17015 N 1547.57 -0.146903 -1.56914 0
M  V30 17016 C 1548.48 0.805875 -2.20324 0
M  V30 17017 C 1549.5 1.27178 -1.18751 0
M  V30 17018 O 1550.67 1.32899 -1.51327 0
M  V30 17019 C 1547.74 2.02755 -2.81232 0
M  V30 17020 C 1546.8 1.61089 -3.97931 0
M  V30 17021 C 1546.03 2.77433 -4.55924 0
M  V30 17022 O 1546.25 3.93643 -4.12797 0
M  V30 17023 O 1545.19 2.52911 -5.46187 0
M  V30 17024 H 1549.01 0.296098 -3.02253 0
M  V30 17025 H 1546.6 0.0801175 -1.49185 0
M  V30 17026 H 1548.48 2.74252 -3.19944 0
M  V30 17027 H 1547.16 2.52686 -2.02316 0
M  V30 17028 H 1546.06 0.86616 -3.63935 0
M  V30 17029 H 1547.4 1.15874 -4.78366 0
M  V30 17030 N 1549.05 1.57088 0.126881 0
M  V30 17031 C 1550.33 1.7539 0.8659 0
M  V30 17032 C 1550.71 0.720288 1.98432 0
M  V30 17033 O 1550.05 -0.2572 2.27048 0
M  V30 17034 C 1550.26 3.20131 1.38985 0
M  V30 17035 C 1551.61 3.82404 1.84532 0
M  V30 17036 O 1552.64 3.23685 1.48682 0
M  V30 17037 O 1551.49 4.85599 2.50711 0
M  V30 17038 H 1548.59 0.717853 0.41063 0
M  V30 17039 H 1551.13 1.69335 0.111236 0
M  V30 17040 H 1549.91 3.86871 0.587056 0
M  V30 17041 H 1549.53 3.30692 2.20745 0
M  V30 17042 N 1550.53 -0.396836 1.52522 0
M  V30 17043 C 1551.47 -1.50474 1.77371 0
M  V30 17044 C 1552.47 -1.56792 0.641307 0
M  V30 17045 O 1553.67 -1.60052 0.823621 0
M  V30 17046 H 1550.05 -0.500667 0.561103 0
M  V30 17047 H 1552.02 -1.26706 2.70163 0
M  V30 17048 C 1550.77 -2.87702 1.95251 0
M  V30 17049 H 1550.09 -2.83588 2.81812 0
M  V30 17050 H 1551.53 -3.64482 2.16631 0
M  V30 17051 C 1549.99 -3.29053 0.722904 0
M  V30 17052 O 1550.52 -4.01567 -0.103398 0
M  V30 17053 N 1548.73 -2.85246 0.555263 0
M  V30 17054 H 1548.27 -2.26403 1.22879 0
M  V30 17055 H 1548.23 -3.13272 -0.266113 0
M  V30 17056 N 1552.01 -1.43353 -0.654814 0
M  V30 17057 C 1552.92 -1.50831 -1.79687 0
M  V30 17058 C 1553.93 -0.395518 -1.69445 0
M  V30 17059 O 1555.11 -0.649408 -1.90643 0
M  V30 17060 C 1552.17 -1.42735 -3.15955 0
M  V30 17061 C 1551.23 -2.64671 -3.38005 0
M  V30 17062 C 1550.47 -2.56952 -4.67773 0
M  V30 17063 O 1550.69 -1.61638 -5.47019 0
M  V30 17064 O 1549.62 -3.47425 -4.91507 0
M  V30 17065 H 1553.45 -2.47266 -1.76333 0
M  V30 17066 H 1551.03 -1.25336 -0.813095 0
M  V30 17067 H 1552.92 -1.40656 -3.97233 0
M  V30 17068 H 1551.59 -0.494334 -3.19903 0
M  V30 17069 H 1550.5 -2.72323 -2.56498 0
M  V30 17070 H 1551.83 -3.5694 -3.38903 0
M  V30 17071 N 1553.48 0.89303 -1.29857 0
M  V30 17072 C 1554.71 1.67744 -1.21119 0
M  V30 17073 C 1555.13 1.87428 0.227198 0
M  V30 17074 O 1554.48 1.41605 1.15128 0
M  V30 17075 C 1554.53 3.05827 -1.92749 0
M  V30 17076 O 1554.26 2.87036 -3.30971 0
M  V30 17077 C 1555.76 4.00248 -1.9057 0
M  V30 17078 H 1552.98 0.523699 -0.4195 0
M  V30 17079 H 1555.52 1.1163 -1.71344 0
M  V30 17080 H 1553.68 3.58696 -1.46342 0
M  V30 17081 H 1554.09 3.74578 -3.6714 0
M  V30 17082 H 1555.56 4.9453 -2.45242 0
M  V30 17083 H 1556.04 4.30237 -0.882753 0
M  V30 17084 H 1556.65 3.53312 -2.36751 0
M  V30 17085 N 1554.96 1.12442 1.10429 0
M  V30 17086 C 1555.89 0.814745 2.18824 0
M  V30 17087 C 1556.87 -0.221476 1.68652 0
M  V30 17088 O 1558.06 -0.0826537 1.94024 0
M  V30 17089 C 1555.19 0.268632 3.4626 0
M  V30 17090 C 1554.14 1.23792 4.09707 0
M  V30 17091 C 1553.47 0.552034 5.31843 0
M  V30 17092 C 1554.77 2.5926 4.53411 0
M  V30 17093 H 1556.46 1.72111 2.44986 0
M  V30 17094 H 1554.01 0.828968 1.17746 0
M  V30 17095 H 1555.96 0.0397207 4.21381 0
M  V30 17096 H 1554.68 -0.673079 3.19589 0
M  V30 17097 H 1553.34 1.45264 3.36592 0
M  V30 17098 H 1552.99 -0.394821 5.01448 0
M  V30 17099 H 1552.69 1.19861 5.75245 0
M  V30 17100 H 1554.22 0.332161 6.09696 0
M  V30 17101 H 1555.63 2.41816 5.19806 0
M  V30 17102 H 1554.03 3.19997 5.07663 0
M  V30 17103 H 1555.1 3.17699 3.66327 0
M  V30 17104 N 1556.44 -1.28223 0.91633 0
M  V30 17105 C 1557.4 -2.25477 0.411423 0
M  V30 17106 C 1558.4 -1.53969 -0.463689 0
M  V30 17107 O 1559.59 -1.72151 -0.266379 0
M  V30 17108 C 1556.72 -3.38427 -0.409851 0
M  V30 17109 H 1557.92 -2.71656 1.27056 0
M  V30 17110 H 1555.47 -1.3995 0.695966 0
M  V30 17111 H 1556.21 -2.97614 -1.28828 0
M  V30 17112 H 1555.99 -3.91497 0.217435 0
M  V30 17113 H 1557.48 -4.10739 -0.753862 0
M  V30 17114 N 1557.92 -0.68059 -1.42147 0
M  V30 17115 C 1559.16 -0.214267 -2.02268 0
M  V30 17116 C 1559.52 1.16815 -1.52879 0
M  V30 17117 O 1558.81 1.77406 -0.723716 0
M  V30 17118 C 1559.01 -0.194825 -3.56869 0
M  V30 17119 C 1558.83 -1.57381 -4.21261 0
M  V30 17120 C 1557.6 -2.173 -4.56189 0
M  V30 17121 C 1559.8 -2.5176 -4.48466 0
M  V30 17122 N 1557.78 -3.47919 -5.05792 0
M  V30 17123 C 1559.16 -3.6704 -4.99681 0
M  V30 17124 C 1561.21 -2.50217 -4.3046 0
M  V30 17125 C 1559.91 -4.81039 -5.34784 0
M  V30 17126 C 1561.94 -3.63316 -4.66643 0
M  V30 17127 C 1561.3 -4.77324 -5.18016 0
M  V30 17128 H 1557.4 -0.123459 -0.772193 0
M  V30 17129 H 1559.98 -0.894831 -1.72919 0
M  V30 17130 H 1558.16 0.455171 -3.85724 0
M  V30 17131 H 1559.89 0.284921 -4.03696 0
M  V30 17132 H 1556.64 -1.69732 -4.4214 0
M  V30 17133 H 1557.07 -4.14833 -5.35016 0
M  V30 17134 H 1561.71 -1.63297 -3.89992 0
M  V30 17135 H 1559.43 -5.68629 -5.74183 0
M  V30 17136 H 1563.01 -3.63356 -4.54383 0
M  V30 17137 H 1561.89 -5.63391 -5.45491 0
M  V30 17138 N 1559.4 1.51781 -0.424309 0
M  V30 17139 C 1560.31 2.31162 0.40015 0
M  V30 17140 C 1561.32 1.39523 1.03969 0
M  V30 17141 O 1562.5 1.72597 1.0379 0
M  V30 17142 C 1559.56 3.12875 1.49366 0
M  V30 17143 C 1558.62 4.20275 0.875616 0
M  V30 17144 C 1557.86 4.98082 1.91702 0
M  V30 17145 O 1558.08 4.76365 3.13739 0
M  V30 17146 O 1557.01 5.82527 1.5148 0
M  V30 17147 H 1560.84 3.0269 -0.247529 0
M  V30 17148 H 1558.42 1.48223 -0.187146 0
M  V30 17149 H 1560.31 3.63714 2.12815 0
M  V30 17150 H 1558.98 2.44125 2.12567 0
M  V30 17151 H 1557.89 3.73546 0.203429 0
M  V30 17152 H 1559.22 4.91361 0.287306 0
M  V30 17153 N 1560.87 0.155222 1.56834 0
M  V30 17154 C 1562.12 -0.49285 1.95998 0
M  V30 17155 C 1562.44 -1.64857 1.0415 0
M  V30 17156 O 1561.71 -1.9562 0.104654 0
M  V30 17157 H 1560.29 -0.185063 0.723713 0
M  V30 17158 H 1562.95 0.232644 1.93507 0
M  V30 17159 H 1562.05 -0.863552 2.99915 0
M  V30 17160 N 1562.35 -1.57153 -0.118549 0
M  V30 17161 C 1563.6 -1.8515 -0.82748 0
M  V30 17162 C 1563.93 -0.741026 -1.79506 0
M  V30 17163 O 1563.21 0.253095 -1.92846 0
M  V30 17164 C 1563.49 -3.23734 -1.57698 0
M  V30 17165 C 1563.34 -4.45381 -0.628967 0
M  V30 17166 C 1564.66 -3.59895 -2.53305 0
M  V30 17167 H 1561.78 -0.673459 -0.29937 0
M  V30 17168 H 1564.42 -1.89778 -0.0917198 0
M  V30 17169 H 1562.57 -3.19919 -2.20418 0
M  V30 17170 H 1564.24 -4.61299 -0.0105746 0
M  V30 17171 H 1562.49 -4.33759 0.059462 0
M  V30 17172 H 1563.16 -5.3902 -1.19004 0
M  V30 17173 H 1565.63 -3.64503 -2.0069 0
M  V30 17174 H 1564.51 -4.57839 -3.02778 0
M  V30 17175 H 1564.77 -2.87338 -3.3599 0
M  V30 17176 N 1563.83 0.388742 -1.5273 0
M  V30 17177 C 1564.76 1.49653 -1.72277 0
M  V30 17178 C 1565.74 1.52259 -0.570606 0
M  V30 17179 O 1566.92 1.70661 -0.80044 0
M  V30 17180 C 1564.05 2.88118 -1.78061 0
M  V30 17181 C 1563.1 3.03336 -2.99815 0
M  V30 17182 S 1563.93 2.74509 -4.59788 0
M  V30 17183 C 1565.09 4.15167 -4.68388 0
M  V30 17184 H 1565.32 1.32847 -2.65968 0
M  V30 17185 H 1562.85 0.581632 -1.43026 0
M  V30 17186 H 1564.81 3.6791 -1.82079 0
M  V30 17187 H 1563.47 3.0225 -0.854623 0
M  V30 17188 H 1562.66 4.04689 -3.00404 0
M  V30 17189 H 1562.27 2.31438 -2.9379 0
M  V30 17190 H 1564.56 5.09098 -4.47018 0
M  V30 17191 H 1565.5 4.19593 -5.70392 0
M  V30 17192 H 1565.91 4.01088 -3.97226 0
M  V30 17193 N 1565.31 1.43698 0.647203 0
M  V30 17194 C 1566.25 1.49323 1.75987 0
M  V30 17195 C 1567.22 0.342379 1.62533 0
M  V30 17196 O 1568.41 0.550379 1.8269 0
M  V30 17197 C 1565.55 1.428 3.14169 0
M  V30 17198 C 1564.66 2.68136 3.38714 0
M  V30 17199 C 1563.8 2.53559 4.66778 0
M  V30 17200 C 1562.84 3.74135 4.84447 0
M  V30 17201 N 1561.97 3.58332 6.03774 0
M  V30 17202 H 1566.81 2.44395 1.70514 0
M  V30 17203 H 1564.35 1.21309 0.832021 0
M  V30 17204 H 1566.31 1.37011 3.94061 0
M  V30 17205 H 1564.94 0.513057 3.18697 0
M  V30 17206 H 1563.99 2.84179 2.52877 0
M  V30 17207 H 1565.3 3.57684 3.47654 0
M  V30 17208 H 1564.46 2.45513 5.54805 0
M  V30 17209 H 1563.2 1.61545 4.60168 0
M  V30 17210 H 1562.2 3.82584 3.94854 0
M  V30 17211 H 1563.43 4.67165 4.92883 0
M  V30 17212 H 1561.37 2.69057 5.98284 0
M  V30 17213 H 1561.29 4.41485 6.13699 0
M  V30 17214 H 1562.56 3.54148 6.94406 0
M  V30 17215 N 1566.79 -0.886131 1.30328 0
M  V30 17216 C 1567.7 -2.02453 1.18532 0
M  V30 17217 C 1568.71 -1.7368 0.105506 0
M  V30 17218 O 1569.89 -1.98838 0.320217 0
M  V30 17219 C 1566.95 -3.3543 0.876792 0
M  V30 17220 C 1566.01 -3.77633 2.04185 0
M  V30 17221 C 1565.25 -5.04264 1.74795 0
M  V30 17222 O 1565.47 -5.66388 0.675323 0
M  V30 17223 O 1564.4 -5.42847 2.60001 0
M  V30 17224 H 1568.23 -2.15333 2.14162 0
M  V30 17225 H 1565.82 -1.01193 1.09911 0
M  V30 17226 H 1567.7 -4.15206 0.719882 0
M  V30 17227 H 1566.37 -3.23662 -0.0496117 0
M  V30 17228 H 1565.28 -2.98567 2.25408 0
M  V30 17229 H 1566.61 -3.94004 2.94994 0
M  V30 17230 N 1568.26 -1.13026 -1.09832 0
M  V30 17231 C 1569.21 -0.799174 -2.1844 0
M  V30 17232 C 1570.21 0.216695 -1.68008 0
M  V30 17233 O 1571.41 0.0742662 -1.79847 0
M  V30 17234 H 1567.79 -0.24064 -0.712458 0
M  V30 17235 H 1569.76 -1.72342 -2.436 0
M  V30 17236 C 1568.51 -0.276925 -3.46595 0
M  V30 17237 H 1567.83 -1.04993 -3.85768 0
M  V30 17238 H 1569.27 -0.0836468 -4.23917 0
M  V30 17239 C 1567.73 0.996479 -3.21826 0
M  V30 17240 O 1568.26 2.0731 -3.44072 0
M  V30 17241 N 1566.47 0.925903 -2.75455 0
M  V30 17242 H 1566.01 0.0496383 -2.57552 0
M  V30 17243 H 1565.97 1.77853 -2.5926 0
M  V30 17244 N 1569.74 1.27735 -0.923117 0
M  V30 17245 C 1570.97 1.98394 -0.57648 0
M  V30 17246 C 1571.38 1.69093 0.848778 0
M  V30 17247 O 1570.72 0.945385 1.57506 0
M  V30 17248 C 1570.79 3.52278 -0.716984 0
M  V30 17249 C 1570.45 4.05191 -2.11351 0
M  V30 17250 C 1571.45 4.18314 -3.08722 0
M  V30 17251 C 1569.13 4.39652 -2.42922 0
M  V30 17252 C 1571.13 4.65166 -4.35774 0
M  V30 17253 C 1568.81 4.86196 -3.70211 0
M  V30 17254 C 1569.81 4.98911 -4.66451 0
M  V30 17255 O 1569.5 5.44437 -5.91476 0
M  V30 17256 H 1569.23 0.640008 -0.217636 0
M  V30 17257 H 1571.78 1.63666 -1.24107 0
M  V30 17258 H 1570.01 3.867 0.00469601 0
M  V30 17259 H 1571.7 4.04154 -0.376077 0
M  V30 17260 H 1572.47 3.91955 -2.85651 0
M  V30 17261 H 1568.35 4.29 -1.6876 0
M  V30 17262 H 1571.89 4.75006 -5.10896 0
M  V30 17263 H 1567.79 5.11997 -3.93103 0
M  V30 17264 H 1568.56 5.62701 -5.94399 0
M  V30 17265 N 1571.22 0.688118 1.41784 0
M  V30 17266 C 1572.15 0.0323199 2.33478 0
M  V30 17267 C 1573.13 -0.775145 1.51412 0
M  V30 17268 O 1574.32 -0.72962 1.79973 0
M  V30 17269 C 1571.45 -0.910141 3.35162 0
M  V30 17270 C 1570.4 -0.210312 4.27483 0
M  V30 17271 C 1569.73 -1.26662 5.19481 0
M  V30 17272 C 1571.03 0.918839 5.14154 0
M  V30 17273 H 1572.72 0.798138 2.88566 0
M  V30 17274 H 1570.27 0.385262 1.38751 0
M  V30 17275 H 1572.22 -1.3781 3.98229 0
M  V30 17276 H 1570.94 -1.70754 2.78408 0
M  V30 17277 H 1569.6 0.237544 3.6583 0
M  V30 17278 H 1569.25 -2.05635 4.59046 0
M  V30 17279 H 1568.95 -0.803416 5.82082 0
M  V30 17280 H 1570.47 -1.73524 5.85424 0
M  V30 17281 H 1571.89 0.531499 5.70831 0
M  V30 17282 H 1570.29 1.30867 5.85657 0
M  V30 17283 H 1571.36 1.7618 4.51762 0
M  V30 17284 N 1572.7 -1.51554 0.432352 0
M  V30 17285 C 1573.94 -2.02344 -0.13598 0
M  V30 17286 C 1574.28 -1.31619 -1.42794 0
M  V30 17287 O 1573.55 -0.42957 -1.89697 0
M  V30 17288 C 1573.84 -3.58297 -0.359865 0
M  V30 17289 C 1573.69 -4.39645 0.950399 0
M  V30 17290 C 1575.01 -4.25297 -1.13184 0
M  V30 17291 H 1572.13 -0.735439 -0.0479461 0
M  V30 17292 H 1574.77 -1.81237 0.570373 0
M  V30 17293 H 1572.92 -3.76413 -0.961547 0
M  V30 17294 H 1574.59 -4.3319 1.58568 0
M  V30 17295 H 1572.83 -4.04928 1.55614 0
M  V30 17296 H 1573.5 -5.46911 0.747852 0
M  V30 17297 H 1575.98 -4.11421 -0.622231 0
M  V30 17298 H 1574.86 -5.34307 -1.25726 0
M  V30 17299 H 1575.12 -3.85818 -2.15862 0
M  V30 17300 N 1574.18 -0.163538 -1.56749 0
M  V30 17301 C 1575.12 0.769787 -2.17584 0
M  V30 17302 C 1576.09 1.23246 -1.11354 0
M  V30 17303 O 1577.28 1.30203 -1.3947 0
M  V30 17304 C 1574.42 1.99685 -2.81461 0
M  V30 17305 C 1573.53 1.57846 -4.0213 0
M  V30 17306 C 1572.67 2.75858 -4.53955 0
M  V30 17307 C 1571.71 2.30473 -5.67053 0
M  V30 17308 N 1570.84 3.41551 -6.13423 0
M  V30 17309 H 1575.68 0.244221 -2.96998 0
M  V30 17310 H 1573.22 0.108821 -1.46697 0
M  V30 17311 H 1575.18 2.71643 -3.16648 0
M  V30 17312 H 1573.81 2.49624 -2.04664 0
M  V30 17313 H 1572.86 0.755907 -3.72814 0
M  V30 17314 H 1574.17 1.20525 -4.8402 0
M  V30 17315 H 1573.33 3.55984 -4.91284 0
M  V30 17316 H 1572.06 3.16434 -3.71107 0
M  V30 17317 H 1571.07 1.48791 -5.29284 0
M  V30 17318 H 1572.29 1.90964 -6.51698 0
M  V30 17319 H 1570.24 3.81717 -5.33506 0
M  V30 17320 H 1570.16 3.08298 -6.90281 0
M  V30 17321 H 1571.43 4.21985 -6.554 0
M  V30 17322 N 1575.65 1.57214 0.110213 0
M  V30 17323 C 1576.9 1.84498 0.815059 0
M  V30 17324 C 1577.22 0.750531 1.80628 0
M  V30 17325 O 1578.42 0.910042 2.55794 0
M  V30 17326 C 1576.88 3.27138 1.50028 0
M  V30 17327 C 1576.49 4.44616 0.549603 0
M  V30 17328 C 1578.23 3.63662 2.18975 0
M  V30 17329 C 1576.14 5.78285 1.23855 0
M  V30 17330 H 1575.07 0.688165 0.308132 0
M  V30 17331 H 1577.72 1.83374 0.0678595 0
M  V30 17332 H 1576.1 3.22758 2.29441 0
M  V30 17333 H 1577.27 4.60312 -0.211944 0
M  V30 17334 H 1575.59 4.16387 -0.0333571 0
M  V30 17335 H 1578.19 4.60804 2.71226 0
M  V30 17336 H 1578.53 2.91532 2.97178 0
M  V30 17337 H 1579.06 3.69865 1.46439 0
M  V30 17338 H 1575.8 6.53608 0.497629 0
M  V30 17339 H 1575.32 5.66459 1.9719 0
M  V30 17340 H 1577 6.22338 1.76929 0
M  V30 17341 N 1577.13 -0.380637 1.52934 0
M  V30 17342 C 1578.08 -1.48584 1.78957 0
M  V30 17343 C 1579.07 -1.56103 0.657901 0
M  V30 17344 O 1580.28 -1.59169 0.84055 0
M  V30 17345 H 1576.66 -0.494687 0.566382 0
M  V30 17346 H 1578.63 -1.23833 2.71492 0
M  V30 17347 C 1577.38 -2.85615 1.98291 0
M  V30 17348 H 1576.7 -2.80583 2.84804 0
M  V30 17349 H 1578.14 -3.62164 2.20485 0
M  V30 17350 C 1576.6 -3.28267 0.757764 0
M  V30 17351 O 1577.13 -4.01654 -0.0608007 0
M  V30 17352 N 1575.33 -2.84641 0.585486 0
M  V30 17353 H 1574.88 -2.25087 1.25274 0
M  V30 17354 H 1574.84 -3.13536 -0.232871 0
M  V30 17355 N 1578.61 -1.44039 -0.639573 0
M  V30 17356 C 1579.84 -1.49844 -1.42669 0
M  V30 17357 C 1580.25 -0.120599 -1.88414 0
M  V30 17358 O 1579.61 0.871875 -1.60327 0
M  V30 17359 C 1579.66 -2.45597 -2.65263 0
M  V30 17360 O 1579.38 -3.78023 -2.21427 0
M  V30 17361 C 1580.88 -2.60781 -3.5848 0
M  V30 17362 H 1578.1 -0.508477 -0.437826 0
M  V30 17363 H 1580.65 -1.88919 -0.782923 0
M  V30 17364 H 1578.8 -2.09679 -3.2575 0
M  V30 17365 H 1579.22 -4.29642 -3.00846 0
M  V30 17366 H 1580.69 -3.31826 -4.4113 0
M  V30 17367 H 1581.17 -1.65727 -4.06732 0
M  V30 17368 H 1581.77 -2.97565 -3.03867 0
M  V30 17369 N 1580.09 0.879207 -1.30796 0
M  V30 17370 C 1581.04 1.98553 -1.17667 0
M  V30 17371 C 1582.01 1.65974 -0.0647231 0
M  V30 17372 O 1583.19 1.89336 -0.235941 0
M  V30 17373 C 1580.33 3.3368 -0.880434 0
M  V30 17374 C 1579.44 3.78913 -2.07482 0
M  V30 17375 C 1578.58 5.02714 -1.71617 0
M  V30 17376 C 1577.62 5.40371 -2.87517 0
M  V30 17377 N 1576.75 6.55352 -2.5191 0
M  V30 17378 H 1581.59 2.09115 -2.12309 0
M  V30 17379 H 1579.13 1.02382 -1.05623 0
M  V30 17380 H 1581.09 4.11467 -0.689278 0
M  V30 17381 H 1579.72 3.22787 0.0291283 0
M  V30 17382 H 1578.77 2.96987 -2.37704 0
M  V30 17383 H 1580.08 4.02757 -2.94259 0
M  V30 17384 H 1579.24 5.88142 -1.4891 0
M  V30 17385 H 1577.98 4.80754 -0.820181 0
M  V30 17386 H 1576.98 4.53466 -3.10883 0
M  V30 17387 H 1578.21 5.64301 -3.77811 0
M  V30 17388 H 1576.15 6.34956 -1.64823 0
M  V30 17389 H 1576.07 6.79093 -3.32217 0
M  V30 17390 H 1577.34 7.43996 -2.32573 0
M  V30 17391 N 1581.57 1.13606 1.09231 0
M  V30 17392 C 1582.53 0.818197 2.14099 0
M  V30 17393 C 1583.53 -0.173275 1.59864 0
M  V30 17394 O 1584.72 0.05405 1.74116 0
M  V30 17395 C 1581.85 0.218138 3.40201 0
M  V30 17396 H 1583.05 1.74748 2.43727 0
M  V30 17397 H 1580.6 0.940962 1.24802 0
M  V30 17398 H 1581.33 -0.720269 3.162 0
M  V30 17399 H 1581.12 0.932156 3.80859 0
M  V30 17400 H 1582.61 0.0126639 4.17598 0
M  V30 17401 N 1583.05 -1.27244 0.929878 0
M  V30 17402 C 1583.99 -2.28755 0.421202 0
M  V30 17403 C 1584.99 -1.61988 -0.49561 0
M  V30 17404 O 1586.19 -1.76049 -0.375071 0
M  V30 17405 H 1582.57 -0.742741 0.117646 0
M  V30 17406 H 1584.54 -2.6907 1.29011 0
M  V30 17407 C 1583.29 -3.46327 -0.308737 0
M  V30 17408 H 1582.61 -3.97917 0.387552 0
M  V30 17409 H 1584.05 -4.19308 -0.629052 0
M  V30 17410 C 1582.51 -3.00535 -1.5225 0
M  V30 17411 O 1583.04 -3.04395 -2.62119 0
M  V30 17412 N 1581.25 -2.56007 -1.3751 0
M  V30 17413 H 1580.79 -2.53065 -0.481215 0
M  V30 17414 H 1580.75 -2.25731 -2.18845 0
M  V30 17415 N 1584.52 -0.695628 -1.41417 0
M  V30 17416 C 1585.8 -0.154646 -1.94988 0
M  V30 17417 C 1586.18 1.33534 -1.63499 0
M  V30 17418 O 1585.53 2.08178 -0.942031 0
M  V30 17419 C 1585.74 -0.446004 -3.46138 0
M  V30 17420 C 1587.09 -0.37378 -4.22952 0
M  V30 17421 O 1588.11 -0.380921 -3.54157 0
M  V30 17422 O 1586.97 -0.33395 -5.45479 0
M  V30 17423 H 1584.06 -0.0150053 -0.826864 0
M  V30 17424 H 1586.61 -0.771792 -1.51134 0
M  V30 17425 H 1585.38 -1.47734 -3.6234 0
M  V30 17426 H 1585 0.202111 -3.97086 0
M  V30 17427 N 1586 1.51322 -0.440383 0
M  V30 17428 C 1587.23 2.0653 0.123649 0
M  V30 17429 C 1587.64 1.30751 1.36197 0
M  V30 17430 O 1587 0.367932 1.78753 0
M  V30 17431 C 1587.05 3.58778 0.442802 0
M  V30 17432 O 1586.77 4.31695 -0.746375 0
M  V30 17433 C 1588.27 4.3051 1.05717 0
M  V30 17434 H 1585.49 0.670968 0.00657466 0
M  V30 17435 H 1588.04 1.94864 -0.620341 0
M  V30 17436 H 1586.19 3.70349 1.13669 0
M  V30 17437 H 1586.61 5.22368 -0.472466 0
M  V30 17438 H 1588.08 5.38111 1.23046 0
M  V30 17439 H 1588.56 3.88999 2.03903 0
M  V30 17440 H 1589.16 4.2339 0.402574 0
M  V30 17441 N 1587.48 0.171848 1.5666 0
M  V30 17442 C 1588.7 -0.482396 2.01712 0
M  V30 17443 C 1589.13 -1.5598 1.05128 0
M  V30 17444 O 1588.49 -1.81274 0.0309178 0
M  V30 17445 C 1588.54 -1.03716 3.45363 0
M  V30 17446 O 1587.64 -2.15114 3.51852 0
M  V30 17447 H 1586.98 -0.115439 0.653888 0
M  V30 17448 H 1589.51 0.275895 2.02731 0
M  V30 17449 H 1589.52 -1.35964 3.84679 0
M  V30 17450 H 1588.2 -0.24832 4.15158 0
M  V30 17451 H 1586.77 -1.83907 3.24396 0
M  V30 17452 N 1588.96 -1.5727 -0.101874 0
M  V30 17453 C 1589.87 -2.04896 -1.14257 0
M  V30 17454 C 1590.88 -0.972561 -1.44282 0
M  V30 17455 O 1592.06 -1.28526 -1.55058 0
M  V30 17456 C 1589.12 -2.45818 -2.44488 0
M  V30 17457 C 1588.19 -3.6762 -2.21707 0
M  V30 17458 C 1587.42 -4.06581 -3.45728 0
M  V30 17459 O 1587.64 -3.45702 -4.53703 0
M  V30 17460 O 1586.58 -4.99578 -3.35716 0
M  V30 17461 H 1590.4 -2.93827 -0.768085 0
M  V30 17462 H 1587.99 -1.46065 -0.313902 0
M  V30 17463 H 1589.87 -2.72796 -3.21186 0
M  V30 17464 H 1588.54 -1.60028 -2.81377 0
M  V30 17465 H 1587.45 -3.45768 -1.42812 0
M  V30 17466 H 1588.78 -4.54169 -1.89714 0
M  V30 17467 N 1590.44 0.372521 -1.53134 0
M  V30 17468 C 1591.35 1.47994 -1.8203 0
M  V30 17469 C 1592.36 1.58937 -0.708179 0
M  V30 17470 O 1593.54 1.74962 -0.997511 0
M  V30 17471 C 1590.6 2.83342 -1.99796 0
M  V30 17472 C 1589.66 2.81984 -3.23702 0
M  V30 17473 C 1588.9 4.10877 -3.40611 0
M  V30 17474 O 1589.12 5.06686 -2.61964 0
M  V30 17475 O 1588.05 4.17111 -4.33938 0
M  V30 17476 H 1591.88 1.26501 -2.761 0
M  V30 17477 H 1589.46 0.561957 -1.38428 0
M  V30 17478 H 1591.35 3.63551 -2.13092 0
M  V30 17479 H 1590.02 3.04826 -1.08916 0
M  V30 17480 H 1588.93 2.00498 -3.15834 0
M  V30 17481 H 1590.26 2.65453 -4.14482 0
M  V30 17482 N 1591.91 1.44376 0.631925 0
M  V30 17483 C 1592.85 1.45649 1.75675 0
M  V30 17484 C 1593.82 0.31542 1.59511 0
M  V30 17485 O 1595.01 0.512271 1.81406 0
M  V30 17486 C 1592.14 1.2884 3.13238 0
M  V30 17487 C 1591.18 2.46499 3.48053 0
M  V30 17488 S 1592.01 4.0903 3.45622 0
M  V30 17489 C 1593.17 3.94643 4.85807 0
M  V30 17490 H 1593.4 2.40825 1.74328 0
M  V30 17491 H 1590.94 1.31664 0.806467 0
M  V30 17492 H 1592.89 1.19829 3.92621 0
M  V30 17493 H 1591.56 0.351754 3.12124 0
M  V30 17494 H 1590.75 2.30599 4.48152 0
M  V30 17495 H 1590.35 2.52245 2.76131 0
M  V30 17496 H 1592.64 3.58283 5.75012 0
M  V30 17497 H 1593.59 4.94569 5.06761 0
M  V30 17498 H 1593.99 3.26717 4.60343 0
M  V30 17499 N 1593.39 -0.872258 1.31261 0
M  V30 17500 C 1594.81 -1.15763 1.09868 0
M  V30 17501 C 1595.01 -2.01065 -0.132331 0
M  V30 17502 O 1594.06 -2.38735 -0.822317 0
M  V30 17503 C 1595.38 -1.85199 2.36901 0
M  V30 17504 C 1596.92 -1.9791 2.42489 0
M  V30 17505 C 1597.4 -2.70759 3.69396 0
M  V30 17506 N 1598.89 -2.78296 3.70278 0
M  V30 17507 C 1599.63 -3.3527 4.65168 0
M  V30 17508 N 1599.12 -3.93193 5.70413 0
M  V30 17509 N 1600.91 -3.33206 4.52692 0
M  V30 17510 H 1593.07 -0.303784 2.10216 0
M  V30 17511 H 1595.33 -0.197172 0.927269 0
M  V30 17512 H 1595.03 -1.29968 3.26804 0
M  V30 17513 H 1594.91 -2.85493 2.46523 0
M  V30 17514 H 1597.3 -2.52305 1.53056 0
M  V30 17515 H 1597.38 -0.966644 2.36833 0
M  V30 17516 H 1597.02 -2.17031 4.59195 0
M  V30 17517 H 1596.95 -3.72407 3.72318 0
M  V30 17518 H 1599.44 -2.37185 2.94197 0
M  V30 17519 H 1599.75 -4.34771 6.38901 0
M  V30 17520 H 1598.1 -3.91575 5.7419 0
M  V30 17521 H 1601.29 -2.87191 3.69647 0
M  V30 17522 H 1601.46 -3.7731 5.26822 0
M  V30 17523 N 1594.87 -1.14184 -1.08627 0
M  V30 17524 C 1595.82 -0.795361 -2.13677 0
M  V30 17525 C 1596.8 0.214426 -1.59465 0
M  V30 17526 O 1598 0.0171053 -1.76992 0
M  V30 17527 C 1595.12 -0.272074 -3.4222 0
M  V30 17528 C 1594.21 -1.31125 -4.0332 0
M  V30 17529 N 1594.6 -2.51469 -4.38859 0
M  V30 17530 C 1592.9 -1.16095 -4.30625 0
M  V30 17531 C 1593.6 -3.17975 -4.871 0
M  V30 17532 N 1592.58 -2.45382 -4.85066 0
M  V30 17533 H 1596.38 -1.71086 -2.38971 0
M  V30 17534 H 1593.89 -1.02537 -1.25936 0
M  V30 17535 H 1595.89 -0.00556906 -4.169 0
M  V30 17536 H 1594.55 0.637644 -3.18377 0
M  V30 17537 H 1595.56 -2.88714 -4.29959 0
M  V30 17538 H 1592.24 -0.310066 -4.16347 0
M  V30 17539 H 1593.63 -4.20569 -5.23996 0
M  V30 17540 N 1596.35 1.26749 -0.936613 0
M  V30 17541 C 1597.76 1.46284 -0.638218 0
M  V30 17542 C 1597.96 1.84509 0.80986 0
M  V30 17543 O 1597.02 1.96399 1.58693 0
M  V30 17544 C 1598.33 2.54867 -1.59573 0
M  V30 17545 C 1599.88 2.68721 -1.60493 0
M  V30 17546 C 1600.36 3.80471 -2.54963 0
M  V30 17547 N 1601.85 3.87857 -2.53221 0
M  V30 17548 C 1602.58 4.73767 -3.23005 0
M  V30 17549 N 1602.08 5.641 -4.02198 0
M  V30 17550 N 1603.87 4.67574 -3.11979 0
M  V30 17551 H 1596.02 1.00224 -1.87267 0
M  V30 17552 H 1598.29 0.501478 -0.804502 0
M  V30 17553 H 1597.99 2.33594 -2.62919 0
M  V30 17554 H 1597.87 3.52433 -1.34427 0
M  V30 17555 H 1600.25 2.8937 -0.578729 0
M  V30 17556 H 1600.33 1.71613 -1.89691 0
M  V30 17557 H 1599.98 3.60575 -3.57698 0
M  V30 17558 H 1599.91 4.77026 -2.23056 0
M  V30 17559 H 1602.4 3.23272 -1.95714 0
M  V30 17560 H 1602.71 6.26535 -4.52409 0
M  V30 17561 H 1601.06 5.63866 -4.063 0
M  V30 17562 H 1604.25 3.96004 -2.49596 0
M  V30 17563 H 1604.42 5.34308 -3.66633 0
M  V30 17564 N 1597.83 0.703118 1.41046 0
M  V30 17565 C 1599.07 0.237287 2.01105 0
M  V30 17566 C 1599.4 -1.16552 1.55711 0
M  V30 17567 O 1598.66 -1.80233 0.762533 0
M  V30 17568 C 1598.96 0.251575 3.56513 0
M  V30 17569 C 1598.62 1.60295 4.21446 0
M  V30 17570 C 1597.28 1.9729 4.38897 0
M  V30 17571 C 1599.64 2.49167 4.57783 0
M  V30 17572 C 1596.96 3.22726 4.89964 0
M  V30 17573 C 1599.32 3.73943 5.10244 0
M  V30 17574 C 1597.98 4.11072 5.25905 0
M  V30 17575 H 1597.25 0.0868294 0.735895 0
M  V30 17576 H 1599.9 0.903695 1.68836 0
M  V30 17577 H 1598.2 -0.498393 3.88617 0
M  V30 17578 H 1599.9 -0.126501 4.008 0
M  V30 17579 H 1596.49 1.30523 4.08242 0
M  V30 17580 H 1600.67 2.21864 4.43948 0
M  V30 17581 H 1595.93 3.51477 5.00274 0
M  V30 17582 H 1600.1 4.42988 5.3734 0
M  V30 17583 H 1597.73 5.0834 5.65239 0
M  V30 17584 N 1599.3 -1.51086 0.448402 0
M  V30 17585 C 1600.72 -1.59278 0.101286 0
M  V30 17586 C 1600.92 -1.45847 -1.39036 0
M  V30 17587 O 1599.98 -1.30534 -2.16142 0
M  V30 17588 C 1601.29 -2.93999 0.631264 0
M  V30 17589 C 1602.84 -3.07337 0.59268 0
M  V30 17590 C 1603.31 -4.44599 1.09982 0
M  V30 17591 N 1604.8 -4.50949 1.05827 0
M  V30 17592 C 1605.54 -5.55503 1.42142 0
M  V30 17593 N 1605.03 -6.67422 1.85796 0
M  V30 17594 N 1606.83 -5.45922 1.33888 0
M  V30 17595 H 1598.98 -1.58062 1.41881 0
M  V30 17596 H 1601.24 -0.745702 0.585349 0
M  V30 17597 H 1600.95 -3.09233 1.67534 0
M  V30 17598 H 1600.82 -3.77149 0.0622533 0
M  V30 17599 H 1603.21 -2.91764 -0.442437 0
M  V30 17600 H 1603.29 -2.26 1.19823 0
M  V30 17601 H 1602.93 -4.60919 2.13345 0
M  V30 17602 H 1602.86 -5.24492 0.470703 0
M  V30 17603 H 1605.35 -3.70627 0.737822 0
M  V30 17604 H 1605.67 -7.43234 2.11714 0
M  V30 17605 H 1604.01 -6.68601 1.89731 0
M  V30 17606 H 1607.2 -4.57372 0.996415 0
M  V30 17607 H 1607.38 -6.2729 1.62517 0
M  V30 17608 N 1600.78 -0.180154 -1.56567 0
M  V30 17609 C 1601.71 0.77825 -2.15583 0
M  V30 17610 C 1602.73 1.18746 -1.1137 0
M  V30 17611 O 1603.92 1.12578 -1.38523 0
M  V30 17612 C 1601.02 2.06024 -2.69086 0
M  V30 17613 C 1600.19 1.8132 -3.98047 0
M  V30 17614 C 1599.25 2.93823 -4.36526 0
M  V30 17615 O 1598.27 2.64075 -5.04235 0
M  V30 17616 N 1599.48 4.21823 -3.98806 0
M  V30 17617 H 1602.24 0.273661 -2.98448 0
M  V30 17618 H 1599.8 0.00232952 -1.619 0
M  V30 17619 H 1601.79 2.80398 -2.9182 0
M  V30 17620 H 1600.36 2.47648 -1.9076 0
M  V30 17621 H 1599.58 0.908046 -3.83599 0
M  V30 17622 H 1600.87 1.62194 -4.82256 0
M  V30 17623 H 1600.27 4.48849 -3.44313 0
M  V30 17624 H 1598.83 4.92871 -4.26522 0
M  V30 17625 N 1602.26 1.57322 0.0935319 0
M  V30 17626 C 1603.19 2.05208 1.11409 0
M  V30 17627 C 1604.17 0.941295 1.41681 0
M  V30 17628 O 1605.36 1.21266 1.51684 0
M  V30 17629 C 1602.49 2.47782 2.43354 0
M  V30 17630 C 1601.44 3.62538 2.27486 0
M  V30 17631 C 1600.77 3.91095 3.64622 0
M  V30 17632 C 1602.07 4.93371 1.71412 0
M  V30 17633 H 1603.76 2.9072 0.715702 0
M  V30 17634 H 1601.31 1.3986 0.342827 0
M  V30 17635 H 1603.26 2.79891 3.15022 0
M  V30 17636 H 1601.98 1.59272 2.85132 0
M  V30 17637 H 1600.64 3.30679 1.58263 0
M  V30 17638 H 1600.29 2.99749 4.0393 0
M  V30 17639 H 1599.99 4.68353 3.5485 0
M  V30 17640 H 1601.51 4.25679 4.37755 0
M  V30 17641 H 1602.93 5.23851 2.32922 0
M  V30 17642 H 1601.33 5.74804 1.72395 0
M  V30 17643 H 1602.4 4.80197 0.67368 0
M  V30 17644 N 1603.74 -0.364395 1.53329 0
M  V30 17645 C 1605.02 -1.12265 1.60174 0
M  V30 17646 C 1605.4 -2.0708 0.410015 0
M  V30 17647 O 1604.74 -2.20492 -0.599631 0
M  V30 17648 C 1604.95 -1.86071 2.9526 0
M  V30 17649 C 1606.3 -2.40562 3.49879 0
M  V30 17650 O 1607.33 -1.96196 2.97297 0
M  V30 17651 O 1606.18 -3.2167 4.41804 0
M  V30 17652 H 1603.28 -0.515062 0.647024 0
M  V30 17653 H 1605.82 -0.367563 1.65672 0
M  V30 17654 H 1604.6 -1.1688 3.73436 0
M  V30 17655 H 1604.22 -2.68486 2.93259 0
M  V30 17656 N 1605.22 -1.44709 -0.62426 0
M  V30 17657 C 1606.44 -1.51348 -1.41072 0
M  V30 17658 C 1606.86 -0.140576 -1.88276 0
M  V30 17659 O 1606.22 0.854821 -1.61242 0
M  V30 17660 C 1606.27 -2.48396 -2.62643 0
M  V30 17661 O 1605.99 -3.8035 -2.17406 0
M  V30 17662 C 1607.49 -2.64568 -3.55694 0
M  V30 17663 H 1604.71 -0.513092 -0.432409 0
M  V30 17664 H 1607.25 -1.89739 -0.762841 0
M  V30 17665 H 1605.41 -2.13122 -3.23508 0
M  V30 17666 H 1605.82 -4.32809 -2.96272 0
M  V30 17667 H 1607.3 -3.36486 -4.37585 0
M  V30 17668 H 1607.77 -1.70031 -4.04952 0
M  V30 17669 H 1608.38 -3.00771 -3.00694 0
M  V30 17670 N 1606.69 0.865285 -1.31722 0
M  V30 17671 C 1607.64 1.97294 -1.19766 0
M  V30 17672 C 1608.61 1.65896 -0.0823232 0
M  V30 17673 O 1609.8 1.89075 -0.256009 0
M  V30 17674 C 1606.94 3.32727 -0.915776 0
M  V30 17675 C 1606.05 3.76691 -2.11489 0
M  V30 17676 C 1605.18 5.00865 -1.76939 0
M  V30 17677 C 1604.22 5.37291 -2.93232 0
M  V30 17678 N 1603.36 6.52643 -2.58846 0
M  V30 17679 H 1608.2 2.06851 -2.14515 0
M  V30 17680 H 1605.74 1.01256 -1.06703 0
M  V30 17681 H 1607.7 4.10712 -0.732881 0
M  V30 17682 H 1606.33 3.228 -0.00510917 0
M  V30 17683 H 1605.38 2.94449 -2.4084 0
M  V30 17684 H 1606.69 3.99613 -2.98514 0
M  V30 17685 H 1605.84 5.86529 -1.5514 0
M  V30 17686 H 1604.58 4.79857 -0.871125 0
M  V30 17687 H 1603.59 4.50143 -3.15675 0
M  V30 17688 H 1604.81 5.60262 -3.83775 0
M  V30 17689 H 1602.76 6.33172 -1.71548 0
M  V30 17690 H 1602.68 6.75531 -3.39401 0
M  V30 17691 H 1603.94 7.41487 -2.40451 0
M  V30 17692 N 1608.17 1.14759 1.0802 0
M  V30 17693 C 1609.1 0.860977 2.17047 0
M  V30 17694 C 1610.08 -0.185652 1.69084 0
M  V30 17695 O 1611.27 -0.0414797 1.94156 0
M  V30 17696 C 1608.4 0.342018 3.45612 0
M  V30 17697 C 1607.35 1.32455 4.06989 0
M  V30 17698 C 1606.68 0.664721 5.30552 0
M  V30 17699 C 1607.98 2.68819 4.4781 0
M  V30 17700 H 1609.67 1.77269 2.4128 0
M  V30 17701 H 1607.22 0.853757 1.15961 0
M  V30 17702 H 1609.17 0.129093 4.21202 0
M  V30 17703 H 1607.9 -0.605138 3.20945 0
M  V30 17704 H 1606.55 1.52371 3.33435 0
M  V30 17705 H 1606.2 -0.288367 5.02173 0
M  V30 17706 H 1605.9 1.32036 5.72573 0
M  V30 17707 H 1607.43 0.461412 6.08854 0
M  V30 17708 H 1608.84 2.52787 5.14559 0
M  V30 17709 H 1607.24 3.30694 5.00761 0
M  V30 17710 H 1608.31 3.25398 3.59506 0
M  V30 17711 N 1609.65 -1.26251 0.943322 0
M  V30 17712 C 1610.6 -2.28295 0.445441 0
M  V30 17713 C 1611.59 -1.62504 -0.478401 0
M  V30 17714 O 1612.8 -1.76437 -0.356378 0
M  V30 17715 H 1609.17 -0.741451 0.125517 0
M  V30 17716 H 1611.14 -2.67687 1.31858 0
M  V30 17717 C 1609.89 -3.46635 -0.271987 0
M  V30 17718 H 1609.22 -3.97484 0.429734 0
M  V30 17719 H 1610.66 -4.19951 -0.584544 0
M  V30 17720 C 1609.12 -3.02133 -1.49054 0
M  V30 17721 O 1609.65 -3.07158 -2.58876 0
M  V30 17722 N 1607.85 -2.57451 -1.34787 0
M  V30 17723 H 1607.4 -2.53562 -0.454347 0
M  V30 17724 H 1607.36 -2.28039 -2.16438 0
M  V30 17725 N 1611.13 -0.710588 -1.40671 0
M  V30 17726 C 1612.41 -0.175319 -1.94813 0
M  V30 17727 C 1612.79 1.31792 -1.64906 0
M  V30 17728 O 1612.13 2.07167 -0.964058 0
M  V30 17729 C 1612.34 -0.482691 -3.45646 0
M  V30 17730 C 1613.69 -0.418619 -4.22531 0
M  V30 17731 O 1614.72 -0.418463 -3.53733 0
M  V30 17732 O 1613.58 -0.391787 -5.45094 0
M  V30 17733 H 1610.67 -0.0237744 -0.826658 0
M  V30 17734 H 1613.22 -0.787778 -1.50307 0
M  V30 17735 H 1611.99 -1.51569 -3.60753 0
M  V30 17736 H 1611.61 0.159984 -3.97278 0
M  V30 17737 N 1612.61 1.50847 -0.456408 0
M  V30 17738 C 1613.54 2.31077 0.335523 0
M  V30 17739 C 1614.52 1.37326 1.00377 0
M  V30 17740 O 1615.7 1.66247 1.00376 0
M  V30 17741 C 1612.83 3.16662 1.42627 0
M  V30 17742 C 1611.79 4.18846 0.88045 0
M  V30 17743 C 1611.11 4.93074 2.06838 0
M  V30 17744 C 1612.41 5.22208 -0.0982288 0
M  V30 17745 H 1614.11 2.97531 -0.334056 0
M  V30 17746 H 1611.65 1.43085 -0.162099 0
M  V30 17747 H 1613.61 3.71578 1.98765 0
M  V30 17748 H 1612.33 2.48066 2.12441 0
M  V30 17749 H 1610.99 3.65009 0.341147 0
M  V30 17750 H 1610.64 4.20963 2.75316 0
M  V30 17751 H 1610.34 5.62184 1.70947 0
M  V30 17752 H 1611.86 5.5082 2.63494 0
M  V30 17753 H 1613.28 5.72082 0.373481 0
M  V30 17754 H 1611.67 5.98954 -0.370674 0
M  V30 17755 H 1612.74 4.73859 -1.02887 0
M  V30 17756 N 1614.09 0.188454 1.56469 0
M  V30 17757 C 1615.03 -0.735074 2.18781 0
M  V30 17758 C 1616 -1.21459 1.133 0
M  V30 17759 O 1617.19 -1.27967 1.41524 0
M  V30 17760 C 1614.33 -1.95181 2.84602 0
M  V30 17761 C 1613.44 -1.51428 4.0459 0
M  V30 17762 C 1612.58 -2.68601 4.58287 0
M  V30 17763 C 1611.61 -2.21422 5.70648 0
M  V30 17764 N 1610.75 -3.31749 6.18779 0
M  V30 17765 H 1615.59 -0.19694 2.97349 0
M  V30 17766 H 1613.13 -0.0854693 1.46851 0
M  V30 17767 H 1615.09 -2.66571 3.2093 0
M  V30 17768 H 1613.72 -2.46337 2.0861 0
M  V30 17769 H 1612.77 -0.6965 3.73969 0
M  V30 17770 H 1614.08 -1.1281 4.85876 0
M  V30 17771 H 1613.23 -3.48123 4.96885 0
M  V30 17772 H 1611.97 -3.1049 3.76095 0
M  V30 17773 H 1610.98 -1.40352 5.31584 0
M  V30 17774 H 1612.2 -1.80572 6.54653 0
M  V30 17775 H 1610.15 -3.73181 5.39511 0
M  V30 17776 H 1610.07 -2.97277 6.95099 0
M  V30 17777 H 1611.33 -4.11504 6.62031 0
M  V30 17778 N 1615.56 -1.5737 -0.0851874 0
M  V30 17779 C 1616.81 -1.86219 -0.7853 0
M  V30 17780 C 1617.13 -0.77857 -1.78783 0
M  V30 17781 O 1616.4 0.194176 -1.94935 0
M  V30 17782 H 1614.98 -0.687134 -0.293013 0
M  V30 17783 H 1617.64 -1.94793 -0.0644597 0
M  V30 17784 H 1616.74 -2.83286 -1.30978 0
M  V30 17785 N 1617.04 0.356258 -1.53521 0
M  V30 17786 C 1617.97 1.44271 -1.83598 0
M  V30 17787 C 1618.95 1.5547 -0.690141 0
M  V30 17788 O 1620.14 1.69886 -0.940868 0
M  V30 17789 C 1617.27 2.8149 -2.03422 0
M  V30 17790 C 1616.22 2.85108 -3.19213 0
M  V30 17791 C 1615.55 4.25091 -3.24348 0
M  V30 17792 C 1616.85 2.51788 -4.57602 0
M  V30 17793 H 1618.54 1.1935 -2.74583 0
M  V30 17794 H 1616.09 0.572707 -1.32121 0
M  V30 17795 H 1618.04 3.57531 -2.23046 0
M  V30 17796 H 1616.76 3.07819 -1.09155 0
M  V30 17797 H 1615.42 2.1152 -2.99424 0
M  V30 17798 H 1615.07 4.4851 -2.277 0
M  V30 17799 H 1614.77 4.28426 -4.0215 0
M  V30 17800 H 1616.3 5.02992 -3.46167 0
M  V30 17801 H 1617.71 3.17542 -4.77326 0
M  V30 17802 H 1616.11 2.66426 -5.37715 0
M  V30 17803 H 1617.18 1.4701 -4.62078 0
M  V30 17804 N 1618.52 1.45038 0.616577 0
M  V30 17805 C 1619.45 1.55858 1.73869 0
M  V30 17806 C 1620.43 0.410657 1.65069 0
M  V30 17807 O 1621.62 0.632652 1.83606 0
M  V30 17808 C 1618.75 1.51635 3.12448 0
M  V30 17809 C 1617.7 2.65053 3.36052 0
M  V30 17810 C 1617.03 2.45883 4.74811 0
M  V30 17811 C 1618.33 4.07121 3.27185 0
M  V30 17812 H 1620.02 2.49784 1.6507 0
M  V30 17813 H 1617.57 1.20216 0.792724 0
M  V30 17814 H 1619.52 1.57803 3.90738 0
M  V30 17815 H 1618.24 0.542342 3.22066 0
M  V30 17816 H 1616.9 2.58299 2.60149 0
M  V30 17817 H 1616.55 1.46641 4.8115 0
M  V30 17818 H 1616.25 3.21935 4.9156 0
M  V30 17819 H 1617.77 2.53892 5.55312 0
M  V30 17820 H 1619.19 4.15167 3.9536 0
M  V30 17821 H 1617.58 4.83491 3.55466 0
M  V30 17822 H 1618.65 4.29663 2.24762 0
M  V30 17823 N 1620 -0.858287 1.32179 0
M  V30 17824 C 1620.94 -1.96656 1.20811 0
M  V30 17825 C 1621.91 -1.6585 0.0911199 0
M  V30 17826 O 1623.1 -1.88936 0.266033 0
M  V30 17827 C 1620.24 -3.32237 0.933408 0
M  V30 17828 C 1619.35 -3.75564 2.13484 0
M  V30 17829 C 1618.49 -4.9992 1.79593 0
M  V30 17830 C 1617.53 -5.35728 2.96077 0
M  V30 17831 N 1616.66 -6.51261 2.62304 0
M  V30 17832 H 1621.5 -2.05711 2.15609 0
M  V30 17833 H 1619.04 -1.00689 1.07239 0
M  V30 17834 H 1621 -4.10318 0.754651 0
M  V30 17835 H 1619.63 -3.22792 0.0222279 0
M  V30 17836 H 1618.68 -2.93167 2.42399 0
M  V30 17837 H 1619.99 -3.98025 3.00629 0
M  V30 17838 H 1619.15 -5.85698 1.58248 0
M  V30 17839 H 1617.89 -4.79388 0.896561 0
M  V30 17840 H 1616.89 -4.48463 3.18058 0
M  V30 17841 H 1618.12 -5.58219 3.86741 0
M  V30 17842 H 1616.06 -6.32254 1.74904 0
M  V30 17843 H 1615.98 -6.73722 3.42979 0
M  V30 17844 H 1617.25 -7.40202 2.4438 0
M  V30 17845 N 1621.48 -1.1533 -1.07409 0
M  V30 17846 C 1622.39 -0.863514 -2.1813 0
M  V30 17847 C 1623.4 0.159954 -1.73263 0
M  V30 17848 O 1624.58 -0.0139818 -2.01395 0
M  V30 17849 C 1621.64 -0.356271 -3.44865 0
M  V30 17850 C 1620.7 -1.44356 -4.04302 0
M  V30 17851 C 1619.94 -0.960429 -5.24987 0
M  V30 17852 O 1620.16 0.194227 -5.70069 0
M  V30 17853 O 1619.09 -1.74387 -5.76084 0
M  V30 17854 H 1622.92 -1.78909 -2.45408 0
M  V30 17855 H 1620.5 -0.932362 -1.16736 0
M  V30 17856 H 1622.39 -0.0798183 -4.21324 0
M  V30 17857 H 1621.06 0.541445 -3.1914 0
M  V30 17858 H 1619.97 -1.77361 -3.29384 0
M  V30 17859 H 1621.3 -2.31617 -4.34298 0
M  V30 17860 N 1622.95 1.25748 -0.950004 0
M  V30 17861 C 1624.2 1.92632 -0.597988 0
M  V30 17862 C 1624.52 1.75268 0.868365 0
M  V30 17863 O 1625.72 2.36684 1.33014 0
M  V30 17864 C 1624.18 3.45179 -1.01879 0
M  V30 17865 C 1623.79 3.71262 -2.50736 0
M  V30 17866 C 1625.53 4.18017 -0.739084 0
M  V30 17867 C 1623.44 5.17292 -2.8664 0
M  V30 17868 H 1622.37 0.72121 -0.219938 0
M  V30 17869 H 1625.02 1.42685 -1.15383 0
M  V30 17870 H 1623.4 3.94061 -0.391395 0
M  V30 17871 H 1624.57 3.33051 -3.18455 0
M  V30 17872 H 1622.89 3.11676 -2.76129 0
M  V30 17873 H 1625.49 5.25576 -0.983555 0
M  V30 17874 H 1625.83 4.15034 0.32439 0
M  V30 17875 H 1626.36 3.75028 -1.32661 0
M  V30 17876 H 1623.1 5.25383 -3.91987 0
M  V30 17877 H 1622.62 5.56567 -2.23591 0
M  V30 17878 H 1624.3 5.85375 -2.75582 0
M  V30 17879 N 1624.43 0.718038 1.40292 0
M  V30 17880 C 1625.39 0.0757483 2.29075 0
M  V30 17881 C 1626.39 -0.684831 1.45488 0
M  V30 17882 O 1627.58 -0.516369 1.66371 0
M  V30 17883 C 1624.72 -0.902534 3.28736 0
M  V30 17884 H 1625.91 0.857729 2.87373 0
M  V30 17885 H 1623.46 0.482839 1.48655 0
M  V30 17886 H 1624.2 -1.71148 2.75461 0
M  V30 17887 H 1623.98 -0.360009 3.90444 0
M  V30 17888 H 1625.47 -1.34903 3.9521 0
M  V30 17889 N 1625.91 -1.50602 0.464402 0
M  V30 17890 C 1626.86 -2.29992 -0.347337 0
M  V30 17891 C 1627.85 -1.36991 -0.996489 0
M  V30 17892 O 1629.06 -1.54213 -0.928359 0
M  V30 17893 H 1625.43 -0.740529 -0.130847 0
M  V30 17894 H 1627.4 -2.96425 0.342734 0
M  V30 17895 C 1626.15 -3.17355 -1.4206 0
M  V30 17896 H 1625.48 -3.88822 -0.930473 0
M  V30 17897 H 1626.92 -3.75912 -1.96129 0
M  V30 17898 C 1625.38 -2.34506 -2.41886 0
M  V30 17899 O 1625.91 -2.02347 -3.47014 0
M  V30 17900 N 1624.11 -1.97212 -2.13438 0
M  V30 17901 H 1623.66 -2.23564 -1.27971 0
M  V30 17902 H 1623.62 -1.42081 -2.80464 0
M  V30 17903 N 1627.39 -0.19675 -1.56367 0
M  V30 17904 C 1628.34 0.723461 -2.19168 0
M  V30 17905 C 1629.31 1.20856 -1.13943 0
M  V30 17906 O 1630.49 1.27215 -1.42201 0
M  V30 17907 C 1627.63 1.93669 -2.85633 0
M  V30 17908 C 1626.74 1.49281 -4.05388 0
M  V30 17909 C 1625.88 2.66167 -4.59705 0
M  V30 17910 C 1624.92 2.18393 -5.71814 0
M  V30 17911 N 1624.05 3.28462 -6.20529 0
M  V30 17912 H 1628.89 0.181169 -2.97449 0
M  V30 17913 H 1626.43 0.0776802 -1.46895 0
M  V30 17914 H 1628.39 2.64865 -3.22339 0
M  V30 17915 H 1627.02 2.45227 -2.09913 0
M  V30 17916 H 1626.07 0.676658 -3.74333 0
M  V30 17917 H 1627.38 1.10231 -4.86467 0
M  V30 17918 H 1626.54 3.45483 -4.98725 0
M  V30 17919 H 1625.28 3.08491 -3.77736 0
M  V30 17920 H 1624.28 1.37531 -5.32321 0
M  V30 17921 H 1625.51 1.77097 -6.55602 0
M  V30 17922 H 1623.45 3.70315 -5.41482 0
M  V30 17923 H 1623.37 2.93587 -6.96665 0
M  V30 17924 H 1624.64 4.07988 -6.64204 0
M  V30 17925 N 1628.87 1.57413 0.0768405 0
M  V30 17926 C 1630.12 1.86186 0.775741 0
M  V30 17927 C 1630.43 0.788676 1.78995 0
M  V30 17928 O 1631.63 0.964095 2.53806 0
M  V30 17929 C 1630.09 3.30247 1.43055 0
M  V30 17930 C 1629.7 4.45682 0.45517 0
M  V30 17931 C 1631.44 3.68225 2.11211 0
M  V30 17932 C 1629.35 5.80782 1.11561 0
M  V30 17933 H 1628.28 0.694546 0.293466 0
M  V30 17934 H 1630.93 1.83477 0.0289478 0
M  V30 17935 H 1629.31 3.27552 2.22544 0
M  V30 17936 H 1630.49 4.59759 -0.309535 0
M  V30 17937 H 1628.8 4.16222 -0.121671 0
M  V30 17938 H 1631.4 4.66454 2.6139 0
M  V30 17939 H 1631.74 2.9777 2.90928 0
M  V30 17940 H 1632.27 3.72888 1.38561 0
M  V30 17941 H 1629.01 6.54517 0.358877 0
M  V30 17942 H 1628.53 5.70515 1.8513 0
M  V30 17943 H 1630.21 6.25951 1.63689 0
M  V30 17944 N 1630.34 -0.348112 1.53707 0
M  V30 17945 C 1631.29 -1.42729 1.81375 0
M  V30 17946 C 1632.26 -1.52461 0.659159 0
M  V30 17947 O 1633.45 -1.68072 0.903129 0
M  V30 17948 C 1630.59 -2.79443 2.02498 0
M  V30 17949 C 1629.7 -2.7854 3.30211 0
M  V30 17950 C 1628.83 -4.06942 3.41426 0
M  V30 17951 C 1627.87 -4.00248 4.63106 0
M  V30 17952 N 1627.01 -5.20332 4.7138 0
M  V30 17953 H 1631.85 -1.18436 2.73454 0
M  V30 17954 H 1629.39 -0.573809 1.35447 0
M  V30 17955 H 1631.35 -3.58888 2.12733 0
M  V30 17956 H 1629.98 -3.02099 1.13737 0
M  V30 17957 H 1629.03 -1.91227 3.28841 0
M  V30 17958 H 1630.34 -2.69471 4.19746 0
M  V30 17959 H 1629.49 -4.94808 3.51069 0
M  V30 17960 H 1628.23 -4.18786 2.49939 0
M  V30 17961 H 1627.24 -3.10767 4.53546 0
M  V30 17962 H 1628.46 -3.89991 5.55953 0
M  V30 17963 H 1626.41 -5.32729 3.828 0
M  V30 17964 H 1626.33 -5.13502 5.54844 0
M  V30 17965 H 1627.59 -6.09982 4.85326 0
M  V30 17966 O 1631.86 -1.53756 -0.49409 0
M  V30 17967 H 1632.55 -1.55951 -1.14887 0
M  V30 END ATOM
M  V30 BEGIN BOND
M  V30 END BOND
M  V30 END CTAB
M  END
$$$$
