drugbank_target|Q7Z2H8 Proton-coupled amino acid transporter 1 (DB00160)
 OpenBabel12092119343D

  0  0  0     0  0            999 V3000
M  V30 BEGIN CTAB
M  V30 COUNTS 7569 7666 0 0 0
M  V30 BEGIN ATOM
M  V30 1 H -0.908 1.98254 -0.117106 0
M  V30 2 N 0 1.576 0 0
M  V30 3 C 0.933 2.03868 1.02534 0
M  V30 4 C 1.911 0.928543 1.3348 0
M  V30 5 O 3.095 1.19667 1.45644 0
M  V30 6 C 0.222 2.43627 2.35294 0
M  V30 7 C -0.732 3.65373 2.2001 0
M  V30 8 S 0.101 5.13292 1.52614 0
M  V30 9 C 1.257 5.56322 2.86805 0
M  V30 10 H 1.49 2.90518 0.631377 0
M  V30 11 H -0.977 1.52953 0.210867 0
M  V30 12 H 0.981 2.67203 3.11629 0
M  V30 13 H -0.358 1.57376 2.7183 0
M  V30 14 H -1.165 3.90944 3.18086 0
M  V30 15 H -1.563 3.418 1.51819 0
M  V30 16 H 0.729 5.58782 3.83104 0
M  V30 17 H 1.672 6.56266 2.65933 0
M  V30 18 H 2.08 4.83886 2.90714 0
M  V30 19 N 1.4781 -0.272755 1.55222 0
M  V30 20 C 2.7031 -1.02683 1.80197 0
M  V30 21 C 3.1281 -1.79142 0.573551 0
M  V30 22 O 2.4861 -1.74917 -0.476849 0
M  V30 23 C 2.5341 -1.9609 3.02624 0
M  V30 24 O 1.6381 -3.04863 2.77727 0
M  V30 25 H 0.9791 -0.293557 0.595584 0
M  V30 26 H 3.5091 -0.30159 2.02365 0
M  V30 27 H 3.5191 -2.38039 3.31363 0
M  V30 28 H 2.1941 -1.39851 3.91682 0
M  V30 29 H 0.7711 -2.67228 2.60084 0
M  V30 30 N 2.9562 -1.48159 -0.537278 0
M  V30 31 C 4.1842 -1.59454 -1.31841 0
M  V30 32 C 4.5992 -0.252065 -1.8711 0
M  V30 33 O 3.9562 0.757621 -1.66031 0
M  V30 34 C 4.0072 -2.63546 -2.47439 0
M  V30 35 O 3.7282 -3.92583 -1.94449 0
M  V30 36 C 5.2292 -2.85212 -3.39366 0
M  V30 37 H 2.4492 -0.53785 -0.401196 0
M  V30 38 H 4.9932 -1.93932 -0.648891 0
M  V30 39 H 3.1482 -2.31946 -3.1029 0
M  V30 40 H 3.5622 -4.49629 -2.70063 0
M  V30 41 H 5.0362 -3.61863 -4.16844 0
M  V30 42 H 5.5132 -1.93765 -3.94147 0
M  V30 43 H 6.1192 -3.18086 -2.82314 0
M  V30 44 N 4.4343 0.785586 -1.36625 0
M  V30 45 C 5.3663 1.90711 -1.2713 0
M  V30 46 C 6.3793 1.61688 -0.189986 0
M  V30 47 O 7.5683 1.72864 -0.445014 0
M  V30 48 C 4.6683 3.25611 -0.939713 0
M  V30 49 C 3.8413 3.82385 -2.12369 0
M  V30 50 C 2.9003 4.95732 -1.76456 0
M  V30 51 O 1.9263 5.12047 -2.48589 0
M  V30 52 N 3.1283 5.76258 -0.700492 0
M  V30 53 H 5.8933 1.99376 -2.23762 0
M  V30 54 H 3.4543 0.964041 -1.30069 0
M  V30 55 H 5.4463 3.98937 -0.680554 0
M  V30 56 H 4.0163 3.12538 -0.0624074 0
M  V30 57 H 3.2363 3.01001 -2.54543 0
M  V30 58 H 4.5243 4.17047 -2.9146 0
M  V30 59 H 3.9223 5.65609 -0.101624 0
M  V30 60 H 2.4793 6.4987 -0.501165 0
M  V30 61 N 5.9124 1.20967 1.01018 0
M  V30 62 C 7.3284 0.965905 1.27053 0
M  V30 63 C 7.5284 -0.350785 1.98423 0
M  V30 64 O 6.5844 -1.07773 2.28344 0
M  V30 65 C 7.8974 2.15294 2.09926 0
M  V30 66 C 9.4454 2.19463 2.23171 0
M  V30 67 C 9.9204 3.3767 3.09424 0
M  V30 68 N 11.4114 3.37724 3.17012 0
M  V30 69 C 12.1464 4.25837 3.83993 0
M  V30 70 N 11.6424 5.24138 4.53047 0
M  V30 71 N 13.4354 4.1366 3.80581 0
M  V30 72 H 5.5864 2.0565 0.531194 0
M  V30 73 H 7.8494 0.90024 0.297106 0
M  V30 74 H 7.5554 3.10684 1.64828 0
M  V30 75 H 7.4294 2.13923 3.10672 0
M  V30 76 H 9.8164 1.24632 2.6749 0
M  V30 77 H 9.8974 2.2488 1.21912 0
M  V30 78 H 9.5414 4.32791 2.65808 0
M  V30 79 H 9.4714 3.29491 4.10784 0
M  V30 80 H 11.9624 2.6658 2.6785 0
M  V30 81 H 12.2754 5.87684 5.01844 0
M  V30 82 H 10.6204 5.28068 4.5185 0
M  V30 83 H 13.8114 3.36127 3.25785 0
M  V30 84 H 13.9844 4.82538 4.32505 0
M  V30 85 N 7.3905 -1.2043 1.01659 0
M  V30 86 C 8.3205 -2.25466 0.607226 0
M  V30 87 C 9.3015 -1.65853 -0.377716 0
M  V30 88 O 10.4865 -1.92409 -0.263149 0
M  V30 89 C 7.6165 -3.47256 -0.0552949 0
M  V30 90 C 6.5705 -4.19462 0.850632 0
M  V30 91 C 5.8965 -5.34673 0.0538859 0
M  V30 92 C 7.1965 -4.75603 2.15868 0
M  V30 93 H 8.8905 -2.59962 1.48526 0
M  V30 94 H 6.4365 -1.2496 0.715605 0
M  V30 95 H 8.3895 -4.19917 -0.353233 0
M  V30 96 H 7.1135 -3.11924 -0.968045 0
M  V30 97 H 5.7725 -3.48667 1.13257 0
M  V30 98 H 5.4205 -4.95585 -0.860514 0
M  V30 99 H 5.1205 -5.83913 0.657192 0
M  V30 100 H 6.6445 -6.10138 -0.237598 0
M  V30 101 H 8.0585 -5.40083 1.92311 0
M  V30 102 H 6.4555 -5.3528 2.71284 0
M  V30 103 H 7.5255 -3.94346 2.82169 0
M  V30 104 N 8.8686 -0.792821 -1.36206 0
M  V30 105 C 10.2846 -0.474903 -1.52371 0
M  V30 106 C 10.4846 1.00622 -1.74578 0
M  V30 107 O 9.5406 1.79162 -1.77924 0
M  V30 108 C 10.8536 -1.3083 -2.70747 0
M  V30 109 C 12.4016 -1.30234 -2.84619 0
M  V30 110 C 12.8766 -2.11956 -4.06004 0
M  V30 111 N 14.3676 -2.09419 -4.13156 0
M  V30 112 C 15.1026 -2.69419 -5.06163 0
M  V30 113 N 14.5986 -3.3829 -6.04592 0
M  V30 114 N 16.3916 -2.59134 -4.98804 0
M  V30 115 H 8.5426 -1.75222 -1.20046 0
M  V30 116 H 10.8056 -0.745024 -0.586211 0
M  V30 117 H 10.5116 -2.35881 -2.6087 0
M  V30 118 H 10.3856 -0.95196 -3.6499 0
M  V30 119 H 12.7726 -0.259748 -2.93955 0
M  V30 120 H 12.8536 -1.69847 -1.91274 0
M  V30 121 H 12.4976 -3.16248 -3.97429 0
M  V30 122 H 12.4276 -1.69711 -4.98503 0
M  V30 123 H 14.9186 -1.59297 -3.42685 0
M  V30 124 H 15.2316 -3.81394 -6.7213 0
M  V30 125 H 13.5766 -3.42393 -6.04807 0
M  V30 126 H 16.7676 -2.04927 -4.20859 0
M  V30 127 H 16.9406 -3.06185 -5.711 0
M  V30 128 N 10.3467 1.47872 -0.545128 0
M  V30 129 C 11.2947 2.31533 0.222512 0
M  V30 130 C 12.2887 1.42177 0.920985 0
M  V30 131 O 13.4947 1.59005 0.843645 0
M  V30 132 H 9.8697 0.746519 0.0906278 0
M  V30 133 H 11.8407 2.94139 -0.50246 0
M  V30 134 C 10.5897 3.2457 1.24699 0
M  V30 135 H 9.9127 3.93283 0.718944 0
M  V30 136 H 11.3527 3.85963 1.75523 0
M  V30 137 C 9.8117 2.47237 2.28856 0
M  V30 138 O 10.3417 2.20808 3.35569 0
M  V30 139 N 8.5477 2.08461 2.02466 0
M  V30 140 H 8.0947 2.30155 1.157 0
M  V30 141 H 8.0527 1.57033 2.72375 0
M  V30 142 N 11.8248 0.280983 1.55075 0
M  V30 143 C 12.7348 -0.61388 2.26426 0
M  V30 144 C 13.7508 -1.16521 1.29224 0
M  V30 145 O 14.9268 -1.19426 1.62171 0
M  V30 146 C 11.9918 -1.7788 2.9759 0
M  V30 147 C 11.0528 -1.26355 4.10284 0
M  V30 148 C 10.2858 -2.37295 4.78045 0
M  V30 149 O 10.5088 -3.56777 4.45047 0
M  V30 150 O 9.4428 -2.05119 5.65871 0
M  V30 151 H 13.2688 -0.0356932 3.03679 0
M  V30 152 H 10.8538 0.0481686 1.49322 0
M  V30 153 H 12.7358 -2.45791 3.42293 0
M  V30 154 H 11.4108 -2.34397 2.23249 0
M  V30 155 H 10.3178 -0.550735 3.70024 0
M  V30 156 H 11.6508 -0.744065 4.86543 0
M  V30 157 N 13.3029 -1.57598 0.00835791 0
M  V30 158 C 14.5799 -1.82172 -0.712235 0
M  V30 159 C 14.9599 -0.887873 -1.9152 0
M  V30 160 O 14.3079 0.06146 -2.28417 0
M  V30 161 C 14.5179 -3.30875 -1.11008 0
M  V30 162 C 15.8659 -3.96826 -1.51044 0
M  V30 163 O 16.8899 -3.35248 -1.20364 0
M  V30 164 O 15.7489 -5.05318 -2.08125 0
M  V30 165 H 12.8429 -0.750435 -0.347529 0
M  V30 166 H 15.3889 -1.69665 0.0344523 0
M  V30 167 H 14.1609 -3.90481 -0.252982 0
M  V30 168 H 13.7839 -3.48412 -1.9156 0
M  V30 169 N 14.781 0.264519 -1.55364 0
M  V30 170 C 16.011 1.01153 -1.80143 0
M  V30 171 C 16.419 1.80115 -0.579253 0
M  V30 172 O 15.762 1.77813 0.46132 0
M  V30 173 C 15.824 2.01098 -2.97993 0
M  V30 174 C 15.488 1.40995 -4.34706 0
M  V30 175 C 16.485 0.821316 -5.13372 0
M  V30 176 C 14.17 1.43461 -4.81378 0
M  V30 177 C 16.164 0.265339 -6.36847 0
M  V30 178 C 13.851 0.874771 -6.04807 0
M  V30 179 C 14.849 0.291146 -6.82379 0
M  V30 180 O 14.537 -0.260093 -8.03479 0
M  V30 181 H 14.269 0.304125 -0.603725 0
M  V30 182 H 16.823 0.298089 -2.03225 0
M  V30 183 H 15.053 2.76224 -2.70623 0
M  V30 184 H 16.742 2.61997 -3.1002 0
M  V30 185 H 17.508 0.794903 -4.78442 0
M  V30 186 H 13.387 1.87826 -4.21002 0
M  V30 187 H 16.931 -0.190837 -6.97339 0
M  V30 188 H 12.828 0.898452 -6.39217 0
M  V30 189 H 13.596 -0.150265 -8.18362 0
M  V30 190 N 16.2591 1.48442 0.529413 0
M  V30 191 C 17.2091 1.59407 1.63014 0
M  V30 192 C 18.1931 0.451166 1.54445 0
M  V30 193 O 19.3851 0.702635 1.62456 0
M  V30 194 C 16.5141 1.63746 3.01732 0
M  V30 195 C 15.6001 2.83518 3.15402 0
M  V30 196 N 15.9911 4.07929 2.99045 0
M  V30 197 C 14.2891 2.80862 3.46457 0
M  V30 198 C 14.9901 4.8829 3.16146 0
M  V30 199 N 13.9661 4.21117 3.43746 0
M  V30 200 H 17.7681 2.53343 1.48978 0
M  V30 201 H 15.2821 1.44821 0.734885 0
M  V30 202 H 17.2791 1.69695 3.80801 0
M  V30 203 H 15.9391 0.709264 3.16859 0
M  V30 204 H 16.9501 4.38357 2.75796 0
M  V30 205 H 13.6271 1.97301 3.67938 0
M  V30 206 H 15.0171 5.97028 3.08232 0
M  V30 207 N 17.7372 -0.778329 1.37039 0
M  V30 208 C 19.0142 -1.52551 1.22424 0
M  V30 209 C 19.3942 -2.10288 -0.184964 0
M  V30 210 O 18.7422 -1.94953 -1.19187 0
M  V30 211 C 18.9522 -2.61164 2.31504 0
M  V30 212 C 20.3002 -3.28746 2.68721 0
M  V30 213 O 21.3242 -2.71455 2.30631 0
M  V30 214 O 20.1832 -4.3231 3.3432 0
M  V30 215 H 17.2772 -0.675343 0.477326 0
M  V30 216 H 19.8232 -0.815859 1.48801 0
M  V30 217 H 18.5952 -2.16574 3.25901 0
M  V30 218 H 18.2182 -3.39737 2.06554 0
M  V30 219 N 19.2153 -1.21501 -1.00376 0
M  V30 220 C 20.4453 -1.05746 -1.77486 0
M  V30 221 C 20.8533 0.395655 -1.85017 0
M  V30 222 O 20.1963 1.28626 -1.31152 0
M  V30 223 C 20.2583 -1.58092 -3.22873 0
M  V30 224 C 19.9223 -3.06568 -3.38917 0
M  V30 225 C 20.9193 -4.04106 -3.271 0
M  V30 226 C 18.6043 -3.45799 -3.64319 0
M  V30 227 C 20.5983 -5.38862 -3.40451 0
M  V30 228 C 18.2853 -4.80707 -3.77311 0
M  V30 229 C 19.2833 -5.77047 -3.65384 0
M  V30 230 O 18.9713 -7.09507 -3.77961 0
M  V30 231 H 18.7033 -0.371778 -0.564586 0
M  V30 232 H 21.2573 -1.61319 -1.27143 0
M  V30 233 H 19.4873 -0.969163 -3.74358 0
M  V30 234 H 21.1763 -1.38162 -3.81662 0
M  V30 235 H 21.9423 -3.75141 -3.07399 0
M  V30 236 H 17.8213 -2.71344 -3.72684 0
M  V30 237 H 21.3653 -6.14041 -3.31058 0
M  V30 238 H 17.2623 -5.09357 -3.96517 0
M  V30 239 H 18.0303 -7.16935 -3.94901 0
M  V30 240 N 20.6934 1.19889 -1.02296 0
M  V30 241 C 21.9184 1.9393 -0.735237 0
M  V30 242 C 22.3434 1.74639 0.698782 0
M  V30 243 O 21.7014 1.04481 1.48167 0
M  V30 244 C 21.7494 3.43916 -1.08417 0
M  V30 245 O 20.8534 4.11917 -0.199446 0
M  V30 246 H 20.1944 0.605645 -0.272196 0
M  V30 247 H 22.7244 1.52137 -1.36804 0
M  V30 248 H 22.7344 3.9456 -1.03856 0
M  V30 249 H 21.4094 3.5728 -2.12894 0
M  V30 250 H 19.9864 3.71666 -0.303136 0
M  V30 251 N 22.1715 0.800033 1.35784 0
M  V30 252 C 23.3965 0.388511 2.03729 0
M  V30 253 C 23.8215 -0.990481 1.5991 0
M  V30 254 O 23.1795 -1.64013 0.772612 0
M  V30 255 C 23.2275 0.4726 3.5749 0
M  V30 256 O 22.3315 -0.51646 4.09153 0
M  V30 257 H 21.6725 0.163271 0.643614 0
M  V30 258 H 24.2025 1.0841 1.73518 0
M  V30 259 H 24.2125 0.34003 4.06581 0
M  V30 260 H 22.8875 1.47848 3.88734 0
M  V30 261 H 21.4645 -0.344673 3.71304 0
M  V30 262 N 23.6496 -1.47581 0.552962 0
M  V30 263 C 24.8776 -2.06875 0.0320556 0
M  V30 264 C 25.2926 -1.40625 -1.25976 0
M  V30 265 O 24.6496 -0.501349 -1.75479 0
M  V30 266 C 24.7006 -3.61092 -0.17167 0
M  V30 267 O 24.4216 -4.24858 1.06899 0
M  V30 268 C 25.9226 -4.37242 -0.730344 0
M  V30 269 H 23.1426 -0.669561 0.043915 0
M  V30 270 H 25.6866 -1.89646 0.765163 0
M  V30 271 H 23.8416 -3.7785 -0.854894 0
M  V30 272 H 24.2556 -5.17334 0.864059 0
M  V30 273 H 25.7296 -5.45842 -0.822203 0
M  V30 274 H 26.2066 -4.03235 -1.74064 0
M  V30 275 H 26.8126 -4.25219 -0.0829543 0
M  V30 276 N 25.1277 -0.289203 -1.54924 0
M  V30 277 C 26.4047 0.376032 -1.91951 0
M  V30 278 C 26.7847 1.72622 -1.21511 0
M  V30 279 O 26.1327 2.25853 -0.346767 0
M  V30 280 C 26.3427 0.502378 -3.45365 0
M  V30 281 C 27.6907 0.778741 -4.17398 0
M  V30 282 O 28.7147 0.586647 -3.51336 0
M  V30 283 O 27.5737 1.14698 -5.34328 0
M  V30 284 H 24.6677 0.208167 -0.800372 0
M  V30 285 H 27.2137 -0.336394 -1.66332 0
M  V30 286 H 25.9857 -0.447255 -3.88736 0
M  V30 287 H 25.6087 1.26373 -3.76982 0
M  V30 288 N 26.6058 1.57591 -0.0167156 0
M  V30 289 C 27.8518 1.91567 0.665582 0
M  V30 290 C 28.1848 0.892298 1.72487 0
M  V30 291 O 27.4598 -0.0867127 1.94307 0
M  V30 292 C 27.7428 3.36069 1.29342 0
M  V30 293 C 27.5958 4.49135 0.244541 0
M  V30 294 C 28.9148 3.803 2.21495 0
M  V30 295 H 26.0338 0.69666 0.240488 0
M  V30 296 H 28.6758 1.89866 -0.0714356 0
M  V30 297 H 26.8258 3.3765 1.92158 0
M  V30 298 H 28.4978 4.59689 -0.385228 0
M  V30 299 H 26.7408 4.3165 -0.431379 0
M  V30 300 H 27.4118 5.47242 0.723207 0
M  V30 301 H 29.8878 3.80377 1.68678 0
M  V30 302 H 28.7638 4.82127 2.62382 0
M  V30 303 H 29.0248 3.15104 3.101 0
M  V30 304 N 28.0839 -0.256276 1.55502 0
M  V30 305 C 29.3089 -1.00766 1.81276 0
M  V30 306 C 29.7339 -1.78524 0.59252 0
M  V30 307 O 29.0919 -1.75413 -0.45827 0
M  V30 308 C 29.1399 -1.92869 3.04687 0
M  V30 309 O 28.2439 -3.019 2.80945 0
M  V30 310 H 27.5849 -0.287224 0.598664 0
M  V30 311 H 30.1149 -0.280109 2.02674 0
M  V30 312 H 30.1249 -2.34511 3.33869 0
M  V30 313 H 28.7999 -1.35689 3.93143 0
M  V30 314 H 27.3769 -2.64454 2.62904 0
M  V30 315 N 29.562 -1.4872 -0.521534 0
M  V30 316 C 30.973 -1.50607 -1.10337 0
M  V30 317 C 31.324 -0.280612 -1.94183 0
M  V30 318 O 30.449 0.611507 -2.0758 0
M  V30 319 C 31.044 -2.72903 -2.00772 0
M  V30 320 C 29.603 -2.77634 -2.54158 0
M  V30 321 C 28.75 -2.44241 -1.31307 0
M  V30 322 H 31.701 -1.55714 -0.306388 0
M  V30 323 H 31.722 -2.519 -2.85178 0
M  V30 324 H 31.234 -3.62077 -1.39721 0
M  V30 325 H 29.335 -1.92689 -3.18907 0
M  V30 326 H 29.448 -3.79283 -2.92714 0
M  V30 327 H 27.812 -1.95577 -1.63161 0
M  V30 328 H 28.595 -3.35666 -0.719943 0
M  V30 329 N 31.0401 0.771051 -1.3745 0
M  V30 330 C 31.9501 1.91538 -1.35464 0
M  V30 331 C 32.9661 1.72134 -0.254123 0
M  V30 332 O 34.1421 1.95358 -0.489626 0
M  V30 333 C 31.2071 3.26671 -1.16134 0
M  V30 334 C 30.2681 3.58723 -2.35831 0
M  V30 335 C 29.5011 4.87409 -2.17413 0
M  V30 336 O 29.7241 5.58506 -1.15876 0
M  V30 337 O 28.6581 5.18539 -3.05615 0
M  V30 338 H 32.4841 1.96165 -2.31847 0
M  V30 339 H 30.0691 0.9139 -1.18187 0
M  V30 340 H 31.9511 4.07499 -1.07345 0
M  V30 341 H 30.6261 3.22894 -0.228251 0
M  V30 342 H 29.5331 2.78127 -2.50192 0
M  V30 343 H 30.8661 3.67243 -3.27709 0
M  V30 344 N 32.5182 1.22032 0.997298 0
M  V30 345 C 33.4282 1.00271 2.12092 0
M  V30 346 C 34.4442 -0.047621 1.73935 0
M  V30 347 O 35.6202 0.144136 2.00884 0
M  V30 348 C 32.6852 0.578449 3.4184 0
M  V30 349 C 31.7462 1.70189 3.94125 0
M  V30 350 C 30.9792 1.29778 5.17681 0
M  V30 351 O 31.2022 0.174676 5.70132 0
M  V30 352 O 30.1362 2.11261 5.63607 0
M  V30 353 H 33.9622 1.94398 2.3333 0
M  V30 354 H 31.5472 1.00587 1.10465 0
M  V30 355 H 33.4292 0.351998 4.19927 0
M  V30 356 H 32.1042 -0.334019 3.21972 0
M  V30 357 H 31.0112 1.98282 3.1723 0
M  V30 358 H 32.3442 2.59206 4.18417 0
M  V30 359 N 33.9963 -1.19345 1.0293 0
M  V30 360 C 35.2213 -1.93538 0.745511 0
M  V30 361 C 35.6463 -1.75007 -0.689511 0
M  V30 362 O 35.0043 -1.05265 -1.47611 0
M  V30 363 C 35.0523 -3.43336 1.10239 0
M  V30 364 O 34.1563 -4.11806 0.221289 0
M  V30 365 H 33.4973 -0.604193 0.275404 0
M  V30 366 H 36.0273 -1.5141 1.37609 0
M  V30 367 H 36.0373 -3.94004 1.05947 0
M  V30 368 H 34.7123 -3.56146 2.14786 0
M  V30 369 H 33.2893 -3.715 0.322842 0
M  V30 370 N 35.4744 -0.807222 -1.35358 0
M  V30 371 C 36.8854 -0.44876 -1.81226 0
M  V30 372 C 37.2364 1.02929 -1.67033 0
M  V30 373 O 36.3614 1.79991 -1.20133 0
M  V30 374 C 36.9564 -0.807774 -3.2903 0
M  V30 375 C 35.5154 -0.501901 -3.73039 0
M  V30 376 C 34.6624 -1.03304 -2.57339 0
M  V30 377 H 37.6134 -0.998808 -1.23327 0
M  V30 378 H 37.6344 -0.10554 -3.80354 0
M  V30 379 H 37.1464 -1.88357 -3.39328 0
M  V30 380 H 35.2474 0.565128 -3.68289 0
M  V30 381 H 35.3604 -1.03497 -4.67787 0
M  V30 382 H 33.7244 -0.455339 -2.50597 0
M  V30 383 H 34.5074 -2.11496 -2.70415 0
M  V30 384 N 36.9525 1.47285 -0.560781 0
M  V30 385 C 38.1775 2.07359 -0.0410566 0
M  V30 386 C 38.6025 1.41017 1.24483 0
M  V30 387 O 37.9605 0.486368 1.74654 0
M  V30 388 C 38.0085 3.6035 0.134123 0
M  V30 389 O 37.1125 3.94681 1.19587 0
M  V30 390 H 36.4535 0.661887 -0.0529291 0
M  V30 391 H 38.9835 1.89252 -0.777482 0
M  V30 392 H 38.9935 4.0652 0.347207 0
M  V30 393 H 37.6685 4.08034 -0.805047 0
M  V30 394 H 36.2455 3.60251 0.962987 0
M  V30 395 N 38.4306 0.297415 1.54768 0
M  V30 396 C 39.3406 -0.58983 2.27064 0
M  V30 397 C 40.3566 -1.15144 1.30453 0
M  V30 398 O 41.5326 -1.17699 1.63428 0
M  V30 399 C 38.5976 -1.74714 2.9946 0
M  V30 400 C 37.6586 -1.21997 4.11601 0
M  V30 401 C 36.8916 -2.32212 4.80535 0
M  V30 402 O 37.1146 -3.52036 4.48806 0
M  V30 403 O 36.0486 -1.99106 5.68014 0
M  V30 404 H 39.8746 -0.00348199 3.037 0
M  V30 405 H 37.4596 0.0640035 1.49263 0
M  V30 406 H 39.3416 -2.42147 3.44881 0
M  V30 407 H 38.0166 -2.32016 2.25722 0
M  V30 408 H 36.9236 -0.511458 3.70587 0
M  V30 409 H 38.2566 -0.692419 4.87305 0
M  V30 410 N 39.9087 -1.5758 0.0250728 0
M  V30 411 C 41.1567 -1.91255 -0.653151 0
M  V30 412 C 41.4777 -0.901691 -1.729 0
M  V30 413 O 40.7477 0.0573785 -1.95816 0
M  V30 414 H 39.3277 -0.705942 -0.244243 0
M  V30 415 H 41.9897 -1.94767 0.0719209 0
M  V30 416 H 41.0857 -2.91752 -1.10847 0
M  V30 417 N 41.3868 0.248026 -1.55636 0
M  V30 418 C 42.3168 1.31079 -1.93237 0
M  V30 419 C 43.2978 1.50264 -0.797174 0
M  V30 420 O 44.4828 1.62891 -1.05737 0
M  V30 421 C 41.6128 2.66575 -2.22609 0
M  V30 422 C 40.5668 2.62087 -3.3837 0
M  V30 423 C 39.8928 4.01369 -3.53281 0
M  V30 424 C 41.1928 2.19171 -4.7409 0
M  V30 425 H 42.8868 0.998556 -2.82257 0
M  V30 426 H 40.4328 0.47891 -1.35803 0
M  V30 427 H 42.3858 3.41057 -2.47503 0
M  V30 428 H 41.1098 2.99432 -1.30414 0
M  V30 429 H 39.7688 1.90063 -3.13483 0
M  V30 430 H 39.4168 4.31489 -2.58508 0
M  V30 431 H 39.1168 3.99254 -4.31127 0
M  V30 432 H 40.6408 4.77552 -3.80495 0
M  V30 433 H 42.0548 2.83384 -4.98363 0
M  V30 434 H 40.4518 2.2817 -5.5503 0
M  V30 435 H 41.5218 1.14336 -4.71227 0
M  V30 436 N 42.8649 1.48995 0.513639 0
M  V30 437 C 43.8129 1.65199 1.63744 0
M  V30 438 C 44.8069 0.51809 1.61283 0
M  V30 439 O 46.0129 0.697335 1.65943 0
M  V30 440 H 42.3879 0.52069 0.542574 0
M  V30 441 H 44.3589 2.59552 1.47226 0
M  V30 442 C 43.1079 1.72409 3.01945 0
M  V30 443 H 42.4309 2.59029 3.04539 0
M  V30 444 H 43.8709 1.87785 3.80148 0
M  V30 445 C 42.3299 0.46618 3.33659 0
M  V30 446 O 42.8599 -0.413744 3.99564 0
M  V30 447 N 41.0659 0.332931 2.88687 0
M  V30 448 H 40.6129 1.04996 2.35231 0
M  V30 449 H 40.5709 -0.507665 3.10274 0
M  V30 450 N 44.343 -0.763751 1.37857 0
M  V30 451 C 45.291 -1.89864 1.34367 0
M  V30 452 C 46.285 -1.67816 0.231143 0
M  V30 453 O 47.491 -1.75508 0.399617 0
M  V30 454 H 43.866 -0.624501 0.41893 0
M  V30 455 H 45.837 -1.89925 2.30155 0
M  V30 456 C 44.586 -3.27227 1.1755 0
M  V30 457 H 43.909 -3.44773 2.02414 0
M  V30 458 H 45.349 -4.06911 1.1916 0
M  V30 459 C 43.808 -3.36692 -0.118311 0
M  V30 460 O 44.338 -3.86374 -1.09902 0
M  V30 461 N 42.544 -2.90092 -0.171717 0
M  V30 462 H 42.091 -2.49853 0.627012 0
M  V30 463 H 42.049 -2.96806 -1.03699 0
M  V30 464 N 45.8211 -1.22559 -0.990812 0
M  V30 465 C 46.7511 -1.0218 -2.09956 0
M  V30 466 C 47.7321 0.0579394 -1.70001 0
M  V30 467 O 48.9171 -0.104684 -1.93918 0
M  V30 468 C 46.0471 -0.601023 -3.4206 0
M  V30 469 C 45.0011 -1.62694 -3.95872 0
M  V30 470 C 44.3271 -1.06193 -5.24049 0
M  V30 471 C 45.6271 -3.01743 -4.2632 0
M  V30 472 H 47.3211 -1.94916 -2.27262 0
M  V30 473 H 44.8671 -0.938566 -1.09211 0
M  V30 474 H 46.8201 -0.445561 -4.19038 0
M  V30 475 H 45.5441 0.362005 -3.24588 0
M  V30 476 H 44.2031 -1.77021 -3.21028 0
M  V30 477 H 43.8511 -0.0901903 -5.02919 0
M  V30 478 H 43.5511 -1.74732 -5.61019 0
M  V30 479 H 45.0751 -0.918092 -6.03658 0
M  V30 480 H 46.4891 -2.90777 -4.94087 0
M  V30 481 H 44.8861 -3.67425 -4.74467 0
M  V30 482 H 45.9561 -3.51518 -3.34011 0
M  V30 483 N 47.2992 1.18797 -1.03562 0
M  V30 484 C 48.5242 1.9314 -0.755764 0
M  V30 485 C 48.9492 1.7537 0.68022 0
M  V30 486 O 48.3072 1.06046 1.47051 0
M  V30 487 C 48.3552 3.42747 -1.12058 0
M  V30 488 O 47.4592 4.11683 -0.243124 0
M  V30 489 H 46.8002 0.602724 -0.278604 0
M  V30 490 H 49.3302 1.50678 -1.3841 0
M  V30 491 H 49.3402 3.93437 -1.08035 0
M  V30 492 H 48.0152 3.55002 -2.16672 0
M  V30 493 H 46.5922 3.71323 -0.342539 0
M  V30 494 N 48.7773 0.814389 1.34928 0
M  V30 495 C 50.0023 0.410097 2.03305 0
M  V30 496 C 50.4273 -0.973464 1.60951 0
M  V30 497 O 49.7853 -1.63185 0.789964 0
M  V30 498 C 49.8333 0.51049 3.56968 0
M  V30 499 O 48.9373 -0.473035 4.09678 0
M  V30 500 H 48.2783 0.170088 0.641846 0
M  V30 501 H 50.8083 1.10244 1.72358 0
M  V30 502 H 50.8183 0.383135 4.06197 0
M  V30 503 H 49.4933 1.51963 3.87144 0
M  V30 504 H 48.0703 -0.305272 3.71648 0
M  V30 505 N 50.2554 -1.46986 0.568584 0
M  V30 506 C 51.6664 -1.86188 0.138219 0
M  V30 507 C 52.0174 -1.47388 -1.29504 0
M  V30 508 O 51.1424 -0.88219 -1.97602 0
M  V30 509 C 51.7374 -3.3792 0.244065 0
M  V30 510 C 50.2964 -3.76171 -0.131335 0
M  V30 511 C 49.4434 -2.71027 0.586465 0
M  V30 512 H 52.3944 -1.38342 0.777645 0
M  V30 513 H 52.4154 -3.76729 -0.534351 0
M  V30 514 H 51.9274 -3.66128 1.28731 0
M  V30 515 H 50.0284 -3.5358 -1.17526 0
M  V30 516 H 50.1414 -4.78523 0.235146 0
M  V30 517 H 48.5054 -2.54684 0.0282722 0
M  V30 518 H 49.2884 -3.02077 1.63109 0
M  V30 519 N 51.7335 -0.305618 -1.54608 0
M  V30 520 C 52.9815 0.301701 -1.99835 0
M  V30 521 C 53.3025 1.54054 -1.19551 0
M  V30 522 O 52.5725 1.93702 -0.292658 0
M  V30 523 H 51.1525 0.114468 -0.738178 0
M  V30 524 H 53.8145 -0.418016 -1.90364 0
M  V30 525 H 52.9105 0.570548 -3.06841 0
M  V30 526 N 53.2116 1.57565 -0.0334293 0
M  V30 527 C 54.4366 1.96689 0.657895 0
M  V30 528 C 54.8616 0.910057 1.64619 0
M  V30 529 O 54.2196 -0.128598 1.80843 0
M  V30 530 C 54.2676 3.34905 1.33683 0
M  V30 531 O 53.3716 3.31574 2.45219 0
M  V30 532 H 52.7126 0.641205 0.172489 0
M  V30 533 H 55.2426 2.04372 -0.0965621 0
M  V30 534 H 55.2526 3.71234 1.69262 0
M  V30 535 H 53.9276 4.11366 0.612411 0
M  V30 536 H 52.5046 3.06968 2.11719 0
M  V30 537 N 54.6897 -0.239769 1.55765 0
M  V30 538 C 55.9197 -0.982743 1.8173 0
M  V30 539 C 56.3277 -1.7917 0.607835 0
M  V30 540 O 55.6707 -1.78525 -0.432973 0
M  V30 541 C 55.7327 -1.96332 3.01155 0
M  V30 542 C 55.3967 -1.34062 4.36894 0
M  V30 543 C 56.3937 -0.739539 5.14613 0
M  V30 544 C 54.0787 -1.35784 4.83599 0
M  V30 545 C 56.0727 -0.163989 6.37189 0
M  V30 546 C 53.7597 -0.778441 6.06122 0
M  V30 547 C 54.7577 -0.182548 6.82756 0
M  V30 548 O 54.4457 0.387887 8.02964 0
M  V30 549 H 54.1777 -0.294481 0.608487 0
M  V30 550 H 56.7317 -0.26572 2.03674 0
M  V30 551 H 54.9617 -2.71884 2.74984 0
M  V30 552 H 56.6507 -2.57032 3.14149 0
M  V30 553 H 57.4167 -0.718687 4.79646 0
M  V30 554 H 53.2957 -1.81105 4.23936 0
M  V30 555 H 56.8397 0.301753 6.96947 0
M  V30 556 H 52.7367 -0.796645 6.40565 0
M  V30 557 H 53.5047 0.28044 8.18019 0
M  V30 558 N 56.1678 -1.49265 -0.50573 0
M  V30 559 C 57.0998 -1.617 -1.62437 0
M  V30 560 C 58.1128 -0.499924 -1.54934 0
M  V30 561 O 59.3018 -0.771785 -1.60953 0
M  V30 562 C 56.4018 -1.5533 -3.01207 0
M  V30 563 C 55.5748 -2.8249 -3.33943 0
M  V30 564 C 54.6338 -2.69238 -4.52103 0
M  V30 565 O 53.6598 -3.43167 -4.5412 0
M  V30 566 N 54.8618 -1.80468 -5.51735 0
M  V30 567 H 57.6268 -2.58177 -1.52199 0
M  V30 568 H 55.1878 -1.46294 -0.693511 0
M  V30 569 H 57.1798 -1.44125 -3.78167 0
M  V30 570 H 55.7498 -0.667297 -3.05395 0
M  V30 571 H 54.9698 -3.08081 -2.45926 0
M  V30 572 H 56.2578 -3.66802 -3.5261 0
M  V30 573 H 55.6558 -1.19653 -5.52901 0
M  V30 574 H 54.2128 -1.75188 -6.27816 0
M  V30 575 N 57.6459 0.756429 -1.3826 0
M  V30 576 C 59.0619 1.0591 -1.19395 0
M  V30 577 C 59.2619 2.01459 -0.0406567 0
M  V30 578 O 58.3179 2.44909 0.614467 0
M  V30 579 C 59.6309 1.64191 -2.51916 0
M  V30 580 C 61.1789 1.76376 -2.58574 0
M  V30 581 C 61.6539 2.38069 -3.91264 0
M  V30 582 N 63.1449 2.45503 -3.92788 0
M  V30 583 C 63.8799 2.94126 -4.92217 0
M  V30 584 N 63.3759 3.42805 -6.02043 0
M  V30 585 N 65.1689 2.9314 -4.7961 0
M  V30 586 H 57.3199 0.122313 -2.12048 0
M  V30 587 H 59.5829 0.116892 -0.940766 0
M  V30 588 H 59.2889 1.01451 -3.3675 0
M  V30 589 H 59.1629 2.6329 -2.70108 0
M  V30 590 H 61.5499 2.38244 -1.74137 0
M  V30 591 H 61.6309 0.759894 -2.44252 0
M  V30 592 H 61.2749 1.76835 -4.76121 0
M  V30 593 H 61.2049 3.39091 -4.02895 0
M  V30 594 H 63.6959 2.1107 -3.13461 0
M  V30 595 H 64.0089 3.78354 -6.73846 0
M  V30 596 H 62.3539 3.4087 -6.05667 0
M  V30 597 H 65.5449 2.54419 -3.92923 0
M  V30 598 H 65.7179 3.30721 -5.5725 0
M  V30 599 N 59.124 1.23083 0.984299 0
M  V30 600 C 60.371 1.06057 1.72505 0
M  V30 601 C 60.699 -0.403105 1.90277 0
M  V30 602 O 59.954 -1.3149 1.44944 0
M  V30 603 C 60.253 1.72673 3.1292 0
M  V30 604 C 59.919 3.22586 3.15038 0
M  V30 605 C 58.581 3.63489 3.15324 0
M  V30 606 C 60.933 4.185 3.10657 0
M  V30 607 C 58.261 4.98772 3.08939 0
M  V30 608 C 60.613 5.53769 3.05814 0
M  V30 609 C 59.277 5.94041 3.04419 0
M  V30 610 H 58.547 0.388091 0.631242 0
M  V30 611 H 61.194 1.52963 1.15215 0
M  V30 612 H 59.499 1.18116 3.73572 0
M  V30 613 H 61.196 1.56982 3.68996 0
M  V30 614 H 57.786 2.90022 3.15571 0
M  V30 615 H 61.97 3.87911 3.09579 0
M  V30 616 H 57.226 5.29193 3.0621 0
M  V30 617 H 61.4 6.27808 3.0138 0
M  V30 618 H 59.027 6.98833 2.99227 0
M  V30 619 N 60.6021 -1.18246 1.0419 0
M  V30 620 C 61.8501 -1.87886 0.744543 0
M  V30 621 C 62.1711 -1.8082 -0.730006 0
M  V30 622 O 61.4411 -1.22736 -1.52685 0
M  V30 623 H 60.0211 -0.695556 0.272417 0
M  V30 624 H 62.6831 -1.43494 1.31892 0
M  V30 625 H 61.7791 -2.9389 1.05049 0
M  V30 626 N 62.0802 -0.821533 -1.34494 0
M  V30 627 C 63.0122 -0.199946 -2.28326 0
M  V30 628 C 64.0252 0.609377 -1.50965 0
M  V30 629 O 65.2142 0.439285 -1.7301 0
M  V30 630 C 62.3142 0.738431 -3.30757 0
M  V30 631 C 61.4872 -0.0277632 -4.37391 0
M  V30 632 C 60.5462 0.831332 -5.19591 0
M  V30 633 O 59.5722 0.276822 -5.68526 0
M  V30 634 N 60.7742 2.15132 -5.39165 0
M  V30 635 H 63.5392 -1.00609 -2.82308 0
M  V30 636 H 61.1002 -0.678366 -1.47003 0
M  V30 637 H 63.0922 1.31773 -3.82646 0
M  V30 638 H 61.6622 1.44533 -2.7718 0
M  V30 639 H 60.8822 -0.788359 -3.86236 0
M  V30 640 H 62.1702 -0.555251 -5.05761 0
M  V30 641 H 61.5682 2.62559 -5.01078 0
M  V30 642 H 60.1252 2.6795 -5.94177 0
M  V30 643 N 63.5583 1.46682 -0.576371 0
M  V30 644 C 64.7833 2.07304 -0.0630475 0
M  V30 645 C 65.2083 1.42329 1.2298 0
M  V30 646 O 64.5663 0.504865 1.74129 0
M  V30 647 C 64.6143 3.60472 0.095895 0
M  V30 648 O 63.7183 3.95927 1.15394 0
M  V30 649 H 63.0593 0.661288 -0.0599463 0
M  V30 650 H 65.5893 1.88417 -0.797511 0
M  V30 651 H 65.5993 4.06865 0.304071 0
M  V30 652 H 64.2743 4.07157 -0.84828 0
M  V30 653 H 62.8513 3.61252 0.924724 0
M  V30 654 N 65.0364 0.313813 1.54444 0
M  V30 655 C 65.9844 -0.572171 2.25453 0
M  V30 656 C 66.9784 -1.12657 1.2651 0
M  V30 657 O 68.1844 -1.07573 1.44319 0
M  V30 658 H 64.5594 -0.203146 0.724041 0
M  V30 659 H 66.5304 0.0491145 2.9836 0
M  V30 660 C 65.2794 -1.72626 3.0182 0
M  V30 661 H 64.6024 -1.30891 3.77767 0
M  V30 662 H 66.0424 -2.32199 3.54767 0
M  V30 663 C 64.5014 -2.63806 2.09542 0
M  V30 664 O 65.0314 -3.65256 1.67185 0
M  V30 665 N 63.2374 -2.31824 1.75232 0
M  V30 666 H 62.7844 -1.49368 2.09873 0
M  V30 667 H 62.7424 -2.93095 1.13767 0
M  V30 668 N 66.5145 -1.57545 0.0417849 0
M  V30 669 C 67.7395 -1.97035 -0.647455 0
M  V30 670 C 68.1645 -0.918775 -1.64135 0
M  V30 671 O 67.5225 0.119006 -1.80909 0
M  V30 672 C 67.5705 -3.35609 -1.31905 0
M  V30 673 O 66.6745 -3.3287 -2.43457 0
M  V30 674 H 66.0155 -0.64211 -0.169086 0
M  V30 675 H 68.5455 -2.04318 0.107399 0
M  V30 676 H 68.5555 -3.72126 -1.67291 0
M  V30 677 H 67.2305 -4.11685 -0.590586 0
M  V30 678 H 65.8075 -3.08087 -2.10088 0
M  V30 679 N 67.9926 0.231505 -1.5589 0
M  V30 680 C 69.2206 0.974505 -1.82513 0
M  V30 681 C 69.6356 1.78344 -0.619591 0
M  V30 682 O 68.9926 1.77792 0.411848 0
M  V30 683 C 69.0436 1.90007 -3.07538 0
M  V30 684 O 68.7646 1.12385 -4.2344 0
M  V30 685 C 70.2656 2.75779 -3.47075 0
M  V30 686 H 67.4856 0.286065 -0.606966 0
M  V30 687 H 70.0296 0.249739 -2.02969 0
M  V30 688 H 68.1846 2.57891 -2.89086 0
M  V30 689 H 68.5986 1.75125 -4.944 0
M  V30 690 H 70.0726 3.36443 -4.37619 0
M  V30 691 H 70.5496 3.47672 -2.68367 0
M  V30 692 H 71.1556 2.13323 -3.67931 0
M  V30 693 N 69.4707 1.49531 0.497807 0
M  V30 694 C 70.6987 1.62893 1.27567 0
M  V30 695 C 71.1137 0.301585 1.86376 0
M  V30 696 O 70.4707 -0.713335 1.67982 0
M  V30 697 C 70.5217 2.70013 2.40364 0
M  V30 698 O 70.2427 3.976 1.83972 0
M  V30 699 C 71.7437 2.94109 3.31685 0
M  V30 700 H 68.9637 0.548298 0.386794 0
M  V30 701 H 71.5077 1.95584 0.597245 0
M  V30 702 H 69.6627 2.40092 3.04031 0
M  V30 703 H 70.0767 4.56631 2.58047 0
M  V30 704 H 71.5507 3.72788 4.07104 0
M  V30 705 H 72.0277 2.04147 3.88871 0
M  V30 706 H 72.6337 3.2546 2.73781 0
M  V30 707 N 70.9488 -0.749086 1.3866 0
M  V30 708 C 72.1948 -1.50959 1.36319 0
M  V30 709 C 72.5498 -1.92347 -0.0452451 0
M  V30 710 O 71.8428 -1.6289 -1.00884 0
M  V30 711 C 72.0368 -2.7712 2.25697 0
M  V30 712 C 71.8658 -2.48067 3.7509 0
M  V30 713 C 70.6358 -2.41062 4.44091 0
M  V30 714 C 72.8338 -2.14544 4.67414 0
M  V30 715 N 70.8158 -2.04331 5.78897 0
M  V30 716 C 72.1868 -1.88141 5.90765 0
M  V30 717 C 74.2418 -2.00892 4.55573 0
M  V30 718 C 72.9448 -1.49463 7.036 0
M  V30 719 C 74.9708 -1.63616 5.68317 0
M  V30 720 C 74.3328 -1.38088 6.90732 0
M  V30 721 H 70.4318 -0.551804 0.554108 0
M  V30 722 H 73.0158 -0.871886 1.74087 0
M  V30 723 H 71.1868 -3.38693 1.9011 0
M  V30 724 H 72.9188 -3.4321 2.1445 0
M  V30 725 H 69.6738 -2.57685 3.9736 0
M  V30 726 H 70.0978 -1.88598 6.502 0
M  V30 727 H 74.7398 -2.19301 3.61479 0
M  V30 728 H 72.4578 -1.29794 7.97608 0
M  V30 729 H 76.0438 -1.53678 5.61137 0
M  V30 730 H 74.9238 -1.09674 7.76493 0
M  V30 731 N 72.4269 -1.23603 -0.977757 0
M  V30 732 C 73.6739 -1.06971 -1.71941 0
M  V30 733 C 74.0019 0.393009 -1.90488 0
M  V30 734 O 73.2569 1.30719 -1.4564 0
M  V30 735 C 73.5559 -1.7433 -3.11999 0
M  V30 736 C 73.2219 -3.24252 -3.13323 0
M  V30 737 C 71.8839 -3.65156 -3.13392 0
M  V30 738 C 74.2359 -4.20141 -3.08433 0
M  V30 739 C 71.5639 -5.00403 -3.0629 0
M  V30 740 C 73.9159 -5.55384 -3.02873 0
M  V30 741 C 72.5799 -5.95647 -3.01265 0
M  V30 742 H 71.8499 -0.391433 -0.629175 0
M  V30 743 H 74.4969 -1.53572 -1.14403 0
M  V30 744 H 72.8019 -1.20096 -3.7294 0
M  V30 745 H 74.4989 -1.58936 -3.68158 0
M  V30 746 H 71.0889 -2.91692 -3.14029 0
M  V30 747 H 75.2729 -3.89547 -3.07517 0
M  V30 748 H 70.5289 -5.3081 -3.03399 0
M  V30 749 H 74.7029 -6.29398 -2.98046 0
M  V30 750 H 72.3299 -7.0041 -2.95516 0
M  V30 751 N 73.905 1.17692 -1.04816 0
M  V30 752 C 74.837 2.21103 -0.603822 0
M  V30 753 C 75.85 1.59411 0.33046 0
M  V30 754 O 77.039 1.7807 0.12379 0
M  V30 755 C 74.139 3.38623 0.136898 0
M  V30 756 C 73.312 4.29888 -0.807137 0
M  V30 757 C 72.371 5.26088 -0.10836 0
M  V30 758 O 71.397 5.64353 -0.741232 0
M  V30 759 N 72.599 5.68882 1.15558 0
M  V30 760 H 75.364 2.59848 -1.49329 0
M  V30 761 H 72.925 1.32553 -0.929587 0
M  V30 762 H 74.917 4.00009 0.614401 0
M  V30 763 H 73.487 2.98508 0.927993 0
M  V30 764 H 72.707 3.65993 -1.46434 0
M  V30 765 H 73.995 4.87759 -1.44807 0
M  V30 766 H 73.393 5.39861 1.69015 0
M  V30 767 H 71.95 6.32429 1.57722 0
M  V30 768 N 75.3831 0.828654 1.34056 0
M  V30 769 C 76.6111 0.43262 2.02326 0
M  V30 770 C 77.0261 -0.963147 1.62385 0
M  V30 771 O 76.3831 -1.62425 0.832121 0
M  V30 772 C 76.4341 0.53182 3.57567 0
M  V30 773 O 76.1551 1.87258 3.96063 0
M  V30 774 C 77.6561 0.131422 4.43105 0
M  V30 775 H 74.8761 0.172923 0.648335 0
M  V30 776 H 77.4201 1.1184 1.71208 0
M  V30 777 H 75.5751 -0.105938 3.87255 0
M  V30 778 H 75.9891 1.85087 4.90758 0
M  V30 779 H 77.4631 0.251904 5.51425 0
M  V30 780 H 77.9401 -0.925645 4.29335 0
M  V30 781 H 78.5461 0.743207 4.18756 0
M  V30 782 N 76.8612 -1.46375 0.584142 0
M  V30 783 C 77.7912 -2.33103 -0.136037 0
M  V30 784 C 78.7722 -1.45431 -0.882255 0
M  V30 785 O 79.9572 -1.74246 -0.857434 0
M  V30 786 C 77.0872 -3.27731 -1.14933 0
M  V30 787 C 76.0412 -4.24855 -0.517862 0
M  V30 788 C 75.3672 -5.09001 -1.63773 0
M  V30 789 C 76.6672 -5.19439 0.545886 0
M  V30 790 H 78.3612 -2.93568 0.588086 0
M  V30 791 H 75.9072 -1.41166 0.284259 0
M  V30 792 H 77.8602 -3.87261 -1.66153 0
M  V30 793 H 76.5842 -2.65377 -1.90375 0
M  V30 794 H 75.2432 -3.6659 -0.0267361 0
M  V30 795 H 74.8912 -4.43031 -2.38185 0
M  V30 796 H 74.5912 -5.74777 -1.22085 0
M  V30 797 H 76.1152 -5.71396 -2.15266 0
M  V30 798 H 77.5292 -5.73177 0.118704 0
M  V30 799 H 75.9262 -5.93566 0.88317 0
M  V30 800 H 76.9962 -4.63285 1.43162 0
M  V30 801 N 78.3393 -0.321999 -1.54275 0
M  V30 802 C 79.5883 0.281931 -1.9972 0
M  V30 803 C 79.9013 1.53369 -1.21397 0
M  V30 804 O 81.1073 2.21352 -1.57211 0
M  V30 805 C 79.5633 0.5529 -3.55628 0
M  V30 806 C 79.1713 -0.681721 -4.42783 0
M  V30 807 C 80.9153 1.11687 -4.09544 0
M  V30 808 C 78.8223 -0.382742 -5.9016 0
M  V30 809 H 77.7523 0.109124 -0.746062 0
M  V30 810 H 80.4033 -0.43398 -1.78294 0
M  V30 811 H 78.7853 1.32896 -3.73035 0
M  V30 812 H 79.9593 -1.45723 -4.37151 0
M  V30 813 H 78.2743 -1.1658 -3.99748 0
M  V30 814 H 80.8713 1.35515 -5.17242 0
M  V30 815 H 81.2143 2.06575 -3.61431 0
M  V30 816 H 81.7473 0.402032 -3.95763 0
M  V30 817 H 78.4863 -1.30076 -6.42464 0
M  V30 818 H 78.0063 0.355094 -5.98748 0
M  V30 819 H 79.6853 0.00800157 -6.47 0
M  V30 820 N 79.8174 1.5752 -0.0501392 0
M  V30 821 C 80.7674 2.07981 0.934231 0
M  V30 822 C 81.7514 0.984745 1.27246 0
M  V30 823 O 82.9434 1.24809 1.25506 0
M  V30 824 C 80.0724 2.62751 2.20945 0
M  V30 825 C 79.1584 3.79225 1.89865 0
M  V30 826 N 79.5494 4.89036 1.29142 0
M  V30 827 C 77.8474 3.88111 2.19741 0
M  V30 828 C 78.5484 5.70084 1.15669 0
M  V30 829 N 77.5244 5.17659 1.65923 0
M  V30 830 H 81.3264 2.90277 0.460053 0
M  V30 831 H 78.8404 1.61665 0.15434 0
M  V30 832 H 80.8374 2.97205 2.9236 0
M  V30 833 H 79.4974 1.81894 2.6897 0
M  V30 834 H 80.5084 5.08854 0.963756 0
M  V30 835 H 77.1854 3.18194 2.70293 0
M  V30 836 H 78.5754 6.68395 0.685356 0
M  V30 837 N 81.2955 -0.223234 1.56011 0
M  V30 838 C 82.2255 -1.27988 1.95298 0
M  V30 839 C 83.2065 -1.48976 0.820979 0
M  V30 840 O 84.3915 -1.61188 1.08315 0
M  V30 841 C 81.5215 -2.63 2.26822 0
M  V30 842 C 80.4755 -2.56671 3.42497 0
M  V30 843 C 79.8015 -3.95697 3.59622 0
M  V30 844 C 81.1015 -2.11601 4.77517 0
M  V30 845 H 82.7955 -0.953525 2.8381 0
M  V30 846 H 80.3415 -0.457244 1.36548 0
M  V30 847 H 82.2945 -3.37077 2.52898 0
M  V30 848 H 81.0185 -2.9732 1.35161 0
M  V30 849 H 79.6775 -1.85051 3.16467 0
M  V30 850 H 79.3255 -4.27322 2.6534 0
M  V30 851 H 79.0255 -3.92345 4.37424 0
M  V30 852 H 80.5495 -4.71438 3.88044 0
M  V30 853 H 81.9635 -2.7542 5.02809 0
M  V30 854 H 80.3605 -2.19311 5.5859 0
M  V30 855 H 81.4305 -1.06824 4.72987 0
M  V30 856 N 82.7736 -1.49793 -0.48987 0
M  V30 857 C 83.7036 -1.70201 -1.59856 0
M  V30 858 C 84.6846 -0.55076 -1.60937 0
M  V30 859 O 85.8696 -0.787841 -1.77501 0
M  V30 860 C 82.9996 -1.77882 -2.98287 0
M  V30 861 C 81.9536 -2.92907 -3.12073 0
M  V30 862 C 81.2796 -2.85712 -4.51965 0
M  V30 863 C 82.5796 -4.3369 -2.91051 0
M  V30 864 H 84.2736 -2.63025 -1.43032 0
M  V30 865 H 81.8196 -1.26574 -0.686664 0
M  V30 866 H 83.7726 -1.90744 -3.75759 0
M  V30 867 H 82.4966 -0.816653 -3.16225 0
M  V30 868 H 81.1556 -2.79665 -2.37029 0
M  V30 869 H 80.8036 -1.8738 -4.66795 0
M  V30 870 H 80.5036 -3.62921 -4.62128 0
M  V30 871 H 82.0276 -3.00598 -5.31482 0
M  V30 872 H 83.4416 -4.47555 -3.58284 0
M  V30 873 H 81.8386 -5.12205 -3.12675 0
M  V30 874 H 82.9086 -4.47362 -1.87071 0
M  V30 875 N 84.2517 0.741722 -1.39055 0
M  V30 876 C 85.1987 1.85566 -1.37237 0
M  V30 877 C 86.1687 1.64457 -0.233072 0
M  V30 878 O 87.3537 1.85957 -0.427147 0
M  V30 879 C 84.4937 3.23004 -1.215 0
M  V30 880 C 83.6067 3.55864 -2.44918 0
M  V30 881 C 82.7417 4.82669 -2.21821 0
M  V30 882 C 81.7807 5.08351 -3.40948 0
M  V30 883 N 80.9177 6.26356 -3.17211 0
M  V30 884 H 85.7577 1.86455 -2.32462 0
M  V30 885 H 83.2947 0.911176 -1.15482 0
M  V30 886 H 85.2527 4.02331 -1.10389 0
M  V30 887 H 83.8827 3.21411 -0.29908 0
M  V30 888 H 82.9347 2.7129 -2.66657 0
M  V30 889 H 84.2467 3.70765 -3.33668 0
M  V30 890 H 83.4007 5.69962 -2.07914 0
M  V30 891 H 82.1397 4.69929 -1.30454 0
M  V30 892 H 81.1447 4.19522 -3.55361 0
M  V30 893 H 82.3697 5.22981 -4.33207 0
M  V30 894 H 80.3157 6.14917 -2.28502 0
M  V30 895 H 80.2327 6.41813 -3.99515 0
M  V30 896 H 81.5007 7.16506 -3.06984 0
M  V30 897 N 85.7298 1.2412 0.971189 0
M  V30 898 C 86.9778 1.07668 1.71032 0
M  V30 899 C 87.2988 -0.385797 1.91146 0
M  V30 900 O 86.5688 -1.27569 1.4867 0
M  V30 901 H 85.1488 0.395429 0.633755 0
M  V30 902 H 87.8108 1.55984 1.16855 0
M  V30 903 H 86.9068 1.57195 2.69622 0
M  V30 904 N 87.2079 -1.17134 1.05439 0
M  V30 905 C 88.1559 -2.23289 0.651511 0
M  V30 906 C 89.1499 -1.66186 -0.328411 0
M  V30 907 O 90.3559 -1.78949 -0.194206 0
M  V30 908 H 86.7309 -0.726938 0.192523 0
M  V30 909 H 88.7019 -2.54565 1.55689 0
M  V30 910 C 87.4509 -3.47671 0.0448436 0
M  V30 911 H 86.7739 -3.91918 0.78996 0
M  V30 912 H 88.2139 -4.2353 -0.19964 0
M  V30 913 C 86.6729 -3.14453 -1.20918 0
M  V30 914 O 87.2029 -3.29459 -2.29825 0
M  V30 915 N 85.4089 -2.68657 -1.10779 0
M  V30 916 H 84.9559 -2.56646 -0.221526 0
M  V30 917 H 84.9139 -2.46804 -1.9477 0
M  V30 918 N 88.686 -0.835752 -1.33615 0
M  V30 919 C 89.935 -0.426289 -1.97144 0
M  V30 920 C 90.248 1.01912 -1.66953 0
M  V30 921 O 91.454 1.53311 -2.24072 0
M  V30 922 C 89.91 -0.711321 -3.52801 0
M  V30 923 C 89.518 -2.1712 -3.91871 0
M  V30 924 C 91.262 -0.368654 -4.22896 0
M  V30 925 C 89.169 -2.40044 -5.40493 0
M  V30 926 H 88.099 -0.15567 -0.737755 0
M  V30 927 H 90.75 -1.0239 -1.52278 0
M  V30 928 H 89.132 -0.0433766 -3.95976 0
M  V30 929 H 90.306 -2.87936 -3.59763 0
M  V30 930 H 88.621 -2.47654 -3.34749 0
M  V30 931 H 91.218 -0.517601 -5.32189 0
M  V30 932 H 91.561 0.688078 -4.10574 0
M  V30 933 H 92.094 -0.991702 -3.8524 0
M  V30 934 H 88.833 -3.44271 -5.57815 0
M  V30 935 H 88.353 -1.73785 -5.74072 0
M  V30 936 H 90.032 -2.23042 -6.0734 0
M  V30 937 N 90.1641 1.46063 -0.591896 0
M  V30 938 C 91.4121 2.01938 -0.0808391 0
M  V30 939 C 91.7331 1.46475 1.28725 0
M  V30 940 O 91.0031 0.652944 1.84698 0
M  V30 941 H 89.5831 0.746516 -0.0268938 0
M  V30 942 H 92.2451 1.79055 -0.769752 0
M  V30 943 H 91.3411 3.12094 -0.0187578 0
M  V30 944 N 91.6422 0.330177 1.54103 0
M  V30 945 C 92.8702 -0.272179 2.05102 0
M  V30 946 C 93.2852 -1.45267 1.20595 0
M  V30 947 O 92.6422 -1.8094 0.238144 0
M  V30 948 C 92.6932 -0.70023 3.54653 0
M  V30 949 O 92.4142 0.433301 4.35952 0
M  V30 950 C 93.9152 -1.3647 4.21771 0
M  V30 951 H 91.1352 -0.0549159 0.668749 0
M  V30 952 H 93.6792 0.478285 1.98828 0
M  V30 953 H 91.8342 -1.40066 3.61193 0
M  V30 954 H 92.2482 0.0947539 5.24414 0
M  V30 955 H 93.7222 -1.61509 5.27843 0
M  V30 956 H 94.1992 -2.31409 3.73292 0
M  V30 957 H 94.8052 -0.706675 4.19388 0
M  V30 958 N 93.1203 -1.57491 0.0584922 0
M  V30 959 C 94.3683 -1.92597 -0.612436 0
M  V30 960 C 94.6893 -0.938162 -1.70949 0
M  V30 961 O 93.9593 0.0158301 -1.95894 0
M  V30 962 H 92.5393 -0.710964 -0.229214 0
M  V30 963 H 95.2013 -1.94571 0.113218 0
M  V30 964 H 94.2973 -2.94038 -1.04633 0
M  V30 965 N 94.5984 0.214957 -1.56127 0
M  V30 966 C 95.5284 1.2695 -1.95974 0
M  V30 967 C 96.5094 1.48539 -0.828868 0
M  V30 968 O 97.6944 1.60611 -1.09168 0
M  V30 969 C 94.8244 2.61794 -2.28214 0
M  V30 970 C 93.7784 2.54851 -3.43853 0
M  V30 971 C 93.1044 3.93785 -3.61715 0
M  V30 972 C 94.4044 2.09065 -4.78632 0
M  V30 973 H 96.0984 0.93846 -2.84312 0
M  V30 974 H 93.6444 0.449996 -1.36788 0
M  V30 975 H 95.5974 3.35731 -2.54682 0
M  V30 976 H 94.3214 2.96599 -1.36736 0
M  V30 977 H 92.9804 1.8337 -3.17444 0
M  V30 978 H 92.6284 4.25908 -2.67602 0
M  V30 979 H 92.3284 3.90019 -4.39498 0
M  V30 980 H 93.8524 4.69374 -3.90539 0
M  V30 981 H 95.2664 2.7275 -5.04262 0
M  V30 982 H 93.6634 2.16346 -5.59745 0
M  V30 983 H 94.7334 1.04315 -4.73547 0
M  V30 984 N 96.0765 1.50051 0.48192 0
M  V30 985 C 97.0065 1.71046 1.58951 0
M  V30 986 C 97.9875 0.559288 1.60642 0
M  V30 987 O 99.1725 0.797243 1.77081 0
M  V30 988 C 96.3025 1.79462 2.97339 0
M  V30 989 C 95.2565 2.94558 3.10515 0
M  V30 990 C 94.5825 2.88105 4.50444 0
M  V30 991 C 95.8825 4.35227 2.88747 0
M  V30 992 H 97.5765 2.6378 1.41635 0
M  V30 993 H 95.1225 1.26936 0.679942 0
M  V30 994 H 97.0755 1.92734 3.74742 0
M  V30 995 H 95.7995 0.833412 3.15788 0
M  V30 996 H 94.4585 2.80918 2.35543 0
M  V30 997 H 94.1065 1.89853 4.65795 0
M  V30 998 H 93.8065 3.65366 4.60197 0
M  V30 999 H 95.3305 3.03412 5.29881 0
M  V30 1000 H 96.7445 4.49449 3.55905 0
M  V30 1001 H 95.1415 5.13856 3.09955 0
M  V30 1002 H 96.2115 4.48347 1.84696 0
M  V30 1003 N 97.5546 -0.734337 1.39446 0
M  V30 1004 C 98.8026 -1.49096 1.36436 0
M  V30 1005 C 99.1236 -1.94961 -0.0388255 0
M  V30 1006 O 98.3936 -1.69033 -0.990191 0
M  V30 1007 H 96.9736 -0.5531 0.502085 0
M  V30 1008 H 99.6356 -0.871725 1.74319 0
M  V30 1009 H 98.7316 -2.37276 2.02747 0
M  V30 1010 N 99.0327 -1.24633 -0.964593 0
M  V30 1011 C 99.9627 -1.06611 -2.07741 0
M  V30 1012 C 100.944 0.0218666 -1.70086 0
M  V30 1013 O 102.129 -0.145793 -1.93652 0
M  V30 1014 C 99.2587 -0.673444 -3.40708 0
M  V30 1015 C 98.2127 -1.71054 -3.92332 0
M  V30 1016 C 97.5387 -1.17285 -5.21678 0
M  V30 1017 C 98.8387 -3.10718 -4.19824 0
M  V30 1018 H 100.533 -1.99693 -2.23076 0
M  V30 1019 H 98.0787 -0.96152 -1.07195 0
M  V30 1020 H 100.032 -0.534345 -4.17998 0
M  V30 1021 H 98.7557 0.293073 -3.25282 0
M  V30 1022 H 97.4147 -1.83791 -3.17201 0
M  V30 1023 H 97.0627 -0.196847 -5.02615 0
M  V30 1024 H 96.7627 -1.86592 -5.57187 0
M  V30 1025 H 98.2867 -1.04593 -6.01575 0
M  V30 1026 H 99.7007 -3.01192 -4.87808 0
M  V30 1027 H 98.0977 -3.77406 -4.66567 0
M  V30 1028 H 99.1677 -3.58524 -3.26479 0
M  V30 1029 N 100.511 1.16574 -1.06058 0
M  V30 1030 C 101.922 1.68662 -0.800632 0
M  V30 1031 C 102.273 1.84184 0.67608 0
M  V30 1032 O 101.398 1.53568 1.52466 0
M  V30 1033 C 101.993 3.06356 -1.44676 0
M  V30 1034 C 100.552 3.55575 -1.23465 0
M  V30 1035 C 99.6988 2.31616 -1.52477 0
M  V30 1036 H 102.65 1.00969 -1.22438 0
M  V30 1037 H 102.671 3.70636 -0.860788 0
M  V30 1038 H 102.183 2.95027 -2.52152 0
M  V30 1039 H 100.284 3.72167 -0.179527 0
M  V30 1040 H 100.397 4.37812 -1.94571 0
M  V30 1041 H 98.7608 2.36512 -0.945209 0
M  V30 1042 H 99.5438 2.22887 -2.61106 0
M  V30 1043 N 101.989 0.842826 1.3317 0
M  V30 1044 C 102.919 0.294028 2.31641 0
M  V30 1045 C 103.9 -0.600401 1.59151 0
M  V30 1046 O 105.085 -0.523124 1.87022 0
M  V30 1047 C 102.215 -0.528416 3.43257 0
M  V30 1048 C 101.169 0.27056 4.27144 0
M  V30 1049 C 100.495 -0.675881 5.30411 0
M  V30 1050 C 101.795 1.48981 5.00602 0
M  V30 1051 H 103.489 1.11681 2.77791 0
M  V30 1052 H 101.035 0.538478 1.33553 0
M  V30 1053 H 102.988 -0.922674 4.11175 0
M  V30 1054 H 101.712 -1.38445 2.95805 0
M  V30 1055 H 100.371 0.646427 3.60856 0
M  V30 1056 H 100.019 -1.52842 4.79216 0
M  V30 1057 H 99.7189 -0.145374 5.8742 0
M  V30 1058 H 101.243 -1.06757 6.01195 0
M  V30 1059 H 102.657 1.16849 5.61266 0
M  V30 1060 H 101.054 1.95739 5.6728 0
M  V30 1061 H 102.124 2.25746 4.29147 0
M  V30 1062 N 103.467 -1.45747 0.599634 0
M  V30 1063 C 104.43 -2.28917 -0.113835 0
M  V30 1064 C 105.43 -1.3933 -0.802729 0
M  V30 1065 O 106.62 -1.61534 -0.652103 0
M  V30 1066 C 103.752 -3.20152 -1.17114 0
M  V30 1067 H 104.945 -2.93478 0.617289 0
M  V30 1068 H 102.498 -1.52137 0.358327 0
M  V30 1069 H 103.233 -2.60374 -1.93329 0
M  V30 1070 H 103.018 -3.86133 -0.681468 0
M  V30 1071 H 104.508 -3.82708 -1.67105 0
M  V30 1072 N 104.945 -0.338344 -1.53925 0
M  V30 1073 C 106.191 0.260143 -2.01125 0
M  V30 1074 C 106.524 1.50617 -1.22589 0
M  V30 1075 O 105.799 1.91979 -0.312113 0
M  V30 1076 C 106.082 0.579499 -3.55407 0
M  V30 1077 C 105.935 -0.678264 -4.44657 0
M  V30 1078 C 107.254 1.39122 -4.17532 0
M  V30 1079 H 104.373 0.0930772 -0.731099 0
M  V30 1080 H 107.015 -0.457852 -1.84401 0
M  V30 1081 H 105.165 1.19118 -3.69788 0
M  V30 1082 H 106.837 -1.31631 -4.42121 0
M  V30 1083 H 105.08 -1.3042 -4.13731 0
M  V30 1084 H 105.751 -0.410143 -5.50474 0
M  V30 1085 H 108.227 0.874035 -4.06817 0
M  V30 1086 H 107.103 1.58342 -5.25565 0
M  V30 1087 H 107.364 2.39178 -3.71815 0
M  V30 1088 N 106.423 1.57458 -0.0668435 0
M  V30 1089 C 107.37 2.12439 0.902122 0
M  V30 1090 C 108.34 1.03565 1.2986 0
M  V30 1091 O 109.525 1.312 1.38532 0
M  V30 1092 C 106.665 2.6865 2.16614 0
M  V30 1093 C 105.778 3.91663 1.82274 0
M  V30 1094 C 104.913 4.36134 3.0325 0
M  V30 1095 C 103.952 5.51808 2.64904 0
M  V30 1096 N 103.089 5.9126 3.78624 0
M  V30 1097 H 107.929 2.94934 0.426382 0
M  V30 1098 H 105.466 1.4575 0.198819 0
M  V30 1099 H 107.424 2.99346 2.90599 0
M  V30 1100 H 106.054 1.88928 2.61737 0
M  V30 1101 H 105.106 3.6746 0.983719 0
M  V30 1102 H 106.418 4.75693 1.50059 0
M  V30 1103 H 105.572 4.68465 3.85519 0
M  V30 1104 H 104.311 3.50948 3.38655 0
M  V30 1105 H 103.316 5.19133 1.81055 0
M  V30 1106 H 104.541 6.38722 2.30675 0
M  V30 1107 H 102.487 5.09024 4.138 0
M  V30 1108 H 102.404 6.70018 3.5016 0
M  V30 1109 H 103.672 6.28212 4.61486 0
M  V30 1110 N 107.901 -0.206675 1.56239 0
M  V30 1111 C 108.849 -1.27571 1.94495 0
M  V30 1112 C 109.843 -1.47737 0.828862 0
M  V30 1113 O 111.049 -1.48735 1.0138 0
M  V30 1114 H 107.424 -0.428029 0.6183 0
M  V30 1115 H 109.395 -0.925961 2.8367 0
M  V30 1116 C 108.144 -2.61568 2.29079 0
M  V30 1117 H 107.467 -2.46863 3.14482 0
M  V30 1118 H 108.907 -3.35144 2.5972 0
M  V30 1119 C 107.366 -3.17695 1.12123 0
M  V30 1120 O 107.896 -3.99801 0.390153 0
M  V30 1121 N 106.102 -2.76276 0.901097 0
M  V30 1122 H 105.649 -2.09613 1.49733 0
M  V30 1123 H 105.607 -3.1417 0.120319 0
M  V30 1124 N 109.379 -1.50304 -0.473955 0
M  V30 1125 C 110.342 -1.6841 -1.55469 0
M  V30 1126 C 111.342 -0.554905 -1.50922 0
M  V30 1127 O 112.532 -0.821882 -1.53593 0
M  V30 1128 C 109.664 -1.70667 -2.95102 0
M  V30 1129 H 110.857 -2.64828 -1.40733 0
M  V30 1130 H 108.41 -1.39742 -0.700132 0
M  V30 1131 H 109.145 -0.75932 -3.15285 0
M  V30 1132 H 108.93 -2.52698 -2.9981 0
M  V30 1133 H 110.42 -1.8664 -3.73571 0
M  V30 1134 N 110.857 0.726932 -1.39834 0
M  V30 1135 C 112.105 1.4837 -1.37225 0
M  V30 1136 C 112.426 1.94979 0.0284857 0
M  V30 1137 O 111.696 1.69555 0.981213 0
M  V30 1138 H 110.276 0.55043 -0.505011 0
M  V30 1139 H 112.938 0.862468 -1.74778 0
M  V30 1140 H 112.034 2.36198 -2.04003 0
M  V30 1141 N 112.336 1.25143 0.95797 0
M  V30 1142 C 113.585 1.0909 1.69654 0
M  V30 1143 C 113.898 -0.368548 1.92097 0
M  V30 1144 O 115.104 -0.649455 2.63618 0
M  V30 1145 C 113.56 1.90395 3.05414 0
M  V30 1146 C 113.168 3.4081 2.90779 0
M  V30 1147 C 114.912 1.82901 3.83076 0
M  V30 1148 C 112.819 4.14423 4.21909 0
M  V30 1149 H 111.749 0.404625 0.636235 0
M  V30 1150 H 114.4 1.4931 1.06672 0
M  V30 1151 H 112.782 1.42996 3.69281 0
M  V30 1152 H 113.956 3.95859 2.35865 0
M  V30 1153 H 112.271 3.49361 2.26575 0
M  V30 1154 H 114.868 2.35196 4.80195 0
M  V30 1155 H 115.211 0.796224 4.08615 0
M  V30 1156 H 115.744 2.28033 3.25954 0
M  V30 1157 H 112.483 5.18102 4.01561 0
M  V30 1158 H 112.003 3.64159 4.76601 0
M  V30 1159 H 113.682 4.21956 4.90471 0
M  V30 1160 N 113.814 -1.1601 1.06675 0
M  V30 1161 C 115.06 -1.86909 0.786945 0
M  V30 1162 C 115.393 -1.81717 -0.685018 0
M  V30 1163 O 114.668 -1.23551 -1.50218 0
M  V30 1164 C 114.951 -3.36313 1.28707 0
M  V30 1165 C 114.804 -3.50175 2.82308 0
M  V30 1166 C 116.123 -4.3084 0.898071 0
M  V30 1167 H 113.242 -0.678677 0.287343 0
M  V30 1168 H 115.884 -1.36336 1.32334 0
M  V30 1169 H 114.034 -3.79513 0.830768 0
M  V30 1170 H 115.706 -3.15886 3.36175 0
M  V30 1171 H 113.949 -2.91959 3.20847 0
M  V30 1172 H 114.62 -4.55116 3.12368 0
M  V30 1173 H 117.096 -3.95561 1.29114 0
M  V30 1174 H 115.972 -5.33876 1.27543 0
M  V30 1175 H 116.233 -4.41662 -0.196651 0
M  V30 1176 N 115.292 -0.849877 -1.32721 0
M  V30 1177 C 116.225 -0.235903 -2.26977 0
M  V30 1178 C 117.203 0.623355 -1.50177 0
M  V30 1179 O 118.387 0.581207 -1.79316 0
M  V30 1180 C 115.514 0.667712 -3.32053 0
M  V30 1181 C 114.56 -0.11753 -4.26338 0
M  V30 1182 S 115.393 -1.48277 -5.14562 0
M  V30 1183 C 116.549 -0.584741 -6.23163 0
M  V30 1184 H 116.782 -1.03495 -2.78704 0
M  V30 1185 H 114.315 -0.64724 -1.40179 0
M  V30 1186 H 116.273 1.18343 -3.93072 0
M  V30 1187 H 114.934 1.44052 -2.7912 0
M  V30 1188 H 114.127 0.57051 -5.00761 0
M  V30 1189 H 113.729 -0.564668 -3.69713 0
M  V30 1190 H 116.021 0.212968 -6.77165 0
M  V30 1191 H 116.964 -1.29947 -6.96074 0
M  V30 1192 H 117.372 -0.161202 -5.6427 0
M  V30 1193 N 116.77 1.45427 -0.607355 0
M  V30 1194 C 118.018 2.01841 -0.102253 0
M  V30 1195 C 118.339 1.47832 1.27164 0
M  V30 1196 O 117.609 0.672497 1.83995 0
M  V30 1197 H 116.189 0.746188 -0.0348101 0
M  V30 1198 H 118.851 1.78229 -0.7887 0
M  V30 1199 H 117.947 3.12057 -0.0518585 0
M  V30 1200 N 118.248 0.346503 1.53744 0
M  V30 1201 C 119.659 -0.136779 1.86198 0
M  V30 1202 C 120.01 -1.49749 1.26766 0
M  V30 1203 O 119.135 -2.08417 0.582355 0
M  V30 1204 C 119.73 -0.254966 3.37839 0
M  V30 1205 C 118.289 -0.682482 3.70161 0
M  V30 1206 C 117.436 0.181981 2.76702 0
M  V30 1207 H 120.387 0.565994 1.48264 0
M  V30 1208 H 120.408 -1.08195 3.64793 0
M  V30 1209 H 119.92 0.735526 3.81066 0
M  V30 1210 H 118.021 -1.68189 3.3248 0
M  V30 1211 H 118.134 -0.470326 4.76786 0
M  V30 1212 H 116.498 -0.34615 2.52337 0
M  V30 1213 H 117.281 1.16966 3.2276 0
M  V30 1214 N 119.726 -1.57421 0.075193 0
M  V30 1215 C 120.975 -1.92794 -0.592731 0
M  V30 1216 C 121.288 -0.957478 -1.70563 0
M  V30 1217 O 122.494 -1.20417 -2.43335 0
M  V30 1218 C 120.95 -3.42495 -1.10569 0
M  V30 1219 C 120.558 -4.47994 -0.0236121 0
M  V30 1220 C 122.302 -3.86864 -1.74748 0
M  V30 1221 C 120.209 -5.88829 -0.550803 0
M  V30 1222 H 119.139 -0.719591 -0.225177 0
M  V30 1223 H 121.79 -1.82902 0.147978 0
M  V30 1224 H 120.172 -3.47471 -1.89947 0
M  V30 1225 H 121.346 -4.54637 0.751099 0
M  V30 1226 H 119.661 -4.13113 0.522159 0
M  V30 1227 H 122.258 -4.8947 -2.15229 0
M  V30 1228 H 122.601 -3.24417 -2.60882 0
M  V30 1229 H 123.134 -3.84504 -1.01986 0
M  V30 1230 H 119.873 -6.54929 0.273457 0
M  V30 1231 H 119.393 -5.85698 -1.29296 0
M  V30 1232 H 121.072 -6.38811 -1.02613 0
M  V30 1233 N 121.204 0.198386 -1.56346 0
M  V30 1234 C 122.429 0.939682 -1.84891 0
M  V30 1235 C 122.854 1.76202 -0.658369 0
M  V30 1236 O 122.212 1.76993 0.392851 0
M  V30 1237 C 122.26 1.81428 -3.11635 0
M  V30 1238 O 121.364 2.91265 -2.91956 0
M  V30 1239 H 120.705 0.264807 -0.608912 0
M  V30 1240 H 123.235 0.204695 -2.03573 0
M  V30 1241 H 123.245 2.21958 -3.42343 0
M  V30 1242 H 121.92 1.21004 -3.97908 0
M  V30 1243 H 120.497 2.54514 -2.72538 0
M  V30 1244 N 122.682 1.50554 0.465978 0
M  V30 1245 C 123.612 1.72722 1.57128 0
M  V30 1246 C 124.593 0.576294 1.6004 0
M  V30 1247 O 125.778 0.81598 1.76225 0
M  V30 1248 C 122.908 1.82605 2.95419 0
M  V30 1249 C 121.862 2.97835 3.07373 0
M  V30 1250 C 121.188 2.92867 4.47363 0
M  V30 1251 C 122.488 4.38265 2.84114 0
M  V30 1252 H 124.182 2.65267 1.38829 0
M  V30 1253 H 121.728 1.2765 0.666441 0
M  V30 1254 H 123.681 1.96698 3.72677 0
M  V30 1255 H 122.405 0.866858 3.14886 0
M  V30 1256 H 121.064 2.83401 2.3255 0
M  V30 1257 H 120.712 1.94783 4.63755 0
M  V30 1258 H 120.412 3.70227 4.56296 0
M  V30 1259 H 121.936 3.09015 5.26633 0
M  V30 1260 H 123.35 4.53198 3.51118 0
M  V30 1261 H 121.747 5.17115 3.04487 0
M  V30 1262 H 122.817 4.50281 1.7993 0
M  V30 1263 N 124.16 -0.719506 1.40217 0
M  V30 1264 C 125.09 -1.8465 1.42922 0
M  V30 1265 C 126.071 -1.67599 0.29062 0
M  V30 1266 O 127.256 -1.87688 0.498677 0
M  V30 1267 C 124.386 -3.22565 1.28722 0
M  V30 1268 C 123.34 -3.54281 2.40144 0
M  V30 1269 C 122.666 -4.91298 2.11023 0
M  V30 1270 C 123.966 -3.55676 3.82481 0
M  V30 1271 H 125.66 -1.82644 2.37237 0
M  V30 1272 H 123.206 -0.877305 1.1419 0
M  V30 1273 H 125.159 -4.01095 1.29232 0
M  V30 1274 H 123.883 -3.25137 0.308811 0
M  V30 1275 H 122.542 -2.78088 2.38877 0
M  V30 1276 H 122.19 -4.90468 1.11582 0
M  V30 1277 H 121.89 -5.13485 2.8567 0
M  V30 1278 H 123.414 -5.72166 2.13209 0
M  V30 1279 H 124.828 -4.24254 3.85592 0
M  V30 1280 H 123.225 -3.89388 4.56614 0
M  V30 1281 H 124.295 -2.55144 4.12346 0
M  V30 1282 N 125.638 -1.25649 -0.95132 0
M  V30 1283 C 126.887 -1.09988 -1.69073 0
M  V30 1284 C 127.2 0.358355 -1.92289 0
M  V30 1285 O 128.406 0.635466 -2.63958 0
M  V30 1286 C 126.862 -1.92012 -3.044 0
M  V30 1287 C 126.47 -3.42347 -2.88968 0
M  V30 1288 C 128.214 -1.8493 -3.82101 0
M  V30 1289 C 126.121 -4.16655 -4.19705 0
M  V30 1290 H 125.051 -0.407993 -0.63408 0
M  V30 1291 H 127.702 -1.49873 -1.05879 0
M  V30 1292 H 126.084 -1.44952 -3.68517 0
M  V30 1293 H 127.258 -3.97104 -2.33762 0
M  V30 1294 H 125.573 -3.50557 -2.24719 0
M  V30 1295 H 128.17 -2.37739 -4.78941 0
M  V30 1296 H 128.513 -0.817883 -4.08187 0
M  V30 1297 H 129.046 -2.29758 -3.2474 0
M  V30 1298 H 125.785 -5.20224 -3.98807 0
M  V30 1299 H 125.305 -3.66681 -4.74663 0
M  V30 1300 H 126.984 -4.24551 -4.88227 0
M  V30 1301 N 127.117 1.15442 -1.07289 0
M  V30 1302 C 128.366 1.85557 -0.790669 0
M  V30 1303 C 128.679 1.83186 0.685739 0
M  V30 1304 O 129.885 2.48977 1.0827 0
M  V30 1305 C 128.341 3.33038 -1.36433 0
M  V30 1306 C 127.949 3.43856 -2.8717 0
M  V30 1307 C 129.693 4.0834 -1.1601 0
M  V30 1308 C 127.6 4.85482 -3.3773 0
M  V30 1309 H 126.53 0.695122 -0.292098 0
M  V30 1310 H 129.181 1.30219 -1.29287 0
M  V30 1311 H 127.563 3.88043 -0.789864 0
M  V30 1312 H 128.737 2.98961 -3.50655 0
M  V30 1313 H 127.052 2.81998 -3.06376 0
M  V30 1314 H 129.649 5.12859 -1.51262 0
M  V30 1315 H 129.992 4.16182 -0.0991007 0
M  V30 1316 H 130.525 3.59603 -1.70089 0
M  V30 1317 H 127.264 4.82823 -4.43353 0
M  V30 1318 H 126.784 5.30961 -2.78999 0
M  V30 1319 H 128.463 5.54335 -3.33648 0
M  V30 1320 N 128.595 0.856903 1.32268 0
M  V30 1321 C 129.843 0.460474 1.96784 0
M  V30 1322 C 130.164 -0.987701 1.68135 0
M  V30 1323 O 129.434 -1.69058 0.989765 0
M  V30 1324 H 128.014 0.167289 0.728027 0
M  V30 1325 H 130.676 1.09383 1.61312 0
M  V30 1326 H 129.772 0.60739 3.06133 0
M  V30 1327 N 130.073 -1.45103 0.615059 0
M  V30 1328 C 131.322 -2.01396 0.110718 0
M  V30 1329 C 131.635 -1.48834 -1.26916 0
M  V30 1330 O 132.841 -1.97152 -1.86664 0
M  V30 1331 C 131.297 -3.59599 0.14723 0
M  V30 1332 C 130.905 -4.21158 1.52743 0
M  V30 1333 C 132.649 -4.23428 -0.30148 0
M  V30 1334 C 130.556 -5.71535 1.51992 0
M  V30 1335 H 129.486 -0.753061 0.0376241 0
M  V30 1336 H 132.137 -1.66494 0.77149 0
M  V30 1337 H 130.519 -3.91724 -0.580339 0
M  V30 1338 H 131.693 -4.00594 2.2773 0
M  V30 1339 H 130.008 -3.69552 1.91886 0
M  V30 1340 H 132.605 -5.33703 -0.326392 0
M  V30 1341 H 132.948 -3.94629 -1.32565 0
M  V30 1342 H 133.481 -3.96047 0.373065 0
M  V30 1343 H 130.22 -6.05044 2.52193 0
M  V30 1344 H 129.74 -5.94268 0.81274 0
M  V30 1345 H 131.419 -6.34873 1.24681 0
M  V30 1346 N 131.551 -0.354651 -1.53558 0
M  V30 1347 C 132.797 0.238797 -2.01389 0
M  V30 1348 C 133.13 1.49309 -1.2418 0
M  V30 1349 O 132.405 1.91638 -0.332457 0
M  V30 1350 C 132.688 0.541771 -3.56001 0
M  V30 1351 C 132.541 -0.725388 -4.43912 0
M  V30 1352 C 133.86 1.34685 -4.18984 0
M  V30 1353 H 130.979 0.0853177 -0.732045 0
M  V30 1354 H 133.621 -0.477384 -1.83905 0
M  V30 1355 H 131.771 1.15189 -3.71031 0
M  V30 1356 H 133.443 -1.36313 -4.407 0
M  V30 1357 H 131.686 -1.34801 -4.12324 0
M  V30 1358 H 132.357 -0.468505 -5.50008 0
M  V30 1359 H 134.833 0.830837 -4.07721 0
M  V30 1360 H 133.709 1.52759 -5.27215 0
M  V30 1361 H 133.97 2.35221 -3.74331 0
M  V30 1362 N 133.029 1.57378 -0.0835403 0
M  V30 1363 C 133.992 2.12252 0.864959 0
M  V30 1364 C 134.992 1.04916 1.21858 0
M  V30 1365 O 136.182 1.30853 1.14991 0
M  V30 1366 C 133.314 2.63358 2.16461 0
M  V30 1367 H 134.507 2.97371 0.388676 0
M  V30 1368 H 132.06 1.55423 0.165317 0
M  V30 1369 H 132.795 1.81727 2.686 0
M  V30 1370 H 132.58 3.41826 1.92087 0
M  V30 1371 H 134.07 3.05847 2.84337 0
M  V30 1372 N 134.507 -0.190092 1.56449 0
M  V30 1373 C 135.753 -0.911052 1.81184 0
M  V30 1374 C 136.086 -1.82699 0.658396 0
M  V30 1375 O 135.361 -1.91491 -0.340775 0
M  V30 1376 C 135.644 -1.72297 3.16205 0
M  V30 1377 C 135.497 -0.831419 4.42049 0
M  V30 1378 C 136.816 -2.69454 3.47969 0
M  V30 1379 H 133.935 -0.32977 0.659106 0
M  V30 1380 H 136.577 -0.178169 1.89163 0
M  V30 1381 H 134.727 -2.34778 3.09534 0
M  V30 1382 H 136.399 -0.220929 4.60771 0
M  V30 1383 H 134.642 -0.138406 4.33579 0
M  V30 1384 H 135.313 -1.43461 5.33032 0
M  V30 1385 H 137.789 -2.17104 3.54972 0
M  V30 1386 H 136.665 -3.23342 4.43555 0
M  V30 1387 H 136.926 -3.48744 2.71717 0
M  V30 1388 N 135.985 -1.50799 -0.457987 0
M  V30 1389 C 136.935 -1.67003 -1.55222 0
M  V30 1390 C 137.919 -0.52434 -1.52117 0
M  V30 1391 O 139.111 -0.779345 -1.58919 0
M  V30 1392 C 136.24 -1.77956 -2.93576 0
M  V30 1393 C 135.326 -2.98243 -3.01516 0
M  V30 1394 N 135.717 -4.21732 -2.79241 0
M  V30 1395 C 134.015 -2.97072 -3.32662 0
M  V30 1396 C 134.716 -5.02817 -2.92489 0
M  V30 1397 N 133.692 -4.37038 -3.23262 0
M  V30 1398 H 137.494 -2.60163 -1.36721 0
M  V30 1399 H 135.008 -1.48163 -0.664952 0
M  V30 1400 H 137.005 -1.87671 -3.72271 0
M  V30 1401 H 135.665 -0.859634 -3.13114 0
M  V30 1402 H 136.676 -4.51016 -2.54567 0
M  V30 1403 H 133.353 -2.14631 -3.58106 0
M  V30 1404 H 134.743 -6.11054 -2.79396 0
M  V30 1405 N 137.463 0.71206 -1.40597 0
M  V30 1406 C 138.703 1.48438 -1.40519 0
M  V30 1407 C 139.067 1.91998 -0.00767611 0
M  V30 1408 O 140.268 2.6854 0.118239 0
M  V30 1409 C 138.539 2.67514 -2.37004 0
M  V30 1410 S 140.098 3.56875 -2.55315 0
M  V30 1411 H 136.916 0.507457 -0.498005 0
M  V30 1412 H 139.518 0.832355 -1.76896 0
M  V30 1413 H 138.222 2.33689 -3.37368 0
M  V30 1414 H 137.753 3.37625 -2.01923 0
M  V30 1415 H 139.768 4.62081 -1.8082 0
M  V30 1416 N 138.941 1.26152 0.944643 0
M  V30 1417 C 139.874 1.01729 2.04271 0
M  V30 1418 C 140.852 -0.0568101 1.62501 0
M  V30 1419 O 142.036 0.0848987 1.88309 0
M  V30 1420 C 139.163 0.539792 3.34371 0
M  V30 1421 C 138.209 1.60593 3.9511 0
M  V30 1422 S 139.042 3.19392 4.29825 0
M  V30 1423 C 140.198 2.73402 5.63029 0
M  V30 1424 H 140.431 1.94703 2.24673 0
M  V30 1425 H 137.964 1.09793 1.08558 0
M  V30 1426 H 139.922 0.270956 4.09605 0
M  V30 1427 H 138.583 -0.369609 3.11918 0
M  V30 1428 H 137.776 1.22275 4.88943 0
M  V30 1429 H 137.378 1.82596 3.26397 0
M  V30 1430 H 139.67 2.1765 6.41588 0
M  V30 1431 H 140.613 3.65913 6.06229 0
M  V30 1432 H 141.021 2.13077 5.22741 0
M  V30 1433 N 140.419 -1.14872 1.07899 0
M  V30 1434 C 141.667 -1.85422 0.803941 0
M  V30 1435 C 141.988 -1.83051 -0.67211 0
M  V30 1436 O 141.258 -1.27532 -1.48703 0
M  V30 1437 H 139.838 -0.686537 0.294408 0
M  V30 1438 H 142.5 -1.39226 1.3639 0
M  V30 1439 H 141.596 -2.90399 1.14346 0
M  V30 1440 N 141.898 -0.863906 -1.31812 0
M  V30 1441 C 143.147 -0.46801 -1.96195 0
M  V30 1442 C 143.46 0.983474 -1.69077 0
M  V30 1443 O 144.666 1.48523 -2.27273 0
M  V30 1444 C 143.122 -0.785995 -3.51212 0
M  V30 1445 C 142.73 -2.25383 -3.87178 0
M  V30 1446 C 144.474 -0.458274 -4.22019 0
M  V30 1447 C 142.381 -2.51455 -5.3528 0
M  V30 1448 H 141.311 -0.171283 -0.734287 0
M  V30 1449 H 143.962 -1.05597 -1.50072 0
M  V30 1450 H 142.344 -0.127359 -3.95795 0
M  V30 1451 H 143.518 -2.95502 -3.53575 0
M  V30 1452 H 141.833 -2.54698 -3.2942 0
M  V30 1453 H 144.43 -0.630369 -5.30971 0
M  V30 1454 H 144.773 0.600834 -4.11941 0
M  V30 1455 H 145.306 -1.07319 -3.8305 0
M  V30 1456 H 142.045 -3.56025 -5.50387 0
M  V30 1457 H 141.565 -1.85923 -5.70257 0
M  V30 1458 H 143.244 -2.35874 -6.02472 0
M  V30 1459 N 143.376 1.44774 -0.622745 0
M  V30 1460 C 144.306 2.33382 0.0741861 0
M  V30 1461 C 145.287 1.47719 0.843387 0
M  V30 1462 O 146.472 1.76458 0.810934 0
M  V30 1463 C 143.602 3.30663 1.06204 0
M  V30 1464 C 142.556 4.26079 0.405037 0
M  V30 1465 C 141.882 5.13165 1.5022 0
M  V30 1466 C 143.182 5.1781 -0.683414 0
M  V30 1467 H 144.876 2.91905 -0.665713 0
M  V30 1468 H 142.422 1.40363 -0.321587 0
M  V30 1469 H 144.375 3.9153 1.55827 0
M  V30 1470 H 143.099 2.70331 1.83272 0
M  V30 1471 H 141.758 3.66532 -0.0704683 0
M  V30 1472 H 141.406 4.49191 2.26355 0
M  V30 1473 H 141.106 5.77812 1.06803 0
M  V30 1474 H 142.63 5.76902 2.00041 0
M  V30 1475 H 144.044 5.72661 -0.270631 0
M  V30 1476 H 142.441 5.91015 -1.04023 0
M  V30 1477 H 143.511 4.59326 -1.55395 0
M  V30 1478 N 144.854 0.36279 1.53368 0
M  V30 1479 C 146.1 -0.228113 2.01513 0
M  V30 1480 C 146.433 -1.48648 1.2497 0
M  V30 1481 O 145.708 -1.91459 0.342616 0
M  V30 1482 C 145.991 -0.522884 3.56284 0
M  V30 1483 C 145.844 0.74892 4.43521 0
M  V30 1484 C 147.163 -1.32461 4.19693 0
M  V30 1485 H 144.282 -0.0814343 0.732487 0
M  V30 1486 H 146.924 0.48713 1.83649 0
M  V30 1487 H 145.074 -1.1322 3.71636 0
M  V30 1488 H 146.746 1.38648 4.39971 0
M  V30 1489 H 144.989 1.36986 4.11603 0
M  V30 1490 H 145.66 0.497667 5.49752 0
M  V30 1491 H 148.136 -0.809203 4.08156 0
M  V30 1492 H 147.012 -1.49961 5.28018 0
M  V30 1493 H 147.273 -2.33232 3.75573 0
M  V30 1494 N 146.332 -1.57332 0.0918853 0
M  V30 1495 C 147.279 -2.13847 -0.868211 0
M  V30 1496 C 148.249 -1.05618 -1.28196 0
M  V30 1497 O 149.434 -1.33387 -1.36427 0
M  V30 1498 C 146.574 -2.72062 -2.12312 0
M  V30 1499 C 145.687 -3.94514 -1.7602 0
M  V30 1500 C 144.822 -4.40903 -2.96273 0
M  V30 1501 C 143.861 -5.55953 -2.56092 0
M  V30 1502 N 142.998 -5.97209 -3.69169 0
M  V30 1503 H 147.838 -2.95575 -0.379406 0
M  V30 1504 H 145.375 -1.46048 -0.175606 0
M  V30 1505 H 147.333 -3.03931 -2.858 0
M  V30 1506 H 145.963 -1.93068 -2.58698 0
M  V30 1507 H 145.015 -3.68979 -0.925135 0
M  V30 1508 H 146.327 -4.7802 -1.42472 0
M  V30 1509 H 145.481 -4.74539 -3.78018 0
M  V30 1510 H 144.22 -3.56291 -3.33029 0
M  V30 1511 H 143.225 -5.21948 -1.72773 0
M  V30 1512 H 144.45 -6.42311 -2.20484 0
M  V30 1513 H 142.396 -5.15543 -4.05649 0
M  V30 1514 H 142.313 -6.75504 -3.39456 0
M  V30 1515 H 143.581 -6.35475 -4.51434 0
M  V30 1516 N 147.81 0.181792 -1.56548 0
M  V30 1517 C 149.05 0.906711 -1.83189 0
M  V30 1518 C 149.414 1.79882 -0.671312 0
M  V30 1519 O 150.615 2.56054 -0.81792 0
M  V30 1520 C 148.886 1.69023 -3.14906 0
M  V30 1521 S 150.445 2.46535 -3.62996 0
M  V30 1522 H 147.263 0.303877 -0.642791 0
M  V30 1523 H 149.865 0.169107 -1.94767 0
M  V30 1524 H 148.569 1.02571 -3.97376 0
M  V30 1525 H 148.1 2.46941 -3.06241 0
M  V30 1526 H 150.115 3.71014 -3.29489 0
M  V30 1527 N 149.288 1.51039 0.449983 0
M  V30 1528 C 150.251 1.70863 1.5277 0
M  V30 1529 C 151.251 0.578846 1.5002 0
M  V30 1530 O 152.441 0.846213 1.52266 0
M  V30 1531 C 149.573 1.75341 2.9235 0
M  V30 1532 H 150.766 2.67034 1.36502 0
M  V30 1533 H 148.319 1.40838 0.677812 0
M  V30 1534 H 149.054 0.809383 3.14037 0
M  V30 1535 H 148.839 2.57436 2.95752 0
M  V30 1536 H 150.329 1.92559 3.70555 0
M  V30 1537 N 150.766 -0.704594 1.40972 0
M  V30 1538 C 151.716 -1.81051 1.38581 0
M  V30 1539 C 152.7 -1.58759 0.261585 0
M  V30 1540 O 153.892 -1.69745 0.501556 0
M  V30 1541 C 151.021 -3.19279 1.26157 0
M  V30 1542 C 150.107 -3.47296 2.43405 0
M  V30 1543 N 150.498 -3.46064 3.68881 0
M  V30 1544 C 148.796 -3.77804 2.37023 0
M  V30 1545 C 149.497 -3.72733 4.46592 0
M  V30 1546 N 148.473 -3.9203 3.76581 0
M  V30 1547 H 152.275 -1.78448 2.33525 0
M  V30 1548 H 149.789 -0.904198 1.349 0
M  V30 1549 H 151.786 -3.98488 1.22526 0
M  V30 1550 H 150.446 -3.231 0.321902 0
M  V30 1551 H 151.457 -3.26656 4.01891 0
M  V30 1552 H 148.134 -3.8905 1.51481 0
M  V30 1553 H 149.524 -3.77993 5.55492 0
M  V30 1554 N 152.244 -1.26651 -0.937939 0
M  V30 1555 C 153.194 -1.05156 -2.02302 0
M  V30 1556 C 154.178 0.0171233 -1.60891 0
M  V30 1557 O 155.37 -0.200213 -1.75864 0
M  V30 1558 C 152.499 -0.689962 -3.36295 0
M  V30 1559 C 151.585 -1.79626 -3.84181 0
M  V30 1560 N 151.976 -3.03422 -4.04684 0
M  V30 1561 C 150.274 -1.6806 -4.13124 0
M  V30 1562 C 150.975 -3.75345 -4.444 0
M  V30 1563 N 149.951 -3.03051 -4.51288 0
M  V30 1564 H 153.753 -1.99117 -2.1617 0
M  V30 1565 H 151.267 -1.17216 -1.12402 0
M  V30 1566 H 153.264 -0.517112 -4.13681 0
M  V30 1567 H 151.924 0.242139 -3.23796 0
M  V30 1568 H 152.935 -3.39293 -3.91281 0
M  V30 1569 H 149.612 -0.818629 -4.09396 0
M  V30 1570 H 151.002 -4.81691 -4.68427 0
M  V30 1571 N 153.722 1.14298 -1.08507 0
M  V30 1572 C 154.969 1.85359 -0.815373 0
M  V30 1573 C 155.297 1.83001 0.658865 0
M  V30 1574 O 154.552 1.25655 1.50031 0
M  V30 1575 C 154.851 3.33547 -1.28379 0
M  V30 1576 C 154.517 3.56093 -2.76602 0
M  V30 1577 C 153.179 3.61955 -3.17084 0
M  V30 1578 C 155.531 3.64834 -3.72217 0
M  V30 1579 C 152.859 3.74082 -4.51973 0
M  V30 1580 C 155.211 3.78487 -5.06883 0
M  V30 1581 C 153.875 3.82598 -5.46969 0
M  V30 1582 H 153.145 0.678276 -0.298366 0
M  V30 1583 H 155.792 1.35002 -1.35819 0
M  V30 1584 H 154.097 3.86191 -0.660593 0
M  V30 1585 H 155.794 3.86959 -1.05186 0
M  V30 1586 H 152.384 3.52179 -2.4427 0
M  V30 1587 H 156.568 3.59595 -3.42061 0
M  V30 1588 H 151.824 3.75527 -4.82483 0
M  V30 1589 H 155.998 3.84193 -5.80834 0
M  V30 1590 H 153.625 3.91747 -6.51489 0
M  V30 1591 N 155.201 0.870884 1.31352 0
M  V30 1592 C 156.441 0.488783 1.9847 0
M  V30 1593 C 156.805 -0.941536 1.67329 0
M  V30 1594 O 158.006 -1.42903 2.27667 0
M  V30 1595 C 156.277 0.739688 3.49662 0
M  V30 1596 S 157.836 0.457582 4.36408 0
M  V30 1597 H 154.654 0.18242 0.6872 0
M  V30 1598 H 157.256 1.12711 1.59739 0
M  V30 1599 H 155.96 1.77944 3.69816 0
M  V30 1600 H 155.491 0.0883905 3.93301 0
M  V30 1601 H 157.506 -0.709752 4.91098 0
M  V30 1602 N 156.679 -1.44442 0.630414 0
M  V30 1603 C 158.095 -1.56832 0.295973 0
M  V30 1604 C 158.295 -1.61806 -1.20088 0
M  V30 1605 O 157.351 -1.5607 -1.9849 0
M  V30 1606 C 158.664 -2.84031 0.987264 0
M  V30 1607 C 160.212 -2.97742 0.96534 0
M  V30 1608 C 160.687 -4.27743 1.63708 0
M  V30 1609 N 162.178 -4.34555 1.60364 0
M  V30 1610 C 162.913 -5.33862 2.09234 0
M  V30 1611 N 162.409 -6.39578 2.66292 0
M  V30 1612 N 164.202 -5.25366 1.99867 0
M  V30 1613 H 156.353 -1.39457 1.60205 0
M  V30 1614 H 158.616 -0.668237 0.672431 0
M  V30 1615 H 158.322 -2.86338 2.04215 0
M  V30 1616 H 158.196 -3.73534 0.524588 0
M  V30 1617 H 160.583 -2.94989 -0.0810639 0
M  V30 1618 H 160.664 -2.09589 1.4665 0
M  V30 1619 H 160.308 -4.31255 2.68293 0
M  V30 1620 H 160.238 -5.14752 1.11076 0
M  V30 1621 H 162.729 -3.58772 1.18705 0
M  V30 1622 H 163.042 -7.11637 3.01317 0
M  V30 1623 H 161.387 -6.40265 2.70343 0
M  V30 1624 H 164.578 -4.41688 1.55013 0
M  V30 1625 H 164.751 -6.02606 2.38265 0
M  V30 1626 N 158.157 -0.370918 -1.53173 0
M  V30 1627 C 159.573 -0.0200818 -1.59587 0
M  V30 1628 C 159.773 1.46279 -1.38581 0
M  V30 1629 O 158.829 2.22506 -1.19363 0
M  V30 1630 C 160.142 -0.4808 -2.96831 0
M  V30 1631 C 161.69 -0.435477 -3.09956 0
M  V30 1632 C 162.165 -0.872092 -4.4962 0
M  V30 1633 N 163.656 -0.827364 -4.55751 0
M  V30 1634 C 164.391 -1.13683 -5.62018 0
M  V30 1635 N 163.887 -1.51584 -6.76014 0
M  V30 1636 N 165.68 -1.05927 -5.52029 0
M  V30 1637 H 157.831 -1.33652 -1.65079 0
M  V30 1638 H 160.094 -0.546634 -0.774529 0
M  V30 1639 H 159.8 -1.51577 -3.1736 0
M  V30 1640 H 159.674 0.129796 -3.76977 0
M  V30 1641 H 162.061 0.590371 -2.89134 0
M  V30 1642 H 162.142 -1.08164 -2.31806 0
M  V30 1643 H 161.786 -1.89608 -4.71181 0
M  V30 1644 H 161.716 -0.203127 -5.26208 0
M  V30 1645 H 164.207 -0.548216 -3.73902 0
M  V30 1646 H 164.52 -1.73609 -7.53047 0
M  V30 1647 H 162.865 -1.55454 -6.77391 0
M  V30 1648 H 166.056 -0.762321 -4.61851 0
M  V30 1649 H 166.229 -1.30378 -6.34749 0
M  V30 1650 N 159.635 1.57281 -0.100228 0
M  V30 1651 C 160.565 2.17328 0.853857 0
M  V30 1652 C 161.546 1.10804 1.2906 0
M  V30 1653 O 162.731 1.38963 1.35657 0
M  V30 1654 C 159.861 2.75772 2.11109 0
M  V30 1655 C 158.815 3.87713 1.81279 0
M  V30 1656 C 158.141 4.32882 3.13874 0
M  V30 1657 C 159.441 5.10677 1.09574 0
M  V30 1658 H 161.135 2.97305 0.353545 0
M  V30 1659 H 158.681 1.43009 0.168612 0
M  V30 1660 H 160.634 3.16433 2.78296 0
M  V30 1661 H 159.358 1.93057 2.63432 0
M  V30 1662 H 158.017 3.476 1.16489 0
M  V30 1663 H 157.665 3.47051 3.64095 0
M  V30 1664 H 157.365 5.08358 2.94696 0
M  V30 1665 H 158.889 4.7618 3.82211 0
M  V30 1666 H 160.303 5.48474 1.66879 0
M  V30 1667 H 158.7 5.91615 1.00557 0
M  V30 1668 H 159.77 4.84835 0.0793299 0
M  V30 1669 N 161.113 -0.173488 1.56642 0
M  V30 1670 C 162.061 -1.23417 1.97157 0
M  V30 1671 C 163.055 -1.45946 0.860013 0
M  V30 1672 O 164.261 -1.46551 1.04512 0
M  V30 1673 H 160.636 -0.414818 0.62724 0
M  V30 1674 H 162.607 -0.865582 2.8557 0
M  V30 1675 C 161.356 -2.5665 2.34576 0
M  V30 1676 H 160.679 -2.40137 3.19647 0
M  V30 1677 H 162.119 -3.2956 2.6677 0
M  V30 1678 C 160.578 -3.15245 1.18836 0
M  V30 1679 O 161.108 -3.98883 0.474869 0
M  V30 1680 N 159.314 -2.74303 0.959497 0
M  V30 1681 H 158.861 -2.0639 1.54146 0
M  V30 1682 H 158.819 -3.13844 0.186932 0
M  V30 1683 N 162.591 -1.51276 -0.441967 0
M  V30 1684 C 163.538 -1.72256 -1.53612 0
M  V30 1685 C 164.508 -0.564164 -1.56225 0
M  V30 1686 O 165.693 -0.798074 -1.73307 0
M  V30 1687 C 162.833 -1.84932 -2.91366 0
M  V30 1688 C 161.946 -3.12459 -2.98317 0
M  V30 1689 C 161.081 -3.15758 -4.27166 0
M  V30 1690 C 160.12 -4.37619 -4.27967 0
M  V30 1691 N 159.257 -4.38493 -5.48333 0
M  V30 1692 H 164.097 -2.65654 -1.35026 0
M  V30 1693 H 161.634 -1.31662 -0.656009 0
M  V30 1694 H 163.592 -1.90263 -3.7129 0
M  V30 1695 H 162.222 -0.949461 -3.08521 0
M  V30 1696 H 161.274 -3.1646 -2.11086 0
M  V30 1697 H 162.586 -4.02382 -2.94771 0
M  V30 1698 H 161.74 -3.19979 -5.15459 0
M  V30 1699 H 160.479 -2.23715 -4.33362 0
M  V30 1700 H 159.484 -4.33579 -3.38067 0
M  V30 1701 H 160.709 -5.30921 -4.23438 0
M  V30 1702 H 158.655 -3.49318 -5.55259 0
M  V30 1703 H 158.572 -5.22219 -5.46647 0
M  V30 1704 H 159.84 -4.469 -6.38671 0
M  V30 1705 N 164.069 0.697108 -1.41344 0
M  V30 1706 C 165.294 1.49096 -1.44171 0
M  V30 1707 C 165.719 1.88038 -0.0481568 0
M  V30 1708 O 165.077 1.54525 0.948243 0
M  V30 1709 C 165.125 2.73088 -2.3549 0
M  V30 1710 O 164.229 3.70514 -1.81088 0
M  V30 1711 H 163.57 0.448801 -0.489361 0
M  V30 1712 H 166.1 0.856992 -1.85787 0
M  V30 1713 H 166.11 3.21413 -2.51312 0
M  V30 1714 H 164.785 2.44081 -3.36745 0
M  V30 1715 H 163.362 3.29441 -1.74708 0
M  V30 1716 N 165.547 1.27147 0.931209 0
M  V30 1717 C 166.794 1.13278 1.67852 0
M  V30 1718 C 167.122 -0.32204 1.91815 0
M  V30 1719 O 166.377 -1.25224 1.50391 0
M  V30 1720 C 166.676 1.8579 3.05314 0
M  V30 1721 C 166.342 3.35657 3.01073 0
M  V30 1722 C 165.004 3.76536 2.99623 0
M  V30 1723 C 167.356 4.31299 2.92627 0
M  V30 1724 C 164.684 5.11426 2.87506 0
M  V30 1725 C 167.036 5.66242 2.82051 0
M  V30 1726 C 165.7 6.06418 2.7895 0
M  V30 1727 H 164.97 0.414515 0.614214 0
M  V30 1728 H 167.617 1.57712 1.08624 0
M  V30 1729 H 165.922 1.33854 3.68226 0
M  V30 1730 H 167.619 1.72491 3.62005 0
M  V30 1731 H 164.209 3.03146 3.02986 0
M  V30 1732 H 168.393 4.00692 2.92848 0
M  V30 1733 H 163.649 5.41705 2.83489 0
M  V30 1734 H 167.823 6.40026 2.74481 0
M  V30 1735 H 165.45 7.10895 2.69318 0
M  V30 1736 N 167.025 -1.13721 1.09112 0
M  V30 1737 C 168.271 -1.85198 0.826414 0
M  V30 1738 C 168.604 -1.83129 -0.646319 0
M  V30 1739 O 167.879 -1.2671 -1.47563 0
M  V30 1740 C 168.162 -3.33507 1.35812 0
M  V30 1741 C 168.015 -3.44108 2.89672 0
M  V30 1742 C 169.334 -4.28838 0.989256 0
M  V30 1743 H 166.453 -0.67243 0.301675 0
M  V30 1744 H 169.095 -1.33499 1.35197 0
M  V30 1745 H 167.245 -3.77666 0.911082 0
M  V30 1746 H 168.917 -3.08684 3.428 0
M  V30 1747 H 167.16 -2.85087 3.26967 0
M  V30 1748 H 167.831 -4.48388 3.21951 0
M  V30 1749 H 170.307 -3.92734 1.37475 0
M  V30 1750 H 169.183 -5.31051 1.38838 0
M  V30 1751 H 169.444 -4.4198 -0.102924 0
M  V30 1752 N 168.503 -0.877838 -1.30888 0
M  V30 1753 C 169.78 -0.413052 -1.91189 0
M  V30 1754 C 170.16 1.1056 -1.79832 0
M  V30 1755 O 169.508 1.93771 -1.21099 0
M  V30 1756 C 169.718 -0.903191 -3.3711 0
M  V30 1757 C 171.066 -0.93395 -4.14201 0
M  V30 1758 O 172.09 -0.849373 -3.45925 0
M  V30 1759 O 170.949 -1.05772 -5.36167 0
M  V30 1760 H 168.043 -0.125035 -0.817493 0
M  V30 1761 H 170.589 -0.966269 -1.39504 0
M  V30 1762 H 169.361 -1.94692 -3.39427 0
M  V30 1763 H 168.984 -0.328732 -3.96239 0
M  V30 1764 N 169.982 1.44106 -0.638065 0
M  V30 1765 C 171.212 2.06037 -0.152394 0
M  V30 1766 C 171.62 1.47808 1.18108 0
M  V30 1767 O 170.963 0.598092 1.73691 0
M  V30 1768 C 171.025 3.59488 0.0293714 0
M  V30 1769 C 170.689 4.4022 -1.22702 0
M  V30 1770 C 171.686 4.73256 -2.15232 0
M  V30 1771 C 169.371 4.8048 -1.46437 0
M  V30 1772 C 171.365 5.45444 -3.29802 0
M  V30 1773 C 169.052 5.52417 -2.61303 0
M  V30 1774 C 170.05 5.84819 -3.52811 0
M  V30 1775 O 169.738 6.55289 -4.65673 0
M  V30 1776 H 169.47 0.671233 -0.0801401 0
M  V30 1777 H 172.024 1.85851 -0.874563 0
M  V30 1778 H 170.254 3.78191 0.806758 0
M  V30 1779 H 171.943 4.03164 0.470475 0
M  V30 1780 H 172.709 4.42684 -1.98131 0
M  V30 1781 H 168.588 4.54676 -0.760977 0
M  V30 1782 H 172.132 5.70653 -4.01249 0
M  V30 1783 H 168.029 5.82404 -2.78344 0
M  V30 1784 H 168.797 6.73762 -4.64744 0
M  V30 1785 N 171.46 0.379036 1.52974 0
M  V30 1786 C 172.708 -0.206014 2.01047 0
M  V30 1787 C 173.029 -1.48175 1.26765 0
M  V30 1788 O 172.299 -1.92085 0.384743 0
M  V30 1789 H 170.879 -0.0791184 0.742798 0
M  V30 1790 H 173.541 0.508366 1.88153 0
M  V30 1791 H 172.637 -0.423501 3.09213 0
M  V30 1792 N 172.938 -1.57226 0.108567 0
M  V30 1793 C 174.215 -1.86333 -0.594939 0
M  V30 1794 C 174.595 -1.00788 -1.85486 0
M  V30 1795 O 173.943 -0.0839293 -2.28346 0
M  V30 1796 C 174.153 -3.37265 -0.897405 0
M  V30 1797 C 175.501 -4.05629 -1.25501 0
M  V30 1798 O 176.525 -3.42224 -0.987998 0
M  V30 1799 O 175.384 -5.17531 -1.75567 0
M  V30 1800 H 172.478 -0.771018 -0.2991 0
M  V30 1801 H 175.024 -1.69102 0.142283 0
M  V30 1802 H 173.796 -3.913 -0.00413806 0
M  V30 1803 H 173.419 -3.59889 -1.69014 0
M  V30 1804 N 174.416 0.165178 -1.56732 0
M  V30 1805 C 175.644 0.896218 -1.86482 0
M  V30 1806 C 176.059 1.75555 -0.694675 0
M  V30 1807 O 175.416 1.79379 0.33607 0
M  V30 1808 C 175.467 1.76792 -3.1532 0
M  V30 1809 O 175.188 0.943239 -4.27825 0
M  V30 1810 C 176.689 2.6081 -3.58459 0
M  V30 1811 H 173.909 0.260064 -0.618553 0
M  V30 1812 H 176.453 0.163428 -2.03846 0
M  V30 1813 H 174.608 2.45398 -2.99764 0
M  V30 1814 H 175.022 1.53998 -5.01383 0
M  V30 1815 H 176.496 3.17579 -4.51495 0
M  V30 1816 H 176.973 3.35977 -2.82872 0
M  V30 1817 H 177.579 1.97526 -3.76648 0
M  V30 1818 N 175.894 1.51508 0.433938 0
M  V30 1819 C 177.14 1.64588 1.18484 0
M  V30 1820 C 177.473 0.362666 1.90784 0
M  V30 1821 O 176.748 -0.637892 1.83742 0
M  V30 1822 C 177.031 2.85149 2.19913 0
M  V30 1823 C 176.884 4.23456 1.51674 0
M  V30 1824 C 178.203 3.01227 3.20858 0
M  V30 1825 H 175.322 0.598994 0.429389 0
M  V30 1826 H 177.964 1.84002 0.473647 0
M  V30 1827 H 176.114 2.68729 2.80566 0
M  V30 1828 H 177.786 4.51552 0.943322 0
M  V30 1829 H 176.029 4.25998 0.819035 0
M  V30 1830 H 176.7 5.03812 2.2556 0
M  V30 1831 H 179.176 3.16382 2.70263 0
M  V30 1832 H 178.052 3.87141 3.89118 0
M  V30 1833 H 178.313 2.13447 3.8716 0
M  V30 1834 N 177.372 -0.689602 1.41712 0
M  V30 1835 C 178.305 -1.81403 1.3845 0
M  V30 1836 C 179.283 -1.60653 0.250874 0
M  V30 1837 O 180.467 -1.83323 0.43874 0
M  V30 1838 C 177.594 -3.18176 1.1611 0
M  V30 1839 C 176.64 -3.57705 2.3227 0
M  V30 1840 S 177.473 -3.61827 3.94767 0
M  V30 1841 C 178.629 -5.01318 3.74742 0
M  V30 1842 H 178.862 -1.83893 2.33603 0
M  V30 1843 H 176.395 -0.858878 1.28307 0
M  V30 1844 H 178.353 -3.97132 1.03907 0
M  V30 1845 H 177.014 -3.13288 0.225668 0
M  V30 1846 H 176.207 -4.57082 2.12349 0
M  V30 1847 H 175.809 -2.86073 2.40911 0
M  V30 1848 H 178.101 -5.88986 3.34817 0
M  V30 1849 H 179.044 -5.26283 4.73743 0
M  V30 1850 H 179.452 -4.73138 3.07898 0
M  V30 1851 N 178.85 -1.27639 -0.924453 0
M  V30 1852 C 180.08 -1.16819 -1.70402 0
M  V30 1853 C 180.488 0.277191 -1.87158 0
M  V30 1854 O 179.831 1.20025 -1.39067 0
M  V30 1855 C 179.893 -1.78305 -3.12166 0
M  V30 1856 C 179.557 -3.27502 -3.18734 0
M  V30 1857 C 180.554 -4.2409 -3.00738 0
M  V30 1858 C 178.239 -3.68269 -3.4159 0
M  V30 1859 C 180.233 -5.59422 -3.05492 0
M  V30 1860 C 177.92 -5.0373 -3.45977 0
M  V30 1861 C 178.918 -5.99116 -3.27946 0
M  V30 1862 O 178.606 -7.32108 -3.32074 0
M  V30 1863 H 178.338 -0.406931 -0.539799 0
M  V30 1864 H 180.892 -1.69078 -1.16626 0
M  V30 1865 H 179.122 -1.20528 -3.67437 0
M  V30 1866 H 180.811 -1.62154 -3.72103 0
M  V30 1867 H 181.577 -3.93931 -2.82919 0
M  V30 1868 H 177.456 -2.94496 -3.54673 0
M  V30 1869 H 181 -6.33852 -2.91337 0
M  V30 1870 H 176.897 -5.33543 -3.63321 0
M  V30 1871 H 177.665 -7.40598 -3.48507 0
M  V30 1872 N 180.328 1.1314 -1.09713 0
M  V30 1873 C 181.576 1.84119 -0.833338 0
M  V30 1874 C 181.897 1.84097 0.642904 0
M  V30 1875 O 181.167 1.29881 1.46655 0
M  V30 1876 H 179.747 0.681766 -0.305293 0
M  V30 1877 H 182.409 1.37038 -1.38588 0
M  V30 1878 H 181.505 2.88543 -1.18951 0
M  V30 1879 N 181.806 0.884767 1.30421 0
M  V30 1880 C 182.736 0.367574 2.30589 0
M  V30 1881 C 183.717 -0.549464 1.60981 0
M  V30 1882 O 184.902 -0.46336 1.88591 0
M  V30 1883 C 182.032 -0.418944 3.44764 0
M  V30 1884 C 180.986 0.406316 4.26067 0
M  V30 1885 C 180.312 -0.506793 5.32293 0
M  V30 1886 C 181.612 1.64832 4.95608 0
M  V30 1887 H 183.306 1.20462 2.74097 0
M  V30 1888 H 180.852 0.580695 1.31772 0
M  V30 1889 H 182.805 -0.791395 4.13902 0
M  V30 1890 H 181.529 -1.28964 3.0006 0
M  V30 1891 H 180.188 0.760903 3.58617 0
M  V30 1892 H 179.836 -1.37519 4.83836 0
M  V30 1893 H 179.536 0.0415828 5.87585 0
M  V30 1894 H 181.06 -0.875764 6.04287 0
M  V30 1895 H 182.474 1.34646 5.57264 0
M  V30 1896 H 180.871 2.13688 5.60765 0
M  V30 1897 H 181.941 2.39284 4.21748 0
M  V30 1898 N 183.284 -1.43765 0.645699 0
M  V30 1899 C 184.194 -2.34544 -0.0512957 0
M  V30 1900 C 185.21 -1.53455 -0.82022 0
M  V30 1901 O 186.386 -1.86133 -0.769176 0
M  V30 1902 C 183.451 -3.31636 -1.01087 0
M  V30 1903 C 182.512 -4.2863 -0.239712 0
M  V30 1904 C 181.745 -5.21084 -1.15358 0
M  V30 1905 O 181.968 -5.1779 -2.39269 0
M  V30 1906 O 180.902 -5.98593 -0.630038 0
M  V30 1907 H 184.728 -2.95624 0.695718 0
M  V30 1908 H 182.313 -1.43781 0.405882 0
M  V30 1909 H 184.195 -3.9136 -1.56254 0
M  V30 1910 H 182.87 -2.73069 -1.73824 0
M  V30 1911 H 181.777 -3.72408 0.355356 0
M  V30 1912 H 183.11 -4.90157 0.447936 0
M  V30 1913 N 184.763 -0.387143 -1.52771 0
M  V30 1914 C 185.988 0.198407 -2.06449 0
M  V30 1915 C 186.413 1.39918 -1.25716 0
M  V30 1916 O 185.771 1.79099 -0.281657 0
M  V30 1917 C 185.819 0.548893 -3.56398 0
M  V30 1918 O 184.923 1.64315 -3.78252 0
M  V30 1919 H 184.264 0.0237731 -0.663574 0
M  V30 1920 H 186.794 -0.553989 -1.96957 0
M  V30 1921 H 186.804 0.813812 -3.99801 0
M  V30 1922 H 185.479 -0.329005 -4.14597 0
M  V30 1923 H 184.056 1.37211 -3.46738 0
M  V30 1924 N 186.241 1.57166 -0.116904 0
M  V30 1925 C 187.466 1.999 0.55271 0
M  V30 1926 C 187.891 0.996039 1.59564 0
M  V30 1927 O 187.249 -0.032556 1.81271 0
M  V30 1928 C 187.297 3.4152 1.15742 0
M  V30 1929 O 186.401 3.44106 2.27299 0
M  V30 1930 H 185.742 0.649447 0.138258 0
M  V30 1931 H 188.272 2.03573 -0.204759 0
M  V30 1932 H 188.282 3.79684 1.49346 0
M  V30 1933 H 186.957 4.14034 0.393493 0
M  V30 1934 H 185.534 3.17759 1.9515 0
M  V30 1935 N 187.719 -0.156864 1.56817 0
M  V30 1936 C 189.13 -0.717916 1.72345 0
M  V30 1937 C 189.481 -1.82124 0.729747 0
M  V30 1938 O 188.606 -2.16141 -0.105781 0
M  V30 1939 C 189.201 -1.30904 3.12489 0
M  V30 1940 C 187.76 -1.81676 3.29653 0
M  V30 1941 C 186.907 -0.701349 2.68284 0
M  V30 1942 H 189.858 0.0686989 1.58551 0
M  V30 1943 H 189.879 -2.17882 3.11942 0
M  V30 1944 H 189.391 -0.505796 3.8479 0
M  V30 1945 H 187.492 -2.64598 2.62333 0
M  V30 1946 H 187.605 -1.95226 4.3752 0
M  V30 1947 H 185.969 -1.12548 2.28484 0
M  V30 1948 H 186.752 0.0902846 3.43181 0
M  V30 1949 N 189.197 -1.51736 -0.425897 0
M  V30 1950 C 190.437 -1.66636 -1.18371 0
M  V30 1951 C 190.801 -0.379854 -1.88205 0
M  V30 1952 O 192.002 -0.404758 -2.65735 0
M  V30 1953 C 190.273 -2.84382 -2.16476 0
M  V30 1954 S 191.832 -3.19673 -3.0059 0
M  V30 1955 H 188.65 -0.586957 -0.40125 0
M  V30 1956 H 191.252 -1.89679 -0.473518 0
M  V30 1957 H 189.956 -3.76281 -1.63831 0
M  V30 1958 H 189.487 -2.63562 -2.92059 0
M  V30 1959 H 191.502 -2.66994 -4.18245 0
M  V30 1960 N 190.675 0.682077 -1.42076 0
M  V30 1961 C 191.9 1.47558 -1.45744 0
M  V30 1962 C 192.325 1.87977 -0.0680981 0
M  V30 1963 O 191.683 1.55522 0.9318 0
M  V30 1964 C 191.731 2.70575 -2.38373 0
M  V30 1965 O 190.835 3.68573 -1.85007 0
M  V30 1966 H 190.176 0.443585 -0.494093 0
M  V30 1967 H 192.706 0.837238 -1.86686 0
M  V30 1968 H 192.716 3.18729 -2.54707 0
M  V30 1969 H 191.391 2.40495 -3.39315 0
M  V30 1970 H 189.968 3.2757 -1.78192 0
M  V30 1971 N 192.153 1.28127 0.917671 0
M  V30 1972 C 193.399 1.16232 1.66918 0
M  V30 1973 C 193.754 -0.28701 1.90247 0
M  V30 1974 O 193.047 -1.20586 1.48895 0
M  V30 1975 C 193.241 1.89018 3.03327 0
M  V30 1976 C 193.07 3.4088 2.9331 0
M  V30 1977 C 191.84 4.10214 2.95047 0
M  V30 1978 C 194.038 4.36689 2.71675 0
M  V30 1979 N 192.02 5.48571 2.75577 0
M  V30 1980 C 193.391 5.62382 2.6101 0
M  V30 1981 C 195.446 4.26661 2.56641 0
M  V30 1982 C 194.149 6.79189 2.36843 0
M  V30 1983 C 196.175 5.432 2.33853 0
M  V30 1984 C 195.537 6.67855 2.23939 0
M  V30 1985 H 191.636 0.48024 0.617166 0
M  V30 1986 H 194.22 1.61727 1.08409 0
M  V30 1987 H 192.391 1.45963 3.59929 0
M  V30 1988 H 194.123 1.69541 3.67475 0
M  V30 1989 H 190.878 3.61762 3.05655 0
M  V30 1990 H 191.302 6.21287 2.68945 0
M  V30 1991 H 195.944 3.30998 2.63059 0
M  V30 1992 H 193.662 7.74926 2.29164 0
M  V30 1993 H 197.248 5.37328 2.23091 0
M  V30 1994 H 196.128 7.56511 2.06546 0
M  V30 1995 N 193.631 -1.12557 1.10312 0
M  V30 1996 C 194.561 -2.20341 0.772798 0
M  V30 1997 C 195.542 -1.68198 -0.25365 0
M  V30 1998 O 196.727 -1.93831 -0.119699 0
M  V30 1999 C 193.857 -3.46709 0.202443 0
M  V30 2000 C 192.811 -4.11996 1.15943 0
M  V30 2001 C 192.137 -5.328 0.450345 0
M  V30 2002 C 193.437 -4.5828 2.50552 0
M  V30 2003 H 195.131 -2.48229 1.674 0
M  V30 2004 H 192.677 -1.19308 0.806326 0
M  V30 2005 H 194.63 -4.2138 -0.0407752 0
M  V30 2006 H 193.354 -3.18245 -0.734001 0
M  V30 2007 H 192.013 -3.39305 1.38808 0
M  V30 2008 H 191.661 -5.00602 -0.490531 0
M  V30 2009 H 191.361 -5.7743 1.08851 0
M  V30 2010 H 192.885 -6.10219 0.215642 0
M  V30 2011 H 194.299 -5.2433 2.31843 0
M  V30 2012 H 192.696 -5.13683 3.10242 0
M  V30 2013 H 193.766 -3.72329 3.10643 0
M  V30 2014 N 195.109 -0.891671 -1.2995 0
M  V30 2015 C 196.525 -0.58662 -1.48428 0
M  V30 2016 C 196.725 0.873951 -1.81561 0
M  V30 2017 O 195.781 1.65471 -1.90724 0
M  V30 2018 C 197.094 -1.50553 -2.60296 0
M  V30 2019 C 198.642 -1.50988 -2.74175 0
M  V30 2020 C 199.117 -2.41488 -3.89163 0
M  V30 2021 N 200.608 -2.39489 -3.96483 0
M  V30 2022 C 201.343 -3.06223 -4.84784 0
M  V30 2023 N 200.839 -3.82206 -5.77833 0
M  V30 2024 N 202.632 -2.95421 -4.78208 0
M  V30 2025 H 194.783 -1.83644 -1.06718 0
M  V30 2026 H 197.046 -0.786455 -0.529332 0
M  V30 2027 H 196.752 -2.54581 -2.42654 0
M  V30 2028 H 196.626 -1.22008 -3.56923 0
M  V30 2029 H 199.013 -0.47708 -2.91218 0
M  V30 2030 H 199.094 -1.83567 -1.78148 0
M  V30 2031 H 198.738 -3.44857 -3.72876 0
M  V30 2032 H 198.668 -2.06222 -4.84541 0
M  V30 2033 H 201.159 -1.84278 -3.29924 0
M  V30 2034 H 201.472 -4.302 -6.41988 0
M  V30 2035 H 199.817 -3.86313 -5.77743 0
M  V30 2036 H 203.008 -2.35581 -4.04499 0
M  V30 2037 H 203.181 -3.47704 -5.46814 0
M  V30 2038 N 196.587 1.43421 -0.653314 0
M  V30 2039 C 197.535 2.32546 0.0501531 0
M  V30 2040 C 198.529 1.48617 0.812985 0
M  V30 2041 O 199.735 1.64825 0.723375 0
M  V30 2042 H 196.11 0.751185 0.0350032 0
M  V30 2043 H 198.081 2.89602 -0.719261 0
M  V30 2044 C 196.83 3.32925 1.00279 0
M  V30 2045 H 196.153 3.97532 0.425236 0
M  V30 2046 H 197.593 3.9792 1.46409 0
M  V30 2047 C 196.052 2.63532 2.09886 0
M  V30 2048 O 196.582 2.45092 3.18265 0
M  V30 2049 N 194.788 2.22905 1.86445 0
M  V30 2050 H 194.335 2.38103 0.98309 0
M  V30 2051 H 194.293 1.76805 2.59976 0
M  V30 2052 N 198.065 0.39524 1.52563 0
M  V30 2053 C 199.015 -0.4541 2.23432 0
M  V30 2054 C 199.999 -1.02482 1.24042 0
M  V30 2055 O 201.191 -0.949938 1.49349 0
M  V30 2056 C 198.32 -1.57769 3.049 0
M  V30 2057 C 197.406 -1.01842 4.1169 0
M  V30 2058 N 197.797 -0.184613 5.05463 0
M  V30 2059 C 196.095 -1.29033 4.26927 0
M  V30 2060 C 196.796 0.125013 5.81566 0
M  V30 2061 N 195.772 -0.480498 5.41472 0
M  V30 2062 H 199.574 0.189413 2.93289 0
M  V30 2063 H 197.088 0.204877 1.61102 0
M  V30 2064 H 199.085 -2.19862 3.54212 0
M  V30 2065 H 197.745 -2.22397 2.36579 0
M  V30 2066 H 198.756 0.178602 5.17592 0
M  V30 2067 H 195.433 -1.93721 3.69836 0
M  V30 2068 H 196.823 0.800962 6.67109 0
M  V30 2069 N 199.544 -1.57102 0.125237 0
M  V30 2070 C 200.507 -2.14471 -0.80838 0
M  V30 2071 C 201.507 -1.0811 -1.19033 0
M  V30 2072 O 202.697 -1.33856 -1.11482 0
M  V30 2073 C 199.829 -2.69005 -2.09402 0
M  V30 2074 H 201.022 -2.98297 -0.309696 0
M  V30 2075 H 198.575 -1.55807 -0.124051 0
M  V30 2076 H 199.31 -1.88785 -2.63687 0
M  V30 2077 H 199.095 -3.46799 -1.82957 0
M  V30 2078 H 200.585 -3.13278 -2.76128 0
M  V30 2079 N 201.022 0.148545 -1.56898 0
M  V30 2080 C 201.972 1.1886 -1.94567 0
M  V30 2081 C 202.956 1.3863 -0.816735 0
M  V30 2082 O 204.148 1.40218 -1.08018 0
M  V30 2083 C 201.277 2.52262 -2.32849 0
M  V30 2084 C 200.363 2.36092 -3.52309 0
M  V30 2085 N 200.754 1.89674 -4.6889 0
M  V30 2086 C 199.052 2.66848 -3.57363 0
M  V30 2087 C 199.753 1.86511 -5.50989 0
M  V30 2088 N 198.729 2.29766 -4.92655 0
M  V30 2089 H 202.531 0.821793 -2.82177 0
M  V30 2090 H 200.045 0.356615 -1.58436 0
M  V30 2091 H 202.042 3.27447 -2.58039 0
M  V30 2092 H 200.702 2.89727 -1.46589 0
M  V30 2093 H 201.713 1.59663 -4.92674 0
M  V30 2094 H 198.39 3.08198 -2.81639 0
M  V30 2095 H 199.78 1.52128 -6.54452 0
M  V30 2096 N 202.5 1.5196 0.417844 0
M  V30 2097 C 203.746 1.66793 1.16411 0
M  V30 2098 C 204.101 0.388758 1.88432 0
M  V30 2099 O 203.394 -0.616409 1.81414 0
M  V30 2100 C 203.588 2.82269 2.19223 0
M  V30 2101 C 203.417 4.21293 1.57297 0
M  V30 2102 C 202.187 4.86948 1.34944 0
M  V30 2103 C 204.385 5.03704 1.03858 0
M  V30 2104 N 202.367 6.1003 0.688195 0
M  V30 2105 C 203.738 6.1795 0.503742 0
M  V30 2106 C 205.793 4.89095 0.932203 0
M  V30 2107 C 204.496 7.19188 -0.127034 0
M  V30 2108 C 206.522 5.90559 0.315293 0
M  V30 2109 C 205.884 7.0409 -0.208906 0
M  V30 2110 H 201.983 0.66407 0.412959 0
M  V30 2111 H 204.567 1.89242 0.457772 0
M  V30 2112 H 202.738 2.61451 2.87225 0
M  V30 2113 H 204.47 2.86183 2.86149 0
M  V30 2114 H 201.225 4.45156 1.61657 0
M  V30 2115 H 201.649 6.75964 0.374449 0
M  V30 2116 H 206.291 4.01557 1.32332 0
M  V30 2117 H 204.009 8.06359 -0.530231 0
M  V30 2118 H 207.595 5.81327 0.234625 0
M  V30 2119 H 206.475 7.81257 -0.67875 0
M  V30 2120 N 203.978 -0.674533 1.42435 0
M  V30 2121 C 205.226 -1.43175 1.42637 0
M  V30 2122 C 205.547 -1.94951 0.0438992 0
M  V30 2123 O 204.817 -1.7308 -0.917607 0
M  V30 2124 H 203.397 -0.531307 0.525092 0
M  V30 2125 H 206.059 -0.797006 1.77859 0
M  V30 2126 H 205.155 -2.28463 2.12629 0
M  V30 2127 N 205.456 -1.28612 -0.910864 0
M  V30 2128 C 206.872 -1.06381 -1.18976 0
M  V30 2129 C 207.072 0.191998 -2.00583 0
M  V30 2130 O 206.128 0.892869 -2.36187 0
M  V30 2131 C 207.441 -2.31295 -1.92154 0
M  V30 2132 C 208.989 -2.36503 -2.05025 0
M  V30 2133 C 209.464 -3.61191 -2.81612 0
M  V30 2134 N 210.955 -3.61847 -2.89172 0
M  V30 2135 C 211.69 -4.55004 -3.4894 0
M  V30 2136 N 211.186 -5.58482 -4.09963 0
M  V30 2137 N 212.979 -4.42594 -3.46506 0
M  V30 2138 H 205.13 -2.09221 -0.366094 0
M  V30 2139 H 207.393 -0.921003 -0.224629 0
M  V30 2140 H 207.099 -3.228 -1.39618 0
M  V30 2141 H 206.973 -2.37934 -2.9269 0
M  V30 2142 H 209.36 -1.45494 -2.5674 0
M  V30 2143 H 209.441 -2.33857 -1.03657 0
M  V30 2144 H 209.085 -4.52545 -2.30576 0
M  V30 2145 H 209.015 -3.61092 -3.83302 0
M  V30 2146 H 211.506 -2.87022 -2.45819 0
M  V30 2147 H 211.819 -6.25704 -4.53557 0
M  V30 2148 H 210.164 -5.62305 -4.08459 0
M  V30 2149 H 213.355 -3.60953 -2.98045 0
M  V30 2150 H 213.528 -5.15381 -3.92793 0
M  V30 2151 N 206.934 1.1197 -1.10907 0
M  V30 2152 C 208.35 1.35591 -0.841852 0
M  V30 2153 C 208.55 1.94233 0.536246 0
M  V30 2154 O 207.606 2.1717 1.28816 0
M  V30 2155 C 208.919 2.29284 -1.94549 0
M  V30 2156 C 210.467 2.42862 -1.97451 0
M  V30 2157 C 210.942 3.39873 -3.07002 0
M  V30 2158 N 212.433 3.47433 -3.06341 0
M  V30 2159 C 213.168 4.22421 -3.87748 0
M  V30 2160 N 212.664 5.00432 -4.79103 0
M  V30 2161 N 214.457 4.17876 -3.75946 0
M  V30 2162 H 206.608 0.722664 -1.99728 0
M  V30 2163 H 208.871 0.380635 -0.868229 0
M  V30 2164 H 208.577 1.93378 -2.93765 0
M  V30 2165 H 208.451 3.29452 -1.83688 0
M  V30 2166 H 210.838 2.78046 -0.988645 0
M  V30 2167 H 210.919 1.42566 -2.12388 0
M  V30 2168 H 210.563 3.05417 -4.05811 0
M  V30 2169 H 210.493 4.40011 -2.89306 0
M  V30 2170 H 212.984 2.91784 -2.40147 0
M  V30 2171 H 213.297 5.55002 -5.37766 0
M  V30 2172 H 211.642 4.99612 -4.83128 0
M  V30 2173 H 214.833 3.56016 -3.03924 0
M  V30 2174 H 215.006 4.76061 -4.39624 0
M  V30 2175 N 208.412 0.89855 1.29475 0
M  V30 2176 C 209.658 0.524658 1.95896 0
M  V30 2177 C 209.991 -0.926468 1.70676 0
M  V30 2178 O 209.266 -1.65665 1.01908 0
M  V30 2179 C 209.549 0.81633 3.50725 0
M  V30 2180 C 209.402 2.31907 3.85408 0
M  V30 2181 C 210.721 0.302038 4.39062 0
M  V30 2182 H 207.84 0.19209 0.711527 0
M  V30 2183 H 210.482 1.12502 1.53112 0
M  V30 2184 H 208.632 0.305369 3.87298 0
M  V30 2185 H 210.304 2.89949 3.58786 0
M  V30 2186 H 208.547 2.78027 3.32992 0
M  V30 2187 H 209.218 2.47373 4.93468 0
M  V30 2188 H 211.694 0.739551 4.09475 0
M  V30 2189 H 210.57 0.535331 5.46283 0
M  V30 2190 H 210.831 -0.797216 4.34853 0
M  V30 2191 N 209.89 -1.43072 0.660911 0
M  V30 2192 C 211.136 -2.0202 0.177708 0
M  V30 2193 C 211.469 -1.52066 -1.20787 0
M  V30 2194 O 210.744 -0.716987 -1.80802 0
M  V30 2195 C 211.027 -3.59561 0.197019 0
M  V30 2196 C 210.88 -4.19727 1.61706 0
M  V30 2197 C 212.199 -4.37664 -0.462396 0
M  V30 2198 H 209.318 -0.734034 0.0660494 0
M  V30 2199 H 211.96 -1.70272 0.843058 0
M  V30 2200 H 210.11 -3.86739 -0.369527 0
M  V30 2201 H 211.782 -4.03553 2.23479 0
M  V30 2202 H 210.025 -3.76084 2.16201 0
M  V30 2203 H 210.696 -5.28834 1.58237 0
M  V30 2204 H 213.172 -4.16095 0.0197215 0
M  V30 2205 H 212.048 -5.47305 -0.418188 0
M  V30 2206 H 212.309 -4.14493 -1.53778 0
M  V30 2207 N 211.368 -0.403325 -1.52352 0
M  V30 2208 C 212.645 0.232611 -1.94212 0
M  V30 2209 C 213.025 1.63133 -1.33981 0
M  V30 2210 O 212.373 2.22659 -0.513344 0
M  V30 2211 C 212.583 0.244811 -3.4814 0
M  V30 2212 C 213.931 0.46698 -4.22024 0
M  V30 2213 O 214.955 0.324419 -3.5472 0
M  V30 2214 O 213.814 0.74747 -5.41364 0
M  V30 2215 H 210.908 0.148223 -0.813609 0
M  V30 2216 H 213.454 -0.458848 -1.63379 0
M  V30 2217 H 212.226 -0.734378 -3.84347 0
M  V30 2218 H 211.849 0.980611 -3.85318 0
M  V30 2219 N 212.846 1.57033 -0.133567 0
M  V30 2220 C 214.093 1.95686 0.520877 0
M  V30 2221 C 214.421 1.0177 1.6575 0
M  V30 2222 O 213.676 0.0443195 1.9565 0
M  V30 2223 C 213.975 3.40674 1.08057 0
M  V30 2224 C 213.641 4.50855 0.0637899 0
M  V30 2225 C 212.303 4.80716 -0.215757 0
M  V30 2226 C 214.655 5.17398 -0.62835 0
M  V30 2227 C 211.983 5.74433 -1.19348 0
M  V30 2228 C 214.335 6.12167 -1.5948 0
M  V30 2229 C 212.999 6.40414 -1.88218 0
M  V30 2230 H 212.269 0.716067 0.190602 0
M  V30 2231 H 214.916 1.9026 -0.217556 0
M  V30 2232 H 213.221 3.42865 1.89606 0
M  V30 2233 H 214.918 3.67902 1.59529 0
M  V30 2234 H 211.508 4.27605 0.291855 0
M  V30 2235 H 215.692 4.94472 -0.425562 0
M  V30 2236 H 210.948 5.94616 -1.42272 0
M  V30 2237 H 215.122 6.6281 -2.13671 0
M  V30 2238 H 212.749 7.12838 -2.64133 0
M  V30 2239 N 214.325 -0.140222 1.56975 0
M  V30 2240 C 215.572 -0.851687 1.83719 0
M  V30 2241 C 215.9 -1.80862 0.715485 0
M  V30 2242 O 215.155 -1.93464 -0.294956 0
M  V30 2243 C 215.454 -1.65386 3.16832 0
M  V30 2244 C 215.12 -0.843112 4.42947 0
M  V30 2245 C 213.782 -0.619464 4.77196 0
M  V30 2246 C 216.134 -0.276582 5.20466 0
M  V30 2247 C 213.462 0.181312 5.8642 0
M  V30 2248 C 215.814 0.51127 6.30531 0
M  V30 2249 C 214.478 0.745432 6.63325 0
M  V30 2250 H 213.748 -0.311654 0.672274 0
M  V30 2251 H 216.395 -0.115006 1.91154 0
M  V30 2252 H 214.7 -2.46084 3.04877 0
M  V30 2253 H 216.397 -2.20793 3.34741 0
M  V30 2254 H 212.987 -1.0275 4.16101 0
M  V30 2255 H 217.171 -0.436632 4.94376 0
M  V30 2256 H 212.427 0.372165 6.10266 0
M  V30 2257 H 216.601 0.957354 6.89788 0
M  V30 2258 H 214.228 1.36778 7.47794 0
M  V30 2259 N 215.803 -1.52179 -0.40978 0
M  V30 2260 C 216.733 -1.78435 -1.5061 0
M  V30 2261 C 217.714 -0.635295 -1.57791 0
M  V30 2262 O 218.899 -0.880823 -1.73076 0
M  V30 2263 C 216.029 -1.93444 -2.88439 0
M  V30 2264 C 214.983 -3.09038 -2.96108 0
M  V30 2265 C 214.309 -3.09268 -4.36185 0
M  V30 2266 C 215.609 -4.48508 -2.67652 0
M  V30 2267 H 217.303 -2.70237 -1.28889 0
M  V30 2268 H 214.849 -1.30036 -0.618605 0
M  V30 2269 H 216.802 -2.10394 -3.65119 0
M  V30 2270 H 215.526 -0.983129 -3.11452 0
M  V30 2271 H 214.185 -2.91837 -2.21872 0
M  V30 2272 H 213.833 -2.11861 -4.56206 0
M  V30 2273 H 213.533 -3.86907 -4.42241 0
M  V30 2274 H 215.057 -3.28348 -5.14801 0
M  V30 2275 H 216.471 -4.65918 -3.34056 0
M  V30 2276 H 214.868 -5.28059 -2.85085 0
M  V30 2277 H 215.938 -4.56649 -1.63095 0
M  V30 2278 N 217.281 0.66697 -1.42791 0
M  V30 2279 C 218.53 1.42278 -1.42968 0
M  V30 2280 C 218.843 1.9553 -0.0524489 0
M  V30 2281 O 220.049 2.71414 0.068363 0
M  V30 2282 C 218.505 2.57418 -2.51524 0
M  V30 2283 C 218.113 2.10832 -3.9529 0
M  V30 2284 C 219.857 3.34878 -2.60877 0
M  V30 2285 C 217.764 3.23101 -4.95338 0
M  V30 2286 H 216.694 0.534533 -0.531781 0
M  V30 2287 H 219.345 0.721302 -1.68729 0
M  V30 2288 H 217.727 3.29971 -2.18941 0
M  V30 2289 H 218.901 1.4538 -4.37266 0
M  V30 2290 H 217.216 1.46289 -3.89857 0
M  V30 2291 H 219.813 4.18505 -3.32802 0
M  V30 2292 H 220.156 3.81993 -1.6549 0
M  V30 2293 H 220.689 2.69398 -2.92693 0
M  V30 2294 H 217.428 2.80969 -5.9223 0
M  V30 2295 H 216.948 3.87309 -4.57987 0
M  V30 2296 H 218.627 3.88447 -5.17415 0
M  V30 2297 N 218.759 1.29093 0.90403 0
M  V30 2298 C 220.005 1.16986 1.65656 0
M  V30 2299 C 220.338 -0.278925 1.92186 0
M  V30 2300 O 219.613 -1.2019 1.5292 0
M  V30 2301 C 219.896 1.97908 3.0084 0
M  V30 2302 C 219.749 3.50903 2.81403 0
M  V30 2303 C 221.068 1.80208 4.01513 0
M  V30 2304 H 218.187 0.426346 0.601164 0
M  V30 2305 H 220.829 1.58518 1.04747 0
M  V30 2306 H 218.979 1.62616 3.52829 0
M  V30 2307 H 220.651 3.96153 2.36348 0
M  V30 2308 H 218.894 3.76045 2.1627 0
M  V30 2309 H 219.565 4.02791 3.77443 0
M  V30 2310 H 222.041 2.11025 3.58619 0
M  V30 2311 H 220.917 2.39184 4.94047 0
M  V30 2312 H 221.178 0.756119 4.35586 0
M  V30 2313 N 220.237 -1.11381 1.11499 0
M  V30 2314 C 221.465 -1.86934 0.88675 0
M  V30 2315 C 221.88 -1.80195 -0.563476 0
M  V30 2316 O 221.237 -1.18367 -1.38908 0
M  V30 2317 C 221.288 -3.35722 1.34064 0
M  V30 2318 O 221.009 -3.4232 2.73401 0
M  V30 2319 C 222.51 -4.2818 1.14791 0
M  V30 2320 H 219.73 -0.591117 0.317523 0
M  V30 2321 H 222.274 -1.40865 1.48248 0
M  V30 2322 H 220.429 -3.79294 0.788355 0
M  V30 2323 H 220.843 -4.34971 2.93087 0
M  V30 2324 H 222.317 -5.30817 1.5145 0
M  V30 2325 H 222.794 -4.39113 0.0875279 0
M  V30 2326 H 223.4 -3.90402 1.68721 0
M  V30 2327 N 221.715 -0.905404 -1.28997 0
M  V30 2328 C 222.647 -0.344748 -2.26592 0
M  V30 2329 C 223.66 0.512135 -1.54535 0
M  V30 2330 O 224.849 0.328368 -1.75454 0
M  V30 2331 C 221.949 0.526587 -3.34784 0
M  V30 2332 C 221.122 -0.305871 -4.36329 0
M  V30 2333 C 220.181 0.499209 -5.23827 0
M  V30 2334 O 219.207 -0.0853004 -5.69136 0
M  V30 2335 N 220.409 1.80408 -5.51755 0
M  V30 2336 H 223.174 -1.18359 -2.75338 0
M  V30 2337 H 220.735 -0.770481 -1.42391 0
M  V30 2338 H 222.727 1.07171 -3.90252 0
M  V30 2339 H 221.297 1.26613 -2.85811 0
M  V30 2340 H 220.517 -1.0324 -3.80441 0
M  V30 2341 H 221.805 -0.875773 -5.01206 0
M  V30 2342 H 221.203 2.3016 -5.16762 0
M  V30 2343 H 219.76 2.29621 -6.10014 0
M  V30 2344 N 223.193 1.4272 -0.668489 0
M  V30 2345 C 224.123 2.335 -0.000100175 0
M  V30 2346 C 225.104 1.50328 0.795964 0
M  V30 2347 O 226.289 1.78949 0.754385 0
M  V30 2348 C 223.419 3.33874 0.956302 0
M  V30 2349 C 222.373 4.27152 0.269278 0
M  V30 2350 C 221.699 5.17684 1.33818 0
M  V30 2351 C 222.999 5.15373 -0.847805 0
M  V30 2352 H 224.693 2.89639 -0.758244 0
M  V30 2353 H 222.239 1.39269 -0.366079 0
M  V30 2354 H 224.192 3.9629 1.43292 0
M  V30 2355 H 222.916 2.76025 1.74579 0
M  V30 2356 H 221.575 3.66123 -0.187042 0
M  V30 2357 H 221.223 4.56165 2.1195 0
M  V30 2358 H 220.923 5.80918 0.883659 0
M  V30 2359 H 222.447 5.82974 1.81586 0
M  V30 2360 H 223.861 5.7151 -0.452681 0
M  V30 2361 H 222.258 5.87407 -1.22773 0
M  V30 2362 H 223.328 4.5415 -1.69929 0
M  V30 2363 N 224.671 0.411399 1.52136 0
M  V30 2364 C 225.919 -0.163322 2.01439 0
M  V30 2365 C 226.24 -1.45453 1.29879 0
M  V30 2366 O 225.51 -1.91225 0.4254 0
M  V30 2367 H 224.09 -0.0633447 0.744309 0
M  V30 2368 H 226.752 0.548161 1.87033 0
M  V30 2369 H 225.848 -0.357817 3.10042 0
M  V30 2370 N 226.149 -1.5696 0.141893 0
M  V30 2371 C 227.396 -1.9596 -0.510492 0
M  V30 2372 C 227.724 -1.02648 -1.65208 0
M  V30 2373 O 226.979 -0.0546947 -1.95624 0
M  V30 2374 C 227.278 -3.41242 -1.06249 0
M  V30 2375 C 226.944 -4.50882 -0.0398791 0
M  V30 2376 C 225.606 -4.80595 0.241247 0
M  V30 2377 C 227.958 -5.17058 0.65578 0
M  V30 2378 C 225.286 -5.73792 1.22393 0
M  V30 2379 C 227.638 -6.11313 1.62724 0
M  V30 2380 C 226.302 -6.39407 1.91612 0
M  V30 2381 H 225.572 -0.717068 -0.186802 0
M  V30 2382 H 228.219 -1.90142 0.227643 0
M  V30 2383 H 226.524 -3.43866 -1.87785 0
M  V30 2384 H 228.221 -3.68742 -1.57576 0
M  V30 2385 H 224.811 -4.27754 -0.269174 0
M  V30 2386 H 228.995 -4.94239 0.451779 0
M  V30 2387 H 224.251 -5.93853 1.45424 0
M  V30 2388 H 228.425 -6.61668 2.17183 0
M  V30 2389 H 226.052 -7.11427 2.6791 0
M  V30 2390 N 227.627 0.131896 -1.57047 0
M  V30 2391 C 228.867 0.847972 -1.85981 0
M  V30 2392 C 229.231 1.77655 -0.7282 0
M  V30 2393 O 230.432 2.53322 -0.898968 0
M  V30 2394 C 228.703 1.58919 -3.20124 0
M  V30 2395 S 230.262 2.34862 -3.70655 0
M  V30 2396 H 227.08 0.283273 -0.652133 0
M  V30 2397 H 229.682 0.107057 -1.95207 0
M  V30 2398 H 228.386 0.898771 -4.00438 0
M  V30 2399 H 227.917 2.37073 -3.13942 0
M  V30 2400 H 229.932 3.60344 -3.41126 0
M  V30 2401 N 229.106 1.52395 0.401703 0
M  V30 2402 C 230.346 1.68498 1.15705 0
M  V30 2403 C 230.71 0.409748 1.87577 0
M  V30 2404 O 231.911 0.446983 2.65058 0
M  V30 2405 C 230.182 2.87789 2.11924 0
M  V30 2406 S 231.741 3.24415 2.95466 0
M  V30 2407 H 228.559 0.593267 0.391862 0
M  V30 2408 H 231.161 1.90408 0.443282 0
M  V30 2409 H 229.865 3.7884 1.57824 0
M  V30 2410 H 229.396 2.68175 2.87829 0
M  V30 2411 H 231.411 2.73614 4.13944 0
M  V30 2412 N 230.584 -0.659388 1.43143 0
M  V30 2413 C 231.83 -1.42145 1.44647 0
M  V30 2414 C 232.163 -1.9408 0.0681907 0
M  V30 2415 O 231.438 -1.71899 -0.910007 0
M  V30 2416 C 231.721 -2.60735 2.48373 0
M  V30 2417 C 231.574 -2.14332 3.95451 0
M  V30 2418 C 232.893 -3.62951 2.48906 0
M  V30 2419 H 230.012 -0.51552 0.526696 0
M  V30 2420 H 232.654 -0.748069 1.74654 0
M  V30 2421 H 230.804 -3.18184 2.22916 0
M  V30 2422 H 232.476 -1.61932 4.31944 0
M  V30 2423 H 230.719 -1.4576 4.08578 0
M  V30 2424 H 231.39 -2.99583 4.63631 0
M  V30 2425 H 233.866 -3.1525 2.71582 0
M  V30 2426 H 232.742 -4.43487 3.23435 0
M  V30 2427 H 233.003 -4.15126 1.52061 0
M  V30 2428 N 232.062 -1.29571 -0.897171 0
M  V30 2429 C 233.292 -1.20408 -1.67886 0
M  V30 2430 C 233.7 0.237429 -1.87704 0
M  V30 2431 O 233.043 1.17048 -1.41582 0
M  V30 2432 C 233.105 -1.84887 -3.08314 0
M  V30 2433 C 232.769 -3.34189 -3.11716 0
M  V30 2434 C 233.766 -4.30374 -2.91675 0
M  V30 2435 C 231.451 -3.75431 -3.33701 0
M  V30 2436 C 233.445 -5.65776 -2.93557 0
M  V30 2437 C 231.132 -5.10955 -3.35214 0
M  V30 2438 C 232.13 -6.05938 -3.15164 0
M  V30 2439 O 231.818 -7.38987 -3.1647 0
M  V30 2440 H 231.55 -0.418289 -0.531046 0
M  V30 2441 H 234.104 -1.71514 -1.13014 0
M  V30 2442 H 232.334 -1.28295 -3.64798 0
M  V30 2443 H 234.023 -1.70011 -3.6858 0
M  V30 2444 H 234.789 -3.99844 -2.74499 0
M  V30 2445 H 230.668 -3.01953 -3.48347 0
M  V30 2446 H 234.212 -6.39889 -2.77826 0
M  V30 2447 H 230.109 -5.4113 -3.51922 0
M  V30 2448 H 230.877 -7.47823 -3.3272 0
M  V30 2449 N 233.54 1.10788 -1.12088 0
M  V30 2450 C 234.787 1.82671 -0.873931 0
M  V30 2451 C 235.115 1.85004 0.600311 0
M  V30 2452 O 234.37 1.30365 1.45957 0
M  V30 2453 C 234.669 3.29294 -1.38926 0
M  V30 2454 C 234.335 3.47113 -2.87791 0
M  V30 2455 C 232.997 3.51684 -3.28439 0
M  V30 2456 C 235.349 3.52808 -3.83635 0
M  V30 2457 C 232.677 3.59513 -4.63646 0
M  V30 2458 C 235.029 3.62169 -5.18668 0
M  V30 2459 C 233.693 3.65003 -5.58864 0
M  V30 2460 H 232.963 0.668441 -0.319794 0
M  V30 2461 H 235.61 1.30613 -1.40045 0
M  V30 2462 H 233.915 3.83894 -0.783122 0
M  V30 2463 H 235.612 3.83416 -1.17443 0
M  V30 2464 H 232.202 3.4423 -2.5535 0
M  V30 2465 H 236.386 3.4853 -3.53328 0
M  V30 2466 H 231.642 3.59987 -4.94185 0
M  V30 2467 H 235.816 3.6552 -5.92763 0
M  V30 2468 H 233.443 3.70822 -6.63623 0
M  V30 2469 N 235.018 0.912232 1.28515 0
M  V30 2470 C 236.264 0.545405 1.95328 0
M  V30 2471 C 236.597 -0.908313 1.71649 0
M  V30 2472 O 235.872 -1.64575 1.03659 0
M  V30 2473 C 236.155 0.853483 3.4984 0
M  V30 2474 C 236.008 2.35982 3.82926 0
M  V30 2475 C 237.327 0.348589 4.38717 0
M  V30 2476 H 234.446 0.199626 0.709449 0
M  V30 2477 H 237.088 1.1412 1.5191 0
M  V30 2478 H 235.238 0.34643 3.86952 0
M  V30 2479 H 236.91 2.93738 3.55691 0
M  V30 2480 H 235.153 2.81543 3.30024 0
M  V30 2481 H 235.824 2.52593 4.90816 0
M  V30 2482 H 238.3 0.78294 4.08668 0
M  V30 2483 H 237.176 0.593242 5.45685 0
M  V30 2484 H 237.437 -0.751049 4.35674 0
M  V30 2485 N 236.496 -1.42363 0.676048 0
M  V30 2486 C 237.743 -2.01522 0.19883 0
M  V30 2487 C 238.071 -1.53456 -1.19505 0
M  V30 2488 O 237.326 -0.727967 -1.81657 0
M  V30 2489 C 237.625 -3.56929 0.183431 0
M  V30 2490 C 237.291 -4.24431 1.52215 0
M  V30 2491 C 235.953 -4.42585 1.8887 0
M  V30 2492 C 238.305 -4.62459 2.40377 0
M  V30 2493 C 235.633 -4.96039 3.13309 0
M  V30 2494 C 237.985 -5.17294 3.64129 0
M  V30 2495 C 236.649 -5.33661 4.00951 0
M  V30 2496 H 235.919 -0.737419 0.0727571 0
M  V30 2497 H 238.566 -1.70531 0.871281 0
M  V30 2498 H 236.871 -3.87594 -0.572532 0
M  V30 2499 H 238.568 -4.00486 -0.203035 0
M  V30 2500 H 235.158 -4.10661 1.22701 0
M  V30 2501 H 239.342 -4.48105 2.13343 0
M  V30 2502 H 234.598 -5.06896 3.41857 0
M  V30 2503 H 238.772 -5.45704 4.32644 0
M  V30 2504 H 236.399 -5.74845 4.9745 0
M  V30 2505 N 237.974 -0.419461 -1.51915 0
M  V30 2506 C 238.904 0.391813 -2.30189 0
M  V30 2507 C 239.885 1.03699 -1.34836 0
M  V30 2508 O 241.07 1.04403 -1.63748 0
M  V30 2509 C 238.2 1.50312 -3.13087 0
M  V30 2510 C 237.154 0.9824 -4.16573 0
M  V30 2511 C 236.48 2.18809 -4.8788 0
M  V30 2512 C 237.78 0.0292356 -5.22292 0
M  V30 2513 H 239.474 -0.26135 -2.98257 0
M  V30 2514 H 237.02 -0.127134 -1.43438 0
M  V30 2515 H 238.973 2.07773 -3.66617 0
M  V30 2516 H 237.697 2.18431 -2.42807 0
M  V30 2517 H 236.356 0.430119 -3.64068 0
M  V30 2518 H 236.004 2.85507 -4.14119 0
M  V30 2519 H 235.704 1.84615 -5.57845 0
M  V30 2520 H 237.228 2.76858 -5.44226 0
M  V30 2521 H 238.642 0.512976 -5.71 0
M  V30 2522 H 237.039 -0.2244 -5.9968 0
M  V30 2523 H 238.109 -0.912931 -4.76228 0
M  V30 2524 N 239.452 1.56882 -0.150215 0
M  V30 2525 C 240.415 2.1573 0.774157 0
M  V30 2526 C 241.415 1.0999 1.17298 0
M  V30 2527 O 242.605 1.35613 1.09338 0
M  V30 2528 C 239.737 2.72302 2.05096 0
M  V30 2529 H 240.93 2.98752 0.262201 0
M  V30 2530 H 238.483 1.55985 0.099248 0
M  V30 2531 H 239.218 1.92956 2.6065 0
M  V30 2532 H 239.003 3.49665 1.77416 0
M  V30 2533 H 240.493 3.17632 2.71109 0
M  V30 2534 N 240.93 -0.123565 1.57115 0
M  V30 2535 C 242.207 -0.862196 1.75572 0
M  V30 2536 C 242.587 -1.98279 0.724475 0
M  V30 2537 O 241.935 -2.27102 -0.252407 0
M  V30 2538 C 242.145 -1.38309 3.20424 0
M  V30 2539 C 243.493 -1.83724 3.82793 0
M  V30 2540 O 244.517 -1.47999 3.23998 0
M  V30 2541 O 243.376 -2.49685 4.86127 0
M  V30 2542 H 240.47 -0.409113 0.718718 0
M  V30 2543 H 243.016 -0.107661 1.69358 0
M  V30 2544 H 241.788 -0.578889 3.86994 0
M  V30 2545 H 241.411 -2.20046 3.31158 0
M  V30 2546 N 242.408 -1.52605 -0.393616 0
M  V30 2547 C 243.356 -1.77688 -1.50099 0
M  V30 2548 C 244.35 -0.644615 -1.56656 0
M  V30 2549 O 245.556 -0.826997 -1.59877 0
M  V30 2550 H 241.931 -0.562159 -0.499481 0
M  V30 2551 H 243.902 -2.7043 -1.26135 0
M  V30 2552 C 242.651 -1.95858 -2.87289 0
M  V30 2553 H 241.974 -2.8241 -2.82992 0
M  V30 2554 H 243.414 -2.174 -3.64024 0
M  V30 2555 C 241.873 -0.729848 -3.28899 0
M  V30 2556 O 242.403 0.0949217 -4.01588 0
M  V30 2557 N 240.609 -0.561283 -2.85128 0
M  V30 2558 H 240.156 -1.23357 -2.26143 0
M  V30 2559 H 240.114 0.2595 -3.13327 0
M  V30 2560 N 243.887 0.651787 -1.4349 0
M  V30 2561 C 245.134 1.41167 -1.45183 0
M  V30 2562 C 245.462 1.94349 -0.0766601 0
M  V30 2563 O 244.717 1.72804 0.918555 0
M  V30 2564 C 245.016 2.60914 -2.44251 0
M  V30 2565 C 244.682 2.26142 -3.9009 0
M  V30 2566 C 243.344 2.16371 -4.2981 0
M  V30 2567 C 245.696 1.98334 -4.81989 0
M  V30 2568 C 243.024 1.7695 -5.5938 0
M  V30 2569 C 245.376 1.6041 -6.11924 0
M  V30 2570 C 244.04 1.49166 -6.5062 0
M  V30 2571 H 243.31 0.516566 -0.531263 0
M  V30 2572 H 245.957 0.741099 -1.76579 0
M  V30 2573 H 244.262 3.3311 -2.06265 0
M  V30 2574 H 245.959 3.19127 -2.42815 0
M  V30 2575 H 242.549 2.34658 -3.58655 0
M  V30 2576 H 246.733 2.04803 -4.52072 0
M  V30 2577 H 241.989 1.66831 -5.88198 0
M  V30 2578 H 246.163 1.37925 -6.82605 0
M  V30 2579 H 243.79 1.1839 -7.50925 0
M  V30 2580 N 245.365 1.30045 0.890287 0
M  V30 2581 C 246.312 1.15976 1.99545 0
M  V30 2582 C 247.282 0.0506202 1.66023 0
M  V30 2583 O 248.467 0.219847 1.89529 0
M  V30 2584 C 245.607 0.852054 3.34416 0
M  V30 2585 C 244.72 2.04255 3.80662 0
M  V30 2586 C 243.855 1.6734 5.04154 0
M  V30 2587 C 242.894 2.82916 5.42794 0
M  V30 2588 N 242.031 2.46333 6.57468 0
M  V30 2589 H 246.871 2.10524 2.10911 0
M  V30 2590 H 244.408 1.04749 1.03276 0
M  V30 2591 H 246.366 0.654296 4.12037 0
M  V30 2592 H 244.996 -0.0565502 3.2275 0
M  V30 2593 H 244.048 2.35172 2.98995 0
M  V30 2594 H 245.36 2.90826 4.05242 0
M  V30 2595 H 244.514 1.43908 5.89386 0
M  V30 2596 H 243.253 0.779308 4.81433 0
M  V30 2597 H 242.258 3.0702 4.56091 0
M  V30 2598 H 243.483 3.73004 5.6749 0
M  V30 2599 H 241.429 1.59423 6.36334 0
M  V30 2600 H 241.346 3.26436 6.81891 0
M  V30 2601 H 242.614 2.26244 7.45945 0
M  V30 2602 N 246.843 -1.10192 1.12674 0
M  V30 2603 C 247.775 -2.16418 0.754701 0
M  V30 2604 C 248.788 -1.61309 -0.21986 0
M  V30 2605 O 249.977 -1.785 -0.000826841 0
M  V30 2606 C 247.077 -3.38762 0.096698 0
M  V30 2607 C 246.25 -4.23307 1.10136 0
M  V30 2608 C 245.309 -5.24092 0.470513 0
M  V30 2609 O 244.335 -5.57906 1.12824 0
M  V30 2610 N 245.537 -5.75491 -0.760948 0
M  V30 2611 H 248.302 -2.48943 1.66875 0
M  V30 2612 H 245.863 -1.25834 1.01869 0
M  V30 2613 H 247.855 -4.03291 -0.337384 0
M  V30 2614 H 246.425 -3.04192 -0.720153 0
M  V30 2615 H 245.645 -3.55036 1.71299 0
M  V30 2616 H 246.933 -4.76624 1.78064 0
M  V30 2617 H 246.331 -5.50222 -1.31424 0
M  V30 2618 H 244.888 -6.41792 -1.13781 0
M  V30 2619 N 248.321 -0.919034 -1.28029 0
M  V30 2620 C 249.567 -0.555757 -1.95036 0
M  V30 2621 C 249.9 0.899198 -1.72128 0
M  V30 2622 O 249.175 1.64023 -1.04531 0
M  V30 2623 C 249.458 -0.872024 -3.49382 0
M  V30 2624 C 249.311 -2.3801 -3.81669 0
M  V30 2625 C 250.63 -0.37185 -4.38526 0
M  V30 2626 H 247.749 -0.203386 -0.708381 0
M  V30 2627 H 250.391 -1.14924 -1.51303 0
M  V30 2628 H 248.541 -0.366946 -3.86763 0
M  V30 2629 H 250.213 -2.9562 -3.54128 0
M  V30 2630 H 248.456 -2.83289 -3.28526 0
M  V30 2631 H 249.127 -2.55192 -4.8947 0
M  V30 2632 H 251.603 -0.804602 -4.08247 0
M  V30 2633 H 250.479 -0.622173 -5.45362 0
M  V30 2634 H 250.74 0.727934 -4.36066 0
M  V30 2635 N 249.799 1.42003 -0.683588 0
M  V30 2636 C 251.048 2.00638 -0.206681 0
M  V30 2637 C 251.361 1.5472 1.19671 0
M  V30 2638 O 252.567 2.05833 1.77045 0
M  V30 2639 C 251.023 3.58487 -0.318632 0
M  V30 2640 C 250.631 4.1339 -1.72663 0
M  V30 2641 C 252.375 4.24384 0.0991141 0
M  V30 2642 C 250.282 5.63633 -1.79087 0
M  V30 2643 H 249.212 0.750408 -0.0735107 0
M  V30 2644 H 251.863 1.62624 -0.850048 0
M  V30 2645 H 250.245 3.94047 0.392781 0
M  V30 2646 H 251.419 3.89273 -2.46583 0
M  V30 2647 H 249.734 3.59976 -2.09299 0
M  V30 2648 H 252.331 5.34652 0.0713833 0
M  V30 2649 H 252.674 4.00505 1.13586 0
M  V30 2650 H 253.207 3.93816 -0.561599 0
M  V30 2651 H 249.946 5.92323 -2.80774 0
M  V30 2652 H 249.466 5.89714 -1.09535 0
M  V30 2653 H 251.145 6.28201 -1.5483 0
M  V30 2654 N 251.277 0.427512 1.51691 0
M  V30 2655 C 252.187 -0.39527 2.31246 0
M  V30 2656 C 253.203 -1.03674 1.39742 0
M  V30 2657 O 254.379 -1.03425 1.72816 0
M  V30 2658 C 251.444 -1.48706 3.13189 0
M  V30 2659 C 250.505 -0.866743 4.20459 0
M  V30 2660 C 249.738 -1.90651 4.98486 0
M  V30 2661 O 249.961 -3.12733 4.77026 0
M  V30 2662 O 248.895 -1.5025 5.82845 0
M  V30 2663 H 252.721 0.253918 3.02637 0
M  V30 2664 H 250.306 0.190274 1.48183 0
M  V30 2665 H 252.188 -2.12047 3.64162 0
M  V30 2666 H 250.863 -2.12051 2.44573 0
M  V30 2667 H 249.77 -0.195544 3.73589 0
M  V30 2668 H 251.103 -0.276934 4.9142 0
M  V30 2669 N 252.755 -1.56801 0.158532 0
M  V30 2670 C 253.718 -2.16138 -0.762705 0
M  V30 2671 C 254.718 -1.1061 -1.16713 0
M  V30 2672 O 255.908 -1.36191 -1.08617 0
M  V30 2673 C 253.04 -2.73386 -2.03649 0
M  V30 2674 H 254.233 -2.98886 -0.246354 0
M  V30 2675 H 251.786 -1.56035 -0.0909744 0
M  V30 2676 H 252.521 -1.94335 -2.59623 0
M  V30 2677 H 252.306 -3.50601 -1.75559 0
M  V30 2678 H 253.796 -3.19065 -2.6942 0
M  V30 2679 N 254.233 0.115231 -1.57178 0
M  V30 2680 C 255.196 1.12526 -1.99676 0
M  V30 2681 C 256.196 1.34095 -0.88742 0
M  V30 2682 O 257.386 1.30548 -1.15337 0
M  V30 2683 C 254.518 2.4789 -2.34015 0
M  V30 2684 H 255.711 0.759912 -2.90113 0
M  V30 2685 H 253.264 0.359648 -1.52106 0
M  V30 2686 H 253.999 2.89339 -1.4647 0
M  V30 2687 H 253.784 2.33588 -3.14927 0
M  V30 2688 H 255.274 3.20575 -2.67622 0
M  V30 2689 N 255.711 1.52812 0.385517 0
M  V30 2690 C 256.659 1.78482 1.49155 0
M  V30 2691 C 257.653 0.652914 1.56312 0
M  V30 2692 O 258.859 0.835464 1.59436 0
M  V30 2693 H 255.234 0.5648 0.496493 0
M  V30 2694 H 257.205 2.71095 1.24699 0
M  V30 2695 C 255.954 1.97378 2.86247 0
M  V30 2696 H 255.277 2.83907 2.81491 0
M  V30 2697 H 256.717 2.19327 3.62866 0
M  V30 2698 C 255.176 0.74728 3.28508 0
M  V30 2699 O 255.706 -0.0736232 4.01633 0
M  V30 2700 N 253.912 0.576396 2.84826 0
M  V30 2701 H 253.459 1.24555 2.25486 0
M  V30 2702 H 253.417 -0.24288 3.1346 0
M  V30 2703 N 257.189 -0.644168 1.43834 0
M  V30 2704 C 258.437 -1.40117 1.45642 0
M  V30 2705 C 258.758 -1.94814 0.0852413 0
M  V30 2706 O 258.028 -1.74988 -0.880688 0
M  V30 2707 H 256.608 -0.52005 0.536243 0
M  V30 2708 H 259.27 -0.7591 1.7951 0
M  V30 2709 H 258.366 -2.23902 2.17427 0
M  V30 2710 N 258.668 -1.30515 -0.883378 0
M  V30 2711 C 259.896 -1.22359 -1.66841 0
M  V30 2712 C 260.311 0.213296 -1.87591 0
M  V30 2713 O 259.668 1.14075 -1.42454 0
M  V30 2714 C 259.719 -1.95011 -3.04389 0
M  V30 2715 O 259.44 -3.3309 -2.84575 0
M  V30 2716 C 260.941 -1.93532 -3.98824 0
M  V30 2717 H 258.161 -0.423371 -0.520575 0
M  V30 2718 H 260.705 -1.72167 -1.10357 0
M  V30 2719 H 258.86 -1.48997 -3.57601 0
M  V30 2720 H 259.274 -3.69907 -3.71846 0
M  V30 2721 H 260.748 -2.48902 -4.92699 0
M  V30 2722 H 261.225 -0.914627 -4.29571 0
M  V30 2723 H 261.831 -2.39364 -3.51547 0
M  V30 2724 N 260.146 1.09593 -1.13257 0
M  V30 2725 C 261.374 1.855 -0.916378 0
M  V30 2726 C 261.789 1.81069 0.534738 0
M  V30 2727 O 261.146 1.20562 1.37007 0
M  V30 2728 C 261.197 3.33546 -1.39388 0
M  V30 2729 O 260.918 3.37927 -2.78813 0
M  V30 2730 C 262.419 4.26299 -1.21588 0
M  V30 2731 H 259.639 0.585991 -0.326887 0
M  V30 2732 H 262.183 1.38488 -1.5047 0
M  V30 2733 H 260.338 3.77992 -0.848597 0
M  V30 2734 H 260.752 4.30254 -2.9997 0
M  V30 2735 H 262.226 5.28341 -1.59876 0
M  V30 2736 H 262.703 4.38918 -0.157376 0
M  V30 2737 H 263.309 3.87668 -1.7491 0
M  V30 2738 N 261.624 0.925811 1.2754 0
M  V30 2739 C 262.572 0.413897 2.28888 0
M  V30 2740 C 263.566 -0.500779 1.61829 0
M  V30 2741 O 264.772 -0.38069 1.75928 0
M  V30 2742 H 261.147 0.115274 0.743112 0
M  V30 2743 H 263.118 1.28151 2.69481 0
M  V30 2744 C 261.867 -0.319792 3.46226 0
M  V30 2745 H 261.19 0.374846 3.98039 0
M  V30 2746 H 262.63 -0.642435 4.19105 0
M  V30 2747 C 261.089 -1.53209 3.00048 0
M  V30 2748 O 261.619 -2.6309 3.03557 0
M  V30 2749 N 259.825 -1.38326 2.55566 0
M  V30 2750 H 259.372 -0.489292 2.5291 0
M  V30 2751 H 259.33 -2.19564 2.25031 0
M  V30 2752 N 263.102 -1.41638 0.69111 0
M  V30 2753 C 264.05 -2.32597 0.0115199 0
M  V30 2754 C 265.044 -1.5072 -0.773296 0
M  V30 2755 O 266.25 -1.66685 -0.67942 0
M  V30 2756 H 262.625 -0.751849 -0.0150746 0
M  V30 2757 H 264.596 -2.87593 0.795791 0
M  V30 2758 C 263.345 -3.35467 -0.914172 0
M  V30 2759 H 262.668 -3.9852 -0.319687 0
M  V30 2760 H 264.108 -4.01662 -1.35808 0
M  V30 2761 C 262.567 -2.69004 -2.02826 0
M  V30 2762 O 263.097 -2.53444 -3.11655 0
M  V30 2763 N 261.303 -2.2777 -1.80469 0
M  V30 2764 H 260.85 -2.40626 -0.919615 0
M  V30 2765 H 260.808 -1.83635 -2.55197 0
M  V30 2766 N 264.58 -0.43555 -1.51462 0
M  V30 2767 C 265.82 0.130708 -2.03982 0
M  V30 2768 C 266.184 1.40117 -1.31268 0
M  V30 2769 O 267.385 2.04755 -1.74152 0
M  V30 2770 C 265.656 0.346102 -3.5572 0
M  V30 2771 S 267.215 0.876022 -4.29967 0
M  V30 2772 H 264.033 0.0326881 -0.710248 0
M  V30 2773 H 266.635 -0.594544 -1.8624 0
M  V30 2774 H 265.339 -0.584911 -4.0621 0
M  V30 2775 H 264.87 1.09849 -3.77752 0
M  V30 2776 H 266.885 2.15379 -4.47019 0
M  V30 2777 N 266.058 1.56714 -0.166846 0
M  V30 2778 C 267.008 2.14338 0.777382 0
M  V30 2779 C 267.992 1.07642 1.19591 0
M  V30 2780 O 269.184 1.33775 1.15902 0
M  V30 2781 C 266.313 2.78417 2.00846 0
M  V30 2782 C 265.399 3.92264 1.61212 0
M  V30 2783 N 265.79 4.97268 0.925104 0
M  V30 2784 C 264.088 4.03342 1.90346 0
M  V30 2785 C 264.789 5.77093 0.730627 0
M  V30 2786 N 263.765 5.2854 1.27067 0
M  V30 2787 H 267.567 2.9289 0.243466 0
M  V30 2788 H 265.081 1.62364 0.0339954 0
M  V30 2789 H 267.078 3.18073 2.69509 0
M  V30 2790 H 265.738 2.01344 2.54736 0
M  V30 2791 H 266.749 5.14601 0.583646 0
M  V30 2792 H 263.426 3.37368 2.45946 0
M  V30 2793 H 264.816 6.71638 0.187668 0
M  V30 2794 N 267.536 -0.106894 1.57237 0
M  V30 2795 C 268.484 -1.14944 2.02215 0
M  V30 2796 C 269.478 -1.42167 0.92114 0
M  V30 2797 O 270.684 -1.41987 1.10634 0
M  V30 2798 H 267.059 -0.387841 0.64427 0
M  V30 2799 H 269.03 -0.743683 2.88984 0
M  V30 2800 C 267.779 -2.4647 2.4525 0
M  V30 2801 H 267.102 -2.26363 3.29545 0
M  V30 2802 H 268.542 -3.17948 2.80508 0
M  V30 2803 C 267.001 -3.09921 1.321 0
M  V30 2804 O 267.531 -3.9651 0.643622 0
M  V30 2805 N 265.737 -2.69986 1.07497 0
M  V30 2806 H 265.284 -1.99667 1.62761 0
M  V30 2807 H 265.242 -3.12769 0.319876 0
M  V30 2808 N 269.014 -1.53014 -0.377408 0
M  V30 2809 C 269.962 -1.7927 -1.48206 0
M  V30 2810 C 270.956 -0.661195 -1.55963 0
M  V30 2811 O 272.162 -0.843908 -1.58991 0
M  V30 2812 H 268.537 -0.567425 -0.493491 0
M  V30 2813 H 270.508 -2.71753 -1.2326 0
M  V30 2814 C 269.257 -1.98894 -2.85196 0
M  V30 2815 H 268.58 -2.85395 -2.79981 0
M  V30 2816 H 270.02 -2.21249 -3.61698 0
M  V30 2817 C 268.479 -0.764691 -3.28107 0
M  V30 2818 O 269.009 0.0523226 -4.01666 0
M  V30 2819 N 267.215 -0.591493 -2.84517 0
M  V30 2820 H 266.762 -1.25749 -2.24822 0
M  V30 2821 H 266.72 0.226253 -3.13585 0
M  V30 2822 N 270.492 0.636531 -1.44174 0
M  V30 2823 C 271.402 1.77754 -1.53103 0
M  V30 2824 C 272.418 1.68928 -0.417034 0
M  V30 2825 O 273.594 1.89801 -0.6736 0
M  V30 2826 C 270.659 3.14115 -1.46741 0
M  V30 2827 C 269.72 3.34612 -2.68948 0
M  V30 2828 C 268.953 4.64467 -2.6288 0
M  V30 2829 O 269.176 5.44919 -1.68581 0
M  V30 2830 O 268.11 4.87049 -3.53648 0
M  V30 2831 H 271.936 1.73174 -2.49489 0
M  V30 2832 H 269.521 0.79709 -1.2636 0
M  V30 2833 H 271.403 3.95412 -1.45696 0
M  V30 2834 H 270.078 3.19249 -0.534975 0
M  V30 2835 H 268.985 2.53014 -2.75562 0
M  V30 2836 H 270.318 3.34336 -3.61221 0
M  V30 2837 N 271.97 1.30982 0.876444 0
M  V30 2838 C 273.198 1.23242 1.6619 0
M  V30 2839 C 273.613 -0.203345 1.87702 0
M  V30 2840 O 272.97 -1.13317 1.43057 0
M  V30 2841 C 273.021 1.96623 3.03351 0
M  V30 2842 O 272.742 3.34594 2.82804 0
M  V30 2843 C 274.243 1.95644 3.97792 0
M  V30 2844 H 271.463 0.426126 0.518322 0
M  V30 2845 H 274.007 1.7275 1.09442 0
M  V30 2846 H 272.162 1.50892 3.56806 0
M  V30 2847 H 272.576 3.71873 3.69879 0
M  V30 2848 H 274.05 2.51511 4.91372 0
M  V30 2849 H 274.527 0.937395 4.2908 0
M  V30 2850 H 275.133 2.41225 3.50272 0
M  V30 2851 N 273.449 -1.08991 1.13837 0
M  V30 2852 C 274.695 -1.81526 0.90422 0
M  V30 2853 C 275.028 -1.85706 -0.568066 0
M  V30 2854 O 274.303 -1.32855 -1.42056 0
M  V30 2855 C 274.586 -3.27447 1.49835 0
M  V30 2856 C 274.439 -3.31512 3.04006 0
M  V30 2857 C 275.758 -4.24256 1.17025 0
M  V30 2858 H 272.877 -0.659029 0.329923 0
M  V30 2859 H 275.519 -1.27644 1.40737 0
M  V30 2860 H 273.669 -3.73462 1.07044 0
M  V30 2861 H 275.341 -2.93867 3.55584 0
M  V30 2862 H 273.584 -2.70963 3.38765 0
M  V30 2863 H 274.255 -4.34329 3.40679 0
M  V30 2864 H 276.731 -3.86549 1.54009 0
M  V30 2865 H 275.607 -5.24684 1.61237 0
M  V30 2866 H 275.868 -4.42019 0.0846274 0
M  V30 2867 N 274.927 -0.932562 -1.27047 0
M  V30 2868 C 276.176 -0.571351 -1.93439 0
M  V30 2869 C 276.489 0.892467 -1.74053 0
M  V30 2870 O 277.695 1.36267 -2.34826 0
M  V30 2871 C 276.151 -0.97106 -3.46552 0
M  V30 2872 C 275.759 -2.4559 -3.74686 0
M  V30 2873 C 277.503 -0.681333 -4.18997 0
M  V30 2874 C 275.41 -2.79475 -5.21198 0
M  V30 2875 H 274.34 -0.209966 -0.724176 0
M  V30 2876 H 276.991 -1.13403 -1.44263 0
M  V30 2877 H 275.373 -0.336983 -3.94564 0
M  V30 2878 H 276.547 -3.13829 -3.37414 0
M  V30 2879 H 274.862 -2.71802 -3.15456 0
M  V30 2880 H 277.459 -0.910939 -5.26883 0
M  V30 2881 H 277.802 0.381628 -4.14547 0
M  V30 2882 H 278.335 -1.27473 -3.76823 0
M  V30 2883 H 275.074 -3.847 -5.30741 0
M  V30 2884 H 274.594 -2.1589 -5.596 0
M  V30 2885 H 276.273 -2.67478 -5.89122 0
M  V30 2886 N 276.405 1.4127 -0.698611 0
M  V30 2887 C 277.335 2.33447 -0.049629 0
M  V30 2888 C 278.316 1.51982 0.763898 0
M  V30 2889 O 279.501 1.80509 0.716257 0
M  V30 2890 C 276.631 3.35828 0.885267 0
M  V30 2891 C 275.585 4.27627 0.178613 0
M  V30 2892 C 274.911 5.20406 1.22807 0
M  V30 2893 C 276.211 5.13459 -0.956933 0
M  V30 2894 H 277.905 2.87966 -0.81951 0
M  V30 2895 H 275.451 1.38461 -0.395538 0
M  V30 2896 H 277.404 3.9924 1.34854 0
M  V30 2897 H 276.128 2.79666 1.68685 0
M  V30 2898 H 274.787 3.65643 -0.26466 0
M  V30 2899 H 274.435 4.60558 2.02226 0
M  V30 2900 H 274.135 5.82661 0.760239 0
M  V30 2901 H 275.659 5.86695 1.69179 0
M  V30 2902 H 277.073 5.70421 -0.573805 0
M  V30 2903 H 275.47 5.8467 -1.35205 0
M  V30 2904 H 276.54 4.50443 -1.79524 0
M  V30 2905 N 277.883 0.443576 1.51229 0
M  V30 2906 C 279.111 -0.11929 2.06556 0
M  V30 2907 C 279.526 -1.35921 1.31038 0
M  V30 2908 O 278.883 -1.78675 0.371704 0
M  V30 2909 C 278.934 -0.435228 3.5887 0
M  V30 2910 O 278.655 0.755486 4.31537 0
M  V30 2911 C 280.156 -1.04808 4.30732 0
M  V30 2912 H 277.376 -0.0051584 0.67098 0
M  V30 2913 H 279.92 0.624453 1.94733 0
M  V30 2914 H 278.075 -1.12887 3.70588 0
M  V30 2915 H 278.489 0.483491 5.22267 0
M  V30 2916 H 279.963 -1.2191 5.3837 0
M  V30 2917 H 280.44 -2.03081 3.89429 0
M  V30 2918 H 281.046 -0.393637 4.23474 0
M  V30 2919 N 279.361 -1.56624 0.175154 0
M  V30 2920 C 280.772 -1.83561 -0.340916 0
M  V30 2921 C 281.123 -1.09511 -1.62794 0
M  V30 2922 O 280.248 -0.349389 -2.13561 0
M  V30 2923 C 280.843 -3.32979 -0.625313 0
M  V30 2924 C 279.402 -3.60399 -1.08581 0
M  V30 2925 C 278.549 -2.77024 -0.123722 0
M  V30 2926 H 281.5 -1.53593 0.399344 0
M  V30 2927 H 281.521 -3.50666 -1.47694 0
M  V30 2928 H 281.033 -3.86847 0.311575 0
M  V30 2929 H 279.134 -3.11945 -2.03767 0
M  V30 2930 H 279.247 -4.68711 -0.992317 0
M  V30 2931 H 277.611 -2.46993 -0.621821 0
M  V30 2932 H 278.394 -3.33674 0.807256 0
M  V30 2933 N 280.839 0.0985539 -1.57292 0
M  V30 2934 C 282.067 0.816318 -1.90115 0
M  V30 2935 C 282.482 1.72451 -0.768509 0
M  V30 2936 O 281.839 1.80643 0.259687 0
M  V30 2937 C 281.89 1.63259 -3.22535 0
M  V30 2938 O 281.611 0.760934 -4.31441 0
M  V30 2939 C 283.112 2.45372 -3.69199 0
M  V30 2940 H 280.332 0.233595 -0.629027 0
M  V30 2941 H 282.876 0.0768229 -2.04356 0
M  V30 2942 H 281.031 2.32463 -3.09903 0
M  V30 2943 H 281.445 1.32595 -5.07463 0
M  V30 2944 H 282.919 2.98144 -4.64558 0
M  V30 2945 H 283.396 3.23677 -2.96867 0
M  V30 2946 H 284.002 1.81373 -3.84687 0
M  V30 2947 N 282.317 1.53212 0.369288 0
M  V30 2948 C 283.25 1.74166 1.4745 0
M  V30 2949 C 284.228 0.589923 1.51521 0
M  V30 2950 O 285.412 0.822078 1.69629 0
M  V30 2951 C 282.539 1.81711 2.8583 0
M  V30 2952 C 281.585 3.03649 2.99499 0
M  V30 2953 S 282.418 4.63242 2.6864 0
M  V30 2954 C 283.574 4.7363 4.09177 0
M  V30 2955 H 283.807 2.67636 1.29454 0
M  V30 2956 H 281.34 1.43754 0.563396 0
M  V30 2957 H 283.298 1.86743 3.65564 0
M  V30 2958 H 281.959 0.89299 3.01139 0
M  V30 2959 H 281.152 3.05526 4.00836 0
M  V30 2960 H 280.754 2.9671 2.27683 0
M  V30 2961 H 283.046 4.53456 5.03372 0
M  V30 2962 H 283.989 5.75682 4.12306 0
M  V30 2963 H 284.397 4.02295 3.96004 0
M  V30 2964 N 283.795 -0.628877 1.44509 0
M  V30 2965 C 285.072 -1.38733 1.37886 0
M  V30 2966 C 285.452 -2.11065 0.0387008 0
M  V30 2967 O 284.8 -2.06476 -0.97878 0
M  V30 2968 C 285.01 -2.35188 2.57852 0
M  V30 2969 C 286.358 -2.9845 3.02014 0
M  V30 2970 O 287.382 -2.45513 2.58073 0
M  V30 2971 O 286.241 -3.94487 3.78209 0
M  V30 2972 H 283.335 -0.621015 0.54614 0
M  V30 2973 H 285.881 -0.653744 1.56602 0
M  V30 2974 H 284.653 -1.80855 3.46998 0
M  V30 2975 H 284.276 -3.1596 2.4136 0
M  V30 2976 N 285.273 -1.31445 -0.869486 0
M  V30 2977 C 286.498 -1.24256 -1.66058 0
M  V30 2978 C 286.923 0.188928 -1.87149 0
M  V30 2979 O 286.281 1.13522 -1.4136 0
M  V30 2980 C 286.329 -1.9924 -3.00559 0
M  V30 2981 O 285.433 -1.33007 -3.90362 0
M  V30 2982 H 284.774 -0.428973 -0.506831 0
M  V30 2983 H 287.304 -1.73521 -1.08404 0
M  V30 2984 H 287.314 -2.08854 -3.50491 0
M  V30 2985 H 285.989 -3.03342 -2.84528 0
M  V30 2986 H 284.566 -1.31848 -3.48813 0
M  V30 2987 N 286.751 1.08385 -1.14413 0
M  V30 2988 C 288.167 1.32844 -0.884563 0
M  V30 2989 C 288.367 1.95841 0.474181 0
M  V30 2990 O 287.423 2.21158 1.21842 0
M  V30 2991 C 288.736 2.22978 -2.01745 0
M  V30 2992 C 290.284 2.36458 -2.05077 0
M  V30 2993 C 290.759 3.29934 -3.1766 0
M  V30 2994 N 292.25 3.37511 -3.17239 0
M  V30 2995 C 292.985 4.09871 -4.0099 0
M  V30 2996 N 292.481 4.84936 -4.94781 0
M  V30 2997 N 294.274 4.05704 -3.89051 0
M  V30 2998 H 286.425 0.658756 -2.01926 0
M  V30 2999 H 288.688 0.352821 -0.879899 0
M  V30 3000 H 288.394 1.83934 -2.99769 0
M  V30 3001 H 288.268 3.23441 -1.94077 0
M  V30 3002 H 290.655 2.7476 -1.0766 0
M  V30 3003 H 290.736 1.35736 -2.16816 0
M  V30 3004 H 290.38 2.92352 -4.15322 0
M  V30 3005 H 290.31 4.30584 -3.03158 0
M  V30 3006 H 292.801 2.83996 -2.49308 0
M  V30 3007 H 293.114 5.37612 -5.55151 0
M  V30 3008 H 291.459 4.83988 -4.98779 0
M  V30 3009 H 294.65 3.46167 -3.15097 0
M  V30 3010 H 294.823 4.61834 -4.54547 0
M  V30 3011 N 288.23 0.939286 1.26551 0
M  V30 3012 C 289.16 0.465044 2.28822 0
M  V30 3013 C 290.141 -0.480692 1.63167 0
M  V30 3014 O 291.326 -0.382955 1.90387 0
M  V30 3015 C 288.456 -0.27234 3.46231 0
M  V30 3016 C 287.41 0.58666 4.2396 0
M  V30 3017 C 286.736 -0.280573 5.33963 0
M  V30 3018 C 288.036 1.85704 4.88171 0
M  V30 3019 H 289.73 1.31979 2.68741 0
M  V30 3020 H 287.276 0.636061 1.29191 0
M  V30 3021 H 289.229 -0.615133 4.16886 0
M  V30 3022 H 287.953 -1.16121 3.0526 0
M  V30 3023 H 286.612 0.91232 3.55067 0
M  V30 3024 H 286.26 -1.16874 4.89234 0
M  V30 3025 H 285.96 0.29076 5.8688 0
M  V30 3026 H 287.484 -0.618678 6.07458 0
M  V30 3027 H 288.898 1.58161 5.51052 0
M  V30 3028 H 287.295 2.37279 5.51197 0
M  V30 3029 H 288.365 2.56957 4.11219 0
M  V30 3030 N 289.708 -1.40897 0.706093 0
M  V30 3031 C 290.938 -2.05075 0.250523 0
M  V30 3032 C 291.346 -1.53275 -1.10921 0
M  V30 3033 O 290.689 -0.680281 -1.7064 0
M  V30 3034 C 290.751 -3.59219 0.142178 0
M  V30 3035 C 290.415 -4.33864 1.43566 0
M  V30 3036 C 291.412 -4.62448 2.37566 0
M  V30 3037 C 289.097 -4.72946 1.69195 0
M  V30 3038 C 291.091 -5.29088 3.5545 0
M  V30 3039 C 288.778 -5.3932 2.87362 0
M  V30 3040 C 289.776 -5.6732 3.80312 0
M  V30 3041 O 289.464 -6.32325 4.96408 0
M  V30 3042 H 289.196 -0.666645 0.112074 0
M  V30 3043 H 291.75 -1.81467 0.962239 0
M  V30 3044 H 289.98 -3.81609 -0.6254 0
M  V30 3045 H 291.669 -4.0495 -0.277584 0
M  V30 3046 H 292.435 -4.32727 2.19027 0
M  V30 3047 H 288.314 -4.50527 0.977042 0
M  V30 3048 H 291.858 -5.50859 4.28018 0
M  V30 3049 H 287.755 -5.68461 3.05814 0
M  V30 3050 H 288.523 -6.50821 4.9636 0
M  V30 3051 N 291.186 -0.45159 -1.50991 0
M  V30 3052 C 292.119 0.398179 -2.24699 0
M  V30 3053 C 293.097 1.01276 -1.27208 0
M  V30 3054 O 294.281 1.05247 -1.56382 0
M  V30 3055 C 291.408 1.55618 -3.00833 0
M  V30 3056 C 290.454 1.0609 -4.13095 0
M  V30 3057 S 291.287 -0.00865136 -5.35499 0
M  V30 3058 C 292.443 1.15369 -6.15175 0
M  V30 3059 H 292.676 -0.227555 -2.96428 0
M  V30 3060 H 290.209 -0.236251 -1.52582 0
M  V30 3061 H 292.167 2.21997 -3.45293 0
M  V30 3062 H 290.828 2.15337 -2.28667 0
M  V30 3063 H 290.021 1.92726 -4.65696 0
M  V30 3064 H 289.623 0.47513 -3.7097 0
M  V30 3065 H 291.915 2.06925 -6.45126 0
M  V30 3066 H 292.858 0.667344 -7.04948 0
M  V30 3067 H 293.266 1.3987 -5.46897 0
M  V30 3068 N 292.664 1.56529 -0.183458 0
M  V30 3069 C 293.594 2.21549 0.737456 0
M  V30 3070 C 294.575 1.17489 1.23005 0
M  V30 3071 O 295.76 1.45959 1.281 0
M  V30 3072 C 292.89 2.86575 1.96194 0
M  V30 3073 C 291.844 3.96778 1.60473 0
M  V30 3074 C 291.17 4.48911 2.90487 0
M  V30 3075 C 292.47 5.15767 0.823497 0
M  V30 3076 H 294.164 2.98761 0.195453 0
M  V30 3077 H 291.71 1.43702 0.0925686 0
M  V30 3078 H 293.663 3.30739 2.61131 0
M  V30 3079 H 292.387 2.06749 2.52828 0
M  V30 3080 H 291.046 3.53286 0.978997 0
M  V30 3081 H 290.694 3.65862 3.45186 0
M  V30 3082 H 290.394 5.23265 2.67335 0
M  V30 3083 H 291.918 4.95771 3.56432 0
M  V30 3084 H 293.332 5.56549 1.37571 0
M  V30 3085 H 291.729 5.96114 0.690551 0
M  V30 3086 H 292.799 4.84574 -0.177782 0
M  V30 3087 N 294.142 -0.090211 1.57342 0
M  V30 3088 C 295.367 -0.810082 1.90925 0
M  V30 3089 C 295.792 -1.71248 0.778187 0
M  V30 3090 O 295.15 -1.79278 -0.269991 0
M  V30 3091 C 295.198 -1.59529 3.23393 0
M  V30 3092 O 294.302 -2.70461 3.11327 0
M  V30 3093 H 293.643 -0.222231 0.625707 0
M  V30 3094 H 296.173 -0.0639716 2.045 0
M  V30 3095 H 296.183 -1.97847 3.5682 0
M  V30 3096 H 294.858 -0.933055 4.05299 0
M  V30 3097 H 293.435 -2.35135 2.89423 0
M  V30 3098 N 295.62 -1.53406 -0.361157 0
M  V30 3099 C 296.867 -1.69802 -1.10333 0
M  V30 3100 C 297.195 -0.452087 -1.89173 0
M  V30 3101 O 296.45 0.566017 -1.87336 0
M  V30 3102 C 296.749 -2.90211 -2.08596 0
M  V30 3103 C 296.415 -4.26539 -1.46203 0
M  V30 3104 C 295.077 -4.6361 -1.28915 0
M  V30 3105 C 297.429 -5.113 -1.01101 0
M  V30 3106 C 294.757 -5.83075 -0.651157 0
M  V30 3107 C 297.109 -6.31415 -0.387007 0
M  V30 3108 C 295.773 -6.67195 -0.201657 0
M  V30 3109 H 295.043 -0.621351 -0.403737 0
M  V30 3110 H 297.69 -1.87598 -0.384609 0
M  V30 3111 H 295.995 -2.66946 -2.86788 0
M  V30 3112 H 297.692 -3.00091 -2.65982 0
M  V30 3113 H 294.282 -3.97352 -1.60653 0
M  V30 3114 H 298.466 -4.83206 -1.13249 0
M  V30 3115 H 293.722 -6.09385 -0.496006 0
M  V30 3116 H 297.896 -6.96394 -0.0293563 0
M  V30 3117 H 295.523 -7.59628 0.294766 0
M  V30 3118 N 297.098 0.621204 -1.44841 0
M  V30 3119 C 298.028 1.74366 -1.55303 0
M  V30 3120 C 299.009 1.65199 -0.405385 0
M  V30 3121 O 300.194 1.83807 -0.626787 0
M  V30 3122 C 297.324 3.12931 -1.50637 0
M  V30 3123 C 296.278 3.36896 -2.63979 0
M  V30 3124 C 295.604 4.75594 -2.44366 0
M  V30 3125 C 296.904 3.28483 -4.06074 0
M  V30 3126 H 298.598 1.65867 -2.49256 0
M  V30 3127 H 296.144 0.796558 -1.19962 0
M  V30 3128 H 298.097 3.9124 -1.56555 0
M  V30 3129 H 296.821 3.22237 -0.532057 0
M  V30 3130 H 295.48 2.60972 -2.57467 0
M  V30 3131 H 295.128 4.81616 -1.45105 0
M  V30 3132 H 294.828 4.92586 -3.20364 0
M  V30 3133 H 296.352 5.5612 -2.52117 0
M  V30 3134 H 297.766 3.96684 -4.13902 0
M  V30 3135 H 296.163 3.57008 -4.82354 0
M  V30 3136 H 297.233 2.26133 -4.28943 0
M  V30 3137 N 298.576 1.31904 0.862503 0
M  V30 3138 C 299.987 1.19803 1.43193 0
M  V30 3139 C 300.338 -0.192567 1.95253 0
M  V30 3140 O 299.463 -1.09081 1.86896 0
M  V30 3141 C 300.058 2.16883 2.60283 0
M  V30 3142 C 298.617 2.08692 3.13248 0
M  V30 3143 C 297.764 2.05691 1.85975 0
M  V30 3144 H 300.715 1.43846 0.670365 0
M  V30 3145 H 300.736 1.76278 3.37204 0
M  V30 3146 H 300.248 3.18083 2.22363 0
M  V30 3147 H 298.349 1.10713 3.55771 0
M  V30 3148 H 298.462 2.9815 3.75025 0
M  V30 3149 H 296.826 1.50814 2.05249 0
M  V30 3150 H 297.609 3.08659 1.50282 0
M  V30 3151 N 300.054 -1.07777 1.14986 0
M  V30 3152 C 301.301 -1.8029 0.922056 0
M  V30 3153 C 301.629 -1.86531 -0.55105 0
M  V30 3154 O 300.884 -1.34189 -1.42449 0
M  V30 3155 C 301.183 -3.25495 1.47608 0
M  V30 3156 C 300.849 -3.39361 2.96893 0
M  V30 3157 C 299.511 -3.42852 3.37647 0
M  V30 3158 C 301.863 -3.42512 3.92854 0
M  V30 3159 C 299.191 -3.47094 4.73015 0
M  V30 3160 C 301.543 -3.4829 5.28088 0
M  V30 3161 C 300.207 -3.50058 5.68345 0
M  V30 3162 H 299.477 -0.659727 0.337404 0
M  V30 3163 H 302.124 -1.26854 1.43459 0
M  V30 3164 H 300.429 -3.81683 0.88463 0
M  V30 3165 H 302.126 -3.80168 1.27568 0
M  V30 3166 H 298.716 -3.37339 2.64387 0
M  V30 3167 H 302.9 -3.3904 3.62444 0
M  V30 3168 H 298.156 -3.46758 5.03556 0
M  V30 3169 H 302.33 -3.49675 6.02246 0
M  V30 3170 H 299.957 -3.53097 6.73221 0
M  V30 3171 N 301.532 -0.945985 -1.26051 0
M  V30 3172 C 302.462 -0.477172 -2.28572 0
M  V30 3173 C 303.443 0.472032 -1.63419 0
M  V30 3174 O 304.628 0.372853 -1.90587 0
M  V30 3175 C 301.758 0.253975 -3.4637 0
M  V30 3176 C 300.712 -0.609135 -4.23643 0
M  V30 3177 C 300.038 0.252252 -5.34105 0
M  V30 3178 C 301.338 -1.8829 -4.8718 0
M  V30 3179 H 303.032 -1.33402 -2.68038 0
M  V30 3180 H 300.578 -0.642904 -1.28852 0
M  V30 3181 H 302.531 0.593016 -4.17207 0
M  V30 3182 H 301.255 1.145 -3.05871 0
M  V30 3183 H 299.914 -0.931138 -3.54578 0
M  V30 3184 H 299.562 1.14278 -4.89846 0
M  V30 3185 H 299.262 -0.32188 -5.86718 0
M  V30 3186 H 300.786 0.586454 -6.07777 0
M  V30 3187 H 302.2 -1.61081 -5.50205 0
M  V30 3188 H 300.597 -2.40199 -5.49931 0
M  V30 3189 H 301.667 -2.59134 -4.09851 0
M  V30 3190 N 303.011 1.40521 -0.713556 0
M  V30 3191 C 304.257 2.01221 -0.252564 0
M  V30 3192 C 304.59 1.56444 1.1506 0
M  V30 3193 O 303.865 0.783597 1.78017 0
M  V30 3194 C 304.148 3.58582 -0.330332 0
M  V30 3195 C 304.001 4.13437 -1.77173 0
M  V30 3196 C 305.32 4.39079 0.299641 0
M  V30 3197 H 302.439 0.731077 -0.0932471 0
M  V30 3198 H 305.081 1.67026 -0.905673 0
M  V30 3199 H 303.231 3.87844 0.225737 0
M  V30 3200 H 304.903 3.9498 -2.38303 0
M  V30 3201 H 303.146 3.67801 -2.3001 0
M  V30 3202 H 303.817 5.22597 -1.77755 0
M  V30 3203 H 306.293 4.15735 -0.174139 0
M  V30 3204 H 305.169 5.4848 0.214771 0
M  V30 3205 H 305.43 4.19915 1.38288 0
M  V30 3206 N 304.489 0.459591 1.5075 0
M  V30 3207 C 305.419 -0.330644 2.31147 0
M  V30 3208 C 306.4 -1.00087 1.37538 0
M  V30 3209 O 307.585 -1.00025 1.66459 0
M  V30 3210 C 304.715 -1.41958 3.16962 0
M  V30 3211 C 303.669 -0.871608 4.19031 0
M  V30 3212 C 302.995 -2.05797 4.9351 0
M  V30 3213 C 304.295 0.109251 5.22186 0
M  V30 3214 H 305.989 0.340336 2.97459 0
M  V30 3215 H 303.535 0.165119 1.4305 0
M  V30 3216 H 305.488 -1.9798 3.71997 0
M  V30 3217 H 304.212 -2.11917 2.48513 0
M  V30 3218 H 302.871 -0.333442 3.6508 0
M  V30 3219 H 302.519 -2.74427 4.21544 0
M  V30 3220 H 302.219 -1.6976 5.62544 0
M  V30 3221 H 303.743 -2.62331 5.51375 0
M  V30 3222 H 305.157 -0.361405 5.7216 0
M  V30 3223 H 303.554 0.383316 5.98875 0
M  V30 3224 H 304.624 1.03887 4.73641 0
M  V30 3225 N 305.967 -1.56429 0.191757 0
M  V30 3226 C 306.897 -2.21937 -0.725696 0
M  V30 3227 C 307.878 -1.1814 -1.2238 0
M  V30 3228 O 309.063 -1.46636 -1.27325 0
M  V30 3229 C 306.193 -2.87611 -1.94672 0
M  V30 3230 C 305.147 -3.97623 -1.58366 0
M  V30 3231 C 304.473 -4.50446 -2.88102 0
M  V30 3232 C 305.773 -5.16197 -0.796133 0
M  V30 3233 H 307.467 -2.98861 -0.179606 0
M  V30 3234 H 305.013 -1.43749 -0.0849464 0
M  V30 3235 H 306.966 -3.3212 -2.59373 0
M  V30 3236 H 305.69 -2.08087 -2.51728 0
M  V30 3237 H 304.349 -3.53801 -0.960247 0
M  V30 3238 H 303.997 -3.67688 -3.43241 0
M  V30 3239 H 303.697 -5.24675 -2.64556 0
M  V30 3240 H 305.221 -4.97654 -3.53798 0
M  V30 3241 H 306.635 -5.57271 -1.34618 0
M  V30 3242 H 305.032 -5.96471 -0.658928 0
M  V30 3243 H 306.102 -4.84473 0.203478 0
M  V30 3244 N 307.445 0.0818655 -1.57387 0
M  V30 3245 C 308.691 0.784074 -1.8703 0
M  V30 3246 C 309.024 1.77729 -0.782689 0
M  V30 3247 O 308.299 1.93384 0.208051 0
M  V30 3248 C 308.582 1.50105 -3.27323 0
M  V30 3249 C 308.435 0.524925 -4.46727 0
M  V30 3250 C 309.754 2.44843 -3.65705 0
M  V30 3251 H 306.873 0.283582 -0.680257 0
M  V30 3252 H 309.515 0.0474352 -1.89941 0
M  V30 3253 H 307.665 2.12897 -3.24972 0
M  V30 3254 H 309.337 -0.0970111 -4.61198 0
M  V30 3255 H 307.58 -0.160606 -4.33503 0
M  V30 3256 H 308.251 1.064 -5.41648 0
M  V30 3257 H 310.727 1.92135 -3.69085 0
M  V30 3258 H 309.603 2.92018 -4.64776 0
M  V30 3259 H 309.864 3.29197 -2.95096 0
M  V30 3260 N 308.923 1.53595 0.353017 0
M  V30 3261 C 310.17 1.70385 1.09431 0
M  V30 3262 C 310.498 0.462113 1.88931 0
M  V30 3263 O 309.753 -0.556074 1.87633 0
M  V30 3264 C 310.052 2.91313 2.07054 0
M  V30 3265 C 309.718 4.27308 1.43939 0
M  V30 3266 C 308.38 4.64287 1.26454 0
M  V30 3267 C 310.732 5.11829 0.983883 0
M  V30 3268 C 308.06 5.83412 0.620226 0
M  V30 3269 C 310.412 6.31611 0.353516 0
M  V30 3270 C 309.076 6.67293 0.166272 0
M  V30 3271 H 308.346 0.623484 0.400436 0
M  V30 3272 H 310.993 1.87799 0.374655 0
M  V30 3273 H 309.298 2.68463 2.85368 0
M  V30 3274 H 310.995 3.01497 2.64387 0
M  V30 3275 H 307.585 3.98198 1.58543 0
M  V30 3276 H 311.769 4.838 1.10685 0
M  V30 3277 H 307.025 6.09639 0.463681 0
M  V30 3278 H 311.199 6.964 -0.00757555 0
M  V30 3279 H 308.826 7.59461 -0.335047 0
M  V30 3280 N 310.401 -0.613514 1.45168 0
M  V30 3281 C 311.65 -1.36874 1.4815 0
M  V30 3282 C 311.963 -1.952 0.124982 0
M  V30 3283 O 313.169 -2.71481 0.0324176 0
M  V30 3284 C 311.625 -2.47905 2.60904 0
M  V30 3285 C 311.233 -1.96016 4.02842 0
M  V30 3286 C 312.977 -3.24965 2.73126 0
M  V30 3287 C 310.884 -3.04494 5.06988 0
M  V30 3288 H 309.814 -0.514428 0.551253 0
M  V30 3289 H 312.465 -0.658182 1.7129 0
M  V30 3290 H 310.847 -3.21618 2.31037 0
M  V30 3291 H 312.021 -1.29051 4.4236 0
M  V30 3292 H 310.336 -1.31719 3.95018 0
M  V30 3293 H 312.933 -4.05865 3.48106 0
M  V30 3294 H 313.276 -3.75588 1.79553 0
M  V30 3295 H 313.809 -2.5835 3.0249 0
M  V30 3296 H 310.548 -2.58795 6.0225 0
M  V30 3297 H 310.068 -3.70044 4.72046 0
M  V30 3298 H 311.747 -3.68976 5.31475 0
M  V30 3299 N 311.879 -1.3236 -0.855495 0
M  V30 3300 C 313.295 -1.11332 -1.14356 0
M  V30 3301 C 313.495 0.106751 -2.01217 0
M  V30 3302 O 312.551 0.791891 -2.39761 0
M  V30 3303 C 313.864 -2.39237 -1.82171 0
M  V30 3304 C 315.412 -2.44986 -1.9481 0
M  V30 3305 C 315.887 -3.7281 -2.66039 0
M  V30 3306 N 317.378 -3.73787 -2.73565 0
M  V30 3307 C 318.113 -4.69394 -3.29327 0
M  V30 3308 N 317.609 -5.75367 -3.85907 0
M  V30 3309 N 319.402 -4.56893 -3.27423 0
M  V30 3310 H 311.553 -2.10586 -0.277027 0
M  V30 3311 H 313.816 -0.929701 -0.185364 0
M  V30 3312 H 313.522 -3.28431 -1.25802 0
M  V30 3313 H 313.396 -2.50134 -2.82335 0
M  V30 3314 H 315.783 -1.56252 -2.50338 0
M  V30 3315 H 315.864 -2.38043 -0.936448 0
M  V30 3316 H 315.508 -4.61918 -2.11174 0
M  V30 3317 H 315.438 -3.77024 -3.67642 0
M  V30 3318 H 317.929 -2.97189 -2.33424 0
M  V30 3319 H 318.242 -6.44378 -4.26611 0
M  V30 3320 H 316.587 -5.79123 -3.84242 0
M  V30 3321 H 319.778 -3.73269 -2.82467 0
M  V30 3322 H 319.951 -5.31577 -3.7058 0
M  V30 3323 N 313.357 1.07166 -1.15556 0
M  V30 3324 C 314.305 2.16517 -0.8499 0
M  V30 3325 C 315.299 1.68468 0.177454 0
M  V30 3326 O 316.505 1.79971 0.0323026 0
M  V30 3327 H 312.88 0.706652 -0.25719 0
M  V30 3328 H 314.851 2.39514 -1.77976 0
M  V30 3329 C 313.6 3.45855 -0.357682 0
M  V30 3330 H 312.923 3.83214 -1.13961 0
M  V30 3331 H 314.363 4.23607 -0.182489 0
M  V30 3332 C 312.822 3.24062 0.921152 0
M  V30 3333 O 313.352 3.48813 1.9923 0
M  V30 3334 N 311.558 2.77539 0.86141 0
M  V30 3335 H 311.105 2.57598 -0.0104408 0
M  V30 3336 H 311.063 2.63337 1.71758 0
M  V30 3337 N 314.835 0.952656 1.25548 0
M  V30 3338 C 315.765 0.489287 2.28316 0
M  V30 3339 C 316.746 -0.463359 1.63667 0
M  V30 3340 O 317.931 -0.36274 1.90782 0
M  V30 3341 C 315.061 -0.235603 3.465 0
M  V30 3342 C 314.015 0.631593 4.23314 0
M  V30 3343 C 313.341 -0.223923 5.34231 0
M  V30 3344 C 314.641 1.90871 4.86174 0
M  V30 3345 H 316.335 1.34822 2.67326 0
M  V30 3346 H 313.881 0.649728 1.28509 0
M  V30 3347 H 315.834 -0.570882 4.17515 0
M  V30 3348 H 314.558 -1.12877 3.06474 0
M  V30 3349 H 313.217 0.949929 3.54079 0
M  V30 3350 H 312.865 -1.11678 4.90446 0
M  V30 3351 H 312.565 0.35299 5.86539 0
M  V30 3352 H 314.089 -0.554214 6.0808 0
M  V30 3353 H 315.503 1.63997 5.49343 0
M  V30 3354 H 313.9 2.43112 5.4865 0
M  V30 3355 H 314.97 2.61304 4.08471 0
M  V30 3356 N 316.313 -1.40141 0.720998 0
M  V30 3357 C 317.729 -1.54632 0.395113 0
M  V30 3358 C 317.929 -1.69115 -1.09555 0
M  V30 3359 O 316.985 -1.68377 -1.88163 0
M  V30 3360 C 318.298 -2.77177 1.1659 0
M  V30 3361 C 319.846 -2.91 1.15274 0
M  V30 3362 C 320.321 -4.16465 1.90579 0
M  V30 3363 N 321.812 -4.23476 1.87675 0
M  V30 3364 C 322.547 -5.19475 2.42762 0
M  V30 3365 N 322.043 -6.21348 3.06428 0
M  V30 3366 N 323.836 -5.11592 2.32874 0
M  V30 3367 H 315.987 -1.28986 1.68749 0
M  V30 3368 H 318.25 -0.62412 0.713567 0
M  V30 3369 H 317.956 -2.72771 2.22011 0
M  V30 3370 H 317.83 -3.69442 0.76108 0
M  V30 3371 H 320.217 -2.94907 0.106702 0
M  V30 3372 H 320.298 -1.99838 1.59682 0
M  V30 3373 H 319.942 -4.1332 2.95176 0
M  V30 3374 H 319.872 -5.06646 1.43587 0
M  V30 3375 H 322.363 -3.50497 1.41281 0
M  V30 3376 H 322.676 -6.91034 3.45965 0
M  V30 3377 H 321.021 -6.21777 3.10514 0
M  V30 3378 H 324.212 -4.30936 1.82789 0
M  V30 3379 H 324.385 -5.86233 2.76106 0
M  V30 3380 N 317.792 -0.46758 -1.50504 0
M  V30 3381 C 318.755 0.317059 -2.26996 0
M  V30 3382 C 319.755 0.923513 -1.31635 0
M  V30 3383 O 320.945 0.793239 -1.55091 0
M  V30 3384 C 318.077 1.45134 -3.08462 0
M  V30 3385 H 319.27 -0.353723 -2.97807 0
M  V30 3386 H 316.823 -0.221545 -1.54722 0
M  V30 3387 H 317.558 2.15728 -2.4214 0
M  V30 3388 H 317.343 1.02232 -3.78538 0
M  V30 3389 H 318.833 2.00493 -3.66323 0
M  V30 3390 N 319.27 1.56325 -0.20005 0
M  V30 3391 C 320.2 2.22318 0.713916 0
M  V30 3392 C 321.181 1.18788 1.21752 0
M  V30 3393 O 322.366 1.47309 1.26545 0
M  V30 3394 C 319.496 2.88639 1.93144 0
M  V30 3395 C 318.45 3.98457 1.56255 0
M  V30 3396 C 317.776 4.51967 2.85709 0
M  V30 3397 C 319.076 5.16612 0.768747 0
M  V30 3398 H 320.77 2.98952 0.163755 0
M  V30 3399 H 318.316 1.43792 0.0773219 0
M  V30 3400 H 320.269 3.33491 2.57608 0
M  V30 3401 H 318.993 2.09419 2.50621 0
M  V30 3402 H 317.652 3.54305 0.941471 0
M  V30 3403 H 317.3 3.69503 3.41287 0
M  V30 3404 H 317 5.26071 2.6177 0
M  V30 3405 H 318.524 4.99523 3.51154 0
M  V30 3406 H 319.938 5.57977 1.3166 0
M  V30 3407 H 318.335 5.96812 0.627286 0
M  V30 3408 H 319.405 4.84358 -0.229168 0
M  V30 3409 N 320.748 -0.0735177 1.57428 0
M  V30 3410 C 321.973 -0.789787 1.91774 0
M  V30 3411 C 322.398 -1.70413 0.796306 0
M  V30 3412 O 321.756 -1.79555 -0.250961 0
M  V30 3413 C 321.804 -1.5609 3.25067 0
M  V30 3414 O 320.908 -2.67144 3.14178 0
M  V30 3415 H 320.249 -0.215582 0.628029 0
M  V30 3416 H 322.779 -0.0422781 2.04556 0
M  V30 3417 H 322.789 -1.94052 3.58898 0
M  V30 3418 H 321.464 -0.890015 4.06265 0
M  V30 3419 H 320.041 -2.32052 2.91901 0
M  V30 3420 N 322.226 -1.5378 -0.344866 0
M  V30 3421 C 323.475 -1.7018 -1.08267 0
M  V30 3422 C 323.788 -0.471 -1.89845 0
M  V30 3423 O 324.994 -0.515917 -2.66553 0
M  V30 3424 C 323.45 -3.00923 -1.97417 0
M  V30 3425 C 323.058 -4.31335 -1.21053 0
M  V30 3426 C 324.802 -3.26688 -2.71063 0
M  V30 3427 C 322.709 -5.53153 -2.09225 0
M  V30 3428 H 321.639 -0.634138 -0.407903 0
M  V30 3429 H 324.29 -1.8028 -0.342246 0
M  V30 3430 H 322.672 -2.84676 -2.75274 0
M  V30 3431 H 323.846 -4.58281 -0.481159 0
M  V30 3432 H 322.161 -4.12173 -0.591813 0
M  V30 3433 H 324.758 -4.1489 -3.37299 0
M  V30 3434 H 325.101 -2.43639 -3.37558 0
M  V30 3435 H 325.634 -3.43705 -2.0028 0
M  V30 3436 H 322.373 -6.38741 -1.47274 0
M  V30 3437 H 321.893 -5.30458 -2.79955 0
M  V30 3438 H 323.572 -5.88744 -2.68308 0
M  V30 3439 N 323.704 0.605807 -1.45491 0
M  V30 3440 C 324.951 1.36476 -1.49601 0
M  V30 3441 C 325.279 1.94007 -0.138452 0
M  V30 3442 O 324.534 1.75638 0.863114 0
M  V30 3443 C 324.833 2.53012 -2.52428 0
M  V30 3444 C 324.499 2.13617 -3.97087 0
M  V30 3445 C 323.161 2.02587 -4.36477 0
M  V30 3446 C 325.513 1.82899 -4.88055 0
M  V30 3447 C 322.841 1.59064 -5.64726 0
M  V30 3448 C 325.193 1.40861 -6.16718 0
M  V30 3449 C 323.857 1.28391 -6.55036 0
M  V30 3450 H 323.127 0.499402 -0.547429 0
M  V30 3451 H 325.774 0.684546 -1.78847 0
M  V30 3452 H 324.079 3.26379 -2.16758 0
M  V30 3453 H 325.776 3.1124 -2.52845 0
M  V30 3454 H 322.366 2.23129 -3.65939 0
M  V30 3455 H 326.55 1.90317 -4.58359 0
M  V30 3456 H 321.806 1.48034 -5.93208 0
M  V30 3457 H 325.98 1.16138 -6.86648 0
M  V30 3458 H 323.607 0.944403 -7.54311 0
M  V30 3459 N 325.182 1.32811 0.848464 0
M  V30 3460 C 326.407 1.26882 1.6406 0
M  V30 3461 C 326.832 -0.15913 1.87426 0
M  V30 3462 O 326.19 -1.11258 1.43148 0
M  V30 3463 C 326.238 2.03997 2.97351 0
M  V30 3464 O 325.342 1.39201 3.88197 0
M  V30 3465 H 324.683 0.436982 0.499943 0
M  V30 3466 H 327.213 1.75224 1.0563 0
M  V30 3467 H 327.223 2.14403 3.47124 0
M  V30 3468 H 325.898 3.0783 2.79666 0
M  V30 3469 H 324.475 1.37381 3.46671 0
M  V30 3470 N 326.66 -1.06551 1.16123 0
M  V30 3471 C 327.59 -2.15935 0.88851 0
M  V30 3472 C 328.571 -1.69306 -0.164135 0
M  V30 3473 O 329.756 -1.94193 -0.0167857 0
M  V30 3474 C 326.886 -3.45149 0.385942 0
M  V30 3475 C 325.84 -4.05271 1.3762 0
M  V30 3476 C 325.166 -5.29664 0.732137 0
M  V30 3477 C 326.466 -4.44355 2.74493 0
M  V30 3478 H 328.16 -2.39006 1.80323 0
M  V30 3479 H 325.706 -1.14866 0.868435 0
M  V30 3480 H 327.659 -4.21004 0.182647 0
M  V30 3481 H 326.383 -3.21689 -0.564274 0
M  V30 3482 H 325.042 -3.3147 1.56599 0
M  V30 3483 H 324.69 -5.02499 -0.224483 0
M  V30 3484 H 324.39 -5.70848 1.39307 0
M  V30 3485 H 325.914 -6.08218 0.538802 0
M  V30 3486 H 327.328 -5.11303 2.59311 0
M  V30 3487 H 325.725 -4.96515 3.37035 0
M  V30 3488 H 326.795 -3.55339 3.29943 0
M  V30 3489 N 328.138 -0.959301 -1.25041 0
M  V30 3490 C 329.068 -0.501388 -2.28053 0
M  V30 3491 C 330.049 0.454673 -1.63911 0
M  V30 3492 O 331.234 0.352618 -1.90972 0
M  V30 3493 C 328.364 0.217224 -3.4662 0
M  V30 3494 C 327.318 -0.654034 -4.22973 0
M  V30 3495 C 326.644 0.195589 -5.34342 0
M  V30 3496 C 327.944 -1.93447 -4.85155 0
M  V30 3497 H 329.638 -1.36238 -2.66608 0
M  V30 3498 H 327.184 -0.656534 -1.28163 0
M  V30 3499 H 329.137 0.548732 -4.17812 0
M  V30 3500 H 327.861 1.1125 -3.07068 0
M  V30 3501 H 326.52 -0.968693 -3.5357 0
M  V30 3502 H 326.168 1.09076 -4.91031 0
M  V30 3503 H 325.868 -0.384091 -5.86343 0
M  V30 3504 H 327.392 0.521958 -6.08365 0
M  V30 3505 H 328.806 -1.66908 -5.48466 0
M  V30 3506 H 327.203 -2.46018 -5.47353 0
M  V30 3507 H 328.273 -2.63466 -4.07079 0
M  V30 3508 N 329.616 1.39756 -0.72842 0
M  V30 3509 C 330.579 2.29012 -0.0927297 0
M  V30 3510 C 331.579 1.45992 0.674025 0
M  V30 3511 O 332.769 1.66749 0.50402 0
M  V30 3512 C 329.901 3.29396 0.878137 0
M  V30 3513 H 331.094 2.86729 -0.879011 0
M  V30 3514 H 328.647 1.48293 -0.493847 0
M  V30 3515 H 329.382 2.76722 1.69101 0
M  V30 3516 H 329.167 3.907 0.331051 0
M  V30 3517 H 330.657 3.96199 1.3197 0
M  V30 3518 N 331.094 0.475555 1.50254 0
M  V30 3519 C 332.042 -0.330276 2.30243 0
M  V30 3520 C 333.036 -0.986306 1.37726 0
M  V30 3521 O 334.242 -0.9169 1.54897 0
M  V30 3522 H 330.617 -0.125353 0.741479 0
M  V30 3523 H 332.588 0.364702 2.96163 0
M  V30 3524 C 331.337 -1.39704 3.18399 0
M  V30 3525 H 330.66 -0.901621 3.89501 0
M  V30 3526 H 332.1 -1.93336 3.77355 0
M  V30 3527 C 330.559 -2.4014 2.36293 0
M  V30 3528 O 331.089 -3.45504 2.04914 0
M  V30 3529 N 329.295 -2.1197 1.98789 0
M  V30 3530 H 328.842 -1.2631 2.24507 0
M  V30 3531 H 328.8 -2.79403 1.44157 0
M  V30 3532 N 332.573 -1.56217 0.208337 0
M  V30 3533 C 333.822 -1.97124 -0.427204 0
M  V30 3534 C 334.135 -1.09859 -1.61835 0
M  V30 3535 O 335.341 -1.40606 -2.32255 0
M  V30 3536 C 333.797 -3.50633 -0.811442 0
M  V30 3537 C 333.405 -4.46582 0.35615 0
M  V30 3538 C 335.149 -4.00282 -1.41332 0
M  V30 3539 C 333.056 -5.91379 -0.0497852 0
M  V30 3540 H 331.986 -0.736086 -0.163381 0
M  V30 3541 H 334.637 -1.8099 0.302456 0
M  V30 3542 H 333.019 -3.62319 -1.59815 0
M  V30 3543 H 334.193 -4.46636 1.1337 0
M  V30 3544 H 332.508 -4.07202 0.870396 0
M  V30 3545 H 335.105 -5.0595 -1.72972 0
M  V30 3546 H 335.448 -3.45359 -2.32449 0
M  V30 3547 H 335.981 -3.91764 -0.690323 0
M  V30 3548 H 332.72 -6.50255 0.827529 0
M  V30 3549 H 332.24 -5.94549 -0.791926 0
M  V30 3550 H 333.919 -6.45209 -0.481042 0
M  V30 3551 N 334.051 0.0651679 -1.57465 0
M  V30 3552 C 335.279 0.775808 -1.91804 0
M  V30 3553 C 335.694 1.70782 -0.804916 0
M  V30 3554 O 335.051 1.81153 0.221311 0
M  V30 3555 C 335.102 1.56381 -3.25925 0
M  V30 3556 O 334.823 0.669248 -4.32958 0
M  V30 3557 C 336.324 2.37485 -3.7432 0
M  V30 3558 H 333.544 0.2202 -0.63384 0
M  V30 3559 H 336.088 0.0334587 -2.04473 0
M  V30 3560 H 334.243 2.25837 -3.14764 0
M  V30 3561 H 334.657 1.21801 -5.10162 0
M  V30 3562 H 336.131 2.88223 -4.70778 0
M  V30 3563 H 336.608 3.17307 -3.03666 0
M  V30 3564 H 337.214 1.73173 -3.88447 0
M  V30 3565 N 335.529 1.53961 0.336706 0
M  V30 3566 C 336.462 1.77255 1.43722 0
M  V30 3567 C 337.44 0.62193 1.50236 0
M  V30 3568 O 338.624 0.857874 1.67847 0
M  V30 3569 C 335.751 1.87733 2.81912 0
M  V30 3570 C 334.797 3.09933 2.92991 0
M  V30 3571 S 335.63 4.68836 2.58753 0
M  V30 3572 C 336.786 4.82202 3.99039 0
M  V30 3573 H 337.019 2.70322 1.23748 0
M  V30 3574 H 334.552 1.44917 0.532777 0
M  V30 3575 H 336.51 1.94455 3.61521 0
M  V30 3576 H 335.171 0.956666 2.99177 0
M  V30 3577 H 334.364 3.1396 3.94265 0
M  V30 3578 H 333.966 3.01472 2.21338 0
M  V30 3579 H 336.258 4.64032 4.9364 0
M  V30 3580 H 337.201 5.84298 4.00002 0
M  V30 3581 H 337.609 4.10604 3.87382 0
M  V30 3582 N 337.007 -0.598083 1.45811 0
M  V30 3583 C 337.937 -1.71873 1.58057 0
M  V30 3584 C 338.918 -1.64533 0.431615 0
M  V30 3585 O 340.103 -1.82787 0.65595 0
M  V30 3586 C 337.233 -3.10495 1.55597 0
M  V30 3587 C 336.187 -3.32654 2.69305 0
M  V30 3588 C 335.513 -4.71646 2.51902 0
M  V30 3589 C 336.813 -3.21981 4.11248 0
M  V30 3590 H 338.507 -1.61881 2.51863 0
M  V30 3591 H 336.053 -0.777372 1.21214 0
M  V30 3592 H 338.006 -3.88699 1.6276 0
M  V30 3593 H 336.73 -3.2135 0.583255 0
M  V30 3594 H 335.389 -2.56843 2.61586 0
M  V30 3595 H 335.037 -4.79246 1.52748 0
M  V30 3596 H 334.737 -4.87426 3.2816 0
M  V30 3597 H 336.261 -5.52038 2.60933 0
M  V30 3598 H 337.675 -3.90049 4.20161 0
M  V30 3599 H 336.072 -3.49289 4.87972 0
M  V30 3600 H 337.142 -2.1928 4.32486 0
M  V30 3601 N 338.485 -1.33259 -0.841409 0
M  V30 3602 C 339.731 -1.24757 -1.59886 0
M  V30 3603 C 340.064 0.186913 -1.93298 0
M  V30 3604 O 339.339 1.12757 -1.5848 0
M  V30 3605 C 339.622 -2.12036 -2.91055 0
M  V30 3606 C 339.475 -3.63929 -2.6434 0
M  V30 3607 C 340.794 -1.9916 -3.92458 0
M  V30 3608 H 337.913 -0.454542 -0.580138 0
M  V30 3609 H 340.555 -1.63335 -0.970647 0
M  V30 3610 H 338.705 -1.79265 -3.44669 0
M  V30 3611 H 340.377 -4.06978 -2.17178 0
M  V30 3612 H 338.62 -3.85935 -1.98082 0
M  V30 3613 H 339.291 -4.20341 -3.57796 0
M  V30 3614 H 341.767 -2.27895 -3.48143 0
M  V30 3615 H 340.643 -2.62484 -4.82072 0
M  V30 3616 H 340.904 -0.963082 -4.31482 0
M  V30 3617 N 339.963 1.05934 -1.16686 0
M  V30 3618 C 341.188 1.83029 -0.975455 0
M  V30 3619 C 341.613 1.82096 0.471452 0
M  V30 3620 O 340.971 1.22443 1.33706 0
M  V30 3621 C 341.019 3.27372 -1.51195 0
M  V30 3622 O 340.123 4.06054 -0.720701 0
M  V30 3623 H 339.464 0.566194 -0.346872 0
M  V30 3624 H 341.994 1.33541 -1.55009 0
M  V30 3625 H 342.004 3.78186 -1.53099 0
M  V30 3626 H 340.679 3.27366 -2.56523 0
M  V30 3627 H 339.256 3.64812 -0.772458 0
M  V30 3628 N 341.441 0.965919 1.2453 0
M  V30 3629 C 342.371 0.513476 2.27784 0
M  V30 3630 C 343.352 -0.445974 1.6415 0
M  V30 3631 O 344.537 -0.342485 1.91156 0
M  V30 3632 C 341.667 -0.198839 3.4673 0
M  V30 3633 C 340.621 0.676456 4.2262 0
M  V30 3634 C 339.947 -0.167248 5.34438 0
M  V30 3635 C 341.247 1.96017 4.84123 0
M  V30 3636 H 342.941 1.3765 2.65881 0
M  V30 3637 H 340.487 0.663321 1.27813 0
M  V30 3638 H 342.44 -0.526567 4.18097 0
M  V30 3639 H 341.164 -1.0962 3.07654 0
M  V30 3640 H 339.823 0.98743 3.53052 0
M  V30 3641 H 339.471 -1.0647 4.91603 0
M  V30 3642 H 339.171 0.415181 5.86131 0
M  V30 3643 H 340.695 -0.489688 6.08633 0
M  V30 3644 H 342.109 1.69814 5.47573 0
M  V30 3645 H 340.506 2.48918 5.4604 0
M  V30 3646 H 341.576 2.65622 4.05676 0
M  V30 3647 N 342.919 -1.39368 0.735821 0
M  V30 3648 C 344.165 -2.00794 0.284544 0
M  V30 3649 C 344.498 -1.58255 -1.12557 0
M  V30 3650 O 343.773 -0.811819 -1.76748 0
M  V30 3651 C 344.056 -3.58011 0.387337 0
M  V30 3652 C 343.909 -4.10566 1.83728 0
M  V30 3653 C 345.228 -4.395 -0.22975 0
M  V30 3654 H 342.347 -0.729501 0.104866 0
M  V30 3655 H 344.989 -1.65564 0.93213 0
M  V30 3656 H 343.139 -3.88154 -0.164006 0
M  V30 3657 H 344.811 -3.91139 2.44556 0
M  V30 3658 H 343.054 -3.64095 2.35833 0
M  V30 3659 H 343.725 -5.19702 1.86047 0
M  V30 3660 H 346.201 -4.15406 0.240257 0
M  V30 3661 H 345.077 -5.48752 -0.127485 0
M  V30 3662 H 345.338 -4.22062 -1.3159 0
M  V30 3663 N 344.397 -0.483516 -1.5 0
M  V30 3664 C 345.33 0.350427 -2.25493 0
M  V30 3665 C 346.308 0.985549 -1.29328 0
M  V30 3666 O 347.492 1.01906 -1.58579 0
M  V30 3667 C 344.619 1.49202 -3.04066 0
M  V30 3668 C 343.665 0.973036 -4.15252 0
M  V30 3669 S 344.498 -0.122237 -5.3536 0
M  V30 3670 C 345.654 1.02294 -6.17484 0
M  V30 3671 H 345.887 -0.290381 -2.95878 0
M  V30 3672 H 343.42 -0.268562 -1.52046 0
M  V30 3673 H 345.378 2.14623 -3.49925 0
M  V30 3674 H 344.039 2.10438 -2.33183 0
M  V30 3675 H 343.232 1.82804 -4.69679 0
M  V30 3676 H 342.834 0.396335 -3.71894 0
M  V30 3677 H 345.126 1.93195 -6.49371 0
M  V30 3678 H 346.069 0.517664 -7.06205 0
M  V30 3679 H 346.477 1.28238 -5.49741 0
M  V30 3680 N 345.875 1.56104 -0.216619 0
M  V30 3681 C 347.124 1.97348 0.416744 0
M  V30 3682 C 347.437 1.10715 1.6125 0
M  V30 3683 O 348.643 1.41836 2.31506 0
M  V30 3684 C 347.099 3.51059 0.792835 0
M  V30 3685 C 346.707 4.46387 -0.379828 0
M  V30 3686 C 348.451 4.01026 1.39208 0
M  V30 3687 C 346.358 5.91397 0.0184223 0
M  V30 3688 H 345.288 0.736942 0.159475 0
M  V30 3689 H 347.939 1.80827 -0.31205 0
M  V30 3690 H 346.321 3.63162 1.57891 0
M  V30 3691 H 347.495 4.46029 -1.15737 0
M  V30 3692 H 345.81 4.06734 -0.891979 0
M  V30 3693 H 348.407 5.0686 1.70286 0
M  V30 3694 H 348.75 3.46587 2.30614 0
M  V30 3695 H 349.283 3.92125 0.669537 0
M  V30 3696 H 346.022 6.49807 -0.862002 0
M  V30 3697 H 345.542 5.94961 0.760384 0
M  V30 3698 H 347.221 6.45455 0.446818 0
M  V30 3699 N 347.353 -0.0568162 1.57498 0
M  V30 3700 C 348.583 -0.764515 1.91934 0
M  V30 3701 C 348.991 -1.70877 0.81227 0
M  V30 3702 O 348.334 -1.82351 -0.222213 0
M  V30 3703 C 348.396 -1.5994 3.21962 0
M  V30 3704 C 348.06 -0.822925 4.4953 0
M  V30 3705 C 349.057 -0.135464 5.19723 0
M  V30 3706 C 346.742 -0.785666 4.96117 0
M  V30 3707 C 348.736 0.578861 6.34766 0
M  V30 3708 C 346.423 -0.0675784 6.11063 0
M  V30 3709 C 347.421 0.613471 6.80239 0
M  V30 3710 O 347.109 1.31996 7.92989 0
M  V30 3711 H 346.841 -0.221647 0.63863 0
M  V30 3712 H 349.395 -0.0268218 2.05382 0
M  V30 3713 H 347.625 -2.38026 3.04763 0
M  V30 3714 H 349.314 -2.18715 3.41934 0
M  V30 3715 H 350.08 -0.155458 4.84751 0
M  V30 3716 H 345.959 -1.30524 4.42136 0
M  V30 3717 H 349.503 1.111 6.88696 0
M  V30 3718 H 345.4 -0.0455636 6.45484 0
M  V30 3719 H 346.168 1.23077 8.09194 0
M  V30 3720 N 348.832 -1.54138 -0.328536 0
M  V30 3721 C 349.764 -1.79509 -1.4251 0
M  V30 3722 C 350.777 -0.67688 -1.48061 0
M  V30 3723 O 351.966 -0.953898 -1.50874 0
M  V30 3724 C 349.066 -1.89337 -2.81078 0
M  V30 3725 C 348.239 -3.19443 -2.98789 0
M  V30 3726 C 347.298 -3.20036 -4.17688 0
M  V30 3727 O 346.324 -3.93697 -4.11086 0
M  V30 3728 N 347.526 -2.43467 -5.26976 0
M  V30 3729 H 350.291 -2.74139 -1.21111 0
M  V30 3730 H 347.852 -1.53373 -0.518499 0
M  V30 3731 H 349.844 -1.87167 -3.58818 0
M  V30 3732 H 348.414 -1.01826 -2.95551 0
M  V30 3733 H 347.634 -3.34614 -2.08391 0
M  V30 3734 H 348.922 -4.05354 -3.07515 0
M  V30 3735 H 348.32 -1.83201 -5.35214 0
M  V30 3736 H 346.877 -2.4708 -6.03154 0
M  V30 3737 N 350.31 0.590341 -1.46126 0
M  V30 3738 C 351.557 1.34882 -1.5104 0
M  V30 3739 C 351.885 1.93849 -0.159021 0
M  V30 3740 O 351.14 1.76544 0.844436 0
M  V30 3741 C 351.439 2.5032 -2.55097 0
M  V30 3742 C 351.105 2.09394 -3.99331 0
M  V30 3743 C 349.767 1.97947 -4.38601 0
M  V30 3744 C 352.119 1.77712 -4.89967 0
M  V30 3745 C 349.447 1.53065 -5.66381 0
M  V30 3746 C 351.799 1.34312 -6.18177 0
M  V30 3747 C 350.463 1.21436 -6.56361 0
M  V30 3748 H 349.733 0.493568 -0.552695 0
M  V30 3749 H 352.38 0.665539 -1.79563 0
M  V30 3750 H 350.685 3.24062 -2.20207 0
M  V30 3751 H 352.382 3.08541 -2.56132 0
M  V30 3752 H 348.972 2.19235 -3.68285 0
M  V30 3753 H 353.156 1.85445 -4.60352 0
M  V30 3754 H 348.412 1.41733 -5.94745 0
M  V30 3755 H 352.586 1.08849 -6.87841 0
M  V30 3756 H 350.213 0.864345 -7.5527 0
M  V30 3757 N 351.788 1.33704 0.83433 0
M  V30 3758 C 353.037 1.24763 1.58484 0
M  V30 3759 C 353.35 -0.183775 1.94735 0
M  V30 3760 O 354.556 -0.395234 2.68608 0
M  V30 3761 C 353.012 2.18638 2.85876 0
M  V30 3762 C 352.62 3.66974 2.56971 0
M  V30 3763 C 354.364 2.18581 3.63899 0
M  V30 3764 C 352.271 4.5275 3.80488 0
M  V30 3765 H 351.201 0.463425 0.594772 0
M  V30 3766 H 353.852 1.58797 0.919551 0
M  V30 3767 H 352.234 1.77542 3.5397 0
M  V30 3768 H 353.408 4.16538 1.9706 0
M  V30 3769 H 351.723 3.69366 1.92244 0
M  V30 3770 H 354.32 2.79894 4.55591 0
M  V30 3771 H 354.663 1.18207 3.99165 0
M  V30 3772 H 355.196 2.58062 3.02735 0
M  V30 3773 H 351.935 5.54017 3.5035 0
M  V30 3774 H 351.455 4.07927 4.39722 0
M  V30 3775 H 353.134 4.66784 4.4802 0
M  V30 3776 N 353.266 -1.05314 1.17247 0
M  V30 3777 C 354.512 -1.78557 0.961513 0
M  V30 3778 C 354.845 -1.87419 -0.508697 0
M  V30 3779 O 354.12 -1.37307 -1.37757 0
M  V30 3780 C 354.403 -3.22514 1.60176 0
M  V30 3781 C 354.256 -3.21673 3.14399 0
M  V30 3782 C 355.575 -4.20318 1.30463 0
M  V30 3783 H 352.694 -0.6482 0.350723 0
M  V30 3784 H 355.336 -1.23102 1.44727 0
M  V30 3785 H 353.486 -3.69867 1.18871 0
M  V30 3786 H 355.158 -2.82405 3.64753 0
M  V30 3787 H 353.401 -2.60048 3.47214 0
M  V30 3788 H 354.072 -4.23271 3.54324 0
M  V30 3789 H 356.548 -3.81454 1.66229 0
M  V30 3790 H 355.424 -5.19289 1.77848 0
M  V30 3791 H 355.685 -4.41526 0.22521 0
M  V30 3792 N 354.744 -0.972509 -1.24016 0
M  V30 3793 C 355.676 -0.464375 -2.24446 0
M  V30 3794 C 356.689 0.4295 -1.57032 0
M  V30 3795 O 357.878 0.234902 -1.76948 0
M  V30 3796 C 354.978 0.348385 -3.37105 0
M  V30 3797 C 354.151 -0.53673 -4.34094 0
M  V30 3798 C 353.21 0.220838 -5.25736 0
M  V30 3799 O 352.236 -0.386867 -5.67884 0
M  V30 3800 N 353.438 1.50907 -5.60542 0
M  V30 3801 H 356.203 -1.32788 -2.68677 0
M  V30 3802 H 353.764 -0.844877 -1.38107 0
M  V30 3803 H 355.756 0.863341 -3.95384 0
M  V30 3804 H 354.326 1.11285 -2.92121 0
M  V30 3805 H 353.546 -1.23261 -3.74433 0
M  V30 3806 H 354.834 -1.14022 -4.95859 0
M  V30 3807 H 354.232 2.02444 -5.28236 0
M  V30 3808 H 352.789 1.96962 -6.21329 0
M  V30 3809 N 356.222 1.38976 -0.743202 0
M  V30 3810 C 357.638 1.53984 -0.419664 0
M  V30 3811 C 357.838 1.70837 1.0685 0
M  V30 3812 O 356.894 1.7135 1.8546 0
M  V30 3813 C 358.207 2.75287 -1.20985 0
M  V30 3814 C 359.755 2.89129 -1.19889 0
M  V30 3815 C 360.23 4.13381 -1.97181 0
M  V30 3816 N 361.721 4.20437 -1.94389 0
M  V30 3817 C 362.456 5.15547 -2.50996 0
M  V30 3818 N 361.952 6.16395 -3.16274 0
M  V30 3819 N 363.745 5.07822 -2.40984 0
M  V30 3820 H 355.896 1.26285 -1.7078 0
M  V30 3821 H 358.159 0.612689 -0.723406 0
M  V30 3822 H 357.865 2.69204 -2.26323 0
M  V30 3823 H 357.739 3.68184 -0.819759 0
M  V30 3824 H 360.126 2.947 -0.153606 0
M  V30 3825 H 360.207 1.97272 -1.62841 0
M  V30 3826 H 359.851 4.08572 -3.01714 0
M  V30 3827 H 359.781 5.04298 -1.51629 0
M  V30 3828 H 362.272 3.48205 -1.46839 0
M  V30 3829 H 362.585 6.85443 -3.56915 0
M  V30 3830 H 360.93 6.16758 -3.20367 0
M  V30 3831 H 364.121 4.27973 -1.89622 0
M  V30 3832 H 364.294 5.81767 -2.85397 0
M  V30 3833 N 357.7 0.491464 1.49741 0
M  V30 3834 C 358.949 -0.0582189 2.01616 0
M  V30 3835 C 359.262 -1.38927 1.3769 0
M  V30 3836 O 360.468 -2.02509 1.80838 0
M  V30 3837 C 358.924 -0.154235 3.59569 0
M  V30 3838 C 358.532 1.1696 4.32463 0
M  V30 3839 C 360.276 -0.65479 4.1942 0
M  V30 3840 C 358.183 1.03627 5.8225 0
M  V30 3841 H 357.113 -0.0255317 0.753568 0
M  V30 3842 H 359.764 0.629445 1.72367 0
M  V30 3843 H 358.146 -0.906138 3.85493 0
M  V30 3844 H 359.32 1.93405 4.18248 0
M  V30 3845 H 357.635 1.60285 3.84315 0
M  V30 3846 H 360.232 -0.771903 5.29099 0
M  V30 3847 H 360.575 -1.65127 3.8215 0
M  V30 3848 H 361.108 0.040304 3.9778 0
M  V30 3849 H 357.847 2.00672 6.24028 0
M  V30 3850 H 357.367 0.312546 5.98985 0
M  V30 3851 H 359.046 0.711114 6.4308 0
M  V30 3852 N 359.178 -1.55987 0.224894 0
M  V30 3853 C 360.589 -1.84553 -0.282345 0
M  V30 3854 C 360.94 -1.14634 -1.59227 0
M  V30 3855 O 360.065 -0.417155 -2.12341 0
M  V30 3856 C 360.66 -3.348 -0.519062 0
M  V30 3857 C 359.219 -3.63671 -0.970604 0
M  V30 3858 C 358.366 -2.77277 -0.0355261 0
M  V30 3859 H 361.317 -1.52245 0.448006 0
M  V30 3860 H 361.338 -3.55187 -1.36463 0
M  V30 3861 H 360.85 -3.8566 0.43449 0
M  V30 3862 H 358.951 -3.1827 -1.9374 0
M  V30 3863 H 359.064 -4.71631 -0.842698 0
M  V30 3864 H 357.428 -2.48846 -0.542927 0
M  V30 3865 H 358.211 -3.30937 0.913003 0
M  V30 3866 N 360.656 0.0484629 -1.57525 0
M  V30 3867 C 361.933 0.777447 -1.79486 0
M  V30 3868 C 362.313 1.94597 -0.818251 0
M  V30 3869 O 361.661 2.28047 0.143767 0
M  V30 3870 C 361.871 1.22864 -3.26658 0
M  V30 3871 C 363.219 1.65251 -3.91123 0
M  V30 3872 O 364.243 1.32372 -3.3069 0
M  V30 3873 O 363.102 2.26207 -4.97486 0
M  V30 3874 H 360.196 0.374357 -0.737419 0
M  V30 3875 H 362.742 0.0267359 -1.69679 0
M  V30 3876 H 361.514 0.393589 -3.89316 0
M  V30 3877 H 361.137 2.03996 -3.41279 0
M  V30 3878 N 362.134 1.5431 0.320358 0
M  V30 3879 C 363.545 1.63872 0.894594 0
M  V30 3880 C 363.896 0.534847 1.88769 0
M  V30 3881 O 363.021 -0.331732 2.13842 0
M  V30 3882 C 363.616 2.97049 1.62934 0
M  V30 3883 C 362.175 3.08796 2.15226 0
M  V30 3884 C 361.322 2.59456 0.978671 0
M  V30 3885 H 364.273 1.58398 0.0978544 0
M  V30 3886 H 364.294 2.87388 2.49376 0
M  V30 3887 H 363.806 3.7737 0.906302 0
M  V30 3888 H 361.907 2.33156 2.90636 0
M  V30 3889 H 362.02 4.14649 2.40006 0
M  V30 3890 H 360.384 2.1543 1.35875 0
M  V30 3891 H 361.167 3.42237 0.269895 0
M  V30 3892 N 363.613 -0.582584 1.46437 0
M  V30 3893 C 364.838 -1.37168 1.55563 0
M  V30 3894 C 365.263 -1.87061 0.19743 0
M  V30 3895 O 364.621 -1.61572 -0.822451 0
M  V30 3896 C 364.669 -2.53511 2.56446 0
M  V30 3897 O 363.773 -3.54953 2.09958 0
M  V30 3898 H 363.114 -0.408494 0.523477 0
M  V30 3899 H 365.644 -0.706646 1.9201 0
M  V30 3900 H 365.654 -3.00426 2.76058 0
M  V30 3901 H 364.329 -2.16549 3.55076 0
M  V30 3902 H 362.906 -3.14516 2.00334 0
M  V30 3903 N 365.091 -1.34144 -0.827227 0
M  V30 3904 C 366.041 -1.21923 -1.92663 0
M  V30 3905 C 367.025 -0.119294 -1.60457 0
M  V30 3906 O 368.217 -0.348539 -1.73534 0
M  V30 3907 C 365.346 -0.972492 -3.29238 0
M  V30 3908 C 364.432 -2.1154 -3.67576 0
M  V30 3909 N 364.823 -3.36627 -3.77512 0
M  V30 3910 C 363.121 -2.02468 -3.97395 0
M  V30 3911 C 363.822 -4.11658 -4.1099 0
M  V30 3912 N 362.798 -3.40207 -4.23981 0
M  V30 3913 H 366.6 -2.16721 -1.98517 0
M  V30 3914 H 364.114 -1.2632 -1.02064 0
M  V30 3915 H 366.111 -0.865847 -4.0781 0
M  V30 3916 H 364.771 -0.0331509 -3.24683 0
M  V30 3917 H 365.782 -3.71234 -3.61118 0
M  V30 3918 H 362.459 -1.16265 -4.00985 0
M  V30 3919 H 363.849 -5.19657 -4.25918 0
M  V30 3920 N 366.569 1.04691 -1.17803 0
M  V30 3921 C 367.499 2.14494 -0.92275 0
M  V30 3922 C 368.48 1.69546 0.137179 0
M  V30 3923 O 369.665 1.94195 -0.0141108 0
M  V30 3924 C 366.795 3.44491 -0.440803 0
M  V30 3925 C 365.749 4.03031 -1.4405 0
M  V30 3926 C 365.075 5.28432 -0.81631 0
M  V30 3927 C 366.375 4.39932 -2.81527 0
M  V30 3928 H 368.069 2.36107 -1.84103 0
M  V30 3929 H 365.615 1.1347 -0.886599 0
M  V30 3930 H 367.568 4.2066 -0.249602 0
M  V30 3931 H 366.292 3.22546 0.513025 0
M  V30 3932 H 364.951 3.28937 -1.61853 0
M  V30 3933 H 364.599 5.02792 0.144511 0
M  V30 3934 H 364.299 5.68559 -1.48371 0
M  V30 3935 H 365.823 6.07284 -0.635496 0
M  V30 3936 H 367.237 5.07113 -2.67412 0
M  V30 3937 H 365.634 4.9109 -3.44892 0
M  V30 3938 H 366.704 3.50045 -3.35554 0
M  V30 3939 N 368.047 0.979072 1.23499 0
M  V30 3940 C 369.458 0.684391 1.73704 0
M  V30 3941 C 369.809 -0.799448 1.79174 0
M  V30 3942 O 368.934 -1.62531 1.42873 0
M  V30 3943 C 369.529 1.23564 3.15464 0
M  V30 3944 C 368.088 0.99063 3.6313 0
M  V30 3945 C 367.235 1.36416 2.41425 0
M  V30 3946 H 370.186 1.15307 1.09041 0
M  V30 3947 H 370.207 0.607417 3.7562 0
M  V30 3948 H 369.719 2.31561 3.1145 0
M  V30 3949 H 367.82 -0.0733136 3.72528 0
M  V30 3950 H 367.933 1.64427 4.5 0
M  V30 3951 H 366.297 0.782616 2.42378 0
M  V30 3952 H 367.08 2.45387 2.40083 0
M  V30 3953 N 369.525 -1.3858 0.750561 0
M  V30 3954 C 370.455 -2.33102 0.136237 0
M  V30 3955 C 371.436 -1.54713 -0.706965 0
M  V30 3956 O 372.621 -1.83043 -0.648769 0
M  V30 3957 C 369.751 -3.38882 -0.760017 0
M  V30 3958 C 368.705 -4.27995 -0.0197785 0
M  V30 3959 C 368.031 -5.24605 -1.03408 0
M  V30 3960 C 369.331 -5.09554 1.14684 0
M  V30 3961 H 371.025 -2.84726 0.925822 0
M  V30 3962 H 368.571 -1.36898 0.446654 0
M  V30 3963 H 370.524 -4.0397 -1.19943 0
M  V30 3964 H 369.248 -2.85734 -1.58189 0
M  V30 3965 H 367.907 -3.64409 0.400184 0
M  V30 3966 H 367.555 -4.67746 -1.84994 0
M  V30 3967 H 367.255 -5.85081 -0.543464 0
M  V30 3968 H 368.779 -5.9257 -1.47288 0
M  V30 3969 H 370.193 -5.67899 0.785118 0
M  V30 3970 H 368.59 -5.7925 1.56812 0
M  V30 3971 H 369.66 -4.4347 1.96118 0
M  V30 3972 N 371.003 -0.499398 -1.49478 0
M  V30 3973 C 372.249 0.0457576 -2.02748 0
M  V30 3974 C 372.582 1.36793 -1.37846 0
M  V30 3975 O 371.857 1.87596 -0.513601 0
M  V30 3976 C 372.14 0.199986 -3.59544 0
M  V30 3977 C 371.993 -1.1452 -4.34977 0
M  V30 3978 C 373.312 0.94137 -4.29914 0
M  V30 3979 H 370.431 0.0151552 -0.736844 0
M  V30 3980 H 373.073 -0.650498 -1.78518 0
M  V30 3981 H 371.223 0.793007 -3.8032 0
M  V30 3982 H 372.895 -1.77697 -4.25701 0
M  V30 3983 H 371.138 -1.73488 -3.97598 0
M  V30 3984 H 371.809 -0.990607 -5.43039 0
M  V30 3985 H 374.285 0.43844 -4.13784 0
M  V30 3986 H 373.161 1.01812 -5.39375 0
M  V30 3987 H 373.422 1.98471 -3.95046 0
M  V30 3988 N 372.481 1.55866 -0.233164 0
M  V30 3989 C 373.444 2.1953 0.658715 0
M  V30 3990 C 374.444 1.16053 1.11303 0
M  V30 3991 O 375.634 1.41218 1.01996 0
M  V30 3992 C 372.766 2.82791 1.90373 0
M  V30 3993 H 373.959 2.99721 0.10347 0
M  V30 3994 H 371.512 1.56291 0.0164245 0
M  V30 3995 H 372.247 2.06501 2.50056 0
M  V30 3996 H 372.032 3.58578 1.58632 0
M  V30 3997 H 373.522 3.31556 2.53891 0
M  V30 3998 N 373.959 -0.0401083 1.57549 0
M  V30 3999 C 375.37 -0.588097 1.77196 0
M  V30 4000 C 375.721 -1.76209 0.862832 0
M  V30 4001 O 374.846 -2.16331 0.0548389 0
M  V30 4002 C 375.441 -1.07363 3.21339 0
M  V30 4003 C 374 -1.56723 3.42221 0
M  V30 4004 C 373.147 -0.50041 2.72747 0
M  V30 4005 H 376.098 0.186119 1.57605 0
M  V30 4006 H 376.119 -1.94143 3.27244 0
M  V30 4007 H 375.631 -0.218975 3.87482 0
M  V30 4008 H 373.732 -2.4441 2.81237 0
M  V30 4009 H 373.845 -1.62234 4.50796 0
M  V30 4010 H 372.209 -0.952894 2.36203 0
M  V30 4011 H 372.992 0.344599 3.41566 0
M  V30 4012 N 375.437 -1.54477 -0.31217 0
M  V30 4013 C 376.683 -1.74417 -1.04644 0
M  V30 4014 C 377.038 -0.517641 -1.85306 0
M  V30 4015 O 376.331 0.489973 -1.85229 0
M  V30 4016 C 376.525 -2.967 -1.99258 0
M  V30 4017 C 376.354 -4.31128 -1.27901 0
M  V30 4018 C 375.124 -4.95087 -1.01079 0
M  V30 4019 C 377.322 -5.09662 -0.689119 0
M  V30 4020 N 375.304 -6.13322 -0.266323 0
M  V30 4021 C 376.675 -6.19952 -0.0768523 0
M  V30 4022 C 378.73 -4.94355 -0.593061 0
M  V30 4023 C 377.433 -7.16604 0.622165 0
M  V30 4024 C 379.459 -5.91328 0.0922792 0
M  V30 4025 C 378.821 -7.00978 0.693443 0
M  V30 4026 H 374.92 -0.69094 -0.366231 0
M  V30 4027 H 377.504 -1.91946 -0.326319 0
M  V30 4028 H 375.675 -2.80616 -2.68532 0
M  V30 4029 H 377.407 -3.05216 -2.65755 0
M  V30 4030 H 374.162 -4.55235 -1.30607 0
M  V30 4031 H 374.586 -6.76937 0.0920973 0
M  V30 4032 H 379.228 -4.09719 -1.04355 0
M  V30 4033 H 376.946 -8.0079 1.08445 0
M  V30 4034 H 380.532 -5.81562 0.166396 0
M  V30 4035 H 379.412 -7.74725 1.21533 0
M  V30 4036 N 376.915 0.57481 -1.46744 0
M  V30 4037 C 377.862 1.68329 -1.57905 0
M  V30 4038 C 378.832 1.60625 -0.422927 0
M  V30 4039 O 380.017 1.79721 -0.640711 0
M  V30 4040 C 377.157 3.06665 -1.58274 0
M  V30 4041 C 376.27 3.24935 -2.84678 0
M  V30 4042 C 375.405 4.53566 -2.76499 0
M  V30 4043 C 374.444 4.65207 -3.97806 0
M  V30 4044 N 373.581 5.85172 -3.87967 0
M  V30 4045 H 378.421 1.58127 -2.52587 0
M  V30 4046 H 375.958 0.770552 -1.25303 0
M  V30 4047 H 377.916 3.86745 -1.56473 0
M  V30 4048 H 376.546 3.15745 -0.671194 0
M  V30 4049 H 375.598 2.38405 -2.96424 0
M  V30 4050 H 376.91 3.29403 -3.7456 0
M  V30 4051 H 376.064 5.41885 -2.72848 0
M  V30 4052 H 374.803 4.51548 -1.8427 0
M  V30 4053 H 373.808 3.75304 -4.0178 0
M  V30 4054 H 375.033 4.68997 -4.9114 0
M  V30 4055 H 372.979 5.84137 -2.98529 0
M  V30 4056 H 372.896 5.90943 -4.71511 0
M  V30 4057 H 374.164 6.759 -3.88303 0
M  V30 4058 N 378.394 1.34581 0.820102 0
M  V30 4059 C 379.622 1.3018 1.60813 0
M  V30 4060 C 380.037 -0.123551 1.88395 0
M  V30 4061 O 379.394 -1.07148 1.47735 0
M  V30 4062 C 379.445 2.09312 2.94739 0
M  V30 4063 O 379.166 3.46288 2.68358 0
M  V30 4064 C 380.667 2.1234 3.89136 0
M  V30 4065 H 377.887 0.447726 0.499782 0
M  V30 4066 H 380.431 1.77237 1.02017 0
M  V30 4067 H 378.586 1.65889 3.50085 0
M  V30 4068 H 379 3.87227 3.53774 0
M  V30 4069 H 380.474 2.72126 4.80262 0
M  V30 4070 H 380.951 1.11854 4.24718 0
M  V30 4071 H 381.557 2.55864 3.39726 0
M  V30 4072 N 379.872 -1.04064 1.18357 0
M  V30 4073 C 381.102 -1.80654 1.00238 0
M  V30 4074 C 381.51 -1.83713 -0.452362 0
M  V30 4075 O 380.853 -1.27135 -1.32599 0
M  V30 4076 C 380.915 -3.27582 1.48088 0
M  V30 4077 C 380.579 -3.48184 2.96002 0
M  V30 4078 C 381.576 -3.39372 3.93856 0
M  V30 4079 C 379.261 -3.7478 3.34433 0
M  V30 4080 C 381.255 -3.5686 5.28138 0
M  V30 4081 C 378.942 -3.91915 4.68877 0
M  V30 4082 C 379.94 -3.82956 5.65539 0
M  V30 4083 O 379.628 -3.996 6.97549 0
M  V30 4084 H 379.36 -0.575751 0.354241 0
M  V30 4085 H 381.914 -1.32044 1.57333 0
M  V30 4086 H 380.144 -3.77161 0.853588 0
M  V30 4087 H 381.833 -3.8573 1.2636 0
M  V30 4088 H 382.599 -3.18789 3.65511 0
M  V30 4089 H 378.478 -3.80852 2.59756 0
M  V30 4090 H 382.022 -3.49783 6.03571 0
M  V30 4091 H 377.919 -4.11992 4.96923 0
M  V30 4092 H 378.687 -4.1676 7.04452 0
M  V30 4093 N 381.35 -0.985608 -1.22978 0
M  V30 4094 C 382.761 -0.693593 -1.73338 0
M  V30 4095 C 383.112 0.789935 -1.79595 0
M  V30 4096 O 382.237 1.61771 -1.43733 0
M  V30 4097 C 382.832 -1.25235 -3.14804 0
M  V30 4098 C 381.391 -1.00987 -3.626 0
M  V30 4099 C 380.538 -1.37695 -2.40698 0
M  V30 4100 H 383.489 -1.15884 -1.08428 0
M  V30 4101 H 383.51 -0.627329 -3.75293 0
M  V30 4102 H 383.022 -2.33209 -3.10218 0
M  V30 4103 H 381.123 0.0535565 -3.72562 0
M  V30 4104 H 381.236 -1.66812 -4.49122 0
M  V30 4105 H 379.6 -0.795459 -2.4196 0
M  V30 4106 H 380.383 -2.46657 -2.38779 0
M  V30 4107 N 382.828 1.3818 -0.7579 0
M  V30 4108 C 383.758 2.33027 -0.148597 0
M  V30 4109 C 384.739 1.55085 0.69875 0
M  V30 4110 O 385.924 1.83384 0.639053 0
M  V30 4111 C 383.054 3.3928 0.742034 0
M  V30 4112 C 382.008 4.28 -0.00291946 0
M  V30 4113 C 381.334 5.25146 1.00625 0
M  V30 4114 C 382.634 5.08938 -1.17385 0
M  V30 4115 H 384.328 2.84231 -0.940909 0
M  V30 4116 H 381.874 1.36659 -0.453908 0
M  V30 4117 H 383.827 4.046 1.17799 0
M  V30 4118 H 382.551 2.86569 1.56671 0
M  V30 4119 H 381.21 3.64192 -0.419504 0
M  V30 4120 H 380.858 4.68721 1.8251 0
M  V30 4121 H 380.558 5.85361 0.512428 0
M  V30 4122 H 382.082 5.93342 1.44143 0
M  V30 4123 H 383.496 5.67474 -0.815224 0
M  V30 4124 H 381.893 5.7841 -1.59882 0
M  V30 4125 H 382.963 4.42424 -1.98468 0
M  V30 4126 N 384.306 0.507319 1.49211 0
M  V30 4127 C 385.553 -0.0349529 2.0247 0
M  V30 4128 C 385.881 -1.36409 1.38647 0
M  V30 4129 O 385.136 -1.88841 0.513566 0
M  V30 4130 C 385.435 -0.229513 3.56662 0
M  V30 4131 C 385.101 1.02241 4.39156 0
M  V30 4132 C 383.763 1.36557 4.61417 0
M  V30 4133 C 386.115 1.85428 4.871 0
M  V30 4134 C 383.443 2.53999 5.28868 0
M  V30 4135 C 385.795 3.02028 5.55843 0
M  V30 4136 C 384.459 3.36717 5.76349 0
M  V30 4137 H 383.729 -0.0127902 0.74089 0
M  V30 4138 H 386.376 0.668756 1.79443 0
M  V30 4139 H 384.681 -1.0158 3.78403 0
M  V30 4140 H 386.378 -0.663641 3.9547 0
M  V30 4141 H 382.968 0.745124 4.22073 0
M  V30 4142 H 387.152 1.6023 4.69723 0
M  V30 4143 H 382.408 2.81105 5.42946 0
M  V30 4144 H 386.582 3.66808 5.91967 0
M  V30 4145 H 384.209 4.27821 6.28389 0
M  V30 4146 N 385.784 -1.5574 0.241426 0
M  V30 4147 C 387.031 -1.9881 -0.384836 0
M  V30 4148 C 387.359 -1.12947 -1.58346 0
M  V30 4149 O 386.614 -0.178993 -1.9488 0
M  V30 4150 C 386.913 -3.47308 -0.843317 0
M  V30 4151 C 386.579 -4.50223 0.246946 0
M  V30 4152 C 385.241 -4.78088 0.546399 0
M  V30 4153 C 387.593 -5.11841 0.983282 0
M  V30 4154 C 384.921 -5.64846 1.58636 0
M  V30 4155 C 387.273 -5.99727 2.01272 0
M  V30 4156 C 385.937 -6.25927 2.31888 0
M  V30 4157 H 385.207 -0.727496 -0.140821 0
M  V30 4158 H 387.854 -1.8831 0.348106 0
M  V30 4159 H 386.159 -3.55112 -1.65537 0
M  V30 4160 H 387.856 -3.78017 -1.33806 0
M  V30 4161 H 384.446 -4.286 0.00340639 0
M  V30 4162 H 388.63 -4.90366 0.765182 0
M  V30 4163 H 383.886 -5.83403 1.82896 0
M  V30 4164 H 388.06 -6.46517 2.58823 0
M  V30 4165 H 385.687 -6.92949 3.12611 0
M  V30 4166 N 387.262 0.0317525 -1.57568 0
M  V30 4167 C 388.51 0.721676 -1.88776 0
M  V30 4168 C 388.831 1.76039 -0.838772 0
M  V30 4169 O 388.101 1.95482 0.127935 0
M  V30 4170 H 386.681 0.269534 -0.696678 0
M  V30 4171 H 389.343 -0.00165879 -1.949 0
M  V30 4172 H 388.439 1.21293 -2.87566 0
M  V30 4173 N 388.74 1.54641 0.303973 0
M  V30 4174 C 389.968 1.77768 1.05858 0
M  V30 4175 C 390.383 0.535722 1.8104 0
M  V30 4176 O 389.74 -0.494337 1.75677 0
M  V30 4177 C 389.791 2.9834 2.04146 0
M  V30 4178 O 389.512 4.17736 1.32015 0
M  V30 4179 C 391.013 3.33832 2.91669 0
M  V30 4180 H 388.233 0.592961 0.314067 0
M  V30 4181 H 390.777 2.01583 0.344149 0
M  V30 4182 H 388.932 2.76742 2.71096 0
M  V30 4183 H 389.346 4.85693 1.97998 0
M  V30 4184 H 390.82 4.21448 3.56491 0
M  V30 4185 H 391.297 2.51857 3.59812 0
M  V30 4186 H 391.903 3.57579 2.30254 0
M  V30 4187 N 390.218 -0.567019 1.47046 0
M  V30 4188 C 391.181 -1.65696 1.58359 0
M  V30 4189 C 392.181 -1.54097 0.459441 0
M  V30 4190 O 393.371 -1.58432 0.724225 0
M  V30 4191 C 390.503 -3.05197 1.51879 0
M  V30 4192 H 391.696 -1.57019 2.5551 0
M  V30 4193 H 389.249 -0.786148 1.3509 0
M  V30 4194 H 389.984 -3.19417 0.560673 0
M  V30 4195 H 389.769 -3.15025 2.33455 0
M  V30 4196 H 391.259 -3.84511 1.62913 0
M  V30 4197 N 391.696 -1.35014 -0.812953 0
M  V30 4198 C 392.945 -1.27269 -1.56479 0
M  V30 4199 C 393.258 0.152771 -1.95002 0
M  V30 4200 O 394.464 0.352451 -2.69203 0
M  V30 4201 C 392.92 -2.23159 -2.82362 0
M  V30 4202 C 392.528 -3.71016 -2.511 0
M  V30 4203 C 394.272 -2.24342 -3.60376 0
M  V30 4204 C 392.179 -4.58746 -3.73237 0
M  V30 4205 H 391.109 -0.472829 -0.587324 0
M  V30 4206 H 393.76 -1.6024 -0.894171 0
M  V30 4207 H 392.142 -1.83151 -3.51101 0
M  V30 4208 H 393.316 -4.1962 -1.90409 0
M  V30 4209 H 391.631 -3.72378 -1.86343 0
M  V30 4210 H 394.228 -2.87107 -4.51081 0
M  V30 4211 H 394.571 -1.24542 -3.97234 0
M  V30 4212 H 395.104 -2.62846 -2.98591 0
M  V30 4213 H 391.843 -5.59521 -3.41492 0
M  V30 4214 H 391.363 -4.14871 -4.33176 0
M  V30 4215 H 393.042 -4.73852 -4.40537 0
M  V30 4216 N 393.175 1.03435 -1.18907 0
M  V30 4217 C 394.422 1.76743 -0.988334 0
M  V30 4218 C 394.75 1.88447 0.481441 0
M  V30 4219 O 394.005 1.39383 1.37371 0
M  V30 4220 C 394.304 3.19792 -1.59586 0
M  V30 4221 C 393.97 3.28108 -3.09283 0
M  V30 4222 C 392.632 3.30084 -3.5014 0
M  V30 4223 C 394.984 3.27696 -4.05296 0
M  V30 4224 C 392.312 3.29299 -4.85571 0
M  V30 4225 C 394.664 3.28451 -5.4065 0
M  V30 4226 C 393.328 3.28723 -5.80946 0
M  V30 4227 H 392.598 0.64675 -0.361657 0
M  V30 4228 H 395.245 1.21442 -1.48068 0
M  V30 4229 H 393.55 3.78136 -1.02568 0
M  V30 4230 H 395.247 3.75171 -1.41589 0
M  V30 4231 H 391.837 3.27294 -2.76725 0
M  V30 4232 H 396.021 3.25354 -3.74778 0
M  V30 4233 H 391.277 3.2783 -5.16079 0
M  V30 4234 H 395.451 3.27082 -6.14809 0
M  V30 4235 H 393.078 3.27868 -6.85862 0
M  V30 4236 N 394.653 0.992116 1.22453 0
M  V30 4237 C 395.878 0.685644 1.95739 0
M  V30 4238 C 396.303 -0.743 1.72804 0
M  V30 4239 O 395.661 -1.50778 1.00676 0
M  V30 4240 C 395.709 0.996293 3.46564 0
M  V30 4241 O 394.813 0.0945512 4.12292 0
M  V30 4242 H 394.154 0.256694 0.612376 0
M  V30 4243 H 396.684 1.32888 1.5557 0
M  V30 4244 H 396.694 0.93781 3.97076 0
M  V30 4245 H 395.369 2.03733 3.62582 0
M  V30 4246 H 393.946 0.208451 3.72317 0
M  V30 4247 N 396.131 -1.37776 0.765217 0
M  V30 4248 C 397.378 -1.99849 0.326588 0
M  V30 4249 C 397.706 -1.60746 -1.09504 0
M  V30 4250 O 396.961 -0.84202 -1.76659 0
M  V30 4251 C 397.26 -3.5504 0.410053 0
M  V30 4252 C 396.926 -4.13891 1.78899 0
M  V30 4253 C 395.588 -4.29678 2.16635 0
M  V30 4254 C 397.94 -4.46236 2.69301 0
M  V30 4255 C 395.268 -4.7511 3.44221 0
M  V30 4256 C 397.62 -4.93089 3.9629 0
M  V30 4257 C 396.284 -5.07082 4.34078 0
M  V30 4258 H 395.554 -0.7313 0.119507 0
M  V30 4259 H 398.201 -1.64645 0.977968 0
M  V30 4260 H 396.506 -3.90451 -0.324878 0
M  V30 4261 H 398.203 -4.00966 0.0520699 0
M  V30 4262 H 394.793 -4.02026 1.48569 0
M  V30 4263 H 398.977 -4.3363 2.41409 0
M  V30 4264 H 394.233 -4.84129 3.73402 0
M  V30 4265 H 398.407 -5.17084 4.66472 0
M  V30 4266 H 396.034 -5.42046 5.33001 0
M  V30 4267 N 397.609 -0.515225 -1.4894 0
M  V30 4268 C 398.519 0.259774 -2.33157 0
M  V30 4269 C 399.535 0.953501 -1.45548 0
M  V30 4270 O 400.711 0.931735 -1.78552 0
M  V30 4271 C 397.776 1.30193 -3.21326 0
M  V30 4272 C 396.837 0.620129 -4.24797 0
M  V30 4273 C 396.07 1.61263 -5.08753 0
M  V30 4274 O 396.293 2.84389 -4.94448 0
M  V30 4275 O 395.227 1.16013 -5.90614 0
M  V30 4276 H 399.053 -0.429932 -3.00641 0
M  V30 4277 H 396.638 -0.276346 -1.46822 0
M  V30 4278 H 398.52 1.90455 -3.75905 0
M  V30 4279 H 397.195 1.97431 -2.56521 0
M  V30 4280 H 396.102 -0.0226019 -3.74093 0
M  V30 4281 H 397.435 -0.0100493 -4.92199 0
M  V30 4282 N 399.087 1.5561 -0.249682 0
M  V30 4283 C 400.335 1.98618 0.373548 0
M  V30 4284 C 400.656 1.13919 1.58264 0
M  V30 4285 O 399.926 0.222637 1.94631 0
M  V30 4286 H 398.506 0.733571 0.141006 0
M  V30 4287 H 401.168 1.91748 -0.349117 0
M  V30 4288 H 400.264 3.04584 0.680796 0
M  V30 4289 N 400.565 -0.0233959 1.57583 0
M  V30 4290 C 401.814 -0.712133 1.8871 0
M  V30 4291 C 402.127 -1.76217 0.848944 0
M  V30 4292 O 403.333 -2.50389 1.04964 0
M  V30 4293 C 401.789 -1.3177 3.3491 0
M  V30 4294 C 401.397 -0.303715 4.46969 0
M  V30 4295 C 403.141 -1.98598 3.75179 0
M  V30 4296 C 401.048 -0.917945 5.84233 0
M  V30 4297 H 399.978 -0.269735 0.704101 0
M  V30 4298 H 402.629 0.0333114 1.8347 0
M  V30 4299 H 401.011 -2.11304 3.34913 0
M  V30 4300 H 402.185 0.465325 4.58445 0
M  V30 4301 H 400.5 0.2628 4.1557 0
M  V30 4302 H 403.097 -2.45416 4.75053 0
M  V30 4303 H 403.44 -2.80659 3.07468 0
M  V30 4304 H 403.973 -1.25831 3.77374 0
M  V30 4305 H 400.712 -0.136633 6.55358 0
M  V30 4306 H 400.232 -1.65669 5.76467 0
M  V30 4307 H 401.911 -1.4236 6.31144 0
M  V30 4308 N 402.043 -1.548 -0.295768 0
M  V30 4309 C 403.291 -1.73985 -1.02828 0
M  V30 4310 C 403.612 -0.531406 -1.87619 0
M  V30 4311 O 402.882 0.454221 -1.90561 0
M  V30 4312 H 401.462 -0.641556 -0.382642 0
M  V30 4313 H 404.124 -1.92163 -0.325489 0
M  V30 4314 H 403.22 -2.63129 -1.67838 0
M  V30 4315 N 403.521 0.559213 -1.47345 0
M  V30 4316 C 404.454 1.68201 -1.5422 0
M  V30 4317 C 405.432 1.57742 -0.394497 0
M  V30 4318 O 406.616 1.78628 -0.60201 0
M  V30 4319 C 403.743 3.0643 -1.44285 0
M  V30 4320 C 402.789 3.3534 -2.63532 0
M  V30 4321 S 403.622 3.24816 -4.25741 0
M  V30 4322 C 404.778 4.65542 -4.18355 0
M  V30 4323 H 405.011 1.62114 -2.49211 0
M  V30 4324 H 402.544 0.739871 -1.35519 0
M  V30 4325 H 404.502 3.86164 -1.3924 0
M  V30 4326 H 403.163 3.09984 -0.506816 0
M  V30 4327 H 402.356 4.36107 -2.52639 0
M  V30 4328 H 401.958 2.63221 -2.65689 0
M  V30 4329 H 404.25 5.56449 -3.86485 0
M  V30 4330 H 405.193 4.81493 -5.19202 0
M  V30 4331 H 405.601 4.43495 -3.49246 0
M  V30 4332 N 404.999 1.35443 0.805782 0
M  V30 4333 C 406.245 1.28952 1.56522 0
M  V30 4334 C 406.578 -0.135597 1.93726 0
M  V30 4335 O 405.853 -1.08516 1.61414 0
M  V30 4336 C 406.136 2.19678 2.85331 0
M  V30 4337 C 405.989 3.7081 2.54598 0
M  V30 4338 C 407.308 2.09495 3.8704 0
M  V30 4339 H 404.427 0.469764 0.567883 0
M  V30 4340 H 407.069 1.65851 0.927001 0
M  V30 4341 H 405.219 1.8834 3.39795 0
M  V30 4342 H 406.891 4.12593 2.06312 0
M  V30 4343 H 405.134 3.91051 1.8778 0
M  V30 4344 H 405.805 4.29679 3.46525 0
M  V30 4345 H 408.281 2.37045 3.41978 0
M  V30 4346 H 407.157 2.75173 4.74943 0
M  V30 4347 H 407.418 1.07714 4.28777 0
M  V30 4348 N 406.477 -1.02803 1.19454 0
M  V30 4349 C 407.407 -2.12999 0.956758 0
M  V30 4350 C 408.388 -1.69743 -0.110188 0
M  V30 4351 O 409.573 -1.94148 0.0450038 0
M  V30 4352 C 406.703 -3.43746 0.495553 0
M  V30 4353 C 405.657 -4.00688 1.50443 0
M  V30 4354 C 404.983 -5.27067 0.900275 0
M  V30 4355 C 406.283 -4.35397 2.8849 0
M  V30 4356 H 407.977 -2.33148 1.87836 0
M  V30 4357 H 405.523 -1.12045 0.904539 0
M  V30 4358 H 407.476 -4.2021 0.316493 0
M  V30 4359 H 406.2 -3.23321 -0.461646 0
M  V30 4360 H 404.859 -3.2632 1.67065 0
M  V30 4361 H 404.507 -5.02959 -0.064503 0
M  V30 4362 H 404.207 -5.66127 1.57397 0
M  V30 4363 H 405.731 -6.06196 0.73203 0
M  V30 4364 H 407.145 -5.02795 2.75446 0
M  V30 4365 H 405.542 -4.85541 3.52661 0
M  V30 4366 H 406.612 -3.44662 3.41081 0
M  V30 4367 N 407.956 -0.998596 -1.21925 0
M  V30 4368 C 409.367 -0.711939 -1.72593 0
M  V30 4369 C 409.718 0.770842 -1.80423 0
M  V30 4370 O 408.843 1.60237 -1.4544 0
M  V30 4371 C 409.438 -1.28567 -3.13458 0
M  V30 4372 C 407.997 -1.04828 -3.61508 0
M  V30 4373 C 407.144 -1.4024 -2.39224 0
M  V30 4374 H 410.095 -1.17027 -1.07193 0
M  V30 4375 H 410.116 -0.667098 -3.74607 0
M  V30 4376 H 409.628 -2.36486 -3.07727 0
M  V30 4377 H 407.729 0.0140383 -3.72597 0
M  V30 4378 H 407.842 -1.71566 -4.47328 0
M  V30 4379 H 406.206 -0.821077 -2.41103 0
M  V30 4380 H 406.989 -2.49176 -2.36149 0
M  V30 4381 N 409.434 1.37368 -0.772513 0
M  V30 4382 C 410.364 2.32856 -0.173304 0
M  V30 4383 C 411.345 1.55818 0.682262 0
M  V30 4384 O 412.53 1.84052 0.619566 0
M  V30 4385 C 409.66 3.40048 0.706007 0
M  V30 4386 C 408.614 4.27973 -0.0483144 0
M  V30 4387 C 407.94 5.26184 0.950491 0
M  V30 4388 C 409.24 5.07665 -1.22776 0
M  V30 4389 H 410.934 2.83217 -0.971002 0
M  V30 4390 H 408.48 1.3617 -0.468377 0
M  V30 4391 H 410.433 4.05827 1.13501 0
M  V30 4392 H 409.157 2.88214 1.53623 0
M  V30 4393 H 407.816 3.63726 -0.458107 0
M  V30 4394 H 407.464 4.7063 1.77529 0
M  V30 4395 H 407.164 5.85872 0.450314 0
M  V30 4396 H 408.688 5.94838 1.37842 0
M  V30 4397 H 410.102 5.66578 -0.875366 0
M  V30 4398 H 408.499 5.76681 -1.66007 0
M  V30 4399 H 409.569 4.40294 -2.03149 0
M  V30 4400 N 410.912 0.523116 1.48665 0
M  V30 4401 C 411.822 -0.247406 2.33292 0
M  V30 4402 C 412.838 -0.945769 1.46052 0
M  V30 4403 O 414.014 -0.922253 1.79043 0
M  V30 4404 C 411.079 -1.28487 3.22012 0
M  V30 4405 C 410.14 -0.597592 4.2512 0
M  V30 4406 C 409.373 -1.58563 5.09601 0
M  V30 4407 O 409.596 -2.81763 4.95949 0
M  V30 4408 O 408.53 -1.12879 5.91221 0
M  V30 4409 H 412.356 0.445869 3.00409 0
M  V30 4410 H 409.941 0.284128 1.46673 0
M  V30 4411 H 411.823 -1.88459 3.7691 0
M  V30 4412 H 410.498 -1.96068 2.57564 0
M  V30 4413 H 409.405 0.0424407 3.74076 0
M  V30 4414 H 410.738 0.0361517 4.92187 0
M  V30 4415 N 412.39 -1.55475 0.257931 0
M  V30 4416 C 413.338 -2.23244 -0.653076 0
M  V30 4417 C 414.332 -1.22366 -1.17144 0
M  V30 4418 O 415.538 -1.40347 -1.12706 0
M  V30 4419 H 411.913 -0.716247 -0.229117 0
M  V30 4420 H 413.884 -2.98343 -0.0584788 0
M  V30 4421 C 412.633 -2.95401 -1.83395 0
M  V30 4422 H 411.956 -3.72802 -1.44424 0
M  V30 4423 H 413.396 -3.46165 -2.44838 0
M  V30 4424 C 411.855 -1.99895 -2.71189 0
M  V30 4425 O 412.385 -1.53909 -3.71046 0
M  V30 4426 N 410.591 -1.6676 -2.3799 0
M  V30 4427 H 410.138 -2.04352 -1.56837 0
M  V30 4428 H 410.096 -1.03127 -2.97005 0
M  V30 4429 N 413.868 0.0150385 -1.57593 0
M  V30 4430 C 414.815 1.01126 -2.07466 0
M  V30 4431 C 415.785 1.35064 -0.966794 0
M  V30 4432 O 416.97 1.4516 -1.23827 0
M  V30 4433 C 414.11 2.30276 -2.57035 0
M  V30 4434 C 413.223 2.02373 -3.81666 0
M  V30 4435 C 412.358 3.25496 -4.19793 0
M  V30 4436 C 411.397 2.93211 -5.37303 0
M  V30 4437 N 410.534 4.08826 -5.70794 0
M  V30 4438 H 415.374 0.57901 -2.92321 0
M  V30 4439 H 412.911 0.27426 -1.44521 0
M  V30 4440 H 414.869 3.05757 -2.83846 0
M  V30 4441 H 413.499 2.71197 -1.75077 0
M  V30 4442 H 412.551 1.17327 -3.61854 0
M  V30 4443 H 413.863 1.74567 -4.67256 0
M  V30 4444 H 413.017 4.09333 -4.47807 0
M  V30 4445 H 411.756 3.56428 -3.32882 0
M  V30 4446 H 410.761 2.07777 -5.09027 0
M  V30 4447 H 411.986 2.63542 -6.25877 0
M  V30 4448 H 409.932 4.39682 -4.86842 0
M  V30 4449 H 409.849 3.84491 -6.50924 0
M  V30 4450 H 411.117 4.93496 -6.03392 0
M  V30 4451 N 415.346 1.54954 0.287554 0
M  V30 4452 C 416.279 1.81737 1.3801 0
M  V30 4453 C 417.257 0.669412 1.48181 0
M  V30 4454 O 418.441 0.910839 1.65033 0
M  V30 4455 C 415.568 1.96606 2.75796 0
M  V30 4456 C 414.614 3.19098 2.82982 0
M  V30 4457 S 415.447 4.7683 2.43707 0
M  V30 4458 C 416.603 4.94653 3.83496 0
M  V30 4459 H 416.836 2.74122 1.15085 0
M  V30 4460 H 414.369 1.46538 0.486403 0
M  V30 4461 H 416.327 2.05858 3.55152 0
M  V30 4462 H 414.988 1.05136 2.95982 0
M  V30 4463 H 414.181 3.26344 3.84077 0
M  V30 4464 H 413.783 3.08361 2.11635 0
M  V30 4465 H 416.075 4.79502 4.78628 0
M  V30 4466 H 417.018 5.96728 3.8121 0
M  V30 4467 H 417.426 4.2272 3.74123 0
M  V30 4468 N 416.824 -0.551391 1.4764 0
M  V30 4469 C 417.771 -1.65796 1.60563 0
M  V30 4470 C 418.741 -1.59932 0.448428 0
M  V30 4471 O 419.926 -1.78679 0.669222 0
M  V30 4472 C 417.066 -3.04108 1.63133 0
M  V30 4473 C 416.179 -3.20365 2.89811 0
M  V30 4474 C 415.314 -4.49109 2.8368 0
M  V30 4475 C 414.353 -4.58819 4.05156 0
M  V30 4476 N 413.49 -5.78926 3.97227 0
M  V30 4477 H 418.33 -1.54088 2.5507 0
M  V30 4478 H 415.867 -0.75052 1.26513 0
M  V30 4479 H 417.825 -3.84207 1.62606 0
M  V30 4480 H 416.455 -3.14637 0.721341 0
M  V30 4481 H 415.507 -2.33659 3.00179 0
M  V30 4482 H 416.819 -3.23402 3.79753 0
M  V30 4483 H 415.973 -5.37475 2.81434 0
M  V30 4484 H 414.712 -4.4856 1.91431 0
M  V30 4485 H 413.717 -3.68864 4.077 0
M  V30 4486 H 414.942 -4.61124 4.98539 0
M  V30 4487 H 412.888 -5.79314 3.07785 0
M  V30 4488 H 412.805 -5.83367 4.80853 0
M  V30 4489 H 414.073 -6.69637 3.99007 0
M  V30 4490 N 418.302 -1.35869 -0.798587 0
M  V30 4491 C 419.579 -1.20145 -1.54352 0
M  V30 4492 C 419.959 0.216161 -2.0999 0
M  V30 4493 O 419.307 1.22068 -1.93162 0
M  V30 4494 C 419.517 -2.27602 -2.64572 0
M  V30 4495 C 420.865 -2.63811 -3.32699 0
M  V30 4496 O 421.889 -2.26576 -2.74849 0
M  V30 4497 O 420.748 -3.27866 -4.37226 0
M  V30 4498 H 417.842 -0.467248 -0.682355 0
M  V30 4499 H 420.388 -1.47574 -0.837859 0
M  V30 4500 H 419.16 -3.2265 -2.21388 0
M  V30 4501 H 418.783 -2.01488 -3.42766 0
M  V30 4502 N 419.78 1.02168 -1.19998 0
M  V30 4503 C 421.191 1.57135 -1.00825 0
M  V30 4504 C 421.542 1.91276 0.436818 0
M  V30 4505 O 420.667 1.71679 1.3174 0
M  V30 4506 C 421.262 2.85514 -1.82393 0
M  V30 4507 C 419.821 3.37027 -1.67601 0
M  V30 4508 C 418.968 2.10388 -1.80644 0
M  V30 4509 H 421.919 0.846106 -1.34264 0
M  V30 4510 H 421.94 3.56711 -1.32429 0
M  V30 4511 H 421.452 2.60634 -2.87561 0
M  V30 4512 H 419.553 3.66878 -0.650485 0
M  V30 4513 H 419.666 4.09572 -2.4857 0
M  V30 4514 H 418.03 2.22601 -1.23778 0
M  V30 4515 H 418.813 1.8794 -2.87286 0
M  V30 4516 N 421.258 1.00505 1.21394 0
M  V30 4517 C 422.674 0.717873 1.42544 0
M  V30 4518 C 422.874 -0.706936 1.88692 0
M  V30 4519 O 421.93 -1.47627 2.04847 0
M  V30 4520 C 423.243 1.73377 2.45684 0
M  V30 4521 C 424.791 1.75059 2.59467 0
M  V30 4522 C 425.266 2.75545 3.6584 0
M  V30 4523 N 426.757 2.74213 3.73311 0
M  V30 4524 C 427.492 3.48626 4.55245 0
M  V30 4525 N 426.988 4.32678 5.41075 0
M  V30 4526 N 428.781 3.37276 4.49668 0
M  V30 4527 H 420.932 1.92506 0.897503 0
M  V30 4528 H 423.195 0.830919 0.456375 0
M  V30 4529 H 422.901 2.75395 2.18748 0
M  V30 4530 H 422.775 1.53647 3.44489 0
M  V30 4531 H 425.162 0.737337 2.8574 0
M  V30 4532 H 425.243 1.98861 1.60897 0
M  V30 4533 H 424.887 3.77028 3.40313 0
M  V30 4534 H 424.817 2.49009 4.64007 0
M  V30 4535 H 427.308 2.13234 3.11993 0
M  V30 4536 H 427.621 4.86253 6.00648 0
M  V30 4537 H 425.966 4.3676 5.40616 0
M  V30 4538 H 429.157 2.71043 3.81646 0
M  V30 4539 H 429.33 3.95524 5.13288 0
M  V30 4540 N 422.737 -1.36956 0.779787 0
M  V30 4541 C 423.684 -2.30175 0.169697 0
M  V30 4542 C 424.654 -1.51501 -0.68094 0
M  V30 4543 O 425.839 -1.80042 -0.631629 0
M  V30 4544 C 422.979 -3.37985 -0.697131 0
M  V30 4545 C 422.092 -4.31661 0.170992 0
M  V30 4546 C 421.227 -5.2655 -0.701298 0
M  V30 4547 C 420.266 -6.11867 0.168869 0
M  V30 4548 N 419.403 -6.98973 -0.661855 0
M  V30 4549 H 424.243 -2.81767 0.970135 0
M  V30 4550 H 421.78 -1.38699 0.489994 0
M  V30 4551 H 423.738 -3.99128 -1.2146 0
M  V30 4552 H 422.368 -2.87739 -1.46309 0
M  V30 4553 H 421.42 -3.71756 0.80634 0
M  V30 4554 H 422.732 -4.91644 0.841875 0
M  V30 4555 H 421.886 -5.92937 -1.28494 0
M  V30 4556 H 420.625 -4.66998 -1.40584 0
M  V30 4557 H 419.63 -5.44452 0.764986 0
M  V30 4558 H 420.855 -6.73493 0.870863 0
M  V30 4559 H 418.801 -6.41941 -1.35086 0
M  V30 4560 H 418.718 -7.55984 -0.0484447 0
M  V30 4561 H 419.986 -7.6974 -1.22963 0
M  V30 4562 N 424.215 -0.530993 -1.48385 0
M  V30 4563 C 425.462 0.0027373 -2.025 0
M  V30 4564 C 425.79 1.34186 -1.40799 0
M  V30 4565 O 425.045 1.88 -0.543544 0
M  V30 4566 C 425.344 0.172742 -3.56982 0
M  V30 4567 C 425.01 -1.09215 -4.37473 0
M  V30 4568 C 423.672 -1.43881 -4.59186 0
M  V30 4569 C 426.024 -1.93153 -4.84088 0
M  V30 4570 C 423.352 -2.62381 -5.2476 0
M  V30 4571 C 425.704 -3.10833 -5.50968 0
M  V30 4572 C 424.368 -3.45843 -5.70919 0
M  V30 4573 H 423.638 0.00100165 -0.740999 0
M  V30 4574 H 426.285 -0.697219 -1.78357 0
M  V30 4575 H 424.59 0.955473 -3.79971 0
M  V30 4576 H 426.287 0.600642 -3.96476 0
M  V30 4577 H 422.877 -0.812177 -4.20834 0
M  V30 4578 H 427.061 -1.67683 -4.67115 0
M  V30 4579 H 422.317 -2.89707 -5.38405 0
M  V30 4580 H 426.491 -3.7618 -5.86056 0
M  V30 4581 H 424.118 -4.37764 -6.21503 0
M  V30 4582 N 425.693 1.55336 -0.266172 0
M  V30 4583 C 427.104 1.85236 0.233315 0
M  V30 4584 C 427.455 1.18816 1.56132 0
M  V30 4585 O 426.58 0.473307 2.11161 0
M  V30 4586 C 427.175 3.36059 0.430113 0
M  V30 4587 C 425.734 3.66116 0.873842 0
M  V30 4588 C 424.881 2.77274 -0.0380016 0
M  V30 4589 H 427.832 1.51004 -0.488214 0
M  V30 4590 H 427.853 3.58681 1.26998 0
M  V30 4591 H 427.365 3.84373 -0.536588 0
M  V30 4592 H 425.466 3.23295 1.85233 0
M  V30 4593 H 425.579 4.73699 0.717358 0
M  V30 4594 H 423.943 2.50198 0.476759 0
M  V30 4595 H 424.726 3.284 -1.00042 0
M  V30 4596 N 427.171 -0.0066808 1.57599 0
M  V30 4597 C 428.101 -0.999296 2.11036 0
M  V30 4598 C 429.082 -1.36278 1.01795 0
M  V30 4599 O 430.267 -1.4477 1.29442 0
M  V30 4600 C 427.397 -2.29328 2.60818 0
M  V30 4601 C 426.351 -2.07159 3.74525 0
M  V30 4602 C 425.677 -3.42512 4.10596 0
M  V30 4603 C 426.977 -1.43959 5.02069 0
M  V30 4604 H 428.671 -0.554382 2.94223 0
M  V30 4605 H 426.217 -0.265221 1.41536 0
M  V30 4606 H 428.17 -2.99117 2.96828 0
M  V30 4607 H 426.894 -2.7592 1.74745 0
M  V30 4608 H 425.553 -1.39797 3.38899 0
M  V30 4609 H 425.201 -3.86795 3.21556 0
M  V30 4610 H 424.901 -3.28498 4.87199 0
M  V30 4611 H 426.425 -4.13628 4.4916 0
M  V30 4612 H 427.839 -2.03696 5.35893 0
M  V30 4613 H 426.236 -1.40452 5.83432 0
M  V30 4614 H 427.306 -0.407992 4.83181 0
M  V30 4615 N 428.649 -1.55105 -0.279332 0
M  V30 4616 C 429.898 -1.74618 -1.00952 0
M  V30 4617 C 430.211 -0.551096 -1.87676 0
M  V30 4618 O 431.417 -0.628507 -2.64125 0
M  V30 4619 C 429.873 -3.09025 -1.84476 0
M  V30 4620 C 429.481 -4.36081 -1.0265 0
M  V30 4621 C 431.225 -3.37891 -2.56963 0
M  V30 4622 C 429.132 -5.6153 -1.85576 0
M  V30 4623 H 428.062 -0.650868 -0.38064 0
M  V30 4624 H 430.713 -1.81569 -0.265475 0
M  V30 4625 H 429.095 -2.96095 -2.62952 0
M  V30 4626 H 430.269 -4.59909 -0.286354 0
M  V30 4627 H 428.584 -4.14312 -0.416464 0
M  V30 4628 H 431.181 -4.28822 -3.19399 0
M  V30 4629 H 431.524 -2.57737 -3.26921 0
M  V30 4630 H 432.057 -3.5189 -1.85522 0
M  V30 4631 H 428.796 -6.44413 -1.2005 0
M  V30 4632 H 428.316 -5.41854 -2.57204 0
M  V30 4633 H 429.995 -5.99594 -2.43096 0
M  V30 4634 N 430.127 0.543554 -1.4793 0
M  V30 4635 C 431.057 1.65888 -1.64327 0
M  V30 4636 C 432.038 1.62818 -0.492383 0
M  V30 4637 O 433.223 1.80226 -0.723338 0
M  V30 4638 C 430.353 3.04506 -1.67013 0
M  V30 4639 C 429.307 3.2243 -2.81466 0
M  V30 4640 C 428.633 4.61972 -2.69233 0
M  V30 4641 C 429.933 3.06496 -4.22915 0
M  V30 4642 H 431.627 1.52421 -2.57698 0
M  V30 4643 H 429.173 0.731849 -1.24016 0
M  V30 4644 H 431.126 3.82391 -1.77074 0
M  V30 4645 H 429.85 3.18964 -0.70212 0
M  V30 4646 H 428.509 2.46957 -2.70938 0
M  V30 4647 H 428.157 4.73247 -1.7043 0
M  V30 4648 H 427.857 4.74911 -3.46025 0
M  V30 4649 H 429.381 5.41974 -2.81242 0
M  V30 4650 H 430.795 3.74186 -4.34348 0
M  V30 4651 H 429.192 3.30938 -5.006 0
M  V30 4652 H 430.262 2.03077 -4.40327 0
M  V30 4653 N 431.605 1.3629 0.791371 0
M  V30 4654 C 432.835 1.33368 1.57786 0
M  V30 4655 C 433.243 -0.0875188 1.88997 0
M  V30 4656 O 432.586 -1.05427 1.50435 0
M  V30 4657 C 432.648 2.08802 2.92646 0
M  V30 4658 C 432.312 3.57903 2.84174 0
M  V30 4659 C 433.309 4.52191 2.56553 0
M  V30 4660 C 430.994 4.00762 3.02812 0
M  V30 4661 C 432.988 5.87315 2.47669 0
M  V30 4662 C 430.675 5.35977 2.93551 0
M  V30 4663 C 431.673 6.29066 2.66017 0
M  V30 4664 O 431.361 7.61798 2.56746 0
M  V30 4665 H 431.093 0.459166 0.496128 0
M  V30 4666 H 433.647 1.79952 0.990269 0
M  V30 4667 H 431.877 1.56878 3.53449 0
M  V30 4668 H 433.566 1.98762 3.53904 0
M  V30 4669 H 434.332 4.20393 2.41858 0
M  V30 4670 H 430.211 3.2868 3.2325 0
M  V30 4671 H 433.755 6.59943 2.26099 0
M  V30 4672 H 429.652 5.67384 3.07808 0
M  V30 4673 H 430.42 7.71898 2.72242 0
M  V30 4674 N 433.083 -1.0153 1.20538 0
M  V30 4675 C 434.013 -2.11972 0.979295 0
M  V30 4676 C 434.994 -1.6985 -0.0921787 0
M  V30 4677 O 436.179 -1.94089 0.0655932 0
M  V30 4678 C 433.309 -3.43201 0.531984 0
M  V30 4679 C 432.263 -3.9907 1.54685 0
M  V30 4680 C 431.589 -5.26082 0.956127 0
M  V30 4681 C 432.889 -4.32313 2.93092 0
M  V30 4682 H 434.583 -2.31143 1.90298 0
M  V30 4683 H 432.129 -1.11079 0.916372 0
M  V30 4684 H 434.082 -4.1985 0.361044 0
M  V30 4685 H 432.806 -3.23792 -0.427327 0
M  V30 4686 H 431.465 -3.2453 1.70517 0
M  V30 4687 H 431.113 -5.02999 -0.0111538 0
M  V30 4688 H 430.813 -5.64426 1.63393 0
M  V30 4689 H 432.337 -6.05386 0.796284 0
M  V30 4690 H 433.751 -4.99845 2.80763 0
M  V30 4691 H 432.148 -4.81774 3.57791 0
M  V30 4692 H 433.218 -3.41025 3.44717 0
M  V30 4693 N 434.561 -1.01147 -1.20859 0
M  V30 4694 C 435.809 -0.696486 -1.89719 0
M  V30 4695 C 436.13 0.775788 -1.78904 0
M  V30 4696 O 435.4 1.55759 -1.18811 0
M  V30 4697 H 433.98 -0.254628 -0.702263 0
M  V30 4698 H 436.642 -1.28197 -1.46804 0
M  V30 4699 H 435.738 -0.975357 -2.96468 0
M  V30 4700 N 436.039 1.36541 -0.78704 0
M  V30 4701 C 436.972 2.27831 -0.129765 0
M  V30 4702 C 437.95 1.47105 0.692732 0
M  V30 4703 O 439.134 1.7641 0.664222 0
M  V30 4704 C 436.261 3.28577 0.821883 0
M  V30 4705 C 435.307 4.26422 0.0814771 0
M  V30 4706 S 436.14 5.20919 -1.24112 0
M  V30 4707 C 437.296 6.25212 -0.293409 0
M  V30 4708 H 437.529 2.83229 -0.903811 0
M  V30 4709 H 435.062 1.43046 -0.581144 0
M  V30 4710 H 437.02 3.87123 1.3655 0
M  V30 4711 H 435.681 2.72096 1.56916 0
M  V30 4712 H 434.874 4.97554 0.803485 0
M  V30 4713 H 434.476 3.71944 -0.391589 0
M  V30 4714 H 436.768 6.75435 0.528622 0
M  V30 4715 H 437.711 7.01378 -0.973344 0
M  V30 4716 H 438.119 5.64407 0.102196 0
M  V30 4717 N 437.518 0.538854 1.48102 0
M  V30 4718 C 438.764 0.00801365 2.02798 0
M  V30 4719 C 439.097 -1.3309 1.41424 0
M  V30 4720 O 438.372 -1.86169 0.563158 0
M  V30 4721 C 438.655 -0.104589 3.59948 0
M  V30 4722 C 438.508 1.26012 4.31788 0
M  V30 4723 C 439.827 -0.827055 4.32259 0
M  V30 4724 H 436.946 0.00438624 0.736987 0
M  V30 4725 H 439.588 0.6976 1.7673 0
M  V30 4726 H 437.738 -0.691893 3.82289 0
M  V30 4727 H 439.41 1.88922 4.2084 0
M  V30 4728 H 437.653 1.83968 3.92859 0
M  V30 4729 H 438.324 1.13424 5.40221 0
M  V30 4730 H 440.8 -0.328578 4.14801 0
M  V30 4731 H 439.676 -0.87476 5.41885 0
M  V30 4732 H 439.937 -1.87927 4.0017 0
M  V30 4733 N 438.996 -1.55193 0.274407 0
M  V30 4734 C 440.245 -1.98758 -0.343213 0
M  V30 4735 C 440.558 -1.16624 -1.5703 0
M  V30 4736 O 441.764 -1.5033 -2.26082 0
M  V30 4737 C 440.22 -3.53759 -0.661996 0
M  V30 4738 C 439.828 -4.4467 0.54524 0
M  V30 4739 C 441.572 -4.05916 -1.24228 0
M  V30 4740 C 439.479 -5.91058 0.201084 0
M  V30 4741 H 438.409 -0.742353 -0.132014 0
M  V30 4742 H 441.06 -1.79545 0.378948 0
M  V30 4743 H 439.442 -3.68772 -1.44304 0
M  V30 4744 H 440.616 -4.41426 1.32212 0
M  V30 4745 H 438.931 -4.03143 1.04232 0
M  V30 4746 H 441.528 -5.12831 -1.51357 0
M  V30 4747 H 441.871 -3.54908 -2.17592 0
M  V30 4748 H 442.404 -3.9434 -0.523542 0
M  V30 4749 H 439.143 -6.46161 1.10258 0
M  V30 4750 H 438.663 -5.97373 -0.539045 0
M  V30 4751 H 440.342 -6.46669 -0.206954 0
M  V30 4752 N 440.474 -0.00167713 -1.576 0
M  V30 4753 C 441.72 0.683832 -1.90923 0
M  V30 4754 C 442.053 1.7333 -0.875799 0
M  V30 4755 O 441.328 1.94215 0.10525 0
M  V30 4756 C 441.611 1.32543 -3.3482 0
M  V30 4757 C 441.464 0.287387 -4.48881 0
M  V30 4758 C 442.783 2.25114 -3.78169 0
M  V30 4759 H 439.902 0.247125 -0.694333 0
M  V30 4760 H 442.544 -0.0533149 -1.89925 0
M  V30 4761 H 440.694 1.95372 -3.35801 0
M  V30 4762 H 442.366 -0.341346 -4.60035 0
M  V30 4763 H 440.609 -0.39017 -4.32042 0
M  V30 4764 H 441.28 0.775393 -5.46527 0
M  V30 4765 H 443.756 1.723 -3.7875 0
M  V30 4766 H 442.632 2.66971 -4.79602 0
M  V30 4767 H 442.893 3.13092 -3.12131 0
M  V30 4768 N 441.952 1.55251 0.271103 0
M  V30 4769 C 443.18 1.79974 1.02064 0
M  V30 4770 C 443.595 0.574003 1.79863 0
M  V30 4771 O 442.952 -0.456962 1.76686 0
M  V30 4772 C 443.003 3.02603 1.97772 0
M  V30 4773 O 442.724 4.20443 1.23124 0
M  V30 4774 C 444.225 3.39944 2.84522 0
M  V30 4775 H 441.445 0.599489 0.301419 0
M  V30 4776 H 443.989 2.02268 0.301313 0
M  V30 4777 H 442.144 2.8243 2.65165 0
M  V30 4778 H 442.558 4.89783 1.87651 0
M  V30 4779 H 444.032 4.28915 3.47471 0
M  V30 4780 H 444.509 2.59432 3.54389 0
M  V30 4781 H 445.115 3.62383 2.22618 0
M  V30 4782 N 443.43 -0.535701 1.48216 0
M  V30 4783 C 444.679 -1.28828 1.55197 0
M  V30 4784 C 444.992 -1.94263 0.228278 0
M  V30 4785 O 446.198 -2.70927 0.176278 0
M  V30 4786 C 444.654 -2.33727 2.73678 0
M  V30 4787 C 444.262 -1.74386 4.12666 0
M  V30 4788 C 446.006 -3.1003 2.89968 0
M  V30 4789 C 443.913 -2.77192 5.22416 0
M  V30 4790 H 442.843 -0.484484 0.577747 0
M  V30 4791 H 445.494 -0.56646 1.74538 0
M  V30 4792 H 443.876 -3.08919 2.4776 0
M  V30 4793 H 445.05 -1.05421 4.48579 0
M  V30 4794 H 443.365 -1.10595 4.01445 0
M  V30 4795 H 445.962 -3.86842 3.6913 0
M  V30 4796 H 446.305 -3.65542 1.9921 0
M  V30 4797 H 446.838 -2.41952 3.15759 0
M  V30 4798 H 443.577 -2.26507 6.15122 0
M  V30 4799 H 443.097 -3.44502 4.90998 0
M  V30 4800 H 444.776 -3.40285 5.50286 0
M  V30 4801 N 444.908 -1.36708 -0.784132 0
M  V30 4802 C 445.838 -1.34153 -1.91116 0
M  V30 4803 C 446.819 -0.212121 -1.68772 0
M  V30 4804 O 448.004 -0.410581 -1.8981 0
M  V30 4805 C 445.134 -1.13535 -3.28218 0
M  V30 4806 C 444.088 -2.23356 -3.65097 0
M  V30 4807 C 443.414 -1.87875 -5.00607 0
M  V30 4808 C 444.714 -3.65473 -3.73131 0
M  V30 4809 H 446.408 -2.28459 -1.93512 0
M  V30 4810 H 443.954 -1.09973 -0.929618 0
M  V30 4811 H 445.907 -1.10381 -4.06687 0
M  V30 4812 H 444.631 -0.156804 -3.26223 0
M  V30 4813 H 443.29 -2.25645 -2.88929 0
M  V30 4814 H 442.938 -0.885814 -4.95139 0
M  V30 4815 H 442.638 -2.61406 -5.26252 0
M  V30 4816 H 444.162 -1.86286 -5.81489 0
M  V30 4817 H 445.576 -3.65382 -4.41779 0
M  V30 4818 H 443.973 -4.37953 -4.10265 0
M  V30 4819 H 445.043 -3.99995 -2.74102 0
M  V30 4820 N 446.386 1.0089 -1.21074 0
M  V30 4821 C 447.616 1.77933 -1.04993 0
M  V30 4822 C 448.024 1.84847 0.403495 0
M  V30 4823 O 447.367 1.30606 1.29181 0
M  V30 4824 C 447.429 3.23541 -1.56722 0
M  V30 4825 C 447.093 3.40214 -3.05129 0
M  V30 4826 C 448.09 3.2881 -4.02716 0
M  V30 4827 C 445.775 3.65781 -3.44252 0
M  V30 4828 C 447.769 3.42732 -5.37414 0
M  V30 4829 C 445.456 3.79346 -4.79103 0
M  V30 4830 C 446.454 3.67827 -5.75493 0
M  V30 4831 O 446.142 3.80965 -7.07899 0
M  V30 4832 H 445.874 0.566157 -0.369381 0
M  V30 4833 H 448.428 1.27826 -1.60779 0
M  V30 4834 H 446.658 3.74766 -0.953285 0
M  V30 4835 H 448.347 3.82245 -1.36543 0
M  V30 4836 H 449.113 3.08986 -3.73835 0
M  V30 4837 H 444.992 3.73831 -2.69762 0
M  V30 4838 H 448.536 3.33658 -6.12632 0
M  V30 4839 H 444.433 3.98672 -5.07672 0
M  V30 4840 H 445.201 3.97937 -7.15254 0
M  V30 4841 N 447.864 1.01787 1.20321 0
M  V30 4842 C 449.113 0.703249 1.89043 0
M  V30 4843 C 449.426 -0.770445 1.79787 0
M  V30 4844 O 450.632 -1.19767 2.43656 0
M  V30 4845 C 449.088 1.20749 3.3904 0
M  V30 4846 C 448.696 2.70817 3.56878 0
M  V30 4847 C 450.44 0.968352 4.13308 0
M  V30 4848 C 448.347 3.14716 5.00708 0
M  V30 4849 H 447.277 0.259354 0.707991 0
M  V30 4850 H 449.928 1.23072 1.36108 0
M  V30 4851 H 448.31 0.607989 3.91305 0
M  V30 4852 H 449.484 3.36327 3.14993 0
M  V30 4853 H 447.799 2.92888 2.95983 0
M  V30 4854 H 450.396 1.27173 5.19356 0
M  V30 4855 H 450.739 -0.095149 4.16191 0
M  V30 4856 H 451.272 1.53129 3.67146 0
M  V30 4857 H 448.011 4.20347 5.02979 0
M  V30 4858 H 447.531 2.53927 5.43398 0
M  V30 4859 H 449.21 3.07426 5.69296 0
M  V30 4860 N 449.342 -1.36122 0.79427 0
M  V30 4861 C 450.567 -2.03891 0.379871 0
M  V30 4862 C 450.992 -1.59488 -0.997251 0
M  V30 4863 O 450.35 -0.765652 -1.64339 0
M  V30 4864 C 450.398 -3.57687 0.457442 0
M  V30 4865 O 449.502 -4.08931 -0.5338 0
M  V30 4866 H 448.843 -0.6443 0.160541 0
M  V30 4867 H 451.373 -1.73976 1.07673 0
M  V30 4868 H 451.383 -4.06721 0.322792 0
M  V30 4869 H 450.058 -3.89357 1.46199 0
M  V30 4870 H 448.635 -3.71154 -0.360409 0
M  V30 4871 N 450.82 -0.546701 -1.47814 0
M  V30 4872 C 451.75 0.195317 -2.32682 0
M  V30 4873 C 452.731 0.918981 -1.43139 0
M  V30 4874 O 453.916 0.901501 -1.72008 0
M  V30 4875 C 451.046 1.23237 -3.247 0
M  V30 4876 C 450 0.625818 -4.234 0
M  V30 4877 C 449.326 1.76674 -5.04669 0
M  V30 4878 C 450.626 -0.413515 -5.2066 0
M  V30 4879 H 452.32 -0.513184 -2.94969 0
M  V30 4880 H 449.866 -0.248241 -1.41844 0
M  V30 4881 H 451.819 1.75955 -3.82907 0
M  V30 4882 H 450.543 1.97067 -2.60446 0
M  V30 4883 H 449.202 0.120023 -3.66403 0
M  V30 4884 H 448.85 2.49383 -4.36826 0
M  V30 4885 H 448.55 1.36673 -5.71484 0
M  V30 4886 H 450.074 2.29738 -5.65732 0
M  V30 4887 H 451.488 0.0272042 -5.73294 0
M  V30 4888 H 449.885 -0.731825 -5.95621 0
M  V30 4889 H 450.955 -1.31325 -4.66778 0
M  V30 4890 N 452.299 1.55045 -0.282633 0
M  V30 4891 C 453.547 1.99365 0.331334 0
M  V30 4892 C 453.868 1.1725 1.55812 0
M  V30 4893 O 453.138 0.263871 1.94115 0
M  V30 4894 H 451.718 0.736397 0.125414 0
M  V30 4895 H 454.38 1.90964 -0.389711 0
M  V30 4896 H 453.476 3.0596 0.616036 0
M  V30 4897 N 453.777 0.010035 1.57597 0
M  V30 4898 C 455.017 -0.677084 1.9286 0
M  V30 4899 C 455.381 -1.70377 0.885192 0
M  V30 4900 O 456.582 -2.44199 1.12339 0
M  V30 4901 C 454.853 -1.29452 3.33132 0
M  V30 4902 S 456.412 -2.00537 3.90295 0
M  V30 4903 H 453.23 -0.223409 0.674989 0
M  V30 4904 H 455.832 0.0691289 1.95378 0
M  V30 4905 H 454.536 -0.534593 4.06903 0
M  V30 4906 H 454.067 -2.07845 3.34012 0
M  V30 4907 H 456.082 -3.28168 3.72183 0
M  V30 4908 N 455.255 -1.55392 -0.262866 0
M  V30 4909 C 456.185 -1.91978 -1.32917 0
M  V30 4910 C 457.166 -0.7828 -1.51017 0
M  V30 4911 O 458.351 -1.04178 -1.63892 0
M  V30 4912 C 455.481 -2.20055 -2.68687 0
M  V30 4913 C 454.435 -3.35854 -2.65304 0
M  V30 4914 C 453.761 -3.49435 -4.04721 0
M  V30 4915 C 455.061 -4.71977 -2.23685 0
M  V30 4916 H 456.755 -2.81292 -1.02544 0
M  V30 4917 H 454.301 -1.3534 -0.491846 0
M  V30 4918 H 456.254 -2.44237 -3.43404 0
M  V30 4919 H 454.978 -1.27551 -3.00663 0
M  V30 4920 H 453.637 -3.11655 -1.93045 0
M  V30 4921 H 453.285 -2.54379 -4.33936 0
M  V30 4922 H 452.985 -4.27297 -4.0335 0
M  V30 4923 H 454.509 -3.7592 -4.81161 0
M  V30 4924 H 455.923 -4.95637 -2.88127 0
M  V30 4925 H 454.32 -5.52828 -2.33456 0
M  V30 4926 H 455.39 -4.70115 -1.18827 0
M  V30 4927 N 456.733 0.527833 -1.48498 0
M  V30 4928 C 457.981 1.28101 -1.56316 0
M  V30 4929 C 458.302 1.9352 -0.239781 0
M  V30 4930 O 457.572 1.81433 0.738849 0
M  V30 4931 H 456.152 0.475793 -0.575873 0
M  V30 4932 H 458.814 0.614052 -1.84974 0
M  V30 4933 H 457.91 2.05916 -2.34532 0
M  V30 4934 N 458.211 1.37122 0.776871 0
M  V30 4935 C 459.441 1.35034 1.56363 0
M  V30 4936 C 459.849 -0.0674681 1.8908 0
M  V30 4937 O 459.192 -1.03826 1.51545 0
M  V30 4938 C 459.254 2.11894 2.90415 0
M  V30 4939 C 458.918 3.60897 2.80362 0
M  V30 4940 C 459.915 4.54887 2.51742 0
M  V30 4941 C 457.6 4.03951 2.98545 0
M  V30 4942 C 459.594 5.89909 2.41426 0
M  V30 4943 C 457.281 5.3906 2.87849 0
M  V30 4944 C 458.279 6.31852 2.5933 0
M  V30 4945 O 457.967 7.64479 2.48651 0
M  V30 4946 H 457.699 0.464402 0.49123 0
M  V30 4947 H 460.253 1.80992 0.971127 0
M  V30 4948 H 458.483 1.60618 3.51765 0
M  V30 4949 H 460.172 2.02505 3.51776 0
M  V30 4950 H 460.938 4.22934 2.37385 0
M  V30 4951 H 456.817 3.3209 3.19746 0
M  V30 4952 H 460.361 6.62304 2.19086 0
M  V30 4953 H 456.258 5.70617 3.01773 0
M  V30 4954 H 457.026 7.74742 2.64039 0
M  V30 4955 N 459.689 -1.00246 1.21608 0
M  V30 4956 C 460.619 -2.10921 1.00172 0
M  V30 4957 C 461.6 -1.69938 -0.0741587 0
M  V30 4958 O 462.785 -1.94009 0.0861753 0
M  V30 4959 C 459.915 -3.42618 0.568355 0
M  V30 4960 C 458.869 -3.97407 1.58909 0
M  V30 4961 C 458.195 -5.25038 1.01187 0
M  V30 4962 C 459.495 -4.2918 2.97661 0
M  V30 4963 H 461.189 -2.29112 1.92739 0
M  V30 4964 H 458.735 -1.10101 0.928102 0
M  V30 4965 H 460.688 -4.19444 0.405555 0
M  V30 4966 H 459.412 -3.24227 -0.392961 0
M  V30 4967 H 458.071 -3.22703 1.73949 0
M  V30 4968 H 457.719 -5.02982 0.0421965 0
M  V30 4969 H 457.419 -5.62661 1.6937 0
M  V30 4970 H 458.943 -6.04507 0.860448 0
M  V30 4971 H 460.357 -4.96839 2.86049 0
M  V30 4972 H 458.754 -4.77952 3.6288 0
M  V30 4973 H 459.824 -3.3735 3.48315 0
M  V30 4974 N 461.167 -1.02423 -1.1978 0
M  V30 4975 C 462.099 -0.559152 -2.22275 0
M  V30 4976 C 463.112 0.36251 -1.58713 0
M  V30 4977 O 464.301 0.159641 -1.77785 0
M  V30 4978 C 461.401 0.205094 -3.38279 0
M  V30 4979 C 460.574 -0.720361 -4.31427 0
M  V30 4980 C 459.633 -0.00234368 -5.262 0
M  V30 4981 O 458.659 -0.627378 -5.65732 0
M  V30 4982 N 459.861 1.26996 -5.66438 0
M  V30 4983 H 462.626 -1.44064 -2.62804 0
M  V30 4984 H 460.187 -0.902692 -1.34399 0
M  V30 4985 H 462.179 0.694868 -3.9869 0
M  V30 4986 H 460.749 0.987947 -2.96578 0
M  V30 4987 H 459.969 -1.39031 -3.68869 0
M  V30 4988 H 461.257 -1.3495 -4.90577 0
M  V30 4989 H 460.655 1.79858 -5.36347 0
M  V30 4990 H 459.212 1.70432 -6.29123 0
M  V30 4991 N 462.645 1.35699 -0.801477 0
M  V30 4992 C 463.892 1.98913 -0.379459 0
M  V30 4993 C 464.22 1.63592 1.05204 0
M  V30 4994 O 463.475 0.888563 1.74365 0
M  V30 4995 C 463.774 3.53828 -0.504041 0
M  V30 4996 C 463.44 4.09002 -1.8981 0
M  V30 4997 C 462.102 4.23783 -2.27951 0
M  V30 4998 C 464.454 4.38939 -2.81038 0
M  V30 4999 C 461.782 4.65816 -3.56696 0
M  V30 5000 C 464.134 4.82409 -4.09224 0
M  V30 5001 C 462.798 4.95395 -4.4737 0
M  V30 5002 H 462.068 0.727874 -0.138854 0
M  V30 5003 H 464.715 1.61994 -1.02128 0
M  V30 5004 H 463.02 3.91175 0.221242 0
M  V30 5005 H 464.717 4.00687 -0.158361 0
M  V30 5006 H 461.307 3.97946 -1.59176 0
M  V30 5007 H 465.491 4.27077 -2.52821 0
M  V30 5008 H 460.747 4.74059 -3.86106 0
M  V30 5009 H 464.921 5.04535 -4.80018 0
M  V30 5010 H 462.548 5.27724 -5.47185 0
M  V30 5011 N 464.123 0.554532 1.47522 0
M  V30 5012 C 465.371 0.0294208 2.02079 0
M  V30 5013 C 465.692 -1.32411 1.43151 0
M  V30 5014 O 464.962 -1.863 0.605728 0
M  V30 5015 H 463.542 0.00788672 0.746958 0
M  V30 5016 H 466.204 0.723934 1.80956 0
M  V30 5017 H 465.3 -0.0606745 3.12041 0
M  V30 5018 N 465.601 -1.54893 0.290851 0
M  V30 5019 C 466.564 -2.21824 -0.576784 0
M  V30 5020 C 467.564 -1.20104 -1.06919 0
M  V30 5021 O 468.754 -1.44906 -0.966843 0
M  V30 5022 C 465.886 -2.89662 -1.79747 0
M  V30 5023 H 467.079 -2.99899 0.00784051 0
M  V30 5024 H 464.632 -1.56245 0.0415934 0
M  V30 5025 H 465.367 -2.15639 -2.42219 0
M  V30 5026 H 465.152 -3.64219 -1.45214 0
M  V30 5027 H 466.642 -3.4075 -2.4141 0
M  V30 5028 N 467.08 -0.0183926 -1.57589 0
M  V30 5029 C 468.028 0.985111 -2.10709 0
M  V30 5030 C 469.022 1.34397 -1.0312 0
M  V30 5031 O 470.228 1.32746 -1.21567 0
M  V30 5032 H 466.603 0.335418 -0.673052 0
M  V30 5033 H 468.574 0.511689 -2.9398 0
M  V30 5034 C 467.323 2.26202 -2.64061 0
M  V30 5035 H 466.646 1.9946 -3.4649 0
M  V30 5036 H 468.086 2.94652 -3.04887 0
M  V30 5037 C 466.545 2.98444 -1.5631 0
M  V30 5038 O 467.075 3.90142 -0.956674 0
M  V30 5039 N 465.281 2.6059 -1.28612 0
M  V30 5040 H 464.828 1.86101 -1.78112 0
M  V30 5041 H 464.786 3.09238 -0.567406 0
M  V30 5042 N 468.558 1.5553 0.254621 0
M  V30 5043 C 469.807 1.76202 0.981612 0
M  V30 5044 C 470.12 0.580883 1.86776 0
M  V30 5045 O 471.326 0.670448 2.63092 0
M  V30 5046 C 469.782 3.11921 1.79537 0
M  V30 5047 C 469.39 4.37659 0.956991 0
M  V30 5048 C 471.134 3.41936 2.51555 0
M  V30 5049 C 469.041 5.64411 1.76619 0
M  V30 5050 H 467.971 0.656841 0.370237 0
M  V30 5051 H 470.622 1.81969 0.236556 0
M  V30 5052 H 469.004 3.00241 2.58208 0
M  V30 5053 H 470.178 4.60307 0.21315 0
M  V30 5054 H 468.493 4.14922 0.350497 0
M  V30 5055 H 471.09 4.33849 3.12536 0
M  V30 5056 H 471.433 2.62905 3.22779 0
M  V30 5057 H 471.966 3.54797 1.799 0
M  V30 5058 H 468.705 6.46241 1.09783 0
M  V30 5059 H 468.225 5.45877 2.48551 0
M  V30 5060 H 469.904 6.03386 2.33527 0
M  V30 5061 N 470.036 -0.519951 1.48776 0
M  V30 5062 C 470.968 -1.63973 1.60142 0
M  V30 5063 C 471.981 -1.55404 0.485117 0
M  V30 5064 O 473.17 -1.61682 0.756391 0
M  V30 5065 C 470.27 -3.02676 1.52449 0
M  V30 5066 C 469.443 -3.36624 2.79291 0
M  V30 5067 C 468.502 -4.54652 2.64912 0
M  V30 5068 O 467.528 -4.57374 3.38818 0
M  V30 5069 N 468.73 -5.53432 1.75195 0
M  V30 5070 H 471.495 -1.54656 2.56713 0
M  V30 5071 H 469.056 -0.707439 1.45626 0
M  V30 5072 H 471.048 -3.79525 1.4051 0
M  V30 5073 H 469.618 -3.06018 0.638125 0
M  V30 5074 H 468.838 -2.48855 3.0572 0
M  V30 5075 H 470.126 -3.56094 3.6342 0
M  V30 5076 H 469.524 -5.54018 1.14371 0
M  V30 5077 H 468.081 -6.29459 1.69189 0
M  V30 5078 N 471.514 -1.37532 -0.769588 0
M  V30 5079 C 472.762 -1.32597 -1.5252 0
M  V30 5080 C 473.083 0.0884294 -1.94799 0
M  V30 5081 O 472.353 1.03289 -1.66458 0
M  V30 5082 H 470.933 -0.487846 -0.565699 0
M  V30 5083 H 473.595 -1.72044 -0.915806 0
M  V30 5084 H 472.691 -1.96643 -2.42359 0
M  V30 5085 N 472.992 0.995999 -1.22138 0
M  V30 5086 C 474.217 1.77601 -1.0711 0
M  V30 5087 C 474.642 1.84339 0.374264 0
M  V30 5088 O 474 1.29359 1.27028 0
M  V30 5089 C 474.048 3.18897 -1.68336 0
M  V30 5090 O 473.152 4.01663 -0.934928 0
M  V30 5091 H 472.493 0.547011 -0.376397 0
M  V30 5092 H 475.023 1.25137 -1.6187 0
M  V30 5093 H 475.033 3.69539 -1.72931 0
M  V30 5094 H 473.708 3.13308 -2.73516 0
M  V30 5095 H 472.285 3.60204 -0.964751 0
M  V30 5096 N 474.47 1.03057 1.19235 0
M  V30 5097 C 475.719 0.72326 1.88287 0
M  V30 5098 C 476.032 -0.751333 1.80594 0
M  V30 5099 O 477.238 -1.17176 2.44912 0
M  V30 5100 C 475.694 1.24338 3.3774 0
M  V30 5101 C 475.302 2.74587 3.53986 0
M  V30 5102 C 477.046 1.01213 4.12257 0
M  V30 5103 C 474.953 3.20009 4.97341 0
M  V30 5104 H 473.883 0.266848 0.705201 0
M  V30 5105 H 476.534 1.24509 1.34795 0
M  V30 5106 H 474.916 0.649457 3.90638 0
M  V30 5107 H 476.09 3.39649 3.11408 0
M  V30 5108 H 474.405 2.9601 2.9286 0
M  V30 5109 H 477.002 1.32675 5.17978 0
M  V30 5110 H 477.345 -0.051001 4.16269 0
M  V30 5111 H 477.878 1.57014 3.65501 0
M  V30 5112 H 474.617 4.25659 4.98493 0
M  V30 5113 H 474.137 2.59676 5.40674 0
M  V30 5114 H 475.816 3.13447 5.66003 0
M  V30 5115 N 475.948 -1.35272 0.808662 0
M  V30 5116 C 477.176 -2.02946 0.402537 0
M  V30 5117 C 477.591 -1.60937 -0.987147 0
M  V30 5118 O 476.948 -0.807917 -1.63643 0
M  V30 5119 C 476.999 -3.58317 0.47868 0
M  V30 5120 O 476.72 -3.98799 1.81358 0
M  V30 5121 C 478.221 -4.43251 0.0656281 0
M  V30 5122 H 475.441 -0.650831 0.163279 0
M  V30 5123 H 477.985 -1.72849 1.09286 0
M  V30 5124 H 476.14 -3.87055 -0.163415 0
M  V30 5125 H 476.554 -4.93451 1.77781 0
M  V30 5126 H 478.028 -5.51738 0.170017 0
M  V30 5127 H 478.505 -4.27913 -0.989278 0
M  V30 5128 H 479.111 -4.19813 0.68096 0
M  V30 5129 N 477.426 -0.562348 -1.47226 0
M  V30 5130 C 478.356 0.170627 -2.32876 0
M  V30 5131 C 479.337 0.903748 -1.44106 0
M  V30 5132 O 480.522 0.883206 -1.72954 0
M  V30 5133 C 477.652 1.19786 -3.25989 0
M  V30 5134 C 476.606 0.580875 -4.2404 0
M  V30 5135 C 475.932 1.71311 -5.06514 0
M  V30 5136 C 477.232 -0.468714 -5.20193 0
M  V30 5137 H 478.926 -0.544441 -2.94408 0
M  V30 5138 H 476.472 -0.263271 -1.41573 0
M  V30 5139 H 478.425 1.71884 -3.84752 0
M  V30 5140 H 477.149 1.94294 -2.62521 0
M  V30 5141 H 475.808 0.0811538 -3.6651 0
M  V30 5142 H 475.456 2.44736 -4.39447 0
M  V30 5143 H 475.156 1.30604 -5.72902 0
M  V30 5144 H 476.68 2.23725 -5.68137 0
M  V30 5145 H 478.094 -0.0336028 -5.7329 0
M  V30 5146 H 476.491 -0.794957 -5.94811 0
M  V30 5147 H 477.561 -1.36269 -4.65359 0
M  V30 5148 N 478.904 1.54736 -0.299062 0
M  V30 5149 C 479.852 2.24897 0.593658 0
M  V30 5150 C 480.846 1.25429 1.13859 0
M  V30 5151 O 482.052 1.43286 1.08945 0
M  V30 5152 H 478.427 0.72207 0.210046 0
M  V30 5153 H 480.398 2.98393 -0.0206421 0
M  V30 5154 C 479.147 3.00159 1.75499 0
M  V30 5155 H 478.47 3.76501 1.34489 0
M  V30 5156 H 479.91 3.52535 2.35574 0
M  V30 5157 C 478.369 2.07015 2.65794 0
M  V30 5158 O 478.899 1.63692 3.66835 0
M  V30 5159 N 477.105 1.73012 2.33485 0
M  V30 5160 H 476.652 2.08439 1.51364 0
M  V30 5161 H 476.61 1.10965 2.94167 0
M  V30 5162 N 480.382 0.0267497 1.57577 0
M  V30 5163 C 481.312 -0.954308 2.13108 0
M  V30 5164 C 482.293 -1.34088 1.04663 0
M  V30 5165 O 483.478 -1.41992 1.32484 0
M  V30 5166 C 480.608 -2.23744 2.65624 0
M  V30 5167 C 479.562 -1.99168 3.78835 0
M  V30 5168 C 478.888 -3.33726 4.17769 0
M  V30 5169 C 480.188 -1.33277 5.0501 0
M  V30 5170 H 481.882 -0.491848 2.95332 0
M  V30 5171 H 479.428 -0.23514 1.42067 0
M  V30 5172 H 481.381 -2.92754 3.03106 0
M  V30 5173 H 480.105 -2.72151 1.80558 0
M  V30 5174 H 478.764 -1.32577 3.41788 0
M  V30 5175 H 478.412 -3.79888 3.29688 0
M  V30 5176 H 478.112 -3.18089 4.94058 0
M  V30 5177 H 479.636 -4.04008 4.57832 0
M  V30 5178 H 481.05 -1.92283 5.40093 0
M  V30 5179 H 479.447 -1.28045 5.8628 0
M  V30 5180 H 480.517 -0.305411 4.83937 0
M  V30 5181 N 481.861 -1.55662 -0.24637 0
M  V30 5182 C 483.272 -1.67953 -0.81539 0
M  V30 5183 C 483.623 -0.624302 -1.86002 0
M  V30 5184 O 482.748 0.229328 -2.15181 0
M  V30 5185 C 483.343 -3.04484 -1.48576 0
M  V30 5186 C 481.902 -3.18713 -2.00248 0
M  V30 5187 C 481.049 -2.6383 -0.853766 0
M  V30 5188 H 484 -1.58685 -0.0221692 0
M  V30 5189 H 484.021 -2.98959 -2.3538 0
M  V30 5190 H 483.533 -3.81264 -0.725222 0
M  V30 5191 H 481.634 -2.46757 -2.79181 0
M  V30 5192 H 481.747 -4.25628 -2.1995 0
M  V30 5193 H 480.111 -2.21667 -1.25442 0
M  V30 5194 H 480.894 -3.43135 -0.106302 0
M  V30 5195 N 483.339 0.512053 -1.4905 0
M  V30 5196 C 484.287 1.63568 -1.65373 0
M  V30 5197 C 485.281 1.61228 -0.519806 0
M  V30 5198 O 486.487 1.65869 -0.699101 0
M  V30 5199 H 482.862 0.542019 -0.521267 0
M  V30 5200 H 484.833 1.4695 -2.59708 0
M  V30 5201 C 483.582 3.01761 -1.7273 0
M  V30 5202 H 482.905 3.04263 -2.59353 0
M  V30 5203 H 484.345 3.79948 -1.8819 0
M  V30 5204 C 482.804 3.33609 -0.46973 0
M  V30 5205 O 483.334 3.99607 0.409492 0
M  V30 5206 N 481.54 2.88651 -0.336003 0
M  V30 5207 H 481.087 2.35119 -1.05247 0
M  V30 5208 H 481.045 3.10328 0.504363 0
M  V30 5209 N 484.817 1.37938 0.762283 0
M  V30 5210 C 486.057 1.35076 1.53407 0
M  V30 5211 C 486.421 -0.061546 1.91901 0
M  V30 5212 O 487.622 -0.214973 2.67939 0
M  V30 5213 C 485.893 2.27206 2.75884 0
M  V30 5214 S 487.452 2.42283 3.65848 0
M  V30 5215 H 484.27 0.479387 0.52508 0
M  V30 5216 H 486.872 1.7378 0.895586 0
M  V30 5217 H 485.576 3.28724 2.457 0
M  V30 5218 H 485.107 1.8962 3.44685 0
M  V30 5219 H 487.122 1.64044 4.68299 0
M  V30 5220 N 486.295 -0.989507 1.22664 0
M  V30 5221 C 487.541 -1.73298 1.06487 0
M  V30 5222 C 487.896 -1.88292 -0.395438 0
M  V30 5223 O 487.189 -1.41748 -1.28911 0
M  V30 5224 C 487.383 -3.13649 1.71345 0
M  V30 5225 C 487.212 -3.12341 3.23532 0
M  V30 5226 C 485.982 -3.18044 3.92653 0
M  V30 5227 C 488.18 -2.96226 4.20422 0
M  V30 5228 N 486.162 -3.06526 5.31898 0
M  V30 5229 C 487.533 -2.92773 5.4652 0
M  V30 5230 C 489.588 -2.80642 4.11271 0
M  V30 5231 C 488.291 -2.75332 6.64519 0
M  V30 5232 C 490.317 -2.64563 5.28924 0
M  V30 5233 C 489.679 -2.618 6.53942 0
M  V30 5234 H 485.778 -0.643643 0.444126 0
M  V30 5235 H 488.362 -1.17489 1.55256 0
M  V30 5236 H 486.533 -3.67694 1.25122 0
M  V30 5237 H 488.265 -3.76577 1.48229 0
M  V30 5238 H 485.02 -3.25861 3.43673 0
M  V30 5239 H 485.444 -3.04067 6.04874 0
M  V30 5240 H 490.086 -2.81574 3.15398 0
M  V30 5241 H 487.804 -2.73145 7.60538 0
M  V30 5242 H 491.39 -2.53482 5.23677 0
M  V30 5243 H 490.27 -2.49511 7.43447 0
M  V30 5244 N 487.773 -1.03688 -1.18687 0
M  V30 5245 C 488.703 -0.645407 -2.24403 0
M  V30 5246 C 489.684 0.349511 -1.66471 0
M  V30 5247 O 490.869 0.230453 -1.92828 0
M  V30 5248 C 487.999 -0.00365337 -3.473 0
M  V30 5249 C 486.953 -0.921705 -4.17958 0
M  V30 5250 C 486.279 -0.144629 -5.34504 0
M  V30 5251 C 487.579 -2.23909 -4.71871 0
M  V30 5252 H 489.273 -1.52917 -2.57404 0
M  V30 5253 H 486.819 -0.736711 -1.23728 0
M  V30 5254 H 488.772 0.281908 -4.20456 0
M  V30 5255 H 487.496 0.914963 -3.13522 0
M  V30 5256 H 486.155 -1.19159 -3.46694 0
M  V30 5257 H 485.803 0.776274 -4.96974 0
M  V30 5258 H 485.503 -0.756206 -5.82714 0
M  V30 5259 H 487.027 0.134004 -6.10453 0
M  V30 5260 H 488.441 -2.0145 -5.36741 0
M  V30 5261 H 486.838 -2.8033 -5.30599 0
M  V30 5262 H 487.908 -2.88822 -3.895 0
M  V30 5263 N 489.251 1.34841 -0.815825 0
M  V30 5264 C 490.481 2.02436 -0.412695 0
M  V30 5265 C 490.889 1.61604 0.983906 0
M  V30 5266 O 490.232 0.813729 1.64694 0
M  V30 5267 C 490.294 3.56953 -0.427182 0
M  V30 5268 C 489.958 4.21083 -1.77589 0
M  V30 5269 C 490.955 4.42107 -2.73564 0
M  V30 5270 C 488.64 4.58006 -2.06243 0
M  V30 5271 C 490.634 4.99169 -3.9637 0
M  V30 5272 C 488.321 5.1478 -3.2931 0
M  V30 5273 C 489.319 5.35304 -4.24191 0
M  V30 5274 O 489.007 5.90878 -5.45086 0
M  V30 5275 H 488.739 0.655631 -0.164695 0
M  V30 5276 H 491.293 1.73246 -1.1034 0
M  V30 5277 H 489.523 3.85372 0.320175 0
M  V30 5278 H 491.212 4.05875 -0.0450875 0
M  V30 5279 H 491.978 4.13953 -2.52721 0
M  V30 5280 H 487.857 4.41339 -1.33196 0
M  V30 5281 H 491.401 5.15105 -4.70439 0
M  V30 5282 H 487.298 5.42362 -3.5002 0
M  V30 5283 H 488.066 6.0932 -5.46508 0
M  V30 5284 N 490.729 0.570148 1.46925 0
M  V30 5285 C 491.661 -0.207909 2.28255 0
M  V30 5286 C 492.674 -0.867301 1.37774 0
M  V30 5287 O 493.863 -0.738976 1.62485 0
M  V30 5288 C 490.963 -1.31298 3.12433 0
M  V30 5289 C 490.136 -0.747915 4.30958 0
M  V30 5290 C 489.195 -1.7391 4.9663 0
M  V30 5291 O 488.221 -1.2801 5.54619 0
M  V30 5292 N 489.423 -3.07288 4.92498 0
M  V30 5293 H 492.188 0.489794 2.95671 0
M  V30 5294 H 489.749 0.407076 1.56699 0
M  V30 5295 H 491.741 -1.97507 3.53232 0
M  V30 5296 H 490.311 -1.91373 2.47175 0
M  V30 5297 H 489.531 0.0913066 3.94094 0
M  V30 5298 H 490.819 -0.349958 5.07595 0
M  V30 5299 H 490.217 -3.47213 4.46609 0
M  V30 5300 H 488.774 -3.69021 5.37277 0
M  V30 5301 N 492.207 -1.54576 0.307264 0
M  V30 5302 C 493.432 -2.05139 -0.305379 0
M  V30 5303 C 493.857 -1.18278 -1.46259 0
M  V30 5304 O 493.215 -0.188243 -1.8032 0
M  V30 5305 C 493.263 -3.53066 -0.733283 0
M  V30 5306 O 492.367 -3.69206 -1.83741 0
M  V30 5307 H 491.708 -0.661444 -0.0582105 0
M  V30 5308 H 494.238 -1.99569 0.450931 0
M  V30 5309 H 494.248 -3.95034 -1.02039 0
M  V30 5310 H 492.923 -4.15746 0.113198 0
M  V30 5311 H 491.5 -3.39143 -1.55037 0
M  V30 5312 N 493.685 -0.035106 -1.57561 0
M  V30 5313 C 494.931 0.64318 -1.92331 0
M  V30 5314 C 495.264 1.71434 -0.912368 0
M  V30 5315 O 494.539 1.94395 0.0640303 0
M  V30 5316 C 494.822 1.25411 -3.37556 0
M  V30 5317 C 494.675 0.192109 -4.4939 0
M  V30 5318 C 495.994 2.17041 -3.82859 0
M  V30 5319 H 493.113 0.232341 -0.699419 0
M  V30 5320 H 495.755 -0.0935889 -1.89769 0
M  V30 5321 H 493.905 1.88205 -3.39869 0
M  V30 5322 H 495.577 -0.438849 -4.59208 0
M  V30 5323 H 493.82 -0.481725 -4.31117 0
M  V30 5324 H 494.491 0.659292 -5.48049 0
M  V30 5325 H 496.967 1.64228 -3.8232 0
M  V30 5326 H 495.843 2.56738 -4.85157 0
M  V30 5327 H 496.104 3.06401 -3.18702 0
M  V30 5328 N 495.163 1.55791 0.238111 0
M  V30 5329 C 496.11 1.9105 1.29493 0
M  V30 5330 C 497.08 0.765733 1.47397 0
M  V30 5331 O 498.265 1.02017 1.61236 0
M  V30 5332 C 495.405 2.21826 2.64362 0
M  V30 5333 C 494.518 3.49153 2.54394 0
M  V30 5334 C 493.653 3.69455 3.81676 0
M  V30 5335 C 492.692 4.90353 3.66361 0
M  V30 5336 N 491.829 5.07131 4.85554 0
M  V30 5337 H 496.669 2.81172 0.987233 0
M  V30 5338 H 494.206 1.39179 0.476203 0
M  V30 5339 H 496.164 2.37675 3.4288 0
M  V30 5340 H 494.794 1.34897 2.93262 0
M  V30 5341 H 493.846 3.41587 1.67399 0
M  V30 5342 H 495.158 4.37818 2.38991 0
M  V30 5343 H 494.312 3.85311 4.68636 0
M  V30 5344 H 493.051 2.7904 3.99985 0
M  V30 5345 H 492.056 4.74464 2.77784 0
M  V30 5346 H 493.281 5.82237 3.49538 0
M  V30 5347 H 491.227 4.19654 5.04209 0
M  V30 5348 H 491.144 5.89899 4.72816 0
M  V30 5349 H 492.412 5.27407 5.73988 0
M  V30 5350 N 496.642 -0.504142 1.49319 0
M  V30 5351 C 497.572 -1.61473 1.68667 0
M  V30 5352 C 498.553 -1.61455 0.535378 0
M  V30 5353 O 499.738 -1.78245 0.770868 0
M  V30 5354 C 496.868 -2.99971 1.75028 0
M  V30 5355 C 495.822 -3.14854 2.89916 0
M  V30 5356 C 495.148 -4.54671 2.81387 0
M  V30 5357 C 496.448 -2.95176 4.30893 0
M  V30 5358 H 498.142 -1.45535 2.61648 0
M  V30 5359 H 495.688 -0.698711 1.25913 0
M  V30 5360 H 497.641 -3.77562 1.8715 0
M  V30 5361 H 496.365 -3.1699 0.786441 0
M  V30 5362 H 495.024 -2.39687 2.77391 0
M  V30 5363 H 494.672 -4.68562 1.82917 0
M  V30 5364 H 494.372 -4.6557 3.58494 0
M  V30 5365 H 495.896 -5.34327 2.95512 0
M  V30 5366 H 497.31 -3.62538 4.44116 0
M  V30 5367 H 495.707 -3.17549 5.09198 0
M  V30 5368 H 496.777 -1.91332 4.45556 0
M  V30 5369 N 498.12 -1.38341 -0.754957 0
M  V30 5370 C 499.05 -1.38176 -1.88227 0
M  V30 5371 C 500.031 -0.247873 -1.68284 0
M  V30 5372 O 501.216 -0.45075 -1.88896 0
M  V30 5373 C 498.346 -1.20471 -3.25736 0
M  V30 5374 C 497.3 -2.3105 -3.60278 0
M  V30 5375 C 496.626 -1.98452 -4.96509 0
M  V30 5376 C 497.926 -3.73305 -3.65295 0
M  V30 5377 H 499.62 -2.32512 -1.88622 0
M  V30 5378 H 497.166 -1.1192 -0.906082 0
M  V30 5379 H 499.119 -1.18982 -4.04254 0
M  V30 5380 H 497.843 -0.225965 -3.25817 0
M  V30 5381 H 496.502 -2.31723 -2.84078 0
M  V30 5382 H 496.15 -0.990641 -4.93148 0
M  V30 5383 H 495.85 -2.7251 -5.20588 0
M  V30 5384 H 497.374 -1.98578 -5.77407 0
M  V30 5385 H 498.788 -3.7467 -4.3393 0
M  V30 5386 H 497.185 -4.46557 -4.00883 0
M  V30 5387 H 498.255 -4.05719 -2.65556 0
M  V30 5388 N 499.598 0.982988 -1.23187 0
M  V30 5389 C 500.828 1.75666 -1.08743 0
M  V30 5390 C 501.236 1.85662 0.364195 0
M  V30 5391 O 500.579 1.33317 1.26382 0
M  V30 5392 C 500.641 3.20144 -1.63549 0
M  V30 5393 C 500.305 3.33665 -3.12277 0
M  V30 5394 C 501.302 3.20194 -4.096 0
M  V30 5395 C 498.987 3.58397 -3.51933 0
M  V30 5396 C 500.981 3.31256 -5.44563 0
M  V30 5397 C 498.668 3.69098 -4.87042 0
M  V30 5398 C 499.666 3.55537 -5.83166 0
M  V30 5399 O 499.354 3.65864 -7.1582 0
M  V30 5400 H 499.086 0.558194 -0.381307 0
M  V30 5401 H 501.64 1.24387 -1.63454 0
M  V30 5402 H 499.87 3.72659 -1.03256 0
M  V30 5403 H 501.559 3.79262 -1.4462 0
M  V30 5404 H 502.325 3.00987 -3.80305 0
M  V30 5405 H 498.204 3.68025 -2.77631 0
M  V30 5406 H 501.748 3.20588 -6.19572 0
M  V30 5407 H 497.645 3.87814 -5.16014 0
M  V30 5408 H 498.413 3.82675 -7.23534 0
M  V30 5409 N 501.076 1.04316 1.18135 0
M  V30 5410 C 502.301 0.768047 1.92655 0
M  V30 5411 C 502.726 -0.66904 1.758 0
M  V30 5412 O 502.084 -1.46372 1.06981 0
M  V30 5413 C 502.132 1.14239 3.42026 0
M  V30 5414 O 501.236 0.269333 4.1152 0
M  V30 5415 H 500.577 0.282436 0.600937 0
M  V30 5416 H 503.107 1.39367 1.49793 0
M  V30 5417 H 503.117 1.10538 3.92741 0
M  V30 5418 H 501.792 2.18928 3.53615 0
M  V30 5419 H 500.369 0.366175 3.71098 0
M  V30 5420 N 502.554 -1.34406 0.822964 0
M  V30 5421 C 503.803 -1.97542 0.407458 0
M  V30 5422 C 504.116 -1.65973 -1.035 0
M  V30 5423 O 505.322 -2.22598 -1.55442 0
M  V30 5424 C 503.778 -3.53463 0.677623 0
M  V30 5425 C 503.386 -3.93925 2.1337 0
M  V30 5426 C 505.13 -4.23229 0.328284 0
M  V30 5427 C 503.037 -5.42759 2.34876 0
M  V30 5428 H 501.967 -0.739207 0.148623 0
M  V30 5429 H 504.618 -1.53248 1.00932 0
M  V30 5430 H 503 -3.96 0.00558965 0
M  V30 5431 H 504.174 -3.62494 2.8449 0
M  V30 5432 H 502.489 -3.37097 2.44448 0
M  V30 5433 H 505.086 -5.32659 0.466794 0
M  V30 5434 H 505.429 -4.09899 -0.727224 0
M  V30 5435 H 505.962 -3.86169 0.954896 0
M  V30 5436 H 502.701 -5.61075 3.38932 0
M  V30 5437 H 502.221 -5.75704 1.68299 0
M  V30 5438 H 503.9 -6.0944 2.17236 0
M  V30 5439 N 504.032 -0.577932 -1.46621 0
M  V30 5440 C 505.28 -0.061566 -2.02006 0
M  V30 5441 C 505.601 1.30117 -1.4524 0
M  V30 5442 O 504.871 1.85313 -0.63529 0
M  V30 5443 H 503.451 -0.0197692 -0.746738 0
M  V30 5444 H 506.113 -0.752631 -1.79782 0
M  V30 5445 H 505.209 0.0110238 -3.12098 0
M  V30 5446 N 505.51 1.54411 -0.315457 0
M  V30 5447 C 506.759 1.99599 0.290395 0
M  V30 5448 C 507.072 1.20746 1.53882 0
M  V30 5449 O 508.278 1.56272 2.22017 0
M  V30 5450 C 506.734 3.5539 0.56797 0
M  V30 5451 C 506.342 4.43068 -0.662945 0
M  V30 5452 C 508.086 4.09067 1.13422 0
M  V30 5453 C 505.993 5.90317 -0.357722 0
M  V30 5454 H 504.923 0.745592 0.112286 0
M  V30 5455 H 507.574 1.78477 -0.426418 0
M  V30 5456 H 505.956 3.72468 1.34476 0
M  V30 5457 H 507.13 4.37765 -1.43869 0
M  V30 5458 H 505.445 4.00238 -1.14884 0
M  V30 5459 H 508.042 5.16663 1.37707 0
M  V30 5460 H 508.385 3.60552 2.08106 0
M  V30 5461 H 508.918 3.95589 0.418805 0
M  V30 5462 H 505.657 6.4301 -1.27351 0
M  V30 5463 H 505.177 5.98592 0.380472 0
M  V30 5464 H 506.856 6.4699 0.0354284 0
M  V30 5465 N 506.988 0.0434614 1.5754 0
M  V30 5466 C 508.235 -0.632035 1.92384 0
M  V30 5467 C 508.563 -1.71304 0.921157 0
M  V30 5468 O 507.818 -1.95583 -0.067744 0
M  V30 5469 C 508.117 -1.2738 3.3393 0
M  V30 5470 C 507.783 -0.321757 4.49751 0
M  V30 5471 C 506.445 -0.0597611 4.81163 0
M  V30 5472 C 508.797 0.331158 5.20147 0
M  V30 5473 C 506.125 0.862715 5.80322 0
M  V30 5474 C 508.477 1.24178 6.20292 0
M  V30 5475 C 507.141 1.51252 6.50138 0
M  V30 5476 H 506.411 -0.231278 0.703983 0
M  V30 5477 H 509.058 0.108294 1.91194 0
M  V30 5478 H 507.363 -2.08921 3.3145 0
M  V30 5479 H 509.06 -1.80326 3.58167 0
M  V30 5480 H 505.65 -0.53614 4.25233 0
M  V30 5481 H 509.834 0.141826 4.96097 0
M  V30 5482 H 505.09 1.08003 6.01785 0
M  V30 5483 H 509.264 1.75381 6.73954 0
M  V30 5484 H 506.891 2.22897 7.26788 0
M  V30 5485 N 508.466 -1.55915 -0.229846 0
M  V30 5486 C 509.713 -1.78542 -0.955452 0
M  V30 5487 C 510.041 -0.610785 -1.84661 0
M  V30 5488 O 509.296 0.405213 -1.91459 0
M  V30 5489 C 509.595 -3.06845 -1.8325 0
M  V30 5490 C 509.261 -4.37395 -1.09528 0
M  V30 5491 C 507.923 -4.72868 -0.891598 0
M  V30 5492 C 510.275 -5.18029 -0.574046 0
M  V30 5493 C 507.603 -5.86496 -0.154655 0
M  V30 5494 C 509.955 -6.32423 0.149513 0
M  V30 5495 C 508.619 -6.66504 0.364519 0
M  V30 5496 H 507.889 -0.653333 -0.349625 0
M  V30 5497 H 510.536 -1.90183 -0.224235 0
M  V30 5498 H 508.841 -2.90291 -2.63132 0
M  V30 5499 H 510.538 -3.21553 -2.39592 0
M  V30 5500 H 507.128 -4.09538 -1.26399 0
M  V30 5501 H 511.312 -4.91066 -0.718899 0
M  V30 5502 H 506.568 -6.11396 0.0222356 0
M  V30 5503 H 510.742 -6.94137 0.560947 0
M  V30 5504 H 508.369 -7.54397 0.937495 0
M  V30 5505 N 509.944 0.496216 -1.49584 0
M  V30 5506 C 511.172 1.27394 -1.63029 0
M  V30 5507 C 511.587 1.86344 -0.303569 0
M  V30 5508 O 510.944 1.68057 0.711547 0
M  V30 5509 C 510.995 2.40077 -2.70269 0
M  V30 5510 O 510.716 1.83549 -3.97796 0
M  V30 5511 C 512.217 3.31372 -2.94462 0
M  V30 5512 H 509.437 0.386211 -0.54871 0
M  V30 5513 H 511.981 0.595163 -1.95648 0
M  V30 5514 H 510.136 3.03775 -2.40415 0
M  V30 5515 H 510.55 2.57561 -4.56905 0
M  V30 5516 H 512.024 4.06707 -3.73221 0
M  V30 5517 H 512.501 3.88654 -2.0456 0
M  V30 5518 H 513.107 2.73435 -3.25751 0
M  V30 5519 N 511.423 1.38739 0.74761 0
M  V30 5520 C 512.653 1.3832 1.53464 0
M  V30 5521 C 513.061 -0.0273464 1.8918 0
M  V30 5522 O 512.404 -1.00588 1.53713 0
M  V30 5523 C 512.466 2.18007 2.85855 0
M  V30 5524 C 512.13 3.66762 2.72644 0
M  V30 5525 C 513.127 4.60124 2.42037 0
M  V30 5526 C 510.812 4.10193 2.89909 0
M  V30 5527 C 512.806 5.94897 2.28859 0
M  V30 5528 C 510.493 5.45045 2.7635 0
M  V30 5529 C 511.491 6.37211 2.45869 0
M  V30 5530 O 511.179 7.69581 2.3238 0
M  V30 5531 H 510.911 0.474718 0.481268 0
M  V30 5532 H 513.465 1.83012 0.932518 0
M  V30 5533 H 511.695 1.68043 3.48279 0
M  V30 5534 H 513.384 2.09921 3.47402 0
M  V30 5535 H 514.15 4.27874 2.28361 0
M  V30 5536 H 510.029 3.38797 3.1263 0
M  V30 5537 H 513.573 6.66802 2.04989 0
M  V30 5538 H 509.47 5.76889 2.89601 0
M  V30 5539 H 510.238 7.80169 2.47546 0
M  V30 5540 N 512.901 -0.976442 1.23707 0
M  V30 5541 C 513.864 -2.0511 1.02287 0
M  V30 5542 C 514.864 -1.60791 -0.0167195 0
M  V30 5543 O 516.054 -1.72761 0.223408 0
M  V30 5544 C 513.186 -3.36458 0.548507 0
M  V30 5545 H 514.379 -2.25545 1.9766 0
M  V30 5546 H 511.932 -1.15042 1.05806 0
M  V30 5547 H 512.667 -3.21713 -0.408818 0
M  V30 5548 H 512.452 -3.69967 1.29874 0
M  V30 5549 H 513.942 -4.15489 0.419406 0
M  V30 5550 N 514.379 -1.04941 -1.1758 0
M  V30 5551 C 515.309 -0.669172 -2.23706 0
M  V30 5552 C 516.29 0.331835 -1.66832 0
M  V30 5553 O 517.475 0.209988 -1.93061 0
M  V30 5554 C 514.605 -0.0404889 -3.47276 0
M  V30 5555 C 513.559 -0.965983 -4.16957 0
M  V30 5556 C 512.885 -0.201312 -5.34321 0
M  V30 5557 C 514.185 -2.28902 -4.69469 0
M  V30 5558 H 515.879 -1.55639 -2.55767 0
M  V30 5559 H 513.425 -0.749793 -1.22939 0
M  V30 5560 H 515.378 0.237298 -4.20731 0
M  V30 5561 H 514.102 0.881658 -3.14475 0
M  V30 5562 H 512.761 -1.22829 -3.45411 0
M  V30 5563 H 512.409 0.723519 -4.97769 0
M  V30 5564 H 512.109 -0.817968 -5.81879 0
M  V30 5565 H 513.633 0.0692499 -6.10561 0
M  V30 5566 H 515.047 -2.07132 -5.34574 0
M  V30 5567 H 513.444 -2.85942 -5.27596 0
M  V30 5568 H 514.514 -2.92937 -3.86414 0
M  V30 5569 N 515.857 1.33968 -0.830081 0
M  V30 5570 C 516.789 2.28194 -0.21448 0
M  V30 5571 C 517.802 1.5135 0.599752 0
M  V30 5572 O 518.991 1.73286 0.42826 0
M  V30 5573 C 516.091 3.31221 0.717356 0
M  V30 5574 C 515.264 4.37365 -0.055613 0
M  V30 5575 C 514.323 5.2011 0.798231 0
M  V30 5576 O 513.349 5.68691 0.240616 0
M  V30 5577 N 514.551 5.40523 2.11695 0
M  V30 5578 H 517.316 2.81662 -1.02405 0
M  V30 5579 H 514.877 1.46568 -0.687713 0
M  V30 5580 H 516.869 3.83477 1.29334 0
M  V30 5581 H 515.439 2.78095 1.42765 0
M  V30 5582 H 514.659 3.85727 -0.812936 0
M  V30 5583 H 515.947 5.05397 -0.587444 0
M  V30 5584 H 515.345 5.0274 2.59363 0
M  V30 5585 H 513.902 5.95871 2.64162 0
M  V30 5586 N 517.335 0.585699 1.46312 0
M  V30 5587 C 518.582 0.0724211 2.0237 0
M  V30 5588 C 518.91 -1.28868 1.45683 0
M  V30 5589 O 518.165 -1.85853 0.612945 0
M  V30 5590 C 518.464 -0.0401312 3.57377 0
M  V30 5591 C 518.13 1.25376 4.33119 0
M  V30 5592 C 516.792 1.60824 4.5353 0
M  V30 5593 C 519.144 2.10987 4.76586 0
M  V30 5594 C 516.472 2.81676 5.14661 0
M  V30 5595 C 518.824 3.31068 5.39052 0
M  V30 5596 C 517.488 3.66794 5.5769 0
M  V30 5597 H 516.758 0.0265007 0.740526 0
M  V30 5598 H 519.405 0.762935 1.75646 0
M  V30 5599 H 517.71 -0.813791 3.83255 0
M  V30 5600 H 519.407 -0.453078 3.98432 0
M  V30 5601 H 515.997 0.967808 4.1753 0
M  V30 5602 H 520.181 1.84904 4.60569 0
M  V30 5603 H 515.437 3.0949 5.27282 0
M  V30 5604 H 519.611 3.97672 5.71691 0
M  V30 5605 H 517.238 4.60529 6.04828 0
M  V30 5606 N 518.813 -1.54241 0.323641 0
M  V30 5607 C 520.043 -2.04687 -0.280464 0
M  V30 5608 C 520.451 -1.19939 -1.46326 0
M  V30 5609 O 519.794 -0.222872 -1.82343 0
M  V30 5610 C 519.856 -3.50978 -0.778123 0
M  V30 5611 C 519.52 -4.56127 0.282371 0
M  V30 5612 C 520.517 -5.07726 1.11847 0
M  V30 5613 C 518.202 -5.00451 0.430582 0
M  V30 5614 C 520.196 -6.02212 2.08851 0
M  V30 5615 C 517.883 -5.94752 1.40404 0
M  V30 5616 C 518.881 -6.45519 2.23147 0
M  V30 5617 O 518.569 -7.37968 3.1884 0
M  V30 5618 H 518.301 -0.673192 -0.0615473 0
M  V30 5619 H 520.855 -1.99999 0.467921 0
M  V30 5620 H 519.085 -3.53064 -1.57742 0
M  V30 5621 H 520.774 -3.84499 -1.30058 0
M  V30 5622 H 521.54 -4.74261 1.01496 0
M  V30 5623 H 517.419 -4.6055 -0.203569 0
M  V30 5624 H 520.963 -6.41761 2.73474 0
M  V30 5625 H 516.86 -6.27633 1.5082 0
M  V30 5626 H 517.628 -7.55841 3.14079 0
M  V30 5627 N 520.291 -0.0518155 -1.57515 0
M  V30 5628 C 521.537 0.622745 -1.93002 0
M  V30 5629 C 521.87 1.70456 -0.930499 0
M  V30 5630 O 521.145 1.94452 0.0434086 0
M  V30 5631 C 521.428 1.21824 -3.38867 0
M  V30 5632 C 521.281 0.144434 -4.49568 0
M  V30 5633 C 522.6 2.12968 -3.8514 0
M  V30 5634 H 519.719 0.22491 -0.701844 0
M  V30 5635 H 522.361 -0.113711 -1.89659 0
M  V30 5636 H 520.511 1.8459 -3.41846 0
M  V30 5637 H 522.183 -0.48753 -4.58717 0
M  V30 5638 H 520.426 -0.527424 -4.30582 0
M  V30 5639 H 521.097 0.601127 -5.48717 0
M  V30 5640 H 523.573 1.60163 -3.8404 0
M  V30 5641 H 522.449 2.51578 -4.87852 0
M  V30 5642 H 522.71 3.03004 -3.21934 0
M  V30 5643 N 521.769 1.56035 0.221574 0
M  V30 5644 C 523.18 1.69229 0.788567 0
M  V30 5645 C 523.531 0.653814 1.84986 0
M  V30 5646 O 522.656 -0.195065 2.15519 0
M  V30 5647 C 523.251 3.06809 1.43713 0
M  V30 5648 C 521.81 3.21858 1.95152 0
M  V30 5649 C 520.957 2.65155 0.811685 0
M  V30 5650 H 523.908 1.587 -0.00307894 0
M  V30 5651 H 523.929 3.02666 2.30594 0
M  V30 5652 H 523.441 3.82369 0.664475 0
M  V30 5653 H 521.542 2.51167 2.7522 0
M  V30 5654 H 521.655 4.29073 2.1315 0
M  V30 5655 H 520.019 2.23635 1.21899 0
M  V30 5656 H 520.802 3.43261 0.0516987 0
M  V30 5657 N 523.247 -0.488276 1.49845 0
M  V30 5658 C 524.21 -1.57069 1.66919 0
M  V30 5659 C 525.21 -1.51445 0.540479 0
M  V30 5660 O 526.4 -1.5437 0.807188 0
M  V30 5661 C 523.532 -2.96718 1.67844 0
M  V30 5662 H 524.725 -1.43254 2.63474 0
M  V30 5663 H 522.278 -0.713435 1.39068 0
M  V30 5664 H 523.013 -3.15996 0.7292 0
M  V30 5665 H 522.798 -3.02208 2.49826 0
M  V30 5666 H 524.288 -3.75335 1.83066 0
M  V30 5667 N 524.725 -1.39134 -0.740242 0
M  V30 5668 C 525.635 -1.39697 -1.88473 0
M  V30 5669 C 526.651 -0.292403 -1.71526 0
M  V30 5670 O 527.827 -0.533021 -1.94219 0
M  V30 5671 C 524.892 -1.23382 -3.24003 0
M  V30 5672 C 523.953 -2.43763 -3.53381 0
M  V30 5673 C 523.186 -2.28216 -4.82445 0
M  V30 5674 O 523.409 -1.28288 -5.55786 0
M  V30 5675 O 522.343 -3.1709 -5.11603 0
M  V30 5676 H 526.169 -2.36159 -1.90952 0
M  V30 5677 H 523.754 -1.20194 -0.887346 0
M  V30 5678 H 525.636 -1.16395 -4.05006 0
M  V30 5679 H 524.311 -0.300121 -3.22306 0
M  V30 5680 H 523.218 -2.56325 -2.72485 0
M  V30 5681 H 524.551 -3.35808 -3.59852 0
M  V30 5682 N 526.204 0.969867 -1.24223 0
M  V30 5683 C 527.453 1.70687 -1.07466 0
M  V30 5684 C 527.766 1.91736 0.386861 0
M  V30 5685 O 528.972 2.62986 0.674581 0
M  V30 5686 C 527.428 3.07217 -1.87472 0
M  V30 5687 C 527.036 2.94018 -3.3802 0
M  V30 5688 C 528.78 3.84804 -1.79237 0
M  V30 5689 C 526.687 4.25844 -4.10379 0
M  V30 5690 H 525.617 0.640067 -0.398536 0
M  V30 5691 H 528.268 1.08092 -1.48285 0
M  V30 5692 H 526.65 3.70628 -1.39466 0
M  V30 5693 H 527.824 2.39632 -3.9359 0
M  V30 5694 H 526.139 2.29898 -3.47183 0
M  V30 5695 H 528.736 4.82417 -2.30603 0
M  V30 5696 H 529.079 4.09356 -0.757197 0
M  V30 5697 H 529.612 3.28115 -2.24912 0
M  V30 5698 H 526.351 4.06486 -5.14246 0
M  V30 5699 H 525.871 4.80054 -3.59594 0
M  V30 5700 H 527.55 4.94475 -4.17257 0
M  V30 5701 N 527.682 1.05563 1.17022 0
M  V30 5702 C 528.931 0.763036 1.8671 0
M  V30 5703 C 529.244 -0.712857 1.82147 0
M  V30 5704 O 530.45 -1.11955 2.47343 0
M  V30 5705 C 528.906 1.31474 3.35026 0
M  V30 5706 C 528.514 2.82034 3.48081 0
M  V30 5707 C 530.258 1.09935 4.10018 0
M  V30 5708 C 528.165 3.30486 4.90442 0
M  V30 5709 H 527.095 0.281747 0.699382 0
M  V30 5710 H 529.746 1.2734 1.32124 0
M  V30 5711 H 528.128 0.732171 3.89173 0
M  V30 5712 H 529.302 3.46178 3.04133 0
M  V30 5713 H 527.617 3.02156 2.86515 0
M  V30 5714 H 530.214 1.43632 5.15048 0
M  V30 5715 H 530.557 0.0373072 4.16283 0
M  V30 5716 H 531.09 1.64732 3.62089 0
M  V30 5717 H 527.829 4.36137 4.89352 0
M  V30 5718 H 527.349 2.71086 5.35044 0
M  V30 5719 H 529.028 3.25382 5.59227 0
M  V30 5720 N 529.16 -1.33526 0.837174 0
M  V30 5721 C 530.409 -1.97098 0.428387 0
M  V30 5722 C 530.722 -1.67062 -1.01734 0
M  V30 5723 O 531.928 -2.24235 -1.53072 0
M  V30 5724 C 530.384 -3.52725 0.715075 0
M  V30 5725 C 529.992 -3.9164 2.17537 0
M  V30 5726 C 531.736 -4.22857 0.373154 0
M  V30 5727 C 529.643 -5.40237 2.40619 0
M  V30 5728 H 528.573 -0.737589 0.156455 0
M  V30 5729 H 531.224 -1.52169 1.02552 0
M  V30 5730 H 529.606 -3.95971 0.0475904 0
M  V30 5731 H 530.78 -3.59456 2.88319 0
M  V30 5732 H 529.095 -3.34485 2.4801 0
M  V30 5733 H 531.692 -5.32133 0.523264 0
M  V30 5734 H 532.035 -4.10647 -0.683708 0
M  V30 5735 H 532.568 -3.85135 0.995801 0
M  V30 5736 H 529.307 -5.57449 3.44864 0
M  V30 5737 H 528.827 -5.73887 1.74396 0
M  V30 5738 H 530.506 -6.07102 2.23688 0
M  V30 5739 N 530.638 -0.59345 -1.46 0
M  V30 5740 C 532.049 -0.169801 -1.85926 0
M  V30 5741 C 532.4 1.26984 -1.49565 0
M  V30 5742 O 531.525 1.96076 -0.915602 0
M  V30 5743 C 532.12 -0.301385 -3.37457 0
M  V30 5744 C 530.679 0.0674684 -3.7634 0
M  V30 5745 C 529.826 -0.632383 -2.69993 0
M  V30 5746 H 532.777 -0.801014 -1.37002 0
M  V30 5747 H 532.798 0.470331 -3.77582 0
M  V30 5748 H 532.31 -1.34927 -3.63891 0
M  V30 5749 H 530.411 1.11507 -3.55523 0
M  V30 5750 H 530.524 -0.316332 -4.78055 0
M  V30 5751 H 528.888 -0.0714961 -2.546 0
M  V30 5752 H 529.671 -1.68212 -2.99265 0
M  V30 5753 N 532.116 1.54067 -0.331816 0
M  V30 5754 C 533.363 2.00715 0.268269 0
M  V30 5755 C 533.691 1.21986 1.51491 0
M  V30 5756 O 532.946 0.292309 1.93505 0
M  V30 5757 C 533.245 3.51634 0.639392 0
M  V30 5758 C 532.911 4.48018 -0.509019 0
M  V30 5759 C 531.573 4.74089 -0.824209 0
M  V30 5760 C 533.925 5.05237 -1.28003 0
M  V30 5761 C 531.253 5.54637 -1.91298 0
M  V30 5762 C 533.605 5.86972 -2.35895 0
M  V30 5763 C 532.269 6.11342 -2.67987 0
M  V30 5764 H 531.539 0.734469 0.0981667 0
M  V30 5765 H 534.186 1.8596 -0.457304 0
M  V30 5766 H 532.491 3.6416 1.44551 0
M  V30 5767 H 534.188 3.85175 1.11539 0
M  V30 5768 H 530.778 4.27851 -0.253287 0
M  V30 5769 H 534.962 4.8507 -1.04978 0
M  V30 5770 H 530.218 5.71747 -2.16599 0
M  V30 5771 H 534.392 6.30327 -2.96076 0
M  V30 5772 H 532.019 6.73544 -3.5248 0
M  V30 5773 N 533.594 0.0601682 1.57485 0
M  V30 5774 C 534.841 -0.611594 1.93043 0
M  V30 5775 C 535.169 -1.70317 0.939274 0
M  V30 5776 O 534.424 -1.95644 -0.046996 0
M  V30 5777 C 534.723 -1.23831 3.35262 0
M  V30 5778 C 534.389 -0.274037 4.50066 0
M  V30 5779 C 533.051 -0.00872394 4.81199 0
M  V30 5780 C 535.403 0.386308 5.19766 0
M  V30 5781 C 532.731 0.924218 5.79375 0
M  V30 5782 C 535.083 1.3075 6.1894 0
M  V30 5783 C 533.747 1.58139 6.48497 0
M  V30 5784 H 533.017 -0.223798 0.706396 0
M  V30 5785 H 535.664 0.128566 1.91068 0
M  V30 5786 H 533.969 -2.05394 3.33647 0
M  V30 5787 H 535.666 -1.76517 3.60059 0
M  V30 5788 H 532.256 -0.491008 4.25778 0
M  V30 5789 H 536.44 0.194436 4.95919 0
M  V30 5790 H 531.696 1.1438 6.00606 0
M  V30 5791 H 535.87 1.82519 6.72056 0
M  V30 5792 H 533.497 2.30593 7.24383 0
M  V30 5793 N 535.072 -1.5615 -0.213296 0
M  V30 5794 C 536.318 -1.79812 -0.937849 0
M  V30 5795 C 536.651 -0.631201 -1.83656 0
M  V30 5796 O 535.926 0.369165 -1.90964 0
M  V30 5797 C 536.209 -3.13613 -1.76972 0
M  V30 5798 C 536.062 -4.40766 -0.89695 0
M  V30 5799 C 537.381 -3.43931 -2.7459 0
M  V30 5800 H 534.5 -0.654138 -0.339518 0
M  V30 5801 H 537.142 -1.88877 -0.20623 0
M  V30 5802 H 535.292 -3.06015 -2.39347 0
M  V30 5803 H 536.964 -4.60392 -0.289306 0
M  V30 5804 H 535.207 -4.33326 -0.202756 0
M  V30 5805 H 535.878 -5.30843 -1.51358 0
M  V30 5806 H 538.354 -3.5171 -2.22349 0
M  V30 5807 H 537.23 -4.38706 -3.29891 0
M  V30 5808 H 537.491 -2.6651 -3.52739 0
M  V30 5809 N 536.55 0.480323 -1.50102 0
M  V30 5810 C 537.775 1.26126 -1.64642 0
M  V30 5811 C 538.2 1.85257 -0.325823 0
M  V30 5812 O 537.558 1.66854 0.709194 0
M  V30 5813 C 537.606 2.35243 -2.73301 0
M  V30 5814 O 536.71 3.39646 -2.33911 0
M  V30 5815 H 536.051 0.371463 -0.550374 0
M  V30 5816 H 538.581 0.572696 -1.96421 0
M  V30 5817 H 538.591 2.80695 -2.96098 0
M  V30 5818 H 537.266 1.91574 -3.6915 0
M  V30 5819 H 535.843 2.99969 -2.21525 0
M  V30 5820 N 538.028 1.39524 0.732853 0
M  V30 5821 C 539.444 1.21176 1.03868 0
M  V30 5822 C 539.644 0.0748448 2.01361 0
M  V30 5823 O 538.7 -0.57281 2.45917 0
M  V30 5824 C 540.013 2.54667 1.59892 0
M  V30 5825 C 541.561 2.6153 1.71962 0
M  V30 5826 C 542.036 3.95248 2.31394 0
M  V30 5827 N 543.527 3.96899 2.38801 0
M  V30 5828 C 544.262 4.97138 2.85729 0
M  V30 5829 N 543.758 6.07775 3.32537 0
M  V30 5830 N 545.551 4.84516 2.84957 0
M  V30 5831 H 537.702 2.12225 0.086304 0
M  V30 5832 H 539.965 0.942614 0.100907 0
M  V30 5833 H 539.671 3.38423 0.95721 0
M  V30 5834 H 539.545 2.74538 2.58668 0
M  V30 5835 H 541.932 1.78156 2.35254 0
M  V30 5836 H 542.013 2.45507 0.718327 0
M  V30 5837 H 541.657 4.79054 1.68729 0
M  V30 5838 H 541.587 4.08593 3.32204 0
M  V30 5839 H 544.078 3.16998 2.05719 0
M  V30 5840 H 544.391 6.8017 3.66862 0
M  V30 5841 H 542.736 6.11366 3.30541 0
M  V30 5842 H 545.927 3.97185 2.47713 0
M  V30 5843 H 546.1 5.62783 3.21215 0
M  V30 5844 N 539.506 -0.963266 1.24736 0
M  V30 5845 C 540.469 -2.04013 1.04457 0
M  V30 5846 C 541.469 -1.608 0.000335555 0
M  V30 5847 O 542.659 -1.72515 0.241719 0
M  V30 5848 C 539.791 -3.35858 0.584162 0
M  V30 5849 H 540.984 -2.23436 2.00041 0
M  V30 5850 H 538.537 -1.13914 1.07021 0
M  V30 5851 H 539.272 -3.22128 -0.374673 0
M  V30 5852 H 539.057 -3.68568 1.3379 0
M  V30 5853 H 540.547 -4.1502 0.463451 0
M  V30 5854 N 540.985 -1.06182 -1.16461 0
M  V30 5855 C 542.396 -0.802426 -1.68576 0
M  V30 5856 C 542.747 0.67412 -1.84255 0
M  V30 5857 O 541.872 1.52303 -1.5373 0
M  V30 5858 C 542.467 -1.45002 -3.06202 0
M  V30 5859 C 541.026 -1.23843 -3.55443 0
M  V30 5860 C 540.173 -1.52724 -2.31454 0
M  V30 5861 H 543.124 -1.22545 -1.00839 0
M  V30 5862 H 543.145 -0.864731 -3.70544 0
M  V30 5863 H 542.657 -2.52466 -2.94759 0
M  V30 5864 H 540.758 -0.183487 -3.72148 0
M  V30 5865 H 540.871 -1.95036 -4.37604 0
M  V30 5866 H 539.235 -0.947726 -2.36411 0
M  V30 5867 H 540.018 -2.61343 -2.22609 0
M  V30 5868 N 542.463 1.3308 -0.844243 0
M  V30 5869 C 543.373 2.32876 -0.283922 0
M  V30 5870 C 544.389 1.63589 0.592846 0
M  V30 5871 O 545.565 1.95205 0.495693 0
M  V30 5872 C 542.63 3.42667 0.527283 0
M  V30 5873 C 541.691 4.27664 -0.374394 0
M  V30 5874 C 540.924 5.32212 0.39819 0
M  V30 5875 O 541.147 5.46635 1.62932 0
M  V30 5876 O 540.081 6.01458 -0.2306 0
M  V30 5877 H 543.907 2.82671 -1.11045 0
M  V30 5878 H 541.492 1.36518 -0.606903 0
M  V30 5879 H 543.374 4.09652 0.988078 0
M  V30 5880 H 542.049 2.95079 1.33078 0
M  V30 5881 H 540.956 3.63526 -0.883144 0
M  V30 5882 H 542.289 4.78749 -1.1428 0
M  V30 5883 N 543.941 0.601185 1.45683 0
M  V30 5884 C 544.891 -0.142686 2.27553 0
M  V30 5885 C 545.875 -0.844598 1.3695 0
M  V30 5886 O 547.067 -0.735644 1.60988 0
M  V30 5887 C 544.196 -1.14364 3.23691 0
M  V30 5888 C 543.282 -0.442894 4.21781 0
M  V30 5889 N 543.673 0.51189 5.03203 0
M  V30 5890 C 541.971 -0.691277 4.4061 0
M  V30 5891 C 542.672 0.92318 5.74328 0
M  V30 5892 N 541.648 0.268308 5.42937 0
M  V30 5893 H 545.45 0.590736 2.87902 0
M  V30 5894 H 542.964 0.424365 1.56757 0
M  V30 5895 H 544.961 -1.6909 3.8107 0
M  V30 5896 H 543.621 -1.87768 2.64902 0
M  V30 5897 H 544.632 0.888329 5.10225 0
M  V30 5898 H 541.309 -1.41049 3.92952 0
M  V30 5899 H 542.699 1.71029 6.49768 0
M  V30 5900 N 545.419 -1.53889 0.339982 0
M  V30 5901 C 546.659 -2.02765 -0.258011 0
M  V30 5902 C 547.023 -1.22249 -1.48051 0
M  V30 5903 O 548.224 -1.61007 -2.15245 0
M  V30 5904 C 546.495 -3.5286 -0.567872 0
M  V30 5905 S 548.054 -4.23647 -1.14318 0
M  V30 5906 H 544.872 -0.706814 -0.0770389 0
M  V30 5907 H 547.474 -1.89594 0.476917 0
M  V30 5908 H 546.178 -4.09073 0.329745 0
M  V30 5909 H 545.709 -3.70144 -1.33256 0
M  V30 5910 H 547.724 -4.32676 -2.42911 0
M  V30 5911 N 546.897 -0.0685191 -1.57451 0
M  V30 5912 C 547.807 0.914677 -2.16034 0
M  V30 5913 C 548.823 1.32938 -1.12265 0
M  V30 5914 O 549.999 1.40275 -1.44516 0
M  V30 5915 C 547.064 2.16519 -2.70777 0
M  V30 5916 C 546.125 1.80721 -3.89408 0
M  V30 5917 C 545.358 2.9981 -4.41531 0
M  V30 5918 O 545.581 4.13727 -3.92666 0
M  V30 5919 O 544.515 2.79817 -5.32903 0
M  V30 5920 H 548.341 0.446364 -3.00402 0
M  V30 5921 H 545.926 0.154367 -1.486 0
M  V30 5922 H 547.808 2.89856 -3.05878 0
M  V30 5923 H 546.483 2.62454 -1.89471 0
M  V30 5924 H 545.39 1.04646 -3.59166 0
M  V30 5925 H 546.723 1.39571 -4.71997 0
M  V30 5926 N 548.375 1.56261 0.205012 0
M  V30 5927 C 549.305 1.96779 1.257 0
M  V30 5928 C 550.286 0.838309 1.48008 0
M  V30 5929 O 551.471 1.10189 1.59913 0
M  V30 5930 C 548.601 2.29876 2.60335 0
M  V30 5931 C 547.555 3.45469 2.52656 0
M  V30 5932 C 546.881 3.64215 3.91473 0
M  V30 5933 C 548.181 4.79954 2.06014 0
M  V30 5934 H 549.875 2.84904 0.920338 0
M  V30 5935 H 547.421 1.37072 0.441277 0
M  V30 5936 H 549.374 2.56814 3.34102 0
M  V30 5937 H 548.098 1.38622 2.95722 0
M  V30 5938 H 546.757 3.18605 1.81345 0
M  V30 5939 H 546.405 2.70309 4.24196 0
M  V30 5940 H 546.105 4.41973 3.87213 0
M  V30 5941 H 547.629 3.93519 4.66878 0
M  V30 5942 H 549.043 5.05989 2.69533 0
M  V30 5943 H 547.44 5.61111 2.12777 0
M  V30 5944 H 548.51 4.74201 1.01297 0
M  V30 5945 N 549.853 -0.472356 1.50355 0
M  V30 5946 C 551.099 -1.22634 1.6152 0
M  V30 5947 C 551.432 -1.91645 0.313995 0
M  V30 5948 O 550.707 -1.82059 -0.684446 0
M  V30 5949 C 550.99 -2.27099 2.7946 0
M  V30 5950 C 550.843 -1.62402 4.19459 0
M  V30 5951 C 552.162 -3.28421 2.92964 0
M  V30 5952 H 549.281 -0.444494 0.587873 0
M  V30 5953 H 551.923 -0.520321 1.82737 0
M  V30 5954 H 550.073 -2.87314 2.61501 0
M  V30 5955 H 551.745 -1.05793 4.49005 0
M  V30 5956 H 549.988 -0.927184 4.23776 0
M  V30 5957 H 550.659 -2.38309 4.97909 0
M  V30 5958 H 553.135 -2.78227 3.09401 0
M  V30 5959 H 552.011 -3.98845 3.77113 0
M  V30 5960 H 552.272 -3.92467 2.03525 0
M  V30 5961 N 551.331 -1.39911 -0.725443 0
M  V30 5962 C 552.577 -1.37858 -1.48738 0
M  V30 5963 C 552.91 0.0224187 -1.94187 0
M  V30 5964 O 552.185 0.989204 -1.67466 0
M  V30 5965 C 552.468 -2.3594 -2.72038 0
M  V30 5966 C 552.321 -3.85023 -2.32546 0
M  V30 5967 C 553.64 -2.31704 -3.74167 0
M  V30 5968 H 550.759 -0.502074 -0.539528 0
M  V30 5969 H 553.401 -1.70974 -0.828728 0
M  V30 5970 H 551.551 -2.0783 -3.28236 0
M  V30 5971 H 553.223 -4.2392 -1.81905 0
M  V30 5972 H 551.466 -4.01334 -1.64661 0
M  V30 5973 H 552.137 -4.49152 -3.20884 0
M  V30 5974 H 554.613 -2.5658 -3.27576 0
M  V30 5975 H 553.489 -3.02395 -4.58092 0
M  V30 5976 H 553.75 -1.3253 -4.21768 0
M  V30 5977 N 552.809 0.956637 -1.25245 0
M  V30 5978 C 554.086 1.67716 -1.00651 0
M  V30 5979 C 554.466 2.0585 0.467866 0
M  V30 5980 O 553.814 1.77029 1.44475 0
M  V30 5981 C 554.024 2.90093 -1.94028 0
M  V30 5982 C 555.372 3.6209 -2.21756 0
M  V30 5983 O 556.396 3.00171 -1.9177 0
M  V30 5984 O 555.255 4.7358 -2.72735 0
M  V30 5985 H 552.349 0.733731 -0.381533 0
M  V30 5986 H 554.895 1.00974 -1.3639 0
M  V30 5987 H 553.667 2.58689 -2.93591 0
M  V30 5988 H 553.29 3.64566 -1.58674 0
M  V30 5989 N 554.287 1.06798 1.15896 0
M  V30 5990 C 555.217 0.704677 2.22613 0
M  V30 5991 C 556.198 -0.305252 1.67339 0
M  V30 5992 O 557.383 -0.179247 1.93371 0
M  V30 5993 C 554.513 0.0957325 3.47168 0
M  V30 5994 C 553.467 1.0322 4.15367 0
M  V30 5995 C 552.793 0.286293 5.33933 0
M  V30 5996 C 554.093 2.36341 4.65768 0
M  V30 5997 H 555.787 1.59688 2.53259 0
M  V30 5998 H 553.333 0.769257 1.21731 0
M  V30 5999 H 555.286 -0.170333 4.21056 0
M  V30 6000 H 554.01 -0.831516 3.15838 0
M  V30 6001 H 552.669 1.28309 3.43413 0
M  V30 6002 H 552.317 -0.644237 4.98857 0
M  V30 6003 H 552.017 0.910436 5.80504 0
M  V30 6004 H 553.541 0.0278938 6.10594 0
M  V30 6005 H 554.955 2.1561 5.31211 0
M  V30 6006 H 553.352 2.94299 5.2298 0
M  V30 6007 H 554.422 2.99047 3.81705 0
M  V30 6008 N 555.766 -1.3263 0.851289 0
M  V30 6009 C 557.013 -1.97368 0.453023 0
M  V30 6010 C 557.341 -1.67384 -0.990596 0
M  V30 6011 O 556.596 -0.952665 -1.70947 0
M  V30 6012 C 556.895 -3.51713 0.635015 0
M  V30 6013 C 556.561 -4.01676 2.04859 0
M  V30 6014 C 555.223 -4.15031 2.43522 0
M  V30 6015 C 557.575 -4.28206 2.97135 0
M  V30 6016 C 554.903 -4.52257 3.73739 0
M  V30 6017 C 557.255 -4.66889 4.26846 0
M  V30 6018 C 555.919 -4.7845 4.65448 0
M  V30 6019 H 555.189 -0.722219 0.165773 0
M  V30 6020 H 557.836 -1.58092 1.0807 0
M  V30 6021 H 556.141 -3.91726 -0.0759081 0
M  V30 6022 H 557.838 -3.99823 0.306964 0
M  V30 6023 H 554.428 -3.91764 1.73836 0
M  V30 6024 H 558.612 -4.174 2.68498 0
M  V30 6025 H 553.868 -4.59402 4.03435 0
M  V30 6026 H 558.042 -4.86372 4.98413 0
M  V30 6027 H 555.669 -5.07052 5.66395 0
M  V30 6028 N 557.244 -0.608902 -1.45362 0
M  V30 6029 C 558.49 -0.104762 -2.02529 0
M  V30 6030 C 558.823 1.26191 -1.47613 0
M  V30 6031 O 558.098 1.8327 -0.65134 0
M  V30 6032 C 558.381 -0.0672661 -3.60037 0
M  V30 6033 C 558.234 -1.4647 -4.25284 0
M  V30 6034 C 559.553 0.619877 -4.35713 0
M  V30 6035 H 556.672 -0.0395438 -0.735938 0
M  V30 6036 H 559.314 -0.781126 -1.73201 0
M  V30 6037 H 557.464 0.50871 -3.85155 0
M  V30 6038 H 559.136 -2.08785 -4.11347 0
M  V30 6039 H 557.379 -2.02502 -3.83634 0
M  V30 6040 H 558.05 -1.39069 -5.34195 0
M  V30 6041 H 560.526 0.130297 -4.15896 0
M  V30 6042 H 559.402 0.615224 -5.45441 0
M  V30 6043 H 559.663 1.68621 -4.0868 0
M  V30 6044 N 558.722 1.53707 -0.348139 0
M  V30 6045 C 560.138 1.596 0.00361134 0
M  V30 6046 C 560.338 1.36394 1.4832 0
M  V30 6047 O 559.394 1.16046 2.24253 0
M  V30 6048 C 560.707 2.97512 -0.436682 0
M  V30 6049 C 562.255 3.10568 -0.389416 0
M  V30 6050 C 562.73 4.50866 -0.805249 0
M  V30 6051 N 564.221 4.56929 -0.759616 0
M  V30 6052 C 564.956 5.63643 -1.05327 0
M  V30 6053 N 564.452 6.78189 -1.41531 0
M  V30 6054 N 566.245 5.5354 -0.977207 0
M  V30 6055 H 558.396 1.67044 -1.31187 0
M  V30 6056 H 560.659 0.782559 -0.535075 0
M  V30 6057 H 560.365 3.19575 -1.46849 0
M  V30 6058 H 560.239 3.76742 0.185744 0
M  V30 6059 H 562.626 2.88226 0.633228 0
M  V30 6060 H 562.707 2.33387 -1.04711 0
M  V30 6061 H 562.351 4.73943 -1.82593 0
M  V30 6062 H 562.281 5.26452 -0.124989 0
M  V30 6063 H 564.772 3.74675 -0.49265 0
M  V30 6064 H 565.085 7.55541 -1.62411 0
M  V30 6065 H 563.43 6.79624 -1.45381 0
M  V30 6066 H 566.621 4.62932 -0.693675 0
M  V30 6067 H 566.794 6.36614 -1.2094 0
M  V30 6068 N 560.2 0.0768682 1.57412 0
M  V30 6069 C 561.428 -0.59997 1.9801 0
M  V30 6070 C 561.843 -1.62842 0.955408 0
M  V30 6071 O 561.2 -1.8241 -0.057314 0
M  V30 6072 C 561.251 -1.26401 3.38681 0
M  V30 6073 O 560.972 -0.276723 4.37225 0
M  V30 6074 C 562.473 -2.0282 3.94182 0
M  V30 6075 H 559.693 -0.162239 0.651091 0
M  V30 6076 H 562.237 0.150771 2.03943 0
M  V30 6077 H 560.392 -1.96581 3.33819 0
M  V30 6078 H 560.806 -0.753744 5.19056 0
M  V30 6079 H 562.28 -2.44667 4.94815 0
M  V30 6080 H 562.757 -2.88678 3.31001 0
M  V30 6081 H 563.363 -1.37496 4.02461 0
M  V30 6082 N 561.678 -1.56367 -0.196722 0
M  V30 6083 C 562.924 -1.80796 -0.918725 0
M  V30 6084 C 563.257 -0.650645 -1.82976 0
M  V30 6085 O 562.532 0.348889 -1.91345 0
M  V30 6086 C 562.815 -3.15472 -1.73636 0
M  V30 6087 C 562.668 -4.41693 -0.85015 0
M  V30 6088 C 563.987 -3.46824 -2.70927 0
M  V30 6089 H 561.106 -0.657702 -0.332561 0
M  V30 6090 H 563.748 -1.89086 -0.186186 0
M  V30 6091 H 561.898 -3.08536 -2.36088 0
M  V30 6092 H 563.57 -4.60673 -0.240459 0
M  V30 6093 H 561.813 -4.33517 -0.156785 0
M  V30 6094 H 562.484 -5.32419 -1.45719 0
M  V30 6095 H 564.96 -3.54049 -2.18607 0
M  V30 6096 H 563.836 -4.4218 -3.25219 0
M  V30 6097 H 564.097 -2.70236 -3.49893 0
M  V30 6098 N 563.156 0.464375 -1.50603 0
M  V30 6099 C 564.086 1.56944 -1.72889 0
M  V30 6100 C 565.067 1.59979 -0.577997 0
M  V30 6101 O 566.252 1.76138 -0.817855 0
M  V30 6102 C 563.382 2.95225 -1.8292 0
M  V30 6103 C 562.336 3.07056 -2.98162 0
M  V30 6104 C 561.662 4.47051 -2.93343 0
M  V30 6105 C 562.962 2.83648 -4.38567 0
M  V30 6106 H 564.656 1.38547 -2.65415 0
M  V30 6107 H 562.202 0.665082 -1.27721 0
M  V30 6108 H 564.155 3.72467 -1.97095 0
M  V30 6109 H 562.879 3.14793 -0.870209 0
M  V30 6110 H 561.538 2.32248 -2.83648 0
M  V30 6111 H 561.186 4.63547 -1.95276 0
M  V30 6112 H 560.886 4.55902 -3.70712 0
M  V30 6113 H 562.41 5.26304 -3.09575 0
M  V30 6114 H 563.824 3.50636 -4.53572 0
M  V30 6115 H 562.221 3.03937 -5.17438 0
M  V30 6116 H 563.291 1.79451 -4.50472 0
M  V30 6117 N 564.634 1.40294 0.718013 0
M  V30 6118 C 565.88 1.38645 1.48005 0
M  V30 6119 C 566.213 -0.0121202 1.94196 0
M  V30 6120 O 565.488 -0.980309 1.67989 0
M  V30 6121 C 565.771 2.37379 2.70782 0
M  V30 6122 C 565.624 3.8625 2.30501 0
M  V30 6123 C 566.943 2.33685 3.72933 0
M  V30 6124 H 564.062 0.504928 0.536858 0
M  V30 6125 H 566.704 1.71411 0.819649 0
M  V30 6126 H 564.854 2.09568 3.27129 0
M  V30 6127 H 566.526 4.24879 1.79655 0
M  V30 6128 H 564.769 4.02202 1.6253 0
M  V30 6129 H 565.44 4.50847 3.18498 0
M  V30 6130 H 567.916 2.58314 3.2621 0
M  V30 6131 H 566.792 3.0482 4.56482 0
M  V30 6132 H 567.053 1.34765 4.21059 0
M  V30 6133 N 566.112 -0.949982 1.2575 0
M  V30 6134 C 567.352 -1.70994 1.11984 0
M  V30 6135 C 567.716 -1.89095 -0.332746 0
M  V30 6136 O 568.917 -2.62192 -0.592331 0
M  V30 6137 C 567.188 -3.05286 1.85837 0
M  V30 6138 S 568.747 -3.96477 1.88019 0
M  V30 6139 H 565.565 -0.587689 0.400178 0
M  V30 6140 H 568.167 -1.13271 1.59342 0
M  V30 6141 H 566.871 -2.89785 2.90608 0
M  V30 6142 H 566.402 -3.68069 1.38885 0
M  V30 6143 H 568.417 -4.86814 0.96057 0
M  V30 6144 N 567.59 -1.07411 -1.15328 0
M  V30 6145 C 568.52 -0.716472 -2.22236 0
M  V30 6146 C 569.501 0.296373 -1.67498 0
M  V30 6147 O 570.686 0.168989 -1.93463 0
M  V30 6148 C 567.816 -0.114142 -3.47112 0
M  V30 6149 C 566.77 -1.05421 -4.14814 0
M  V30 6150 C 566.096 -0.314604 -5.33774 0
M  V30 6151 C 567.396 -2.38808 -4.64508 0
M  V30 6152 H 569.09 -1.61029 -2.52408 0
M  V30 6153 H 566.636 -0.775702 -1.21321 0
M  V30 6154 H 568.589 0.148001 -4.2114 0
M  V30 6155 H 567.313 0.814755 -3.16274 0
M  V30 6156 H 565.972 -1.30128 -3.42728 0
M  V30 6157 H 565.62 0.617772 -4.99192 0
M  V30 6158 H 565.32 -0.941209 -5.80013 0
M  V30 6159 H 566.844 -0.0602747 -6.1057 0
M  V30 6160 H 568.258 -2.18424 -5.3006 0
M  V30 6161 H 566.655 -2.97069 -5.21412 0
M  V30 6162 H 567.725 -3.01067 -3.80114 0
M  V30 6163 N 569.068 1.32177 -0.85831 0
M  V30 6164 C 570.296 2.01313 -0.477582 0
M  V30 6165 C 570.711 1.6449 0.926736 0
M  V30 6166 O 570.068 0.868096 1.60531 0
M  V30 6167 C 570.119 3.56293 -0.611337 0
M  V30 6168 O 569.84 3.91794 -1.96034 0
M  V30 6169 C 571.341 4.42702 -0.230093 0
M  V30 6170 H 568.561 0.644323 -0.187322 0
M  V30 6171 H 571.105 1.68674 -1.15626 0
M  V30 6172 H 569.26 3.87395 0.0196494 0
M  V30 6173 H 569.674 4.86513 -1.95973 0
M  V30 6174 H 571.148 5.50727 -0.374674 0
M  V30 6175 H 571.625 4.3129 0.829779 0
M  V30 6176 H 572.231 4.16997 -0.836302 0
M  V30 6177 N 570.547 0.616602 1.45037 0
M  V30 6178 C 571.787 0.118453 2.04056 0
M  V30 6179 C 572.151 -1.23104 1.47341 0
M  V30 6180 O 573.352 -1.82044 1.97771 0
M  V30 6181 C 571.623 0.0892842 3.57288 0
M  V30 6182 S 573.182 -0.346361 4.37431 0
M  V30 6183 H 570 0.0539728 0.708948 0
M  V30 6184 H 572.602 0.816731 1.77623 0
M  V30 6185 H 571.306 1.07481 3.96076 0
M  V30 6186 H 570.837 -0.630703 3.88311 0
M  V30 6187 H 572.852 -1.59389 4.69904 0
M  V30 6188 N 572.025 -1.5352 0.356285 0
M  V30 6189 C 573.274 -2.00298 -0.237373 0
M  V30 6190 C 573.587 -1.24784 -1.50627 0
M  V30 6191 O 574.793 -1.62103 -2.17795 0
M  V30 6192 C 573.249 -3.56771 -0.473545 0
M  V30 6193 C 572.857 -4.41154 0.780183 0
M  V30 6194 C 574.601 -4.1193 -1.02537 0
M  V30 6195 C 572.508 -5.89161 0.514108 0
M  V30 6196 H 571.438 -0.748307 -0.092478 0
M  V30 6197 H 574.089 -1.77283 0.473588 0
M  V30 6198 H 572.471 -3.75902 -1.24553 0
M  V30 6199 H 573.645 -4.33797 1.55425 0
M  V30 6200 H 571.96 -3.97052 1.25455 0
M  V30 6201 H 574.557 -5.20133 -1.2396 0
M  V30 6202 H 574.9 -3.65943 -1.98473 0
M  V30 6203 H 575.433 -3.96561 -0.313775 0
M  V30 6204 H 572.172 -6.39408 1.44355 0
M  V30 6205 H 571.692 -5.9939 -0.221632 0
M  V30 6206 H 573.371 -6.46857 0.136122 0
M  V30 6207 N 573.503 -0.0852151 -1.57369 0
M  V30 6208 C 574.433 0.874556 -2.16503 0
M  V30 6209 C 575.414 1.30111 -1.09568 0
M  V30 6210 O 576.599 1.36977 -1.37662 0
M  V30 6211 C 573.729 2.13731 -2.73745 0
M  V30 6212 C 572.683 1.84971 -3.85966 0
M  V30 6213 C 572.009 3.17991 -4.29867 0
M  V30 6214 C 573.309 1.14442 -5.09608 0
M  V30 6215 H 575.003 0.381899 -2.96954 0
M  V30 6216 H 572.549 0.18225 -1.42842 0
M  V30 6217 H 574.502 2.81302 -3.13763 0
M  V30 6218 H 573.226 2.65263 -1.90534 0
M  V30 6219 H 571.885 1.19801 -3.46473 0
M  V30 6220 H 571.533 3.6739 -3.4356 0
M  V30 6221 H 571.233 2.99534 -5.05523 0
M  V30 6222 H 572.757 3.86737 -4.72511 0
M  V30 6223 H 574.171 1.72105 -5.46857 0
M  V30 6224 H 572.568 1.06197 -5.90629 0
M  V30 6225 H 573.638 0.12559 -4.84737 0
M  V30 6226 N 574.981 1.5647 0.188427 0
M  V30 6227 C 575.944 1.9421 1.21718 0
M  V30 6228 C 576.944 0.823901 1.38089 0
M  V30 6229 O 578.134 1.09122 1.35787 0
M  V30 6230 C 575.266 2.22197 2.58537 0
M  V30 6231 H 576.459 2.86252 0.894418 0
M  V30 6232 H 574.012 1.50263 0.430211 0
M  V30 6233 H 574.747 1.32814 2.95856 0
M  V30 6234 H 574.532 3.03688 2.48025 0
M  V30 6235 H 576.022 2.52376 3.3271 0
M  V30 6236 N 576.459 -0.456382 1.50847 0
M  V30 6237 C 577.708 -1.2042 1.61808 0
M  V30 6238 C 578.021 -1.9278 0.330932 0
M  V30 6239 O 579.227 -2.69612 0.319643 0
M  V30 6240 C 577.683 -2.18891 2.85683 0
M  V30 6241 C 577.291 -1.52267 4.2133 0
M  V30 6242 C 579.035 -2.94224 3.05994 0
M  V30 6243 C 576.942 -2.4911 5.36375 0
M  V30 6244 H 575.872 -0.453177 0.602616 0
M  V30 6245 H 578.523 -0.473144 1.77295 0
M  V30 6246 H 576.905 -2.95351 2.63787 0
M  V30 6247 H 578.079 -0.814949 4.53536 0
M  V30 6248 H 576.394 -0.891594 4.06743 0
M  V30 6249 H 578.991 -3.66732 3.89117 0
M  V30 6250 H 579.334 -3.54469 2.18306 0
M  V30 6251 H 579.867 -2.24874 3.28141 0
M  V30 6252 H 576.606 -1.93582 6.26264 0
M  V30 6253 H 576.126 -3.17991 5.08569 0
M  V30 6254 H 577.805 -3.10637 5.67551 0
M  V30 6255 N 577.937 -1.40673 -0.710563 0
M  V30 6256 C 578.867 -1.44095 -1.83736 0
M  V30 6257 C 579.848 -0.301286 -1.67411 0
M  V30 6258 O 581.033 -0.510618 -1.87367 0
M  V30 6259 C 578.163 -1.30773 -3.21738 0
M  V30 6260 C 577.117 -2.42395 -3.52745 0
M  V30 6261 C 576.443 -2.14147 -4.89944 0
M  V30 6262 C 577.743 -3.84738 -3.53234 0
M  V30 6263 H 579.437 -2.38396 -1.81129 0
M  V30 6264 H 576.983 -1.14746 -0.870017 0
M  V30 6265 H 578.936 -1.31783 -4.00264 0
M  V30 6266 H 577.66 -0.329507 -3.24934 0
M  V30 6267 H 576.319 -2.40643 -2.76562 0
M  V30 6268 H 575.967 -1.14703 -4.89747 0
M  V30 6269 H 575.667 -2.88934 -5.11655 0
M  V30 6270 H 577.191 -2.16848 -5.70797 0
M  V30 6271 H 578.605 -3.88286 -4.2179 0
M  V30 6272 H 577.002 -4.59085 -3.86473 0
M  V30 6273 H 578.072 -4.13962 -2.52514 0
M  V30 6274 N 579.415 0.9433 -1.26252 0
M  V30 6275 C 580.664 1.68369 -1.11062 0
M  V30 6276 C 580.977 1.92514 0.346104 0
M  V30 6277 O 582.183 2.64358 0.618646 0
M  V30 6278 C 580.639 3.03171 -1.93946 0
M  V30 6279 C 580.247 2.86782 -3.4418 0
M  V30 6280 C 581.991 3.80916 -1.87359 0
M  V30 6281 C 579.898 4.17044 -4.19319 0
M  V30 6282 H 578.828 0.631469 -0.412023 0
M  V30 6283 H 581.479 1.04922 -1.50544 0
M  V30 6284 H 579.861 3.67587 -1.47296 0
M  V30 6285 H 581.035 2.31229 -3.98585 0
M  V30 6286 H 579.35 2.22482 -3.51981 0
M  V30 6287 H 581.947 4.77417 -2.40784 0
M  V30 6288 H 582.29 4.07658 -0.843857 0
M  V30 6289 H 582.823 3.2327 -2.31821 0
M  V30 6290 H 579.562 3.95487 -5.22753 0
M  V30 6291 H 579.082 4.72319 -3.69696 0
M  V30 6292 H 580.761 4.85513 -4.27651 0
M  V30 6293 N 580.893 1.08022 1.14757 0
M  V30 6294 C 582.304 0.829144 1.67279 0
M  V30 6295 C 582.655 -0.644721 1.85305 0
M  V30 6296 O 581.78 -1.49838 1.56133 0
M  V30 6297 C 582.375 1.49855 3.03857 0
M  V30 6298 C 580.934 1.29482 3.53428 0
M  V30 6299 C 580.081 1.56386 2.28995 0
M  V30 6300 H 583.032 1.24134 0.988762 0
M  V30 6301 H 583.053 0.923572 3.69121 0
M  V30 6302 H 582.565 2.57123 2.90705 0
M  V30 6303 H 580.666 0.242669 3.71809 0
M  V30 6304 H 580.779 2.01974 4.34446 0
M  V30 6305 H 579.143 0.985217 2.34874 0
M  V30 6306 H 579.926 2.64851 2.18423 0
M  V30 6307 N 582.371 -1.3172 0.865308 0
M  V30 6308 C 583.787 -1.4958 0.556596 0
M  V30 6309 C 583.987 -1.79763 -0.910353 0
M  V30 6310 O 583.043 -1.87351 -1.6928 0
M  V30 6311 C 584.356 -2.63277 1.45279 0
M  V30 6312 C 585.904 -2.77161 1.45433 0
M  V30 6313 C 586.379 -3.93949 2.33598 0
M  V30 6314 N 587.87 -4.01228 2.31453 0
M  V30 6315 C 588.605 -4.90855 2.96393 0
M  V30 6316 N 588.101 -5.85416 3.70486 0
M  V30 6317 N 589.894 -4.84063 2.85726 0
M  V30 6318 H 582.045 -1.10396 1.81456 0
M  V30 6319 H 584.308 -0.54507 0.775631 0
M  V30 6320 H 584.014 -2.47734 2.49641 0
M  V30 6321 H 583.888 -3.59309 1.14792 0
M  V30 6322 H 586.275 -2.9212 0.41831 0
M  V30 6323 H 586.356 -1.8181 1.79941 0
M  V30 6324 H 586 -3.79748 3.37274 0
M  V30 6325 H 585.93 -4.88598 1.96417 0
M  V30 6326 H 588.421 -3.3357 1.77593 0
M  V30 6327 H 588.734 -6.50525 4.17178 0
M  V30 6328 H 587.079 -5.85409 3.74594 0
M  V30 6329 H 590.27 -4.09163 2.27384 0
M  V30 6330 H 590.443 -5.53708 3.36617 0
M  V30 6331 N 583.85 -0.624285 -1.44708 0
M  V30 6332 C 584.779 0.0717025 -2.3339 0
M  V30 6333 C 585.76 0.841814 -1.47809 0
M  V30 6334 O 586.946 0.809056 -1.76544 0
M  V30 6335 C 584.076 1.05852 -3.30776 0
M  V30 6336 C 583.029 0.400503 -4.26122 0
M  V30 6337 C 582.356 1.49674 -5.13324 0
M  V30 6338 C 583.656 -0.688924 -5.17737 0
M  V30 6339 H 585.35 -0.668819 -2.91834 0
M  V30 6340 H 582.896 -0.32308 -1.40329 0
M  V30 6341 H 584.849 1.5541 -3.91696 0
M  V30 6342 H 583.572 1.82984 -2.70526 0
M  V30 6343 H 582.231 -0.0743687 -3.66525 0
M  V30 6344 H 581.88 2.25877 -4.49431 0
M  V30 6345 H 581.58 1.06188 -5.77926 0
M  V30 6346 H 583.104 1.99427 -5.77115 0
M  V30 6347 H 584.518 -0.276724 -5.72632 0
M  V30 6348 H 582.915 -1.04652 -5.90904 0
M  V30 6349 H 583.985 -1.55884 -4.5916 0
M  V30 6350 N 585.328 1.53329 -0.364422 0
M  V30 6351 C 586.605 1.93557 0.281962 0
M  V30 6352 C 586.985 1.29786 1.6649 0
M  V30 6353 O 586.333 0.456512 2.23893 0
M  V30 6354 C 586.543 3.47405 0.333331 0
M  V30 6355 C 587.891 4.20699 0.574231 0
M  V30 6356 O 588.915 3.53779 0.414588 0
M  V30 6357 O 587.774 5.39287 0.885002 0
M  V30 6358 H 584.868 0.809573 0.168881 0
M  V30 6359 H 587.414 1.64494 -0.417121 0
M  V30 6360 H 586.186 3.86091 -0.636326 0
M  V30 6361 H 585.809 3.82697 1.07836 0
M  V30 6362 N 586.806 0.0935595 1.57322 0
M  V30 6363 C 587.736 -0.863062 2.16964 0
M  V30 6364 C 588.717 -1.29528 1.10256 0
M  V30 6365 O 589.902 -1.36245 1.38387 0
M  V30 6366 C 587.032 -2.12276 2.74875 0
M  V30 6367 C 585.986 -1.82921 3.86942 0
M  V30 6368 C 585.312 -3.15707 4.31548 0
M  V30 6369 C 586.612 -1.11737 5.10208 0
M  V30 6370 H 588.306 -0.366145 2.97153 0
M  V30 6371 H 585.852 -0.174673 1.42937 0
M  V30 6372 H 587.805 -2.79634 3.1525 0
M  V30 6373 H 586.529 -2.64248 1.91938 0
M  V30 6374 H 585.188 -1.17961 3.47103 0
M  V30 6375 H 584.836 -3.65563 3.45504 0
M  V30 6376 H 584.536 -2.96849 5.07104 0
M  V30 6377 H 586.06 -3.84226 4.74555 0
M  V30 6378 H 587.474 -1.69203 5.47762 0
M  V30 6379 H 585.871 -1.03064 5.91183 0
M  V30 6380 H 586.941 -0.0998818 4.84797 0
M  V30 6381 N 588.284 -1.56567 -0.180126 0
M  V30 6382 C 589.53 -1.81761 -0.899497 0
M  V30 6383 C 589.863 -0.670015 -1.82276 0
M  V30 6384 O 589.138 0.328575 -1.91705 0
M  V30 6385 C 589.421 -3.17296 -1.7028 0
M  V30 6386 C 589.274 -4.4257 -0.803255 0
M  V30 6387 C 590.593 -3.49678 -2.67233 0
M  V30 6388 H 587.712 -0.661192 -0.325567 0
M  V30 6389 H 590.354 -1.89272 -0.16612 0
M  V30 6390 H 588.504 -3.11023 -2.32802 0
M  V30 6391 H 590.176 -4.60902 -0.191585 0
M  V30 6392 H 588.419 -4.33658 -0.110796 0
M  V30 6393 H 589.09 -5.33935 -1.40064 0
M  V30 6394 H 591.566 -3.56347 -2.14839 0
M  V30 6395 H 590.442 -4.45605 -3.20511 0
M  V30 6396 H 590.703 -2.73932 -3.47007 0
M  V30 6397 N 589.762 0.448376 -1.51087 0
M  V30 6398 C 591.011 1.19561 -1.62444 0
M  V30 6399 C 591.324 1.92602 -0.341151 0
M  V30 6400 O 592.53 2.69439 -0.333936 0
M  V30 6401 C 590.986 2.17373 -2.8684 0
M  V30 6402 C 590.594 1.5003 -4.22131 0
M  V30 6403 C 592.338 2.92597 -3.0755 0
M  V30 6404 C 590.245 2.46262 -5.37689 0
M  V30 6405 H 589.175 0.449975 -0.605011 0
M  V30 6406 H 591.826 0.463735 -1.77544 0
M  V30 6407 H 590.208 2.93948 -2.65349 0
M  V30 6408 H 591.382 0.790886 -4.53962 0
M  V30 6409 H 589.697 0.870011 -4.0721 0
M  V30 6410 H 592.294 3.64663 -3.91056 0
M  V30 6411 H 592.637 3.53306 -2.20183 0
M  V30 6412 H 593.17 2.23131 -3.29329 0
M  V30 6413 H 589.909 1.90258 -6.27281 0
M  V30 6414 H 589.429 3.15289 -5.10248 0
M  V30 6415 H 591.108 3.07623 -5.6919 0
M  V30 6416 N 591.24 1.41047 0.703093 0
M  V30 6417 C 592.465 1.43537 1.49706 0
M  V30 6418 C 592.89 0.0401853 1.88057 0
M  V30 6419 O 592.248 -0.954785 1.54122 0
M  V30 6420 C 592.296 2.3433 2.74084 0
M  V30 6421 O 591.4 1.79515 3.71279 0
M  V30 6422 H 590.741 0.487454 0.450871 0
M  V30 6423 H 593.271 1.85422 0.86486 0
M  V30 6424 H 593.281 2.49947 3.22476 0
M  V30 6425 H 591.956 3.35708 2.45506 0
M  V30 6426 H 590.533 1.7331 3.30179 0
M  V30 6427 N 592.718 -0.936591 1.26751 0
M  V30 6428 C 593.648 -2.05315 1.11212 0
M  V30 6429 C 594.629 -1.70092 0.0160262 0
M  V30 6430 O 595.814 -1.93279 0.188894 0
M  V30 6431 C 592.944 -3.39123 0.749171 0
M  V30 6432 C 591.898 -3.88425 1.79751 0
M  V30 6433 C 591.224 -5.18936 1.28876 0
M  V30 6434 C 592.524 -4.12798 3.19992 0
M  V30 6435 H 594.218 -2.18573 2.04613 0
M  V30 6436 H 591.764 -1.05027 0.985159 0
M  V30 6437 H 593.717 -4.16704 0.627323 0
M  V30 6438 H 592.441 -3.25855 -0.220543 0
M  V30 6439 H 591.1 -3.13028 1.90811 0
M  V30 6440 H 590.748 -5.02051 0.308757 0
M  V30 6441 H 590.448 -5.52892 1.98958 0
M  V30 6442 H 591.972 -5.99096 1.17967 0
M  V30 6443 H 593.386 -4.80977 3.11983 0
M  V30 6444 H 591.783 -4.58044 3.87705 0
M  V30 6445 H 592.853 -3.18412 3.65707 0
M  V30 6446 N 594.196 -1.08629 -1.14182 0
M  V30 6447 C 595.442 -0.818556 -1.85546 0
M  V30 6448 C 595.775 0.654076 -1.82854 0
M  V30 6449 O 595.05 1.48099 -1.26083 0
M  V30 6450 C 595.333 -1.34397 -3.3408 0
M  V30 6451 C 595.186 -2.8821 -3.45333 0
M  V30 6452 C 596.505 -0.971069 -4.29253 0
M  V30 6453 H 593.624 -0.298821 -0.673702 0
M  V30 6454 H 596.266 -1.34629 -1.34071 0
M  V30 6455 H 594.416 -0.895064 -3.78049 0
M  V30 6456 H 596.088 -3.41488 -3.10134 0
M  V30 6457 H 594.331 -3.25756 -2.86471 0
M  V30 6458 H 595.002 -3.20047 -4.49749 0
M  V30 6459 H 597.478 -1.35809 -3.93313 0
M  V30 6460 H 596.354 -1.36586 -5.31635 0
M  V30 6461 H 596.615 0.121659 -4.41933 0
M  V30 6462 N 595.674 1.31259 -0.872281 0
M  V30 6463 C 596.922 1.96233 -0.483409 0
M  V30 6464 C 597.243 1.69276 0.968012 0
M  V30 6465 O 596.513 1.00943 1.67891 0
M  V30 6466 H 595.093 0.726025 -0.175774 0
M  V30 6467 H 597.755 1.60024 -1.11258 0
M  V30 6468 H 596.851 3.05403 -0.643075 0
M  V30 6469 N 597.152 0.631951 1.44375 0
M  V30 6470 C 598.377 0.142146 2.06912 0
M  V30 6471 C 598.802 -1.17456 1.4692 0
M  V30 6472 O 598.16 -1.72074 0.570975 0
M  V30 6473 C 598.208 0.0417952 3.60576 0
M  V30 6474 O 597.312 -1.00194 4.00044 0
M  V30 6475 H 596.653 0.0851491 0.658518 0
M  V30 6476 H 599.183 0.868863 1.85235 0
M  V30 6477 H 599.193 -0.148517 4.0773 0
M  V30 6478 H 597.868 1.0031 4.03622 0
M  V30 6479 H 596.445 -0.786131 3.64519 0
M  V30 6480 N 598.631 -1.53133 0.372548 0
M  V30 6481 C 599.877 -2.01654 -0.215277 0
M  V30 6482 C 600.21 -1.25914 -1.47849 0
M  V30 6483 O 599.485 -0.3548 -1.91237 0
M  V30 6484 C 599.768 -3.56609 -0.500187 0
M  V30 6485 C 599.621 -4.43036 0.777145 0
M  V30 6486 C 600.94 -4.20528 -1.29786 0
M  V30 6487 H 598.059 -0.732991 -0.0767686 0
M  V30 6488 H 600.701 -1.83335 0.498814 0
M  V30 6489 H 598.851 -3.7235 -1.10852 0
M  V30 6490 H 600.523 -4.39079 1.41447 0
M  V30 6491 H 598.766 -4.10723 1.39604 0
M  V30 6492 H 599.437 -5.49424 0.532662 0
M  V30 6493 H 601.913 -4.08663 -0.783198 0
M  V30 6494 H 600.789 -5.28962 -1.46596 0
M  V30 6495 H 601.05 -3.77051 -2.30836 0
M  V30 6496 N 600.109 -0.101901 -1.5727 0
M  V30 6497 C 601.334 0.571759 -1.99363 0
M  V30 6498 C 601.759 1.60507 -0.980768 0
M  V30 6499 O 601.117 1.81231 0.0498517 0
M  V30 6500 C 601.165 1.18996 -3.404 0
M  V30 6501 O 600.269 2.30572 -3.41922 0
M  V30 6502 H 599.61 0.144449 -0.648098 0
M  V30 6503 H 602.14 -0.185325 -2.03759 0
M  V30 6504 H 602.15 1.52962 -3.78241 0
M  V30 6505 H 600.825 0.432984 -4.1364 0
M  V30 6506 H 599.402 1.98173 -3.15883 0
M  V30 6507 N 601.587 1.56661 0.17182 0
M  V30 6508 C 602.812 1.86459 0.908165 0
M  V30 6509 C 603.237 0.688181 1.75059 0
M  V30 6510 O 602.595 -0.362753 1.77634 0
M  V30 6511 C 602.643 3.14669 1.76112 0
M  V30 6512 O 601.747 2.96858 2.86268 0
M  V30 6513 H 601.088 0.613318 0.254434 0
M  V30 6514 H 603.618 2.03892 0.170113 0
M  V30 6515 H 603.628 3.46061 2.16115 0
M  V30 6516 H 602.303 3.99905 1.14233 0
M  V30 6517 H 600.88 2.76819 2.49852 0
M  V30 6518 N 603.065 -0.440357 1.51323 0
M  V30 6519 C 604.29 -1.21716 1.67928 0
M  V30 6520 C 604.715 -1.84328 0.374826 0
M  V30 6521 O 604.073 -1.68675 -0.664706 0
M  V30 6522 C 604.121 -2.27914 2.79442 0
M  V30 6523 O 603.225 -3.33325 2.42834 0
M  V30 6524 H 602.566 -0.35674 0.560029 0
M  V30 6525 H 605.096 -0.520417 1.97871 0
M  V30 6526 H 605.106 -2.72746 3.03436 0
M  V30 6527 H 603.781 -1.8172 3.741 0
M  V30 6528 H 602.358 -2.9399 2.294 0
M  V30 6529 N 604.543 -1.41418 -0.695603 0
M  V30 6530 C 605.506 -1.42988 -1.79129 0
M  V30 6531 C 606.506 -0.320514 -1.57573 0
M  V30 6532 O 607.696 -0.58039 -1.64247 0
M  V30 6533 C 604.828 -1.24122 -3.175 0
M  V30 6534 H 606.021 -2.40526 -1.7913 0
M  V30 6535 H 603.574 -1.2756 -0.903225 0
M  V30 6536 H 604.309 -0.274253 -3.23138 0
M  V30 6537 H 604.094 -2.045 -3.34547 0
M  V30 6538 H 605.584 -1.28056 -3.97481 0
M  V30 6539 N 606.021 0.929856 -1.27246 0
M  V30 6540 C 606.951 2.04722 -1.12299 0
M  V30 6541 C 607.932 1.70082 -0.0250464 0
M  V30 6542 O 609.117 1.93176 -0.199141 0
M  V30 6543 C 606.247 3.38721 -0.767145 0
M  V30 6544 C 605.201 3.87466 -1.81808 0
M  V30 6545 C 604.527 5.18246 -1.31626 0
M  V30 6546 C 605.827 4.11095 -3.22177 0
M  V30 6547 H 607.521 2.17485 -2.05769 0
M  V30 6548 H 605.067 1.04503 -0.990715 0
M  V30 6549 H 607.02 4.16366 -0.649413 0
M  V30 6550 H 605.744 3.25967 0.203259 0
M  V30 6551 H 604.403 3.12012 -1.92468 0
M  V30 6552 H 604.051 5.01881 -0.335378 0
M  V30 6553 H 603.751 5.51829 -2.01887 0
M  V30 6554 H 605.275 5.98462 -1.21143 0
M  V30 6555 H 606.689 4.79316 -3.1453 0
M  V30 6556 H 605.086 4.55982 -3.90129 0
M  V30 6557 H 606.156 3.16468 -3.67391 0
M  V30 6558 N 607.499 1.09233 1.13605 0
M  V30 6559 C 608.462 0.733553 2.17144 0
M  V30 6560 C 609.462 -0.235873 1.59061 0
M  V30 6561 O 610.652 -0.0143167 1.74194 0
M  V30 6562 C 607.784 0.084471 3.40795 0
M  V30 6563 H 608.977 1.65049 2.50397 0
M  V30 6564 H 606.53 0.891264 1.28399 0
M  V30 6565 H 607.265 -0.843795 3.1313 0
M  V30 6566 H 607.05 0.781985 3.84223 0
M  V30 6567 H 608.54 -0.151216 4.17326 0
M  V30 6568 N 608.977 -1.30795 0.87923 0
M  V30 6569 C 609.907 -2.30742 0.357796 0
M  V30 6570 C 610.888 -1.60747 -0.556283 0
M  V30 6571 O 612.073 -1.88393 -0.47135 0
M  V30 6572 C 609.203 -3.44583 -0.433555 0
M  V30 6573 C 608.157 -4.26235 0.388251 0
M  V30 6574 C 607.483 -5.32073 -0.529352 0
M  V30 6575 C 608.783 -4.96303 1.62729 0
M  V30 6576 H 610.477 -2.74605 1.19299 0
M  V30 6577 H 608.023 -1.32017 0.575104 0
M  V30 6578 H 609.976 -4.13563 -0.808934 0
M  V30 6579 H 608.7 -2.99511 -1.30234 0
M  V30 6580 H 607.359 -3.58936 0.745695 0
M  V30 6581 H 607.007 -4.83249 -1.39569 0
M  V30 6582 H 606.707 -5.87598 0.0166741 0
M  V30 6583 H 608.231 -6.0391 -0.901373 0
M  V30 6584 H 609.645 -5.5783 1.32283 0
M  V30 6585 H 608.042 -5.61666 2.11309 0
M  V30 6586 H 609.112 -4.22758 2.37494 0
M  V30 6587 N 610.455 -0.639598 -1.44038 0
M  V30 6588 C 611.704 -0.144885 -2.01179 0
M  V30 6589 C 612.017 1.24372 -1.50967 0
M  V30 6590 O 613.223 1.83291 -2.00292 0
M  V30 6591 C 611.679 -0.208244 -3.59297 0
M  V30 6592 C 611.287 -1.59869 -4.18504 0
M  V30 6593 C 613.031 0.229568 -4.23879 0
M  V30 6594 C 610.938 -1.61671 -5.68873 0
M  V30 6595 H 609.868 -0.0504005 -0.752314 0
M  V30 6596 H 612.519 -0.799639 -1.65161 0
M  V30 6597 H 610.901 0.513767 -3.92653 0
M  V30 6598 H 612.075 -2.34496 -3.96671 0
M  V30 6599 H 610.39 -1.98131 -3.66242 0
M  V30 6600 H 612.987 0.235758 -5.3418 0
M  V30 6601 H 613.33 1.25848 -3.96822 0
M  V30 6602 H 613.863 -0.440233 -3.95357 0
M  V30 6603 H 610.602 -2.62427 -6.00677 0
M  V30 6604 H 610.122 -0.913489 -5.92803 0
M  V30 6605 H 611.801 -1.35439 -6.32665 0
M  V30 6606 N 611.933 1.52934 -0.380664 0
M  V30 6607 C 613.182 2.00651 0.205477 0
M  V30 6608 C 613.495 1.27164 1.48623 0
M  V30 6609 O 614.701 1.65547 2.15189 0
M  V30 6610 C 613.157 3.57479 0.416726 0
M  V30 6611 C 612.765 4.39857 -0.850268 0
M  V30 6612 C 614.509 4.13509 0.959702 0
M  V30 6613 C 612.416 5.88269 -0.607773 0
M  V30 6614 H 611.346 0.749684 0.0805614 0
M  V30 6615 H 613.997 1.76508 -0.501732 0
M  V30 6616 H 612.379 3.77836 1.18557 0
M  V30 6617 H 613.553 4.31269 -1.62307 0
M  V30 6618 H 611.868 3.95005 -1.31756 0
M  V30 6619 H 614.465 5.22039 1.15669 0
M  V30 6620 H 614.808 3.69054 1.92626 0
M  V30 6621 H 615.341 3.9701 0.250645 0
M  V30 6622 H 612.08 6.3703 -1.54509 0
M  V30 6623 H 611.6 5.99667 0.126247 0
M  V30 6624 H 613.279 6.46558 -0.239014 0
M  V30 6625 N 613.412 0.11024 1.57214 0
M  V30 6626 C 614.823 -0.416527 1.81994 0
M  V30 6627 C 615.174 -1.67183 1.02686 0
M  V30 6628 O 614.299 -2.14823 0.260782 0
M  V30 6629 C 614.894 -0.762466 3.30109 0
M  V30 6630 C 613.453 -1.23391 3.556 0
M  V30 6631 C 612.6 -0.238166 2.76275 0
M  V30 6632 H 615.551 0.335491 1.55113 0
M  V30 6633 H 615.572 -1.62068 3.44259 0
M  V30 6634 H 615.084 0.151346 3.87805 0
M  V30 6635 H 613.185 -2.16492 3.03253 0
M  V30 6636 H 613.298 -1.18528 4.64207 0
M  V30 6637 H 611.662 -0.723421 2.4421 0
M  V30 6638 H 612.445 0.668591 3.36727 0
M  V30 6639 N 614.89 -1.56749 -0.16351 0
M  V30 6640 C 616.301 -1.72039 -0.725216 0
M  V30 6641 C 616.652 -0.72202 -1.82432 0
M  V30 6642 O 615.777 0.114942 -2.16095 0
M  V30 6643 C 616.372 -3.11932 -1.32227 0
M  V30 6644 C 614.931 -3.28879 -1.83072 0
M  V30 6645 C 614.078 -2.67984 -0.712716 0
M  V30 6646 H 617.029 -1.58579 0.0619772 0
M  V30 6647 H 617.05 -3.11015 -2.19202 0
M  V30 6648 H 616.562 -3.84572 -0.522103 0
M  V30 6649 H 614.663 -2.61209 -2.65708 0
M  V30 6650 H 614.776 -4.36688 -1.97079 0
M  V30 6651 H 613.14 -2.28005 -1.13515 0
M  V30 6652 H 613.923 -3.43216 0.0757361 0
M  V30 6653 N 616.368 0.432326 -1.51554 0
M  V30 6654 C 617.298 1.53242 -1.76179 0
M  V30 6655 C 618.279 1.58717 -0.611801 0
M  V30 6656 O 619.464 1.74364 -0.855033 0
M  V30 6657 C 616.594 2.91278 -1.89141 0
M  V30 6658 C 615.548 3.00663 -3.04608 0
M  V30 6659 C 614.874 4.40728 -3.02759 0
M  V30 6660 C 616.174 2.74281 -4.44485 0
M  V30 6661 H 617.868 1.32886 -2.68294 0
M  V30 6662 H 615.414 0.637841 -1.29103 0
M  V30 6663 H 617.367 3.68203 -2.04951 0
M  V30 6664 H 616.091 3.12877 -0.936785 0
M  V30 6665 H 614.75 2.26179 -2.88511 0
M  V30 6666 H 614.398 4.59301 -2.05065 0
M  V30 6667 H 614.098 4.47936 -3.80299 0
M  V30 6668 H 615.622 5.19619 -3.20669 0
M  V30 6669 H 617.036 3.40936 -4.60907 0
M  V30 6670 H 615.433 2.92893 -5.23769 0
M  V30 6671 H 616.503 1.69856 -4.54177 0
M  V30 6672 N 617.846 1.41785 0.688094 0
M  V30 6673 C 618.776 1.47 1.8142 0
M  V30 6674 C 619.757 0.327881 1.6691 0
M  V30 6675 O 620.942 0.540362 1.86531 0
M  V30 6676 C 618.072 1.35876 3.19617 0
M  V30 6677 C 617.026 2.47976 3.48844 0
M  V30 6678 C 616.352 2.21915 4.86475 0
M  V30 6679 C 617.652 3.90309 3.47068 0
M  V30 6680 H 619.346 2.41247 1.77314 0
M  V30 6681 H 616.892 1.16116 0.851651 0
M  V30 6682 H 618.845 1.38134 3.98117 0
M  V30 6683 H 617.569 0.38116 3.24368 0
M  V30 6684 H 616.228 2.45013 2.72698 0
M  V30 6685 H 615.876 1.2248 4.8786 0
M  V30 6686 H 615.576 2.97037 5.06994 0
M  V30 6687 H 617.1 2.25901 5.67275 0
M  V30 6688 H 618.514 3.94947 4.1556 0
M  V30 6689 H 616.911 4.65175 3.7912 0
M  V30 6690 H 617.981 4.17927 2.45896 0
M  V30 6691 N 619.324 -0.923095 1.27737 0
M  V30 6692 C 620.234 -2.05765 1.12685 0
M  V30 6693 C 621.25 -1.73911 0.0557197 0
M  V30 6694 O 622.426 -1.99674 0.263137 0
M  V30 6695 C 619.491 -3.37804 0.780363 0
M  V30 6696 C 618.552 -3.83326 1.93286 0
M  V30 6697 C 617.785 -5.09064 1.60281 0
M  V30 6698 O 618.008 -5.6809 0.512828 0
M  V30 6699 O 616.942 -5.50071 2.44347 0
M  V30 6700 H 620.768 -2.21378 2.07907 0
M  V30 6701 H 618.353 -1.04299 1.06968 0
M  V30 6702 H 620.235 -4.17097 0.600668 0
M  V30 6703 H 618.91 -3.23387 -0.142291 0
M  V30 6704 H 617.817 -3.049 2.16764 0
M  V30 6705 H 619.15 -4.02292 2.83588 0
M  V30 6706 N 620.802 -1.09834 -1.13024 0
M  V30 6707 C 622.048 -0.83819 -1.84668 0
M  V30 6708 C 622.381 0.634645 -1.83537 0
M  V30 6709 O 621.656 1.46753 -1.27647 0
M  V30 6710 C 621.939 -1.37933 -3.32636 0
M  V30 6711 C 621.792 -2.91857 -3.42257 0
M  V30 6712 C 623.111 -1.01654 -4.28199 0
M  V30 6713 H 620.23 -0.30595 -0.670495 0
M  V30 6714 H 622.872 -1.36044 -1.32635 0
M  V30 6715 H 621.022 -0.935111 -3.77078 0
M  V30 6716 H 622.694 -3.44759 -3.06495 0
M  V30 6717 H 620.937 -3.28776 -2.83 0
M  V30 6718 H 621.608 -3.24799 -4.46329 0
M  V30 6719 H 624.084 -1.39973 -3.9185 0
M  V30 6720 H 622.96 -1.42217 -5.30156 0
M  V30 6721 H 623.221 0.0747794 -4.42037 0
M  V30 6722 N 622.28 1.30327 -0.886154 0
M  V30 6723 C 623.508 2.00254 -0.520176 0
M  V30 6724 C 623.923 1.66419 0.891637 0
M  V30 6725 O 623.28 0.901951 1.58654 0
M  V30 6726 C 623.331 3.54916 -0.686775 0
M  V30 6727 O 623.052 3.87547 -2.04301 0
M  V30 6728 C 624.553 4.42115 -0.323945 0
M  V30 6729 H 621.773 0.640204 -0.200947 0
M  V30 6730 H 624.317 1.66183 -1.19178 0
M  V30 6731 H 622.472 3.8735 -0.0625273 0
M  V30 6732 H 622.886 4.82247 -2.06249 0
M  V30 6733 H 624.36 5.49808 -0.491407 0
M  V30 6734 H 624.837 4.32953 0.73811 0
M  V30 6735 H 625.443 4.15129 -0.924565 0
M  V30 6736 N 623.758 0.647228 1.43697 0
M  V30 6737 C 624.986 0.16575 2.06235 0
M  V30 6738 C 625.401 -1.1662 1.48476 0
M  V30 6739 O 624.758 -1.7187 0.613762 0
M  V30 6740 C 624.809 0.0621651 3.61447 0
M  V30 6741 O 624.53 1.34146 4.17057 0
M  V30 6742 C 626.031 -0.446102 4.4105 0
M  V30 6743 H 623.251 0.0871158 0.665321 0
M  V30 6744 H 625.795 0.886183 1.84301 0
M  V30 6745 H 623.95 -0.608794 3.82587 0
M  V30 6746 H 624.364 1.19675 5.10664 0
M  V30 6747 H 625.838 -0.46755 5.50016 0
M  V30 6748 H 626.315 -1.47627 4.13646 0
M  V30 6749 H 626.921 0.192159 4.24866 0
M  V30 6750 N 625.236 -1.5273 0.388769 0
M  V30 6751 C 626.483 -2.01573 -0.19359 0
M  V30 6752 C 626.811 -1.27525 -1.46859 0
M  V30 6753 O 626.066 -0.363926 -1.92286 0
M  V30 6754 C 626.365 -3.53765 -0.508445 0
M  V30 6755 C 626.031 -4.4582 0.674947 0
M  V30 6756 C 624.693 -4.70703 0.999596 0
M  V30 6757 C 627.045 -5.00138 1.46666 0
M  V30 6758 C 624.373 -5.47155 2.11751 0
M  V30 6759 C 626.725 -5.77812 2.57518 0
M  V30 6760 C 625.389 -6.00975 2.90492 0
M  V30 6761 H 624.659 -0.737606 -0.0708397 0
M  V30 6762 H 627.306 -1.84134 0.526006 0
M  V30 6763 H 625.611 -3.69274 -1.30936 0
M  V30 6764 H 627.308 -3.8905 -0.971664 0
M  V30 6765 H 623.898 -4.26616 0.411906 0
M  V30 6766 H 628.082 -4.8084 1.22909 0
M  V30 6767 H 623.338 -5.63314 2.3767 0
M  V30 6768 H 627.512 -6.18904 3.19267 0
M  V30 6769 H 625.139 -6.59998 3.77236 0
M  V30 6770 N 626.714 -0.118576 -1.57153 0
M  V30 6771 C 627.944 0.546466 -1.99242 0
M  V30 6772 C 628.352 1.60791 -0.997148 0
M  V30 6773 O 627.695 1.83691 0.0181745 0
M  V30 6774 C 627.757 1.23167 -3.37743 0
M  V30 6775 C 627.421 0.318226 -4.55891 0
M  V30 6776 C 628.418 -0.442988 -5.18009 0
M  V30 6777 C 626.103 0.229421 -5.01776 0
M  V30 6778 C 628.097 -1.28074 -6.244 0
M  V30 6779 C 625.784 -0.611966 -6.08028 0
M  V30 6780 C 626.782 -1.36568 -6.69207 0
M  V30 6781 O 626.47 -2.1931 -7.73407 0
M  V30 6782 H 626.202 0.149297 -0.659307 0
M  V30 6783 H 628.756 -0.201603 -2.04408 0
M  V30 6784 H 626.986 2.0268 -3.29329 0
M  V30 6785 H 628.675 1.79358 -3.64123 0
M  V30 6786 H 629.441 -0.38425 -4.83475 0
M  V30 6787 H 625.32 0.805771 -4.53903 0
M  V30 6788 H 628.864 -1.86952 -6.72082 0
M  V30 6789 H 624.761 -0.6721 -6.41991 0
M  V30 6790 H 625.529 -2.12247 -7.90502 0
M  V30 6791 N 628.193 1.56834 0.155195 0
M  V30 6792 C 629.418 1.87412 0.888337 0
M  V30 6793 C 629.843 0.70671 1.74319 0
M  V30 6794 O 629.201 -0.343892 1.78009 0
M  V30 6795 C 629.249 3.1652 1.72765 0
M  V30 6796 O 628.353 2.99877 2.83103 0
M  V30 6797 H 627.694 0.615983 0.247914 0
M  V30 6798 H 630.224 2.04061 0.148478 0
M  V30 6799 H 630.234 3.48334 2.12433 0
M  V30 6800 H 628.909 4.01094 1.09985 0
M  V30 6801 H 627.486 2.79453 2.46902 0
M  V30 6802 N 629.671 -0.424282 1.51781 0
M  V30 6803 C 630.581 -1.54087 1.76902 0
M  V30 6804 C 631.597 -1.61249 0.653826 0
M  V30 6805 O 632.773 -1.78247 0.937552 0
M  V30 6806 C 629.838 -2.8996 1.90063 0
M  V30 6807 C 628.899 -2.92809 3.13945 0
M  V30 6808 C 628.132 -4.22201 3.26469 0
M  V30 6809 O 628.355 -5.15286 2.44616 0
M  V30 6810 O 627.289 -4.31599 4.1953 0
M  V30 6811 H 631.115 -1.358 2.71647 0
M  V30 6812 H 628.7 -0.608618 1.36441 0
M  V30 6813 H 630.582 -3.70575 2.0063 0
M  V30 6814 H 629.257 -3.08347 0.985067 0
M  V30 6815 H 628.164 -2.11102 3.08847 0
M  V30 6816 H 629.497 -2.79369 4.05233 0
M  V30 6817 N 631.149 -1.42148 -0.680565 0
M  V30 6818 C 632.397 -1.42029 -1.43779 0
M  V30 6819 C 632.718 -0.0356347 -1.94967 0
M  V30 6820 O 631.988 0.924936 -1.7269 0
M  V30 6821 H 630.568 -0.522835 -0.533529 0
M  V30 6822 H 633.23 -1.7752 -0.804538 0
M  V30 6823 H 632.326 -2.11658 -2.29363 0
M  V30 6824 N 632.627 0.916307 -1.28225 0
M  V30 6825 C 633.56 2.01954 -1.06254 0
M  V30 6826 C 634.538 1.62587 0.0205983 0
M  V30 6827 O 635.722 1.88073 -0.126824 0
M  V30 6828 C 632.849 3.33086 -0.614141 0
M  V30 6829 C 631.895 3.91435 -1.69354 0
M  V30 6830 S 632.728 4.22603 -3.28887 0
M  V30 6831 C 633.884 5.568 -2.85876 0
M  V30 6832 H 634.117 2.20281 -1.99659 0
M  V30 6833 H 631.65 1.06085 -1.12184 0
M  V30 6834 H 633.608 4.089 -0.36213 0
M  V30 6835 H 632.269 3.12664 0.300036 0
M  V30 6836 H 631.462 4.86098 -1.33136 0
M  V30 6837 H 631.064 3.22248 -1.89821 0
M  V30 6838 H 633.356 6.3658 -2.31888 0
M  V30 6839 H 634.299 5.97927 -3.79326 0
M  V30 6840 H 634.707 5.17865 -2.24669 0
M  V30 6841 N 634.105 1.10431 1.1244 0
M  V30 6842 C 635.33 0.869089 1.88313 0
M  V30 6843 C 635.755 -0.574912 1.79099 0
M  V30 6844 O 635.113 -1.40496 1.14589 0
M  V30 6845 C 635.161 1.32208 3.3549 0
M  V30 6846 O 634.265 0.487092 4.09513 0
M  V30 6847 H 633.606 0.313894 0.585121 0
M  V30 6848 H 636.136 1.47111 1.42195 0
M  V30 6849 H 636.146 1.31201 3.86329 0
M  V30 6850 H 634.821 2.37364 3.41513 0
M  V30 6851 H 633.398 0.562372 3.68635 0
M  V30 6852 N 635.583 -1.29855 0.893053 0
M  V30 6853 C 636.994 -1.77946 0.564998 0
M  V30 6854 C 637.345 -1.73339 -0.919134 0
M  V30 6855 O 636.47 -1.3152 -1.71847 0
M  V30 6856 C 637.065 -3.23118 1.01883 0
M  V30 6857 C 635.624 -3.69013 0.742051 0
M  V30 6858 C 634.771 -2.50121 1.19727 0
M  V30 6859 H 637.722 -1.16611 1.07646 0
M  V30 6860 H 637.743 -3.78875 0.351249 0
M  V30 6861 H 637.255 -3.26439 2.09903 0
M  V30 6862 H 635.356 -3.71173 -0.325816 0
M  V30 6863 H 635.469 -4.60117 1.33527 0
M  V30 6864 H 633.833 -2.47128 0.616418 0
M  V30 6865 H 634.616 -2.56174 2.28538 0
M  V30 6866 N 637.061 -0.65484 -1.43351 0
M  V30 6867 C 637.991 0.0221809 -2.33489 0
M  V30 6868 C 638.972 0.810272 -1.49561 0
M  V30 6869 O 640.157 0.771426 -1.78221 0
M  V30 6870 C 637.287 0.988117 -3.32947 0
M  V30 6871 C 636.241 0.310026 -4.26876 0
M  V30 6872 C 635.567 1.38752 -5.16384 0
M  V30 6873 C 636.867 -0.798589 -5.16159 0
M  V30 6874 H 638.561 -0.730571 -2.9035 0
M  V30 6875 H 636.107 -0.352773 -1.39612 0
M  V30 6876 H 638.06 1.47067 -3.94904 0
M  V30 6877 H 636.784 1.77205 -2.74346 0
M  V30 6878 H 635.443 -0.152097 -3.66284 0
M  V30 6879 H 635.091 2.16293 -4.54121 0
M  V30 6880 H 634.791 0.939051 -5.80048 0
M  V30 6881 H 636.315 1.87141 -5.81215 0
M  V30 6882 H 637.729 -0.398126 -5.71916 0
M  V30 6883 H 636.126 -1.17163 -5.88552 0
M  V30 6884 H 637.196 -1.65588 -4.55751 0
M  V30 6885 N 638.539 1.52521 -0.396863 0
M  V30 6886 C 639.767 2.06091 0.18275 0
M  V30 6887 C 640.182 1.26796 1.39886 0
M  V30 6888 O 639.539 0.316585 1.79733 0
M  V30 6889 C 639.59 3.57362 0.545377 0
M  V30 6890 O 639.311 4.33656 -0.622428 0
M  V30 6891 C 640.812 4.27305 1.18004 0
M  V30 6892 H 638.032 0.670504 0.025789 0
M  V30 6893 H 640.576 1.96561 -0.564276 0
M  V30 6894 H 638.731 3.66941 1.2423 0
M  V30 6895 H 639.145 5.23507 -0.322662 0
M  V30 6896 H 640.619 5.34366 1.38408 0
M  V30 6897 H 641.096 3.83 2.1496 0
M  V30 6898 H 641.702 4.22064 0.523671 0
M  V30 6899 N 640.017 0.126909 1.57088 0
M  V30 6900 C 641.266 -0.529024 1.94639 0
M  V30 6901 C 641.579 -1.67323 1.01304 0
M  V30 6902 O 642.785 -2.39245 1.28352 0
M  V30 6903 C 641.241 -0.992483 3.45945 0
M  V30 6904 C 640.849 0.123691 4.47829 0
M  V30 6905 C 642.593 -1.61934 3.924 0
M  V30 6906 C 640.5 -0.356911 5.90322 0
M  V30 6907 H 639.43 -0.201397 0.726605 0
M  V30 6908 H 642.081 0.208032 1.82317 0
M  V30 6909 H 640.463 -1.7842 3.53528 0
M  V30 6910 H 641.637 0.900168 4.51922 0
M  V30 6911 H 639.952 0.657699 4.11173 0
M  V30 6912 H 642.549 -1.9902 4.96281 0
M  V30 6913 H 642.892 -2.50075 3.32819 0
M  V30 6914 H 643.425 -0.892894 3.8765 0
M  V30 6915 H 640.164 0.488636 6.53676 0
M  V30 6916 H 639.684 -1.0997 5.89633 0
M  V30 6917 H 641.363 -0.815547 6.41839 0
M  V30 6918 N 641.495 -1.56914 -0.146875 0
M  V30 6919 C 642.742 -1.83356 -0.859467 0
M  V30 6920 C 643.07 -0.707811 -1.81164 0
M  V30 6921 O 642.325 0.303155 -1.93338 0
M  V30 6922 C 642.624 -3.16128 -1.66727 0
M  V30 6923 C 642.29 -4.42586 -0.861881 0
M  V30 6924 C 640.952 -4.76929 -0.639687 0
M  V30 6925 C 643.304 -5.20344 -0.298643 0
M  V30 6926 C 640.632 -5.86491 0.156451 0
M  V30 6927 C 642.984 -6.30742 0.484536 0
M  V30 6928 C 641.648 -6.63635 0.717306 0
M  V30 6929 H 640.918 -0.670947 -0.314501 0
M  V30 6930 H 643.565 -1.91104 -0.123108 0
M  V30 6931 H 641.87 -3.03831 -2.47374 0
M  V30 6932 H 643.567 -3.33802 -2.2221 0
M  V30 6933 H 640.157 -4.15662 -1.04513 0
M  V30 6934 H 644.341 -4.94186 -0.457585 0
M  V30 6935 H 639.597 -6.10419 0.346292 0
M  V30 6936 H 643.771 -6.90188 0.928105 0
M  V30 6937 H 641.398 -7.48367 1.33607 0
M  V30 6938 N 642.974 0.416227 -1.52004 0
M  V30 6939 C 643.921 1.50666 -1.74838 0
M  V30 6940 C 644.891 1.55245 -0.590599 0
M  V30 6941 O 646.076 1.71928 -0.827374 0
M  V30 6942 C 643.216 2.88185 -1.89851 0
M  V30 6943 C 642.329 2.92971 -3.17478 0
M  V30 6944 C 641.464 4.21745 -3.22962 0
M  V30 6945 C 640.503 4.20478 -4.4482 0
M  V30 6946 N 639.64 5.40811 -4.47736 0
M  V30 6947 H 644.48 1.30498 -2.67907 0
M  V30 6948 H 642.017 0.633568 -1.32757 0
M  V30 6949 H 643.975 3.68007 -1.96537 0
M  V30 6950 H 642.605 3.06865 -1.00169 0
M  V30 6951 H 641.657 2.05684 -3.19997 0
M  V30 6952 H 642.969 2.87899 -4.07328 0
M  V30 6953 H 642.123 5.09954 -3.28682 0
M  V30 6954 H 640.862 4.29503 -2.31038 0
M  V30 6955 H 639.867 3.30659 -4.39254 0
M  V30 6956 H 641.092 4.14366 -5.38031 0
M  V30 6957 H 639.038 5.4925 -3.58692 0
M  V30 6958 H 638.955 5.37705 -5.31422 0
M  V30 6959 H 640.223 6.30993 -4.57676 0
M  V30 6960 N 644.452 1.42507 0.673017 0
M  V30 6961 C 645.729 1.33554 1.42908 0
M  V30 6962 C 646.109 -0.0262211 2.11084 0
M  V30 6963 O 645.457 -1.04181 2.03368 0
M  V30 6964 C 645.667 2.50498 2.43006 0
M  V30 6965 C 647.015 2.92694 3.07596 0
M  V30 6966 O 648.039 2.50401 2.53333 0
M  V30 6967 O 646.898 3.65899 4.05931 0
M  V30 6968 H 643.992 0.526785 0.637516 0
M  V30 6969 H 646.538 1.54518 0.701591 0
M  V30 6970 H 645.31 3.41272 1.9144 0
M  V30 6971 H 644.933 2.3153 3.23233 0
M  V30 6972 N 645.93 -0.909495 1.28709 0
M  V30 6973 C 646.893 -1.99399 1.13016 0
M  V30 6974 C 647.893 -1.60654 0.068536 0
M  V30 6975 O 649.083 -1.71334 0.314671 0
M  V30 6976 C 646.215 -3.33078 0.726085 0
M  V30 6977 H 647.408 -2.14751 2.09338 0
M  V30 6978 H 644.961 -1.09272 1.11756 0
M  V30 6979 H 645.696 -3.23428 -0.23771 0
M  V30 6980 H 645.481 -3.62562 1.49302 0
M  V30 6981 H 646.971 -4.12681 0.639058 0
M  V30 6982 N 647.408 -1.11026 -1.11852 0
M  V30 6983 C 648.338 -0.786812 -2.19844 0
M  V30 6984 C 649.319 0.242935 -1.68356 0
M  V30 6985 O 650.504 0.107355 -1.93903 0
M  V30 6986 C 647.634 -0.224516 -3.46574 0
M  V30 6987 C 646.588 -1.18564 -4.1125 0
M  V30 6988 C 645.914 -0.484261 -5.32503 0
M  V30 6989 C 647.214 -2.53465 -4.56676 0
M  V30 6990 H 648.908 -1.68978 -2.47158 0
M  V30 6991 H 646.454 -0.813906 -1.18792 0
M  V30 6992 H 648.407 0.0139435 -4.21398 0
M  V30 6993 H 647.131 0.713722 -3.18706 0
M  V30 6994 H 645.79 -1.40966 -3.38414 0
M  V30 6995 H 645.438 0.458646 -5.00905 0
M  V30 6996 H 645.138 -1.12526 -5.76725 0
M  V30 6997 H 646.662 -0.254492 -6.10069 0
M  V30 6998 H 648.076 -2.35177 -5.22843 0
M  V30 6999 H 646.473 -3.13507 -5.11697 0
M  V30 7000 H 647.543 -3.13008 -3.70343 0
M  V30 7001 N 648.886 1.2938 -0.899927 0
M  V30 7002 C 650.135 1.9483 -0.521937 0
M  V30 7003 C 650.448 1.71725 0.936473 0
M  V30 7004 O 651.654 2.31282 1.42199 0
M  V30 7005 C 650.11 3.48911 -0.88255 0
M  V30 7006 C 649.718 3.80815 -2.35974 0
M  V30 7007 C 651.462 4.20595 -0.57448 0
M  V30 7008 C 649.369 5.28142 -2.66121 0
M  V30 7009 H 648.299 0.729285 -0.191468 0
M  V30 7010 H 650.95 1.47103 -1.09695 0
M  V30 7011 H 649.332 3.95293 -0.236459 0
M  V30 7012 H 650.506 3.45291 -3.05141 0
M  V30 7013 H 648.821 3.22271 -2.63686 0
M  V30 7014 H 651.418 5.29031 -0.776556 0
M  V30 7015 H 651.761 4.13442 0.487005 0
M  V30 7016 H 652.294 3.79945 -1.17842 0
M  V30 7017 H 649.033 5.4036 -3.71068 0
M  V30 7018 H 648.553 5.64913 -2.01578 0
M  V30 7019 H 650.232 5.95738 -2.52399 0
M  V30 7020 N 650.364 0.662433 1.43002 0
M  V30 7021 C 651.589 0.186003 2.06564 0
M  V30 7022 C 652.014 -1.14314 1.49379 0
M  V30 7023 O 651.372 -1.70824 0.607346 0
M  V30 7024 C 651.42 0.118269 3.60406 0
M  V30 7025 O 650.524 -0.916859 4.02079 0
M  V30 7026 H 649.865 0.0990981 0.656563 0
M  V30 7027 H 652.395 0.907958 1.8335 0
M  V30 7028 H 652.405 -0.0619981 4.07953 0
M  V30 7029 H 651.08 1.08849 4.01403 0
M  V30 7030 H 649.657 -0.708635 3.66105 0
M  V30 7031 N 651.842 -1.52309 0.404946 0
M  V30 7032 C 653.091 -2.00952 -0.173529 0
M  V30 7033 C 653.404 -1.29512 -1.46581 0
M  V30 7034 O 654.61 -1.6895 -2.12528 0
M  V30 7035 C 653.066 -3.58097 -0.359801 0
M  V30 7036 C 652.674 -4.38449 0.920138 0
M  V30 7037 C 654.418 -4.14984 -0.893794 0
M  V30 7038 C 652.325 -5.87227 0.701285 0
M  V30 7039 H 651.255 -0.750871 -0.0686244 0
M  V30 7040 H 653.906 -1.75687 0.529749 0
M  V30 7041 H 652.288 -3.79675 -1.12531 0
M  V30 7042 H 653.462 -4.28633 1.69147 0
M  V30 7043 H 651.777 -3.92859 1.38024 0
M  V30 7044 H 654.374 -5.23813 -1.0735 0
M  V30 7045 H 654.717 -3.72072 -1.8673 0
M  V30 7046 H 655.25 -3.97358 -0.187453 0
M  V30 7047 H 651.989 -6.34491 1.64624 0
M  V30 7048 H 651.509 -5.99792 -0.0308288 0
M  V30 7049 H 653.188 -6.46096 0.341846 0
M  V30 7050 N 653.32 -0.135238 -1.57019 0
M  V30 7051 C 654.25 0.805235 -2.19176 0
M  V30 7052 C 655.231 1.2656 -1.13651 0
M  V30 7053 O 656.416 1.32528 -1.4195 0
M  V30 7054 C 653.546 2.04914 -2.80406 0
M  V30 7055 C 652.5 1.72598 -3.91655 0
M  V30 7056 C 651.826 3.04154 -4.39766 0
M  V30 7057 C 653.126 0.981709 -5.12991 0
M  V30 7058 H 654.82 0.287232 -2.98019 0
M  V30 7059 H 652.366 0.136714 -1.4335 0
M  V30 7060 H 654.319 2.71178 -3.22553 0
M  V30 7061 H 653.043 2.59067 -1.98877 0
M  V30 7062 H 651.702 1.08717 -3.50109 0
M  V30 7063 H 651.35 3.56274 -3.55075 0
M  V30 7064 H 651.05 2.83299 -5.14796 0
M  V30 7065 H 652.574 3.71509 -4.84576 0
M  V30 7066 H 653.988 1.5462 -5.52056 0
M  V30 7067 H 652.385 0.873533 -5.93708 0
M  V30 7068 H 653.455 -0.0286887 -4.84892 0
M  V30 7069 N 654.798 1.5699 0.138552 0
M  V30 7070 C 656.046 1.83446 0.848053 0
M  V30 7071 C 656.367 0.71744 1.81322 0
M  V30 7072 O 655.637 -0.260228 1.94164 0
M  V30 7073 H 654.217 0.676792 0.316166 0
M  V30 7074 H 656.879 1.94462 0.130538 0
M  V30 7075 H 655.975 2.78677 1.40518 0
M  V30 7076 N 656.276 -0.40816 1.52223 0
M  V30 7077 C 657.523 -1.15502 1.66329 0
M  V30 7078 C 657.851 -1.90474 0.393701 0
M  V30 7079 O 657.106 -1.85507 -0.623356 0
M  V30 7080 C 657.405 -2.17422 2.83659 0
M  V30 7081 C 657.071 -1.5925 4.21841 0
M  V30 7082 C 655.733 -1.4311 4.59427 0
M  V30 7083 C 658.085 -1.16776 5.0795 0
M  V30 7084 C 655.413 -0.830148 5.80797 0
M  V30 7085 C 657.765 -0.580988 6.29926 0
M  V30 7086 C 656.429 -0.406729 6.6626 0
M  V30 7087 H 655.699 -0.422653 0.608642 0
M  V30 7088 H 658.346 -0.442114 1.86327 0
M  V30 7089 H 656.651 -2.94861 2.58001 0
M  V30 7090 H 658.348 -2.75084 2.9177 0
M  V30 7091 H 654.938 -1.72796 3.92224 0
M  V30 7092 H 659.122 -1.28055 4.79495 0
M  V30 7093 H 654.378 -0.68316 6.07571 0
M  V30 7094 H 658.552 -0.243488 6.95974 0
M  V30 7095 H 656.179 0.0610366 7.60175 0
M  V30 7096 N 657.755 -1.42862 -0.66545 0
M  V30 7097 C 659.001 -1.44043 -1.42757 0
M  V30 7098 C 659.334 -0.0599629 -1.94107 0
M  V30 7099 O 658.609 0.917286 -1.71511 0
M  V30 7100 C 658.892 -2.47266 -2.61786 0
M  V30 7101 C 658.745 -3.94539 -2.16007 0
M  V30 7102 C 660.064 -2.47365 -3.64003 0
M  V30 7103 H 657.183 -0.524506 -0.517748 0
M  V30 7104 H 659.825 -1.74335 -0.755466 0
M  V30 7105 H 657.975 -2.21565 -3.19126 0
M  V30 7106 H 659.647 -4.31254 -1.63762 0
M  V30 7107 H 657.89 -4.07957 -1.47491 0
M  V30 7108 H 658.561 -4.62357 -3.01546 0
M  V30 7109 H 661.037 -2.70243 -3.16399 0
M  V30 7110 H 659.913 -3.21552 -4.44854 0
M  V30 7111 H 660.174 -1.50299 -4.15767 0
M  V30 7112 N 659.233 0.902656 -1.29189 0
M  V30 7113 C 660.481 1.6496 -1.16758 0
M  V30 7114 C 660.802 1.92952 0.28188 0
M  V30 7115 O 660.072 1.55351 1.19344 0
M  V30 7116 H 658.652 0.611447 -0.429118 0
M  V30 7117 H 661.314 1.0825 -1.62074 0
M  V30 7118 H 660.41 2.60728 -1.71544 0
M  V30 7119 N 660.711 1.11618 1.11262 0
M  V30 7120 C 661.958 0.86618 1.8304 0
M  V30 7121 C 662.286 -0.608149 1.84748 0
M  V30 7122 O 661.541 -1.46508 1.29745 0
M  V30 7123 C 661.84 1.37529 3.2988 0
M  V30 7124 C 661.506 2.86317 3.4833 0
M  V30 7125 C 660.168 3.26945 3.53073 0
M  V30 7126 C 662.52 3.82136 3.54431 0
M  V30 7127 C 659.848 4.62117 3.61475 0
M  V30 7128 C 662.2 5.17128 3.64365 0
M  V30 7129 C 660.864 5.57312 3.67369 0
M  V30 7130 H 660.134 0.316958 0.66979 0
M  V30 7131 H 662.781 1.3949 1.31205 0
M  V30 7132 H 661.086 0.766842 3.84222 0
M  V30 7133 H 662.783 1.15817 3.83911 0
M  V30 7134 H 659.373 2.53889 3.45309 0
M  V30 7135 H 663.557 3.51847 3.50025 0
M  V30 7136 H 658.813 4.92655 3.62079 0
M  V30 7137 H 662.987 5.91208 3.68029 0
M  V30 7138 H 660.614 6.62045 3.73632 0
M  V30 7139 N 662.189 -1.289 0.906776 0
M  V30 7140 C 663.435 -1.95558 0.53712 0
M  V30 7141 C 663.768 -1.71262 -0.915582 0
M  V30 7142 O 663.043 -1.02961 -1.65013 0
M  V30 7143 C 663.326 -3.50198 0.838645 0
M  V30 7144 C 663.179 -3.83923 2.34357 0
M  V30 7145 C 664.498 -4.38861 0.329988 0
M  V30 7146 H 661.617 -0.710289 0.196617 0
M  V30 7147 H 664.259 -1.52392 1.13475 0
M  V30 7148 H 662.409 -3.87096 0.330024 0
M  V30 7149 H 664.081 -3.56933 2.92227 0
M  V30 7150 H 662.324 -3.31215 2.80141 0
M  V30 7151 H 662.995 -4.91883 2.5051 0
M  V30 7152 H 665.471 -4.08996 0.765609 0
M  V30 7153 H 664.347 -5.45931 0.570105 0
M  V30 7154 H 664.608 -4.35352 -0.769511 0
M  V30 7155 N 663.667 -0.670007 -1.42649 0
M  V30 7156 C 664.913 -0.190568 -2.01903 0
M  V30 7157 C 665.246 1.19817 -1.52832 0
M  V30 7158 O 664.521 1.80342 -0.728485 0
M  V30 7159 C 664.804 -0.21991 -3.59428 0
M  V30 7160 C 664.657 -1.64376 -4.18689 0
M  V30 7161 C 665.976 0.434519 -4.3795 0
M  V30 7162 H 663.095 -0.0707219 -0.733599 0
M  V30 7163 H 665.737 -0.853883 -1.69732 0
M  V30 7164 H 663.887 0.344894 -3.86966 0
M  V30 7165 H 665.559 -2.26044 -4.02122 0
M  V30 7166 H 663.802 -2.18591 -3.747 0
M  V30 7167 H 664.473 -1.61601 -5.27815 0
M  V30 7168 H 666.949 -0.0462156 -4.16074 0
M  V30 7169 H 665.825 0.38333 -5.4756 0
M  V30 7170 H 666.086 1.51135 -4.15464 0
M  V30 7171 N 665.145 1.52092 -0.413018 0
M  V30 7172 C 666.393 2.01456 0.161178 0
M  V30 7173 C 666.714 1.30034 1.45314 0
M  V30 7174 O 665.984 0.427435 1.9118 0
M  V30 7175 H 664.564 0.744376 0.0625526 0
M  V30 7176 H 667.226 1.86974 -0.550151 0
M  V30 7177 H 666.322 3.1008 0.354517 0
M  V30 7178 N 666.623 0.143563 1.56945 0
M  V30 7179 C 667.851 -0.515447 2.00377 0
M  V30 7180 C 668.266 -1.58643 1.02361 0
M  V30 7181 O 667.623 -1.82489 0.0201039 0
M  V30 7182 C 667.674 -1.11923 3.43737 0
M  V30 7183 O 667.395 -0.0910318 4.38005 0
M  V30 7184 C 668.896 -1.85918 4.02429 0
M  V30 7185 H 666.116 -0.134478 0.657386 0
M  V30 7186 H 668.66 0.237135 2.0312 0
M  V30 7187 H 666.815 -1.82245 3.41856 0
M  V30 7188 H 667.229 -0.532916 5.21786 0
M  V30 7189 H 668.703 -2.2346 5.04747 0
M  V30 7190 H 669.18 -2.7438 3.42947 0
M  V30 7191 H 669.786 -1.20303 4.07931 0
M  V30 7192 N 668.101 -1.57061 -0.130224 0
M  V30 7193 C 669.331 -1.88159 -0.853217 0
M  V30 7194 C 669.739 -0.731675 -1.7448 0
M  V30 7195 O 669.082 0.307035 -1.81116 0
M  V30 7196 C 669.144 -3.1415 -1.74785 0
M  V30 7197 C 668.808 -4.45202 -1.03173 0
M  V30 7198 C 669.805 -5.18526 -0.377759 0
M  V30 7199 C 667.49 -4.91912 -1.01624 0
M  V30 7200 C 669.484 -6.36775 0.282123 0
M  V30 7201 C 667.171 -6.10082 -0.352555 0
M  V30 7202 C 668.169 -6.82361 0.295483 0
M  V30 7203 O 667.857 -7.98284 0.948606 0
M  V30 7204 H 667.589 -0.627596 -0.251197 0
M  V30 7205 H 670.143 -2.05034 -0.1226 0
M  V30 7206 H 668.373 -2.93328 -2.51983 0
M  V30 7207 H 670.062 -3.31359 -2.34427 0
M  V30 7208 H 670.828 -4.83498 -0.381417 0
M  V30 7209 H 666.707 -4.35566 -1.51007 0
M  V30 7210 H 670.251 -6.93129 0.788525 0
M  V30 7211 H 666.148 -6.44569 -0.346621 0
M  V30 7212 H 666.916 -8.14054 0.851954 0
M  V30 7213 N 669.579 0.400081 -1.52437 0
M  V30 7214 C 670.489 1.51253 -1.79331 0
M  V30 7215 C 671.505 1.60188 -0.679396 0
M  V30 7216 O 672.681 1.76733 -0.965791 0
M  V30 7217 C 669.746 2.869 -1.94652 0
M  V30 7218 C 668.807 2.87777 -3.18564 0
M  V30 7219 C 668.04 4.16954 -3.33145 0
M  V30 7220 O 668.263 5.11329 -2.52783 0
M  V30 7221 O 667.197 4.2487 -4.26343 0
M  V30 7222 H 671.023 1.31461 -2.73773 0
M  V30 7223 H 668.608 0.586834 -1.37392 0
M  V30 7224 H 670.49 3.67336 -2.065 0
M  V30 7225 H 669.165 3.06741 -1.034 0
M  V30 7226 H 668.072 2.06162 -3.12167 0
M  V30 7227 H 669.405 2.72886 -4.09627 0
M  V30 7228 N 671.057 1.43213 0.657864 0
M  V30 7229 C 672.02 1.47687 1.75275 0
M  V30 7230 C 673.02 0.362179 1.56668 0
M  V30 7231 O 674.21 0.623734 1.62651 0
M  V30 7232 C 671.342 1.32497 3.14098 0
M  V30 7233 H 672.535 2.4519 1.7269 0
M  V30 7234 H 670.088 1.2991 0.869087 0
M  V30 7235 H 670.823 0.359831 3.22298 0
M  V30 7236 H 670.608 2.13299 3.29008 0
M  V30 7237 H 672.098 1.38549 3.93946 0
M  V30 7238 N 672.536 -0.895792 1.29666 0
M  V30 7239 C 673.466 -2.01673 1.17688 0
M  V30 7240 C 674.447 -1.69955 0.0701317 0
M  V30 7241 O 675.632 -1.9258 0.250289 0
M  V30 7242 C 672.762 -3.36568 0.856681 0
M  V30 7243 C 671.716 -3.82509 1.92017 0
M  V30 7244 C 671.042 -5.14574 1.4532 0
M  V30 7245 C 672.342 -4.02409 3.32963 0
M  V30 7246 H 674.036 -2.11953 2.11463 0
M  V30 7247 H 671.582 -1.01839 1.01807 0
M  V30 7248 H 673.535 -4.14498 0.759577 0
M  V30 7249 H 672.259 -3.26391 -0.116763 0
M  V30 7250 H 670.918 -3.068 2.00673 0
M  V30 7251 H 670.566 -5.00815 0.468325 0
M  V30 7252 H 670.266 -5.46283 2.16447 0
M  V30 7253 H 671.79 -5.9504 1.36968 0
M  V30 7254 H 673.204 -4.70808 3.27127 0
M  V30 7255 H 671.601 -4.45478 4.02082 0
M  V30 7256 H 672.671 -3.06616 3.75652 0
M  V30 7257 N 674.014 -1.12206 -1.10668 0
M  V30 7258 C 675.244 -0.897332 -1.86095 0
M  V30 7259 C 675.652 0.556778 -1.80822 0
M  V30 7260 O 674.995 1.39658 -1.19337 0
M  V30 7261 C 675.057 -1.29095 -3.35522 0
M  V30 7262 C 674.721 -2.75586 -3.64556 0
M  V30 7263 C 675.718 -3.73785 -3.6136 0
M  V30 7264 C 673.403 -3.12432 -3.93309 0
M  V30 7265 C 675.397 -5.06845 -3.86506 0
M  V30 7266 C 673.084 -4.45675 -4.18111 0
M  V30 7267 C 674.082 -5.42691 -4.147 0
M  V30 7268 O 673.77 -6.73532 -4.38873 0
M  V30 7269 H 673.502 -0.320704 -0.595084 0
M  V30 7270 H 676.056 -1.49517 -1.40833 0
M  V30 7271 H 674.286 -0.636299 -3.81429 0
M  V30 7272 H 675.975 -1.04073 -3.92331 0
M  V30 7273 H 676.741 -3.46664 -3.39189 0
M  V30 7274 H 672.62 -2.3753 -3.95096 0
M  V30 7275 H 676.164 -5.82559 -3.83758 0
M  V30 7276 H 672.061 -4.72526 -4.39761 0
M  V30 7277 H 672.829 -6.79442 -4.564 0
M  V30 7278 N 675.492 1.28418 -0.913599 0
M  V30 7279 C 676.402 2.31043 -0.406965 0
M  V30 7280 C 677.418 1.66501 0.505298 0
M  V30 7281 O 678.594 1.97558 0.391522 0
M  V30 7282 C 675.659 3.4498 0.344901 0
M  V30 7283 C 674.72 4.25078 -0.600563 0
M  V30 7284 C 673.953 5.33575 0.115516 0
M  V30 7285 O 674.176 5.54503 1.33727 0
M  V30 7286 O 673.11 5.9939 -0.549095 0
M  V30 7287 H 676.936 2.76387 -1.25873 0
M  V30 7288 H 674.521 1.33109 -0.678415 0
M  V30 7289 H 676.403 4.14314 0.769542 0
M  V30 7290 H 675.078 3.01719 1.1725 0
M  V30 7291 H 673.985 3.58334 -1.0746 0
M  V30 7292 H 675.318 4.72018 -1.39497 0
M  V30 7293 N 676.97 0.677563 1.42291 0
M  V30 7294 C 677.9 0.014968 2.33495 0
M  V30 7295 C 678.881 -0.786376 1.50831 0
M  V30 7296 O 680.066 -0.742975 1.79426 0
M  V30 7297 C 677.196 -0.935023 3.34477 0
M  V30 7298 C 676.15 -0.242074 4.27315 0
M  V30 7299 C 675.476 -1.30519 5.18526 0
M  V30 7300 C 676.776 0.880604 5.14823 0
M  V30 7301 H 678.47 0.776671 2.89151 0
M  V30 7302 H 676.016 0.37494 1.39033 0
M  V30 7303 H 677.969 -1.40766 3.97194 0
M  V30 7304 H 676.693 -1.72818 2.77131 0
M  V30 7305 H 675.352 0.210351 3.65996 0
M  V30 7306 H 675 -2.09041 4.57505 0
M  V30 7307 H 674.7 -0.846652 5.81468 0
M  V30 7308 H 676.224 -1.7787 5.84119 0
M  V30 7309 H 677.638 0.489062 5.7121 0
M  V30 7310 H 676.035 1.26511 5.86613 0
M  V30 7311 H 677.105 1.72818 4.53059 0
M  V30 7312 N 678.448 -1.51871 0.421078 0
M  V30 7313 C 679.697 -2.01125 -0.152206 0
M  V30 7314 C 680.01 -1.3106 -1.45199 0
M  V30 7315 O 681.216 -1.71195 -2.10724 0
M  V30 7316 C 679.672 -3.58458 -0.3218 0
M  V30 7317 C 679.28 -4.37448 0.96659 0
M  V30 7318 C 681.024 -4.15908 -0.84973 0
M  V30 7319 C 678.931 -5.86451 0.763529 0
M  V30 7320 H 677.861 -0.751556 -0.0606565 0
M  V30 7321 H 680.512 -1.75115 0.548354 0
M  V30 7322 H 678.894 -3.80847 -1.08498 0
M  V30 7323 H 680.068 -4.26814 1.73684 0
M  V30 7324 H 678.383 -3.91373 1.42183 0
M  V30 7325 H 680.98 -5.24922 -1.01788 0
M  V30 7326 H 681.323 -3.74031 -1.82774 0
M  V30 7327 H 681.856 -3.97535 -0.145297 0
M  V30 7328 H 678.595 -6.3271 1.71344 0
M  V30 7329 H 678.115 -5.99791 0.0327889 0
M  V30 7330 H 679.794 -6.45697 0.410354 0
M  V30 7331 N 679.926 -0.151884 -1.56866 0
M  V30 7332 C 680.858 0.817008 -2.14144 0
M  V30 7333 C 681.871 1.20735 -1.0921 0
M  V30 7334 O 683.06 1.15058 -1.36469 0
M  V30 7335 C 680.16 2.10844 -2.65326 0
M  V30 7336 C 679.333 1.88471 -3.94712 0
M  V30 7337 C 678.392 3.01649 -4.31155 0
M  V30 7338 O 677.418 2.73127 -4.9939 0
M  V30 7339 N 678.62 4.28947 -3.91132 0
M  V30 7340 H 681.385 0.327448 -2.97906 0
M  V30 7341 H 678.946 0.0315313 -1.61869 0
M  V30 7342 H 680.938 2.85616 -2.86715 0
M  V30 7343 H 679.508 2.51049 -1.86262 0
M  V30 7344 H 678.728 0.977088 -3.81899 0
M  V30 7345 H 680.016 1.70866 -4.79252 0
M  V30 7346 H 679.414 4.54986 -3.36161 0
M  V30 7347 H 677.971 5.00484 -4.17563 0
M  V30 7348 N 681.404 1.57128 0.121893 0
M  V30 7349 C 682.815 1.73902 0.679348 0
M  V30 7350 C 683.166 0.770135 1.80453 0
M  V30 7351 O 682.291 -0.0576083 2.16323 0
M  V30 7352 C 682.886 3.15328 1.2391 0
M  V30 7353 C 681.445 3.33618 1.74288 0
M  V30 7354 C 680.592 2.6978 0.641414 0
M  V30 7355 H 683.543 1.58359 -0.104 0
M  V30 7356 H 683.564 3.16718 2.10879 0
M  V30 7357 H 683.076 3.85821 0.419957 0
M  V30 7358 H 681.177 2.68162 2.58689 0
M  V30 7359 H 681.29 4.4176 1.85432 0
M  V30 7360 H 679.654 2.30935 1.0743 0
M  V30 7361 H 680.437 3.42895 -0.166707 0
M  V30 7362 N 682.882 -0.391992 1.52647 0
M  V30 7363 C 684.107 -1.16312 1.71716 0
M  V30 7364 C 684.532 -1.83042 0.433279 0
M  V30 7365 O 683.89 -1.70705 -0.610707 0
M  V30 7366 C 683.938 -2.18908 2.86551 0
M  V30 7367 O 683.042 -3.2543 2.53316 0
M  V30 7368 H 682.383 -0.338743 0.571095 0
M  V30 7369 H 684.913 -0.457202 1.99426 0
M  V30 7370 H 684.923 -2.62954 3.1196 0
M  V30 7371 H 683.598 -1.69726 3.79692 0
M  V30 7372 H 682.175 -2.86543 2.38637 0
M  V30 7373 N 684.36 -1.4356 -0.65026 0
M  V30 7374 C 685.308 -1.49219 -1.78427 0
M  V30 7375 C 686.302 -0.365528 -1.65409 0
M  V30 7376 O 687.508 -0.539649 -1.7172 0
M  V30 7377 H 683.883 -0.467858 -0.588738 0
M  V30 7378 H 685.854 -2.44701 -1.70774 0
M  V30 7379 C 684.603 -1.43519 -3.16698 0
M  V30 7380 H 683.926 -2.2952 -3.27354 0
M  V30 7381 H 685.366 -1.5154 -3.95995 0
M  V30 7382 C 683.825 -0.153197 -3.36552 0
M  V30 7383 O 684.355 0.784317 -3.93969 0
M  V30 7384 N 682.561 -0.0624402 -2.90533 0
M  V30 7385 H 682.108 -0.826172 -2.43992 0
M  V30 7386 H 682.066 0.794616 -3.04193 0
M  V30 7387 N 685.838 0.888903 -1.30139 0
M  V30 7388 C 686.801 1.97576 -1.16174 0
M  V30 7389 C 687.801 1.60525 -0.094086 0
M  V30 7390 O 688.991 1.70812 -0.341889 0
M  V30 7391 C 686.123 3.3188 -0.778983 0
M  V30 7392 H 687.316 2.11393 -2.12728 0
M  V30 7393 H 684.869 1.0748 -1.1348 0
M  V30 7394 H 685.604 3.23765 0.186225 0
M  V30 7395 H 685.389 3.60141 -1.55051 0
M  V30 7396 H 686.879 4.11612 -0.704631 0
M  V30 7397 N 687.317 1.12792 1.10072 0
M  V30 7398 C 688.728 0.899346 1.63611 0
M  V30 7399 C 689.079 -0.565547 1.87872 0
M  V30 7400 O 688.204 -1.43081 1.62348 0
M  V30 7401 C 688.799 1.62608 2.97227 0
M  V30 7402 C 687.358 1.44356 3.47618 0
M  V30 7403 C 686.505 1.65958 2.22156 0
M  V30 7404 H 689.456 1.28216 0.935223 0
M  V30 7405 H 689.477 1.0793 3.64872 0
M  V30 7406 H 688.989 2.69221 2.79538 0
M  V30 7407 H 687.09 0.400148 3.70445 0
M  V30 7408 H 687.203 2.20218 4.25489 0
M  V30 7409 H 685.567 1.08395 2.30484 0
M  V30 7410 H 686.35 2.73877 2.06993 0
M  V30 7411 N 688.795 -1.27931 0.920396 0
M  V30 7412 C 690.044 -1.93975 0.552867 0
M  V30 7413 C 690.357 -1.73193 -0.909035 0
M  V30 7414 O 691.563 -2.33515 -1.38502 0
M  V30 7415 C 690.019 -3.47463 0.937947 0
M  V30 7416 C 689.627 -3.77013 2.42003 0
M  V30 7417 C 691.371 -4.19628 0.64132 0
M  V30 7418 C 689.278 -5.23841 2.74489 0
M  V30 7419 H 688.208 -0.726146 0.203046 0
M  V30 7420 H 690.859 -1.45339 1.12022 0
M  V30 7421 H 689.241 -3.94867 0.299317 0
M  V30 7422 H 690.415 -3.40393 3.10595 0
M  V30 7423 H 688.73 -3.18035 2.6878 0
M  V30 7424 H 691.327 -5.27729 0.860622 0
M  V30 7425 H 691.67 -4.14164 -0.421168 0
M  V30 7426 H 692.203 -3.78022 1.23872 0
M  V30 7427 H 688.942 -5.34388 3.79618 0
M  V30 7428 H 688.462 -5.61634 2.1054 0
M  V30 7429 H 690.141 -5.91647 2.61845 0
M  V30 7430 N 690.273 -0.685099 -1.4193 0
M  V30 7431 C 691.52 -0.211658 -2.01391 0
M  V30 7432 C 691.848 1.18526 -1.54214 0
M  V30 7433 O 691.103 1.81189 -0.739519 0
M  V30 7434 C 691.402 -0.206154 -3.56805 0
M  V30 7435 C 691.068 -1.54915 -4.23453 0
M  V30 7436 C 689.73 -1.91684 -4.41373 0
M  V30 7437 C 692.082 -2.43317 -4.60919 0
M  V30 7438 C 689.41 -3.16461 -4.94034 0
M  V30 7439 C 691.762 -3.67415 -5.14965 0
M  V30 7440 C 690.426 -4.04341 -5.31098 0
M  V30 7441 H 689.696 -0.0774511 -0.736941 0
M  V30 7442 H 692.343 -0.882121 -1.69973 0
M  V30 7443 H 690.648 0.547841 -3.87951 0
M  V30 7444 H 692.345 0.17753 -4.00607 0
M  V30 7445 H 688.935 -1.25314 -4.09871 0
M  V30 7446 H 693.119 -2.16192 -4.46738 0
M  V30 7447 H 688.375 -3.45078 -5.04709 0
M  V30 7448 H 692.549 -4.3611 -5.42938 0
M  V30 7449 H 690.176 -5.01101 -5.71666 0
M  V30 7450 N 691.751 1.51645 -0.429126 0
M  V30 7451 C 693 2.01203 0.141538 0
M  V30 7452 C 693.313 1.31828 1.44502 0
M  V30 7453 O 694.519 1.7231 2.09813 0
M  V30 7454 C 692.975 3.58624 0.302786 0
M  V30 7455 C 692.583 4.3693 -0.989775 0
M  V30 7456 C 694.327 4.16353 0.827661 0
M  V30 7457 C 692.234 5.86037 -0.794619 0
M  V30 7458 H 691.164 0.751867 0.05667 0
M  V30 7459 H 693.815 1.74822 -0.557633 0
M  V30 7460 H 692.197 3.81417 1.06476 0
M  V30 7461 H 693.371 4.25887 -1.75945 0
M  V30 7462 H 691.686 3.90614 -1.44256 0
M  V30 7463 H 694.283 5.25455 0.990026 0
M  V30 7464 H 694.626 3.74995 1.80787 0
M  V30 7465 H 695.159 3.97606 0.124213 0
M  V30 7466 H 691.898 6.31792 -1.74697 0
M  V30 7467 H 691.418 5.99765 -0.0645968 0
M  V30 7468 H 693.097 6.45471 -0.444591 0
M  V30 7469 N 693.229 0.160201 1.56784 0
M  V30 7470 C 694.177 -0.791402 2.18723 0
M  V30 7471 C 695.171 -1.24567 1.14801 0
M  V30 7472 O 696.377 -1.21262 1.33025 0
M  V30 7473 H 692.752 -0.273458 0.700517 0
M  V30 7474 H 694.723 -0.244931 2.97393 0
M  V30 7475 C 693.472 -2.01509 2.83354 0
M  V30 7476 H 692.795 -1.67454 3.63041 0
M  V30 7477 H 694.235 -2.66006 3.30177 0
M  V30 7478 C 692.694 -2.83159 1.82545 0
M  V30 7479 O 693.224 -3.79944 1.30405 0
M  V30 7480 N 691.43 -2.47953 1.51552 0
M  V30 7481 H 690.977 -1.69309 1.94144 0
M  V30 7482 H 690.935 -3.02873 0.843519 0
M  V30 7483 N 694.707 -1.5719 -0.113559 0
M  V30 7484 C 695.932 -1.89702 -0.838336 0
M  V30 7485 C 696.357 -0.752679 -1.72384 0
M  V30 7486 O 695.715 0.296575 -1.78858 0
M  V30 7487 C 695.763 -3.20989 -1.64312 0
M  V30 7488 O 694.867 -3.07278 -2.75053 0
M  V30 7489 H 694.208 -0.622339 -0.231496 0
M  V30 7490 H 696.738 -2.04382 -0.0943228 0
M  V30 7491 H 696.748 -3.53843 -2.03123 0
M  V30 7492 H 695.423 -4.03869 -0.993119 0
M  V30 7493 H 694 -2.85901 -2.39406 0
M  V30 7494 N 696.185 0.383891 -1.52853 0
M  V30 7495 C 697.413 1.1495 -1.7203 0
M  V30 7496 C 697.828 1.83578 -0.440957 0
M  V30 7497 O 697.185 1.72872 0.584925 0
M  V30 7498 C 697.236 2.19368 -2.87333 0
M  V30 7499 O 696.957 1.53536 -4.10315 0
M  V30 7500 C 698.458 3.08616 -3.18231 0
M  V30 7501 H 695.678 0.344445 -0.575846 0
M  V30 7502 H 698.222 0.448397 -1.99524 0
M  V30 7503 H 696.377 2.85105 -2.62286 0
M  V30 7504 H 696.791 2.2296 -4.74752 0
M  V30 7505 H 698.265 3.77902 -4.02361 0
M  V30 7506 H 698.742 3.72409 -2.32826 0
M  V30 7507 H 699.348 2.48518 -3.45136 0
M  V30 7508 N 697.663 1.43903 0.642637 0
M  V30 7509 C 698.903 1.47591 1.41408 0
M  V30 7510 C 699.267 0.101313 1.91733 0
M  V30 7511 O 700.468 0.0128797 2.68797 0
M  V30 7512 C 698.739 2.4977 2.55636 0
M  V30 7513 S 700.298 2.72417 3.43998 0
M  V30 7514 H 697.116 0.522163 0.482563 0
M  V30 7515 H 699.718 1.80745 0.745085 0
M  V30 7516 H 698.422 3.48365 2.16956 0
M  V30 7517 H 697.953 2.1815 3.27375 0
M  V30 7518 H 699.968 2.03142 4.52712 0
M  V30 7519 N 699.141 -0.881989 1.30609 0
M  V30 7520 C 700.104 -1.96957 1.1722 0
M  V30 7521 C 701.104 -1.60472 0.102598 0
M  V30 7522 O 702.294 -1.70628 0.350943 0
M  V30 7523 C 699.426 -3.31463 0.796572 0
M  V30 7524 H 700.619 -2.10262 2.13846 0
M  V30 7525 H 698.172 -1.06877 1.14048 0
M  V30 7526 H 698.907 -3.23859 -0.169053 0
M  V30 7527 H 698.692 -3.59314 1.56959 0
M  V30 7528 H 700.182 -4.11233 0.72645 0
M  V30 7529 N 700.619 -1.13374 -1.09472 0
M  V30 7530 C 701.866 -0.89519 -1.81639 0
M  V30 7531 C 702.194 0.57868 -1.85692 0
M  V30 7532 O 701.449 1.44426 -1.32059 0
M  V30 7533 C 701.748 -1.42759 -3.2765 0
M  V30 7534 C 701.414 -2.91822 -3.43731 0
M  V30 7535 C 700.076 -3.32521 -3.47827 0
M  V30 7536 C 702.428 -3.87727 -3.48307 0
M  V30 7537 C 699.756 -4.6781 -3.54078 0
M  V30 7538 C 702.108 -5.22859 -3.56091 0
M  V30 7539 C 700.772 -5.63086 -3.58456 0
M  V30 7540 H 700.042 -0.327573 -0.664663 0
M  V30 7541 H 702.689 -1.4156 -1.28969 0
M  V30 7542 H 700.994 -0.827871 -3.82954 0
M  V30 7543 H 702.691 -1.2191 -3.8202 0
M  V30 7544 H 699.281 -2.5935 -3.41226 0
M  V30 7545 H 703.465 -3.57371 -3.44383 0
M  V30 7546 H 698.721 -4.98353 -3.54195 0
M  V30 7547 H 702.895 -5.96989 -3.58577 0
M  V30 7548 H 700.522 -6.67905 -3.63052 0
M  V30 7549 N 702.098 1.27442 -0.927168 0
M  V30 7550 C 703.347 1.93679 -0.563146 0
M  V30 7551 C 703.66 1.73673 0.899837 0
M  V30 7552 O 704.866 2.34247 1.37262 0
M  V30 7553 C 703.322 3.46961 -0.95636 0
M  V30 7554 C 702.93 3.75724 -2.43999 0
M  V30 7555 C 704.674 4.19282 -0.663565 0
M  V30 7556 C 702.581 5.22378 -2.77263 0
M  V30 7557 H 701.511 0.725059 -0.206894 0
M  V30 7558 H 704.162 1.44743 -1.12791 0
M  V30 7559 H 702.544 3.94703 -0.320254 0
M  V30 7560 H 703.718 3.38741 -3.12396 0
M  V30 7561 H 702.033 3.16605 -2.70463 0
M  V30 7562 H 704.63 5.27265 -0.888596 0
M  V30 7563 H 704.973 4.14382 0.399198 0
M  V30 7564 H 705.506 3.7736 -1.25875 0
M  V30 7565 H 702.245 5.32367 -3.82446 0
M  V30 7566 H 701.765 5.6051 -2.13516 0
M  V30 7567 H 703.444 5.9025 -2.64979 0
M  V30 7568 O 703.615 0.831378 1.38457 0
M  V30 7569 H 704.306 0.416578 1.89167 0
M  V30 END ATOM
M  V30 BEGIN BOND
M  V30 END BOND
M  V30 END CTAB
M  END
$$$$
