drugbank_target|Q7Z2Z2 Elongation factor Tu GTP-binding domain-containing protein 1 (DB02750; DB03619; DB04315)
 OpenBabel12092120463D

  0  0  0     0  0            999 V3000
M  V30 BEGIN CTAB
M  V30 COUNTS 17640 17809 0 0 0
M  V30 BEGIN ATOM
M  V30 1 H -0.908 1.98254 -0.117106 0
M  V30 2 N 0 1.576 0 0
M  V30 3 C 0.933 2.03868 1.02534 0
M  V30 4 C 1.911 0.928543 1.3348 0
M  V30 5 O 3.095 1.19667 1.45644 0
M  V30 6 C 0.222 2.43627 2.35294 0
M  V30 7 C -0.732 3.65373 2.2001 0
M  V30 8 S 0.101 5.13292 1.52614 0
M  V30 9 C 1.257 5.56322 2.86805 0
M  V30 10 H 1.49 2.90518 0.631377 0
M  V30 11 H -0.977 1.52953 0.210867 0
M  V30 12 H 0.981 2.67203 3.11629 0
M  V30 13 H -0.358 1.57376 2.7183 0
M  V30 14 H -1.165 3.90944 3.18086 0
M  V30 15 H -1.563 3.418 1.51819 0
M  V30 16 H 0.729 5.58782 3.83104 0
M  V30 17 H 1.672 6.56266 2.65933 0
M  V30 18 H 2.08 4.83886 2.90714 0
M  V30 19 N 1.4781 -0.272755 1.55222 0
M  V30 20 C 2.7241 -1.00581 1.761 0
M  V30 21 C 3.0571 -1.85932 0.560625 0
M  V30 22 O 2.3321 -1.89416 -0.441801 0
M  V30 23 C 2.6151 -1.88816 3.06628 0
M  V30 24 C 2.4681 -1.06457 4.37021 0
M  V30 25 C 3.7871 -2.8752 3.33197 0
M  V30 26 H 0.9061 -0.364244 0.640699 0
M  V30 27 H 3.5481 -0.278189 1.87952 0
M  V30 28 H 1.6981 -2.50856 2.96654 0
M  V30 29 H 3.3701 -0.464863 4.58952 0
M  V30 30 H 1.6131 -0.368043 4.32236 0
M  V30 31 H 2.2841 -1.71514 5.24678 0
M  V30 32 H 4.7601 -2.35615 3.42965 0
M  V30 33 H 3.6361 -3.46399 4.25792 0
M  V30 34 H 3.8971 -3.62657 2.52849 0
M  V30 35 N 2.9562 -1.48159 -0.537278 0
M  V30 36 C 3.8862 -1.65029 -1.6519 0
M  V30 37 C 4.8672 -0.499281 -1.62607 0
M  V30 38 O 6.0522 -0.730972 -1.79918 0
M  V30 39 C 3.1822 -1.68303 -3.03795 0
M  V30 40 C 2.1362 -2.8283 -3.21234 0
M  V30 41 C 1.4622 -2.71189 -4.60826 0
M  V30 42 C 2.7622 -4.24211 -3.04701 0
M  V30 43 H 4.4562 -2.58341 -1.51328 0
M  V30 44 H 2.0022 -1.24325 -0.726585 0
M  V30 45 H 3.9552 -1.78693 -3.81637 0
M  V30 46 H 2.6792 -0.715635 -3.18663 0
M  V30 47 H 1.3382 -2.71983 -2.45807 0
M  V30 48 H 0.9862 -1.72435 -4.7252 0
M  V30 49 H 0.6862 -3.48035 -4.7344 0
M  V30 50 H 2.2102 -2.83537 -5.40777 0
M  V30 51 H 3.6242 -4.3593 -3.72341 0
M  V30 52 H 2.0212 -5.01998 -3.28813 0
M  V30 53 H 3.0912 -4.41184 -2.01209 0
M  V30 54 N 4.4343 0.785586 -1.36625 0
M  V30 55 C 5.3823 1.91978 -1.31329 0
M  V30 56 C 6.3763 1.68162 -0.204416 0
M  V30 57 O 7.5823 1.76122 -0.371645 0
M  V30 58 H 3.9573 0.631087 -0.408942 0
M  V30 59 H 5.9283 1.93562 -2.27104 0
M  V30 60 C 4.6773 3.29055 -1.12329 0
M  V30 61 H 4.0003 3.4795 -1.96903 0
M  V30 62 H 5.4403 4.08756 -1.12671 0
M  V30 63 C 3.8993 3.36461 0.171861 0
M  V30 64 O 4.4293 3.84576 1.16035 0
M  V30 65 N 2.6353 2.89782 0.217846 0
M  V30 66 H 2.1823 2.50819 -0.587183 0
M  V30 67 H 2.1403 2.95119 1.08408 0
M  V30 68 N 5.9124 1.20967 1.01018 0
M  V30 69 C 7.1374 1.0503 1.78839 0
M  V30 70 C 7.5624 -0.395752 1.8389 0
M  V30 71 O 6.9204 -1.28529 1.27867 0
M  V30 72 C 6.9684 1.64602 3.2084 0
M  V30 73 O 6.0724 0.887988 4.02726 0
M  V30 74 H 5.4134 0.369987 0.551367 0
M  V30 75 H 7.9434 1.60399 1.27018 0
M  V30 76 H 7.9534 1.68607 3.71532 0
M  V30 77 H 6.6284 2.69841 3.16479 0
M  V30 78 H 5.2054 0.922648 3.61305 0
M  V30 79 N 7.3905 -1.2043 1.01659 0
M  V30 80 C 8.3205 -2.25466 0.607226 0
M  V30 81 C 9.3015 -1.65853 -0.377716 0
M  V30 82 O 10.4865 -1.92409 -0.263149 0
M  V30 83 C 7.6165 -3.47256 -0.0552949 0
M  V30 84 C 6.5705 -4.19462 0.850632 0
M  V30 85 C 5.8965 -5.34673 0.0538859 0
M  V30 86 C 7.1965 -4.75603 2.15868 0
M  V30 87 H 8.8905 -2.59962 1.48526 0
M  V30 88 H 6.4365 -1.2496 0.715605 0
M  V30 89 H 8.3895 -4.19917 -0.353233 0
M  V30 90 H 7.1135 -3.11924 -0.968045 0
M  V30 91 H 5.7725 -3.48667 1.13257 0
M  V30 92 H 5.4205 -4.95585 -0.860514 0
M  V30 93 H 5.1205 -5.83913 0.657192 0
M  V30 94 H 6.6445 -6.10138 -0.237598 0
M  V30 95 H 8.0585 -5.40083 1.92311 0
M  V30 96 H 6.4555 -5.3528 2.71284 0
M  V30 97 H 7.5255 -3.94346 2.82169 0
M  V30 98 N 8.8686 -0.792821 -1.36206 0
M  V30 99 C 10.1456 -0.290627 -1.93429 0
M  V30 100 C 10.5256 1.21773 -1.72437 0
M  V30 101 O 9.8736 2.0108 -1.08531 0
M  V30 102 C 10.0836 -0.686973 -3.42172 0
M  V30 103 C 11.4316 -0.668643 -4.19302 0
M  V30 104 O 12.4556 -0.627658 -3.50626 0
M  V30 105 O 11.3146 -0.714597 -5.41808 0
M  V30 106 H 8.4086 -0.0727927 -0.82379 0
M  V30 107 H 10.9546 -0.875593 -1.45367 0
M  V30 108 H 9.7266 -1.72711 -3.51122 0
M  V30 109 H 9.3496 -0.0760733 -3.97527 0
M  V30 110 N 10.3467 1.47872 -0.545128 0
M  V30 111 C 11.2937 2.29849 0.2093 0
M  V30 112 C 12.2637 1.38313 0.919707 0
M  V30 113 O 13.4487 1.67277 0.917772 0
M  V30 114 C 10.5887 3.22019 1.24088 0
M  V30 115 C 9.7017 4.2864 0.537778 0
M  V30 116 C 8.8367 5.07973 1.5536 0
M  V30 117 C 7.8757 6.06381 0.8348 0
M  V30 118 N 7.0127 6.78717 1.79688 0
M  V30 119 H 11.8527 2.93845 -0.49591 0
M  V30 120 H 9.3897 1.44848 -0.256389 0
M  V30 121 H 11.3477 3.73868 1.85144 0
M  V30 122 H 9.9777 2.59914 1.91428 0
M  V30 123 H 9.0297 3.7994 -0.187046 0
M  V30 124 H 10.3417 4.98793 -0.0258907 0
M  V30 125 H 9.4957 5.63912 2.23803 0
M  V30 126 H 8.2347 4.37693 2.15118 0
M  V30 127 H 7.2397 5.49631 0.136388 0
M  V30 128 H 8.4647 6.78665 0.24313 0
M  V30 129 H 6.4107 6.11177 2.38326 0
M  V30 130 H 6.3277 7.44998 1.28505 0
M  V30 131 H 7.5957 7.39237 2.47282 0
M  V30 132 N 11.8248 0.280983 1.55075 0
M  V30 133 C 12.7578 -0.645439 2.18882 0
M  V30 134 C 13.7358 -1.14786 1.15165 0
M  V30 135 O 14.9198 -1.21975 1.43716 0
M  V30 136 C 12.0468 -1.88088 2.81674 0
M  V30 137 C 11.0928 -1.51343 3.98745 0
M  V30 138 S 11.9258 -0.586548 5.32278 0
M  V30 139 C 13.0818 -1.83024 5.98543 0
M  V30 140 H 13.3148 -0.1033 2.9712 0
M  V30 141 H 10.8478 0.0652099 1.54262 0
M  V30 142 H 12.8058 -2.58997 3.18482 0
M  V30 143 H 11.4668 -2.39417 2.03318 0
M  V30 144 H 10.6598 -2.43289 4.41392 0
M  V30 145 H 10.2618 -0.884477 3.63391 0
M  V30 146 H 12.5538 -2.77342 6.18133 0
M  V30 147 H 13.4968 -1.44668 6.93164 0
M  V30 148 H 13.9048 -1.99785 5.27964 0
M  V30 149 N 13.3029 -1.57598 0.00835791 0
M  V30 150 C 14.5519 -1.90107 -0.673968 0
M  V30 151 C 14.8649 -0.884275 -1.7447 0
M  V30 152 O 16.0709 -1.09987 -2.48224 0
M  V30 153 C 14.5269 -3.37497 -1.24995 0
M  V30 154 C 14.1349 -4.47491 -0.2136 0
M  V30 155 C 15.8789 -3.79104 -1.90999 0
M  V30 156 C 13.7859 -5.85963 -0.80005 0
M  V30 157 H 12.7159 -0.709393 -0.255495 0
M  V30 158 H 15.3669 -1.83365 0.0702693 0
M  V30 159 H 13.7489 -3.39102 -2.04513 0
M  V30 160 H 14.9229 -4.57414 0.557596 0
M  V30 161 H 13.2379 -4.14956 0.346474 0
M  V30 162 H 15.8349 -4.79901 -2.35795 0
M  V30 163 H 16.1779 -3.1306 -2.74407 0
M  V30 164 H 16.7109 -3.79833 -1.18203 0
M  V30 165 H 13.4499 -6.555 -0.00456708 0
M  V30 166 H 12.9699 -5.79687 -1.54021 0
M  V30 167 H 14.6489 -6.33884 -1.29615 0
M  V30 168 N 14.781 0.264519 -1.55364 0
M  V30 169 C 15.713 1.34965 -1.85248 0
M  V30 170 C 16.726 1.45136 -0.737525 0
M  V30 171 O 17.915 1.46801 -1.01547 0
M  V30 172 C 15.015 2.73008 -2.00797 0
M  V30 173 C 14.188 2.85324 -3.31525 0
M  V30 174 C 13.247 4.04097 -3.37034 0
M  V30 175 O 12.273 3.94455 -4.10358 0
M  V30 176 N 13.475 5.16458 -2.65049 0
M  V30 177 H 16.24 1.09672 -2.78913 0
M  V30 178 H 13.801 0.454635 -1.55386 0
M  V30 179 H 15.793 3.50772 -2.01844 0
M  V30 180 H 14.363 2.91087 -1.1396 0
M  V30 181 H 13.583 1.94377 -3.42945 0
M  V30 182 H 14.871 2.9049 -4.17724 0
M  V30 183 H 14.269 5.27181 -2.05175 0
M  V30 184 H 12.826 5.92422 -2.71809 0
M  V30 185 N 16.2591 1.48442 0.529413 0
M  V30 186 C 17.1891 1.65902 1.64313 0
M  V30 187 C 18.1701 0.507897 1.6234 0
M  V30 188 O 19.3551 0.740503 1.79528 0
M  V30 189 C 16.4851 1.69911 3.02898 0
M  V30 190 C 15.4391 2.8453 3.19729 0
M  V30 191 C 14.7651 2.73629 4.59381 0
M  V30 192 C 16.0651 4.25821 3.02447 0
M  V30 193 H 17.7591 2.5914 1.49955 0
M  V30 194 H 15.3051 1.24709 0.719982 0
M  V30 195 H 17.2581 1.80715 3.80684 0
M  V30 196 H 15.9821 0.732524 3.18279 0
M  V30 197 H 14.6411 2.73283 2.44361 0
M  V30 198 H 14.2891 1.74938 4.71599 0
M  V30 199 H 13.9891 3.50541 4.71588 0
M  V30 200 H 15.5131 2.86401 5.39265 0
M  V30 201 H 16.9271 4.37898 3.70024 0
M  V30 202 H 15.3241 5.03735 3.26146 0
M  V30 203 H 16.3941 4.42244 1.98867 0
M  V30 204 N 17.7372 -0.778329 1.37039 0
M  V30 205 C 18.6692 -1.90034 1.2814 0
M  V30 206 C 19.6822 -1.61585 0.198558 0
M  V30 207 O 20.8712 -1.72625 0.454175 0
M  V30 208 C 17.9712 -3.25108 0.956968 0
M  V30 209 C 17.1442 -3.81253 2.14394 0
M  V30 210 C 16.2032 -4.94789 1.79082 0
M  V30 211 O 15.2292 -5.10721 2.51301 0
M  V30 212 N 16.4312 -5.75878 0.731043 0
M  V30 213 H 19.1962 -1.98186 2.24816 0
M  V30 214 H 16.7572 -0.957129 1.30578 0
M  V30 215 H 18.7492 -3.9857 0.701701 0
M  V30 216 H 17.3192 -3.125 0.0789812 0
M  V30 217 H 16.5392 -2.99647 2.56135 0
M  V30 218 H 17.8272 -4.15495 2.93668 0
M  V30 219 H 17.2252 -5.65547 0.131618 0
M  V30 220 H 15.7822 -6.49596 0.535622 0
M  V30 221 N 19.2153 -1.21501 -1.00376 0
M  V30 222 C 20.1623 -0.975387 -2.09177 0
M  V30 223 C 21.1323 0.0990615 -1.65804 0
M  V30 224 O 22.3173 -0.0483147 -1.90739 0
M  V30 225 C 19.4573 -0.547507 -3.40729 0
M  V30 226 C 18.5703 -1.69153 -3.97506 0
M  V30 227 C 17.7053 -1.2127 -5.17172 0
M  V30 228 C 16.7443 -2.32897 -5.66061 0
M  V30 229 N 15.8813 -1.86138 -6.76976 0
M  V30 230 H 20.7213 -1.9068 -2.29009 0
M  V30 231 H 18.2583 -0.950257 -1.12288 0
M  V30 232 H 20.2163 -0.280667 -4.16255 0
M  V30 233 H 18.8463 0.346904 -3.20931 0
M  V30 234 H 17.8983 -2.07298 -3.18954 0
M  V30 235 H 19.2103 -2.5316 -4.29781 0
M  V30 236 H 18.3643 -0.902591 -5.99948 0
M  V30 237 H 17.1033 -0.342692 -4.86495 0
M  V30 238 H 16.1083 -2.64709 -4.81881 0
M  V30 239 H 17.3333 -3.20396 -5.98768 0
M  V30 240 H 15.2793 -1.01484 -6.48103 0
M  V30 241 H 15.1963 -2.63717 -7.08512 0
M  V30 242 H 16.4643 -1.58165 -7.63285 0
M  V30 243 N 20.6934 1.19889 -1.02296 0
M  V30 244 C 21.6414 2.24938 -0.592081 0
M  V30 245 C 22.6354 1.65257 0.372357 0
M  V30 246 O 23.8414 1.78371 0.241583 0
M  V30 247 H 20.2164 0.731787 -0.173182 0
M  V30 248 H 22.1874 2.58603 -1.48885 0
M  V30 249 C 20.9364 3.47668 0.047351 0
M  V30 250 H 20.2594 3.93875 -0.685772 0
M  V30 251 H 21.6994 4.22852 0.311862 0
M  V30 252 C 20.1584 3.11136 1.29212 0
M  V30 253 O 20.6884 3.2325 2.38479 0
M  V30 254 N 18.8944 2.65625 1.17863 0
M  V30 255 H 18.4414 2.55968 0.289493 0
M  V30 256 H 18.3994 2.41553 2.01245 0
M  V30 257 N 22.1715 0.800033 1.35784 0
M  V30 258 C 23.3995 0.389606 2.03199 0
M  V30 259 C 23.8145 -0.997375 1.60306 0
M  V30 260 O 23.1715 -1.64154 0.797481 0
M  V30 261 C 23.2225 0.455855 3.58614 0
M  V30 262 O 22.9435 1.78815 3.99946 0
M  V30 263 C 24.4445 0.0374032 4.43284 0
M  V30 264 H 21.6645 0.159132 0.651857 0
M  V30 265 H 24.2085 1.08183 1.73541 0
M  V30 266 H 22.3635 -0.188057 3.86943 0
M  V30 267 H 22.7775 1.74636 4.94573 0
M  V30 268 H 24.2515 0.134882 5.51835 0
M  V30 269 H 24.7285 -1.01651 4.27275 0
M  V30 270 H 25.3345 0.654215 4.20238 0
M  V30 271 N 23.6496 -1.47581 0.552962 0
M  V30 272 C 24.6126 -2.28439 -0.186605 0
M  V30 273 C 25.6126 -1.36706 -0.84665 0
M  V30 274 O 26.8026 -1.59378 -0.703164 0
M  V30 275 C 23.9346 -3.16264 -1.2724 0
M  V30 276 H 25.1276 -2.95294 0.523609 0
M  V30 277 H 22.6806 -1.532 0.309745 0
M  V30 278 H 23.4156 -2.54091 -2.01514 0
M  V30 279 H 23.2006 -3.83769 -0.803968 0
M  V30 280 H 24.6906 -3.77198 -1.79196 0
M  V30 281 N 25.1277 -0.289203 -1.54924 0
M  V30 282 C 26.0757 0.607966 -2.24514 0
M  V30 283 C 27.0697 1.14655 -1.24702 0
M  V30 284 O 28.2757 1.09856 -1.4259 0
M  V30 285 H 24.6507 0.21464 -0.720718 0
M  V30 286 H 26.6217 -0.00164182 -2.984 0
M  V30 287 C 25.3707 1.77406 -2.99036 0
M  V30 288 H 24.6937 1.36884 -3.75637 0
M  V30 289 H 26.1337 2.37814 -3.51028 0
M  V30 290 C 24.5927 2.67107 -2.05318 0
M  V30 291 O 25.1227 3.6787 -1.61353 0
M  V30 292 N 23.3287 2.34582 -1.71521 0
M  V30 293 H 22.8757 1.52688 -2.07471 0
M  V30 294 H 22.8337 2.94867 -1.0909 0
M  V30 295 N 26.6058 1.57591 -0.0167156 0
M  V30 296 C 27.8548 1.90461 0.663877 0
M  V30 297 C 28.1678 0.893515 1.73999 0
M  V30 298 O 29.3738 1.11302 2.47637 0
M  V30 299 C 27.8298 3.38155 1.23204 0
M  V30 300 C 27.4378 4.47597 0.189866 0
M  V30 301 C 29.1818 3.80111 1.88986 0
M  V30 302 C 27.0888 5.86379 0.768964 0
M  V30 303 H 26.0188 0.710738 0.251729 0
M  V30 304 H 28.6698 1.83326 -0.0799926 0
M  V30 305 H 27.0518 3.40182 2.02712 0
M  V30 306 H 28.2258 4.57112 -0.581846 0
M  V30 307 H 26.5408 4.14766 -0.368475 0
M  V30 308 H 29.1378 4.81145 2.33247 0
M  V30 309 H 29.4808 3.14511 2.72743 0
M  V30 310 H 30.0138 3.80454 1.16187 0
M  V30 311 H 26.7528 6.55493 -0.0301957 0
M  V30 312 H 26.2728 5.80496 1.50945 0
M  V30 313 H 27.9518 6.34563 1.26251 0
M  V30 314 N 28.0839 -0.256276 1.55502 0
M  V30 315 C 29.4999 -0.604325 1.47716 0
M  V30 316 C 29.6999 -1.88763 0.705039 0
M  V30 317 O 28.7559 -2.51445 0.230613 0
M  V30 318 C 30.0689 -0.715756 2.92057 0
M  V30 319 C 31.6169 -0.808706 3.02372 0
M  V30 320 C 32.0919 -0.951777 4.48001 0
M  V30 321 N 33.5829 -1.01688 4.519 0
M  V30 322 C 34.3179 -1.14668 5.61817 0
M  V30 323 N 33.8139 -1.24261 6.81565 0
M  V30 324 N 35.6069 -1.1791 5.49594 0
M  V30 325 H 27.7579 0.586291 2.04148 0
M  V30 326 H 30.0209 0.201015 0.926443 0
M  V30 327 H 29.7269 0.157027 3.51349 0
M  V30 328 H 29.6009 -1.59071 3.42018 0
M  V30 329 H 31.9879 -1.67195 2.43166 0
M  V30 330 H 32.0689 0.0912063 2.55637 0
M  V30 331 H 31.7129 -0.0931291 5.07815 0
M  V30 332 H 31.6429 -1.86659 4.92408 0
M  V30 333 H 34.1339 -0.954468 3.65648 0
M  V30 334 H 34.4469 -1.34046 7.61086 0
M  V30 335 H 32.7919 -1.21236 6.84344 0
M  V30 336 H 35.9829 -1.10057 4.54978 0
M  V30 337 H 36.1559 -1.27681 6.35296 0
M  V30 338 N 29.562 -1.4872 -0.521534 0
M  V30 339 C 30.51 -1.64328 -1.64618 0
M  V30 340 C 31.504 -0.50953 -1.61555 0
M  V30 341 O 32.71 -0.688525 -1.66311 0
M  V30 342 H 29.085 -0.517805 -0.545328 0
M  V30 343 H 31.056 -2.58767 -1.48601 0
M  V30 344 C 29.805 -1.70805 -3.02855 0
M  V30 345 H 29.128 -2.5741 -3.05909 0
M  V30 346 H 30.568 -1.85766 -3.81139 0
M  V30 347 C 29.027 -0.448479 -3.33902 0
M  V30 348 O 29.557 0.434928 -3.99339 0
M  V30 349 N 27.763 -0.317616 -2.88859 0
M  V30 350 H 27.31 -1.03748 -2.35784 0
M  V30 351 H 27.268 0.524113 -3.10001 0
M  V30 352 N 31.0401 0.771051 -1.3745 0
M  V30 353 C 32.2891 1.52491 -1.3202 0
M  V30 354 C 32.6021 1.9538 0.0927347 0
M  V30 355 O 33.8081 2.70159 0.269503 0
M  V30 356 C 32.2641 2.75366 -2.31736 0
M  V30 357 C 31.8721 2.39573 -3.78562 0
M  V30 358 C 33.6161 3.53307 -2.35318 0
M  V30 359 C 31.5231 3.58954 -4.70007 0
M  V30 360 H 30.4531 0.572506 -0.490666 0
M  V30 361 H 33.1041 0.844474 -1.62914 0
M  V30 362 H 31.4861 3.45303 -1.93861 0
M  V30 363 H 32.6601 1.77415 -4.25277 0
M  V30 364 H 30.9751 1.74805 -3.77932 0
M  V30 365 H 33.5721 4.42039 -3.00842 0
M  V30 366 H 33.9151 3.93217 -1.36698 0
M  V30 367 H 34.4481 2.90367 -2.71904 0
M  V30 368 H 31.1871 3.24125 -5.69757 0
M  V30 369 H 30.7071 4.20214 -4.27996 0
M  V30 370 H 32.3861 4.25758 -4.87175 0
M  V30 371 N 32.5182 1.22032 0.997298 0
M  V30 372 C 33.7582 1.05375 1.75144 0
M  V30 373 C 34.1222 -0.404696 1.87686 0
M  V30 374 O 35.3232 -0.691998 2.5974 0
M  V30 375 C 33.5942 1.74046 3.12158 0
M  V30 376 S 35.1532 1.72745 4.03366 0
M  V30 377 H 31.9712 0.377449 0.602539 0
M  V30 378 H 34.5732 1.54902 1.19272 0
M  V30 379 H 33.2772 2.79332 3.00669 0
M  V30 380 H 32.8082 1.24731 3.73103 0
M  V30 381 H 34.8232 0.774015 4.90126 0
M  V30 382 N 33.9963 -1.19345 1.0293 0
M  V30 383 C 35.2423 -1.89318 0.727083 0
M  V30 384 C 35.5753 -1.79446 -0.742483 0
M  V30 385 O 34.8503 -1.1871 -1.54072 0
M  V30 386 C 35.1333 -3.40238 1.17942 0
M  V30 387 C 34.9863 -3.58979 2.71024 0
M  V30 388 C 36.3053 -4.33479 0.760548 0
M  V30 389 H 33.4243 -0.687475 0.265606 0
M  V30 390 H 36.0663 -1.40477 1.2793 0
M  V30 391 H 34.2163 -3.81964 0.709608 0
M  V30 392 H 35.8883 -3.26421 3.25955 0
M  V30 393 H 34.1313 -3.02018 3.11396 0
M  V30 394 H 34.8023 -4.64823 2.9773 0
M  V30 395 H 37.2783 -3.99469 1.16464 0
M  V30 396 H 36.1543 -5.37664 1.10493 0
M  V30 397 H 36.4153 -4.40813 -0.337063 0
M  V30 398 N 35.4744 -0.807222 -1.35358 0
M  V30 399 C 36.4044 -0.232509 -2.3234 0
M  V30 400 C 37.3854 0.642386 -1.57504 0
M  V30 401 O 38.5704 0.572526 -1.85569 0
M  V30 402 C 35.7004 0.619238 -3.41735 0
M  V30 403 C 34.6544 -0.157215 -4.27711 0
M  V30 404 C 33.9804 0.816273 -5.28433 0
M  V30 405 C 35.2804 -1.35656 -5.04376 0
M  V30 406 H 36.9744 -1.04276 -2.80654 0
M  V30 407 H 34.5204 -0.50288 -1.34934 0
M  V30 408 H 36.4734 1.03137 -4.08584 0
M  V30 409 H 35.1974 1.46239 -2.92031 0
M  V30 410 H 33.8564 -0.550525 -3.62443 0
M  V30 411 H 33.5044 1.65494 -4.74996 0
M  V30 412 H 33.2044 0.301067 -5.86828 0
M  V30 413 H 34.7284 1.22659 -5.98153 0
M  V30 414 H 36.1424 -1.01927 -5.64166 0
M  V30 415 H 34.5394 -1.8063 -5.7227 0
M  V30 416 H 35.6094 -2.14288 -4.34981 0
M  V30 417 N 36.9525 1.47285 -0.560781 0
M  V30 418 C 37.9155 2.28535 0.174488 0
M  V30 419 C 38.9155 1.37153 0.839388 0
M  V30 420 O 40.1055 1.59748 0.694702 0
M  V30 421 C 37.2375 3.16934 1.25561 0
M  V30 422 H 38.4305 2.95012 -0.539262 0
M  V30 423 H 35.9835 1.53034 -0.317865 0
M  V30 424 H 36.7185 2.55157 2.00164 0
M  V30 425 H 36.5035 3.8419 0.783604 0
M  V30 426 H 37.9935 3.78143 1.77193 0
M  V30 427 N 38.4306 0.297415 1.54768 0
M  V30 428 C 39.3806 -0.595275 2.20092 0
M  V30 429 C 40.3646 -1.10163 1.17273 0
M  V30 430 O 41.5566 -1.043 1.43006 0
M  V30 431 C 38.6856 -1.7684 2.94249 0
M  V30 432 C 37.7716 -1.27818 4.0438 0
M  V30 433 N 38.1626 -0.505695 5.03266 0
M  V30 434 C 36.4606 -1.55923 4.17857 0
M  V30 435 C 37.1616 -0.245094 5.81183 0
M  V30 436 N 36.1376 -0.823881 5.3732 0
M  V30 437 H 39.9396 0.00250837 2.939 0
M  V30 438 H 37.4536 0.102007 1.62079 0
M  V30 439 H 39.4506 -2.41944 3.39513 0
M  V30 440 H 38.1106 -2.36992 2.21957 0
M  V30 441 H 39.1216 -0.150928 5.1768 0
M  V30 442 H 35.7986 -2.16849 3.56767 0
M  V30 443 H 37.1886 0.375084 6.70852 0
M  V30 444 N 39.9087 -1.5758 0.0250728 0
M  V30 445 C 41.1547 -1.91917 -0.655413 0
M  V30 446 C 41.4877 -0.901433 -1.72011 0
M  V30 447 O 40.7627 0.0764069 -1.9435 0
M  V30 448 C 41.0457 -3.36751 -1.27558 0
M  V30 449 C 40.8987 -4.49258 -0.220719 0
M  V30 450 C 42.2177 -3.81469 -2.19475 0
M  V30 451 H 39.3367 -0.697925 -0.23679 0
M  V30 452 H 41.9787 -1.89825 0.0815036 0
M  V30 453 H 40.1287 -3.38664 -1.90365 0
M  V30 454 H 41.8007 -4.59478 0.409601 0
M  V30 455 H 40.0437 -4.31415 0.454264 0
M  V30 456 H 40.7147 -5.47618 -0.694175 0
M  V30 457 H 43.1907 -3.81266 -1.66659 0
M  V30 458 H 42.0667 -4.83512 -2.59822 0
M  V30 459 H 42.3277 -3.16744 -3.08424 0
M  V30 460 N 41.3868 0.248026 -1.55636 0
M  V30 461 C 42.6638 0.998988 -1.68165 0
M  V30 462 C 43.0438 2.03409 -0.564621 0
M  V30 463 O 42.3918 2.24378 0.432076 0
M  V30 464 C 42.6018 1.63334 -3.0842 0
M  V30 465 C 43.9498 2.13562 -3.66983 0
M  V30 466 O 44.9738 1.73277 -3.11213 0
M  V30 467 O 43.8328 2.87526 -4.64749 0
M  V30 468 H 40.9268 0.464933 -0.683935 0
M  V30 469 H 43.4728 0.241902 -1.67967 0
M  V30 470 H 42.2448 0.884583 -3.8117 0
M  V30 471 H 41.8678 2.45666 -3.12624 0
M  V30 472 N 42.8649 1.48995 0.513639 0
M  V30 473 C 43.8149 1.61127 1.61314 0
M  V30 474 C 44.7989 0.467521 1.53958 0
M  V30 475 O 45.9909 0.719826 1.61702 0
M  V30 476 C 43.1199 1.66937 2.99978 0
M  V30 477 C 42.2059 2.86847 3.12377 0
M  V30 478 N 42.5969 4.11078 2.94701 0
M  V30 479 C 40.8949 2.84521 3.43459 0
M  V30 480 C 41.5959 4.91615 3.10949 0
M  V30 481 N 40.5719 4.24739 3.3926 0
M  V30 482 H 44.3739 2.54909 1.46282 0
M  V30 483 H 41.8879 1.45593 0.719483 0
M  V30 484 H 43.8849 1.73725 3.78979 0
M  V30 485 H 42.5449 0.742831 3.16089 0
M  V30 486 H 43.5559 4.41258 2.71131 0
M  V30 487 H 40.2329 2.01192 3.65825 0
M  V30 488 H 41.6229 6.00264 3.01882 0
M  V30 489 N 44.343 -0.763751 1.37857 0
M  V30 490 C 45.591 -1.51957 1.33243 0
M  V30 491 C 45.912 -1.94835 -0.0801709 0
M  V30 492 O 45.182 -1.66894 -1.02582 0
M  V30 493 H 43.762 -0.563626 0.49024 0
M  V30 494 H 46.424 -0.908504 1.7243 0
M  V30 495 H 45.52 -2.41523 1.97669 0
M  V30 496 N 45.8211 -1.22559 -0.990812 0
M  V30 497 C 46.7681 -0.997519 -2.0813 0
M  V30 498 C 47.7381 0.0814702 -1.659 0
M  V30 499 O 48.9231 -0.0685424 -1.90677 0
M  V30 500 C 46.0631 -0.583615 -3.40129 0
M  V30 501 C 45.1761 -1.7336 -3.9569 0
M  V30 502 C 44.3111 -1.26748 -5.15857 0
M  V30 503 C 43.3501 -2.38888 -5.63559 0
M  V30 504 N 42.4871 -1.93308 -6.74964 0
M  V30 505 H 47.3271 -1.93099 -2.26973 0
M  V30 506 H 44.8641 -0.962114 -1.11273 0
M  V30 507 H 46.8221 -0.324801 -4.15934 0
M  V30 508 H 45.4521 0.312845 -3.2128 0
M  V30 509 H 44.5041 -2.10669 -3.16738 0
M  V30 510 H 45.8161 -2.57704 -4.27071 0
M  V30 511 H 44.9701 -0.966173 -5.98957 0
M  V30 512 H 43.7091 -0.394272 -4.86104 0
M  V30 513 H 42.7141 -2.69805 -4.79046 0
M  V30 514 H 43.9391 -3.26728 -5.95336 0
M  V30 515 H 41.8851 -1.08352 -6.4699 0
M  V30 516 H 41.8021 -2.71217 -7.05675 0
M  V30 517 H 43.0701 -1.66252 -7.61564 0
M  V30 518 N 47.2992 1.18797 -1.03562 0
M  V30 519 C 48.5272 1.92599 -0.755869 0
M  V30 520 C 48.9422 1.75886 0.686271 0
M  V30 521 O 48.2992 1.08517 1.46732 0
M  V30 522 C 48.3502 3.44159 -1.10619 0
M  V30 523 O 48.0712 3.60341 -2.4917 0
M  V30 524 C 49.5722 4.3507 -0.850214 0
M  V30 525 H 46.7922 0.611587 -0.276048 0
M  V30 526 H 49.3362 1.50742 -1.38192 0
M  V30 527 H 47.4912 3.83823 -0.525194 0
M  V30 528 H 47.9052 4.54128 -2.62427 0
M  V30 529 H 49.3792 5.39989 -1.14523 0
M  V30 530 H 49.8562 4.38673 0.215176 0
M  V30 531 H 50.4622 4.01097 -1.41426 0
M  V30 532 N 48.7773 0.814389 1.34928 0
M  V30 533 C 50.0053 0.411136 2.02774 0
M  V30 534 C 50.4203 -0.980316 1.61354 0
M  V30 535 O 49.7773 -1.63299 0.814847 0
M  V30 536 C 49.8283 0.493865 3.58111 0
M  V30 537 O 49.5493 1.83047 3.98027 0
M  V30 538 C 51.0503 0.0844174 4.4322 0
M  V30 539 H 48.2703 0.166037 0.650133 0
M  V30 540 H 50.8143 1.10018 1.72384 0
M  V30 541 H 48.9693 -0.147006 3.87121 0
M  V30 542 H 49.3833 1.79872 4.92693 0
M  V30 543 H 50.8573 0.193404 5.51661 0
M  V30 544 H 51.3343 -0.97113 4.28329 0
M  V30 545 H 51.9403 0.69875 4.19521 0
M  V30 546 N 50.2554 -1.46986 0.568584 0
M  V30 547 C 51.1854 -2.32946 -0.160753 0
M  V30 548 C 52.1664 -1.44487 -0.897631 0
M  V30 549 O 53.3514 -1.73327 -0.875867 0
M  V30 550 C 50.4814 -3.26494 -1.18403 0
M  V30 551 C 49.4354 -4.24282 -0.562895 0
M  V30 552 C 48.7614 -5.07236 -1.69163 0
M  V30 553 C 50.0614 -5.19989 0.490761 0
M  V30 554 H 51.7554 -2.94175 0.556916 0
M  V30 555 H 49.3014 -1.4146 0.26927 0
M  V30 556 H 51.2544 -3.85477 -1.70251 0
M  V30 557 H 49.9784 -2.63343 -1.93179 0
M  V30 558 H 48.6374 -3.66541 -0.0656164 0
M  V30 559 H 48.2854 -4.4048 -2.42871 0
M  V30 560 H 47.9854 -5.7345 -1.28174 0
M  V30 561 H 49.5094 -5.6908 -2.21314 0
M  V30 562 H 50.9234 -5.73271 0.0579047 0
M  V30 563 H 49.3204 -5.94469 0.820165 0
M  V30 564 H 50.3904 -4.64777 1.3824 0
M  V30 565 N 51.7335 -0.305618 -1.54608 0
M  V30 566 C 52.6965 0.555591 -2.22364 0
M  V30 567 C 53.6965 1.05768 -1.21119 0
M  V30 568 O 54.8865 0.952972 -1.45822 0
M  V30 569 C 52.0185 1.76974 -2.91364 0
M  V30 570 H 53.2115 -0.0364572 -2.99878 0
M  V30 571 H 50.7645 -0.0565007 -1.56198 0
M  V30 572 H 51.4995 2.40151 -2.17941 0
M  V30 573 H 51.2845 1.41732 -3.65588 0
M  V30 574 H 52.7745 2.38148 -3.43038 0
M  V30 575 N 53.2116 1.57565 -0.0334293 0
M  V30 576 C 54.4886 1.83282 0.683163 0
M  V30 577 C 54.8686 0.91823 1.90084 0
M  V30 578 O 54.2166 -0.025113 2.28486 0
M  V30 579 C 54.4266 3.32599 1.0573 0
M  V30 580 C 55.7746 3.99179 1.44711 0
M  V30 581 O 56.7986 3.3712 1.15015 0
M  V30 582 O 55.6576 5.08565 2.0006 0
M  V30 583 H 52.7516 0.755869 0.335546 0
M  V30 584 H 55.2976 1.69589 -0.0614402 0
M  V30 585 H 54.0696 3.90834 0.190828 0
M  V30 586 H 53.6926 3.51415 1.85993 0
M  V30 587 N 54.6897 -0.239769 1.55765 0
M  V30 588 C 55.9297 -0.974076 1.79697 0
M  V30 589 C 56.2937 -1.82249 0.604088 0
M  V30 590 O 57.4947 -2.58913 0.722324 0
M  V30 591 C 55.7657 -1.80595 3.08416 0
M  V30 592 S 57.3247 -2.59838 3.53596 0
M  V30 593 H 54.1427 -0.327524 0.63107 0
M  V30 594 H 56.7447 -0.241277 1.94005 0
M  V30 595 H 55.4487 -1.17249 3.93295 0
M  V30 596 H 54.9797 -2.58137 2.96865 0
M  V30 597 H 56.9947 -3.82987 3.15492 0
M  V30 598 N 56.1678 -1.49265 -0.50573 0
M  V30 599 C 57.0978 -1.68495 -1.61653 0
M  V30 600 C 58.0788 -0.53366 -1.61512 0
M  V30 601 O 59.2638 -0.76897 -1.78327 0
M  V30 602 C 56.3938 -1.74709 -3.00157 0
M  V30 603 C 55.3478 -2.89581 -3.15162 0
M  V30 604 C 54.6738 -2.80903 -4.5497 0
M  V30 605 C 55.9738 -4.30578 -2.95634 0
M  V30 606 H 57.6678 -2.61493 -1.45814 0
M  V30 607 H 55.2138 -1.25838 -0.70005 0
M  V30 608 H 57.1668 -1.86748 -3.77761 0
M  V30 609 H 55.8908 -0.783067 -3.17074 0
M  V30 610 H 54.5498 -2.77136 -2.39982 0
M  V30 611 H 54.1978 -1.82419 -4.68756 0
M  V30 612 H 53.8978 -3.57999 -4.65951 0
M  V30 613 H 55.4218 -2.94944 -5.34641 0
M  V30 614 H 56.8358 -4.4373 -3.63011 0
M  V30 615 H 55.2328 -5.0886 -3.18091 0
M  V30 616 H 56.3028 -4.45352 -1.91806 0
M  V30 617 N 57.6459 0.756429 -1.3826 0
M  V30 618 C 58.8949 1.51082 -1.3363 0
M  V30 619 C 59.2079 1.95467 0.0720068 0
M  V30 620 O 60.4139 2.7043 0.240834 0
M  V30 621 C 58.8699 2.72893 -2.34644 0
M  V30 622 C 58.4779 2.35544 -3.81081 0
M  V30 623 C 60.2219 3.50791 -2.39052 0
M  V30 624 C 58.1289 3.53948 -4.73787 0
M  V30 625 H 57.0589 0.56727 -0.49671 0
M  V30 626 H 59.7099 0.827147 -1.638 0
M  V30 627 H 58.0919 3.43227 -1.97513 0
M  V30 628 H 59.2659 1.72894 -4.27135 0
M  V30 629 H 57.5809 1.70786 -3.79764 0
M  V30 630 H 60.1779 4.38823 -3.05513 0
M  V30 631 H 60.5209 3.91745 -1.40861 0
M  V30 632 H 61.0539 2.87467 -2.74968 0
M  V30 633 H 57.7929 3.18064 -5.73163 0
M  V30 634 H 57.3129 4.15651 -4.32428 0
M  V30 635 H 58.9919 4.20566 -4.91663 0
M  V30 636 N 59.124 1.23083 0.984299 0
M  V30 637 C 60.349 1.088 1.76571 0
M  V30 638 C 60.774 -0.356657 1.84688 0
M  V30 639 O 60.132 -1.25788 1.30565 0
M  V30 640 C 60.18 1.71371 3.17277 0
M  V30 641 O 59.284 0.973213 4.00752 0
M  V30 642 H 58.625 0.381599 0.543395 0
M  V30 643 H 61.155 1.63057 1.23587 0
M  V30 644 H 61.165 1.76449 3.67872 0
M  V30 645 H 59.84 2.76493 3.10684 0
M  V30 646 H 58.417 0.999078 3.59267 0
M  V30 647 N 60.6021 -1.18246 1.0419 0
M  V30 648 C 61.8271 -1.92736 0.765996 0
M  V30 649 C 62.2521 -1.75728 -0.67091 0
M  V30 650 O 61.6101 -1.06825 -1.46486 0
M  V30 651 C 61.6581 -3.42148 1.13875 0
M  V30 652 O 60.7621 -4.11548 0.264954 0
M  V30 653 H 60.1031 -0.601238 0.281797 0
M  V30 654 H 62.6331 -1.49942 1.39207 0
M  V30 655 H 62.6431 -3.92858 1.1012 0
M  V30 656 H 61.3181 -3.53848 2.18551 0
M  V30 657 H 59.8951 -3.71137 0.362226 0
M  V30 658 N 62.0802 -0.821533 -1.34494 0
M  V30 659 C 63.0282 -0.230702 -2.31453 0
M  V30 660 C 64.0222 0.627793 -1.57338 0
M  V30 661 O 65.2282 0.519288 -1.72347 0
M  V30 662 H 61.6032 -0.0558577 -0.749923 0
M  V30 663 H 63.5742 -1.06332 -2.78812 0
M  V30 664 C 62.3232 0.59391 -3.4259 0
M  V30 665 H 61.6462 -0.0573588 -3.99759 0
M  V30 666 H 63.0862 0.973446 -4.12674 0
M  V30 667 C 61.5452 1.76568 -2.86924 0
M  V30 668 O 62.0752 2.8638 -2.81691 0
M  V30 669 N 60.2812 1.58198 -2.43766 0
M  V30 670 H 59.8282 0.68872 -2.48222 0
M  V30 671 H 59.7862 2.36752 -2.06871 0
M  V30 672 N 63.5583 1.46682 -0.576371 0
M  V30 673 C 64.8063 2.02013 -0.0594163 0
M  V30 674 C 65.1273 1.45101 1.30271 0
M  V30 675 O 64.3973 0.633317 1.8538 0
M  V30 676 H 62.9773 0.746759 -0.0189745 0
M  V30 677 H 65.6393 1.79862 -0.750717 0
M  V30 678 H 64.7353 3.12097 0.014345 0
M  V30 679 N 65.0364 0.313813 1.54444 0
M  V30 680 C 66.2854 -0.292519 1.99568 0
M  V30 681 C 66.5984 -1.54011 1.20582 0
M  V30 682 O 67.8044 -2.22183 1.56035 0
M  V30 683 C 66.2604 -0.571752 3.55329 0
M  V30 684 C 65.8684 0.658229 4.43138 0
M  V30 685 C 67.6124 -1.13857 4.08946 0
M  V30 686 C 65.5194 0.351439 5.90355 0
M  V30 687 H 64.4494 -0.113079 0.745472 0
M  V30 688 H 67.1004 0.424518 1.78522 0
M  V30 689 H 65.4824 -1.34872 3.72325 0
M  V30 690 H 66.6564 1.43403 4.37918 0
M  V30 691 H 64.9714 1.14458 4.0036 0
M  V30 692 H 67.5684 -1.38257 5.16516 0
M  V30 693 H 67.9114 -2.08489 3.6033 0
M  V30 694 H 68.4444 -0.423015 3.95544 0
M  V30 695 H 65.1834 1.26667 6.43145 0
M  V30 696 H 64.7034 -0.386842 5.98551 0
M  V30 697 H 66.3824 -0.0423134 6.46986 0
M  V30 698 N 66.5145 -1.57545 0.0417849 0
M  V30 699 C 67.7635 -1.91494 -0.633492 0
M  V30 700 C 68.0765 -0.921084 -1.72556 0
M  V30 701 O 69.2825 -1.15228 -2.45835 0
M  V30 702 C 67.7385 -3.40072 -1.17808 0
M  V30 703 C 67.3465 -4.47843 -0.118633 0
M  V30 704 C 69.0905 -3.8307 -1.82915 0
M  V30 705 C 66.9975 -5.87529 -0.675578 0
M  V30 706 H 65.9275 -0.714653 -0.24039 0
M  V30 707 H 68.5785 -1.83175 0.109148 0
M  V30 708 H 66.9605 -3.43364 -1.97274 0
M  V30 709 H 68.1345 -4.56128 0.654494 0
M  V30 710 H 66.4495 -4.14128 0.434414 0
M  V30 711 H 69.0465 -4.84794 -2.25563 0
M  V30 712 H 69.3895 -3.1881 -2.67705 0
M  V30 713 H 69.9225 -3.82255 -1.10119 0
M  V30 714 H 66.6615 -6.55362 0.134475 0
M  V30 715 H 66.1815 -5.82824 -1.4169 0
M  V30 716 H 67.8605 -6.36491 -1.1614 0
M  V30 717 N 67.9926 0.231505 -1.5589 0
M  V30 718 C 69.2176 0.978689 -1.82856 0
M  V30 719 C 69.6426 1.77559 -0.620846 0
M  V30 720 O 69.0006 1.76119 0.430305 0
M  V30 721 C 69.0486 1.87997 -3.07716 0
M  V30 722 O 68.1526 2.97393 -2.85712 0
M  V30 723 H 67.4936 0.277663 -0.603158 0
M  V30 724 H 70.0236 0.24783 -2.03093 0
M  V30 725 H 70.0336 2.2917 -3.37558 0
M  V30 726 H 68.7086 1.29417 -3.95252 0
M  V30 727 H 67.2856 2.60238 -2.67078 0
M  V30 728 N 69.4707 1.49531 0.497807 0
M  V30 729 C 70.6957 1.63159 1.28039 0
M  V30 730 C 71.1207 0.30418 1.85624 0
M  V30 731 O 70.4787 -0.728618 1.66015 0
M  V30 732 C 70.5267 2.70537 2.38416 0
M  V30 733 O 69.6307 2.29931 3.42353 0
M  V30 734 H 68.9717 0.546001 0.377861 0
M  V30 735 H 71.5017 1.9574 0.59558 0
M  V30 736 H 71.5117 2.92802 2.84132 0
M  V30 737 H 70.1867 3.6689 1.95869 0
M  V30 738 H 68.7637 2.18009 3.02533 0
M  V30 739 N 70.9488 -0.749086 1.3866 0
M  V30 740 C 72.3648 -1.05276 1.19955 0
M  V30 741 C 72.5648 -2.01435 0.05134 0
M  V30 742 O 71.6208 -2.45232 -0.60147 0
M  V30 743 C 72.9338 -1.62853 2.52783 0
M  V30 744 C 74.4818 -1.75002 2.59506 0
M  V30 745 C 74.9568 -2.35991 3.92521 0
M  V30 746 N 76.4478 -2.43416 3.94085 0
M  V30 747 C 77.1828 -2.91511 4.9377 0
M  V30 748 N 76.6788 -3.39608 6.03853 0
M  V30 749 N 78.4718 -2.90592 4.81157 0
M  V30 750 H 70.6228 -0.111066 2.12109 0
M  V30 751 H 72.8858 -0.111901 0.941373 0
M  V30 752 H 72.5918 -0.99664 3.37283 0
M  V30 753 H 72.4658 -2.61854 2.715 0
M  V30 754 H 74.8528 -2.37317 1.75398 0
M  V30 755 H 74.9338 -0.74693 2.44652 0
M  V30 756 H 74.5778 -1.74308 4.77053 0
M  V30 757 H 74.5078 -3.3695 4.04688 0
M  V30 758 H 76.9988 -2.09405 3.14576 0
M  V30 759 H 77.3118 -3.74775 6.75843 0
M  V30 760 H 75.6568 -3.37653 6.07466 0
M  V30 761 H 78.8478 -2.52332 3.94267 0
M  V30 762 H 79.0208 -3.27762 5.58996 0
M  V30 763 N 72.4269 -1.23603 -0.977757 0
M  V30 764 C 73.3569 -1.04401 -2.0886 0
M  V30 765 C 74.3379 0.0399052 -1.70053 0
M  V30 766 O 75.5229 -0.125246 -1.93796 0
M  V30 767 C 72.6529 -0.637269 -3.41403 0
M  V30 768 C 71.6069 -1.66883 -3.94124 0
M  V30 769 C 70.9329 -1.11745 -5.22893 0
M  V30 770 C 72.2329 -3.06247 -4.23096 0
M  V30 771 H 73.9269 -1.97316 -2.25182 0
M  V30 772 H 71.4729 -0.950096 -1.08209 0
M  V30 773 H 73.4259 -0.48998 -4.18542 0
M  V30 774 H 72.1499 0.327557 -3.24953 0
M  V30 775 H 70.8089 -1.80416 -3.19133 0
M  V30 776 H 70.4569 -0.143527 -5.02795 0
M  V30 777 H 70.1569 -1.80672 -5.59134 0
M  V30 778 H 71.6809 -0.982067 -6.02651 0
M  V30 779 H 73.0949 -2.96001 -4.90975 0
M  V30 780 H 71.4919 -3.72436 -4.70544 0
M  V30 781 H 72.5619 -3.55041 -3.30263 0
M  V30 782 N 73.905 1.17692 -1.04816 0
M  V30 783 C 74.868 2.19787 -0.650117 0
M  V30 784 C 75.868 1.58044 0.296427 0
M  V30 785 O 77.058 1.74012 0.0808097 0
M  V30 786 C 74.19 3.40869 0.0456987 0
M  V30 787 H 75.383 2.56516 -1.5537 0
M  V30 788 H 72.936 1.31708 -0.841594 0
M  V30 789 H 73.671 3.09681 0.962726 0
M  V30 790 H 73.456 3.86928 -0.634727 0
M  V30 791 H 74.946 4.16445 0.310432 0
M  V30 792 N 75.3831 0.828654 1.34056 0
M  V30 793 C 76.6311 0.41863 1.97717 0
M  V30 794 C 76.9521 -1.02314 1.66002 0
M  V30 795 O 76.2221 -1.71119 0.953683 0
M  V30 796 H 74.8021 0.151809 0.731412 0
M  V30 797 H 77.4641 1.05936 1.63596 0
M  V30 798 H 76.5601 0.542318 3.07352 0
M  V30 799 N 76.8612 -1.46375 0.584142 0
M  V30 800 C 77.8082 -2.30323 -0.148286 0
M  V30 801 C 78.7782 -1.40703 -0.882713 0
M  V30 802 O 79.9632 -1.69651 -0.873099 0
M  V30 803 C 77.1032 -3.25196 -1.15507 0
M  V30 804 C 76.2162 -4.29915 -0.423943 0
M  V30 805 C 75.3512 -5.11914 -1.41838 0
M  V30 806 C 74.3902 -6.08381 -0.673736 0
M  V30 807 N 73.5272 -6.83242 -1.6163 0
M  V30 808 H 78.3672 -2.92427 0.573644 0
M  V30 809 H 75.9042 -1.44118 0.294703 0
M  V30 810 H 77.8622 -3.78646 -1.75166 0
M  V30 811 H 76.4922 -2.64898 -1.8447 0
M  V30 812 H 75.5442 -3.7931 0.287714 0
M  V30 813 H 76.8562 -4.98549 0.158128 0
M  V30 814 H 76.0102 -5.69648 -2.08773 0
M  V30 815 H 74.7492 -4.43243 -2.03438 0
M  V30 816 H 73.7542 -5.49799 0.00938483 0
M  V30 817 H 74.9792 -6.79071 -0.0631082 0
M  V30 818 H 72.9252 -6.1728 -2.22038 0
M  V30 819 H 72.8422 -7.48144 -1.08707 0
M  V30 820 H 74.1102 -7.45534 -2.27596 0
M  V30 821 N 78.3393 -0.321999 -1.54275 0
M  V30 822 C 79.2693 0.537411 -2.27231 0
M  V30 823 C 80.2503 1.12064 -1.27968 0
M  V30 824 O 81.4353 1.14606 -1.56777 0
M  V30 825 C 78.5653 1.69919 -3.02894 0
M  V30 826 C 77.5193 1.24534 -4.09482 0
M  V30 827 C 76.8453 2.49394 -4.72977 0
M  V30 828 C 78.1453 0.361335 -5.21049 0
M  V30 829 H 79.8393 -0.0711406 -2.99315 0
M  V30 830 H 77.3853 -0.0356555 -1.43956 0
M  V30 831 H 79.3383 2.30668 -3.52662 0
M  V30 832 H 78.0623 2.33431 -2.28424 0
M  V30 833 H 76.7213 0.660782 -3.60596 0
M  V30 834 H 76.3693 3.11265 -3.95124 0
M  V30 835 H 76.0693 2.19718 -5.44975 0
M  V30 836 H 77.5933 3.10908 -5.25517 0
M  V30 837 H 79.0073 0.875072 -5.66582 0
M  V30 838 H 77.4043 0.157428 -5.99893 0
M  V30 839 H 78.4743 -0.60822 -4.8107 0
M  V30 840 N 79.8174 1.5752 -0.0501392 0
M  V30 841 C 81.2334 1.56631 0.306402 0
M  V30 842 C 81.4334 1.0577 1.71508 0
M  V30 843 O 80.4894 0.713837 2.422 0
M  V30 844 C 81.8024 3.00393 0.135811 0
M  V30 845 C 83.3504 3.12315 0.206993 0
M  V30 846 C 83.8254 4.57954 0.064944 0
M  V30 847 N 85.3164 4.63041 0.121254 0
M  V30 848 C 86.0514 5.73389 0.0354381 0
M  V30 849 N 85.5474 6.92724 -0.102666 0
M  V30 850 N 87.3404 5.62026 0.090946 0
M  V30 851 H 79.4914 1.88903 -0.971046 0
M  V30 852 H 81.7544 0.869876 -0.376855 0
M  V30 853 H 81.4604 3.41635 -0.835384 0
M  V30 854 H 81.3344 3.66373 0.897275 0
M  V30 855 H 83.7214 2.70973 1.16866 0
M  V30 856 H 83.8024 2.49016 -0.585208 0
M  V30 857 H 83.4464 4.99981 -0.893394 0
M  V30 858 H 83.3764 5.19258 0.876277 0
M  V30 859 H 85.8674 3.77216 0.227284 0
M  V30 860 H 86.1804 7.72633 -0.160882 0
M  V30 861 H 84.5254 6.94864 -0.137737 0
M  V30 862 H 87.7164 4.67684 0.197388 0
M  V30 863 H 87.8894 6.47997 0.0206089 0
M  V30 864 N 81.2955 -0.223234 1.56011 0
M  V30 865 C 82.5255 -0.963413 1.82762 0
M  V30 866 C 82.9335 -1.78516 0.626804 0
M  V30 867 O 82.2765 -1.78974 -0.414014 0
M  V30 868 C 82.3385 -1.93126 3.0322 0
M  V30 869 C 82.0025 -1.2942 4.38291 0
M  V30 870 C 82.9995 -0.684916 5.15369 0
M  V30 871 C 80.6845 -1.30647 4.85012 0
M  V30 872 C 82.6785 -0.0963971 6.37327 0
M  V30 873 C 80.3655 -0.71411 6.06913 0
M  V30 874 C 81.3635 -0.110123 6.82911 0
M  V30 875 O 81.0515 0.47303 8.02507 0
M  V30 876 H 80.7835 -0.288011 0.611576 0
M  V30 877 H 83.3375 -0.244103 2.03944 0
M  V30 878 H 81.5675 -2.68952 2.77852 0
M  V30 879 H 83.2565 -2.53685 3.16857 0
M  V30 880 H 84.0225 -0.667774 4.80381 0
M  V30 881 H 79.9015 -1.76598 4.25833 0
M  V30 882 H 83.4455 0.375657 6.96588 0
M  V30 883 H 79.3425 -0.728659 6.41374 0
M  V30 884 H 80.1105 0.367186 8.17676 0
M  V30 885 N 82.7736 -1.49793 -0.48987 0
M  V30 886 C 83.7066 -1.61898 -1.60823 0
M  V30 887 C 84.6846 -0.467651 -1.5573 0
M  V30 888 O 85.8686 -0.684682 -1.75626 0
M  V30 889 C 82.9956 -1.58422 -2.99366 0
M  V30 890 C 82.0416 -2.78889 -3.22682 0
M  V30 891 S 82.8746 -4.40429 -3.04602 0
M  V30 892 C 84.0306 -4.39617 -4.4552 0
M  V30 893 H 84.2636 -2.56502 -1.50312 0
M  V30 894 H 81.7966 -1.38822 -0.675849 0
M  V30 895 H 83.7546 -1.57103 -3.79248 0
M  V30 896 H 82.4156 -0.650866 -3.07283 0
M  V30 897 H 81.6086 -2.72708 -4.23847 0
M  V30 898 H 81.2106 -2.77678 -2.50541 0
M  V30 899 H 83.5026 -4.12022 -5.37814 0
M  V30 900 H 84.4456 -5.41097 -4.56749 0
M  V30 901 H 84.8536 -3.69554 -4.2672 0
M  V30 902 N 84.2517 0.741722 -1.39055 0
M  V30 903 C 85.5287 1.49252 -1.26425 0
M  V30 904 C 85.9087 2.10705 0.129144 0
M  V30 905 O 85.2567 1.98045 1.13976 0
M  V30 906 C 85.4667 2.54934 -2.38347 0
M  V30 907 C 86.8147 3.21506 -2.77343 0
M  V30 908 O 87.8387 2.65245 -2.37747 0
M  V30 909 O 86.6977 4.23294 -3.45665 0
M  V30 910 H 83.7917 0.662451 -0.495064 0
M  V30 911 H 86.3377 0.776121 -1.50912 0
M  V30 912 H 85.1097 2.07857 -3.31529 0
M  V30 913 H 84.7327 3.34141 -2.15489 0
M  V30 914 N 85.7298 1.2412 0.971189 0
M  V30 915 C 86.9548 1.10667 1.75407 0
M  V30 916 C 87.3798 -0.337048 1.85056 0
M  V30 917 O 86.7378 -1.24396 1.31892 0
M  V30 918 C 86.7858 1.74726 3.15441 0
M  V30 919 O 85.8898 1.01566 3.99697 0
M  V30 920 H 85.2308 0.387341 0.539317 0
M  V30 921 H 87.7608 1.64358 1.2185 0
M  V30 922 H 87.7708 1.80341 3.6598 0
M  V30 923 H 86.4458 2.79773 3.07734 0
M  V30 924 H 85.0228 1.03713 3.58187 0
M  V30 925 N 87.2079 -1.17134 1.05439 0
M  V30 926 C 88.6239 -1.39454 0.776201 0
M  V30 927 C 88.8239 -1.91454 -0.628307 0
M  V30 928 O 87.8799 -2.10777 -1.39031 0
M  V30 929 C 89.1929 -2.38305 1.83388 0
M  V30 930 C 90.7409 -2.52006 1.85639 0
M  V30 931 C 91.2159 -3.54133 2.90437 0
M  V30 932 N 92.7069 -3.61653 2.89415 0
M  V30 933 C 93.4419 -4.4044 3.67152 0
M  V30 934 N 92.9379 -5.22721 4.54681 0
M  V30 935 N 94.7309 -4.35337 3.55581 0
M  V30 936 H 86.8819 -0.817134 1.96053 0
M  V30 937 H 89.1449 -0.421626 0.849079 0
M  V30 938 H 88.8509 -2.07173 2.84204 0
M  V30 939 H 88.7249 -3.37841 1.67761 0
M  V30 940 H 91.1119 -2.82447 0.85486 0
M  V30 941 H 91.1929 -1.52537 2.05344 0
M  V30 942 H 90.8369 -3.24431 3.90777 0
M  V30 943 H 90.7669 -4.53313 2.67983 0
M  V30 944 H 93.2579 -3.02909 2.25952 0
M  V30 945 H 93.5709 -5.80027 5.10674 0
M  V30 946 H 91.9159 -5.22093 4.58741 0
M  V30 947 H 95.1069 -3.70112 2.86592 0
M  V30 948 H 95.2799 -4.96494 4.1641 0
M  V30 949 N 88.686 -0.835752 -1.33615 0
M  V30 950 C 89.596 -0.269088 -2.33052 0
M  V30 951 C 90.612 0.603251 -1.63208 0
M  V30 952 O 91.788 0.508112 -1.94885 0
M  V30 953 C 88.853 0.549091 -3.42324 0
M  V30 954 C 87.914 -0.347156 -4.27894 0
M  V30 955 C 87.147 0.43207 -5.31948 0
M  V30 956 O 87.37 1.66409 -5.45586 0
M  V30 957 O 86.304 -0.192298 -6.01593 0
M  V30 958 H 90.13 -1.09243 -2.83372 0
M  V30 959 H 87.715 -0.598198 -1.36901 0
M  V30 960 H 89.597 1.01414 -4.09015 0
M  V30 961 H 88.272 1.34955 -2.94226 0
M  V30 962 H 87.179 -0.859979 -3.64081 0
M  V30 963 H 88.512 -1.1123 -4.79467 0
M  V30 964 N 90.1641 1.46063 -0.591896 0
M  V30 965 C 91.4411 1.95595 -0.0137119 0
M  V30 966 C 91.8211 1.5345 1.4497 0
M  V30 967 O 91.1691 0.789543 2.14426 0
M  V30 968 C 91.3791 3.48453 -0.195373 0
M  V30 969 C 92.7271 4.24546 -0.0679765 0
M  V30 970 O 93.7511 3.55982 -0.124681 0
M  V30 971 O 92.6101 5.46467 0.0600579 0
M  V30 972 H 89.7041 0.825795 0.0446279 0
M  V30 973 H 92.2501 1.56303 -0.660859 0
M  V30 974 H 91.0221 3.72045 -1.21235 0
M  V30 975 H 90.6451 3.94597 0.487775 0
M  V30 976 N 91.6422 0.330177 1.54103 0
M  V30 977 C 92.5522 -0.541534 2.28264 0
M  V30 978 C 93.5682 -1.12351 1.32866 0
M  V30 979 O 94.7442 -1.14206 1.65888 0
M  V30 980 C 91.8092 -1.68322 3.03098 0
M  V30 981 C 90.8702 -1.13238 4.14096 0
M  V30 982 C 90.1032 -2.21966 4.85352 0
M  V30 983 O 90.3262 -3.42437 4.56172 0
M  V30 984 O 89.2602 -1.87013 5.7211 0
M  V30 985 H 93.0862 0.060938 3.03639 0
M  V30 986 H 90.6712 0.09565 1.49093 0
M  V30 987 H 92.5532 -2.34777 3.49939 0
M  V30 988 H 91.2282 -2.27176 2.30593 0
M  V30 989 H 90.1352 -0.432736 3.71589 0
M  V30 990 H 91.4682 -0.588898 4.88664 0
M  V30 991 N 93.1203 -1.57491 0.0584922 0
M  V30 992 C 94.0523 -2.08916 -0.942694 0
M  V30 993 C 95.0653 -1.0185 -1.27006 0
M  V30 994 O 96.2543 -1.29398 -1.22957 0
M  V30 995 C 93.3543 -2.52341 -2.26224 0
M  V30 996 C 92.5273 -3.82827 -2.1157 0
M  V30 997 C 91.5863 -4.12487 -3.26712 0
M  V30 998 O 90.6123 -4.82295 -3.02292 0
M  V30 999 N 91.8143 -3.64978 -4.5141 0
M  V30 1000 H 94.5793 -2.95437 -0.503722 0
M  V30 1001 H 92.1403 -1.61397 -0.12757 0
M  V30 1002 H 94.1323 -2.69254 -3.02133 0
M  V30 1003 H 92.7023 -1.7103 -2.61663 0
M  V30 1004 H 91.9223 -3.75425 -1.20208 0
M  V30 1005 H 93.2103 -4.68263 -1.99015 0
M  V30 1006 H 92.6083 -3.08558 -4.7414 0
M  V30 1007 H 91.1653 -3.87115 -5.2439 0
M  V30 1008 N 94.5984 0.214957 -1.56127 0
M  V30 1009 C 95.8474 0.936451 -1.78643 0
M  V30 1010 C 96.1604 1.85237 -0.628229 0
M  V30 1011 O 97.3664 2.613 -0.737186 0
M  V30 1012 C 95.8224 1.7154 -3.16389 0
M  V30 1013 C 95.4304 0.845299 -4.39953 0
M  V30 1014 C 97.1744 2.42772 -3.48227 0
M  V30 1015 C 95.0814 1.62198 -5.68723 0
M  V30 1016 H 94.0114 0.353401 -0.666051 0
M  V30 1017 H 96.6624 0.190169 -1.82512 0
M  V30 1018 H 95.0444 2.50484 -3.06715 0
M  V30 1019 H 96.2184 0.0959353 -4.607 0
M  V30 1020 H 94.5334 0.244789 -4.1568 0
M  V30 1021 H 97.1304 3.01394 -4.41663 0
M  V30 1022 H 97.4734 3.15984 -2.71035 0
M  V30 1023 H 98.0064 1.70813 -3.5926 0
M  V30 1024 H 94.7454 0.933011 -6.48826 0
M  V30 1025 H 94.2654 2.34579 -5.52026 0
M  V30 1026 H 95.9444 2.18095 -6.09133 0
M  V30 1027 N 96.0765 1.50051 0.48192 0
M  V30 1028 C 97.4925 1.37237 0.814756 0
M  V30 1029 C 97.6925 0.420109 1.97072 0
M  V30 1030 O 96.7485 -0.141246 2.52105 0
M  V30 1031 C 98.0615 2.78375 1.13701 0
M  V30 1032 C 99.6095 2.87213 1.2441 0
M  V30 1033 C 100.084 4.29161 1.59954 0
M  V30 1034 N 101.575 4.32061 1.66967 0
M  V30 1035 C 102.31 5.38879 1.95952 0
M  V30 1036 N 101.806 6.55918 2.23031 0
M  V30 1037 N 103.599 5.26312 1.97363 0
M  V30 1038 H 95.7505 2.10546 -0.28005 0
M  V30 1039 H 98.0135 0.945921 -0.0627454 0
M  V30 1040 H 97.7195 3.49845 0.360787 0
M  V30 1041 H 97.5935 3.14941 2.07586 0
M  V30 1042 H 99.9805 2.15969 2.01101 0
M  V30 1043 H 100.061 2.54204 0.285299 0
M  V30 1044 H 99.7055 5.00938 0.838067 0
M  V30 1045 H 99.6355 4.59648 2.56966 0
M  V30 1046 H 102.126 3.47661 1.48123 0
M  V30 1047 H 102.439 7.33139 2.44391 0
M  V30 1048 H 100.784 6.59112 2.20447 0
M  V30 1049 H 103.975 4.33876 1.75697 0
M  V30 1050 H 104.148 6.09649 2.19618 0
M  V30 1051 N 97.5546 -0.734337 1.39446 0
M  V30 1052 C 98.8026 -1.49096 1.36436 0
M  V30 1053 C 99.1236 -1.94961 -0.0388255 0
M  V30 1054 O 98.3936 -1.69033 -0.990191 0
M  V30 1055 H 96.9736 -0.5531 0.502085 0
M  V30 1056 H 99.6356 -0.871725 1.74319 0
M  V30 1057 H 98.7316 -2.37276 2.02747 0
M  V30 1058 N 99.0327 -1.24633 -0.964593 0
M  V30 1059 C 100.282 -1.08188 -1.7023 0
M  V30 1060 C 100.595 0.37873 -1.91898 0
M  V30 1061 O 101.801 0.663427 -2.6327 0
M  V30 1062 C 100.257 -1.88773 -3.06419 0
M  V30 1063 C 99.8647 -3.39263 -2.92582 0
M  V30 1064 C 101.609 -1.80867 -3.84041 0
M  V30 1065 C 99.5157 -4.1218 -4.24101 0
M  V30 1066 H 98.4457 -0.401245 -0.638372 0
M  V30 1067 H 101.097 -1.48742 -1.07462 0
M  V30 1068 H 99.4787 -1.41035 -3.70034 0
M  V30 1069 H 100.653 -3.94603 -2.37961 0
M  V30 1070 H 98.9677 -3.48154 -2.28424 0
M  V30 1071 H 101.565 -2.32646 -4.81435 0
M  V30 1072 H 101.908 -0.774543 -4.09031 0
M  V30 1073 H 102.441 -2.26301 -3.27159 0
M  V30 1074 H 99.1797 -5.15965 -4.04303 0
M  V30 1075 H 98.6997 -3.61626 -4.78526 0
M  V30 1076 H 100.379 -4.19349 -4.92702 0
M  V30 1077 N 100.511 1.16574 -1.06058 0
M  V30 1078 C 101.739 1.90952 -0.796552 0
M  V30 1079 C 102.154 1.77302 0.648808 0
M  V30 1080 O 101.511 1.11605 1.44397 0
M  V30 1081 C 101.562 3.41736 -1.17894 0
M  V30 1082 O 101.283 3.54975 -2.56758 0
M  V30 1083 C 102.784 4.33169 -0.942308 0
M  V30 1084 H 100.004 0.605594 -0.288959 0
M  V30 1085 H 102.548 1.47777 -1.41358 0
M  V30 1086 H 100.703 3.82623 -0.606491 0
M  V30 1087 H 101.117 4.4846 -2.72 0
M  V30 1088 H 102.591 5.37439 -1.25952 0
M  V30 1089 H 103.068 4.3903 0.122078 0
M  V30 1090 H 103.674 3.98007 -1.49902 0
M  V30 1091 N 101.989 0.842826 1.3317 0
M  V30 1092 C 102.922 0.223862 2.27099 0
M  V30 1093 C 103.9 -0.631311 1.49844 0
M  V30 1094 O 105.084 -0.590708 1.79005 0
M  V30 1095 C 102.211 -0.685313 3.31694 0
M  V30 1096 C 101.257 0.094919 4.26394 0
M  V30 1097 S 102.09 1.45546 5.15341 0
M  V30 1098 C 103.246 0.551685 6.23464 0
M  V30 1099 H 103.479 1.02015 2.79249 0
M  V30 1100 H 101.012 0.639797 1.4052 0
M  V30 1101 H 102.97 -1.20426 3.92438 0
M  V30 1102 H 101.631 -1.4553 2.78352 0
M  V30 1103 H 100.824 -0.597059 5.00451 0
M  V30 1104 H 100.426 0.545054 3.70007 0
M  V30 1105 H 102.718 -0.248877 6.77043 0
M  V30 1106 H 103.661 1.26253 6.96754 0
M  V30 1107 H 104.069 0.131275 5.64347 0
M  V30 1108 N 103.467 -1.45747 0.599634 0
M  V30 1109 C 104.414 -2.30467 -0.123849 0
M  V30 1110 C 105.384 -1.41632 -0.86774 0
M  V30 1111 O 106.569 -1.70568 -0.855056 0
M  V30 1112 C 103.709 -3.26402 -1.12051 0
M  V30 1113 C 102.822 -4.3034 -0.37832 0
M  V30 1114 C 101.957 -5.13389 -1.364 0
M  V30 1115 C 100.996 -6.09061 -0.609171 0
M  V30 1116 N 100.133 -6.84918 -1.54374 0
M  V30 1117 H 104.973 -2.91802 0.604627 0
M  V30 1118 H 102.51 -1.43797 0.309972 0
M  V30 1119 H 104.468 -3.80482 -1.7114 0
M  V30 1120 H 103.098 -2.66839 -1.8165 0
M  V30 1121 H 102.15 -3.78984 0.327929 0
M  V30 1122 H 103.462 -4.98354 0.210997 0
M  V30 1123 H 102.616 -5.7183 -2.02719 0
M  V30 1124 H 101.355 -4.45376 -1.98725 0
M  V30 1125 H 100.36 -5.49758 0.0676979 0
M  V30 1126 H 101.585 -6.79099 0.00891991 0
M  V30 1127 H 99.531 -6.19601 -2.15478 0
M  V30 1128 H 99.448 -7.49254 -1.00766 0
M  V30 1129 H 100.716 -7.47906 -2.19676 0
M  V30 1130 N 104.945 -0.338344 -1.53925 0
M  V30 1131 C 106.17 0.263987 -2.05713 0
M  V30 1132 C 106.595 1.43847 -1.21201 0
M  V30 1133 O 105.953 1.79904 -0.224535 0
M  V30 1134 C 106.001 0.662 -3.54471 0
M  V30 1135 O 105.105 1.76265 -3.72833 0
M  V30 1136 H 104.446 0.0448722 -0.662482 0
M  V30 1137 H 106.976 -0.491048 -1.9862 0
M  V30 1138 H 106.986 0.940594 -3.9701 0
M  V30 1139 H 105.661 -0.196937 -4.15433 0
M  V30 1140 H 104.238 1.48173 -3.42198 0
M  V30 1141 N 106.423 1.57458 -0.0668435 0
M  V30 1142 C 107.648 1.9804 0.616027 0
M  V30 1143 C 108.073 0.944771 1.62652 0
M  V30 1144 O 107.431 -0.0902094 1.81075 0
M  V30 1145 C 107.479 3.37665 1.26549 0
M  V30 1146 O 106.583 3.36701 2.38131 0
M  V30 1147 H 105.924 0.644719 0.158849 0
M  V30 1148 H 108.454 2.04121 -0.139891 0
M  V30 1149 H 108.464 3.7474 1.6135 0
M  V30 1150 H 107.139 4.12573 0.525016 0
M  V30 1151 H 105.716 3.1139 2.0516 0
M  V30 1152 N 107.901 -0.206675 1.56239 0
M  V30 1153 C 108.864 -1.23976 1.92776 0
M  V30 1154 C 109.864 -1.39041 0.807729 0
M  V30 1155 O 111.054 -1.37051 1.0753 0
M  V30 1156 C 108.186 -2.61112 2.19165 0
M  V30 1157 H 109.379 -0.927764 2.85189 0
M  V30 1158 H 106.932 -0.447718 1.4975 0
M  V30 1159 H 107.667 -2.97386 1.29352 0
M  V30 1160 H 107.452 -2.51552 3.00772 0
M  V30 1161 H 108.942 -3.35633 2.48476 0
M  V30 1162 N 109.379 -1.50304 -0.473955 0
M  V30 1163 C 110.628 -1.60392 -1.22301 0
M  V30 1164 C 110.941 -0.308411 -1.93153 0
M  V30 1165 O 112.147 -0.288156 -2.69966 0
M  V30 1166 C 110.603 -2.83109 -2.2221 0
M  V30 1167 C 110.211 -4.19524 -1.57173 0
M  V30 1168 C 111.955 -3.0254 -2.97775 0
M  V30 1169 C 109.862 -5.33431 -2.55353 0
M  V30 1170 H 108.792 -0.597286 -0.460179 0
M  V30 1171 H 111.443 -1.76731 -0.493803 0
M  V30 1172 H 109.825 -2.60322 -2.9841 0
M  V30 1173 H 110.999 -4.52554 -0.867824 0
M  V30 1174 H 109.314 -4.05674 -0.939002 0
M  V30 1175 H 111.911 -3.84811 -3.71248 0
M  V30 1176 H 112.254 -2.14154 -3.56992 0
M  V30 1177 H 112.787 -3.25494 -2.28688 0
M  V30 1178 H 109.526 -6.23962 -2.00878 0
M  V30 1179 H 109.046 -5.04823 -3.23904 0
M  V30 1180 H 110.725 -5.63887 -3.17239 0
M  V30 1181 N 110.857 0.726932 -1.39834 0
M  V30 1182 C 112.082 1.52121 -1.40976 0
M  V30 1183 C 112.507 1.88098 -0.00826029 0
M  V30 1184 O 111.865 1.52479 0.980807 0
M  V30 1185 C 111.913 2.78021 -2.29644 0
M  V30 1186 O 111.017 3.74272 -1.73188 0
M  V30 1187 H 110.358 0.45908 -0.479731 0
M  V30 1188 H 112.888 0.896207 -1.83927 0
M  V30 1189 H 112.898 3.26671 -2.44438 0
M  V30 1190 H 111.573 2.51169 -3.31492 0
M  V30 1191 H 110.15 3.33073 -1.6768 0
M  V30 1192 N 112.336 1.25143 0.95797 0
M  V30 1193 C 113.266 1.07711 2.07173 0
M  V30 1194 C 114.247 -0.0128462 1.70095 0
M  V30 1195 O 115.432 0.156061 1.93572 0
M  V30 1196 C 112.562 0.691503 3.40346 0
M  V30 1197 C 111.516 1.73132 3.9142 0
M  V30 1198 C 110.842 1.20049 5.21049 0
M  V30 1199 C 112.142 3.1294 4.1817 0
M  V30 1200 H 113.836 2.00873 2.22014 0
M  V30 1201 H 111.382 0.967191 1.06684 0
M  V30 1202 H 113.335 0.556505 4.17709 0
M  V30 1203 H 112.059 -0.275819 3.25433 0
M  V30 1204 H 110.718 1.8547 3.16222 0
M  V30 1205 H 110.366 0.223499 5.02503 0
M  V30 1206 H 110.066 1.89545 5.56189 0
M  V30 1207 H 111.59 1.07782 6.01012 0
M  V30 1208 H 113.004 3.03775 4.86203 0
M  V30 1209 H 111.401 3.79875 4.64559 0
M  V30 1210 H 112.471 3.6025 3.24573 0
M  V30 1211 N 113.814 -1.1601 1.06675 0
M  V30 1212 C 114.764 -2.18512 0.650888 0
M  V30 1213 C 115.748 -1.57677 -0.320441 0
M  V30 1214 O 116.94 -1.76482 -0.135266 0
M  V30 1215 C 114.069 -3.43273 0.0429255 0
M  V30 1216 C 113.155 -4.11176 1.03898 0
M  V30 1217 N 113.546 -4.54672 2.216 0
M  V30 1218 C 111.844 -4.37417 0.870779 0
M  V30 1219 C 112.545 -5.07248 2.84736 0
M  V30 1220 N 111.521 -5.0037 2.12441 0
M  V30 1221 H 115.323 -2.49863 1.54745 0
M  V30 1222 H 112.837 -1.32503 0.938975 0
M  V30 1223 H 114.834 -4.16006 -0.272857 0
M  V30 1224 H 113.494 -3.13408 -0.84884 0
M  V30 1225 H 114.505 -4.4828 2.59356 0
M  V30 1226 H 111.182 -4.17488 0.0313293 0
M  V30 1227 H 112.572 -5.50912 3.84636 0
M  V30 1228 N 115.292 -0.849877 -1.32721 0
M  V30 1229 C 116.522 -0.46408 -2.0132 0
M  V30 1230 C 116.93 0.94246 -1.64056 0
M  V30 1231 O 116.273 1.6257 -0.855379 0
M  V30 1232 C 116.335 -0.517887 -3.5575 0
M  V30 1233 C 115.999 -1.88248 -4.16427 0
M  V30 1234 C 116.996 -2.84726 -4.35002 0
M  V30 1235 C 114.681 -2.17832 -4.52609 0
M  V30 1236 C 116.675 -4.08945 -4.8892 0
M  V30 1237 C 114.362 -3.42304 -5.06232 0
M  V30 1238 C 115.36 -4.37677 -5.24335 0
M  V30 1239 O 115.048 -5.59946 -5.76815 0
M  V30 1240 H 114.78 -0.181327 -0.651227 0
M  V30 1241 H 117.334 -1.14713 -1.70382 0
M  V30 1242 H 115.564 0.221997 -3.86062 0
M  V30 1243 H 117.253 -0.148366 -4.05629 0
M  V30 1244 H 118.019 -2.63174 -4.07388 0
M  V30 1245 H 113.898 -1.44385 -4.37806 0
M  V30 1246 H 117.442 -4.83396 -5.02966 0
M  V30 1247 H 113.339 -3.63709 -5.33278 0
M  V30 1248 H 114.107 -5.61838 -5.95214 0
M  V30 1249 N 116.77 1.45427 -0.607355 0
M  V30 1250 C 117.733 2.28974 0.101693 0
M  V30 1251 C 118.733 1.39754 0.795329 0
M  V30 1252 O 119.923 1.61878 0.643527 0
M  V30 1253 C 117.055 3.20768 1.15414 0
M  V30 1254 H 118.248 2.93147 -0.632844 0
M  V30 1255 H 115.801 1.51945 -0.366391 0
M  V30 1256 H 116.536 2.61395 1.91945 0
M  V30 1257 H 116.321 3.86489 0.66098 0
M  V30 1258 H 117.811 3.83589 1.65073 0
M  V30 1259 N 118.248 0.346503 1.53744 0
M  V30 1260 C 119.476 -0.25041 2.05379 0
M  V30 1261 C 119.891 -1.43979 1.22129 0
M  V30 1262 O 119.248 -1.80677 0.257321 0
M  V30 1263 C 119.299 -0.662575 3.55376 0
M  V30 1264 O 119.02 0.479515 4.35468 0
M  V30 1265 C 120.521 -1.31989 4.23195 0
M  V30 1266 H 117.741 -0.0478198 0.669294 0
M  V30 1267 H 120.285 0.499346 1.9831 0
M  V30 1268 H 118.44 -1.36227 3.62658 0
M  V30 1269 H 118.854 0.15037 5.24284 0
M  V30 1270 H 120.328 -1.55902 5.29527 0
M  V30 1271 H 120.805 -2.27436 3.75725 0
M  V30 1272 H 121.411 -0.662154 4.20114 0
M  V30 1273 N 119.726 -1.57421 0.075193 0
M  V30 1274 C 120.974 -1.93236 -0.591974 0
M  V30 1275 C 121.295 -0.956241 -1.69944 0
M  V30 1276 O 120.565 -0.00494792 -1.95899 0
M  V30 1277 H 119.145 -0.713355 -0.22166 0
M  V30 1278 H 121.807 -1.9444 0.133848 0
M  V30 1279 H 120.903 -2.95131 -1.01509 0
M  V30 1280 N 121.204 0.198386 -1.56346 0
M  V30 1281 C 122.152 1.26538 -1.95169 0
M  V30 1282 C 123.146 1.47295 -0.836685 0
M  V30 1283 O 124.352 1.48195 -1.02167 0
M  V30 1284 H 120.727 0.424744 -0.620561 0
M  V30 1285 H 122.698 0.910904 -2.84157 0
M  V30 1286 C 121.447 2.6035 -2.30463 0
M  V30 1287 H 120.77 2.45192 -3.15786 0
M  V30 1288 H 122.21 3.33762 -2.61494 0
M  V30 1289 C 120.669 3.17096 -1.13806 0
M  V30 1290 O 121.199 3.99588 -0.41135 0
M  V30 1291 N 119.405 2.75795 -0.915736 0
M  V30 1292 H 118.952 2.08816 -1.50843 0
M  V30 1293 H 118.91 3.14101 -0.136979 0
M  V30 1294 N 122.682 1.50554 0.465978 0
M  V30 1295 C 123.592 1.72585 1.58907 0
M  V30 1296 C 124.608 0.60911 1.6299 0
M  V30 1297 O 125.784 0.88804 1.80765 0
M  V30 1298 C 122.849 1.81995 2.95091 0
M  V30 1299 C 121.91 3.05751 3.01355 0
M  V30 1300 C 121.143 3.14702 4.31043 0
M  V30 1301 O 121.366 2.30313 5.21835 0
M  V30 1302 O 120.3 4.07468 4.43005 0
M  V30 1303 H 124.126 2.67799 1.43239 0
M  V30 1304 H 121.711 1.34711 0.646013 0
M  V30 1305 H 123.593 1.90335 3.75966 0
M  V30 1306 H 122.268 0.899659 3.10947 0
M  V30 1307 H 121.175 3.02908 2.19539 0
M  V30 1308 H 122.508 3.97375 2.90437 0
M  V30 1309 N 124.16 -0.719506 1.40217 0
M  V30 1310 C 125.07 -1.86378 1.42479 0
M  V30 1311 C 126.086 -1.71073 0.317834 0
M  V30 1312 O 127.262 -1.93406 0.561794 0
M  V30 1313 C 124.327 -3.22136 1.28178 0
M  V30 1314 C 123.388 -3.49723 2.48982 0
M  V30 1315 C 122.621 -4.79004 2.35353 0
M  V30 1316 O 122.844 -5.53821 1.36524 0
M  V30 1317 O 121.778 -5.06839 3.2465 0
M  V30 1318 H 125.604 -1.87425 2.38968 0
M  V30 1319 H 123.189 -0.869405 1.21498 0
M  V30 1320 H 125.071 -4.03234 1.22395 0
M  V30 1321 H 123.746 -3.21825 0.347934 0
M  V30 1322 H 122.653 -2.6865 2.60342 0
M  V30 1323 H 123.986 -3.54828 3.41113 0
M  V30 1324 N 125.638 -1.25649 -0.95132 0
M  V30 1325 C 126.868 -1.13179 -1.72841 0
M  V30 1326 C 127.276 0.316827 -1.86528 0
M  V30 1327 O 126.619 1.22948 -1.3649 0
M  V30 1328 C 126.681 -1.71644 -3.15878 0
M  V30 1329 C 126.345 -3.20667 -3.25609 0
M  V30 1330 C 127.342 -4.17616 -3.09666 0
M  V30 1331 C 125.027 -3.6094 -3.49324 0
M  V30 1332 C 127.021 -5.52817 -3.17289 0
M  V30 1333 C 124.708 -4.96278 -3.56584 0
M  V30 1334 C 125.706 -5.92025 -3.40581 0
M  V30 1335 O 125.394 -7.24899 -3.47528 0
M  V30 1336 H 125.126 -0.395389 -0.54831 0
M  V30 1337 H 127.68 -1.66566 -1.20187 0
M  V30 1338 H 125.91 -1.12707 -3.69911 0
M  V30 1339 H 127.599 -1.54225 -3.75459 0
M  V30 1340 H 128.365 -3.87842 -2.91211 0
M  V30 1341 H 124.244 -2.86907 -3.6084 0
M  V30 1342 H 127.788 -6.2753 -3.04716 0
M  V30 1343 H 123.685 -5.25716 -3.74556 0
M  V30 1344 H 124.453 -7.33039 -3.64138 0
M  V30 1345 N 127.117 1.15442 -1.07289 0
M  V30 1346 C 128.047 2.22312 -0.714107 0
M  V30 1347 C 129.028 1.67467 0.298155 0
M  V30 1348 O 130.213 1.93445 0.171048 0
M  V30 1349 C 127.343 3.47124 -0.110448 0
M  V30 1350 C 126.297 4.14926 -1.04979 0
M  V30 1351 C 125.623 5.33807 -0.308924 0
M  V30 1352 C 126.923 4.64762 -2.38314 0
M  V30 1353 H 128.617 2.5258 -1.6076 0
M  V30 1354 H 126.163 1.21404 -0.77441 0
M  V30 1355 H 128.116 4.21124 0.152482 0
M  V30 1356 H 126.84 3.16187 0.81812 0
M  V30 1357 H 125.499 3.42866 -1.29764 0
M  V30 1358 H 125.147 4.99126 0.623084 0
M  V30 1359 H 124.847 5.80113 -0.935036 0
M  V30 1360 H 126.371 6.10576 -0.0537771 0
M  V30 1361 H 127.785 5.30292 -2.1786 0
M  V30 1362 H 126.182 5.21728 -2.96514 0
M  V30 1363 H 127.252 3.80434 -3.00663 0
M  V30 1364 N 128.595 0.856903 1.32268 0
M  V30 1365 C 129.844 0.457599 1.96441 0
M  V30 1366 C 130.157 -0.992426 1.68553 0
M  V30 1367 O 131.363 -1.49727 2.26482 0
M  V30 1368 C 129.819 0.767358 3.51624 0
M  V30 1369 C 129.427 2.23326 3.88367 0
M  V30 1370 C 131.171 0.435887 4.22256 0
M  V30 1371 C 129.078 2.48613 5.36606 0
M  V30 1372 H 128.008 0.167387 0.735185 0
M  V30 1373 H 130.659 1.048 1.5063 0
M  V30 1374 H 129.041 0.106367 3.95857 0
M  V30 1375 H 130.215 2.93623 3.55137 0
M  V30 1376 H 128.53 2.52948 3.30766 0
M  V30 1377 H 131.127 0.602202 5.31298 0
M  V30 1378 H 131.47 -0.622672 4.11617 0
M  V30 1379 H 132.003 1.05286 3.83614 0
M  V30 1380 H 128.742 3.53101 5.52268 0
M  V30 1381 H 128.262 1.82896 5.71235 0
M  V30 1382 H 129.941 2.32676 6.03714 0
M  V30 1383 N 130.073 -1.45103 0.615059 0
M  V30 1384 C 131.021 -2.32331 -0.111791 0
M  V30 1385 C 132.015 -1.46409 -0.852102 0
M  V30 1386 O 133.221 -1.62849 -0.766821 0
M  V30 1387 H 129.596 -0.749993 -0.0549072 0
M  V30 1388 H 131.567 -2.91407 0.642225 0
M  V30 1389 C 130.316 -3.3015 -1.09071 0
M  V30 1390 H 129.639 -3.96265 -0.530485 0
M  V30 1391 H 131.079 -3.93898 -1.56908 0
M  V30 1392 C 129.538 -2.57875 -2.168 0
M  V30 1393 O 130.068 -2.36567 -3.24652 0
M  V30 1394 N 128.274 -2.17884 -1.92289 0
M  V30 1395 H 127.821 -2.35413 -1.04587 0
M  V30 1396 H 127.779 -1.6985 -2.64572 0
M  V30 1397 N 131.551 -0.354651 -1.53558 0
M  V30 1398 C 132.481 0.489091 -2.2832 0
M  V30 1399 C 133.462 1.09324 -1.30316 0
M  V30 1400 O 134.647 1.11255 -1.59173 0
M  V30 1401 C 131.777 1.63456 -3.0643 0
M  V30 1402 C 130.731 1.1582 -4.12031 0
M  V30 1403 C 130.057 2.39305 -4.7816 0
M  V30 1404 C 131.357 0.250731 -5.21698 0
M  V30 1405 H 133.051 -0.134614 -2.99097 0
M  V30 1406 H 130.597 -0.0661826 -1.43848 0
M  V30 1407 H 132.55 2.23136 -3.57475 0
M  V30 1408 H 131.274 2.28533 -2.33325 0
M  V30 1409 H 129.933 0.584146 -3.61916 0
M  V30 1410 H 129.581 3.02814 -4.01637 0
M  V30 1411 H 129.281 2.08109 -5.49513 0
M  V30 1412 H 130.805 2.99691 -5.31994 0
M  V30 1413 H 132.219 0.754695 -5.68311 0
M  V30 1414 H 130.616 0.0301468 -6.00092 0
M  V30 1415 H 131.686 -0.710125 -4.79672 0
M  V30 1416 N 133.029 1.57378 -0.0835403 0
M  V30 1417 C 134.278 1.93106 0.582498 0
M  V30 1418 C 134.591 0.96651 1.70053 0
M  V30 1419 O 135.797 1.21705 2.42693 0
M  V30 1420 C 134.253 3.43076 1.08751 0
M  V30 1421 C 133.861 4.48 -0.000146404 0
M  V30 1422 C 135.605 3.87785 1.72694 0
M  V30 1423 C 133.512 5.89113 0.519568 0
M  V30 1424 H 132.442 0.720775 0.221358 0
M  V30 1425 H 135.093 1.82821 -0.157675 0
M  V30 1426 H 133.475 3.48474 1.88101 0
M  V30 1427 H 134.649 4.54233 -0.775199 0
M  V30 1428 H 132.964 4.1283 -0.54406 0
M  V30 1429 H 135.561 4.90604 2.1263 0
M  V30 1430 H 135.904 3.25796 2.59158 0
M  V30 1431 H 136.437 3.8504 0.999457 0
M  V30 1432 H 133.176 6.54775 -0.308186 0
M  V30 1433 H 132.696 5.86376 1.26188 0
M  V30 1434 H 134.375 6.39346 0.992237 0
M  V30 1435 N 134.507 -0.190092 1.56449 0
M  V30 1436 C 135.784 -0.935886 1.71757 0
M  V30 1437 C 136.164 -2.01173 0.639726 0
M  V30 1438 O 135.512 -2.25827 -0.348502 0
M  V30 1439 C 135.722 -1.51775 3.1427 0
M  V30 1440 C 137.07 -1.99794 3.74656 0
M  V30 1441 O 138.094 -1.61607 3.1743 0
M  V30 1442 O 136.953 -2.70079 4.751 0
M  V30 1443 H 134.047 -0.439229 0.700719 0
M  V30 1444 H 136.593 -0.179395 1.68749 0
M  V30 1445 H 135.365 -0.742505 3.84191 0
M  V30 1446 H 134.988 -2.33894 3.21527 0
M  V30 1447 N 135.985 -1.50799 -0.457987 0
M  V30 1448 C 137.21 -1.66496 -1.23668 0
M  V30 1449 C 137.635 -0.353288 -1.84752 0
M  V30 1450 O 136.993 0.684346 -1.67888 0
M  V30 1451 C 137.041 -2.76763 -2.3116 0
M  V30 1452 O 136.145 -2.38928 -3.36136 0
M  V30 1453 H 135.486 -0.555828 -0.363252 0
M  V30 1454 H 138.016 -1.9725 -0.543474 0
M  V30 1455 H 138.026 -3.00232 -2.76269 0
M  V30 1456 H 136.701 -3.71954 -1.86073 0
M  V30 1457 H 135.278 -2.25953 -2.96647 0
M  V30 1458 N 137.463 0.71206 -1.40597 0
M  V30 1459 C 138.874 1.29135 -1.34837 0
M  V30 1460 C 139.225 1.96186 -0.0235395 0
M  V30 1461 O 138.35 1.97768 0.878444 0
M  V30 1462 C 138.945 2.34827 -2.44217 0
M  V30 1463 C 137.504 2.88371 -2.41907 0
M  V30 1464 C 136.651 1.62202 -2.24913 0
M  V30 1465 H 139.602 0.507944 -1.50352 0
M  V30 1466 H 139.623 3.15749 -2.12327 0
M  V30 1467 H 139.135 1.85996 -3.40627 0
M  V30 1468 H 137.236 3.41422 -1.49204 0
M  V30 1469 H 137.349 3.39925 -3.37621 0
M  V30 1470 H 135.713 1.874 -1.72492 0
M  V30 1471 H 136.496 1.15391 -3.23326 0
M  V30 1472 N 138.941 1.26152 0.944643 0
M  V30 1473 C 140.189 1.11271 1.6871 0
M  V30 1474 C 140.51 -0.345166 1.91921 0
M  V30 1475 O 139.78 -1.24387 1.51343 0
M  V30 1476 H 138.36 0.408783 0.625224 0
M  V30 1477 H 141.022 1.58427 1.1352 0
M  V30 1478 H 140.118 1.62879 2.66227 0
M  V30 1479 N 140.419 -1.14872 1.07899 0
M  V30 1480 C 141.369 -2.17809 0.674027 0
M  V30 1481 C 142.353 -1.58008 -0.303699 0
M  V30 1482 O 143.545 -1.76616 -0.11654 0
M  V30 1483 C 140.674 -3.43208 0.0793318 0
M  V30 1484 C 139.76 -4.10051 1.08253 0
M  V30 1485 N 140.151 -4.52296 2.2641 0
M  V30 1486 C 138.449 -4.36469 0.917124 0
M  V30 1487 C 139.15 -5.04199 2.901 0
M  V30 1488 N 138.126 -4.98088 2.17736 0
M  V30 1489 H 141.928 -2.48207 1.57386 0
M  V30 1490 H 139.442 -1.315 0.952976 0
M  V30 1491 H 141.439 -4.16272 -0.228719 0
M  V30 1492 H 140.099 -3.14291 -0.815551 0
M  V30 1493 H 141.11 -4.45504 2.64096 0
M  V30 1494 H 137.787 -4.17432 0.0756078 0
M  V30 1495 H 139.177 -5.46802 3.90458 0
M  V30 1496 N 141.898 -0.863906 -1.31812 0
M  V30 1497 C 143.144 -0.472535 -1.97218 0
M  V30 1498 C 143.477 0.971394 -1.68159 0
M  V30 1499 O 142.752 1.68309 -0.974798 0
M  V30 1500 C 143.035 -0.723054 -3.52766 0
M  V30 1501 C 142.888 -2.21608 -3.91421 0
M  V30 1502 C 144.207 -0.185522 -4.39709 0
M  V30 1503 H 141.326 -0.173158 -0.71637 0
M  V30 1504 H 143.968 -1.08403 -1.56041 0
M  V30 1505 H 142.118 -0.202577 -3.87971 0
M  V30 1506 H 143.79 -2.80334 -3.66347 0
M  V30 1507 H 142.033 -2.691 -3.40246 0
M  V30 1508 H 142.704 -2.34203 -4.99853 0
M  V30 1509 H 145.18 -0.630726 -4.11292 0
M  V30 1510 H 144.056 -0.390306 -5.47511 0
M  V30 1511 H 144.317 0.912229 -4.32586 0
M  V30 1512 N 143.376 1.44774 -0.622745 0
M  V30 1513 C 144.653 1.95522 -0.0551974 0
M  V30 1514 C 145.033 1.5649 1.41683 0
M  V30 1515 O 144.381 0.834848 2.12703 0
M  V30 1516 C 144.591 3.4796 -0.269242 0
M  V30 1517 C 145.939 4.24306 -0.158014 0
M  V30 1518 O 146.963 3.55637 -0.200162 0
M  V30 1519 O 145.822 5.46471 -0.0558693 0
M  V30 1520 H 142.916 0.826556 0.0271015 0
M  V30 1521 H 145.462 1.54866 -0.693864 0
M  V30 1522 H 144.234 3.6939 -1.29099 0
M  V30 1523 H 143.857 3.95543 0.403966 0
M  V30 1524 N 144.854 0.36279 1.53368 0
M  V30 1525 C 146.101 -0.227776 2.01215 0
M  V30 1526 C 146.429 -1.49003 1.25014 0
M  V30 1527 O 145.684 -1.92876 0.331236 0
M  V30 1528 C 145.983 -0.568417 3.52851 0
M  V30 1529 C 145.649 0.59918 4.46901 0
M  V30 1530 C 144.311 0.919559 4.72332 0
M  V30 1531 C 146.663 1.38156 5.02556 0
M  V30 1532 C 143.991 2.02434 5.5067 0
M  V30 1533 C 146.343 2.47674 5.821 0
M  V30 1534 C 145.007 2.8025 6.05819 0
M  V30 1535 H 144.277 -0.083349 0.736297 0
M  V30 1536 H 146.924 0.494677 1.85001 0
M  V30 1537 H 145.229 -1.37185 3.66998 0
M  V30 1538 H 146.926 -1.03756 3.87344 0
M  V30 1539 H 143.516 0.339437 4.27254 0
M  V30 1540 H 147.7 1.14729 4.82857 0
M  V30 1541 H 142.956 2.28075 5.67267 0
M  V30 1542 H 147.13 3.08716 6.24234 0
M  V30 1543 H 144.757 3.65979 6.66306 0
M  V30 1544 N 146.332 -1.57332 0.0918853 0
M  V30 1545 C 147.557 -1.98995 -0.584442 0
M  V30 1546 C 147.982 -0.970528 -1.61128 0
M  V30 1547 O 147.34 0.0613904 -1.81196 0
M  V30 1548 C 147.388 -3.39636 -1.21161 0
M  V30 1549 O 146.492 -3.40447 -2.32744 0
M  V30 1550 H 145.833 -0.647165 -0.148572 0
M  V30 1551 H 148.363 -2.03873 0.172347 0
M  V30 1552 H 148.373 -3.7726 -1.55367 0
M  V30 1553 H 147.048 -4.13356 -0.459313 0
M  V30 1554 H 145.625 -3.14614 -2.0018 0
M  V30 1555 N 147.81 0.181792 -1.56548 0
M  V30 1556 C 149.035 0.920019 -1.85877 0
M  V30 1557 C 149.46 1.75494 -0.677021 0
M  V30 1558 O 148.818 1.77399 0.374056 0
M  V30 1559 C 148.866 1.78112 -3.13542 0
M  V30 1560 O 147.97 2.88152 -2.95029 0
M  V30 1561 H 147.311 0.258334 -0.611686 0
M  V30 1562 H 149.841 0.183092 -2.03779 0
M  V30 1563 H 149.851 2.18314 -3.44678 0
M  V30 1564 H 148.526 1.16777 -3.99169 0
M  V30 1565 H 147.103 2.51609 -2.75222 0
M  V30 1566 N 149.288 1.51039 0.449983 0
M  V30 1567 C 150.198 1.74261 1.57067 0
M  V30 1568 C 151.214 0.626363 1.62335 0
M  V30 1569 O 152.39 0.907162 1.79812 0
M  V30 1570 C 149.455 1.85114 2.93144 0
M  V30 1571 C 148.516 3.0893 2.98095 0
M  V30 1572 C 147.749 3.19256 4.27681 0
M  V30 1573 O 147.972 2.35835 5.19363 0
M  V30 1574 O 146.906 4.12144 4.38658 0
M  V30 1575 H 150.732 2.69303 1.40391 0
M  V30 1576 H 148.317 1.35389 0.631688 0
M  V30 1577 H 150.199 1.94311 3.73926 0
M  V30 1578 H 148.874 0.932588 3.09975 0
M  V30 1579 H 147.781 3.0522 2.16314 0
M  V30 1580 H 149.114 4.00433 2.86206 0
M  V30 1581 N 150.766 -0.704594 1.40972 0
M  V30 1582 C 152.012 -1.46675 1.40051 0
M  V30 1583 C 152.345 -1.94199 0.00641102 0
M  V30 1584 O 151.62 -1.68916 -0.964235 0
M  V30 1585 C 151.903 -2.68505 2.39952 0
M  V30 1586 C 151.756 -2.26805 3.88432 0
M  V30 1587 C 153.075 -3.70686 2.37233 0
M  V30 1588 H 150.194 -0.532015 0.510028 0
M  V30 1589 H 152.836 -0.803255 1.72185 0
M  V30 1590 H 150.986 -3.25114 2.1268 0
M  V30 1591 H 152.658 -1.75592 4.26574 0
M  V30 1592 H 150.901 -1.58685 4.03734 0
M  V30 1593 H 151.572 -3.14181 4.53866 0
M  V30 1594 H 154.048 -3.23731 2.61415 0
M  V30 1595 H 152.924 -4.53553 3.09162 0
M  V30 1596 H 153.185 -4.19754 1.38777 0
M  V30 1597 N 152.244 -1.26651 -0.937939 0
M  V30 1598 C 153.469 -1.15279 -1.72411 0
M  V30 1599 C 153.894 0.287866 -1.85884 0
M  V30 1600 O 153.252 1.20855 -1.35143 0
M  V30 1601 C 153.3 -1.83028 -3.10698 0
M  V30 1602 O 152.404 -1.12128 -3.96864 0
M  V30 1603 H 151.745 -0.401504 -0.528858 0
M  V30 1604 H 154.275 -1.67531 -1.1745 0
M  V30 1605 H 154.285 -1.89981 -3.6107 0
M  V30 1606 H 152.96 -2.87833 -3.00208 0
M  V30 1607 H 151.537 -1.13173 -3.55312 0
M  V30 1608 N 153.722 1.14298 -1.08507 0
M  V30 1609 C 154.95 1.89219 -0.836876 0
M  V30 1610 C 155.365 1.78638 0.611054 0
M  V30 1611 O 154.722 1.14643 1.41998 0
M  V30 1612 C 154.773 3.39158 -1.25116 0
M  V30 1613 O 154.494 3.49449 -2.64229 0
M  V30 1614 C 155.995 4.31073 -1.03398 0
M  V30 1615 H 153.215 0.599328 -0.301739 0
M  V30 1616 H 155.759 1.44746 -1.44461 0
M  V30 1617 H 153.914 3.81251 -0.687514 0
M  V30 1618 H 154.328 4.42589 -2.81452 0
M  V30 1619 H 155.802 5.34646 -1.37323 0
M  V30 1620 H 156.279 4.3919 0.0289259 0
M  V30 1621 H 156.885 3.94738 -1.58311 0
M  V30 1622 N 155.201 0.870884 1.31352 0
M  V30 1623 C 156.164 0.332243 2.26779 0
M  V30 1624 C 157.164 -0.517302 1.52252 0
M  V30 1625 O 158.354 -0.326477 1.71113 0
M  V30 1626 C 155.486 -0.528066 3.36785 0
M  V30 1627 H 156.679 1.17469 2.75937 0
M  V30 1628 H 154.232 0.64655 1.423 0
M  V30 1629 H 154.967 -1.39167 2.92922 0
M  V30 1630 H 154.752 0.0802582 3.92018 0
M  V30 1631 H 156.242 -0.897179 4.07849 0
M  V30 1632 N 156.679 -1.44442 0.630414 0
M  V30 1633 C 157.925 -2.02351 0.134816 0
M  V30 1634 C 158.258 -1.4947 -1.23986 0
M  V30 1635 O 157.533 -0.678475 -1.82283 0
M  V30 1636 C 157.816 -3.59898 0.120707 0
M  V30 1637 C 157.669 -4.23063 1.52767 0
M  V30 1638 C 158.988 -4.36585 -0.555127 0
M  V30 1639 H 156.107 -0.73527 0.0504646 0
M  V30 1640 H 158.749 -1.72022 0.806751 0
M  V30 1641 H 156.899 -3.85868 -0.451477 0
M  V30 1642 H 158.571 -4.08202 2.14869 0
M  V30 1643 H 156.814 -3.80586 2.08175 0
M  V30 1644 H 157.485 -5.32071 1.46984 0
M  V30 1645 H 159.961 -4.16044 -0.0685429 0
M  V30 1646 H 158.837 -5.46294 -0.534185 0
M  V30 1647 H 159.098 -4.11138 -1.62535 0
M  V30 1648 N 158.157 -0.370918 -1.53173 0
M  V30 1649 C 159.573 -0.0200818 -1.59587 0
M  V30 1650 C 159.773 1.46279 -1.38581 0
M  V30 1651 O 158.829 2.22506 -1.19363 0
M  V30 1652 C 160.142 -0.4808 -2.96831 0
M  V30 1653 C 161.69 -0.435477 -3.09956 0
M  V30 1654 C 162.165 -0.872092 -4.4962 0
M  V30 1655 N 163.656 -0.827364 -4.55751 0
M  V30 1656 C 164.391 -1.13683 -5.62018 0
M  V30 1657 N 163.887 -1.51584 -6.76014 0
M  V30 1658 N 165.68 -1.05927 -5.52029 0
M  V30 1659 H 157.831 -1.33652 -1.65079 0
M  V30 1660 H 160.094 -0.546634 -0.774529 0
M  V30 1661 H 159.8 -1.51577 -3.1736 0
M  V30 1662 H 159.674 0.129796 -3.76977 0
M  V30 1663 H 162.061 0.590371 -2.89134 0
M  V30 1664 H 162.142 -1.08164 -2.31806 0
M  V30 1665 H 161.786 -1.89608 -4.71181 0
M  V30 1666 H 161.716 -0.203127 -5.26208 0
M  V30 1667 H 164.207 -0.548216 -3.73902 0
M  V30 1668 H 164.52 -1.73609 -7.53047 0
M  V30 1669 H 162.865 -1.55454 -6.77391 0
M  V30 1670 H 166.056 -0.762321 -4.61851 0
M  V30 1671 H 166.229 -1.30378 -6.34749 0
M  V30 1672 N 159.635 1.57281 -0.100228 0
M  V30 1673 C 160.884 1.93713 0.561984 0
M  V30 1674 C 161.197 0.984492 1.69018 0
M  V30 1675 O 162.403 1.24273 2.41389 0
M  V30 1676 C 160.859 3.4421 1.05106 0
M  V30 1677 C 160.467 4.47975 -0.0476628 0
M  V30 1678 C 162.211 3.89595 1.68571 0
M  V30 1679 C 160.118 5.89631 0.457055 0
M  V30 1680 H 159.048 0.723082 0.2137 0
M  V30 1681 H 161.699 1.82644 -0.177057 0
M  V30 1682 H 160.081 3.50449 1.84395 0
M  V30 1683 H 161.255 4.53385 -0.823333 0
M  V30 1684 H 159.57 4.1223 -0.587816 0
M  V30 1685 H 162.167 4.92832 2.07414 0
M  V30 1686 H 162.51 3.28526 2.55688 0
M  V30 1687 H 163.043 3.86078 0.958562 0
M  V30 1688 H 159.782 6.54411 -0.377616 0
M  V30 1689 H 159.302 5.87681 1.19962 0
M  V30 1690 H 160.981 6.40363 0.92437 0
M  V30 1691 N 161.113 -0.173488 1.56642 0
M  V30 1692 C 162.353 -0.896984 1.83667 0
M  V30 1693 C 162.717 -1.79523 0.680842 0
M  V30 1694 O 163.918 -2.55616 0.831488 0
M  V30 1695 C 162.189 -1.67351 3.15798 0
M  V30 1696 S 163.748 -2.44607 3.64298 0
M  V30 1697 H 160.566 -0.300464 0.644393 0
M  V30 1698 H 163.168 -0.158775 1.94854 0
M  V30 1699 H 161.872 -1.00462 3.97914 0
M  V30 1700 H 161.403 -2.45313 3.07546 0
M  V30 1701 H 163.418 -3.69261 3.31452 0
M  V30 1702 N 162.591 -1.51276 -0.441967 0
M  V30 1703 C 163.868 -1.54252 -1.20273 0
M  V30 1704 C 164.248 -0.30408 -2.08898 0
M  V30 1705 O 163.596 0.711084 -2.17154 0
M  V30 1706 C 163.806 -2.85406 -2.00859 0
M  V30 1707 C 165.154 -3.37181 -2.58059 0
M  V30 1708 O 166.178 -2.86925 -2.11074 0
M  V30 1709 O 165.037 -4.24858 -3.43741 0
M  V30 1710 H 162.131 -0.619969 -0.547328 0
M  V30 1711 H 164.677 -1.63586 -0.451413 0
M  V30 1712 H 163.449 -3.67003 -1.35736 0
M  V30 1713 H 163.072 -2.79213 -2.83065 0
M  V30 1714 N 164.069 0.697108 -1.41344 0
M  V30 1715 C 165.317 1.45426 -1.40341 0
M  V30 1716 C 165.638 1.94996 -0.0128787 0
M  V30 1717 O 164.908 1.71599 0.945027 0
M  V30 1718 H 163.488 0.539594 -0.516573 0
M  V30 1719 H 166.15 0.825201 -1.76569 0
M  V30 1720 H 165.246 2.31817 -2.08967 0
M  V30 1721 N 165.547 1.27147 0.931209 0
M  V30 1722 C 166.787 1.14511 1.69312 0
M  V30 1723 C 167.151 -0.304638 1.89568 0
M  V30 1724 O 168.352 -0.553343 2.63043 0
M  V30 1725 C 166.623 1.90349 3.02493 0
M  V30 1726 S 168.182 1.93884 3.93642 0
M  V30 1727 H 165 0.408858 0.581684 0
M  V30 1728 H 167.602 1.61006 1.10893 0
M  V30 1729 H 166.306 2.94877 2.85439 0
M  V30 1730 H 165.837 1.44333 3.65966 0
M  V30 1731 H 167.852 1.03273 4.85334 0
M  V30 1732 N 167.025 -1.13721 1.09112 0
M  V30 1733 C 168.274 -1.84275 0.82009 0
M  V30 1734 C 168.587 -1.84253 -0.656509 0
M  V30 1735 O 169.793 -2.50668 -1.04296 0
M  V30 1736 C 168.249 -3.30825 1.41714 0
M  V30 1737 C 167.857 -3.39244 2.92605 0
M  V30 1738 C 169.601 -4.06443 1.22492 0
M  V30 1739 C 167.508 -4.80047 3.45411 0
M  V30 1740 H 166.438 -0.690387 0.30312 0
M  V30 1741 H 169.089 -1.28146 1.31343 0
M  V30 1742 H 167.471 -3.86737 0.851498 0
M  V30 1743 H 168.645 -2.93344 3.55367 0
M  V30 1744 H 166.96 -2.77088 3.10823 0
M  V30 1745 H 169.557 -5.10387 1.59402 0
M  V30 1746 H 169.9 -4.15972 0.165299 0
M  V30 1747 H 170.433 -3.56852 1.75788 0
M  V30 1748 H 167.172 -4.75709 4.50978 0
M  V30 1749 H 166.692 -5.26455 2.87411 0
M  V30 1750 H 168.371 -5.48957 3.42425 0
M  V30 1751 N 168.503 -0.877838 -1.30888 0
M  V30 1752 C 169.752 -0.488793 -1.95688 0
M  V30 1753 C 170.065 0.965485 -1.70111 0
M  V30 1754 O 171.271 1.46104 -2.28836 0
M  V30 1755 C 169.727 -0.823201 -3.50359 0
M  V30 1756 C 169.335 -2.29477 -3.84765 0
M  V30 1757 C 171.079 -0.503009 -4.21509 0
M  V30 1758 C 168.986 -2.57118 -5.32583 0
M  V30 1759 H 167.916 -0.179062 -0.732429 0
M  V30 1760 H 170.567 -1.07183 -1.48943 0
M  V30 1761 H 168.949 -0.169331 -3.95638 0
M  V30 1762 H 170.123 -2.99236 -3.5042 0
M  V30 1763 H 168.438 -2.58178 -3.267 0
M  V30 1764 H 171.035 -0.68665 -5.30273 0
M  V30 1765 H 171.378 0.557109 -4.12555 0
M  V30 1766 H 171.911 -1.11376 -3.8189 0
M  V30 1767 H 168.65 -3.61843 -5.4658 0
M  V30 1768 H 168.17 -1.91961 -5.68253 0
M  V30 1769 H 169.849 -2.42251 -5.99936 0
M  V30 1770 N 169.982 1.44106 -0.638065 0
M  V30 1771 C 171.228 2.02277 -0.145546 0
M  V30 1772 C 171.561 1.50125 1.23191 0
M  V30 1773 O 170.836 0.688133 1.8192 0
M  V30 1774 C 171.119 3.59829 -0.139791 0
M  V30 1775 C 170.972 4.22247 -1.55008 0
M  V30 1776 C 172.291 4.36873 0.531966 0
M  V30 1777 H 169.41 0.734992 -0.0543632 0
M  V30 1778 H 172.052 1.71592 -0.815863 0
M  V30 1779 H 170.202 3.86102 0.431007 0
M  V30 1780 H 171.874 4.07057 -2.1703 0
M  V30 1781 H 170.117 3.79476 -2.10191 0
M  V30 1782 H 170.788 5.31284 -1.49804 0
M  V30 1783 H 173.264 4.16074 0.0464781 0
M  V30 1784 H 172.14 5.4657 0.505206 0
M  V30 1785 H 172.401 4.11995 1.60352 0
M  V30 1786 N 171.46 0.379036 1.52974 0
M  V30 1787 C 172.706 -0.206727 2.01744 0
M  V30 1788 C 173.039 -1.47314 1.26539 0
M  V30 1789 O 172.314 -1.91084 0.362903 0
M  V30 1790 C 172.597 -0.485066 3.56818 0
M  V30 1791 C 172.45 0.795919 4.42702 0
M  V30 1792 C 173.769 -1.28003 4.21074 0
M  V30 1793 H 170.888 -0.0736607 0.73331 0
M  V30 1794 H 173.53 0.506581 1.83122 0
M  V30 1795 H 171.68 -1.09272 3.72816 0
M  V30 1796 H 173.352 1.43307 4.38476 0
M  V30 1797 H 171.595 1.41344 4.10127 0
M  V30 1798 H 172.266 0.555947 5.49193 0
M  V30 1799 H 174.742 -0.765867 4.08991 0
M  V30 1800 H 173.618 -1.44352 5.29579 0
M  V30 1801 H 173.879 -2.29236 3.78026 0
M  V30 1802 N 172.938 -1.57226 0.108567 0
M  V30 1803 C 174.215 -1.86333 -0.594939 0
M  V30 1804 C 174.595 -1.00788 -1.85486 0
M  V30 1805 O 173.943 -0.0839293 -2.28346 0
M  V30 1806 C 174.153 -3.37265 -0.897405 0
M  V30 1807 C 175.501 -4.05629 -1.25501 0
M  V30 1808 O 176.525 -3.42224 -0.987998 0
M  V30 1809 O 175.384 -5.17531 -1.75567 0
M  V30 1810 H 172.478 -0.771018 -0.2991 0
M  V30 1811 H 175.024 -1.69102 0.142283 0
M  V30 1812 H 173.796 -3.913 -0.00413806 0
M  V30 1813 H 173.419 -3.59889 -1.69014 0
M  V30 1814 N 174.416 0.165178 -1.56732 0
M  V30 1815 C 175.379 1.18822 -1.95995 0
M  V30 1816 C 176.379 1.3685 -0.84431 0
M  V30 1817 O 177.569 1.34152 -1.11126 0
M  V30 1818 C 174.701 2.5521 -2.26011 0
M  V30 1819 H 175.894 0.851825 -2.87548 0
M  V30 1820 H 173.447 0.407857 -1.50885 0
M  V30 1821 H 174.182 2.93852 -1.37191 0
M  V30 1822 H 173.967 2.43489 -3.07336 0
M  V30 1823 H 175.457 3.28927 -2.57288 0
M  V30 1824 N 175.894 1.51508 0.433938 0
M  V30 1825 C 177.14 1.64588 1.18484 0
M  V30 1826 C 177.473 0.362666 1.90784 0
M  V30 1827 O 176.748 -0.637892 1.83742 0
M  V30 1828 C 177.031 2.85149 2.19913 0
M  V30 1829 C 176.884 4.23456 1.51674 0
M  V30 1830 C 178.203 3.01227 3.20858 0
M  V30 1831 H 175.322 0.598994 0.429389 0
M  V30 1832 H 177.964 1.84002 0.473647 0
M  V30 1833 H 176.114 2.68729 2.80566 0
M  V30 1834 H 177.786 4.51552 0.943322 0
M  V30 1835 H 176.029 4.25998 0.819035 0
M  V30 1836 H 176.7 5.03812 2.2556 0
M  V30 1837 H 179.176 3.16382 2.70263 0
M  V30 1838 H 178.052 3.87141 3.89118 0
M  V30 1839 H 178.313 2.13447 3.8716 0
M  V30 1840 N 177.372 -0.689602 1.41712 0
M  V30 1841 C 178.282 -1.83314 1.46401 0
M  V30 1842 C 179.298 -1.7036 0.35405 0
M  V30 1843 O 180.474 -1.92171 0.602692 0
M  V30 1844 C 177.539 -3.19344 1.34982 0
M  V30 1845 C 176.6 -3.44363 2.56344 0
M  V30 1846 C 175.833 -4.73904 2.45461 0
M  V30 1847 O 176.056 -5.508 1.48241 0
M  V30 1848 O 174.99 -4.99839 3.35328 0
M  V30 1849 H 178.816 -1.82314 2.42889 0
M  V30 1850 H 176.401 -0.843438 1.23315 0
M  V30 1851 H 178.283 -4.00547 1.3092 0
M  V30 1852 H 176.958 -3.21014 0.41612 0
M  V30 1853 H 175.865 -2.63067 2.65982 0
M  V30 1854 H 177.198 -3.47512 3.48563 0
M  V30 1855 N 178.85 -1.27639 -0.924453 0
M  V30 1856 C 180.098 -1.13941 -1.66918 0
M  V30 1857 C 180.419 0.314589 -1.92446 0
M  V30 1858 O 179.689 1.21964 -1.53303 0
M  V30 1859 H 178.269 -0.418678 -0.618642 0
M  V30 1860 H 180.931 -1.60213 -1.10985 0
M  V30 1861 H 180.027 -1.67094 -2.63602 0
M  V30 1862 N 180.328 1.1314 -1.09713 0
M  V30 1863 C 181.574 1.84757 -0.836224 0
M  V30 1864 C 181.907 1.8347 0.636598 0
M  V30 1865 O 181.182 1.27491 1.46889 0
M  V30 1866 C 181.465 3.32782 -1.37578 0
M  V30 1867 C 181.318 3.42567 -2.91493 0
M  V30 1868 C 182.637 4.28307 -1.01198 0
M  V30 1869 H 179.756 0.67082 -0.305236 0
M  V30 1870 H 182.398 1.3278 -1.35903 0
M  V30 1871 H 180.548 3.77177 -0.931097 0
M  V30 1872 H 182.22 3.06862 -3.44432 0
M  V30 1873 H 180.463 2.83349 -3.28475 0
M  V30 1874 H 181.134 4.46674 -3.24324 0
M  V30 1875 H 183.61 3.91999 -1.39556 0
M  V30 1876 H 182.486 5.30307 -1.41653 0
M  V30 1877 H 182.747 4.42029 0.0794833 0
M  V30 1878 N 181.806 0.884767 1.30421 0
M  V30 1879 C 183.046 0.509806 1.9794 0
M  V30 1880 C 183.41 -0.923736 1.68319 0
M  V30 1881 O 184.611 -1.40481 2.29169 0
M  V30 1882 C 182.882 0.776732 3.48858 0
M  V30 1883 S 184.441 0.503843 4.35898 0
M  V30 1884 H 181.259 0.189699 0.685227 0
M  V30 1885 H 183.861 1.14399 1.58535 0
M  V30 1886 H 182.565 1.81857 3.67908 0
M  V30 1887 H 182.096 0.1301 3.93185 0
M  V30 1888 H 184.111 -0.657625 4.91823 0
M  V30 1889 N 183.284 -1.43765 0.645699 0
M  V30 1890 C 184.695 -1.85193 0.236719 0
M  V30 1891 C 185.046 -1.54045 -1.21509 0
M  V30 1892 O 184.171 -0.985694 -1.92647 0
M  V30 1893 C 184.766 -3.36151 0.422845 0
M  V30 1894 C 183.325 -3.76338 0.0682492 0
M  V30 1895 C 182.472 -2.67538 0.729306 0
M  V30 1896 H 185.423 -1.34025 0.849883 0
M  V30 1897 H 185.444 -3.79032 -0.333904 0
M  V30 1898 H 184.956 -3.5879 1.47958 0
M  V30 1899 H 183.057 -3.59312 -0.986179 0
M  V30 1900 H 183.17 -4.76603 0.488469 0
M  V30 1901 H 181.534 -2.54176 0.163235 0
M  V30 1902 H 182.317 -2.93006 1.78892 0
M  V30 1903 N 184.763 -0.387143 -1.52771 0
M  V30 1904 C 185.695 0.484089 -2.2403 0
M  V30 1905 C 186.708 1.02849 -1.26198 0
M  V30 1906 O 187.897 0.931186 -1.52286 0
M  V30 1907 C 184.997 1.68337 -2.94136 0
M  V30 1908 C 184.17 1.26672 -4.18656 0
M  V30 1909 C 183.229 2.33045 -4.7178 0
M  V30 1910 O 182.255 1.94541 -5.34923 0
M  V30 1911 N 183.457 3.64929 -4.5145 0
M  V30 1912 H 186.222 -0.126404 -2.99433 0
M  V30 1913 H 183.783 -0.213392 -1.60488 0
M  V30 1914 H 185.775 2.39019 -3.26577 0
M  V30 1915 H 184.345 2.20025 -2.22053 0
M  V30 1916 H 183.565 0.388878 -3.92277 0
M  V30 1917 H 184.853 0.964964 -4.99566 0
M  V30 1918 H 184.251 3.98974 -4.01044 0
M  V30 1919 H 182.808 4.31651 -4.88386 0
M  V30 1920 N 186.241 1.57166 -0.116904 0
M  V30 1921 C 187.469 1.99473 0.549383 0
M  V30 1922 C 187.884 0.996541 1.60357 0
M  V30 1923 O 187.241 -0.0108731 1.82497 0
M  V30 1924 C 187.292 3.41788 1.17741 0
M  V30 1925 O 187.013 4.37788 0.165362 0
M  V30 1926 C 188.514 3.99216 1.92722 0
M  V30 1927 H 185.734 0.655009 0.145616 0
M  V30 1928 H 188.278 2.03494 -0.202625 0
M  V30 1929 H 186.433 3.38713 1.88021 0
M  V30 1930 H 186.847 5.20806 0.621403 0
M  V30 1931 H 188.321 5.00882 2.31995 0
M  V30 1932 H 188.798 3.3824 2.80161 0
M  V30 1933 H 189.404 4.0583 1.27209 0
M  V30 1934 N 187.719 -0.156864 1.56817 0
M  V30 1935 C 188.651 -1.21883 1.94106 0
M  V30 1936 C 189.664 -1.3971 0.835754 0
M  V30 1937 O 190.853 -1.39457 1.11418 0
M  V30 1938 C 187.953 -2.58527 2.19127 0
M  V30 1939 C 187.126 -2.61809 3.50393 0
M  V30 1940 C 186.185 -3.7992 3.64071 0
M  V30 1941 O 185.211 -3.65249 4.36557 0
M  V30 1942 N 186.413 -4.96973 2.99997 0
M  V30 1943 H 189.178 -0.901974 2.85805 0
M  V30 1944 H 186.739 -0.346513 1.58148 0
M  V30 1945 H 188.731 -3.36034 2.25529 0
M  V30 1946 H 187.301 -2.82545 1.33742 0
M  V30 1947 H 186.521 -1.7029 3.5552 0
M  V30 1948 H 187.809 -2.61024 4.36742 0
M  V30 1949 H 187.207 -5.11794 2.41004 0
M  V30 1950 H 185.764 -5.7229 3.11974 0
M  V30 1951 N 189.197 -1.51736 -0.425897 0
M  V30 1952 C 190.16 -1.73271 -1.50032 0
M  V30 1953 C 191.16 -0.602639 -1.4908 0
M  V30 1954 O 192.35 -0.87033 -1.509 0
M  V30 1955 C 189.482 -1.79969 -2.89523 0
M  V30 1956 H 190.675 -2.69172 -1.32237 0
M  V30 1957 H 188.228 -1.41899 -0.65532 0
M  V30 1958 H 188.963 -0.859241 -3.1271 0
M  V30 1959 H 188.748 -2.62109 -2.91619 0
M  V30 1960 H 190.238 -1.9843 -3.67444 0
M  V30 1961 N 190.675 0.682077 -1.42076 0
M  V30 1962 C 191.921 1.44428 -1.42367 0
M  V30 1963 C 192.254 1.94164 -0.0373056 0
M  V30 1964 O 191.529 1.70429 0.937239 0
M  V30 1965 C 191.812 2.64654 -2.44194 0
M  V30 1966 C 191.665 2.20596 -3.91991 0
M  V30 1967 C 192.984 3.66865 -2.431 0
M  V30 1968 H 190.103 0.523834 -0.518428 0
M  V30 1969 H 192.745 0.77576 -1.73442 0
M  V30 1970 H 190.895 3.2169 -2.17826 0
M  V30 1971 H 192.567 1.68783 -4.29313 0
M  V30 1972 H 190.81 1.52242 -4.06208 0
M  V30 1973 H 191.481 3.06921 -4.58807 0
M  V30 1974 H 193.957 3.19531 -2.66532 0
M  V30 1975 H 192.833 4.48577 -3.16339 0
M  V30 1976 H 193.094 4.17493 -1.45437 0
M  V30 1977 N 192.153 1.28127 0.917671 0
M  V30 1978 C 193.083 1.14248 2.03641 0
M  V30 1979 C 194.064 0.0412748 1.7005 0
M  V30 1980 O 195.249 0.217566 1.92977 0
M  V30 1981 C 192.379 0.799431 3.37974 0
M  V30 1982 C 191.333 1.85497 3.85713 0
M  V30 1983 C 190.659 1.36565 5.16966 0
M  V30 1984 C 191.959 3.26085 4.08002 0
M  V30 1985 H 193.653 2.07835 2.15511 0
M  V30 1986 H 191.199 1.00064 1.03553 0
M  V30 1987 H 193.152 0.689114 4.15727 0
M  V30 1988 H 191.876 -0.172145 3.26146 0
M  V30 1989 H 190.535 1.95437 3.10161 0
M  V30 1990 H 190.183 0.383253 5.01538 0
M  V30 1991 H 189.883 2.07143 5.49878 0
M  V30 1992 H 191.407 1.26848 5.97279 0
M  V30 1993 H 192.821 3.19089 4.76293 0
M  V30 1994 H 191.218 3.94462 4.52238 0
M  V30 1995 H 192.288 3.70394 3.12948 0
M  V30 1996 N 193.631 -1.12557 1.10312 0
M  V30 1997 C 195.047 -1.36036 0.834649 0
M  V30 1998 C 195.247 -1.93946 -0.546539 0
M  V30 1999 O 194.303 -2.16484 -1.29966 0
M  V30 2000 C 195.616 -2.30312 1.9333 0
M  V30 2001 C 197.164 -2.43906 1.9616 0
M  V30 2002 C 197.639 -3.41496 3.05195 0
M  V30 2003 N 199.13 -3.49053 3.04494 0
M  V30 2004 C 199.865 -4.24471 3.85502 0
M  V30 2005 N 199.361 -5.02966 4.76442 0
M  V30 2006 N 201.154 -4.19864 3.73725 0
M  V30 2007 H 193.305 -0.733246 1.99342 0
M  V30 2008 H 195.568 -0.385234 0.866198 0
M  V30 2009 H 195.274 -1.94933 2.92735 0
M  V30 2010 H 195.148 -3.30421 1.81939 0
M  V30 2011 H 197.535 -2.78567 0.973886 0
M  V30 2012 H 197.616 -1.4369 2.11629 0
M  V30 2013 H 197.26 -3.07565 4.04186 0
M  V30 2014 H 197.19 -4.41539 2.86968 0
M  V30 2015 H 199.681 -2.93053 2.38596 0
M  V30 2016 H 199.994 -5.57846 5.34815 0
M  V30 2017 H 198.339 -5.02167 4.80472 0
M  V30 2018 H 201.53 -3.57623 3.02032 0
M  V30 2019 H 201.703 -4.78386 4.37093 0
M  V30 2020 N 195.109 -0.891671 -1.2995 0
M  V30 2021 C 196.041 -0.320695 -2.26945 0
M  V30 2022 C 197.054 0.528497 -1.53983 0
M  V30 2023 O 198.243 0.346959 -1.75096 0
M  V30 2024 C 195.343 0.562066 -3.34207 0
M  V30 2025 C 194.516 -0.259576 -4.36629 0
M  V30 2026 C 193.575 0.554739 -5.23268 0
M  V30 2027 O 192.601 -0.0249311 -5.69195 0
M  V30 2028 N 193.803 1.8625 -5.4981 0
M  V30 2029 H 196.568 -1.15432 -2.76578 0
M  V30 2030 H 194.129 -0.755336 -1.432 0
M  V30 2031 H 196.121 1.11304 -3.89093 0
M  V30 2032 H 194.691 1.29637 -2.84452 0
M  V30 2033 H 193.911 -0.991986 -3.81514 0
M  V30 2034 H 195.199 -0.822564 -5.02107 0
M  V30 2035 H 194.597 2.35628 -5.14292 0
M  V30 2036 H 193.154 2.36078 -6.07545 0
M  V30 2037 N 196.587 1.43421 -0.653314 0
M  V30 2038 C 197.55 2.29182 0.0287951 0
M  V30 2039 C 198.55 1.42213 0.750465 0
M  V30 2040 O 199.74 1.63843 0.591701 0
M  V30 2041 C 196.872 3.24278 1.05151 0
M  V30 2042 H 198.065 2.90985 -0.725786 0
M  V30 2043 H 195.618 1.50702 -0.414545 0
M  V30 2044 H 196.353 2.6737 1.83532 0
M  V30 2045 H 196.138 3.88396 0.537687 0
M  V30 2046 H 197.628 3.88647 1.52786 0
M  V30 2047 N 198.065 0.39524 1.52563 0
M  V30 2048 C 199.311 -0.177763 2.02622 0
M  V30 2049 C 199.666 -1.43974 1.27629 0
M  V30 2050 O 198.959 -1.87995 0.36992 0
M  V30 2051 C 199.153 -0.493444 3.53977 0
M  V30 2052 C 198.982 0.736392 4.4363 0
M  V30 2053 C 197.752 1.25744 4.89404 0
M  V30 2054 C 199.95 1.61046 4.88435 0
M  V30 2055 N 197.932 2.44421 5.63145 0
M  V30 2056 C 199.303 2.64359 5.60816 0
M  V30 2057 C 201.358 1.62985 4.70468 0
M  V30 2058 C 200.061 3.69505 6.17137 0
M  V30 2059 C 202.087 2.67042 5.27677 0
M  V30 2060 C 201.449 3.69077 5.99968 0
M  V30 2061 H 197.548 -0.0269794 0.781534 0
M  V30 2062 H 200.132 0.546466 1.86874 0
M  V30 2063 H 198.303 -1.18672 3.69826 0
M  V30 2064 H 200.035 -1.05412 3.90731 0
M  V30 2065 H 196.79 0.817546 4.6649 0
M  V30 2066 H 197.214 3.04485 6.04663 0
M  V30 2067 H 201.856 0.854442 4.14076 0
M  V30 2068 H 199.574 4.4791 6.72608 0
M  V30 2069 H 203.16 2.69433 5.15652 0
M  V30 2070 H 202.04 4.48273 6.43444 0
M  V30 2071 N 199.544 -1.57102 0.125237 0
M  V30 2072 C 200.474 -2.18659 -0.819174 0
M  V30 2073 C 201.455 -1.12843 -1.27281 0
M  V30 2074 O 202.64 -1.41104 -1.33429 0
M  V30 2075 C 199.77 -2.79096 -2.06695 0
M  V30 2076 C 198.724 -3.90548 -1.75088 0
M  V30 2077 C 198.05 -4.37821 -3.06948 0
M  V30 2078 C 199.35 -5.12356 -1.01435 0
M  V30 2079 H 201.044 -2.9783 -0.306202 0
M  V30 2080 H 198.59 -1.4326 -0.145839 0
M  V30 2081 H 200.543 -3.2082 -2.73226 0
M  V30 2082 H 199.267 -1.97223 -2.60328 0
M  V30 2083 H 197.926 -3.49409 -1.10944 0
M  V30 2084 H 197.574 -3.52799 -3.58527 0
M  V30 2085 H 197.274 -5.12982 -2.86571 0
M  V30 2086 H 198.798 -4.822 -3.74587 0
M  V30 2087 H 200.212 -5.5106 -1.58132 0
M  V30 2088 H 198.609 -5.9314 -0.911319 0
M  V30 2089 H 199.679 -4.849 -0.00218681 0
M  V30 2090 N 201.022 0.148545 -1.56898 0
M  V30 2091 C 201.932 1.20293 -2.01412 0
M  V30 2092 C 202.948 1.47107 -0.929273 0
M  V30 2093 O 204.124 1.58807 -1.23863 0
M  V30 2094 C 201.189 2.51682 -2.38447 0
M  V30 2095 C 200.25 2.32529 -3.60872 0
M  V30 2096 C 199.483 3.57653 -3.96132 0
M  V30 2097 O 199.706 4.63771 -3.32073 0
M  V30 2098 O 198.64 3.50408 -4.89385 0
M  V30 2099 H 202.466 0.855025 -2.91416 0
M  V30 2100 H 200.051 0.357151 -1.45068 0
M  V30 2101 H 201.933 3.29147 -2.63135 0
M  V30 2102 H 200.608 2.86006 -1.51599 0
M  V30 2103 H 199.515 1.53019 -3.41373 0
M  V30 2104 H 200.848 2.03121 -4.48333 0
M  V30 2105 N 202.5 1.5196 0.417844 0
M  V30 2106 C 203.448 1.75278 1.52907 0
M  V30 2107 C 204.442 0.619611 1.57662 0
M  V30 2108 O 205.648 0.801457 1.61173 0
M  V30 2109 H 202.023 0.554141 0.508362 0
M  V30 2110 H 203.994 2.68389 1.30422 0
M  V30 2111 C 202.743 1.91262 2.90369 0
M  V30 2112 H 202.066 2.77872 2.8745 0
M  V30 2113 H 203.506 2.11581 3.67436 0
M  V30 2114 C 201.965 0.677431 3.30019 0
M  V30 2115 O 202.495 -0.158799 4.01386 0
M  V30 2116 N 200.701 0.515851 2.85985 0
M  V30 2117 H 200.248 1.19744 2.28077 0
M  V30 2118 H 200.206 -0.309315 3.12875 0
M  V30 2119 N 203.978 -0.674533 1.42435 0
M  V30 2120 C 205.227 -1.43034 1.42212 0
M  V30 2121 C 205.54 -1.95555 0.0420788 0
M  V30 2122 O 206.746 -2.71374 -0.0827558 0
M  V30 2123 C 205.202 -2.58748 2.50155 0
M  V30 2124 C 204.81 -2.12925 3.94166 0
M  V30 2125 C 206.554 -3.36257 2.59098 0
M  V30 2126 C 204.461 -3.25723 4.93618 0
M  V30 2127 H 203.391 -0.537345 0.528939 0
M  V30 2128 H 206.042 -0.73024 1.68344 0
M  V30 2129 H 204.424 -3.31128 2.17188 0
M  V30 2130 H 205.598 -1.47697 4.36488 0
M  V30 2131 H 203.913 -1.48354 3.89076 0
M  V30 2132 H 206.51 -4.20264 3.30578 0
M  V30 2133 H 206.853 -3.82866 1.63461 0
M  V30 2134 H 207.386 -2.70947 2.9126 0
M  V30 2135 H 204.125 -2.84105 5.90732 0
M  V30 2136 H 203.645 -3.89732 4.55926 0
M  V30 2137 H 205.324 -3.91186 5.15347 0
M  V30 2138 N 205.456 -1.28612 -0.910864 0
M  V30 2139 C 206.872 -1.06381 -1.18976 0
M  V30 2140 C 207.072 0.191998 -2.00583 0
M  V30 2141 O 206.128 0.892869 -2.36187 0
M  V30 2142 C 207.441 -2.31295 -1.92154 0
M  V30 2143 C 208.989 -2.36503 -2.05025 0
M  V30 2144 C 209.464 -3.61191 -2.81612 0
M  V30 2145 N 210.955 -3.61847 -2.89172 0
M  V30 2146 C 211.69 -4.55004 -3.4894 0
M  V30 2147 N 211.186 -5.58482 -4.09963 0
M  V30 2148 N 212.979 -4.42594 -3.46506 0
M  V30 2149 H 205.13 -2.09221 -0.366094 0
M  V30 2150 H 207.393 -0.921003 -0.224629 0
M  V30 2151 H 207.099 -3.228 -1.39618 0
M  V30 2152 H 206.973 -2.37934 -2.9269 0
M  V30 2153 H 209.36 -1.45494 -2.5674 0
M  V30 2154 H 209.441 -2.33857 -1.03657 0
M  V30 2155 H 209.085 -4.52545 -2.30576 0
M  V30 2156 H 209.015 -3.61092 -3.83302 0
M  V30 2157 H 211.506 -2.87022 -2.45819 0
M  V30 2158 H 211.819 -6.25704 -4.53557 0
M  V30 2159 H 210.164 -5.62305 -4.08459 0
M  V30 2160 H 213.355 -3.60953 -2.98045 0
M  V30 2161 H 213.528 -5.15381 -3.92793 0
M  V30 2162 N 206.934 1.1197 -1.10907 0
M  V30 2163 C 208.345 1.65114 -0.871446 0
M  V30 2164 C 208.696 1.86885 0.597353 0
M  V30 2165 O 207.821 1.59896 1.45816 0
M  V30 2166 C 208.416 2.99944 -1.5754 0
M  V30 2167 C 206.975 3.50018 -1.38435 0
M  V30 2168 C 206.122 2.24941 -1.62164 0
M  V30 2169 H 209.073 0.956851 -1.2661 0
M  V30 2170 H 209.094 3.66651 -1.01721 0
M  V30 2171 H 208.606 2.84067 -2.64438 0
M  V30 2172 H 206.707 3.71071 -0.337214 0
M  V30 2173 H 206.82 4.29165 -2.12965 0
M  V30 2174 H 205.184 2.3229 -1.04467 0
M  V30 2175 H 205.967 2.11612 -2.70324 0
M  V30 2176 N 208.412 0.89855 1.29475 0
M  V30 2177 C 209.658 0.524658 1.95896 0
M  V30 2178 C 209.991 -0.926468 1.70676 0
M  V30 2179 O 209.266 -1.65665 1.01908 0
M  V30 2180 C 209.549 0.81633 3.50725 0
M  V30 2181 C 209.402 2.31907 3.85408 0
M  V30 2182 C 210.721 0.302038 4.39062 0
M  V30 2183 H 207.84 0.19209 0.711527 0
M  V30 2184 H 210.482 1.12502 1.53112 0
M  V30 2185 H 208.632 0.305369 3.87298 0
M  V30 2186 H 210.304 2.89949 3.58786 0
M  V30 2187 H 208.547 2.78027 3.32992 0
M  V30 2188 H 209.218 2.47373 4.93468 0
M  V30 2189 H 211.694 0.739551 4.09475 0
M  V30 2190 H 210.57 0.535331 5.46283 0
M  V30 2191 H 210.831 -0.797216 4.34853 0
M  V30 2192 N 209.89 -1.43072 0.660911 0
M  V30 2193 C 210.82 -2.33497 -0.0122829 0
M  V30 2194 C 211.801 -1.49903 -0.803925 0
M  V30 2195 O 212.986 -1.78546 -0.763864 0
M  V30 2196 C 210.116 -3.33363 -0.973994 0
M  V30 2197 C 209.07 -4.27003 -0.291928 0
M  V30 2198 C 208.396 -5.16967 -1.36562 0
M  V30 2199 C 209.696 -5.15816 0.820462 0
M  V30 2200 H 211.39 -2.90038 0.742873 0
M  V30 2201 H 208.936 -1.39461 0.358688 0
M  V30 2202 H 210.889 -3.95524 -1.45392 0
M  V30 2203 H 209.613 -2.75095 -1.7604 0
M  V30 2204 H 208.272 -3.66217 0.167623 0
M  V30 2205 H 207.92 -4.55034 -2.14366 0
M  V30 2206 H 207.62 -5.80441 -0.914454 0
M  V30 2207 H 209.144 -5.82003 -1.84675 0
M  V30 2208 H 210.558 -5.71742 0.422366 0
M  V30 2209 H 208.955 -5.8805 1.19656 0
M  V30 2210 H 210.025 -4.55045 1.67518 0
M  V30 2211 N 211.368 -0.403325 -1.52352 0
M  V30 2212 C 212.614 0.174605 -2.02047 0
M  V30 2213 C 212.947 1.45282 -1.28867 0
M  V30 2214 O 212.222 1.90483 -0.393257 0
M  V30 2215 C 212.505 0.428238 -3.57545 0
M  V30 2216 C 212.358 -0.866248 -4.4138 0
M  V30 2217 C 213.677 1.21287 -4.23057 0
M  V30 2218 H 210.796 0.0619851 -0.734389 0
M  V30 2219 H 213.438 -0.53565 -1.82293 0
M  V30 2220 H 211.588 1.03327 -3.74507 0
M  V30 2221 H 213.26 -1.50265 -4.3614 0
M  V30 2222 H 211.503 -1.47851 -4.07827 0
M  V30 2223 H 212.174 -0.643249 -5.48239 0
M  V30 2224 H 214.65 0.700703 -4.10158 0
M  V30 2225 H 213.526 1.35909 -5.31808 0
M  V30 2226 H 213.787 2.23193 -3.81625 0
M  V30 2227 N 212.846 1.57033 -0.133567 0
M  V30 2228 C 214.095 1.94861 0.520768 0
M  V30 2229 C 214.408 1.02012 1.66892 0
M  V30 2230 O 215.614 1.29365 2.38699 0
M  V30 2231 C 214.07 3.46362 0.977809 0
M  V30 2232 C 213.678 4.47773 -0.142674 0
M  V30 2233 C 215.422 3.93083 1.60269 0
M  V30 2234 C 213.329 5.90468 0.331883 0
M  V30 2235 H 212.259 0.727453 0.198315 0
M  V30 2236 H 214.91 1.82227 -0.215759 0
M  V30 2237 H 213.292 3.54282 1.7692 0
M  V30 2238 H 214.466 4.51536 -0.919317 0
M  V30 2239 H 212.781 4.10891 -0.675124 0
M  V30 2240 H 215.378 4.97121 1.96914 0
M  V30 2241 H 215.721 3.33876 2.48662 0
M  V30 2242 H 216.254 3.88025 0.876453 0
M  V30 2243 H 212.993 6.53463 -0.516341 0
M  V30 2244 H 212.513 5.90094 1.07469 0
M  V30 2245 H 214.192 6.42179 0.788332 0
M  V30 2246 N 214.325 -0.140222 1.56975 0
M  V30 2247 C 215.273 -1.19207 1.99731 0
M  V30 2248 C 216.267 -1.44089 0.890777 0
M  V30 2249 O 217.473 -1.44301 1.07597 0
M  V30 2250 H 213.848 -0.40142 0.635898 0
M  V30 2251 H 215.819 -0.804813 2.87342 0
M  V30 2252 C 214.568 -2.51617 2.39967 0
M  V30 2253 H 213.891 -2.33303 3.24669 0
M  V30 2254 H 215.331 -3.23827 2.73701 0
M  V30 2255 C 213.79 -3.12654 1.25496 0
M  V30 2256 O 214.32 -3.97786 0.559371 0
M  V30 2257 N 212.526 -2.72206 1.01746 0
M  V30 2258 H 212.073 -2.03074 1.58489 0
M  V30 2259 H 212.031 -3.13377 0.253461 0
M  V30 2260 N 215.803 -1.52179 -0.40978 0
M  V30 2261 C 216.75 -1.75475 -1.49924 0
M  V30 2262 C 217.72 -0.597175 -1.54994 0
M  V30 2263 O 218.905 -0.834655 -1.71575 0
M  V30 2264 C 216.045 -1.9107 -2.87378 0
M  V30 2265 C 215.158 -3.18717 -2.91622 0
M  V30 2266 C 214.293 -3.24747 -4.20372 0
M  V30 2267 C 213.332 -4.46598 -4.18588 0
M  V30 2268 N 212.469 -4.50025 -5.38908 0
M  V30 2269 H 217.309 -2.68458 -1.29361 0
M  V30 2270 H 214.846 -1.33024 -0.627934 0
M  V30 2271 H 216.804 -1.98096 -3.6717 0
M  V30 2272 H 215.434 -1.01469 -3.06437 0
M  V30 2273 H 214.486 -3.20866 -2.04326 0
M  V30 2274 H 215.798 -4.08544 -2.86169 0
M  V30 2275 H 214.952 -3.30841 -5.08556 0
M  V30 2276 H 213.691 -2.32857 -4.28519 0
M  V30 2277 H 212.696 -4.40652 -3.28794 0
M  V30 2278 H 213.921 -5.39783 -4.12081 0
M  V30 2279 H 211.867 -3.61017 -5.47725 0
M  V30 2280 H 211.784 -5.33697 -5.35447 0
M  V30 2281 H 213.052 -4.60347 -6.29048 0
M  V30 2282 N 217.281 0.66697 -1.42791 0
M  V30 2283 C 218.53 1.42278 -1.42968 0
M  V30 2284 C 218.843 1.9553 -0.0524489 0
M  V30 2285 O 220.049 2.71414 0.068363 0
M  V30 2286 C 218.505 2.57418 -2.51524 0
M  V30 2287 C 218.113 2.10832 -3.9529 0
M  V30 2288 C 219.857 3.34878 -2.60877 0
M  V30 2289 C 217.764 3.23101 -4.95338 0
M  V30 2290 H 216.694 0.534533 -0.531781 0
M  V30 2291 H 219.345 0.721302 -1.68729 0
M  V30 2292 H 217.727 3.29971 -2.18941 0
M  V30 2293 H 218.901 1.4538 -4.37266 0
M  V30 2294 H 217.216 1.46289 -3.89857 0
M  V30 2295 H 219.813 4.18505 -3.32802 0
M  V30 2296 H 220.156 3.81993 -1.6549 0
M  V30 2297 H 220.689 2.69398 -2.92693 0
M  V30 2298 H 217.428 2.80969 -5.9223 0
M  V30 2299 H 216.948 3.87309 -4.57987 0
M  V30 2300 H 218.627 3.88447 -5.17415 0
M  V30 2301 N 218.759 1.29093 0.90403 0
M  V30 2302 C 220.036 1.075 1.63411 0
M  V30 2303 C 220.416 -0.382346 2.07609 0
M  V30 2304 O 219.764 -1.37031 1.82851 0
M  V30 2305 C 219.974 2.05858 2.81822 0
M  V30 2306 C 221.322 2.36539 3.52611 0
M  V30 2307 O 222.346 2.04019 2.91984 0
M  V30 2308 O 221.205 2.92085 4.61897 0
M  V30 2309 H 218.299 0.411547 0.717327 0
M  V30 2310 H 220.845 1.40449 0.952479 0
M  V30 2311 H 219.617 3.04037 2.46327 0
M  V30 2312 H 219.24 1.73613 3.57693 0
M  V30 2313 N 220.237 -1.11381 1.11499 0
M  V30 2314 C 221.653 -1.35143 0.849031 0
M  V30 2315 C 221.853 -1.94515 -0.525938 0
M  V30 2316 O 220.909 -2.1785 -1.27662 0
M  V30 2317 C 222.222 -2.28249 1.95762 0
M  V30 2318 C 223.77 -2.41812 1.98736 0
M  V30 2319 C 224.245 -3.3824 3.088 0
M  V30 2320 N 225.736 -3.45803 3.08179 0
M  V30 2321 C 226.471 -4.20358 3.89982 0
M  V30 2322 N 225.967 -4.97884 4.8175 0
M  V30 2323 N 227.76 -4.15877 3.78157 0
M  V30 2324 H 219.911 -0.712062 2.00109 0
M  V30 2325 H 222.174 -0.376025 0.870235 0
M  V30 2326 H 221.88 -1.91817 2.94787 0
M  V30 2327 H 221.754 -3.28473 1.85433 0
M  V30 2328 H 224.141 -2.77518 1.00338 0
M  V30 2329 H 224.222 -1.41437 2.13141 0
M  V30 2330 H 223.866 -3.03261 4.07425 0
M  V30 2331 H 223.796 -4.38471 2.91635 0
M  V30 2332 H 226.287 -2.90506 2.41691 0
M  V30 2333 H 226.6 -5.52142 5.40702 0
M  V30 2334 H 224.945 -4.97043 4.85771 0
M  V30 2335 H 228.136 -3.544 3.05808 0
M  V30 2336 H 228.309 -4.73723 4.42143 0
M  V30 2337 N 221.715 -0.905404 -1.28997 0
M  V30 2338 C 222.645 -0.404212 -2.29975 0
M  V30 2339 C 223.626 0.523784 -1.61835 0
M  V30 2340 O 224.811 0.433298 -1.89304 0
M  V30 2341 C 221.941 0.364042 -3.45387 0
M  V30 2342 C 220.895 -0.474048 -4.25367 0
M  V30 2343 C 220.221 0.422045 -5.33032 0
M  V30 2344 C 221.521 -1.72696 -4.92923 0
M  V30 2345 H 223.215 -1.24807 -2.72146 0
M  V30 2346 H 220.761 -0.601585 -1.30832 0
M  V30 2347 H 222.714 0.725447 -4.15109 0
M  V30 2348 H 221.438 1.24174 -3.02074 0
M  V30 2349 H 220.097 -0.81786 -3.57361 0
M  V30 2350 H 219.745 1.29804 -4.85963 0
M  V30 2351 H 219.445 -0.135057 -5.87445 0
M  V30 2352 H 220.969 0.779517 -6.05604 0
M  V30 2353 H 222.383 -1.43495 -5.55051 0
M  V30 2354 H 220.78 -2.22582 -5.57295 0
M  V30 2355 H 221.85 -2.45964 -4.17887 0
M  V30 2356 N 223.193 1.4272 -0.668489 0
M  V30 2357 C 224.442 2.00846 -0.185389 0
M  V30 2358 C 224.755 1.53442 1.21305 0
M  V30 2359 O 225.961 2.03944 1.79218 0
M  V30 2360 C 224.417 3.58805 -0.280591 0
M  V30 2361 C 224.025 4.15198 -1.68268 0
M  V30 2362 C 225.769 4.24255 0.14412 0
M  V30 2363 C 223.676 5.655 -1.73099 0
M  V30 2364 H 222.606 0.751145 -0.0655475 0
M  V30 2365 H 225.257 1.63516 -0.832752 0
M  V30 2366 H 223.639 3.93608 0.434553 0
M  V30 2367 H 224.813 3.91866 -2.42441 0
M  V30 2368 H 223.128 3.62176 -2.05469 0
M  V30 2369 H 225.725 5.34547 0.128086 0
M  V30 2370 H 226.068 3.99277 1.17827 0
M  V30 2371 H 226.601 3.94389 -0.519798 0
M  V30 2372 H 223.34 5.95268 -2.74475 0
M  V30 2373 H 222.86 5.90842 -1.03274 0
M  V30 2374 H 224.539 6.29808 -1.48158 0
M  V30 2375 N 224.671 0.411399 1.52136 0
M  V30 2376 C 225.917 -0.163888 2.02137 0
M  V30 2377 C 226.25 -1.44597 1.29636 0
M  V30 2378 O 225.525 -1.90272 0.403353 0
M  V30 2379 C 225.808 -0.40927 3.57767 0
M  V30 2380 C 225.661 0.889643 4.40914 0
M  V30 2381 C 226.98 -1.19042 4.23694 0
M  V30 2382 H 224.099 -0.0580896 0.734707 0
M  V30 2383 H 226.741 0.54531 1.82007 0
M  V30 2384 H 224.891 -1.0134 3.7505 0
M  V30 2385 H 226.563 1.52575 4.35337 0
M  V30 2386 H 224.806 1.50011 4.07037 0
M  V30 2387 H 225.477 0.672314 5.4789 0
M  V30 2388 H 227.953 -0.678942 4.10524 0
M  V30 2389 H 226.829 -1.33086 5.32522 0
M  V30 2390 H 227.09 -2.21166 3.82803 0
M  V30 2391 N 226.149 -1.5696 0.141893 0
M  V30 2392 C 227.059 -2.20066 -0.812905 0
M  V30 2393 C 228.075 -1.18344 -1.27557 0
M  V30 2394 O 229.251 -1.50902 -1.33381 0
M  V30 2395 C 226.316 -2.80583 -2.03652 0
M  V30 2396 C 225.377 -3.97414 -1.62359 0
M  V30 2397 C 224.61 -4.55036 -2.78887 0
M  V30 2398 O 224.833 -4.11538 -3.94959 0
M  V30 2399 O 223.767 -5.45376 -2.54653 0
M  V30 2400 H 227.593 -3.02157 -0.305746 0
M  V30 2401 H 225.178 -1.49159 -0.0848799 0
M  V30 2402 H 227.06 -3.19067 -2.75272 0
M  V30 2403 H 225.735 -2.01508 -2.5333 0
M  V30 2404 H 224.642 -3.63656 -0.877775 0
M  V30 2405 H 225.975 -4.77994 -1.17401 0
M  V30 2406 N 227.627 0.131896 -1.57047 0
M  V30 2407 C 228.557 1.16384 -2.02428 0
M  V30 2408 C 229.538 1.43936 -0.90644 0
M  V30 2409 O 230.723 1.54599 -1.17528 0
M  V30 2410 C 227.853 2.49328 -2.4177 0
M  V30 2411 C 226.807 2.36266 -3.56879 0
M  V30 2412 C 226.133 3.74057 -3.8208 0
M  V30 2413 C 227.433 1.834 -4.89042 0
M  V30 2414 H 229.127 0.786433 -2.88887 0
M  V30 2415 H 226.673 0.376855 -1.38981 0
M  V30 2416 H 228.626 3.21759 -2.7212 0
M  V30 2417 H 227.35 2.88934 -1.52266 0
M  V30 2418 H 226.009 1.66286 -3.26718 0
M  V30 2419 H 225.657 4.11125 -2.89803 0
M  V30 2420 H 225.357 3.66174 -4.59554 0
M  V30 2421 H 226.881 4.48012 -4.1487 0
M  V30 2422 H 228.295 2.45636 -5.18011 0
M  V30 2423 H 226.692 1.8637 -5.70426 0
M  V30 2424 H 227.762 0.790662 -4.7841 0
M  V30 2425 N 229.106 1.52395 0.401703 0
M  V30 2426 C 230.053 1.76268 1.48991 0
M  V30 2427 C 231.023 0.605386 1.54675 0
M  V30 2428 O 232.208 0.843742 1.7113 0
M  V30 2429 C 229.348 1.92592 2.86361 0
M  V30 2430 C 228.461 3.20259 2.89928 0
M  V30 2431 C 227.596 3.26972 4.18644 0
M  V30 2432 C 226.635 4.48812 4.16214 0
M  V30 2433 N 225.772 4.52877 5.36514 0
M  V30 2434 H 230.612 2.6914 1.27935 0
M  V30 2435 H 228.149 1.33355 0.620871 0
M  V30 2436 H 230.107 2.0004 3.66115 0
M  V30 2437 H 228.737 1.03093 3.05895 0
M  V30 2438 H 227.789 3.21945 2.02621 0
M  V30 2439 H 229.101 4.10056 2.83999 0
M  V30 2440 H 228.255 3.33533 5.06794 0
M  V30 2441 H 226.994 2.35126 4.27278 0
M  V30 2442 H 225.999 4.4239 3.26453 0
M  V30 2443 H 227.224 5.41961 4.09213 0
M  V30 2444 H 225.17 3.63917 5.45802 0
M  V30 2445 H 225.087 5.36529 5.32609 0
M  V30 2446 H 226.355 4.63676 6.26597 0
M  V30 2447 N 230.584 -0.659388 1.43143 0
M  V30 2448 C 231.831 -1.41935 1.44433 0
M  V30 2449 C 232.159 -1.94387 0.0663522 0
M  V30 2450 O 231.414 -1.72314 -0.927706 0
M  V30 2451 C 231.713 -2.62206 2.42864 0
M  V30 2452 C 231.379 -2.28208 3.88886 0
M  V30 2453 C 230.041 -2.18647 4.28657 0
M  V30 2454 C 232.393 -2.00887 4.8093 0
M  V30 2455 C 229.721 -1.79914 5.58433 0
M  V30 2456 C 232.073 -1.63653 6.11065 0
M  V30 2457 C 230.737 -1.52614 6.49819 0
M  V30 2458 H 230.007 -0.519376 0.528517 0
M  V30 2459 H 232.654 -0.750453 1.76183 0
M  V30 2460 H 230.959 -3.34199 2.04495 0
M  V30 2461 H 232.656 -3.2041 2.41119 0
M  V30 2462 H 229.246 -2.36557 3.57406 0
M  V30 2463 H 233.43 -2.07198 4.5098 0
M  V30 2464 H 228.686 -1.69948 5.87305 0
M  V30 2465 H 232.86 -1.41543 6.81864 0
M  V30 2466 H 230.487 -1.22371 7.50286 0
M  V30 2467 N 232.062 -1.29571 -0.897171 0
M  V30 2468 C 233.29 -1.20583 -1.68129 0
M  V30 2469 C 233.705 0.233181 -1.87354 0
M  V30 2470 O 233.062 1.15579 -1.41236 0
M  V30 2471 C 233.113 -1.91772 -3.06441 0
M  V30 2472 O 232.834 -3.30053 -2.88091 0
M  V30 2473 C 234.335 -1.89291 -4.00854 0
M  V30 2474 H 231.555 -0.417826 -0.525036 0
M  V30 2475 H 234.099 -1.70987 -1.12177 0
M  V30 2476 H 232.254 -1.45196 -3.59161 0
M  V30 2477 H 232.668 -3.65942 -3.75748 0
M  V30 2478 H 234.142 -2.43662 -4.95311 0
M  V30 2479 H 234.619 -0.869014 -4.30517 0
M  V30 2480 H 235.225 -2.35622 -3.54066 0
M  V30 2481 N 233.54 1.10788 -1.12088 0
M  V30 2482 C 234.951 1.64181 -0.88891 0
M  V30 2483 C 235.302 1.87508 0.577498 0
M  V30 2484 O 234.427 1.61434 1.44112 0
M  V30 2485 C 235.022 2.98257 -1.60712 0
M  V30 2486 C 233.581 3.4853 -1.42139 0
M  V30 2487 C 232.728 2.23208 -1.6454 0
M  V30 2488 H 235.679 0.943368 -1.27618 0
M  V30 2489 H 235.7 3.65552 -1.05604 0
M  V30 2490 H 235.212 2.81246 -2.67436 0
M  V30 2491 H 233.313 3.70692 -0.376552 0
M  V30 2492 H 233.426 4.26882 -2.17505 0
M  V30 2493 H 231.79 2.31169 -1.06925 0
M  V30 2494 H 232.573 2.08733 -2.72554 0
M  V30 2495 N 235.018 0.912232 1.28515 0
M  V30 2496 C 235.95 0.35676 2.26406 0
M  V30 2497 C 236.963 -0.503933 1.54804 0
M  V30 2498 O 238.152 -0.319059 1.75625 0
M  V30 2499 C 235.252 -0.508825 3.35058 0
M  V30 2500 C 234.425 0.329007 4.36161 0
M  V30 2501 C 233.484 -0.471422 5.24084 0
M  V30 2502 O 232.51 0.115482 5.69083 0
M  V30 2503 N 233.712 -1.77479 5.52704 0
M  V30 2504 H 236.477 1.19818 2.74707 0
M  V30 2505 H 234.038 0.778022 1.4198 0
M  V30 2506 H 236.03 -1.051 3.90815 0
M  V30 2507 H 234.6 -1.25095 2.86478 0
M  V30 2508 H 233.82 1.05256 3.79888 0
M  V30 2509 H 235.108 0.90234 5.00735 0
M  V30 2510 H 234.506 -2.27417 5.17975 0
M  V30 2511 H 233.063 -2.26382 6.11224 0
M  V30 2512 N 236.496 -1.42363 0.676048 0
M  V30 2513 C 237.406 -2.346 -0.00153389 0
M  V30 2514 C 238.422 -1.5516 -0.787485 0
M  V30 2515 O 239.598 -1.87723 -0.729521 0
M  V30 2516 C 236.663 -3.33705 -0.940298 0
M  V30 2517 C 235.724 -4.29042 -0.148739 0
M  V30 2518 C 234.957 -5.23413 -1.04279 0
M  V30 2519 O 235.18 -5.22749 -2.28232 0
M  V30 2520 O 234.114 -5.99795 -0.502925 0
M  V30 2521 H 237.94 -2.94082 0.758268 0
M  V30 2522 H 235.525 -1.42888 0.436289 0
M  V30 2523 H 237.407 -3.94586 -1.47917 0
M  V30 2524 H 236.082 -2.76695 -1.67993 0
M  V30 2525 H 234.989 -3.71571 0.43427 0
M  V30 2526 H 236.322 -4.89097 0.551805 0
M  V30 2527 N 237.974 -0.419461 -1.51915 0
M  V30 2528 C 238.937 0.389116 -2.25873 0
M  V30 2529 C 239.937 0.964924 -1.28631 0
M  V30 2530 O 241.127 0.842179 -1.52489 0
M  V30 2531 C 238.259 1.54874 -3.03689 0
M  V30 2532 H 239.452 -0.258799 -2.98781 0
M  V30 2533 H 237.005 -0.172209 -1.55348 0
M  V30 2534 H 237.74 2.23323 -2.35154 0
M  V30 2535 H 237.525 1.14223 -3.75094 0
M  V30 2536 H 239.015 2.12046 -3.59759 0
M  V30 2537 N 239.452 1.56882 -0.150215 0
M  V30 2538 C 240.682 2.00302 0.506213 0
M  V30 2539 C 241.09 1.02934 1.58749 0
M  V30 2540 O 240.433 0.0188384 1.8369 0
M  V30 2541 C 240.495 3.40156 1.16337 0
M  V30 2542 C 240.159 4.56439 0.226311 0
M  V30 2543 C 241.156 5.17012 -0.547265 0
M  V30 2544 C 238.841 5.02136 0.128279 0
M  V30 2545 C 240.835 6.21693 -1.40629 0
M  V30 2546 C 238.522 6.06672 -0.734345 0
M  V30 2547 C 239.52 6.6632 -1.50023 0
M  V30 2548 O 239.208 7.68831 -2.34848 0
M  V30 2549 H 238.94 0.662182 0.135984 0
M  V30 2550 H 241.494 2.03961 -0.242746 0
M  V30 2551 H 239.724 3.33346 1.96004 0
M  V30 2552 H 241.413 3.67663 1.71985 0
M  V30 2553 H 242.179 4.82603 -0.48158 0
M  V30 2554 H 238.058 4.55435 0.714157 0
M  V30 2555 H 241.602 6.68179 -2.00455 0
M  V30 2556 H 237.499 6.40507 -0.801309 0
M  V30 2557 H 238.267 7.86065 -2.28131 0
M  V30 2558 N 240.93 -0.123565 1.57115 0
M  V30 2559 C 242.155 -0.850398 1.89164 0
M  V30 2560 C 242.58 -1.7286 0.741688 0
M  V30 2561 O 241.938 -1.78665 -0.307958 0
M  V30 2562 C 241.986 -1.66353 3.19936 0
M  V30 2563 O 241.09 -2.77004 3.0552 0
M  V30 2564 H 240.431 -0.235454 0.620852 0
M  V30 2565 H 242.961 -0.107335 2.04318 0
M  V30 2566 H 242.971 -2.05372 3.52543 0
M  V30 2567 H 241.646 -1.01881 4.03228 0
M  V30 2568 H 240.223 -2.41221 2.84371 0
M  V30 2569 N 242.408 -1.52605 -0.393616 0
M  V30 2570 C 243.358 -1.73436 -1.48 0
M  V30 2571 C 244.342 -0.588386 -1.49756 0
M  V30 2572 O 245.534 -0.846047 -1.5547 0
M  V30 2573 C 242.663 -1.90247 -2.85764 0
M  V30 2574 C 241.749 -3.10763 -2.88595 0
M  V30 2575 N 242.14 -4.33196 -2.61103 0
M  V30 2576 C 240.438 -3.10914 -3.19763 0
M  V30 2577 C 241.139 -5.1477 -2.70899 0
M  V30 2578 N 240.115 -4.50356 -3.04435 0
M  V30 2579 H 243.917 -2.65727 -1.25563 0
M  V30 2580 H 241.431 -1.5085 -0.601513 0
M  V30 2581 H 243.428 -2.03291 -3.63976 0
M  V30 2582 H 242.088 -0.991663 -3.09186 0
M  V30 2583 H 243.099 -4.61408 -2.35209 0
M  V30 2584 H 239.776 -2.29626 -3.4868 0
M  V30 2585 H 241.166 -6.22355 -2.53227 0
M  V30 2586 N 243.887 0.651787 -1.4349 0
M  V30 2587 C 244.817 1.77621 -1.51569 0
M  V30 2588 C 245.798 1.66022 -0.370253 0
M  V30 2589 O 246.983 1.85095 -0.587658 0
M  V30 2590 C 244.113 3.16056 -1.43966 0
M  V30 2591 C 243.067 3.4242 -2.56774 0
M  V30 2592 C 242.393 4.8067 -2.34223 0
M  V30 2593 C 243.693 3.37023 -3.99015 0
M  V30 2594 H 245.387 1.71117 -2.45681 0
M  V30 2595 H 242.933 0.821825 -1.18246 0
M  V30 2596 H 244.886 3.94472 -1.48221 0
M  V30 2597 H 243.61 3.23293 -0.463586 0
M  V30 2598 H 242.269 2.66375 -2.51873 0
M  V30 2599 H 241.917 4.84585 -1.34856 0
M  V30 2600 H 241.617 4.9927 -3.09844 0
M  V30 2601 H 243.141 5.61342 -2.40265 0
M  V30 2602 H 244.555 4.05374 -4.05395 0
M  V30 2603 H 242.952 3.67159 -4.74673 0
M  V30 2604 H 244.022 2.3518 -4.2405 0
M  V30 2605 N 245.365 1.30045 0.890287 0
M  V30 2606 C 246.312 1.15976 1.99545 0
M  V30 2607 C 247.282 0.0506202 1.66023 0
M  V30 2608 O 248.467 0.219847 1.89529 0
M  V30 2609 C 245.607 0.852054 3.34416 0
M  V30 2610 C 244.72 2.04255 3.80662 0
M  V30 2611 C 243.855 1.6734 5.04154 0
M  V30 2612 C 242.894 2.82916 5.42794 0
M  V30 2613 N 242.031 2.46333 6.57468 0
M  V30 2614 H 246.871 2.10524 2.10911 0
M  V30 2615 H 244.408 1.04749 1.03276 0
M  V30 2616 H 246.366 0.654296 4.12037 0
M  V30 2617 H 244.996 -0.0565502 3.2275 0
M  V30 2618 H 244.048 2.35172 2.98995 0
M  V30 2619 H 245.36 2.90826 4.05242 0
M  V30 2620 H 244.514 1.43908 5.89386 0
M  V30 2621 H 243.253 0.779308 4.81433 0
M  V30 2622 H 242.258 3.0702 4.56091 0
M  V30 2623 H 243.483 3.73004 5.6749 0
M  V30 2624 H 241.429 1.59423 6.36334 0
M  V30 2625 H 241.346 3.26436 6.81891 0
M  V30 2626 H 242.614 2.26244 7.45945 0
M  V30 2627 N 246.843 -1.10192 1.12674 0
M  V30 2628 C 247.791 -2.18694 0.792196 0
M  V30 2629 C 248.785 -1.67938 -0.222058 0
M  V30 2630 O 249.991 -1.79822 -0.0800074 0
M  V30 2631 H 246.366 -0.713223 0.238364 0
M  V30 2632 H 248.337 -2.44149 1.71564 0
M  V30 2633 C 247.086 -3.46682 0.265859 0
M  V30 2634 H 246.409 -3.86101 1.03761 0
M  V30 2635 H 247.849 -4.23942 0.0701128 0
M  V30 2636 C 246.308 -3.21506 -1.00675 0
M  V30 2637 O 246.838 -3.43408 -2.08408 0
M  V30 2638 N 245.044 -2.75158 -0.934692 0
M  V30 2639 H 244.591 -2.57535 -0.0578604 0
M  V30 2640 H 244.549 -2.58691 -1.7868 0
M  V30 2641 N 248.321 -0.919034 -1.28029 0
M  V30 2642 C 249.57 -0.550802 -1.94034 0
M  V30 2643 C 249.883 0.910877 -1.73096 0
M  V30 2644 O 251.089 1.3875 -2.33368 0
M  V30 2645 C 249.545 -0.934249 -3.47563 0
M  V30 2646 C 249.153 -2.41602 -3.7727 0
M  V30 2647 C 250.897 -0.636854 -4.19696 0
M  V30 2648 C 248.804 -2.73932 -5.24133 0
M  V30 2649 H 247.734 -0.202273 -0.726362 0
M  V30 2650 H 250.385 -1.11867 -1.45458 0
M  V30 2651 H 248.767 -0.295115 -3.94899 0
M  V30 2652 H 249.941 -3.10233 -3.40723 0
M  V30 2653 H 248.256 -2.68441 -3.18321 0
M  V30 2654 H 250.853 -0.855005 -5.2782 0
M  V30 2655 H 251.196 0.425575 -4.14119 0
M  V30 2656 H 251.729 -1.23469 -3.78154 0
M  V30 2657 H 248.468 -3.79049 -5.34792 0
M  V30 2658 H 247.988 -2.09942 -5.61858 0
M  V30 2659 H 249.667 -2.61215 -5.91925 0
M  V30 2660 N 249.799 1.42003 -0.683588 0
M  V30 2661 C 250.729 2.33487 -0.024866 0
M  V30 2662 C 251.71 1.51163 0.779975 0
M  V30 2663 O 252.895 1.79739 0.735362 0
M  V30 2664 C 250.025 3.3487 0.920836 0
M  V30 2665 C 248.979 4.27414 0.223958 0
M  V30 2666 C 248.305 5.19074 1.2832 0
M  V30 2667 C 249.605 5.14445 -0.90242 0
M  V30 2668 H 251.299 2.88819 -0.788921 0
M  V30 2669 H 248.845 1.38873 -0.38083 0
M  V30 2670 H 250.798 3.97787 1.39081 0
M  V30 2671 H 249.522 2.77861 1.71642 0
M  V30 2672 H 248.181 3.65904 -0.225864 0
M  V30 2673 H 247.829 4.58387 2.071 0
M  V30 2674 H 247.529 5.81822 0.821995 0
M  V30 2675 H 249.053 5.84867 1.75392 0
M  V30 2676 H 250.467 5.70998 -0.513272 0
M  V30 2677 H 248.864 5.86072 -1.28997 0
M  V30 2678 H 249.934 4.52322 -1.74737 0
M  V30 2679 N 251.277 0.427512 1.51691 0
M  V30 2680 C 252.187 -0.39527 2.31246 0
M  V30 2681 C 253.203 -1.03674 1.39742 0
M  V30 2682 O 254.379 -1.03425 1.72816 0
M  V30 2683 C 251.444 -1.48706 3.13189 0
M  V30 2684 C 250.505 -0.866743 4.20459 0
M  V30 2685 C 249.738 -1.90651 4.98486 0
M  V30 2686 O 249.961 -3.12733 4.77026 0
M  V30 2687 O 248.895 -1.5025 5.82845 0
M  V30 2688 H 252.721 0.253918 3.02637 0
M  V30 2689 H 250.306 0.190274 1.48183 0
M  V30 2690 H 252.188 -2.12047 3.64162 0
M  V30 2691 H 250.863 -2.12051 2.44573 0
M  V30 2692 H 249.77 -0.195544 3.73589 0
M  V30 2693 H 251.103 -0.276934 4.9142 0
M  V30 2694 N 252.755 -1.56801 0.158532 0
M  V30 2695 C 253.687 -2.14488 -0.807923 0
M  V30 2696 C 254.7 -1.09721 -1.20271 0
M  V30 2697 O 255.889 -1.36956 -1.14478 0
M  V30 2698 C 252.989 -2.66217 -2.09718 0
M  V30 2699 C 252.162 -3.95507 -1.86796 0
M  V30 2700 C 251.221 -4.3243 -2.99818 0
M  V30 2701 O 250.247 -5.00543 -2.71008 0
M  V30 2702 N 251.449 -3.92947 -4.27285 0
M  V30 2703 H 254.214 -2.98042 -0.314816 0
M  V30 2704 H 251.775 -1.61881 -0.0246692 0
M  V30 2705 H 253.767 -2.87924 -2.84398 0
M  V30 2706 H 252.337 -1.87324 -2.50257 0
M  V30 2707 H 251.557 -3.82309 -0.96089 0
M  V30 2708 H 252.845 -4.79972 -1.68833 0
M  V30 2709 H 252.243 -3.38087 -4.53557 0
M  V30 2710 H 250.8 -4.19681 -4.9871 0
M  V30 2711 N 254.233 0.115231 -1.57178 0
M  V30 2712 C 255.482 0.820945 -1.84237 0
M  V30 2713 C 255.795 1.80866 -0.744761 0
M  V30 2714 O 257.001 2.56083 -0.901871 0
M  V30 2715 C 255.457 1.51072 -3.26658 0
M  V30 2716 C 255.065 0.563795 -4.44438 0
M  V30 2717 C 256.809 2.20134 -3.62962 0
M  V30 2718 C 254.716 1.25701 -5.77887 0
M  V30 2719 H 253.646 0.310328 -0.687177 0
M  V30 2720 H 256.297 0.0737134 -1.83352 0
M  V30 2721 H 254.679 2.30471 -3.22024 0
M  V30 2722 H 255.853 -0.197247 -4.60378 0
M  V30 2723 H 254.168 -0.0200638 -4.16395 0
M  V30 2724 H 256.765 2.72696 -4.59936 0
M  V30 2725 H 257.108 2.98107 -2.90582 0
M  V30 2726 H 257.641 1.47619 -3.69396 0
M  V30 2727 H 254.38 0.518493 -6.53446 0
M  V30 2728 H 253.9 1.98997 -5.65827 0
M  V30 2729 H 255.579 1.78915 -6.2177 0
M  V30 2730 N 255.711 1.52812 0.385517 0
M  V30 2731 C 256.659 1.78482 1.49155 0
M  V30 2732 C 257.653 0.652914 1.56312 0
M  V30 2733 O 258.859 0.835464 1.59436 0
M  V30 2734 H 255.234 0.5648 0.496493 0
M  V30 2735 H 257.205 2.71095 1.24699 0
M  V30 2736 C 255.954 1.97378 2.86247 0
M  V30 2737 H 255.277 2.83907 2.81491 0
M  V30 2738 H 256.717 2.19327 3.62866 0
M  V30 2739 C 255.176 0.74728 3.28508 0
M  V30 2740 O 255.706 -0.0736232 4.01633 0
M  V30 2741 N 253.912 0.576396 2.84826 0
M  V30 2742 H 253.459 1.24555 2.25486 0
M  V30 2743 H 253.417 -0.24288 3.1346 0
M  V30 2744 N 257.189 -0.644168 1.43834 0
M  V30 2745 C 258.152 -1.73857 1.49353 0
M  V30 2746 C 259.152 -1.56315 0.377112 0
M  V30 2747 O 260.342 -1.62048 0.639226 0
M  V30 2748 C 257.474 -3.12819 1.35488 0
M  V30 2749 H 258.667 -1.70342 2.46827 0
M  V30 2750 H 256.22 -0.856652 1.30733 0
M  V30 2751 H 256.955 -3.2194 0.390569 0
M  V30 2752 H 256.74 -3.26958 2.16428 0
M  V30 2753 H 258.23 -3.92606 1.42302 0
M  V30 2754 N 258.668 -1.30515 -0.883378 0
M  V30 2755 C 259.598 -1.19607 -2.00541 0
M  V30 2756 C 260.579 -0.086346 -1.69881 0
M  V30 2757 O 261.764 -0.268654 -1.92333 0
M  V30 2758 C 258.894 -0.888758 -3.35736 0
M  V30 2759 C 257.848 -1.95659 -3.8066 0
M  V30 2760 C 257.174 -1.50224 -5.13164 0
M  V30 2761 C 258.474 -3.36788 -3.99213 0
M  V30 2762 H 260.168 -2.13476 -2.09925 0
M  V30 2763 H 257.714 -1.02775 -1.00863 0
M  V30 2764 H 259.667 -0.799094 -4.13754 0
M  V30 2765 H 258.391 0.0856125 -3.26488 0
M  V30 2766 H 257.05 -2.03591 -3.04871 0
M  V30 2767 H 256.698 -0.516092 -5.00345 0
M  V30 2768 H 256.398 -2.2165 -5.44192 0
M  V30 2769 H 257.922 -1.42639 -5.93706 0
M  V30 2770 H 259.336 -3.31605 -4.67665 0
M  V30 2771 H 257.733 -4.06314 -4.41621 0
M  V30 2772 H 258.803 -3.78561 -3.03017 0
M  V30 2773 N 260.146 1.09593 -1.13257 0
M  V30 2774 C 261.374 1.855 -0.916378 0
M  V30 2775 C 261.789 1.81069 0.534738 0
M  V30 2776 O 261.146 1.20562 1.37007 0
M  V30 2777 C 261.197 3.33546 -1.39388 0
M  V30 2778 O 260.918 3.37927 -2.78813 0
M  V30 2779 C 262.419 4.26299 -1.21588 0
M  V30 2780 H 259.639 0.585991 -0.326887 0
M  V30 2781 H 262.183 1.38488 -1.5047 0
M  V30 2782 H 260.338 3.77992 -0.848597 0
M  V30 2783 H 260.752 4.30254 -2.9997 0
M  V30 2784 H 262.226 5.28341 -1.59876 0
M  V30 2785 H 262.703 4.38918 -0.157376 0
M  V30 2786 H 263.309 3.87668 -1.7491 0
M  V30 2787 N 261.624 0.925811 1.2754 0
M  V30 2788 C 262.872 0.564138 1.94067 0
M  V30 2789 C 263.193 -0.897188 1.73134 0
M  V30 2790 O 262.463 -1.63573 1.07799 0
M  V30 2791 H 261.043 0.205645 0.718136 0
M  V30 2792 H 263.705 1.1778 1.55287 0
M  V30 2793 H 262.801 0.76881 3.02483 0
M  V30 2794 N 263.102 -1.41638 0.69111 0
M  V30 2795 C 264.33 -2.05628 0.22909 0
M  V30 2796 C 264.745 -1.51992 -1.11999 0
M  V30 2797 O 264.102 -0.666322 -1.69901 0
M  V30 2798 C 264.153 -3.61084 0.173283 0
M  V30 2799 O 263.874 -4.12735 1.46907 0
M  V30 2800 C 265.375 -4.42213 -0.310266 0
M  V30 2801 H 262.595 -0.662327 0.107534 0
M  V30 2802 H 265.139 -1.81489 0.942438 0
M  V30 2803 H 263.294 -3.84278 -0.490858 0
M  V30 2804 H 263.708 -5.06743 1.35322 0
M  V30 2805 H 265.182 -5.51194 -0.298196 0
M  V30 2806 H 265.659 -4.1799 -1.34838 0
M  V30 2807 H 266.265 -4.24074 0.322716 0
M  V30 2808 N 264.58 -0.43555 -1.51462 0
M  V30 2809 C 265.51 0.367376 -2.30592 0
M  V30 2810 C 266.491 1.02263 -1.35928 0
M  V30 2811 O 267.676 1.02661 -1.64847 0
M  V30 2812 C 264.806 1.46983 -3.14664 0
M  V30 2813 C 263.76 0.938161 -4.17591 0
M  V30 2814 C 263.086 2.13622 -4.90173 0
M  V30 2815 C 264.386 -0.0261621 -5.22293 0
M  V30 2816 H 266.08 -0.292969 -2.97963 0
M  V30 2817 H 263.626 -0.14234 -1.43295 0
M  V30 2818 H 265.579 2.03873 -3.688 0
M  V30 2819 H 264.303 2.15843 -2.4511 0
M  V30 2820 H 262.962 0.391481 -3.64504 0
M  V30 2821 H 262.61 2.81098 -4.17124 0
M  V30 2822 H 262.31 1.78688 -5.59772 0
M  V30 2823 H 263.834 2.7107 -5.47132 0
M  V30 2824 H 265.248 0.452384 -5.71512 0
M  V30 2825 H 263.645 -0.287992 -5.99409 0
M  V30 2826 H 264.715 -0.963391 -4.75233 0
M  V30 2827 N 266.058 1.56714 -0.166846 0
M  V30 2828 C 267.305 1.96747 0.479252 0
M  V30 2829 C 267.633 1.05263 1.63554 0
M  V30 2830 O 266.888 0.0858098 1.95512 0
M  V30 2831 C 267.187 3.42889 1.00806 0
M  V30 2832 C 266.853 4.50889 -0.0318574 0
M  V30 2833 C 265.515 4.8015 -0.317675 0
M  V30 2834 C 267.867 5.15949 -0.737956 0
M  V30 2835 C 265.195 5.71772 -1.31506 0
M  V30 2836 C 267.547 6.08647 -1.72429 0
M  V30 2837 C 266.211 6.36277 -2.0176 0
M  V30 2838 H 265.481 0.719949 0.175371 0
M  V30 2839 H 268.128 1.89756 -0.257864 0
M  V30 2840 H 266.433 3.4681 1.82291 0
M  V30 2841 H 268.13 3.71203 1.51689 0
M  V30 2842 H 264.72 4.28128 0.201088 0
M  V30 2843 H 268.904 4.93458 -0.530351 0
M  V30 2844 H 264.16 5.91465 -1.54853 0
M  V30 2845 H 268.334 6.58129 -2.27682 0
M  V30 2846 H 265.961 7.07075 -2.79194 0
M  V30 2847 N 267.536 -0.106894 1.57237 0
M  V30 2848 C 268.764 -0.826389 1.8968 0
M  V30 2849 C 269.179 -1.72856 0.759353 0
M  V30 2850 O 268.536 -1.80503 -0.269263 0
M  V30 2851 C 268.587 -1.64967 3.21665 0
M  V30 2852 O 268.308 -0.783804 4.31031 0
M  V30 2853 C 269.809 -2.47326 3.67892 0
M  V30 2854 H 267.029 -0.236927 0.627779 0
M  V30 2855 H 269.573 -0.0876593 2.04312 0
M  V30 2856 H 267.728 -2.34103 3.08666 0
M  V30 2857 H 268.142 -1.35284 5.06753 0
M  V30 2858 H 269.616 -3.00604 4.6297 0
M  V30 2859 H 270.093 -3.25247 2.95146 0
M  V30 2860 H 270.699 -1.83411 3.83719 0
M  V30 2861 N 269.014 -1.53014 -0.377408 0
M  V30 2862 C 270.239 -1.72818 -1.14668 0
M  V30 2863 C 270.664 -0.450725 -1.8262 0
M  V30 2864 O 270.022 0.59439 -1.7128 0
M  V30 2865 C 270.07 -2.88627 -2.16164 0
M  V30 2866 O 269.174 -2.56409 -3.22998 0
M  V30 2867 H 268.515 -0.574301 -0.333278 0
M  V30 2868 H 271.045 -1.99853 -0.438152 0
M  V30 2869 H 271.055 -3.14455 -2.59966 0
M  V30 2870 H 269.73 -3.81294 -1.66095 0
M  V30 2871 H 268.307 -2.4136 -2.84253 0
M  V30 2872 N 270.492 0.636531 -1.44174 0
M  V30 2873 C 271.439 1.74875 -1.50624 0
M  V30 2874 C 272.409 1.62275 -0.35442 0
M  V30 2875 O 273.594 1.82276 -0.563908 0
M  V30 2876 C 270.734 3.13102 -1.45125 0
M  V30 2877 C 269.847 3.36717 -2.7064 0
M  V30 2878 C 268.982 4.64885 -2.57013 0
M  V30 2879 C 268.021 4.8166 -3.77717 0
M  V30 2880 N 267.158 6.01101 -3.62798 0
M  V30 2881 H 271.998 1.68697 -2.45653 0
M  V30 2882 H 269.535 0.823004 -1.21922 0
M  V30 2883 H 271.493 3.93034 -1.39929 0
M  V30 2884 H 270.123 3.18308 -0.536671 0
M  V30 2885 H 269.175 2.50763 -2.86046 0
M  V30 2886 H 270.487 3.44993 -3.60252 0
M  V30 2887 H 269.641 5.52969 -2.49619 0
M  V30 2888 H 268.38 4.58957 -1.64953 0
M  V30 2889 H 267.385 3.92007 -3.85501 0
M  V30 2890 H 268.61 4.89406 -4.70807 0
M  V30 2891 H 266.556 5.96273 -2.73486 0
M  V30 2892 H 266.473 6.10409 -4.46023 0
M  V30 2893 H 267.741 6.91761 -3.59286 0
M  V30 2894 N 271.97 1.30982 0.876444 0
M  V30 2895 C 273.216 1.20474 1.63138 0
M  V30 2896 C 273.549 -0.238096 1.92735 0
M  V30 2897 O 272.824 -1.1692 1.55435 0
M  V30 2898 C 273.107 2.04244 2.96574 0
M  V30 2899 C 272.96 3.56793 2.73896 0
M  V30 2900 C 274.279 1.88684 3.97601 0
M  V30 2901 H 271.398 0.439001 0.591985 0
M  V30 2902 H 274.04 1.60704 1.01361 0
M  V30 2903 H 272.19 1.70063 3.493 0
M  V30 2904 H 273.862 4.01077 2.27892 0
M  V30 2905 H 272.105 3.80548 2.08245 0
M  V30 2906 H 272.776 4.10706 3.68815 0
M  V30 2907 H 275.252 2.18584 3.54062 0
M  V30 2908 H 274.128 2.4961 4.88862 0
M  V30 2909 H 274.389 0.848343 4.33884 0
M  V30 2910 N 273.449 -1.08991 1.13837 0
M  V30 2911 C 274.379 -2.17771 0.842507 0
M  V30 2912 C 275.36 -1.6892 -0.20001 0
M  V30 2913 O 276.545 -1.94113 -0.0579731 0
M  V30 2914 C 273.675 -3.4589 0.312644 0
M  V30 2915 C 272.629 -4.08099 1.28992 0
M  V30 2916 C 271.955 -5.31098 0.619623 0
M  V30 2917 C 273.255 -4.50077 2.65005 0
M  V30 2918 H 274.949 -2.42777 1.75213 0
M  V30 2919 H 272.495 -1.16682 0.843875 0
M  V30 2920 H 274.448 -4.21297 0.0933043 0
M  V30 2921 H 273.172 -3.20419 -0.632382 0
M  V30 2922 H 271.831 -3.34717 1.49533 0
M  V30 2923 H 271.479 -5.0191 -0.33102 0
M  V30 2924 H 271.179 -5.73674 1.27167 0
M  V30 2925 H 272.703 -6.09224 0.409669 0
M  V30 2926 H 274.117 -5.16688 2.48407 0
M  V30 2927 H 272.514 -5.03553 3.26427 0
M  V30 2928 H 273.584 -3.62257 3.22332 0
M  V30 2929 N 274.927 -0.932562 -1.27047 0
M  V30 2930 C 275.837 -0.441219 -2.30414 0
M  V30 2931 C 276.853 0.480525 -1.67233 0
M  V30 2932 O 278.029 0.362151 -1.98117 0
M  V30 2933 C 275.094 0.293651 -3.45454 0
M  V30 2934 C 274.155 -0.663601 -4.2414 0
M  V30 2935 C 273.388 0.0362932 -5.33688 0
M  V30 2936 O 273.611 1.2548 -5.56427 0
M  V30 2937 O 272.545 -0.638015 -5.98509 0
M  V30 2938 H 276.371 -1.29962 -2.74488 0
M  V30 2939 H 273.956 -0.6981 -1.32087 0
M  V30 2940 H 275.838 0.707951 -4.15411 0
M  V30 2941 H 274.513 1.12758 -3.03426 0
M  V30 2942 H 273.42 -1.12768 -3.56699 0
M  V30 2943 H 274.753 -1.46489 -4.69896 0
M  V30 2944 N 276.405 1.4127 -0.698611 0
M  V30 2945 C 277.315 2.34573 -0.0357891 0
M  V30 2946 C 278.331 1.56393 0.762701 0
M  V30 2947 O 279.507 1.8886 0.699564 0
M  V30 2948 C 276.572 3.35159 0.887089 0
M  V30 2949 C 275.633 4.29225 0.0804634 0
M  V30 2950 C 274.866 5.25006 0.959387 0
M  V30 2951 O 275.089 5.26314 2.19886 0
M  V30 2952 O 274.023 6.00519 0.407439 0
M  V30 2953 H 277.849 2.92838 -0.804957 0
M  V30 2954 H 275.434 1.42175 -0.458966 0
M  V30 2955 H 277.316 3.9689 1.41621 0
M  V30 2956 H 275.991 2.79333 1.6357 0
M  V30 2957 H 274.898 3.70833 -0.493328 0
M  V30 2958 H 276.231 4.88157 -0.629547 0
M  V30 2959 N 277.883 0.443576 1.51229 0
M  V30 2960 C 279.299 0.0962001 1.5931 0
M  V30 2961 C 279.499 -1.39501 1.45402 0
M  V30 2962 O 278.555 -2.16557 1.29843 0
M  V30 2963 C 279.868 0.621875 2.94199 0
M  V30 2964 C 281.416 0.582865 3.07525 0
M  V30 2965 C 281.891 1.08562 4.44948 0
M  V30 2966 N 283.382 1.04387 4.51284 0
M  V30 2967 C 284.117 1.40368 5.55954 0
M  V30 2968 N 283.613 1.83664 6.68011 0
M  V30 2969 N 285.406 1.32145 5.46346 0
M  V30 2970 H 277.557 1.41376 1.58514 0
M  V30 2971 H 279.82 0.582965 0.747567 0
M  V30 2972 H 279.526 1.66546 3.09767 0
M  V30 2973 H 279.4 0.0502125 3.77167 0
M  V30 2974 H 281.787 -0.451749 2.91622 0
M  V30 2975 H 281.868 1.191 2.26382 0
M  V30 2976 H 281.512 2.11873 4.61598 0
M  V30 2977 H 281.442 0.453956 5.2464 0
M  V30 2978 H 283.933 0.725986 3.70861 0
M  V30 2979 H 284.246 2.0934 7.43906 0
M  V30 2980 H 282.591 1.87596 6.69203 0
M  V30 2981 H 285.782 0.981808 4.57688 0
M  V30 2982 H 285.955 1.60514 6.27805 0
M  V30 2983 N 279.361 -1.56624 0.175154 0
M  V30 2984 C 280.324 -2.16934 -0.739738 0
M  V30 2985 C 281.324 -1.11842 -1.15533 0
M  V30 2986 O 282.514 -1.37335 -1.07167 0
M  V30 2987 C 279.646 -2.75531 -2.00738 0
M  V30 2988 H 280.839 -2.99131 -0.214639 0
M  V30 2989 H 278.392 -1.56123 -0.0744197 0
M  V30 2990 H 279.127 -1.97078 -2.57548 0
M  V30 2991 H 278.912 -3.52444 -1.71831 0
M  V30 2992 H 280.402 -3.21904 -2.66021 0
M  V30 2993 N 280.839 0.0985539 -1.57292 0
M  V30 2994 C 281.749 1.13824 -2.05137 0
M  V30 2995 C 282.765 1.44076 -0.975604 0
M  V30 2996 O 283.941 1.54786 -1.28853 0
M  V30 2997 C 281.006 2.43969 -2.46333 0
M  V30 2998 C 280.067 2.2093 -3.68087 0
M  V30 2999 C 279.3 3.44869 -4.0731 0
M  V30 3000 O 279.523 4.52972 -3.46659 0
M  V30 3001 O 278.457 3.34661 -5.00285 0
M  V30 3002 H 282.283 0.761881 -2.93988 0
M  V30 3003 H 279.868 0.310818 -1.46131 0
M  V30 3004 H 281.75 3.20609 -2.73473 0
M  V30 3005 H 280.425 2.81038 -1.60621 0
M  V30 3006 H 279.332 1.42081 -3.46069 0
M  V30 3007 H 280.665 1.88755 -4.54568 0
M  V30 3008 N 282.317 1.53212 0.369288 0
M  V30 3009 C 283.733 1.42902 0.710712 0
M  V30 3010 C 283.933 0.565135 1.93413 0
M  V30 3011 O 282.989 0.0461484 2.52458 0
M  V30 3012 C 284.302 2.86042 0.927382 0
M  V30 3013 C 285.85 2.9565 1.02762 0
M  V30 3014 C 286.325 4.39843 1.27679 0
M  V30 3015 N 287.816 4.43256 1.34457 0
M  V30 3016 C 288.551 5.51929 1.55439 0
M  V30 3017 N 288.047 6.70655 1.73762 0
M  V30 3018 N 289.84 5.39502 1.57779 0
M  V30 3019 H 281.991 2.07888 -0.435457 0
M  V30 3020 H 284.254 0.938661 -0.132739 0
M  V30 3021 H 283.96 3.51557 0.100287 0
M  V30 3022 H 283.834 3.29472 1.83653 0
M  V30 3023 H 286.221 2.30291 1.84527 0
M  V30 3024 H 286.302 2.5562 0.0959504 0
M  V30 3025 H 285.946 5.05774 0.464175 0
M  V30 3026 H 285.876 4.77443 2.22162 0
M  V30 3027 H 288.367 3.5769 1.21926 0
M  V30 3028 H 288.68 7.49248 1.89335 0
M  V30 3029 H 287.025 6.73648 1.70948 0
M  V30 3030 H 290.216 4.45713 1.43029 0
M  V30 3031 H 290.389 6.2426 1.7379 0
M  V30 3032 N 283.795 -0.628877 1.44509 0
M  V30 3033 C 284.705 -1.7694 1.54044 0
M  V30 3034 C 285.721 -1.68705 0.425987 0
M  V30 3035 O 286.897 -1.89442 0.683656 0
M  V30 3036 C 283.962 -3.13332 1.48405 0
M  V30 3037 C 283.023 -3.33181 2.70719 0
M  V30 3038 C 282.256 -4.63067 2.6534 0
M  V30 3039 O 282.479 -5.44017 1.71469 0
M  V30 3040 O 281.413 -4.85167 3.56226 0
M  V30 3041 H 285.239 -1.71848 2.50403 0
M  V30 3042 H 282.824 -0.790378 1.26781 0
M  V30 3043 H 284.706 -3.94634 1.47791 0
M  V30 3044 H 283.381 -3.1896 0.551898 0
M  V30 3045 H 282.288 -2.51549 2.769 0
M  V30 3046 H 283.621 -3.32416 3.62988 0
M  V30 3047 N 285.273 -1.31445 -0.869486 0
M  V30 3048 C 286.501 -1.24122 -1.65534 0
M  V30 3049 C 286.916 0.193387 -1.87807 0
M  V30 3050 O 286.273 1.12557 -1.43656 0
M  V30 3051 C 286.324 -1.98229 -3.02304 0
M  V30 3052 O 286.045 -3.3609 -2.81026 0
M  V30 3053 C 287.546 -1.97751 -3.96749 0
M  V30 3054 H 284.766 -0.428868 -0.516055 0
M  V30 3055 H 287.31 -1.73328 -1.08525 0
M  V30 3056 H 285.465 -1.52782 -3.56001 0
M  V30 3057 H 285.879 -3.7383 -3.67902 0
M  V30 3058 H 287.353 -2.54114 -4.90031 0
M  V30 3059 H 287.83 -0.960137 -4.28577 0
M  V30 3060 H 288.436 -2.43079 -3.48988 0
M  V30 3061 N 286.751 1.08385 -1.14413 0
M  V30 3062 C 287.661 2.18856 -0.844951 0
M  V30 3063 C 288.677 1.73121 0.174668 0
M  V30 3064 O 289.853 2.014 0.00312857 0
M  V30 3065 C 286.918 3.45155 -0.32696 0
M  V30 3066 C 285.979 4.05513 -1.40916 0
M  V30 3067 C 285.212 5.25784 -0.915793 0
M  V30 3068 O 285.435 5.69884 0.242651 0
M  V30 3069 O 284.369 5.77545 -1.69487 0
M  V30 3070 H 288.195 2.46919 -1.76818 0
M  V30 3071 H 285.78 1.17524 -0.922411 0
M  V30 3072 H 287.662 4.21377 -0.0440211 0
M  V30 3073 H 286.337 3.18668 0.568539 0
M  V30 3074 H 285.244 3.30879 -1.74556 0
M  V30 3075 H 286.577 4.3625 -2.27919 0
M  V30 3076 N 288.23 0.939286 1.26551 0
M  V30 3077 C 289.455 0.602008 1.98471 0
M  V30 3078 C 289.88 -0.815624 1.69497 0
M  V30 3079 O 289.238 -1.54912 0.941905 0
M  V30 3080 C 289.286 0.848407 3.50477 0
M  V30 3081 O 288.39 -0.0804009 4.12322 0
M  V30 3082 H 287.731 0.23049 0.622712 0
M  V30 3083 H 290.261 1.2617 1.61066 0
M  V30 3084 H 290.271 0.768553 4.00696 0
M  V30 3085 H 288.946 1.88171 3.70897 0
M  V30 3086 H 287.523 0.0503508 3.72866 0
M  V30 3087 N 289.708 -1.40897 0.706093 0
M  V30 3088 C 290.64 -2.29199 0.00815776 0
M  V30 3089 C 291.653 -1.45336 -0.733582 0
M  V30 3090 O 292.842 -1.68727 -0.582537 0
M  V30 3091 C 289.942 -3.23417 -1.01265 0
M  V30 3092 C 289.115 -4.36089 -0.338387 0
M  V30 3093 C 288.174 -5.10811 -1.26326 0
M  V30 3094 O 287.2 -5.64215 -0.751651 0
M  V30 3095 N 288.402 -5.19269 -2.595 0
M  V30 3096 H 291.167 -2.89738 0.766297 0
M  V30 3097 H 288.728 -1.52164 0.55296 0
M  V30 3098 H 290.72 -3.70276 -1.63334 0
M  V30 3099 H 289.29 -2.64112 -1.67223 0
M  V30 3100 H 288.51 -3.91479 0.462352 0
M  V30 3101 H 289.798 -5.08634 0.130031 0
M  V30 3102 H 289.196 -4.77347 -3.03573 0
M  V30 3103 H 287.753 -5.69667 -3.16737 0
M  V30 3104 N 291.186 -0.45159 -1.50991 0
M  V30 3105 C 292.432 0.110237 -2.025 0
M  V30 3106 C 292.765 1.41109 -1.33424 0
M  V30 3107 O 292.04 1.89135 -0.453659 0
M  V30 3108 C 292.323 0.314271 -3.58726 0
M  V30 3109 C 292.176 -1.00623 -4.38401 0
M  V30 3110 C 293.495 1.07767 -4.26702 0
M  V30 3111 H 290.614 0.0385897 -0.735989 0
M  V30 3112 H 293.256 -0.593374 -1.80497 0
M  V30 3113 H 291.406 0.913601 -3.77605 0
M  V30 3114 H 293.078 -1.64064 -4.31139 0
M  V30 3115 H 291.321 -1.6075 -4.02917 0
M  V30 3116 H 291.992 -0.817341 -5.45915 0
M  V30 3117 H 294.468 0.56986 -4.12179 0
M  V30 3118 H 293.344 1.18921 -5.35863 0
M  V30 3119 H 293.605 2.10939 -3.88532 0
M  V30 3120 N 292.664 1.56529 -0.183458 0
M  V30 3121 C 293.612 2.19873 0.758845 0
M  V30 3122 C 294.606 1.16638 1.22849 0
M  V30 3123 O 295.812 1.3481 1.19274 0
M  V30 3124 H 292.187 0.7045 0.263029 0
M  V30 3125 H 294.158 2.97724 0.200755 0
M  V30 3126 C 292.907 2.86314 1.9728 0
M  V30 3127 H 292.23 3.65487 1.62047 0
M  V30 3128 H 293.67 3.3409 2.61075 0
M  V30 3129 C 292.129 1.86729 2.80418 0
M  V30 3130 O 292.659 1.36031 3.77966 0
M  V30 3131 N 290.865 1.55216 2.45675 0
M  V30 3132 H 290.412 1.96636 1.66409 0
M  V30 3133 H 290.37 0.888388 3.01588 0
M  V30 3134 N 294.142 -0.090211 1.57342 0
M  V30 3135 C 295.553 -0.644173 1.75235 0
M  V30 3136 C 295.904 -1.78865 0.806335 0
M  V30 3137 O 295.029 -2.16395 -0.0140128 0
M  V30 3138 C 295.624 -1.17532 3.1776 0
M  V30 3139 C 294.183 -1.67531 3.37061 0
M  V30 3140 C 293.33 -0.58693 2.71017 0
M  V30 3141 H 296.281 0.135884 1.58117 0
M  V30 3142 H 296.302 -2.04455 3.20902 0
M  V30 3143 H 295.814 -0.342138 3.86589 0
M  V30 3144 H 293.915 -2.53234 2.73319 0
M  V30 3145 H 294.028 -1.76493 4.45406 0
M  V30 3146 H 292.392 -1.02756 2.33052 0
M  V30 3147 H 293.175 0.235758 3.4249 0
M  V30 3148 N 295.62 -1.53406 -0.361157 0
M  V30 3149 C 296.568 -1.80832 -1.46296 0
M  V30 3150 C 297.562 -0.677699 -1.55253 0
M  V30 3151 O 298.768 -0.860723 -1.58087 0
M  V30 3152 H 295.143 -0.572627 -0.487445 0
M  V30 3153 H 297.114 -2.73045 -1.20371 0
M  V30 3154 C 295.863 -2.01907 -2.8307 0
M  V30 3155 H 295.186 -2.88349 -2.76938 0
M  V30 3156 H 296.626 -2.25072 -3.59331 0
M  V30 3157 C 295.085 -0.799449 -3.27277 0
M  V30 3158 O 295.615 0.00971761 -4.01699 0
M  V30 3159 N 293.821 -0.621637 -2.83873 0
M  V30 3160 H 293.368 -1.28126 -2.23476 0
M  V30 3161 H 293.326 0.19298 -3.13807 0
M  V30 3162 N 297.098 0.621204 -1.44841 0
M  V30 3163 C 298.323 1.41244 -1.51871 0
M  V30 3164 C 298.748 1.87519 -0.147764 0
M  V30 3165 O 298.106 1.59334 0.865 0
M  V30 3166 C 298.154 2.60221 -2.49634 0
M  V30 3167 O 297.258 3.60395 -2.00473 0
M  V30 3168 H 296.599 0.42223 -0.512463 0
M  V30 3169 H 299.129 0.757305 -1.90069 0
M  V30 3170 H 299.139 3.0764 -2.67996 0
M  V30 3171 H 297.814 2.25887 -3.4921 0
M  V30 3172 H 296.391 3.19717 -1.91925 0
M  V30 3173 N 298.576 1.31904 0.862503 0
M  V30 3174 C 299.486 1.22161 2.00285 0
M  V30 3175 C 300.502 0.136785 1.73462 0
M  V30 3176 O 301.678 0.355994 1.98229 0
M  V30 3177 C 298.743 0.937093 3.33796 0
M  V30 3178 C 297.804 2.10957 3.73893 0
M  V30 3179 C 297.037 1.83853 5.01033 0
M  V30 3180 O 297.26 0.777274 5.65079 0
M  V30 3181 O 296.194 2.69741 5.38074 0
M  V30 3182 H 300.02 2.18008 2.11439 0
M  V30 3183 H 297.605 1.11716 0.991957 0
M  V30 3184 H 299.487 0.794583 4.13841 0
M  V30 3185 H 298.162 0.00871894 3.23699 0
M  V30 3186 H 297.069 2.30752 2.94456 0
M  V30 3187 H 298.402 3.02046 3.88625 0
M  V30 3188 N 300.054 -1.07777 1.14986 0
M  V30 3189 C 300.986 -2.14769 0.800436 0
M  V30 3190 C 301.999 -1.61739 -0.185595 0
M  V30 3191 O 303.188 -1.78462 0.0370358 0
M  V30 3192 C 300.288 -3.38481 0.168533 0
M  V30 3193 C 299.461 -4.20876 1.1909 0
M  V30 3194 C 298.52 -5.22976 0.581575 0
M  V30 3195 O 297.546 -5.55388 1.24633 0
M  V30 3196 N 298.748 -5.76976 -0.638706 0
M  V30 3197 H 301.513 -2.45348 1.72118 0
M  V30 3198 H 299.074 -1.23645 1.04515 0
M  V30 3199 H 301.066 -4.03916 -0.251764 0
M  V30 3200 H 299.636 -3.05651 -0.655467 0
M  V30 3201 H 298.856 -3.51322 1.78791 0
M  V30 3202 H 300.144 -4.7274 1.88133 0
M  V30 3203 H 299.542 -5.52886 -1.19723 0
M  V30 3204 H 298.099 -6.44061 -1.00142 0
M  V30 3205 N 301.532 -0.945985 -1.26051 0
M  V30 3206 C 302.78 -0.594941 -1.93145 0
M  V30 3207 C 303.101 0.86953 -1.7454 0
M  V30 3208 O 302.371 1.61838 -1.10387 0
M  V30 3209 H 300.951 -0.217044 -0.714773 0
M  V30 3210 H 303.613 -1.20235 -1.53393 0
M  V30 3211 H 302.709 -0.816835 -3.01221 0
M  V30 3212 N 303.011 1.40521 -0.713556 0
M  V30 3213 C 303.921 2.34522 -0.0606667 0
M  V30 3214 C 304.937 1.57193 0.74607 0
M  V30 3215 O 306.113 1.89591 0.679493 0
M  V30 3216 C 303.178 3.36081 0.851491 0
M  V30 3217 C 302.239 4.29286 0.0349339 0
M  V30 3218 C 301.472 5.25994 0.903649 0
M  V30 3219 O 301.695 5.28616 2.14292 0
M  V30 3220 O 300.629 6.00918 0.343723 0
M  V30 3221 H 304.455 2.91968 -0.835972 0
M  V30 3222 H 302.04 1.41681 -0.47402 0
M  V30 3223 H 303.922 3.98369 1.37404 0
M  V30 3224 H 302.597 2.81052 1.60598 0
M  V30 3225 H 301.504 3.70289 -0.532633 0
M  V30 3226 H 302.837 4.87462 -0.681287 0
M  V30 3227 N 304.489 0.459591 1.5075 0
M  V30 3228 C 305.421 -0.37665 2.26084 0
M  V30 3229 C 306.434 -0.967109 1.30961 0
M  V30 3230 O 307.623 -0.857468 1.56556 0
M  V30 3231 C 304.723 -1.54112 3.01832 0
M  V30 3232 C 303.896 -1.06553 4.24223 0
M  V30 3233 C 302.955 -2.1027 4.82362 0
M  V30 3234 O 301.981 -1.68798 5.43595 0
M  V30 3235 N 303.183 -3.42974 4.68347 0
M  V30 3236 H 305.948 0.269124 2.98489 0
M  V30 3237 H 303.509 0.28972 1.59287 0
M  V30 3238 H 305.501 -2.23165 3.37608 0
M  V30 3239 H 304.071 -2.0918 2.32298 0
M  V30 3240 H 303.291 -0.201274 3.93686 0
M  V30 3241 H 304.579 -0.725516 5.03601 0
M  V30 3242 H 303.977 -3.79385 4.19623 0
M  V30 3243 H 302.534 -4.07858 5.08424 0
M  V30 3244 N 305.967 -1.56429 0.191757 0
M  V30 3245 C 307.213 -1.97777 -0.448554 0
M  V30 3246 C 307.546 -1.07847 -1.61501 0
M  V30 3247 O 306.821 -0.129774 -1.94067 0
M  V30 3248 C 307.104 -3.48362 -0.911906 0
M  V30 3249 C 306.957 -4.4907 0.256136 0
M  V30 3250 C 308.276 -4.02561 -1.77857 0
M  V30 3251 H 305.395 -0.719071 -0.161572 0
M  V30 3252 H 308.037 -1.87896 0.282007 0
M  V30 3253 H 306.187 -3.56914 -1.53442 0
M  V30 3254 H 307.859 -4.5256 0.893733 0
M  V30 3255 H 306.102 -4.24181 0.908436 0
M  V30 3256 H 306.773 -5.51889 -0.11053 0
M  V30 3257 H 309.249 -3.96767 -1.25359 0
M  V30 3258 H 308.125 -5.08301 -2.07174 0
M  V30 3259 H 308.386 -3.47616 -2.73158 0
M  V30 3260 N 307.445 0.0818655 -1.57387 0
M  V30 3261 C 308.675 0.794954 -1.90694 0
M  V30 3262 C 309.083 1.72147 -0.784982 0
M  V30 3263 O 308.426 1.81974 0.251196 0
M  V30 3264 C 308.488 1.65042 -3.19376 0
M  V30 3265 C 308.152 0.894337 -4.48164 0
M  V30 3266 C 309.149 0.21813 -5.19442 0
M  V30 3267 C 306.834 0.864495 -4.94805 0
M  V30 3268 C 308.828 -0.477802 -6.35607 0
M  V30 3269 C 306.515 0.164785 -6.10878 0
M  V30 3270 C 307.513 -0.505173 -6.81129 0
M  V30 3271 O 307.201 -1.19363 -7.94989 0
M  V30 3272 H 306.933 0.231779 -0.635023 0
M  V30 3273 H 309.487 0.059493 -2.05314 0
M  V30 3274 H 307.717 2.42844 -3.00938 0
M  V30 3275 H 309.406 2.24127 -3.38411 0
M  V30 3276 H 310.172 0.232558 -4.84442 0
M  V30 3277 H 306.051 1.37542 -4.40004 0
M  V30 3278 H 309.595 -1.00129 -6.90377 0
M  V30 3279 H 305.492 0.148249 -6.4533 0
M  V30 3280 H 306.26 -1.10188 -8.11049 0
M  V30 3281 N 308.923 1.53595 0.353017 0
M  V30 3282 C 310.2 1.61002 1.11075 0
M  V30 3283 C 310.58 0.425356 2.0677 0
M  V30 3284 O 309.928 -0.583267 2.2093 0
M  V30 3285 C 310.138 2.96631 1.83877 0
M  V30 3286 C 311.486 3.51653 2.37961 0
M  V30 3287 O 312.51 2.98743 1.93987 0
M  V30 3288 O 311.369 4.44177 3.18386 0
M  V30 3289 H 308.463 0.650825 0.510251 0
M  V30 3290 H 311.009 1.6594 0.35527 0
M  V30 3291 H 309.781 3.74293 1.14108 0
M  V30 3292 H 309.404 2.95242 2.66304 0
M  V30 3293 N 310.401 -0.613514 1.45168 0
M  V30 3294 C 311.647 -1.37279 1.50087 0
M  V30 3295 C 312.002 -1.91902 0.138294 0
M  V30 3296 O 311.295 -1.71764 -0.84899 0
M  V30 3297 C 311.489 -2.54347 2.51083 0
M  V30 3298 C 311.318 -2.11186 3.97027 0
M  V30 3299 C 310.088 -1.97636 4.65046 0
M  V30 3300 C 312.286 -1.69016 4.85735 0
M  V30 3301 N 310.268 -1.48224 5.95737 0
M  V30 3302 C 311.639 -1.30976 6.06008 0
M  V30 3303 C 313.694 -1.56555 4.72647 0
M  V30 3304 C 312.397 -0.817197 7.14643 0
M  V30 3305 C 314.423 -1.08702 5.81324 0
M  V30 3306 C 313.785 -0.716233 7.00749 0
M  V30 3307 H 309.884 -0.496478 0.60418 0
M  V30 3308 H 312.468 -0.701988 1.81605 0
M  V30 3309 H 310.639 -3.19031 2.21527 0
M  V30 3310 H 312.371 -3.21208 2.46187 0
M  V30 3311 H 309.126 -2.18638 4.20112 0
M  V30 3312 H 309.55 -1.25767 6.65216 0
M  V30 3313 H 314.192 -1.83849 3.80736 0
M  V30 3314 H 311.91 -0.531797 8.06348 0
M  V30 3315 H 315.496 -0.994943 5.7323 0
M  V30 3316 H 314.376 -0.351642 7.83411 0
M  V30 3317 N 311.879 -1.3236 -0.855495 0
M  V30 3318 C 313.104 -1.2601 -1.64731 0
M  V30 3319 C 313.529 0.169068 -1.87339 0
M  V30 3320 O 312.887 1.12016 -1.42556 0
M  V30 3321 C 312.935 -2.02417 -2.98429 0
M  V30 3322 O 312.039 -1.3714 -3.8893 0
M  V30 3323 H 311.38 -0.434325 -0.502253 0
M  V30 3324 H 313.91 -1.74661 -1.06558 0
M  V30 3325 H 313.92 -2.12559 -3.48257 0
M  V30 3326 H 312.595 -3.06343 -2.81295 0
M  V30 3327 H 311.172 -1.3554 -3.47395 0
M  V30 3328 N 313.357 1.07166 -1.15556 0
M  V30 3329 C 314.585 1.83514 -0.955519 0
M  V30 3330 C 315 1.82163 0.49621 0
M  V30 3331 O 314.357 1.23441 1.34419 0
M  V30 3332 C 314.408 3.30515 -1.46432 0
M  V30 3333 O 314.129 3.31937 -2.85918 0
M  V30 3334 C 315.63 4.23625 -1.30603 0
M  V30 3335 H 312.85 0.578926 -0.339244 0
M  V30 3336 H 315.394 1.35265 -1.53374 0
M  V30 3337 H 313.549 3.76106 -0.928584 0
M  V30 3338 H 313.963 4.23794 -3.09029 0
M  V30 3339 H 315.437 5.24831 -1.71047 0
M  V30 3340 H 315.914 4.38485 -0.250441 0
M  V30 3341 H 316.52 3.83871 -1.83094 0
M  V30 3342 N 314.835 0.952656 1.25548 0
M  V30 3343 C 316.083 0.605176 1.92826 0
M  V30 3344 C 316.404 -0.860261 1.74999 0
M  V30 3345 O 315.674 -1.6125 1.11244 0
M  V30 3346 H 314.254 0.220832 0.713612 0
M  V30 3347 H 316.916 1.21047 1.52754 0
M  V30 3348 H 316.012 0.832798 3.00784 0
M  V30 3349 N 316.313 -1.40141 0.720998 0
M  V30 3350 C 317.243 -2.33339 0.0867621 0
M  V30 3351 C 318.224 -1.53178 -0.739622 0
M  V30 3352 O 319.409 -1.81625 -0.687449 0
M  V30 3353 C 316.539 -3.37194 -0.831728 0
M  V30 3354 C 315.493 -4.27857 -0.110558 0
M  V30 3355 C 314.819 -5.22294 -1.14513 0
M  V30 3356 C 316.119 -5.11872 1.0385 0
M  V30 3357 H 317.813 -2.86626 0.865219 0
M  V30 3358 H 315.359 -1.37814 0.417516 0
M  V30 3359 H 317.312 -4.01335 -1.28485 0
M  V30 3360 H 316.036 -2.82314 -1.64214 0
M  V30 3361 H 314.695 -3.65176 0.322797 0
M  V30 3362 H 314.343 -4.63717 -1.94874 0
M  V30 3363 H 314.043 -5.83797 -0.667446 0
M  V30 3364 H 315.567 -5.89312 -1.59824 0
M  V30 3365 H 316.981 -5.69436 0.664482 0
M  V30 3366 H 315.378 -5.82445 1.4449 0
M  V30 3367 H 316.448 -4.4753 1.86668 0
M  V30 3368 N 317.792 -0.46758 -1.50504 0
M  V30 3369 C 318.702 0.33382 -2.32213 0
M  V30 3370 C 319.718 0.999323 -1.42441 0
M  V30 3371 O 320.894 0.988068 -1.75497 0
M  V30 3372 C 317.959 1.4035 -3.17022 0
M  V30 3373 C 317.02 0.754961 -4.2261 0
M  V30 3374 C 316.253 1.77367 -5.03365 0
M  V30 3375 O 316.476 2.99976 -4.8515 0
M  V30 3376 O 315.41 1.34744 -5.86624 0
M  V30 3377 H 319.236 -0.334067 -3.01857 0
M  V30 3378 H 316.821 -0.229496 -1.47627 0
M  V30 3379 H 318.703 2.02318 -3.69656 0
M  V30 3380 H 317.378 2.05492 -2.5011 0
M  V30 3381 H 316.285 0.0964244 -3.73976 0
M  V30 3382 H 317.618 0.146545 -4.91982 0
M  V30 3383 N 319.27 1.56325 -0.20005 0
M  V30 3384 C 320.547 1.89484 0.48529 0
M  V30 3385 C 320.927 1.1143 1.79294 0
M  V30 3386 O 320.275 0.216919 2.27468 0
M  V30 3387 C 320.485 3.41923 0.699243 0
M  V30 3388 C 321.833 4.12256 1.01638 0
M  V30 3389 O 322.857 3.47402 0.786792 0
M  V30 3390 O 321.716 5.26887 1.45095 0
M  V30 3391 H 318.81 0.787144 0.253639 0
M  V30 3392 H 321.356 1.67985 -0.240633 0
M  V30 3393 H 320.128 3.90658 -0.224008 0
M  V30 3394 H 319.751 3.69131 1.47744 0
M  V30 3395 N 320.748 -0.0735177 1.57428 0
M  V30 3396 C 321.976 -0.785969 1.9139 0
M  V30 3397 C 322.391 -1.71207 0.795847 0
M  V30 3398 O 321.748 -1.81033 -0.230915 0
M  V30 3399 C 321.799 -1.58107 3.25091 0
M  V30 3400 O 321.52 -0.6922 4.32597 0
M  V30 3401 C 323.021 -2.39467 3.73055 0
M  V30 3402 H 320.241 -0.223558 0.632663 0
M  V30 3403 H 322.785 -0.044302 2.04452 0
M  V30 3404 H 320.94 -2.27503 3.13562 0
M  V30 3405 H 321.354 -1.24504 5.09508 0
M  V30 3406 H 322.828 -2.90716 4.69242 0
M  V30 3407 H 323.305 -3.18913 3.01979 0
M  V30 3408 H 323.911 -1.7523 3.87523 0
M  V30 3409 N 322.226 -1.5378 -0.344866 0
M  V30 3410 C 323.503 -1.61589 -1.10219 0
M  V30 3411 C 323.883 -0.436316 -2.06542 0
M  V30 3412 O 323.231 0.571543 -2.21237 0
M  V30 3413 C 323.441 -2.97602 -1.82301 0
M  V30 3414 C 324.789 -3.5291 -2.36093 0
M  V30 3415 O 325.813 -2.99768 -1.924 0
M  V30 3416 O 324.672 -4.45859 -3.16026 0
M  V30 3417 H 321.766 -0.653522 -0.506792 0
M  V30 3418 H 324.312 -1.66126 -0.346465 0
M  V30 3419 H 323.084 -3.74893 -1.12121 0
M  V30 3420 H 322.707 -2.9665 -2.64735 0
M  V30 3421 N 323.704 0.605807 -1.45491 0
M  V30 3422 C 324.981 1.36522 -1.40075 0
M  V30 3423 C 325.361 2.10976 -0.0722744 0
M  V30 3424 O 324.709 2.08007 0.945808 0
M  V30 3425 C 324.919 2.31056 -2.61561 0
M  V30 3426 C 326.267 2.93608 -3.06724 0
M  V30 3427 O 327.291 2.41376 -2.61946 0
M  V30 3428 O 326.15 3.88421 -3.84437 0
M  V30 3429 H 323.244 0.612248 -0.555951 0
M  V30 3430 H 325.79 0.628747 -1.57623 0
M  V30 3431 H 324.562 1.75311 -3.49831 0
M  V30 3432 H 324.185 3.12081 -2.46356 0
M  V30 3433 N 325.182 1.32811 0.848464 0
M  V30 3434 C 326.407 1.26882 1.6406 0
M  V30 3435 C 326.832 -0.15913 1.87426 0
M  V30 3436 O 326.19 -1.11258 1.43148 0
M  V30 3437 C 326.238 2.03997 2.97351 0
M  V30 3438 O 325.342 1.39201 3.88197 0
M  V30 3439 H 324.683 0.436982 0.499943 0
M  V30 3440 H 327.213 1.75224 1.0563 0
M  V30 3441 H 327.223 2.14403 3.47124 0
M  V30 3442 H 325.898 3.0783 2.79666 0
M  V30 3443 H 324.475 1.37381 3.46671 0
M  V30 3444 N 326.66 -1.06551 1.16123 0
M  V30 3445 C 327.61 -2.12209 0.833736 0
M  V30 3446 C 328.594 -1.59825 -0.185656 0
M  V30 3447 O 329.786 -1.76994 0.0147906 0
M  V30 3448 C 326.915 -3.41674 0.333697 0
M  V30 3449 C 326.001 -4.00892 1.38372 0
M  V30 3450 N 326.392 -4.34256 2.59337 0
M  V30 3451 C 324.69 -4.28463 1.23836 0
M  V30 3452 C 325.391 -4.81291 3.26701 0
M  V30 3453 N 324.367 -4.80565 2.54083 0
M  V30 3454 H 328.169 -2.35849 1.75364 0
M  V30 3455 H 325.683 -1.24068 1.04789 0
M  V30 3456 H 327.68 -4.16822 0.0806918 0
M  V30 3457 H 326.34 -3.19475 -0.58017 0
M  V30 3458 H 327.351 -4.24687 2.96415 0
M  V30 3459 H 324.028 -4.15721 0.38504 0
M  V30 3460 H 325.418 -5.16332 4.29943 0
M  V30 3461 N 328.138 -0.959301 -1.25041 0
M  V30 3462 C 329.068 -0.501388 -2.28053 0
M  V30 3463 C 330.049 0.454673 -1.63911 0
M  V30 3464 O 331.234 0.352618 -1.90972 0
M  V30 3465 C 328.364 0.217224 -3.4662 0
M  V30 3466 C 327.318 -0.654034 -4.22973 0
M  V30 3467 C 326.644 0.195589 -5.34342 0
M  V30 3468 C 327.944 -1.93447 -4.85155 0
M  V30 3469 H 329.638 -1.36238 -2.66608 0
M  V30 3470 H 327.184 -0.656534 -1.28163 0
M  V30 3471 H 329.137 0.548732 -4.17812 0
M  V30 3472 H 327.861 1.1125 -3.07068 0
M  V30 3473 H 326.52 -0.968693 -3.5357 0
M  V30 3474 H 326.168 1.09076 -4.91031 0
M  V30 3475 H 325.868 -0.384091 -5.86343 0
M  V30 3476 H 327.392 0.521958 -6.08365 0
M  V30 3477 H 328.806 -1.66908 -5.48466 0
M  V30 3478 H 327.203 -2.46018 -5.47353 0
M  V30 3479 H 328.273 -2.63466 -4.07079 0
M  V30 3480 N 329.616 1.39756 -0.72842 0
M  V30 3481 C 330.846 2.04651 -0.283117 0
M  V30 3482 C 331.254 1.5502 1.08469 0
M  V30 3483 O 330.597 0.707343 1.69536 0
M  V30 3484 C 330.659 3.58947 -0.199309 0
M  V30 3485 C 330.323 4.31525 -1.5045 0
M  V30 3486 C 331.32 4.5861 -2.44894 0
M  V30 3487 C 329.005 4.70195 -1.76698 0
M  V30 3488 C 330.999 5.23366 -3.63822 0
M  V30 3489 C 328.686 5.3468 -2.95906 0
M  V30 3490 C 329.684 5.61198 -3.89289 0
M  V30 3491 O 329.372 6.24347 -5.06404 0
M  V30 3492 H 329.104 0.664777 -0.122666 0
M  V30 3493 H 331.658 1.79913 -0.990987 0
M  V30 3494 H 329.888 3.82556 0.56461 0
M  V30 3495 H 331.577 4.0534 0.213125 0
M  V30 3496 H 332.343 4.29187 -2.25883 0
M  V30 3497 H 328.222 4.48916 -1.04859 0
M  V30 3498 H 331.766 5.4398 -4.36728 0
M  V30 3499 H 327.663 5.63524 -3.14819 0
M  V30 3500 H 328.431 6.42842 -5.06652 0
M  V30 3501 N 331.094 0.475555 1.50254 0
M  V30 3502 C 332.341 -0.0778919 2.0235 0
M  V30 3503 C 332.669 -1.39319 1.35722 0
M  V30 3504 O 331.924 -1.89888 0.473395 0
M  V30 3505 C 332.223 -0.305114 3.56095 0
M  V30 3506 C 331.889 0.92903 4.41225 0
M  V30 3507 C 330.551 1.26739 4.6421 0
M  V30 3508 C 332.903 1.75054 4.90923 0
M  V30 3509 C 330.231 2.42724 5.34137 0
M  V30 3510 C 332.583 2.9017 5.62125 0
M  V30 3511 C 331.247 3.24416 5.83362 0
M  V30 3512 H 330.517 -0.0285027 0.740452 0
M  V30 3513 H 333.164 0.630543 1.80821 0
M  V30 3514 H 331.469 -1.09584 3.76163 0
M  V30 3515 H 333.166 -0.747377 3.93974 0
M  V30 3516 H 329.756 0.655428 4.23559 0
M  V30 3517 H 333.94 1.50231 4.73016 0
M  V30 3518 H 329.196 2.69525 5.48786 0
M  V30 3519 H 333.37 3.54169 5.99614 0
M  V30 3520 H 330.997 4.14396 6.37323 0
M  V30 3521 N 332.573 -1.56217 0.208337 0
M  V30 3522 C 333.798 -2.02782 -0.435222 0
M  V30 3523 C 334.223 -1.08738 -1.53485 0
M  V30 3524 O 333.581 -0.0731855 -1.81152 0
M  V30 3525 C 333.629 -3.47687 -0.956335 0
M  V30 3526 O 332.733 -3.56773 -2.06849 0
M  V30 3527 H 332.074 -0.656403 -0.100158 0
M  V30 3528 H 334.604 -2.02033 0.3231 0
M  V30 3529 H 334.614 -3.87745 -1.26955 0
M  V30 3530 H 333.289 -4.15624 -0.15143 0
M  V30 3531 H 331.866 -3.28597 -1.76292 0
M  V30 3532 N 334.051 0.0651679 -1.57465 0
M  V30 3533 C 335.462 0.616213 -1.76238 0
M  V30 3534 C 335.813 1.7756 -0.834689 0
M  V30 3535 O 334.938 2.1639 -0.0204156 0
M  V30 3536 C 335.533 1.12462 -3.1959 0
M  V30 3537 C 334.092 1.62147 -3.39684 0
M  V30 3538 C 333.239 0.543739 -2.71917 0
M  V30 3539 H 336.19 -0.161022 -1.57881 0
M  V30 3540 H 336.211 1.99324 -3.24114 0
M  V30 3541 H 335.723 0.280592 -3.87084 0
M  V30 3542 H 333.824 2.48854 -2.77313 0
M  V30 3543 H 333.937 1.69385 -4.48158 0
M  V30 3544 H 332.301 0.990352 -2.34657 0
M  V30 3545 H 333.084 -0.290216 -3.42071 0
M  V30 3546 N 335.529 1.53961 0.336706 0
M  V30 3547 C 336.439 1.85432 1.43708 0
M  V30 3548 C 337.455 0.745053 1.57242 0
M  V30 3549 O 338.631 1.03804 1.72588 0
M  V30 3550 C 335.696 2.06349 2.78605 0
M  V30 3551 C 334.757 3.30191 2.74358 0
M  V30 3552 C 333.99 3.50101 4.02822 0
M  V30 3553 O 334.213 2.7371 5.00439 0
M  V30 3554 O 333.147 4.43547 4.06878 0
M  V30 3555 H 336.973 2.78975 1.20028 0
M  V30 3556 H 334.558 1.39701 0.52952 0
M  V30 3557 H 336.44 2.21513 3.58483 0
M  V30 3558 H 335.115 1.15995 3.02203 0
M  V30 3559 H 334.022 3.20425 1.93078 0
M  V30 3560 H 335.355 4.2056 2.55715 0
M  V30 3561 N 337.007 -0.598083 1.45811 0
M  V30 3562 C 337.939 -1.72231 1.51225 0
M  V30 3563 C 338.952 -1.57757 0.402059 0
M  V30 3564 O 340.141 -1.65464 0.669624 0
M  V30 3565 C 337.241 -3.10331 1.3619 0
M  V30 3566 C 336.414 -3.50955 2.61054 0
M  V30 3567 C 335.473 -4.68055 2.40439 0
M  V30 3568 O 334.499 -4.74691 3.14097 0
M  V30 3569 N 335.701 -5.61941 1.45612 0
M  V30 3570 H 338.466 -1.68046 2.48154 0
M  V30 3571 H 336.027 -0.783637 1.41671 0
M  V30 3572 H 338.019 -3.86439 1.20195 0
M  V30 3573 H 336.589 -3.0897 0.475015 0
M  V30 3574 H 335.809 -2.64711 2.92099 0
M  V30 3575 H 337.097 -3.74858 3.44034 0
M  V30 3576 H 336.495 -5.59301 0.848431 0
M  V30 3577 H 335.052 -6.37542 1.35585 0
M  V30 3578 N 338.485 -1.33259 -0.841409 0
M  V30 3579 C 339.733 -1.24326 -1.59334 0
M  V30 3580 C 340.054 0.191564 -1.94057 0
M  V30 3581 O 339.324 1.11967 -1.60749 0
M  V30 3582 H 337.904 -0.457174 -0.590763 0
M  V30 3583 H 340.566 -1.66947 -1.00571 0
M  V30 3584 H 339.662 -1.8352 -2.52442 0
M  V30 3585 N 339.963 1.05934 -1.16686 0
M  V30 3586 C 340.911 2.15603 -0.872817 0
M  V30 3587 C 341.905 1.68647 0.159576 0
M  V30 3588 O 343.111 1.79995 0.0132125 0
M  V30 3589 H 339.486 0.703885 -0.264671 0
M  V30 3590 H 341.457 2.37613 -1.80507 0
M  V30 3591 C 340.206 3.45457 -0.394344 0
M  V30 3592 H 339.529 3.81984 -1.18019 0
M  V30 3593 H 340.969 4.2339 -0.227408 0
M  V30 3594 C 339.428 3.25021 0.88673 0
M  V30 3595 O 339.958 3.50906 1.95519 0
M  V30 3596 N 338.164 2.78437 0.831925 0
M  V30 3597 H 337.711 2.57572 -0.0377619 0
M  V30 3598 H 337.669 2.65144 1.68956 0
M  V30 3599 N 341.441 0.965919 1.2453 0
M  V30 3600 C 342.687 0.62776 1.92839 0
M  V30 3601 C 343.02 -0.834694 1.75347 0
M  V30 3602 O 342.295 -1.60031 1.10546 0
M  V30 3603 C 342.578 1.00109 3.45905 0
M  V30 3604 C 342.431 2.52011 3.72573 0
M  V30 3605 C 343.75 0.53435 4.36844 0
M  V30 3606 H 340.869 0.229537 0.700344 0
M  V30 3607 H 343.511 1.2046 1.46933 0
M  V30 3608 H 341.661 0.510238 3.85135 0
M  V30 3609 H 343.333 3.08559 3.42912 0
M  V30 3610 H 341.576 2.95287 3.17786 0
M  V30 3611 H 342.247 2.73183 4.79661 0
M  V30 3612 H 344.723 0.955565 4.04979 0
M  V30 3613 H 343.599 0.824152 5.42678 0
M  V30 3614 H 343.86 -0.565589 4.38467 0
M  V30 3615 N 342.919 -1.39368 0.735821 0
M  V30 3616 C 344.165 -2.00794 0.284544 0
M  V30 3617 C 344.498 -1.58255 -1.12557 0
M  V30 3618 O 343.773 -0.811819 -1.76748 0
M  V30 3619 C 344.056 -3.58011 0.387337 0
M  V30 3620 C 343.909 -4.10566 1.83728 0
M  V30 3621 C 345.228 -4.395 -0.22975 0
M  V30 3622 H 342.347 -0.729501 0.104866 0
M  V30 3623 H 344.989 -1.65564 0.93213 0
M  V30 3624 H 343.139 -3.88154 -0.164006 0
M  V30 3625 H 344.811 -3.91139 2.44556 0
M  V30 3626 H 343.054 -3.64095 2.35833 0
M  V30 3627 H 343.725 -5.19702 1.86047 0
M  V30 3628 H 346.201 -4.15406 0.240257 0
M  V30 3629 H 345.077 -5.48752 -0.127485 0
M  V30 3630 H 345.338 -4.22062 -1.3159 0
M  V30 3631 N 344.397 -0.483516 -1.5 0
M  V30 3632 C 345.644 0.0671597 -2.02389 0
M  V30 3633 C 345.972 1.38597 -1.36459 0
M  V30 3634 O 345.227 1.89634 -0.483458 0
M  V30 3635 C 345.526 0.286226 -3.56252 0
M  V30 3636 C 345.192 -0.952416 -4.40726 0
M  V30 3637 C 343.854 -1.29199 -4.63531 0
M  V30 3638 C 346.206 -1.77655 -4.89988 0
M  V30 3639 C 343.534 -2.45553 -5.32842 0
M  V30 3640 C 345.886 -2.93147 -5.60578 0
M  V30 3641 C 344.55 -3.27505 -5.81633 0
M  V30 3642 H 343.82 0.0245755 -0.740592 0
M  V30 3643 H 346.467 -0.640124 -1.80485 0
M  V30 3644 H 344.772 1.07587 -3.76739 0
M  V30 3645 H 346.469 0.726473 -3.94365 0
M  V30 3646 H 343.059 -0.677881 -4.23205 0
M  V30 3647 H 347.243 -1.52737 -4.72213 0
M  V30 3648 H 342.499 -2.72431 -5.47349 0
M  V30 3649 H 346.673 -3.57344 -5.97727 0
M  V30 3650 H 344.3 -4.1777 -6.35116 0
M  V30 3651 N 345.875 1.56104 -0.216619 0
M  V30 3652 C 347.103 2.02563 0.421413 0
M  V30 3653 C 347.518 1.0965 1.53695 0
M  V30 3654 O 346.875 0.10521 1.82196 0
M  V30 3655 C 346.926 3.48584 0.957665 0
M  V30 3656 O 346.647 4.37953 -0.113389 0
M  V30 3657 C 348.148 4.10664 1.66943 0
M  V30 3658 H 345.368 0.662944 0.103665 0
M  V30 3659 H 347.912 2.01793 -0.331629 0
M  V30 3660 H 346.067 3.49985 1.661 0
M  V30 3661 H 346.481 5.23704 0.288932 0
M  V30 3662 H 347.955 5.14622 1.99671 0
M  V30 3663 H 348.432 3.55373 2.58083 0
M  V30 3664 H 349.038 4.13098 1.01142 0
M  V30 3665 N 347.353 -0.0568162 1.57498 0
M  V30 3666 C 348.578 -0.769402 1.92601 0
M  V30 3667 C 349.003 -1.69559 0.814336 0
M  V30 3668 O 348.361 -1.79811 -0.231903 0
M  V30 3669 C 348.409 -1.52634 3.26704 0
M  V30 3670 O 347.513 -2.63797 3.16994 0
M  V30 3671 H 346.854 -0.208909 0.63028 0
M  V30 3672 H 349.384 -0.0205798 2.0459 0
M  V30 3673 H 349.394 -1.90234 3.60936 0
M  V30 3674 H 348.069 -0.846875 4.07186 0
M  V30 3675 H 346.646 -2.28943 2.94346 0
M  V30 3676 N 348.832 -1.54138 -0.328536 0
M  V30 3677 C 349.795 -1.82462 -1.38709 0
M  V30 3678 C 350.795 -0.696229 -1.44946 0
M  V30 3679 O 351.985 -0.964535 -1.4506 0
M  V30 3680 C 349.117 -1.98018 -2.77492 0
M  V30 3681 H 350.31 -2.77037 -1.14851 0
M  V30 3682 H 347.863 -1.45779 -0.563751 0
M  V30 3683 H 348.598 -1.05637 -3.06613 0
M  V30 3684 H 348.383 -2.80124 -2.74359 0
M  V30 3685 H 349.873 -2.21396 -3.54081 0
M  V30 3686 N 350.31 0.590341 -1.46126 0
M  V30 3687 C 351.559 1.34499 -1.50309 0
M  V30 3688 C 351.872 1.94977 -0.156021 0
M  V30 3689 O 353.078 2.71395 -0.0756037 0
M  V30 3690 C 351.534 2.43723 -2.64815 0
M  V30 3691 C 351.142 1.89582 -4.0591 0
M  V30 3692 C 352.886 3.20579 -2.78262 0
M  V30 3693 C 350.793 2.9639 -5.11769 0
M  V30 3694 H 349.723 0.505593 -0.559368 0
M  V30 3695 H 352.374 0.630848 -1.72315 0
M  V30 3696 H 350.756 3.17902 -2.36124 0
M  V30 3697 H 351.93 1.21997 -4.44357 0
M  V30 3698 H 350.245 1.25418 -3.97063 0
M  V30 3699 H 352.842 4.00276 -3.54519 0
M  V30 3700 H 353.185 3.72684 -1.85505 0
M  V30 3701 H 353.718 2.53505 -3.06562 0
M  V30 3702 H 350.457 2.49181 -6.06291 0
M  V30 3703 H 349.977 3.62487 -4.77873 0
M  V30 3704 H 351.656 3.60474 -5.37278 0
M  V30 3705 N 351.788 1.33704 0.83433 0
M  V30 3706 C 353.065 1.16011 1.57483 0
M  V30 3707 C 353.445 -0.27176 2.09343 0
M  V30 3708 O 352.793 -1.27146 1.89858 0
M  V30 3709 C 353.003 2.20507 2.70514 0
M  V30 3710 C 354.351 2.54898 3.39577 0
M  V30 3711 O 355.375 2.19209 2.80759 0
M  V30 3712 O 354.234 3.16158 4.45765 0
M  V30 3713 H 351.328 0.448992 0.694503 0
M  V30 3714 H 353.874 1.453 0.876691 0
M  V30 3715 H 352.646 3.16667 2.29865 0
M  V30 3716 H 352.269 1.92329 3.47987 0
M  V30 3717 N 353.266 -1.05314 1.17247 0
M  V30 3718 C 354.514 -1.77941 0.958194 0
M  V30 3719 C 354.835 -1.88089 -0.514556 0
M  V30 3720 O 354.105 -1.39676 -1.37359 0
M  V30 3721 H 352.685 -0.659116 0.351533 0
M  V30 3722 H 355.347 -1.27166 1.47699 0
M  V30 3723 H 354.443 -2.79663 1.38546 0
M  V30 3724 N 354.744 -0.972509 -1.24016 0
M  V30 3725 C 355.99 -0.647583 -1.92816 0
M  V30 3726 C 356.345 0.809015 -1.74564 0
M  V30 3727 O 355.638 1.57502 -1.09103 0
M  V30 3728 C 355.832 -0.963694 -3.44162 0
M  V30 3729 C 355.661 -2.44947 -3.77135 0
M  V30 3730 C 354.431 -3.11012 -3.98246 0
M  V30 3731 C 356.629 -3.42978 -3.83237 0
M  V30 3732 N 354.611 -4.49277 -4.18358 0
M  V30 3733 C 355.982 -4.66619 -4.08248 0
M  V30 3734 C 358.037 -3.37569 -3.65994 0
M  V30 3735 C 356.74 -5.85516 -4.17808 0
M  V30 3736 C 358.766 -4.55822 -3.76802 0
M  V30 3737 C 358.128 -5.78256 -4.02243 0
M  V30 3738 H 354.227 -0.287894 -0.727077 0
M  V30 3739 H 356.811 -1.24835 -1.49413 0
M  V30 3740 H 354.982 -0.391692 -3.8642 0
M  V30 3741 H 356.714 -0.596849 -4.00275 0
M  V30 3742 H 353.469 -2.61529 -3.94841 0
M  V30 3743 H 353.893 -5.20935 -4.32384 0
M  V30 3744 H 358.535 -2.43945 -3.45327 0
M  V30 3745 H 356.253 -6.79564 -4.37285 0
M  V30 3746 H 359.839 -4.53204 -3.64825 0
M  V30 3747 H 358.719 -6.68231 -4.10411 0
M  V30 3748 N 356.222 1.38976 -0.743202 0
M  V30 3749 C 357.47 1.99948 -0.29417 0
M  V30 3750 C 357.791 1.59279 1.12495 0
M  V30 3751 O 357.061 0.844808 1.76748 0
M  V30 3752 H 355.641 0.739473 -0.105774 0
M  V30 3753 H 358.303 1.699 -0.954986 0
M  V30 3754 H 357.399 3.10142 -0.349056 0
M  V30 3755 N 357.7 0.491464 1.49741 0
M  V30 3756 C 358.947 -0.0564256 2.02421 0
M  V30 3757 C 359.275 -1.37872 1.37192 0
M  V30 3758 O 358.53 -1.89375 0.493508 0
M  V30 3759 C 358.829 -0.267329 3.56399 0
M  V30 3760 C 358.495 0.975775 4.40215 0
M  V30 3761 C 357.157 1.31655 4.62839 0
M  V30 3762 C 359.509 1.80251 4.89039 0
M  V30 3763 C 356.837 2.48375 5.31532 0
M  V30 3764 C 359.189 2.96116 5.59015 0
M  V30 3765 C 357.853 3.30585 5.79888 0
M  V30 3766 H 357.123 -0.0206476 0.740712 0
M  V30 3767 H 359.77 0.649686 1.80143 0
M  V30 3768 H 358.075 -1.05588 3.77304 0
M  V30 3769 H 359.772 -0.705549 3.94744 0
M  V30 3770 H 356.362 0.700315 4.2284 0
M  V30 3771 H 360.546 1.55239 4.71396 0
M  V30 3772 H 355.802 2.7533 5.45897 0
M  V30 3773 H 359.976 3.60509 5.95824 0
M  V30 3774 H 357.603 4.21132 6.32892 0
M  V30 3775 N 359.178 -1.55987 0.224894 0
M  V30 3776 C 360.426 -1.97998 -0.405099 0
M  V30 3777 C 360.747 -1.11387 -1.60056 0
M  V30 3778 O 360.017 -0.191645 -1.9496 0
M  V30 3779 H 358.597 -0.731235 -0.152658 0
M  V30 3780 H 361.259 -1.92279 0.318567 0
M  V30 3781 H 360.355 -3.03463 -0.729167 0
M  V30 3782 N 360.656 0.0484629 -1.57525 0
M  V30 3783 C 361.905 0.742065 -1.87553 0
M  V30 3784 C 362.218 1.77545 -0.820802 0
M  V30 3785 O 363.424 2.52027 -1.00967 0
M  V30 3786 C 361.88 1.37081 -3.32771 0
M  V30 3787 C 361.488 0.374786 -4.4643 0
M  V30 3788 C 363.232 2.04542 -3.71972 0
M  V30 3789 C 361.139 1.01077 -5.82698 0
M  V30 3790 H 360.069 0.280903 -0.699721 0
M  V30 3791 H 362.72 -0.00411877 -1.835 0
M  V30 3792 H 361.102 2.16605 -3.31509 0
M  V30 3793 H 362.276 -0.392331 -4.59127 0
M  V30 3794 H 360.591 -0.196653 -4.15935 0
M  V30 3795 H 363.188 2.52943 -4.71088 0
M  V30 3796 H 363.531 2.85515 -3.02964 0
M  V30 3797 H 364.064 1.31819 -3.75325 0
M  V30 3798 H 360.803 0.240878 -6.55057 0
M  V30 3799 H 360.323 1.74819 -5.73758 0
M  V30 3800 H 362.002 1.52383 -6.28799 0
M  V30 3801 N 362.134 1.5431 0.320358 0
M  V30 3802 C 363.044 1.86946 1.41734 0
M  V30 3803 C 364.06 0.761689 1.56443 0
M  V30 3804 O 365.236 1.05629 1.71477 0
M  V30 3805 C 362.301 2.09293 2.76401 0
M  V30 3806 C 361.362 3.33082 2.70841 0
M  V30 3807 C 360.595 3.54353 3.99086 0
M  V30 3808 O 360.818 2.79002 4.97508 0
M  V30 3809 O 359.752 4.47838 4.0215 0
M  V30 3810 H 363.578 2.80232 1.17062 0
M  V30 3811 H 361.163 1.40255 0.514673 0
M  V30 3812 H 363.045 2.25303 3.56113 0
M  V30 3813 H 361.72 1.19194 3.00956 0
M  V30 3814 H 360.627 3.22454 1.89668 0
M  V30 3815 H 361.96 4.23249 2.5124 0
M  V30 3816 N 363.613 -0.582584 1.46437 0
M  V30 3817 C 364.563 -1.68654 1.53426 0
M  V30 3818 C 365.547 -1.55971 0.395194 0
M  V30 3819 O 366.739 -1.64884 0.643612 0
M  V30 3820 C 363.868 -3.07439 1.52762 0
M  V30 3821 C 362.954 -3.25418 2.71963 0
M  V30 3822 N 363.345 -3.13556 3.96883 0
M  V30 3823 C 361.643 -3.56357 2.68189 0
M  V30 3824 C 362.344 -3.33543 4.76575 0
M  V30 3825 N 361.32 -3.58704 4.08451 0
M  V30 3826 H 365.122 -1.58014 2.47808 0
M  V30 3827 H 362.636 -0.786617 1.42078 0
M  V30 3828 H 364.633 -3.86671 1.55857 0
M  V30 3829 H 363.293 -3.1921 0.594573 0
M  V30 3830 H 364.304 -2.9142 4.28129 0
M  V30 3831 H 360.981 -3.74812 1.83908 0
M  V30 3832 H 362.371 -3.29555 5.85528 0
M  V30 3833 N 365.091 -1.34144 -0.827227 0
M  V30 3834 C 366.338 -1.26258 -1.58319 0
M  V30 3835 C 366.666 0.168595 -1.93768 0
M  V30 3836 O 365.921 1.12877 -1.59866 0
M  V30 3837 C 366.22 -2.09464 -2.89585 0
M  V30 3838 C 365.886 -3.58521 -2.73448 0
M  V30 3839 C 364.548 -3.99155 -2.68754 0
M  V30 3840 C 366.9 -4.53189 -2.57428 0
M  V30 3841 C 364.228 -5.32656 -2.45957 0
M  V30 3842 C 366.58 -5.86864 -2.36163 0
M  V30 3843 C 365.244 -6.26667 -2.29879 0
M  V30 3844 H 364.514 -0.462013 -0.579332 0
M  V30 3845 H 367.161 -1.65845 -0.95748 0
M  V30 3846 H 365.466 -1.62692 -3.56425 0
M  V30 3847 H 367.163 -2.00712 -3.47154 0
M  V30 3848 H 363.753 -3.26264 -2.77939 0
M  V30 3849 H 367.937 -4.22696 -2.60081 0
M  V30 3850 H 363.193 -5.62519 -2.39546 0
M  V30 3851 H 367.367 -6.59813 -2.22754 0
M  V30 3852 H 364.994 -7.30049 -2.11975 0
M  V30 3853 N 366.569 1.04691 -1.17803 0
M  V30 3854 C 367.532 2.10724 -0.901545 0
M  V30 3855 C 368.532 1.6042 0.110437 0
M  V30 3856 O 369.722 1.7377 -0.122303 0
M  V30 3857 C 366.854 3.39084 -0.351409 0
M  V30 3858 H 368.047 2.36686 -1.84174 0
M  V30 3859 H 365.6 1.21015 -0.98919 0
M  V30 3860 H 366.335 3.18782 0.59569 0
M  V30 3861 H 366.12 3.76909 -1.08083 0
M  V30 3862 H 367.61 4.17227 -0.176451 0
M  V30 3863 N 368.047 0.979072 1.23499 0
M  V30 3864 C 369.463 0.687475 1.44034 0
M  V30 3865 C 369.663 -0.746801 1.8715 0
M  V30 3866 O 368.719 -1.51939 2.0167 0
M  V30 3867 C 370.032 1.68127 2.49307 0
M  V30 3868 C 371.58 1.69516 2.63122 0
M  V30 3869 C 372.055 2.67723 3.71603 0
M  V30 3870 N 373.546 2.66233 3.79044 0
M  V30 3871 C 374.281 3.38891 4.62537 0
M  V30 3872 N 373.777 4.21103 5.50131 0
M  V30 3873 N 375.57 3.27661 4.56721 0
M  V30 3874 H 367.721 1.90559 0.938135 0
M  V30 3875 H 369.984 0.821051 0.473897 0
M  V30 3876 H 369.69 2.70693 2.2454 0
M  V30 3877 H 369.564 1.46306 3.4767 0
M  V30 3878 H 371.951 0.676561 2.8724 0
M  V30 3879 H 372.032 1.95404 1.65079 0
M  V30 3880 H 371.676 3.69724 3.48233 0
M  V30 3881 H 371.606 2.39111 4.69184 0
M  V30 3882 H 374.097 2.06568 3.16446 0
M  V30 3883 H 374.41 4.73403 6.10827 0
M  V30 3884 H 372.755 4.25195 5.49759 0
M  V30 3885 H 375.946 2.62887 3.87309 0
M  V30 3886 H 376.119 3.84547 5.21562 0
M  V30 3887 N 369.525 -1.3858 0.750561 0
M  V30 3888 C 370.774 -1.99424 0.302172 0
M  V30 3889 C 371.087 -1.60254 -1.12152 0
M  V30 3890 O 372.293 -2.14046 -1.67023 0
M  V30 3891 C 370.749 -3.56558 0.489307 0
M  V30 3892 C 370.357 -4.04682 1.92189 0
M  V30 3893 C 372.101 -4.24374 0.103478 0
M  V30 3894 C 370.008 -5.54446 2.05775 0
M  V30 3895 H 368.938 -0.746046 0.10923 0
M  V30 3896 H 371.589 -1.58383 0.92667 0
M  V30 3897 H 369.971 -3.95472 -0.204329 0
M  V30 3898 H 371.145 -3.77065 2.64875 0
M  V30 3899 H 369.46 -3.4958 2.26236 0
M  V30 3900 H 372.057 -5.34384 0.183787 0
M  V30 3901 H 372.4 -4.05468 -0.943481 0
M  V30 3902 H 372.933 -3.90688 0.748854 0
M  V30 3903 H 369.672 -5.78252 3.08714 0
M  V30 3904 H 369.192 -5.83816 1.37546 0
M  V30 3905 H 370.871 -6.20099 1.84626 0
M  V30 3906 N 371.003 -0.499398 -1.49478 0
M  V30 3907 C 372.233 0.0424839 -2.06556 0
M  V30 3908 C 372.641 1.31514 -1.36018 0
M  V30 3909 O 371.984 1.78555 -0.431718 0
M  V30 3910 C 372.046 0.368074 -3.57611 0
M  V30 3911 C 371.71 -0.806631 -4.49825 0
M  V30 3912 C 372.707 -1.69667 -4.91436 0
M  V30 3913 C 370.392 -1.00498 -4.92144 0
M  V30 3914 C 372.386 -2.76923 -5.74101 0
M  V30 3915 C 370.073 -2.08072 -5.74586 0
M  V30 3916 C 371.071 -2.96119 -6.15469 0
M  V30 3917 O 370.759 -4.01836 -6.96264 0
M  V30 3918 H 370.491 -0.0165165 -0.675798 0
M  V30 3919 H 373.045 -0.695497 -1.93267 0
M  V30 3920 H 371.275 1.15963 -3.68903 0
M  V30 3921 H 372.964 0.848381 -3.96935 0
M  V30 3922 H 373.73 -1.55524 -4.59388 0
M  V30 3923 H 369.609 -0.329036 -4.59824 0
M  V30 3924 H 373.153 -3.45676 -6.05932 0
M  V30 3925 H 369.05 -2.22211 -6.06047 0
M  V30 3926 H 369.818 -3.9917 -7.14567 0
M  V30 3927 N 372.481 1.55866 -0.233164 0
M  V30 3928 C 373.706 2.03449 0.402906 0
M  V30 3929 C 374.131 1.11166 1.51736 0
M  V30 3930 O 373.489 0.101996 1.81013 0
M  V30 3931 C 373.537 3.49165 0.9009 0
M  V30 3932 O 372.641 3.60019 2.01147 0
M  V30 3933 H 371.982 0.657913 0.0897025 0
M  V30 3934 H 374.512 2.01493 -0.355201 0
M  V30 3935 H 374.522 3.89716 1.2077 0
M  V30 3936 H 373.197 4.15813 0.0852889 0
M  V30 3937 H 371.774 3.3136 1.71042 0
M  V30 3938 N 373.959 -0.0401083 1.57549 0
M  V30 3939 C 374.891 -1.07149 2.02612 0
M  V30 3940 C 375.904 -1.33126 0.937085 0
M  V30 3941 O 377.093 -1.30808 1.21456 0
M  V30 3942 C 374.193 -2.41561 2.37701 0
M  V30 3943 C 373.366 -2.35096 3.68848 0
M  V30 3944 C 372.425 -3.51867 3.91249 0
M  V30 3945 O 371.451 -3.3186 4.62447 0
M  V30 3946 N 372.653 -4.73351 3.36035 0
M  V30 3947 H 375.418 -0.687485 2.91708 0
M  V30 3948 H 372.979 -0.228248 1.60283 0
M  V30 3949 H 374.971 -3.18379 2.49833 0
M  V30 3950 H 373.541 -2.71846 1.54332 0
M  V30 3951 H 372.761 -1.4345 3.67173 0
M  V30 3952 H 374.049 -2.27908 4.54901 0
M  V30 3953 H 373.447 -4.92507 2.78304 0
M  V30 3954 H 372.004 -5.47572 3.53565 0
M  V30 3955 N 375.437 -1.54477 -0.31217 0
M  V30 3956 C 376.384 -1.84655 -1.38461 0
M  V30 3957 C 377.354 -0.694536 -1.50882 0
M  V30 3958 O 378.539 -0.942081 -1.6592 0
M  V30 3959 C 375.679 -2.0896 -2.74645 0
M  V30 3960 C 374.792 -3.36618 -2.70763 0
M  V30 3961 C 373.927 -3.50824 -3.98868 0
M  V30 3962 C 372.966 -4.72315 -3.89339 0
M  V30 3963 N 372.103 -4.83387 -5.09197 0
M  V30 3964 H 376.943 -2.76142 -1.12026 0
M  V30 3965 H 374.48 -1.36748 -0.542065 0
M  V30 3966 H 376.438 -2.21045 -3.53829 0
M  V30 3967 H 375.068 -1.20752 -2.99364 0
M  V30 3968 H 374.12 -3.33211 -1.83506 0
M  V30 3969 H 375.432 -4.25917 -2.59608 0
M  V30 3970 H 374.586 -3.62513 -4.86486 0
M  V30 3971 H 373.325 -2.59638 -4.12843 0
M  V30 3972 H 372.33 -4.6067 -3.00105 0
M  V30 3973 H 373.555 -5.64897 -3.76919 0
M  V30 3974 H 371.501 -3.9512 -5.23657 0
M  V30 3975 H 371.418 -5.66669 -5.00422 0
M  V30 3976 H 372.686 -4.9942 -5.98498 0
M  V30 3977 N 376.915 0.57481 -1.46744 0
M  V30 3978 C 378.164 1.32898 -1.51727 0
M  V30 3979 C 378.477 1.948 -0.176692 0
M  V30 3980 O 379.683 2.71299 -0.104385 0
M  V30 3981 C 378.139 2.40901 -2.67385 0
M  V30 3982 C 377.747 1.85266 -4.07898 0
M  V30 3983 C 379.491 3.17609 -2.81646 0
M  V30 3984 C 377.398 2.90945 -5.14883 0
M  V30 3985 H 376.328 0.499631 -0.564699 0
M  V30 3986 H 378.979 0.612536 -1.72975 0
M  V30 3987 H 377.361 3.15379 -2.39483 0
M  V30 3988 H 378.535 1.17278 -4.45626 0
M  V30 3989 H 376.85 1.21199 -3.98371 0
M  V30 3990 H 379.447 3.96493 -3.58744 0
M  V30 3991 H 379.79 3.70696 -1.89448 0
M  V30 3992 H 380.323 2.50239 -3.09233 0
M  V30 3993 H 377.062 2.42736 -6.089 0
M  V30 3994 H 376.582 3.57398 -4.81691 0
M  V30 3995 H 378.261 3.54755 -5.41071 0
M  V30 3996 N 378.394 1.34581 0.820102 0
M  V30 3997 C 379.642 1.26845 1.57336 0
M  V30 3998 C 379.963 -0.160667 1.94337 0
M  V30 3999 O 379.233 -1.09396 1.6251 0
M  V30 4000 H 377.813 0.466514 0.583415 0
M  V30 4001 H 380.475 1.68526 0.979027 0
M  V30 4002 H 379.571 1.87513 2.4949 0
M  V30 4003 N 379.872 -1.04064 1.18357 0
M  V30 4004 C 381.121 -1.76662 0.973313 0
M  V30 4005 C 381.434 -1.89154 -0.497991 0
M  V30 4006 O 382.64 -2.58606 -0.826762 0
M  V30 4007 C 381.096 -3.17624 1.69242 0
M  V30 4008 C 380.704 -3.13225 3.20303 0
M  V30 4009 C 382.448 -3.946 1.56497 0
M  V30 4010 C 380.355 -4.49046 3.84853 0
M  V30 4011 H 379.285 -0.662214 0.36054 0
M  V30 4012 H 381.936 -1.16553 1.41731 0
M  V30 4013 H 380.318 -3.78129 1.1762 0
M  V30 4014 H 381.492 -2.62172 3.78949 0
M  V30 4015 H 379.807 -2.49749 3.33189 0
M  V30 4016 H 382.404 -4.95042 2.02084 0
M  V30 4017 H 382.747 -4.13074 0.517243 0
M  V30 4018 H 383.28 -3.4067 2.05399 0
M  V30 4019 H 380.019 -4.35777 4.89672 0
M  V30 4020 H 379.539 -5.00203 3.30994 0
M  V30 4021 H 381.218 -5.17961 3.87718 0
M  V30 4022 N 381.35 -0.985608 -1.22978 0
M  V30 4023 C 382.297 -0.529825 -2.24636 0
M  V30 4024 C 383.267 0.434028 -1.60329 0
M  V30 4025 O 384.452 0.340414 -1.87739 0
M  V30 4026 C 381.592 0.156533 -3.44745 0
M  V30 4027 C 380.705 -0.848197 -4.23591 0
M  V30 4028 C 379.84 -0.136109 -5.31026 0
M  V30 4029 C 378.879 -1.1297 -6.01585 0
M  V30 4030 N 378.016 -0.446415 -7.00679 0
M  V30 4031 H 382.856 -1.40148 -2.62988 0
M  V30 4032 H 380.393 -0.702168 -1.29259 0
M  V30 4033 H 382.351 0.571324 -4.1327 0
M  V30 4034 H 380.981 0.992025 -3.07179 0
M  V30 4035 H 380.033 -1.38135 -3.54433 0
M  V30 4036 H 381.345 -1.60512 -4.72268 0
M  V30 4037 H 380.499 0.335784 -6.0577 0
M  V30 4038 H 379.238 0.653373 -4.83304 0
M  V30 4039 H 378.243 -1.6123 -5.25628 0
M  V30 4040 H 379.468 -1.91993 -6.51395 0
M  V30 4041 H 377.414 0.323763 -6.55201 0
M  V30 4042 H 377.331 -1.1419 -7.47326 0
M  V30 4043 H 378.599 0.00291697 -7.795 0
M  V30 4044 N 382.828 1.3818 -0.7579 0
M  V30 4045 C 383.775 2.30416 -0.133057 0
M  V30 4046 C 384.745 1.50398 0.704957 0
M  V30 4047 O 385.93 1.79014 0.660192 0
M  V30 4048 C 383.07 3.36834 0.750813 0
M  V30 4049 C 382.183 4.31879 -0.102297 0
M  V30 4050 C 381.318 5.25368 0.784979 0
M  V30 4051 C 380.357 6.12058 -0.0715046 0
M  V30 4052 N 379.494 6.97832 0.772972 0
M  V30 4053 H 384.334 2.83274 -0.925186 0
M  V30 4054 H 381.871 1.39461 -0.467866 0
M  V30 4055 H 383.829 3.97145 1.27794 0
M  V30 4056 H 382.459 2.85374 1.50868 0
M  V30 4057 H 381.511 3.72991 -0.747095 0
M  V30 4058 H 382.823 4.92921 -0.763552 0
M  V30 4059 H 381.977 5.90818 1.37911 0
M  V30 4060 H 380.716 4.64703 1.47996 0
M  V30 4061 H 379.721 5.456 -0.678272 0
M  V30 4062 H 380.946 6.74793 -0.763606 0
M  V30 4063 H 378.892 6.3971 1.45282 0
M  V30 4064 H 378.809 7.55812 0.168709 0
M  V30 4065 H 380.077 7.67687 1.35194 0
M  V30 4066 N 384.306 0.507319 1.49211 0
M  V30 4067 C 385.216 -0.272136 2.33016 0
M  V30 4068 C 386.232 -0.961206 1.45041 0
M  V30 4069 O 387.408 -0.941191 1.78055 0
M  V30 4070 C 384.473 -1.31895 3.20631 0
M  V30 4071 C 383.534 -0.642648 4.24463 0
M  V30 4072 C 382.767 -1.63959 5.07891 0
M  V30 4073 O 382.99 -2.87007 4.92933 0
M  V30 4074 O 381.924 -1.19143 5.8999 0
M  V30 4075 H 385.75 0.413982 3.00865 0
M  V30 4076 H 383.335 0.268556 1.46966 0
M  V30 4077 H 385.217 -1.92446 3.7489 0
M  V30 4078 H 383.892 -1.98788 2.5547 0
M  V30 4079 H 382.799 0.00276252 3.741 0
M  V30 4080 H 384.132 -0.0160534 4.92197 0
M  V30 4081 N 385.784 -1.5574 0.241426 0
M  V30 4082 C 387.03 -1.99104 -0.385406 0
M  V30 4083 C 387.363 -1.1293 -1.57988 0
M  V30 4084 O 386.638 -0.191449 -1.93555 0
M  V30 4085 C 386.921 -3.51087 -0.800616 0
M  V30 4086 C 386.774 -4.48028 0.398874 0
M  V30 4087 C 388.093 -4.08015 -1.64959 0
M  V30 4088 H 385.212 -0.723848 -0.138614 0
M  V30 4089 H 387.854 -1.86903 0.341642 0
M  V30 4090 H 386.004 -3.61615 -1.4201 0
M  V30 4091 H 387.676 -4.49487 1.03726 0
M  V30 4092 H 385.919 -4.21077 1.04293 0
M  V30 4093 H 386.59 -5.51962 0.0651056 0
M  V30 4094 H 389.066 -4.00555 -1.12672 0
M  V30 4095 H 387.942 -5.14635 -1.90898 0
M  V30 4096 H 388.203 -3.56131 -2.61961 0
M  V30 4097 N 387.262 0.0317525 -1.57568 0
M  V30 4098 C 388.192 1.03274 -2.0942 0
M  V30 4099 C 389.173 1.3788 -0.996143 0
M  V30 4100 O 390.358 1.46811 -1.27122 0
M  V30 4101 C 387.488 2.33448 -2.57137 0
M  V30 4102 C 386.442 2.13091 -3.71182 0
M  V30 4103 C 385.768 3.49001 -4.05095 0
M  V30 4104 C 387.068 1.51928 -4.99715 0
M  V30 4105 H 388.762 0.60112 -2.93303 0
M  V30 4106 H 386.308 0.287705 -1.41097 0
M  V30 4107 H 388.261 3.03802 -2.92032 0
M  V30 4108 H 386.985 2.78665 -1.70333 0
M  V30 4109 H 385.644 1.45171 -3.36632 0
M  V30 4110 H 385.292 3.91862 -3.15362 0
M  V30 4111 H 384.992 3.36207 -4.81911 0
M  V30 4112 H 386.516 4.20721 -4.42522 0
M  V30 4113 H 387.93 2.12196 -5.32584 0
M  V30 4114 H 386.327 1.49716 -5.81124 0
M  V30 4115 H 387.397 0.484811 -4.8247 0
M  V30 4116 N 388.74 1.54641 0.303973 0
M  V30 4117 C 389.673 1.80263 1.3993 0
M  V30 4118 C 390.651 0.653657 1.48883 0
M  V30 4119 O 391.835 0.893284 1.6599 0
M  V30 4120 C 388.962 1.9367 2.77866 0
M  V30 4121 C 388.008 3.16078 2.86351 0
M  V30 4122 S 388.841 4.74219 2.4875 0
M  V30 4123 C 389.997 4.90558 3.88721 0
M  V30 4124 H 390.23 2.72886 1.17986 0
M  V30 4125 H 387.763 1.46014 0.501918 0
M  V30 4126 H 389.721 2.0208 3.57315 0
M  V30 4127 H 388.382 1.01991 2.9708 0
M  V30 4128 H 387.575 3.22252 3.87517 0
M  V30 4129 H 387.177 3.06099 2.14893 0
M  V30 4130 H 389.469 4.74398 4.83687 0
M  V30 4131 H 390.412 5.92651 3.87518 0
M  V30 4132 H 390.82 4.18728 3.78585 0
M  V30 4133 N 390.218 -0.567019 1.47046 0
M  V30 4134 C 391.165 -1.67489 1.58796 0
M  V30 4135 C 392.135 -1.60399 0.43144 0
M  V30 4136 O 393.32 -1.79378 0.650233 0
M  V30 4137 C 390.46 -3.05821 1.59899 0
M  V30 4138 C 389.573 -3.2342 2.86397 0
M  V30 4139 C 388.708 -4.52093 2.789 0
M  V30 4140 C 387.747 -4.6309 4.00267 0
M  V30 4141 N 386.884 -5.83106 3.91064 0
M  V30 4142 H 391.724 -1.56785 2.53422 0
M  V30 4143 H 389.261 -0.763896 1.2571 0
M  V30 4144 H 391.219 -3.8591 1.58522 0
M  V30 4145 H 389.849 -3.15384 0.687929 0
M  V30 4146 H 388.901 -2.3683 2.97684 0
M  V30 4147 H 390.213 -3.27412 3.76301 0
M  V30 4148 H 389.367 -5.4043 2.75718 0
M  V30 4149 H 388.106 -4.50565 1.86662 0
M  V30 4150 H 387.111 -3.73168 4.03765 0
M  V30 4151 H 388.336 -4.66386 4.93621 0
M  V30 4152 H 386.282 -5.82546 3.01623 0
M  V30 4153 H 386.199 -5.88434 4.74638 0
M  V30 4154 H 387.467 -6.73831 3.91882 0
M  V30 4155 N 391.696 -1.35014 -0.812953 0
M  V30 4156 C 392.924 -1.31031 -1.6012 0
M  V30 4157 C 393.339 0.113558 -1.88458 0
M  V30 4158 O 392.696 1.06363 -1.48301 0
M  V30 4159 C 392.747 -2.10872 -2.93624 0
M  V30 4160 O 392.468 -3.47706 -2.66518 0
M  V30 4161 C 393.969 -2.14401 -3.88004 0
M  V30 4162 H 391.189 -0.45037 -0.497401 0
M  V30 4163 H 393.733 -1.77775 -1.01076 0
M  V30 4164 H 391.888 -1.67744 -3.492 0
M  V30 4165 H 392.302 -3.89097 -3.51715 0
M  V30 4166 H 393.776 -2.74669 -4.78812 0
M  V30 4167 H 394.253 -1.14105 -4.24119 0
M  V30 4168 H 394.859 -2.57662 -3.38364 0
M  V30 4169 N 393.175 1.03435 -1.18907 0
M  V30 4170 C 394.105 2.13503 -0.945448 0
M  V30 4171 C 395.086 1.69682 0.119189 0
M  V30 4172 O 396.271 1.94169 -0.034707 0
M  V30 4173 C 393.401 3.44004 -0.477316 0
M  V30 4174 C 392.355 4.0148 -1.48316 0
M  V30 4175 C 391.681 5.27537 -0.872311 0
M  V30 4176 C 392.981 4.36921 -2.86177 0
M  V30 4177 H 394.675 2.34141 -1.86597 0
M  V30 4178 H 392.221 1.12523 -0.898584 0
M  V30 4179 H 394.174 4.20372 -0.294204 0
M  V30 4180 H 392.898 3.23072 0.478786 0
M  V30 4181 H 391.557 3.27201 -1.65332 0
M  V30 4182 H 391.205 5.02917 0.0911752 0
M  V30 4183 H 390.905 5.66954 -1.54393 0
M  V30 4184 H 392.429 6.06576 -0.699871 0
M  V30 4185 H 393.843 5.04248 -2.72776 0
M  V30 4186 H 392.24 4.87405 -3.50081 0
M  V30 4187 H 393.31 3.46466 -3.39248 0
M  V30 4188 N 394.653 0.992116 1.22453 0
M  V30 4189 C 395.899 0.678177 1.91761 0
M  V30 4190 C 396.254 -0.781141 1.75829 0
M  V30 4191 O 395.547 -1.55747 1.11595 0
M  V30 4192 C 395.741 1.01832 3.42586 0
M  V30 4193 C 395.57 2.50916 3.73191 0
M  V30 4194 C 394.34 3.17308 3.93248 0
M  V30 4195 C 396.538 3.49032 3.77732 0
M  V30 4196 N 394.52 4.55876 4.11157 0
M  V30 4197 C 395.891 4.73055 4.00773 0
M  V30 4198 C 397.946 3.43349 3.60577 0
M  V30 4199 C 396.649 5.92089 4.0844 0
M  V30 4200 C 398.675 4.61759 3.69503 0
M  V30 4201 C 398.037 5.84582 3.92993 0
M  V30 4202 H 394.136 0.299425 0.722405 0
M  V30 4203 H 396.72 1.27197 1.47408 0
M  V30 4204 H 394.891 0.453118 3.85748 0
M  V30 4205 H 396.623 0.660454 3.99274 0
M  V30 4206 H 393.378 2.67778 3.9063 0
M  V30 4207 H 393.802 5.27748 4.24042 0
M  V30 4208 H 398.444 2.49408 3.41402 0
M  V30 4209 H 396.162 6.86435 4.26418 0
M  V30 4210 H 399.748 4.58951 3.57569 0
M  V30 4211 H 398.628 6.74676 3.99728 0
M  V30 4212 N 396.131 -1.37776 0.765217 0
M  V30 4213 C 397.379 -1.99454 0.325943 0
M  V30 4214 C 397.7 -1.61049 -1.09947 0
M  V30 4215 O 396.97 -0.872821 -1.75381 0
M  V30 4216 H 395.55 -0.737697 0.117525 0
M  V30 4217 H 398.212 -1.68359 0.981895 0
M  V30 4218 H 397.308 -3.09547 0.398353 0
M  V30 4219 N 397.609 -0.515225 -1.4894 0
M  V30 4220 C 398.886 0.0879088 -1.95402 0
M  V30 4221 C 399.266 1.52745 -1.45712 0
M  V30 4222 O 398.614 2.18238 -0.677093 0
M  V30 4223 C 398.824 -0.0141055 -3.48997 0
M  V30 4224 C 400.172 0.152646 -4.24326 0
M  V30 4225 O 401.196 0.0604025 -3.56149 0
M  V30 4226 O 400.055 0.34384 -5.45417 0
M  V30 4227 H 397.149 0.0874636 -0.822362 0
M  V30 4228 H 399.695 -0.578775 -1.59525 0
M  V30 4229 H 398.467 -1.01745 -3.77841 0
M  V30 4230 H 398.09 0.692091 -3.9153 0
M  V30 4231 N 399.087 1.5561 -0.249682 0
M  V30 4232 C 400.317 2.03116 0.377803 0
M  V30 4233 C 400.725 1.12822 1.51881 0
M  V30 4234 O 400.068 0.13562 1.83199 0
M  V30 4235 C 400.13 3.46866 0.944693 0
M  V30 4236 C 399.794 4.56955 -0.0644259 0
M  V30 4237 C 400.791 5.12485 -0.874957 0
M  V30 4238 C 398.476 5.01936 -0.19132 0
M  V30 4239 C 400.47 6.11491 -1.79881 0
M  V30 4240 C 398.157 6.00773 -1.11868 0
M  V30 4241 C 399.155 6.5543 -1.92095 0
M  V30 4242 O 398.843 7.5234 -2.83267 0
M  V30 4243 H 398.575 0.669489 0.0935961 0
M  V30 4244 H 401.129 2.02004 -0.371966 0
M  V30 4245 H 399.359 3.45136 1.74407 0
M  V30 4246 H 401.048 3.77856 1.48255 0
M  V30 4247 H 401.814 4.78564 -0.787523 0
M  V30 4248 H 397.693 4.59055 0.423072 0
M  V30 4249 H 401.237 6.54078 -2.42543 0
M  V30 4250 H 397.134 6.34114 -1.20703 0
M  V30 4251 H 397.902 7.69966 -2.7766 0
M  V30 4252 N 400.565 -0.0233959 1.57583 0
M  V30 4253 C 401.795 -0.723631 1.93513 0
M  V30 4254 C 402.203 -1.69115 0.848333 0
M  V30 4255 O 401.546 -1.82781 -0.183484 0
M  V30 4256 C 401.608 -1.53075 3.25282 0
M  V30 4257 C 401.272 -0.727388 4.51174 0
M  V30 4258 C 402.269 -0.0251924 5.19894 0
M  V30 4259 C 399.954 -0.680256 4.97672 0
M  V30 4260 C 401.948 0.713374 6.33395 0
M  V30 4261 C 399.635 0.0620523 6.11068 0
M  V30 4262 C 400.633 0.757622 6.78785 0
M  V30 4263 O 400.321 1.48787 7.90011 0
M  V30 4264 H 400.053 -0.208051 0.643188 0
M  V30 4265 H 402.607 0.0167489 2.05393 0
M  V30 4266 H 400.837 -2.31508 3.09744 0
M  V30 4267 H 402.526 -2.11413 3.46496 0
M  V30 4268 H 403.292 -0.0526003 4.84971 0
M  V30 4269 H 399.171 -1.21116 4.44805 0
M  V30 4270 H 402.715 1.25683 6.86185 0
M  V30 4271 H 398.612 0.0913634 6.45435 0
M  V30 4272 H 399.38 1.40213 8.06401 0
M  V30 4273 N 402.043 -1.548 -0.295768 0
M  V30 4274 C 403.292 -1.73538 -1.02798 0
M  V30 4275 C 403.605 -0.531159 -1.8825 0
M  V30 4276 O 404.811 -0.600458 -2.64777 0
M  V30 4277 C 403.267 -3.07051 -1.87744 0
M  V30 4278 C 402.875 -4.34968 -1.07269 0
M  V30 4279 C 404.619 -3.35146 -2.60533 0
M  V30 4280 C 402.526 -5.5953 -1.91521 0
M  V30 4281 H 401.456 -0.646794 -0.387522 0
M  V30 4282 H 404.107 -1.81278 -0.284718 0
M  V30 4283 H 402.489 -2.93289 -2.66078 0
M  V30 4284 H 403.663 -4.5958 -0.335117 0
M  V30 4285 H 401.978 -4.13847 -0.460384 0
M  V30 4286 H 404.575 -4.2541 -3.23929 0
M  V30 4287 H 404.918 -2.54255 -3.29636 0
M  V30 4288 H 405.451 -3.49902 -1.89244 0
M  V30 4289 H 402.19 -6.43103 -1.26878 0
M  V30 4290 H 401.71 -5.39096 -2.62937 0
M  V30 4291 H 403.389 -5.96982 -2.49442 0
M  V30 4292 N 403.521 0.559213 -1.47345 0
M  V30 4293 C 404.469 1.68747 -1.60085 0
M  V30 4294 C 405.463 1.628 -0.46825 0
M  V30 4295 O 406.669 1.68009 -0.645977 0
M  V30 4296 H 403.044 0.558329 -0.503759 0
M  V30 4297 H 405.015 1.55138 -2.54902 0
M  V30 4298 C 403.764 3.07103 -1.63042 0
M  V30 4299 H 403.087 3.12361 -2.49541 0
M  V30 4300 H 404.527 3.85743 -1.76006 0
M  V30 4301 C 402.986 3.34935 -0.363357 0
M  V30 4302 O 403.516 3.98102 0.536416 0
M  V30 4303 N 401.722 2.89574 -0.244 0
M  V30 4304 H 401.269 2.38348 -0.977133 0
M  V30 4305 H 401.227 3.08566 0.602836 0
M  V30 4306 N 404.999 1.35443 0.805782 0
M  V30 4307 C 405.932 1.22783 1.92353 0
M  V30 4308 C 406.91 0.115543 1.62189 0
M  V30 4309 O 408.094 0.283778 1.86352 0
M  V30 4310 C 405.221 0.890746 3.26777 0
M  V30 4311 C 404.267 2.01519 3.75889 0
M  V30 4312 S 405.1 3.63101 3.93596 0
M  V30 4313 C 406.256 3.31472 5.30921 0
M  V30 4314 H 406.489 2.17394 2.02798 0
M  V30 4315 H 404.022 1.20669 0.963245 0
M  V30 4316 H 405.98 0.703068 4.04434 0
M  V30 4317 H 404.641 -0.0373152 3.14078 0
M  V30 4318 H 403.834 1.7335 4.7325 0
M  V30 4319 H 403.436 2.16124 3.05231 0
M  V30 4320 H 405.728 2.8435 6.1494 0
M  V30 4321 H 406.671 4.28036 5.64084 0
M  V30 4322 H 407.079 2.67221 4.97246 0
M  V30 4323 N 406.477 -1.02803 1.19454 0
M  V30 4324 C 407.424 -2.11099 0.933046 0
M  V30 4325 C 408.394 -1.65571 -0.132447 0
M  V30 4326 O 409.579 -1.90797 0.00987576 0
M  V30 4327 C 406.719 -3.41763 0.478747 0
M  V30 4328 C 405.832 -4.00833 1.6111 0
M  V30 4329 C 404.967 -5.19511 1.10825 0
M  V30 4330 C 404.006 -5.70639 2.21445 0
M  V30 4331 N 403.143 -6.80589 1.72461 0
M  V30 4332 H 407.983 -2.32804 1.86028 0
M  V30 4333 H 405.52 -1.14179 0.927441 0
M  V30 4334 H 407.478 -4.16736 0.196745 0
M  V30 4335 H 406.108 -3.20166 -0.411493 0
M  V30 4336 H 405.16 -3.23066 2.00829 0
M  V30 4337 H 406.472 -4.34794 2.4445 0
M  V30 4338 H 405.626 -6.01645 0.781533 0
M  V30 4339 H 404.365 -4.87086 0.244606 0
M  V30 4340 H 403.37 -4.87116 2.54947 0
M  V30 4341 H 404.595 -6.05102 3.08267 0
M  V30 4342 H 402.541 -6.50016 0.884056 0
M  V30 4343 H 402.458 -7.13681 2.49389 0
M  V30 4344 H 403.726 -7.66317 1.42755 0
M  V30 4345 N 407.956 -0.998596 -1.21925 0
M  V30 4346 C 408.919 -0.558679 -2.22287 0
M  V30 4347 C 409.919 0.361525 -1.56683 0
M  V30 4348 O 411.109 0.152695 -1.73529 0
M  V30 4349 C 408.241 0.18661 -3.40389 0
M  V30 4350 H 409.434 -1.4463 -2.62721 0
M  V30 4351 H 406.987 -0.786413 -1.35075 0
M  V30 4352 H 407.722 1.08996 -3.05435 0
M  V30 4353 H 407.507 -0.474188 -3.89222 0
M  V30 4354 H 408.997 0.482367 -4.14805 0
M  V30 4355 N 409.434 1.37368 -0.772513 0
M  V30 4356 C 410.381 2.30262 -0.157488 0
M  V30 4357 C 411.351 1.51137 0.688965 0
M  V30 4358 O 412.536 1.79704 0.641168 0
M  V30 4359 C 409.676 3.37611 0.715045 0
M  V30 4360 C 408.789 4.31746 -0.148098 0
M  V30 4361 C 407.924 5.26171 0.729213 0
M  V30 4362 C 406.963 6.11948 -0.136418 0
M  V30 4363 N 406.1 6.98613 0.698914 0
M  V30 4364 H 410.94 2.82277 -0.955179 0
M  V30 4365 H 408.477 1.38957 -0.482631 0
M  V30 4366 H 410.435 3.98479 1.23575 0
M  V30 4367 H 409.065 2.86959 1.47833 0
M  V30 4368 H 408.117 3.72178 -0.786613 0
M  V30 4369 H 409.429 4.92084 -0.81579 0
M  V30 4370 H 408.583 5.92247 1.31637 0
M  V30 4371 H 407.322 4.66246 1.43059 0
M  V30 4372 H 406.327 5.4485 -0.736102 0
M  V30 4373 H 407.552 6.73945 -0.835134 0
M  V30 4374 H 405.498 6.41215 1.38489 0
M  V30 4375 H 405.415 7.55948 0.0885358 0
M  V30 4376 H 406.683 7.69077 1.27044 0
M  V30 4377 N 410.912 0.523116 1.48665 0
M  V30 4378 C 411.859 -0.243398 2.29513 0
M  V30 4379 C 412.829 -0.940139 1.36933 0
M  V30 4380 O 414.014 -0.942503 1.65896 0
M  V30 4381 C 411.154 -1.28855 3.20141 0
M  V30 4382 C 410.267 -0.60135 4.27794 0
M  V30 4383 C 409.402 -1.62884 5.05611 0
M  V30 4384 C 408.441 -0.924726 6.05075 0
M  V30 4385 N 407.578 -1.89744 6.75975 0
M  V30 4386 H 412.418 0.452234 2.94549 0
M  V30 4387 H 409.955 0.234858 1.45213 0
M  V30 4388 H 411.913 -1.90674 3.71079 0
M  V30 4389 H 410.543 -1.95266 2.57043 0
M  V30 4390 H 409.595 0.130623 3.80176 0
M  V30 4391 H 410.907 -0.0481585 4.98777 0
M  V30 4392 H 410.061 -2.32149 5.60528 0
M  V30 4393 H 408.8 -2.21592 4.34452 0
M  V30 4394 H 407.805 -0.217966 5.49368 0
M  V30 4395 H 409.03 -0.343851 6.78229 0
M  V30 4396 H 406.976 -2.47373 6.07571 0
M  V30 4397 H 406.893 -1.3955 7.43009 0
M  V30 4398 H 408.161 -2.58229 7.35485 0
M  V30 4399 N 412.39 -1.55475 0.257931 0
M  V30 4400 C 413.639 -1.98383 -0.364275 0
M  V30 4401 C 413.952 -1.14952 -1.58258 0
M  V30 4402 O 415.158 -1.47924 -2.27664 0
M  V30 4403 C 413.614 -3.53037 -0.699479 0
M  V30 4404 C 413.222 -4.45223 0.498046 0
M  V30 4405 C 414.966 -4.04575 -1.28526 0
M  V30 4406 C 412.873 -5.91238 0.138383 0
M  V30 4407 H 411.803 -0.740911 -0.13988 0
M  V30 4408 H 414.454 -1.79936 0.359883 0
M  V30 4409 H 412.836 -3.6722 -1.48207 0
M  V30 4410 H 414.01 -4.42803 1.27522 0
M  V30 4411 H 412.325 -4.04226 0.999503 0
M  V30 4412 H 414.922 -5.11196 -1.56788 0
M  V30 4413 H 415.265 -3.5258 -2.21344 0
M  V30 4414 H 415.798 -3.93762 -0.565337 0
M  V30 4415 H 412.537 -6.47294 1.03398 0
M  V30 4416 H 412.057 -5.96768 -0.602374 0
M  V30 4417 H 413.736 -6.46413 -0.27553 0
M  V30 4418 N 413.868 0.0150385 -1.57593 0
M  V30 4419 C 414.801 1.04475 -2.0288 0
M  V30 4420 C 415.779 1.3436 -0.915764 0
M  V30 4421 O 416.963 1.46779 -1.18271 0
M  V30 4422 C 414.09 2.37608 -2.41371 0
M  V30 4423 C 413.136 2.23487 -3.63257 0
M  V30 4424 S 413.969 1.57505 -5.11813 0
M  V30 4425 C 415.125 2.921 -5.5356 0
M  V30 4426 H 415.358 0.65907 -2.89903 0
M  V30 4427 H 412.891 0.225452 -1.52745 0
M  V30 4428 H 414.849 3.14165 -2.64217 0
M  V30 4429 H 413.51 2.7332 -1.54775 0
M  V30 4430 H 412.703 3.21802 -3.87891 0
M  V30 4431 H 412.305 1.55074 -3.40335 0
M  V30 4432 H 414.597 3.88419 -5.55101 0
M  V30 4433 H 415.54 2.72184 -6.53698 0
M  V30 4434 H 415.948 2.95318 -4.8109 0
M  V30 4435 N 415.346 1.54954 0.287554 0
M  V30 4436 C 416.293 1.86834 1.35505 0
M  V30 4437 C 417.263 0.718452 1.49758 0
M  V30 4438 O 418.448 0.968358 1.644 0
M  V30 4439 C 415.588 2.13303 2.71286 0
M  V30 4440 C 414.701 3.40883 2.65373 0
M  V30 4441 C 413.836 3.57125 3.93236 0
M  V30 4442 C 412.875 4.78449 3.81776 0
M  V30 4443 N 412.012 4.91426 5.01443 0
M  V30 4444 H 416.852 2.77889 1.07619 0
M  V30 4445 H 414.389 1.37593 0.520241 0
M  V30 4446 H 416.347 2.26646 3.50267 0
M  V30 4447 H 414.977 1.25499 2.97405 0
M  V30 4448 H 414.029 3.36088 1.78182 0
M  V30 4449 H 415.341 4.29993 2.52799 0
M  V30 4450 H 414.495 3.70207 4.80658 0
M  V30 4451 H 413.234 2.66173 4.0866 0
M  V30 4452 H 412.239 4.65386 2.92738 0
M  V30 4453 H 413.464 5.70822 3.67884 0
M  V30 4454 H 411.41 4.03401 5.17304 0
M  V30 4455 H 411.327 5.74559 4.91343 0
M  V30 4456 H 412.595 5.08879 5.90477 0
M  V30 4457 N 416.824 -0.551391 1.4764 0
M  V30 4458 C 418.072 -1.30572 1.54258 0
M  V30 4459 C 418.393 -1.93877 0.208963 0
M  V30 4460 O 417.663 -1.80234 -0.767619 0
M  V30 4461 H 416.243 -0.484894 0.568231 0
M  V30 4462 H 418.905 -0.643402 1.83974 0
M  V30 4463 H 418.001 -2.09621 2.31226 0
M  V30 4464 N 418.302 -1.35869 -0.798587 0
M  V30 4465 C 419.579 -1.20145 -1.54352 0
M  V30 4466 C 419.959 0.216161 -2.0999 0
M  V30 4467 O 419.307 1.22068 -1.93162 0
M  V30 4468 C 419.517 -2.27602 -2.64572 0
M  V30 4469 C 420.865 -2.63811 -3.32699 0
M  V30 4470 O 421.889 -2.26576 -2.74849 0
M  V30 4471 O 420.748 -3.27866 -4.37226 0
M  V30 4472 H 417.842 -0.467248 -0.682355 0
M  V30 4473 H 420.388 -1.47574 -0.837859 0
M  V30 4474 H 419.16 -3.2265 -2.21388 0
M  V30 4475 H 418.783 -2.01488 -3.42766 0
M  V30 4476 N 419.78 1.02168 -1.19998 0
M  V30 4477 C 420.712 2.10705 -0.901994 0
M  V30 4478 C 421.725 1.6244 0.108216 0
M  V30 4479 O 422.914 1.78082 -0.12214 0
M  V30 4480 C 420.014 3.37291 -0.329834 0
M  V30 4481 C 419.187 4.14714 -1.39035 0
M  V30 4482 C 418.246 5.19606 -0.830432 0
M  V30 4483 O 417.272 5.48809 -1.50989 0
M  V30 4484 N 418.474 5.79366 0.362696 0
M  V30 4485 H 421.239 2.36856 -1.83628 0
M  V30 4486 H 418.8 1.18518 -1.10296 0
M  V30 4487 H 420.792 4.04657 0.0587633 0
M  V30 4488 H 419.362 3.0843 0.508891 0
M  V30 4489 H 418.582 3.42392 -1.9535 0
M  V30 4490 H 419.87 4.63226 -2.10474 0
M  V30 4491 H 419.268 5.57968 0.932081 0
M  V30 4492 H 417.825 6.48106 0.69299 0
M  V30 4493 N 421.258 1.00505 1.21394 0
M  V30 4494 C 422.221 0.570459 2.21987 0
M  V30 4495 C 423.221 -0.353211 1.56873 0
M  V30 4496 O 424.411 -0.14349 1.73608 0
M  V30 4497 C 421.543 -0.168555 3.40483 0
M  V30 4498 H 422.736 1.46021 2.6195 0
M  V30 4499 H 420.289 0.793565 1.34656 0
M  V30 4500 H 421.024 -1.07374 3.06009 0
M  V30 4501 H 420.809 0.494823 3.88965 0
M  V30 4502 H 422.299 -0.460362 4.15055 0
M  V30 4503 N 422.737 -1.36956 0.779787 0
M  V30 4504 C 423.684 -2.30175 0.169697 0
M  V30 4505 C 424.654 -1.51501 -0.68094 0
M  V30 4506 O 425.839 -1.80042 -0.631629 0
M  V30 4507 C 422.979 -3.37985 -0.697131 0
M  V30 4508 C 422.092 -4.31661 0.170992 0
M  V30 4509 C 421.227 -5.2655 -0.701298 0
M  V30 4510 C 420.266 -6.11867 0.168869 0
M  V30 4511 N 419.403 -6.98973 -0.661855 0
M  V30 4512 H 424.243 -2.81767 0.970135 0
M  V30 4513 H 421.78 -1.38699 0.489994 0
M  V30 4514 H 423.738 -3.99128 -1.2146 0
M  V30 4515 H 422.368 -2.87739 -1.46309 0
M  V30 4516 H 421.42 -3.71756 0.80634 0
M  V30 4517 H 422.732 -4.91644 0.841875 0
M  V30 4518 H 421.886 -5.92937 -1.28494 0
M  V30 4519 H 420.625 -4.66998 -1.40584 0
M  V30 4520 H 419.63 -5.44452 0.764986 0
M  V30 4521 H 420.855 -6.73493 0.870863 0
M  V30 4522 H 418.801 -6.41941 -1.35086 0
M  V30 4523 H 418.718 -7.55984 -0.0484447 0
M  V30 4524 H 419.986 -7.6974 -1.22963 0
M  V30 4525 N 424.215 -0.530993 -1.48385 0
M  V30 4526 C 425.463 0.00273189 -2.021 0
M  V30 4527 C 425.784 1.34672 -1.41027 0
M  V30 4528 O 425.054 1.8724 -0.576012 0
M  V30 4529 H 423.634 0.00399774 -0.746989 0
M  V30 4530 H 426.296 -0.695054 -1.82085 0
M  V30 4531 H 425.392 0.11031 -3.11905 0
M  V30 4532 N 425.693 1.55336 -0.266172 0
M  V30 4533 C 426.64 2.22172 0.625165 0
M  V30 4534 C 427.61 1.19211 1.15663 0
M  V30 4535 O 428.795 1.47723 1.20758 0
M  V30 4536 C 425.935 2.93972 1.8076 0
M  V30 4537 C 425.048 4.11632 1.31084 0
M  V30 4538 C 424.183 4.71099 2.45436 0
M  V30 4539 C 423.222 5.8097 1.92718 0
M  V30 4540 N 422.359 6.34538 3.00509 0
M  V30 4541 H 427.199 2.9796 0.0485582 0
M  V30 4542 H 424.736 1.47095 0.0122024 0
M  V30 4543 H 426.694 3.33811 2.50251 0
M  V30 4544 H 425.324 2.20623 2.35638 0
M  V30 4545 H 424.376 3.76975 0.509326 0
M  V30 4546 H 425.688 4.90893 0.884633 0
M  V30 4547 H 424.842 5.13612 3.22936 0
M  V30 4548 H 423.581 3.91096 2.91368 0
M  V30 4549 H 422.586 5.37916 1.13695 0
M  V30 4550 H 423.811 6.62836 1.47733 0
M  V30 4551 H 421.757 5.57433 3.45839 0
M  V30 4552 H 421.674 7.09046 2.62279 0
M  V30 4553 H 422.942 6.81709 3.78011 0
M  V30 4554 N 427.171 -0.0066808 1.57599 0
M  V30 4555 C 428.118 -1.00024 2.08 0
M  V30 4556 C 429.088 -1.34549 0.973943 0
M  V30 4557 O 430.273 -1.44502 1.24595 0
M  V30 4558 C 427.413 -2.2891 2.58252 0
M  V30 4559 C 426.526 -2.00346 3.82734 0
M  V30 4560 C 425.661 -3.23265 4.21513 0
M  V30 4561 C 424.7 -2.90357 5.3885 0
M  V30 4562 N 423.837 -4.05793 5.72954 0
M  V30 4563 H 428.677 -0.563499 2.92624 0
M  V30 4564 H 426.214 -0.266592 1.44664 0
M  V30 4565 H 428.172 -3.04247 2.85464 0
M  V30 4566 H 426.802 -2.70265 1.76512 0
M  V30 4567 H 425.854 -1.15406 3.62471 0
M  V30 4568 H 427.166 -1.72086 4.68175 0
M  V30 4569 H 426.32 -4.06953 4.49971 0
M  V30 4570 H 425.059 -3.54657 3.34768 0
M  V30 4571 H 424.064 -2.05075 5.10122 0
M  V30 4572 H 425.289 -2.60219 6.27266 0
M  V30 4573 H 423.235 -4.37094 4.89167 0
M  V30 4574 H 423.152 -3.81034 6.52954 0
M  V30 4575 H 424.42 -4.90289 6.06001 0
M  V30 4576 N 428.649 -1.55105 -0.279332 0
M  V30 4577 C 430.06 -1.66186 -0.850832 0
M  V30 4578 C 430.411 -0.584707 -1.87285 0
M  V30 4579 O 429.536 0.274919 -2.14647 0
M  V30 4580 C 430.131 -3.01264 -1.55001 0
M  V30 4581 C 428.69 -3.14394 -2.06963 0
M  V30 4582 C 427.837 -2.61959 -0.909536 0
M  V30 4583 H 430.788 -1.58602 -0.0558235 0
M  V30 4584 H 430.809 -2.93899 -2.41669 0
M  V30 4585 H 430.321 -3.7964 -0.805931 0
M  V30 4586 H 428.422 -2.4078 -2.84352 0
M  V30 4587 H 428.535 -4.20867 -2.28928 0
M  V30 4588 H 426.899 -2.18957 -1.30116 0
M  V30 4589 H 427.682 -3.42833 -0.179062 0
M  V30 4590 N 430.127 0.543554 -1.4793 0
M  V30 4591 C 431.057 1.65888 -1.64327 0
M  V30 4592 C 432.038 1.62818 -0.492383 0
M  V30 4593 O 433.223 1.80226 -0.723338 0
M  V30 4594 C 430.353 3.04506 -1.67013 0
M  V30 4595 C 429.307 3.2243 -2.81466 0
M  V30 4596 C 428.633 4.61972 -2.69233 0
M  V30 4597 C 429.933 3.06496 -4.22915 0
M  V30 4598 H 431.627 1.52421 -2.57698 0
M  V30 4599 H 429.173 0.731849 -1.24016 0
M  V30 4600 H 431.126 3.82391 -1.77074 0
M  V30 4601 H 429.85 3.18964 -0.70212 0
M  V30 4602 H 428.509 2.46957 -2.70938 0
M  V30 4603 H 428.157 4.73247 -1.7043 0
M  V30 4604 H 427.857 4.74911 -3.46025 0
M  V30 4605 H 429.381 5.41974 -2.81242 0
M  V30 4606 H 430.795 3.74186 -4.34348 0
M  V30 4607 H 429.192 3.30938 -5.006 0
M  V30 4608 H 430.262 2.03077 -4.40327 0
M  V30 4609 N 431.605 1.3629 0.791371 0
M  V30 4610 C 432.852 1.30412 1.54916 0
M  V30 4611 C 433.18 -0.117162 1.94147 0
M  V30 4612 O 432.435 -1.08599 1.62803 0
M  V30 4613 C 432.734 2.17068 2.8393 0
M  V30 4614 C 432.4 3.65645 2.63846 0
M  V30 4615 C 431.062 4.0614 2.58077 0
M  V30 4616 C 433.414 4.59855 2.45322 0
M  V30 4617 C 430.742 5.3899 2.31748 0
M  V30 4618 C 433.094 5.9292 2.2052 0
M  V30 4619 C 431.758 6.32542 2.13183 0
M  V30 4620 H 431.028 0.47721 0.566879 0
M  V30 4621 H 433.675 1.68325 0.913172 0
M  V30 4622 H 431.98 1.72085 3.51986 0
M  V30 4623 H 433.677 2.09846 3.4171 0
M  V30 4624 H 430.267 3.33518 2.69191 0
M  V30 4625 H 434.451 4.29443 2.48782 0
M  V30 4626 H 429.707 5.68672 2.24548 0
M  V30 4627 H 433.881 6.65487 2.05182 0
M  V30 4628 H 431.508 7.35412 1.92544 0
M  V30 4629 N 433.083 -1.0153 1.20538 0
M  V30 4630 C 434.329 -1.75408 1.01783 0
M  V30 4631 C 434.662 -1.88943 -0.448814 0
M  V30 4632 O 433.937 -1.4162 -1.33319 0
M  V30 4633 C 434.22 -3.17255 1.70356 0
M  V30 4634 C 434.073 -3.11508 3.24473 0
M  V30 4635 C 435.392 -4.15955 1.43769 0
M  V30 4636 H 432.511 -0.636713 0.371167 0
M  V30 4637 H 435.153 -1.18436 1.4857 0
M  V30 4638 H 433.303 -3.65898 1.30578 0
M  V30 4639 H 434.975 -2.70658 3.73553 0
M  V30 4640 H 433.218 -2.4887 3.55311 0
M  V30 4641 H 433.889 -4.11784 3.67611 0
M  V30 4642 H 436.365 -3.75973 1.7828 0
M  V30 4643 H 435.241 -5.13368 1.94279 0
M  V30 4644 H 435.502 -4.40586 0.365564 0
M  V30 4645 N 434.561 -1.01147 -1.20859 0
M  V30 4646 C 435.493 -0.535546 -2.22855 0
M  V30 4647 C 436.506 0.379323 -1.58319 0
M  V30 4648 O 437.695 0.178489 -1.77605 0
M  V30 4649 C 434.795 0.240962 -3.38042 0
M  V30 4650 C 433.968 -0.674562 -4.32167 0
M  V30 4651 C 433.027 0.053467 -5.26173 0
M  V30 4652 O 432.053 -0.567339 -5.66366 0
M  V30 4653 N 433.255 1.32997 -5.65059 0
M  V30 4654 H 436.02 -1.41268 -2.64317 0
M  V30 4655 H 433.581 -0.888386 -1.35349 0
M  V30 4656 H 435.573 0.737115 -3.97931 0
M  V30 4657 H 434.143 1.01935 -2.95513 0
M  V30 4658 H 433.363 -1.35111 -3.70322 0
M  V30 4659 H 434.651 -1.2974 -4.91981 0
M  V30 4660 H 434.049 1.85536 -5.34409 0
M  V30 4661 H 432.606 1.77095 -6.2728 0
M  V30 4662 N 436.039 1.36541 -0.78704 0
M  V30 4663 C 436.969 2.32659 -0.197992 0
M  V30 4664 C 437.95 1.56533 0.665697 0
M  V30 4665 O 439.135 1.84698 0.60001 0
M  V30 4666 C 436.265 3.40778 0.669901 0
M  V30 4667 C 435.219 4.27897 -0.0937039 0
M  V30 4668 C 434.545 5.27163 0.894629 0
M  V30 4669 C 435.845 5.06334 -1.28154 0
M  V30 4670 H 437.539 2.82171 -1.00099 0
M  V30 4671 H 435.085 1.35665 -0.482793 0
M  V30 4672 H 437.038 4.07008 1.09191 0
M  V30 4673 H 435.762 2.89827 1.50558 0
M  V30 4674 H 434.421 3.6322 -0.49666 0
M  V30 4675 H 434.069 4.72486 1.72527 0
M  V30 4676 H 433.769 5.86317 0.388149 0
M  V30 4677 H 435.293 5.96266 1.31525 0
M  V30 4678 H 436.707 5.65617 -0.93541 0
M  V30 4679 H 435.104 5.74888 -1.72115 0
M  V30 4680 H 436.174 4.38114 -2.07807 0
M  V30 4681 N 437.518 0.538854 1.48102 0
M  V30 4682 C 438.767 0.0059532 2.01699 0
M  V30 4683 C 439.08 -1.34476 1.42041 0
M  V30 4684 O 440.286 -1.96653 1.87189 0
M  V30 4685 C 438.742 -0.0397627 3.59878 0
M  V30 4686 C 438.35 1.30659 4.28523 0
M  V30 4687 C 440.094 -0.521024 4.2129 0
M  V30 4688 C 438.001 1.22098 5.78659 0
M  V30 4689 H 436.931 -0.00154456 0.753998 0
M  V30 4690 H 439.582 0.683963 1.70277 0
M  V30 4691 H 437.964 -0.783037 3.88181 0
M  V30 4692 H 439.138 2.06613 4.11883 0
M  V30 4693 H 437.453 1.7243 3.79021 0
M  V30 4694 H 440.05 -0.603184 5.31287 0
M  V30 4695 H 440.393 -1.52885 3.8721 0
M  V30 4696 H 440.926 0.166834 3.9745 0
M  V30 4697 H 437.665 2.20424 6.17328 0
M  V30 4698 H 437.185 0.50295 5.97688 0
M  V30 4699 H 438.864 0.915345 6.40492 0
M  V30 4700 N 438.996 -1.55193 0.274407 0
M  V30 4701 C 439.926 -2.25471 -0.607032 0
M  V30 4702 C 440.907 -1.24461 -1.15946 0
M  V30 4703 O 442.092 -1.53179 -1.19373 0
M  V30 4704 C 439.222 -2.97526 -1.79153 0
M  V30 4705 C 438.176 -4.05459 -1.37067 0
M  V30 4706 C 437.502 -4.65084 -2.6382 0
M  V30 4707 C 438.802 -5.19691 -0.521389 0
M  V30 4708 H 440.496 -2.99393 -0.0209343 0
M  V30 4709 H 438.042 -1.43997 -0.00862866 0
M  V30 4710 H 439.995 -3.45402 -2.41404 0
M  V30 4711 H 438.719 -2.21138 -2.40344 0
M  V30 4712 H 437.378 -3.58393 -0.771355 0
M  V30 4713 H 437.026 -3.85365 -3.23268 0
M  V30 4714 H 436.726 -5.37961 -2.36372 0
M  V30 4715 H 438.25 -5.15708 -3.26921 0
M  V30 4716 H 439.664 -5.63623 -1.04889 0
M  V30 4717 H 438.061 -5.99126 -0.341825 0
M  V30 4718 H 439.131 -4.82713 0.46 0
M  V30 4719 N 440.474 -0.00167713 -1.576 0
M  V30 4720 C 441.384 1.00548 -2.1196 0
M  V30 4721 C 442.4 1.3758 -1.06526 0
M  V30 4722 O 443.576 1.46278 -1.38436 0
M  V30 4723 C 440.641 2.27809 -2.6135 0
M  V30 4724 C 439.702 1.97074 -3.81393 0
M  V30 4725 C 438.935 3.18267 -4.28417 0
M  V30 4726 O 439.158 4.30009 -3.74765 0
M  V30 4727 O 438.092 3.02167 -5.20556 0
M  V30 4728 H 441.918 0.573373 -2.98238 0
M  V30 4729 H 439.503 0.217255 -1.47812 0
M  V30 4730 H 441.385 3.02568 -2.93309 0
M  V30 4731 H 440.06 2.70254 -1.78169 0
M  V30 4732 H 438.967 1.19785 -3.54404 0
M  V30 4733 H 440.3 1.59464 -4.65652 0
M  V30 4734 N 441.952 1.55251 0.271103 0
M  V30 4735 C 442.9 1.89054 1.35504 0
M  V30 4736 C 443.894 0.767064 1.51038 0
M  V30 4737 O 445.1 0.951429 1.528 0
M  V30 4738 H 441.475 0.600072 0.45323 0
M  V30 4739 H 443.446 2.79598 1.04247 0
M  V30 4740 C 442.195 2.18068 2.70817 0
M  V30 4741 H 441.518 3.04005 2.59656 0
M  V30 4742 H 442.958 2.4564 3.45597 0
M  V30 4743 C 441.417 0.988901 3.2206 0
M  V30 4744 O 441.947 0.224501 4.01072 0
M  V30 4745 N 440.153 0.786085 2.79766 0
M  V30 4746 H 439.7 1.40937 2.15626 0
M  V30 4747 H 439.658 -0.00969349 3.14399 0
M  V30 4748 N 443.43 -0.535701 1.48216 0
M  V30 4749 C 444.679 -1.28828 1.55197 0
M  V30 4750 C 444.992 -1.94263 0.228278 0
M  V30 4751 O 446.198 -2.70927 0.176278 0
M  V30 4752 C 444.654 -2.33727 2.73678 0
M  V30 4753 C 444.262 -1.74386 4.12666 0
M  V30 4754 C 446.006 -3.1003 2.89968 0
M  V30 4755 C 443.913 -2.77192 5.22416 0
M  V30 4756 H 442.843 -0.484484 0.577747 0
M  V30 4757 H 445.494 -0.56646 1.74538 0
M  V30 4758 H 443.876 -3.08919 2.4776 0
M  V30 4759 H 445.05 -1.05421 4.48579 0
M  V30 4760 H 443.365 -1.10595 4.01445 0
M  V30 4761 H 445.962 -3.86842 3.6913 0
M  V30 4762 H 446.305 -3.65542 1.9921 0
M  V30 4763 H 446.838 -2.41952 3.15759 0
M  V30 4764 H 443.577 -2.26507 6.15122 0
M  V30 4765 H 443.097 -3.44502 4.90998 0
M  V30 4766 H 444.776 -3.40285 5.50286 0
M  V30 4767 N 444.908 -1.36708 -0.784132 0
M  V30 4768 C 446.154 -1.32433 -1.54379 0
M  V30 4769 C 446.509 0.0941816 -1.92169 0
M  V30 4770 O 445.802 1.04997 -1.60269 0
M  V30 4771 C 445.996 -2.18571 -2.82774 0
M  V30 4772 C 445.825 -3.68656 -2.57533 0
M  V30 4773 C 444.595 -4.37813 -2.52286 0
M  V30 4774 C 446.793 -4.61802 -2.2637 0
M  V30 4775 N 444.775 -5.7351 -2.18997 0
M  V30 4776 C 446.146 -5.85785 -2.03115 0
M  V30 4777 C 448.201 -4.50313 -2.12421 0
M  V30 4778 C 446.904 -6.99569 -1.67321 0
M  V30 4779 C 448.93 -5.63969 -1.78026 0
M  V30 4780 C 448.292 -6.86994 -1.55622 0
M  V30 4781 H 444.391 -0.539886 -0.565727 0
M  V30 4782 H 446.975 -1.71812 -0.915908 0
M  V30 4783 H 445.146 -1.81429 -3.43421 0
M  V30 4784 H 446.878 -2.05646 -3.48557 0
M  V30 4785 H 443.633 -3.90674 -2.67714 0
M  V30 4786 H 444.057 -6.45189 -2.05084 0
M  V30 4787 H 448.699 -3.55781 -2.28429 0
M  V30 4788 H 446.417 -7.94047 -1.5005 0
M  V30 4789 H 450.003 -5.57044 -1.67909 0
M  V30 4790 H 448.883 -7.7345 -1.294 0
M  V30 4791 N 446.386 1.0089 -1.21074 0
M  V30 4792 C 447.611 1.78727 -1.05221 0
M  V30 4793 C 448.036 1.83932 0.393795 0
M  V30 4794 O 447.394 1.28004 1.28393 0
M  V30 4795 C 447.442 3.20665 -1.64944 0
M  V30 4796 O 446.546 4.02632 -0.892273 0
M  V30 4797 H 445.887 0.550973 -0.370574 0
M  V30 4798 H 448.417 1.26847 -1.60534 0
M  V30 4799 H 448.427 3.71352 -1.69002 0
M  V30 4800 H 447.102 3.16191 -2.70177 0
M  V30 4801 H 445.679 3.61207 -0.926492 0
M  V30 4802 N 447.864 1.01787 1.20321 0
M  V30 4803 C 448.794 0.609625 2.25401 0
M  V30 4804 C 449.775 -0.375951 1.65893 0
M  V30 4805 O 450.96 -0.261101 1.92437 0
M  V30 4806 C 448.09 -0.0515995 3.47262 0
M  V30 4807 C 447.044 0.855095 4.19371 0
M  V30 4808 C 446.37 0.0595757 5.34667 0
M  V30 4809 C 447.67 2.16374 4.75373 0
M  V30 4810 H 449.364 1.48803 2.59804 0
M  V30 4811 H 446.91 0.716934 1.24884 0
M  V30 4812 H 448.863 -0.348764 4.19954 0
M  V30 4813 H 447.587 -0.964726 3.12027 0
M  V30 4814 H 446.246 1.13628 3.48546 0
M  V30 4815 H 445.894 -0.85524 4.95676 0
M  V30 4816 H 445.594 0.663406 5.83843 0
M  V30 4817 H 447.118 -0.231105 6.10162 0
M  V30 4818 H 448.532 1.92885 5.39878 0
M  V30 4819 H 446.929 2.71853 5.34991 0
M  V30 4820 H 447.999 2.82589 3.94045 0
M  V30 4821 N 449.342 -1.36122 0.79427 0
M  V30 4822 C 450.572 -2.03067 0.380437 0
M  V30 4823 C 450.98 -1.60018 -1.00949 0
M  V30 4824 O 450.323 -0.787425 -1.65968 0
M  V30 4825 C 450.385 -3.57587 0.37034 0
M  V30 4826 C 450.049 -4.23855 1.70867 0
M  V30 4827 C 451.046 -4.46404 2.66496 0
M  V30 4828 C 448.731 -4.61229 1.9893 0
M  V30 4829 C 450.725 -5.05412 3.88378 0
M  V30 4830 C 448.412 -5.19953 3.21079 0
M  V30 4831 C 449.41 -5.41985 4.15621 0
M  V30 4832 O 449.098 -5.99475 5.35616 0
M  V30 4833 H 448.83 -0.658168 0.154243 0
M  V30 4834 H 451.384 -1.7498 1.0757 0
M  V30 4835 H 449.614 -3.84814 -0.381444 0
M  V30 4836 H 451.303 -4.05895 -0.0194894 0
M  V30 4837 H 452.069 -4.17921 2.46103 0
M  V30 4838 H 447.948 -4.43402 1.26158 0
M  V30 4839 H 451.492 -5.22524 4.62185 0
M  V30 4840 H 447.389 -5.47862 3.41347 0
M  V30 4841 H 448.157 -6.17937 5.36745 0
M  V30 4842 N 450.82 -0.546701 -1.47814 0
M  V30 4843 C 452.097 0.0464413 -1.95545 0
M  V30 4844 C 452.477 1.4962 -1.48919 0
M  V30 4845 O 451.825 2.16752 -0.723232 0
M  V30 4846 C 452.035 -0.0881298 -3.48889 0
M  V30 4847 C 453.383 0.0626059 -4.24554 0
M  V30 4848 O 454.407 -0.0151555 -3.56197 0
M  V30 4849 O 453.266 0.228071 -5.46024 0
M  V30 4850 H 450.36 0.0700004 -0.824032 0
M  V30 4851 H 452.906 -0.612482 -1.58262 0
M  V30 4852 H 451.678 -1.09737 -3.75597 0
M  V30 4853 H 451.301 0.608886 -3.9291 0
M  V30 4854 N 452.299 1.55045 -0.282633 0
M  V30 4855 C 453.262 2.21515 0.588539 0
M  V30 4856 C 454.262 1.19535 1.07554 0
M  V30 4857 O 455.452 1.44391 0.974514 0
M  V30 4858 C 452.584 2.88704 1.8128 0
M  V30 4859 H 453.777 2.99899 0.00806397 0
M  V30 4860 H 451.33 1.56265 -0.0333067 0
M  V30 4861 H 452.065 2.14352 2.43359 0
M  V30 4862 H 451.85 3.63443 1.47144 0
M  V30 4863 H 453.34 3.39465 2.43214 0
M  V30 4864 N 453.777 0.010035 1.57597 0
M  V30 4865 C 455.023 -0.673697 1.91283 0
M  V30 4866 C 455.356 -1.72863 0.884979 0
M  V30 4867 O 454.631 -1.94268 -0.0949487 0
M  V30 4868 C 454.914 -1.30766 3.35518 0
M  V30 4869 C 454.767 -0.263578 4.49027 0
M  V30 4870 C 456.086 -2.23105 3.79358 0
M  V30 4871 H 453.205 -0.243439 0.695634 0
M  V30 4872 H 455.847 0.0633864 1.89894 0
M  V30 4873 H 453.997 -1.93588 3.36832 0
M  V30 4874 H 455.669 0.365738 4.59848 0
M  V30 4875 H 453.912 0.413077 4.31829 0
M  V30 4876 H 454.583 -0.746398 5.4693 0
M  V30 4877 H 457.059 -1.70289 3.79659 0
M  V30 4878 H 455.935 -2.64424 4.81011 0
M  V30 4879 H 456.196 -3.11433 3.13787 0
M  V30 4880 N 455.255 -1.55392 -0.262866 0
M  V30 4881 C 456.185 -1.91978 -1.32917 0
M  V30 4882 C 457.166 -0.7828 -1.51017 0
M  V30 4883 O 458.351 -1.04178 -1.63892 0
M  V30 4884 C 455.481 -2.20055 -2.68687 0
M  V30 4885 C 454.435 -3.35854 -2.65304 0
M  V30 4886 C 453.761 -3.49435 -4.04721 0
M  V30 4887 C 455.061 -4.71977 -2.23685 0
M  V30 4888 H 456.755 -2.81292 -1.02544 0
M  V30 4889 H 454.301 -1.3534 -0.491846 0
M  V30 4890 H 456.254 -2.44237 -3.43404 0
M  V30 4891 H 454.978 -1.27551 -3.00663 0
M  V30 4892 H 453.637 -3.11655 -1.93045 0
M  V30 4893 H 453.285 -2.54379 -4.33936 0
M  V30 4894 H 452.985 -4.27297 -4.0335 0
M  V30 4895 H 454.509 -3.7592 -4.81161 0
M  V30 4896 H 455.923 -4.95637 -2.88127 0
M  V30 4897 H 454.32 -5.52828 -2.33456 0
M  V30 4898 H 455.39 -4.70115 -1.18827 0
M  V30 4899 N 456.733 0.527833 -1.48498 0
M  V30 4900 C 457.68 1.6322 -1.6318 0
M  V30 4901 C 458.65 1.59199 -0.473815 0
M  V30 4902 O 459.835 1.77591 -0.697563 0
M  V30 4903 C 456.975 3.01474 -1.67951 0
M  V30 4904 C 456.088 3.15713 -2.94871 0
M  V30 4905 C 455.223 4.44539 -2.90789 0
M  V30 4906 C 454.262 4.52315 -4.12404 0
M  V30 4907 N 453.399 5.72533 -4.06387 0
M  V30 4908 H 458.239 1.50011 -2.57489 0
M  V30 4909 H 455.776 0.730298 -1.27691 0
M  V30 4910 H 457.734 3.81572 -1.68698 0
M  V30 4911 H 456.364 3.1345 -0.771306 0
M  V30 4912 H 455.416 2.28854 -3.03859 0
M  V30 4913 H 456.728 3.1732 -3.8485 0
M  V30 4914 H 455.882 5.3293 -2.89949 0
M  V30 4915 H 454.621 4.45457 -1.98542 0
M  V30 4916 H 453.626 3.62331 -4.13517 0
M  V30 4917 H 454.851 4.53134 -5.05812 0
M  V30 4918 H 452.797 5.74344 -3.16962 0
M  V30 4919 H 452.714 5.75643 -4.90073 0
M  V30 4920 H 453.982 6.63204 -4.0961 0
M  V30 4921 N 458.211 1.37122 0.776871 0
M  V30 4922 C 459.158 1.3247 1.88998 0
M  V30 4923 C 460.128 0.191143 1.64997 0
M  V30 4924 O 461.313 0.379683 1.86984 0
M  V30 4925 C 458.453 1.13241 3.25992 0
M  V30 4926 C 457.566 2.35782 3.61982 0
M  V30 4927 C 456.701 2.09465 4.88158 0
M  V30 4928 C 455.74 3.279 5.16864 0
M  V30 4929 N 454.877 3.01167 6.34226 0
M  V30 4930 H 459.717 2.27642 1.9231 0
M  V30 4931 H 457.254 1.13125 0.94027 0
M  V30 4932 H 459.212 1.00115 4.0501 0
M  V30 4933 H 457.842 0.217186 3.22069 0
M  V30 4934 H 456.894 2.59666 2.77989 0
M  V30 4935 H 458.206 3.24125 3.79137 0
M  V30 4936 H 457.36 1.93341 5.75069 0
M  V30 4937 H 456.099 1.18452 4.73097 0
M  V30 4938 H 455.104 3.44569 4.2843 0
M  V30 4939 H 456.329 4.19757 5.33836 0
M  V30 4940 H 454.275 2.12779 6.20533 0
M  V30 4941 H 454.192 3.83052 6.51772 0
M  V30 4942 H 455.46 2.88649 7.24087 0
M  V30 4943 N 459.689 -1.00246 1.21608 0
M  V30 4944 C 460.966 -1.71336 0.943568 0
M  V30 4945 C 461.346 -2.03972 -0.543943 0
M  V30 4946 O 460.694 -1.71545 -1.50946 0
M  V30 4947 C 460.904 -2.97094 1.83128 0
M  V30 4948 C 462.252 -3.70071 2.08165 0
M  V30 4949 O 463.276 -3.07081 1.80498 0
M  V30 4950 O 462.135 -4.83376 2.54971 0
M  V30 4951 H 459.229 -0.747386 0.354039 0
M  V30 4952 H 461.775 -1.05967 1.32549 0
M  V30 4953 H 460.547 -2.69407 2.83788 0
M  V30 4954 H 460.17 -3.70204 1.45034 0
M  V30 4955 N 461.167 -1.02423 -1.1978 0
M  V30 4956 C 462.114 -0.601023 -2.22837 0
M  V30 4957 C 463.084 0.382801 -1.61629 0
M  V30 4958 O 464.269 0.280514 -1.88727 0
M  V30 4959 C 461.409 0.0467755 -3.45068 0
M  V30 4960 C 460.522 -0.98253 -4.20678 0
M  V30 4961 C 459.657 -0.304982 -5.30324 0
M  V30 4962 C 458.696 -1.32052 -5.97686 0
M  V30 4963 N 457.833 -0.669105 -6.98904 0
M  V30 4964 H 462.673 -1.48444 -2.58396 0
M  V30 4965 H 460.21 -0.742936 -1.2696 0
M  V30 4966 H 462.168 0.439556 -4.14878 0
M  V30 4967 H 460.798 0.893796 -3.10179 0
M  V30 4968 H 459.85 -1.49341 -3.49859 0
M  V30 4969 H 461.162 -1.75455 -4.66923 0
M  V30 4970 H 460.316 0.142893 -6.06532 0
M  V30 4971 H 459.055 0.499283 -4.85138 0
M  V30 4972 H 458.06 -1.7787 -5.20233 0
M  V30 4973 H 459.285 -2.1262 -6.44957 0
M  V30 4974 H 457.231 0.115152 -6.55899 0
M  V30 4975 H 457.148 -1.37908 -7.43315 0
M  V30 4976 H 458.416 -0.245076 -7.79115 0
M  V30 4977 N 462.645 1.35699 -0.801477 0
M  V30 4978 C 463.922 1.9324 -0.302937 0
M  V30 4979 C 464.302 1.73209 1.20672 0
M  V30 4980 O 463.65 1.09809 2.00385 0
M  V30 4981 C 463.86 3.41728 -0.708747 0
M  V30 4982 C 465.208 4.18868 -0.695328 0
M  V30 4983 O 466.232 3.5022 -0.649971 0
M  V30 4984 O 465.091 5.41342 -0.749081 0
M  V30 4985 H 462.185 0.82331 -0.0780367 0
M  V30 4986 H 464.731 1.44806 -0.884832 0
M  V30 4987 H 463.503 3.50015 -1.74944 0
M  V30 4988 H 463.126 3.97471 -0.101384 0
M  V30 4989 N 464.123 0.554532 1.47522 0
M  V30 4990 C 465.07 -0.19466 2.29978 0
M  V30 4991 C 466.04 -0.910882 1.38896 0
M  V30 4992 O 467.225 -0.907102 1.67858 0
M  V30 4993 C 464.365 -1.22035 3.22802 0
M  V30 4994 C 463.478 -0.510474 4.28973 0
M  V30 4995 C 462.613 -1.52123 5.08952 0
M  V30 4996 C 461.652 -0.796173 6.069 0
M  V30 4997 N 460.789 -1.75363 6.79847 0
M  V30 4998 H 465.629 0.51461 2.93523 0
M  V30 4999 H 463.166 0.265607 1.44682 0
M  V30 5000 H 465.124 -1.8276 3.7504 0
M  V30 5001 H 463.754 -1.89769 2.61127 0
M  V30 5002 H 462.806 0.211234 3.79813 0
M  V30 5003 H 464.118 0.0576503 4.98767 0
M  V30 5004 H 463.272 -2.20207 5.65326 0
M  V30 5005 H 462.011 -2.12327 4.39054 0
M  V30 5006 H 461.016 -0.101388 5.49707 0
M  V30 5007 H 462.241 -0.199911 6.78806 0
M  V30 5008 H 460.187 -2.3443 6.12682 0
M  V30 5009 H 460.104 -1.23759 7.45801 0
M  V30 5010 H 461.372 -2.4257 7.40797 0
M  V30 5011 N 465.601 -1.54893 0.290851 0
M  V30 5012 C 466.85 -1.99111 -0.322113 0
M  V30 5013 C 467.163 -1.18283 -1.55784 0
M  V30 5014 O 468.369 -1.5272 -2.24475 0
M  V30 5015 C 466.825 -3.54442 -0.624438 0
M  V30 5016 C 466.433 -4.44066 0.592373 0
M  V30 5017 C 468.177 -4.07211 -1.19916 0
M  V30 5018 C 466.084 -5.90812 0.263762 0
M  V30 5019 H 465.014 -0.743712 -0.124133 0
M  V30 5020 H 467.665 -1.79132 0.39797 0
M  V30 5021 H 466.047 -3.70281 -1.40384 0
M  V30 5022 H 467.221 -4.39999 1.36886 0
M  V30 5023 H 465.536 -4.02015 1.08502 0
M  V30 5024 H 468.133 -5.14407 -1.45909 0
M  V30 5025 H 468.476 -3.57196 -2.13815 0
M  V30 5026 H 469.009 -3.94873 -0.481687 0
M  V30 5027 H 465.748 -6.44955 1.17105 0
M  V30 5028 H 465.268 -5.97911 -0.475655 0
M  V30 5029 H 466.947 -6.46852 -0.138354 0
M  V30 5030 N 467.08 -0.0183926 -1.57589 0
M  V30 5031 C 468.357 0.700621 -1.82622 0
M  V30 5032 C 468.737 1.90951 -0.90005 0
M  V30 5033 O 468.085 2.28452 0.0469145 0
M  V30 5034 C 468.295 1.08899 -3.31575 0
M  V30 5035 C 469.643 1.48514 -3.9778 0
M  V30 5036 O 470.667 1.18227 -3.36007 0
M  V30 5037 O 469.526 2.04903 -5.06633 0
M  V30 5038 H 466.62 0.342743 -0.752633 0
M  V30 5039 H 469.166 -0.0452548 -1.6964 0
M  V30 5040 H 467.938 0.228113 -3.90635 0
M  V30 5041 H 467.561 1.89338 -3.49624 0
M  V30 5042 N 468.558 1.5553 0.254621 0
M  V30 5043 C 469.505 1.89666 1.31512 0
M  V30 5044 C 470.475 0.750057 1.482 0
M  V30 5045 O 471.66 1.00301 1.62309 0
M  V30 5046 C 468.8 2.19009 2.667 0
M  V30 5047 C 467.913 3.46435 2.58083 0
M  V30 5048 C 467.048 3.65386 3.85573 0
M  V30 5049 C 466.087 4.8644 3.71541 0
M  V30 5050 N 465.224 5.01952 4.90906 0
M  V30 5051 H 470.064 2.80109 1.017 0
M  V30 5052 H 467.601 1.38666 0.490938 0
M  V30 5053 H 469.559 2.34025 3.45381 0
M  V30 5054 H 468.189 1.31779 2.94676 0
M  V30 5055 H 467.241 3.39792 1.71013 0
M  V30 5056 H 468.553 4.35258 2.43622 0
M  V30 5057 H 467.707 3.80319 4.72697 0
M  V30 5058 H 466.446 2.74781 4.02922 0
M  V30 5059 H 465.451 4.71491 2.82801 0
M  V30 5060 H 466.676 5.78497 3.55694 0
M  V30 5061 H 464.622 4.14283 5.08631 0
M  V30 5062 H 464.539 5.84851 4.79046 0
M  V30 5063 H 465.807 5.21289 5.7955 0
M  V30 5064 N 470.036 -0.519951 1.48776 0
M  V30 5065 C 471.285 -1.27175 1.56555 0
M  V30 5066 C 471.598 -1.9401 0.248869 0
M  V30 5067 O 472.804 -2.70725 0.205004 0
M  V30 5068 C 471.26 -2.30811 2.76142 0
M  V30 5069 C 470.868 -1.7 4.14493 0
M  V30 5070 C 472.612 -3.06937 2.9324 0
M  V30 5071 C 470.519 -2.71635 5.25327 0
M  V30 5072 H 469.449 -0.478329 0.582853 0
M  V30 5073 H 472.1 -0.547916 1.75129 0
M  V30 5074 H 470.482 -3.06274 2.51023 0
M  V30 5075 H 471.656 -1.00658 4.49672 0
M  V30 5076 H 469.971 -1.06331 4.02595 0
M  V30 5077 H 472.568 -3.82905 3.73213 0
M  V30 5078 H 472.911 -3.63409 2.03075 0
M  V30 5079 H 473.444 -2.38589 3.18308 0
M  V30 5080 H 470.183 -2.1997 6.1749 0
M  V30 5081 H 469.703 -3.39275 4.94624 0
M  V30 5082 H 471.382 -3.34429 5.53865 0
M  V30 5083 N 471.514 -1.37532 -0.769588 0
M  V30 5084 C 472.76 -1.33057 -1.53048 0
M  V30 5085 C 473.093 0.0841865 -1.94017 0
M  V30 5086 O 472.368 1.04198 -1.64235 0
M  V30 5087 C 472.651 -2.27166 -2.79406 0
M  V30 5088 C 472.504 -3.77429 -2.44677 0
M  V30 5089 C 473.823 -2.19683 -3.81349 0
M  V30 5090 H 470.942 -0.484655 -0.555228 0
M  V30 5091 H 473.584 -1.68251 -0.882702 0
M  V30 5092 H 471.734 -1.97283 -3.34682 0
M  V30 5093 H 473.406 -4.17918 -1.953 0
M  V30 5094 H 471.649 -3.95892 -1.77346 0
M  V30 5095 H 472.32 -4.38716 -3.35011 0
M  V30 5096 H 474.796 -2.46029 -3.35573 0
M  V30 5097 H 473.672 -2.87668 -4.67481 0
M  V30 5098 H 473.933 -1.19045 -4.25771 0
M  V30 5099 N 472.992 0.995999 -1.22138 0
M  V30 5100 C 474.22 1.77066 -1.07029 0
M  V30 5101 C 474.635 1.8495 0.379357 0
M  V30 5102 O 473.992 1.3174 1.26297 0
M  V30 5103 C 474.043 3.20533 -1.67155 0
M  V30 5104 O 473.764 3.13082 -3.06449 0
M  V30 5105 C 475.265 4.14461 -1.5728 0
M  V30 5106 H 472.485 0.556179 -0.375374 0
M  V30 5107 H 475.029 1.25238 -1.61666 0
M  V30 5108 H 473.184 3.6944 -1.16589 0
M  V30 5109 H 473.598 4.03283 -3.35355 0
M  V30 5110 H 475.072 5.1289 -2.04078 0
M  V30 5111 H 475.549 4.36005 -0.528795 0
M  V30 5112 H 476.155 3.71449 -2.07136 0
M  V30 5113 N 474.47 1.03057 1.19235 0
M  V30 5114 C 475.695 0.74757 1.93458 0
M  V30 5115 C 476.12 -0.687648 1.7508 0
M  V30 5116 O 475.478 -1.47499 1.05422 0
M  V30 5117 C 475.526 1.10604 3.43219 0
M  V30 5118 O 474.63 0.225671 4.11782 0
M  V30 5119 H 473.971 0.276047 0.603899 0
M  V30 5120 H 476.501 1.3777 1.51263 0
M  V30 5121 H 476.511 1.06366 3.93891 0
M  V30 5122 H 475.186 2.15165 3.55917 0
M  V30 5123 H 473.763 0.326795 3.71465 0
M  V30 5124 N 475.948 -1.35272 0.808662 0
M  V30 5125 C 476.878 -2.32315 0.234981 0
M  V30 5126 C 477.859 -1.57572 -0.64071 0
M  V30 5127 O 479.044 -1.8563 -0.570551 0
M  V30 5128 C 476.174 -3.41801 -0.615601 0
M  V30 5129 C 475.128 -4.27694 0.161767 0
M  V30 5130 C 474.454 -5.28519 -0.810649 0
M  V30 5131 C 475.754 -5.04231 1.36193 0
M  V30 5132 H 477.448 -2.80543 1.04575 0
M  V30 5133 H 474.994 -1.3488 0.504315 0
M  V30 5134 H 476.947 -4.08693 -1.02702 0
M  V30 5135 H 475.671 -2.92186 -1.45928 0
M  V30 5136 H 474.33 -3.62384 0.554382 0
M  V30 5137 H 473.978 -4.75171 -1.64988 0
M  V30 5138 H 473.678 -5.8686 -0.294822 0
M  V30 5139 H 475.202 -5.98283 -1.22023 0
M  V30 5140 H 476.616 -5.64058 1.02528 0
M  V30 5141 H 475.013 -5.72077 1.81239 0
M  V30 5142 H 476.083 -4.34753 2.14751 0
M  V30 5143 N 477.426 -0.562348 -1.47226 0
M  V30 5144 C 478.674 -0.0401371 -2.0206 0
M  V30 5145 C 478.995 1.3165 -1.43852 0
M  V30 5146 O 478.265 1.85976 -0.615599 0
M  V30 5147 H 476.845 -0.0118479 -0.746906 0
M  V30 5148 H 479.507 -0.73352 -1.8057 0
M  V30 5149 H 478.603 0.0441254 -3.12069 0
M  V30 5150 N 478.904 1.54736 -0.299062 0
M  V30 5151 C 479.834 2.26409 0.571085 0
M  V30 5152 C 480.815 1.2629 1.13951 0
M  V30 5153 O 482 1.55059 1.16921 0
M  V30 5154 C 479.13 3.00338 1.74396 0
M  V30 5155 C 478.084 4.07588 1.30599 0
M  V30 5156 C 477.41 4.69222 2.56387 0
M  V30 5157 C 478.71 5.20455 0.438645 0
M  V30 5158 H 480.404 2.99388 -0.0266991 0
M  V30 5159 H 477.95 1.43993 -0.0142812 0
M  V30 5160 H 479.903 3.49198 2.35878 0
M  V30 5161 H 478.627 2.24934 2.36796 0
M  V30 5162 H 477.286 3.59575 0.71424 0
M  V30 5163 H 476.934 3.9046 3.17097 0
M  V30 5164 H 476.634 5.41653 2.27784 0
M  V30 5165 H 478.158 5.20844 3.18675 0
M  V30 5166 H 479.572 5.65221 0.959085 0
M  V30 5167 H 477.969 5.99594 0.246466 0
M  V30 5168 H 479.039 4.8192 -0.536738 0
M  V30 5169 N 480.382 0.0267497 1.57577 0
M  V30 5170 C 481.329 -0.955894 2.10075 0
M  V30 5171 C 482.299 -1.32453 1.00226 0
M  V30 5172 O 483.484 -1.41826 1.27632 0
M  V30 5173 C 480.624 -2.2338 2.6305 0
M  V30 5174 C 479.737 -1.92183 3.86898 0
M  V30 5175 C 478.872 -3.14251 4.28275 0
M  V30 5176 C 477.911 -2.78862 5.44888 0
M  V30 5177 N 477.048 -3.93548 5.81433 0
M  V30 5178 H 481.888 -0.501303 2.93753 0
M  V30 5179 H 479.425 -0.235847 1.45197 0
M  V30 5180 H 481.383 -2.98124 2.91853 0
M  V30 5181 H 480.013 -2.6646 1.82205 0
M  V30 5182 H 479.065 -1.07692 3.64838 0
M  V30 5183 H 480.377 -1.62117 4.7172 0
M  V30 5184 H 479.531 -3.97317 4.58502 0
M  V30 5185 H 478.27 -3.47476 3.42215 0
M  V30 5186 H 477.275 -1.94208 5.14357 0
M  V30 5187 H 478.5 -2.46855 6.32645 0
M  V30 5188 H 476.446 -4.2662 4.98328 0
M  V30 5189 H 476.363 -3.67098 6.6089 0
M  V30 5190 H 477.631 -4.77325 6.16264 0
M  V30 5191 N 481.861 -1.55662 -0.24637 0
M  V30 5192 C 483.11 -1.7672 -0.972254 0
M  V30 5193 C 483.423 -0.59078 -1.86465 0
M  V30 5194 O 484.629 -0.684391 -2.62732 0
M  V30 5195 C 483.085 -3.12869 -1.7788 0
M  V30 5196 C 482.693 -4.38161 -0.933768 0
M  V30 5197 C 484.437 -3.43265 -2.49738 0
M  V30 5198 C 482.344 -5.6534 -1.73623 0
M  V30 5199 H 481.274 -0.658795 -0.366749 0
M  V30 5200 H 483.925 -1.82092 -0.226902 0
M  V30 5201 H 482.307 -3.01606 -2.56612 0
M  V30 5202 H 483.481 -4.60413 -0.188736 0
M  V30 5203 H 481.796 -4.15102 -0.328488 0
M  V30 5204 H 484.393 -4.35501 -3.10231 0
M  V30 5205 H 484.736 -2.64614 -3.2138 0
M  V30 5206 H 485.269 -3.55746 -1.78016 0
M  V30 5207 H 482.008 -6.46814 -1.06354 0
M  V30 5208 H 481.528 -5.47188 -2.45653 0
M  V30 5209 H 483.207 -6.04616 -2.30323 0
M  V30 5210 N 483.339 0.512053 -1.4905 0
M  V30 5211 C 484.587 1.26436 -1.57665 0
M  V30 5212 C 484.908 1.93255 -0.260293 0
M  V30 5213 O 484.178 1.82206 0.719564 0
M  V30 5214 H 482.758 0.469658 -0.580888 0
M  V30 5215 H 485.42 0.594398 -1.85615 0
M  V30 5216 H 484.516 2.03417 -2.36702 0
M  V30 5217 N 484.817 1.37938 0.762283 0
M  V30 5218 C 485.78 1.34279 1.85747 0
M  V30 5219 C 486.78 0.244969 1.58923 0
M  V30 5220 O 487.97 0.501365 1.66829 0
M  V30 5221 C 485.102 1.08833 3.23061 0
M  V30 5222 H 486.295 2.31705 1.90401 0
M  V30 5223 H 483.848 1.23105 0.963057 0
M  V30 5224 H 484.583 0.119767 3.24079 0
M  V30 5225 H 484.368 1.88306 3.43923 0
M  V30 5226 H 485.858 1.08946 4.03138 0
M  V30 5227 N 486.295 -0.989507 1.22664 0
M  V30 5228 C 487.711 -1.25395 0.987331 0
M  V30 5229 C 487.911 -1.9899 -0.317056 0
M  V30 5230 O 486.967 -2.30141 -1.03882 0
M  V30 5231 C 488.28 -2.06242 2.18826 0
M  V30 5232 C 489.828 -2.19413 2.23219 0
M  V30 5233 C 490.303 -3.03648 3.42873 0
M  V30 5234 N 491.794 -3.11234 3.43056 0
M  V30 5235 C 492.529 -3.7671 4.32293 0
M  V30 5236 N 492.025 -4.44085 5.31752 0
M  V30 5237 N 493.818 -3.73505 4.2006 0
M  V30 5238 H 485.969 -0.496212 2.06522 0
M  V30 5239 H 488.232 -0.281784 0.905153 0
M  V30 5240 H 487.938 -1.59531 3.13437 0
M  V30 5241 H 487.812 -3.06996 2.19165 0
M  V30 5242 H 490.199 -2.65336 1.29154 0
M  V30 5243 H 490.28 -1.18078 2.26917 0
M  V30 5244 H 489.924 -2.58424 4.37241 0
M  V30 5245 H 489.854 -4.05132 3.36416 0
M  V30 5246 H 492.345 -2.63287 2.71088 0
M  V30 5247 H 492.658 -4.91797 5.96117 0
M  V30 5248 H 491.003 -4.42822 5.35662 0
M  V30 5249 H 494.194 -3.20033 3.41609 0
M  V30 5250 H 494.367 -4.24253 4.8981 0
M  V30 5251 N 487.773 -1.03688 -1.18687 0
M  V30 5252 C 488.683 -0.634908 -2.25845 0
M  V30 5253 C 489.699 0.337065 -1.70704 0
M  V30 5254 O 490.875 0.192943 -2.00474 0
M  V30 5255 C 487.94 -0.000180054 -3.467 0
M  V30 5256 C 487.001 -1.02067 -4.1699 0
M  V30 5257 C 486.234 -0.41614 -5.32075 0
M  V30 5258 O 486.457 0.778712 -5.65059 0
M  V30 5259 O 485.391 -1.14296 -5.90948 0
M  V30 5260 H 489.217 -1.52757 -2.62486 0
M  V30 5261 H 486.802 -0.807533 -1.25695 0
M  V30 5262 H 488.684 0.353342 -4.19916 0
M  V30 5263 H 487.359 0.866367 -3.11891 0
M  V30 5264 H 486.266 -1.42592 -3.45859 0
M  V30 5265 H 487.599 -1.85786 -4.5579 0
M  V30 5266 N 489.251 1.34841 -0.815825 0
M  V30 5267 C 490.214 2.27959 -0.238185 0
M  V30 5268 C 491.214 1.49983 0.579816 0
M  V30 5269 O 492.404 1.69617 0.396953 0
M  V30 5270 C 489.536 3.34314 0.666876 0
M  V30 5271 H 490.729 2.80558 -1.05958 0
M  V30 5272 H 488.282 1.44852 -0.587156 0
M  V30 5273 H 489.017 2.86916 1.5116 0
M  V30 5274 H 488.802 3.92014 0.0819106 0
M  V30 5275 H 490.292 4.0379 1.06506 0
M  V30 5276 N 490.729 0.570148 1.46925 0
M  V30 5277 C 492.145 0.23087 1.57921 0
M  V30 5278 C 492.345 -1.26676 1.56702 0
M  V30 5279 O 491.401 -2.04774 1.47729 0
M  V30 5280 C 492.714 0.868973 2.8787 0
M  V30 5281 C 494.262 0.841397 3.01479 0
M  V30 5282 C 494.737 1.45881 4.34146 0
M  V30 5283 N 496.228 1.42258 4.40814 0
M  V30 5284 C 496.963 1.8698 5.42057 0
M  V30 5285 N 496.459 2.39618 6.50042 0
M  V30 5286 N 498.252 1.77972 5.33181 0
M  V30 5287 H 490.403 1.54301 1.45962 0
M  V30 5288 H 492.666 0.644224 0.69547 0
M  V30 5289 H 492.372 1.922 2.94537 0
M  V30 5290 H 492.246 0.369682 3.75384 0
M  V30 5291 H 494.633 -0.202973 2.94401 0
M  V30 5292 H 494.714 1.37858 2.15474 0
M  V30 5293 H 494.358 2.50231 4.4198 0
M  V30 5294 H 494.288 0.896958 5.18905 0
M  V30 5295 H 496.779 1.03768 3.63374 0
M  V30 5296 H 497.092 2.71633 7.23488 0
M  V30 5297 H 495.437 2.43636 6.50897 0
M  V30 5298 H 498.628 1.36617 4.4772 0
M  V30 5299 H 498.801 2.13143 6.11943 0
M  V30 5300 N 492.207 -1.54576 0.307264 0
M  V30 5301 C 493.157 -2.20467 -0.581249 0
M  V30 5302 C 494.141 -1.17972 -1.09414 0
M  V30 5303 O 495.333 -1.43667 -1.03387 0
M  V30 5304 C 492.462 -2.95369 -1.74963 0
M  V30 5305 C 491.548 -4.05186 -1.25241 0
M  V30 5306 N 491.939 -5.03577 -0.47364 0
M  V30 5307 C 490.237 -4.18841 -1.53259 0
M  V30 5308 C 490.938 -5.81328 -0.208083 0
M  V30 5309 N 489.914 -5.37834 -0.789651 0
M  V30 5310 H 493.716 -2.93892 0.0212221 0
M  V30 5311 H 491.23 -1.62011 0.112325 0
M  V30 5312 H 493.227 -3.41046 -2.39777 0
M  V30 5313 H 491.887 -2.23461 -2.35574 0
M  V30 5314 H 492.898 -5.17766 -0.117963 0
M  V30 5315 H 489.575 -3.58141 -2.14573 0
M  V30 5316 H 490.965 -6.706 0.417793 0
M  V30 5317 N 493.685 -0.035106 -1.57561 0
M  V30 5318 C 494.91 0.655802 -1.96759 0
M  V30 5319 C 495.335 1.64523 -0.911809 0
M  V30 5320 O 494.693 1.80857 0.126673 0
M  V30 5321 C 494.741 1.33326 -3.35047 0
M  V30 5322 O 493.845 2.44866 -3.31835 0
M  V30 5323 H 493.186 0.171807 -0.641388 0
M  V30 5324 H 495.716 -0.0987369 -2.04362 0
M  V30 5325 H 495.726 1.68867 -3.71413 0
M  V30 5326 H 494.401 0.608033 -4.11431 0
M  V30 5327 H 492.978 2.11392 -3.07193 0
M  V30 5328 N 495.163 1.55791 0.238111 0
M  V30 5329 C 496.44 1.68798 0.98826 0
M  V30 5330 C 496.82 0.577562 2.03045 0
M  V30 5331 O 496.168 -0.41778 2.24648 0
M  V30 5332 C 496.378 3.09454 1.61367 0
M  V30 5333 C 497.726 3.68335 2.11221 0
M  V30 5334 O 498.75 3.1231 1.71292 0
M  V30 5335 O 497.609 4.6657 2.84561 0
M  V30 5336 H 494.703 0.686881 0.460568 0
M  V30 5337 H 497.249 1.68118 0.231202 0
M  V30 5338 H 496.021 3.81726 0.860295 0
M  V30 5339 H 495.644 3.14182 2.4367 0
M  V30 5340 N 496.642 -0.504142 1.49319 0
M  V30 5341 C 498.053 -1.08572 1.51885 0
M  V30 5342 C 498.404 -1.93842 0.303255 0
M  V30 5343 O 497.529 -2.0828 -0.58724 0
M  V30 5344 C 498.124 -1.97574 2.75227 0
M  V30 5345 C 496.683 -2.509 2.80581 0
M  V30 5346 C 495.83 -1.28447 2.45757 0
M  V30 5347 H 498.781 -0.288194 1.56061 0
M  V30 5348 H 498.802 -2.82219 2.55211 0
M  V30 5349 H 498.314 -1.35486 3.63683 0
M  V30 5350 H 496.415 -3.16636 1.96398 0
M  V30 5351 H 496.528 -2.88268 3.82673 0
M  V30 5352 H 494.892 -1.60868 1.97468 0
M  V30 5353 H 495.675 -0.68072 3.36483 0
M  V30 5354 N 498.12 -1.38341 -0.754957 0
M  V30 5355 C 499.067 -1.3546 -1.86867 0
M  V30 5356 C 500.037 -0.217369 -1.64672 0
M  V30 5357 O 501.222 -0.409383 -1.86356 0
M  V30 5358 C 498.362 -1.18413 -3.24149 0
M  V30 5359 C 497.475 -2.41511 -3.58185 0
M  V30 5360 C 496.61 -2.17205 -4.84763 0
M  V30 5361 C 495.649 -3.36081 -5.11582 0
M  V30 5362 N 494.786 -3.11219 -6.29354 0
M  V30 5363 H 499.626 -2.30672 -1.88664 0
M  V30 5364 H 497.163 -1.14607 -0.922154 0
M  V30 5365 H 499.121 -1.06545 -4.03366 0
M  V30 5366 H 497.751 -0.268397 -3.21682 0
M  V30 5367 H 496.803 -2.64056 -2.73822 0
M  V30 5368 H 498.115 -3.30115 -3.73932 0
M  V30 5369 H 497.269 -2.02465 -5.7192 0
M  V30 5370 H 496.008 -1.25964 -4.71152 0
M  V30 5371 H 495.013 -3.51341 -4.22894 0
M  V30 5372 H 496.238 -4.28196 -5.27091 0
M  V30 5373 H 494.184 -2.22624 -6.17069 0
M  V30 5374 H 494.101 -3.93373 -6.45596 0
M  V30 5375 H 495.369 -3.00132 -7.19403 0
M  V30 5376 N 499.598 0.982988 -1.23187 0
M  V30 5377 C 500.844 1.72648 -1.06398 0
M  V30 5378 C 501.177 1.90066 0.398561 0
M  V30 5379 O 500.452 1.45105 1.29518 0
M  V30 5380 C 500.735 3.12627 -1.78707 0
M  V30 5381 C 500.588 3.02795 -3.32618 0
M  V30 5382 C 501.907 4.11997 -1.54747 0
M  V30 5383 H 499.026 0.626649 -0.387918 0
M  V30 5384 H 501.668 1.14455 -1.51658 0
M  V30 5385 H 499.818 3.62308 -1.40234 0
M  V30 5386 H 501.49 2.60659 -3.80598 0
M  V30 5387 H 499.733 2.39362 -3.61785 0
M  V30 5388 H 500.404 4.01893 -3.78399 0
M  V30 5389 H 502.88 3.71114 -1.88186 0
M  V30 5390 H 501.756 5.08037 -2.07821 0
M  V30 5391 H 502.017 4.39462 -0.482249 0
M  V30 5392 N 501.076 1.04316 1.18135 0
M  V30 5393 C 502.008 0.594444 2.21357 0
M  V30 5394 C 503.021 -0.337215 1.59269 0
M  V30 5395 O 504.21 -0.131337 1.78016 0
M  V30 5396 C 501.31 -0.151251 3.38562 0
M  V30 5397 C 500.483 0.788907 4.30227 0
M  V30 5398 C 499.542 0.0860572 5.2613 0
M  V30 5399 O 498.568 0.717302 5.64662 0
M  V30 5400 N 499.77 -1.17969 5.68387 0
M  V30 5401 H 502.535 1.48227 2.60478 0
M  V30 5402 H 500.096 0.92396 1.32946 0
M  V30 5403 H 502.088 -0.631352 3.99745 0
M  V30 5404 H 500.658 -0.940639 2.98112 0
M  V30 5405 H 499.878 1.44882 3.6661 0
M  V30 5406 H 501.166 1.42738 4.88368 0
M  V30 5407 H 500.564 -1.71302 5.3914 0
M  V30 5408 H 499.121 -1.60402 6.31755 0
M  V30 5409 N 502.554 -1.34406 0.822964 0
M  V30 5410 C 503.803 -1.97542 0.407458 0
M  V30 5411 C 504.116 -1.65973 -1.035 0
M  V30 5412 O 505.322 -2.22598 -1.55442 0
M  V30 5413 C 503.778 -3.53463 0.677623 0
M  V30 5414 C 503.386 -3.93925 2.1337 0
M  V30 5415 C 505.13 -4.23229 0.328284 0
M  V30 5416 C 503.037 -5.42759 2.34876 0
M  V30 5417 H 501.967 -0.739207 0.148623 0
M  V30 5418 H 504.618 -1.53248 1.00932 0
M  V30 5419 H 503 -3.96 0.00558965 0
M  V30 5420 H 504.174 -3.62494 2.8449 0
M  V30 5421 H 502.489 -3.37097 2.44448 0
M  V30 5422 H 505.086 -5.32659 0.466794 0
M  V30 5423 H 505.429 -4.09899 -0.727224 0
M  V30 5424 H 505.962 -3.86169 0.954896 0
M  V30 5425 H 502.701 -5.61075 3.38932 0
M  V30 5426 H 502.221 -5.75704 1.68299 0
M  V30 5427 H 503.9 -6.0944 2.17236 0
M  V30 5428 N 504.032 -0.577932 -1.46621 0
M  V30 5429 C 504.98 0.170882 -2.31971 0
M  V30 5430 C 505.974 0.889086 -1.44193 0
M  V30 5431 O 507.18 0.808017 -1.60845 0
M  V30 5432 H 503.555 0.0739763 -0.748353 0
M  V30 5433 H 505.526 -0.567856 -2.92947 0
M  V30 5434 C 504.275 1.17438 -3.27267 0
M  V30 5435 H 503.598 0.63116 -3.94787 0
M  V30 5436 H 505.038 1.66882 -3.89778 0
M  V30 5437 C 503.497 2.23292 -2.52274 0
M  V30 5438 O 504.027 3.30567 -2.28229 0
M  V30 5439 N 502.233 1.97772 -2.12919 0
M  V30 5440 H 501.78 1.10545 -2.32675 0
M  V30 5441 H 501.738 2.68809 -1.63062 0
M  V30 5442 N 505.51 1.54411 -0.315457 0
M  V30 5443 C 506.473 2.22713 0.54142 0
M  V30 5444 C 507.473 1.2179 1.04995 0
M  V30 5445 O 508.663 1.46426 0.943667 0
M  V30 5446 C 505.795 2.92485 1.75116 0
M  V30 5447 H 506.988 2.99849 -0.0555508 0
M  V30 5448 H 504.541 1.56159 -0.0664453 0
M  V30 5449 H 505.276 2.19466 2.38758 0
M  V30 5450 H 505.061 3.66483 1.39401 0
M  V30 5451 H 506.551 3.44548 2.35959 0
M  V30 5452 N 506.988 0.0434614 1.5754 0
M  V30 5453 C 508.237 -0.631454 1.91561 0
M  V30 5454 C 508.55 -1.72457 0.92292 0
M  V30 5455 O 509.756 -2.45712 1.15489 0
M  V30 5456 C 508.212 -1.17447 3.40197 0
M  V30 5457 C 507.82 -0.113867 4.47855 0
M  V30 5458 C 509.564 -1.82507 3.83264 0
M  V30 5459 C 507.471 -0.669326 5.876 0
M  V30 5460 H 506.401 -0.239629 0.714908 0
M  V30 5461 H 509.052 0.111097 1.83163 0
M  V30 5462 H 507.434 -1.96909 3.43574 0
M  V30 5463 H 508.608 0.659348 4.56058 0
M  V30 5464 H 506.923 0.438821 4.14081 0
M  V30 5465 H 509.52 -2.25047 4.85034 0
M  V30 5466 H 509.863 -2.67365 3.19095 0
M  V30 5467 H 510.396 -1.09712 3.82372 0
M  V30 5468 H 507.135 0.141449 6.55347 0
M  V30 5469 H 506.655 -1.4107 5.82974 0
M  V30 5470 H 508.334 -1.15463 6.36614 0
M  V30 5471 N 508.466 -1.55915 -0.229846 0
M  V30 5472 C 509.706 -1.80314 -0.962614 0
M  V30 5473 C 510.07 -0.61568 -1.81861 0
M  V30 5474 O 511.271 -0.738795 -2.58448 0
M  V30 5475 C 509.542 -3.0956 -1.78627 0
M  V30 5476 S 511.101 -3.55243 -2.57581 0
M  V30 5477 H 507.919 -0.633142 -0.323499 0
M  V30 5478 H 510.521 -1.94155 -0.228919 0
M  V30 5479 H 509.225 -3.94033 -1.14742 0
M  V30 5480 H 508.756 -2.98503 -2.56241 0
M  V30 5481 H 510.771 -3.17924 -3.80971 0
M  V30 5482 N 509.944 0.496216 -1.49584 0
M  V30 5483 C 511.169 1.27865 -1.63295 0
M  V30 5484 C 511.594 1.85592 -0.306156 0
M  V30 5485 O 510.952 1.66092 0.726851 0
M  V30 5486 C 511 2.38128 -2.7079 0
M  V30 5487 O 510.104 3.42108 -2.30296 0
M  V30 5488 H 509.445 0.377279 -0.546403 0
M  V30 5489 H 511.975 0.593497 -1.95803 0
M  V30 5490 H 511.985 2.8382 -2.93104 0
M  V30 5491 H 510.66 1.95479 -3.67098 0
M  V30 5492 H 509.237 3.02301 -2.18331 0
M  V30 5493 N 511.423 1.38739 0.74761 0
M  V30 5494 C 512.355 1.32341 1.87132 0
M  V30 5495 C 513.368 0.234502 1.61102 0
M  V30 5496 O 514.557 0.492516 1.71571 0
M  V30 5497 C 511.657 1.02915 3.22896 0
M  V30 5498 C 510.83 2.22834 3.76383 0
M  V30 5499 C 509.889 1.90059 4.90677 0
M  V30 5500 O 508.915 2.62615 5.04997 0
M  V30 5501 N 510.117 0.859141 5.74107 0
M  V30 5502 H 512.882 2.29175 1.93129 0
M  V30 5503 H 510.443 1.32678 0.927805 0
M  V30 5504 H 512.435 0.79031 3.96908 0
M  V30 5505 H 511.005 0.148572 3.12247 0
M  V30 5506 H 510.225 2.62747 2.93867 0
M  V30 5507 H 511.513 3.02851 4.08851 0
M  V30 5508 H 510.911 0.257564 5.65113 0
M  V30 5509 H 509.468 0.680189 6.48241 0
M  V30 5510 N 512.901 -0.976442 1.23707 0
M  V30 5511 C 514.147 -1.72158 1.08319 0
M  V30 5512 C 514.502 -1.88701 -0.375445 0
M  V30 5513 O 513.795 -1.43107 -1.274 0
M  V30 5514 C 513.989 -3.11814 1.74662 0
M  V30 5515 C 513.818 -3.08892 3.26827 0
M  V30 5516 C 512.588 -3.13861 3.96004 0
M  V30 5517 C 514.786 -2.9175 4.2354 0
M  V30 5518 N 512.768 -3.00867 5.35119 0
M  V30 5519 C 514.139 -2.8696 5.49595 0
M  V30 5520 C 516.194 -2.76265 4.14225 0
M  V30 5521 C 514.897 -2.68268 6.67401 0
M  V30 5522 C 516.923 -2.58938 5.317 0
M  V30 5523 C 516.285 -2.54849 6.56682 0
M  V30 5524 H 512.384 -0.638896 0.450927 0
M  V30 5525 H 514.968 -1.15835 1.56494 0
M  V30 5526 H 513.139 -3.66347 1.29014 0
M  V30 5527 H 514.871 -3.74984 1.52215 0
M  V30 5528 H 511.626 -3.22198 3.4711 0
M  V30 5529 H 512.05 -2.97634 6.08065 0
M  V30 5530 H 516.692 -2.78213 3.18366 0
M  V30 5531 H 514.41 -2.65063 7.63392 0
M  V30 5532 H 517.996 -2.47914 5.26336 0
M  V30 5533 H 516.876 -2.41611 7.46052 0
M  V30 5534 N 514.379 -1.04941 -1.1758 0
M  V30 5535 C 515.309 -0.669172 -2.23706 0
M  V30 5536 C 516.29 0.331835 -1.66832 0
M  V30 5537 O 517.475 0.209988 -1.93061 0
M  V30 5538 C 514.605 -0.0404889 -3.47276 0
M  V30 5539 C 513.559 -0.965983 -4.16957 0
M  V30 5540 C 512.885 -0.201312 -5.34321 0
M  V30 5541 C 514.185 -2.28902 -4.69469 0
M  V30 5542 H 515.879 -1.55639 -2.55767 0
M  V30 5543 H 513.425 -0.749793 -1.22939 0
M  V30 5544 H 515.378 0.237298 -4.20731 0
M  V30 5545 H 514.102 0.881658 -3.14475 0
M  V30 5546 H 512.761 -1.22829 -3.45411 0
M  V30 5547 H 512.409 0.723519 -4.97769 0
M  V30 5548 H 512.109 -0.817968 -5.81879 0
M  V30 5549 H 513.633 0.0692499 -6.10561 0
M  V30 5550 H 515.047 -2.07132 -5.34574 0
M  V30 5551 H 513.444 -2.85942 -5.27596 0
M  V30 5552 H 514.514 -2.92937 -3.86414 0
M  V30 5553 N 515.857 1.33968 -0.830081 0
M  V30 5554 C 517.268 1.80439 -0.479455 0
M  V30 5555 C 517.619 1.68756 1.00079 0
M  V30 5556 O 516.744 1.23171 1.77927 0
M  V30 5557 C 517.339 3.27611 -0.863505 0
M  V30 5558 C 515.898 3.72133 -0.565145 0
M  V30 5559 C 515.045 2.55549 -1.07657 0
M  V30 5560 H 517.996 1.21614 -1.0196 0
M  V30 5561 H 518.017 3.8012 -0.170083 0
M  V30 5562 H 517.529 3.36082 -1.94089 0
M  V30 5563 H 515.63 3.69196 0.502536 0
M  V30 5564 H 515.743 4.65963 -1.11422 0
M  V30 5565 H 514.107 2.49788 -0.497807 0
M  V30 5566 H 514.89 2.66786 -2.16055 0
M  V30 5567 N 517.335 0.585699 1.46312 0
M  V30 5568 C 518.584 0.0701192 2.01578 0
M  V30 5569 C 518.897 -1.29889 1.46247 0
M  V30 5570 O 520.103 -1.90598 1.93351 0
M  V30 5571 C 518.559 0.0747499 3.59822 0
M  V30 5572 C 518.167 1.44226 4.24149 0
M  V30 5573 C 519.911 -0.38673 4.22735 0
M  V30 5574 C 517.818 1.40446 5.74481 0
M  V30 5575 H 516.748 0.0224441 0.753666 0
M  V30 5576 H 519.399 0.737789 1.68015 0
M  V30 5577 H 517.781 -0.659144 3.90476 0
M  V30 5578 H 518.955 2.19612 4.05101 0
M  V30 5579 H 517.27 1.84401 3.73343 0
M  V30 5580 H 519.867 -0.433853 5.32937 0
M  V30 5581 H 520.21 -1.40489 3.91878 0
M  V30 5582 H 520.743 0.293195 3.96718 0
M  V30 5583 H 517.482 2.39952 6.10003 0
M  V30 5584 H 517.002 0.692845 5.95785 0
M  V30 5585 H 518.681 1.11865 6.37256 0
M  V30 5586 N 518.813 -1.54241 0.323641 0
M  V30 5587 C 520.038 -2.05452 -0.283605 0
M  V30 5588 C 520.463 -1.19823 -1.44997 0
M  V30 5589 O 519.821 -0.207358 -1.8011 0
M  V30 5590 C 519.869 -3.53823 -0.695795 0
M  V30 5591 O 518.973 -3.71134 -1.79815 0
M  V30 5592 H 518.314 -0.662024 -0.0511917 0
M  V30 5593 H 520.844 -1.99079 0.472073 0
M  V30 5594 H 520.854 -3.96094 -0.978434 0
M  V30 5595 H 519.529 -4.15602 0.157287 0
M  V30 5596 H 518.106 -3.40768 -1.51431 0
M  V30 5597 N 520.291 -0.0518155 -1.57515 0
M  V30 5598 C 521.241 0.932017 -2.0808 0
M  V30 5599 C 522.225 1.27141 -0.986098 0
M  V30 5600 O 523.417 1.25373 -1.24943 0
M  V30 5601 C 520.546 2.20665 -2.62986 0
M  V30 5602 C 519.632 1.89462 -3.79427 0
M  V30 5603 N 520.023 1.28621 -4.89173 0
M  V30 5604 C 518.321 2.19327 -3.88345 0
M  V30 5605 C 519.022 1.15062 -5.70207 0
M  V30 5606 N 517.998 1.65372 -5.17835 0
M  V30 5607 H 521.8 0.456964 -2.90326 0
M  V30 5608 H 519.314 0.152619 -1.61681 0
M  V30 5609 H 521.311 2.92044 -2.97516 0
M  V30 5610 H 519.971 2.68776 -1.8218 0
M  V30 5611 H 520.982 0.958341 -5.08956 0
M  V30 5612 H 517.659 2.69955 -3.18482 0
M  V30 5613 H 519.049 0.678243 -6.68468 0
M  V30 5614 N 521.769 1.56035 0.221574 0
M  V30 5615 C 522.732 1.91584 1.2581 0
M  V30 5616 C 523.732 0.794425 1.39805 0
M  V30 5617 O 524.922 1.06217 1.38071 0
M  V30 5618 C 522.054 2.16663 2.63192 0
M  V30 5619 H 523.247 2.8429 0.954935 0
M  V30 5620 H 520.8 1.49316 0.461988 0
M  V30 5621 H 521.535 1.26508 2.98607 0
M  V30 5622 H 521.32 2.98358 2.5441 0
M  V30 5623 H 522.81 2.45262 3.37988 0
M  V30 5624 N 523.247 -0.488276 1.49845 0
M  V30 5625 C 524.493 -1.24341 1.6021 0
M  V30 5626 C 524.826 -1.91967 0.293651 0
M  V30 5627 O 524.101 -1.81323 -0.703718 0
M  V30 5628 C 524.384 -2.3005 2.77036 0
M  V30 5629 C 524.237 -1.66842 4.17713 0
M  V30 5630 C 525.556 -3.31509 2.89464 0
M  V30 5631 H 522.675 -0.450704 0.583125 0
M  V30 5632 H 525.317 -0.539673 1.82174 0
M  V30 5633 H 523.467 -2.90071 2.58439 0
M  V30 5634 H 525.139 -1.1055 4.47858 0
M  V30 5635 H 523.382 -0.972079 4.22768 0
M  V30 5636 H 524.053 -2.43576 4.95353 0
M  V30 5637 H 526.529 -2.81493 3.06433 0
M  V30 5638 H 525.405 -4.02822 3.72861 0
M  V30 5639 H 525.666 -3.94603 1.99351 0
M  V30 5640 N 524.725 -1.39134 -0.740242 0
M  V30 5641 C 525.655 -1.40165 -1.86751 0
M  V30 5642 C 526.636 -0.265708 -1.68012 0
M  V30 5643 O 527.821 -0.47076 -1.88408 0
M  V30 5644 C 524.951 -1.2392 -3.2444 0
M  V30 5645 C 523.905 -2.34858 -3.57807 0
M  V30 5646 C 523.231 -2.03707 -4.94376 0
M  V30 5647 C 524.531 -3.77159 -3.61315 0
M  V30 5648 H 526.225 -2.345 -1.86145 0
M  V30 5649 H 523.771 -1.12875 -0.89416 0
M  V30 5650 H 525.724 -1.23263 -4.02969 0
M  V30 5651 H 524.448 -0.26051 -3.25559 0
M  V30 5652 H 523.107 -2.34723 -2.81604 0
M  V30 5653 H 522.755 -1.04289 -4.9207 0
M  V30 5654 H 522.455 -2.78016 -5.17669 0
M  V30 5655 H 523.979 -2.04691 -5.75268 0
M  V30 5656 H 525.393 -3.79252 -4.29931 0
M  V30 5657 H 523.79 -4.50784 -3.96124 0
M  V30 5658 H 524.86 -4.08513 -2.61238 0
M  V30 5659 N 526.204 0.969867 -1.24223 0
M  V30 5660 C 527.167 2.04564 -1.03373 0
M  V30 5661 C 528.167 1.60798 0.00819206 0
M  V30 5662 O 529.357 1.72641 -0.232567 0
M  V30 5663 C 526.489 3.36163 -0.566343 0
M  V30 5664 H 527.682 2.24494 -1.98853 0
M  V30 5665 H 525.235 1.1448 -1.06415 0
M  V30 5666 H 525.97 3.21925 0.391751 0
M  V30 5667 H 525.755 3.69273 -1.31834 0
M  V30 5668 H 527.245 4.1526 -0.441435 0
M  V30 5669 N 527.682 1.05563 1.17022 0
M  V30 5670 C 528.615 0.604197 2.20056 0
M  V30 5671 C 529.593 -0.369169 1.58354 0
M  V30 5672 O 530.777 -0.279898 1.8641 0
M  V30 5673 C 527.904 -0.115265 3.38504 0
M  V30 5674 C 526.95 0.813698 4.18666 0
M  V30 5675 S 527.783 2.30492 4.83357 0
M  V30 5676 C 528.939 1.59674 6.0519 0
M  V30 5677 H 529.172 1.47713 2.58008 0
M  V30 5678 H 526.705 0.867932 1.27696 0
M  V30 5679 H 528.663 -0.524162 4.0714 0
M  V30 5680 H 527.324 -0.964284 2.98932 0
M  V30 5681 H 526.517 0.256736 5.03346 0
M  V30 5682 H 526.119 1.16213 3.55486 0
M  V30 5683 H 528.411 0.898164 6.7152 0
M  V30 5684 H 529.354 2.42115 6.65422 0
M  V30 5685 H 529.762 1.08252 5.54023 0
M  V30 5686 N 529.16 -1.33526 0.837174 0
M  V30 5687 C 530.406 -1.9813 0.432704 0
M  V30 5688 C 530.739 -1.66168 -1.00508 0
M  V30 5689 O 530.014 -0.94069 -1.70239 0
M  V30 5690 C 530.297 -3.54151 0.651834 0
M  V30 5691 C 530.15 -3.95806 2.13676 0
M  V30 5692 C 531.469 -4.39993 0.0968937 0
M  V30 5693 H 528.588 -0.719713 0.15869 0
M  V30 5694 H 531.23 -1.58193 1.05237 0
M  V30 5695 H 529.38 -3.88301 0.124369 0
M  V30 5696 H 531.052 -3.71921 2.72896 0
M  V30 5697 H 529.295 -3.45599 2.62191 0
M  V30 5698 H 529.966 -5.0447 2.24084 0
M  V30 5699 H 532.442 -4.12479 0.547733 0
M  V30 5700 H 531.318 -5.48186 0.279917 0
M  V30 5701 H 531.579 -4.3066 -0.9992 0
M  V30 5702 N 530.638 -0.59345 -1.46 0
M  V30 5703 C 531.878 -0.0859747 -2.04219 0
M  V30 5704 C 532.242 1.25432 -1.45364 0
M  V30 5705 O 533.443 1.85168 -1.9485 0
M  V30 5706 C 531.714 -0.0324314 -3.57385 0
M  V30 5707 S 533.273 0.415908 -4.36824 0
M  V30 5708 H 530.091 -0.0426872 -0.709717 0
M  V30 5709 H 532.693 -0.788369 -1.78899 0
M  V30 5710 H 531.397 -1.01166 -3.97735 0
M  V30 5711 H 530.928 0.6924 -3.87259 0
M  V30 5712 H 532.943 1.66844 -4.67309 0
M  V30 5713 N 532.116 1.54067 -0.331816 0
M  V30 5714 C 533.048 2.22139 0.564538 0
M  V30 5715 C 534.061 1.22408 1.07332 0
M  V30 5716 O 535.25 1.4883 0.985481 0
M  V30 5717 C 532.35 2.87876 1.78831 0
M  V30 5718 C 531.523 4.13817 1.41682 0
M  V30 5719 C 530.582 4.63072 2.49901 0
M  V30 5720 O 529.608 5.27562 2.13699 0
M  V30 5721 N 530.81 4.38001 3.80967 0
M  V30 5722 H 533.575 2.99694 -0.0183736 0
M  V30 5723 H 531.136 1.61153 -0.155396 0
M  V30 5724 H 533.128 3.17747 2.50637 0
M  V30 5725 H 531.698 2.13977 2.27887 0
M  V30 5726 H 530.918 3.9062 0.530044 0
M  V30 5727 H 532.206 4.95762 1.14443 0
M  V30 5728 H 531.604 3.864 4.13173 0
M  V30 5729 H 530.161 4.72507 4.48977 0
M  V30 5730 N 533.594 0.0601682 1.57485 0
M  V30 5731 C 534.541 -0.91112 2.12055 0
M  V30 5732 C 535.511 -1.30298 1.03013 0
M  V30 5733 O 536.696 -1.39087 1.30612 0
M  V30 5734 C 533.836 -2.1775 2.67729 0
M  V30 5735 C 532.949 -1.83933 3.90887 0
M  V30 5736 C 532.084 -3.05096 4.34845 0
M  V30 5737 C 531.123 -2.67241 5.5068 0
M  V30 5738 N 530.26 -3.81127 5.8965 0
M  V30 5739 H 535.1 -0.43888 2.9475 0
M  V30 5740 H 532.637 -0.204995 1.45665 0
M  V30 5741 H 534.595 -2.91866 2.98111 0
M  V30 5742 H 533.225 -2.62535 1.87816 0
M  V30 5743 H 532.277 -0.999287 3.6704 0
M  V30 5744 H 533.589 -1.52074 4.75052 0
M  V30 5745 H 532.743 -3.87502 4.66827 0
M  V30 5746 H 531.482 -3.40139 3.49509 0
M  V30 5747 H 530.487 -1.83254 5.18361 0
M  V30 5748 H 531.712 -2.3338 6.37738 0
M  V30 5749 H 529.658 -4.15954 5.07266 0
M  V30 5750 H 529.575 -3.52997 6.68528 0
M  V30 5751 H 530.843 -4.64145 6.2625 0
M  V30 5752 N 535.072 -1.5615 -0.213296 0
M  V30 5753 C 536.002 -1.96109 -1.26742 0
M  V30 5754 C 536.983 -0.830448 -1.48451 0
M  V30 5755 O 538.168 -1.09339 -1.60495 0
M  V30 5756 C 535.298 -2.28492 -2.61551 0
M  V30 5757 C 534.252 -3.44124 -2.54485 0
M  V30 5758 C 533.578 -3.62134 -3.93399 0
M  V30 5759 C 534.878 -4.78855 -2.08556 0
M  V30 5760 H 536.572 -2.84412 -0.935434 0
M  V30 5761 H 534.118 -1.36836 -0.44854 0
M  V30 5762 H 536.071 -2.55039 -3.3546 0
M  V30 5763 H 534.795 -1.37052 -2.96453 0
M  V30 5764 H 533.454 -3.17639 -1.83033 0
M  V30 5765 H 533.102 -2.68055 -4.25623 0
M  V30 5766 H 532.802 -4.39913 -3.89551 0
M  V30 5767 H 534.326 -3.91038 -4.68958 0
M  V30 5768 H 535.74 -5.04552 -2.72213 0
M  V30 5769 H 534.137 -5.59975 -2.1575 0
M  V30 5770 H 535.207 -4.73657 -1.03811 0
M  V30 5771 N 536.55 0.480323 -1.50102 0
M  V30 5772 C 537.961 1.06142 -1.53593 0
M  V30 5773 C 538.312 1.93335 -0.334055 0
M  V30 5774 O 537.437 2.09188 0.55403 0
M  V30 5775 C 538.032 1.9317 -2.78336 0
M  V30 5776 C 536.591 2.46405 -2.84538 0
M  V30 5777 C 535.738 1.24521 -2.4777 0
M  V30 5778 H 538.689 0.26333 -1.565 0
M  V30 5779 H 538.71 2.78123 -2.59669 0
M  V30 5780 H 538.222 1.29683 -3.65792 0
M  V30 5781 H 536.323 3.13472 -2.01411 0
M  V30 5782 H 536.436 2.82143 -3.87211 0
M  V30 5783 H 534.8 1.57706 -2.00003 0
M  V30 5784 H 535.583 0.627102 -3.37524 0
M  V30 5785 N 538.028 1.39524 0.732853 0
M  V30 5786 C 539.253 1.40329 1.52717 0
M  V30 5787 C 539.678 0.000286574 1.881 0
M  V30 5788 O 539.036 -0.987262 1.52062 0
M  V30 5789 C 539.084 2.28464 2.78992 0
M  V30 5790 O 538.188 1.716 3.75003 0
M  V30 5791 H 537.529 0.47778 0.461109 0
M  V30 5792 H 540.059 1.83546 0.903996 0
M  V30 5793 H 540.069 2.43051 3.27705 0
M  V30 5794 H 538.744 3.30425 2.52572 0
M  V30 5795 H 537.321 1.66267 3.33781 0
M  V30 5796 N 539.506 -0.963266 1.24736 0
M  V30 5797 C 540.917 -1.52145 1.08207 0
M  V30 5798 C 541.268 -1.93142 -0.345061 0
M  V30 5799 O 540.393 -1.77769 -1.23399 0
M  V30 5800 C 540.988 -2.76486 1.95808 0
M  V30 5801 C 539.547 -3.28646 1.8349 0
M  V30 5802 C 538.694 -2.01529 1.90476 0
M  V30 5803 H 541.645 -0.781083 1.38148 0
M  V30 5804 H 541.666 -3.49986 1.49297 0
M  V30 5805 H 541.178 -2.46617 2.99669 0
M  V30 5806 H 539.279 -3.63357 0.824787 0
M  V30 5807 H 539.392 -3.97246 2.67829 0
M  V30 5808 H 537.756 -2.16442 1.34258 0
M  V30 5809 H 538.539 -1.7402 2.95926 0
M  V30 5810 N 540.985 -1.06182 -1.16461 0
M  V30 5811 C 541.915 -0.692861 -2.22984 0
M  V30 5812 C 542.896 0.314122 -1.67174 0
M  V30 5813 O 544.081 0.189499 -1.93273 0
M  V30 5814 C 541.211 -0.07732 -3.47214 0
M  V30 5815 C 540.165 -1.01015 -4.15909 0
M  V30 5816 C 539.491 -0.257973 -5.34077 0
M  V30 5817 C 540.791 -2.33868 -4.67015 0
M  V30 5818 H 542.485 -1.58343 -2.54102 0
M  V30 5819 H 540.031 -0.76279 -1.22137 0
M  V30 5820 H 541.984 0.19266 -4.20959 0
M  V30 5821 H 540.708 0.848254 -3.15392 0
M  V30 5822 H 539.367 -1.26486 -3.44088 0
M  V30 5823 H 539.015 0.670684 -4.98509 0
M  V30 5824 H 538.715 -0.879638 -5.80979 0
M  V30 5825 H 540.239 0.00448788 -6.106 0
M  V30 5826 H 541.653 -2.1279 -5.32347 0
M  V30 5827 H 540.05 -2.91522 -5.24533 0
M  V30 5828 H 541.12 -2.97019 -3.83286 0
M  V30 5829 N 542.463 1.3308 -0.844243 0
M  V30 5830 C 543.74 1.92178 -0.364261 0
M  V30 5831 C 544.12 1.76961 1.15101 0
M  V30 5832 O 543.468 1.16128 1.9679 0
M  V30 5833 C 543.678 3.393 -0.817106 0
M  V30 5834 C 545.026 4.16444 -0.828236 0
M  V30 5835 O 546.05 3.47975 -0.761062 0
M  V30 5836 O 544.909 5.38685 -0.920926 0
M  V30 5837 H 542.003 0.820411 -0.10419 0
M  V30 5838 H 544.549 1.41918 -0.930453 0
M  V30 5839 H 543.321 3.44272 -1.85991 0
M  V30 5840 H 542.944 3.96947 -0.227785 0
M  V30 5841 N 543.941 0.601185 1.45683 0
M  V30 5842 C 545.19 0.0914953 2.01492 0
M  V30 5843 C 545.503 -1.28331 1.47616 0
M  V30 5844 O 546.709 -1.88537 1.95362 0
M  V30 5845 C 545.165 0.11291 3.59723 0
M  V30 5846 C 544.773 1.48717 4.22596 0
M  V30 5847 C 546.517 -0.341871 4.23121 0
M  V30 5848 C 544.424 1.46531 5.7296 0
M  V30 5849 H 543.354 0.0304365 0.753385 0
M  V30 5850 H 546.005 0.755568 1.67223 0
M  V30 5851 H 544.387 -0.617692 3.91153 0
M  V30 5852 H 545.561 2.23897 4.02749 0
M  V30 5853 H 543.876 1.88351 3.71366 0
M  V30 5854 H 546.473 -0.377304 5.33367 0
M  V30 5855 H 546.816 -1.36325 3.93346 0
M  V30 5856 H 547.349 0.335256 3.96385 0
M  V30 5857 H 544.088 2.46408 6.07423 0
M  V30 5858 H 543.608 0.755997 5.95017 0
M  V30 5859 H 545.287 1.18618 6.36034 0
M  V30 5860 N 545.419 -1.53889 0.339982 0
M  V30 5861 C 546.647 -2.05271 -0.259114 0
M  V30 5862 C 547.062 -1.21517 -1.44496 0
M  V30 5863 O 546.419 -0.24966 -1.80784 0
M  V30 5864 C 546.47 -3.55092 -0.677634 0
M  V30 5865 O 546.191 -4.35667 0.461051 0
M  V30 5866 C 547.692 -4.22631 -1.33782 0
M  V30 5867 H 544.912 -0.669085 -0.0506566 0
M  V30 5868 H 547.456 -1.9852 0.490935 0
M  V30 5869 H 545.611 -3.62077 -1.37763 0
M  V30 5870 H 546.025 -5.24343 0.128144 0
M  V30 5871 H 547.499 -5.28861 -1.58145 0
M  V30 5872 H 547.976 -3.74758 -2.29027 0
M  V30 5873 H 548.582 -4.19829 -0.679957 0
M  V30 5874 N 546.897 -0.0685191 -1.57451 0
M  V30 5875 C 547.86 0.885173 -2.11417 0
M  V30 5876 C 548.86 1.22853 -1.03748 0
M  V30 5877 O 550.05 1.16235 -1.2975 0
M  V30 5878 C 547.182 2.18964 -2.61281 0
M  V30 5879 H 548.375 0.417034 -2.96986 0
M  V30 5880 H 545.928 0.18014 -1.55258 0
M  V30 5881 H 546.663 2.70321 -1.79156 0
M  V30 5882 H 546.448 1.9534 -3.39977 0
M  V30 5883 H 547.938 2.87242 -3.0312 0
M  V30 5884 N 548.375 1.56261 0.205012 0
M  V30 5885 C 549.285 1.96944 1.27476 0
M  V30 5886 C 550.301 0.875636 1.50362 0
M  V30 5887 O 551.477 1.18058 1.6317 0
M  V30 5888 C 548.542 2.29219 2.60115 0
M  V30 5889 C 547.603 3.52255 2.45387 0
M  V30 5890 C 546.836 3.8298 3.71701 0
M  V30 5891 O 547.059 3.15138 4.75441 0
M  V30 5892 O 545.993 4.76435 3.67823 0
M  V30 5893 H 549.819 2.88144 0.959527 0
M  V30 5894 H 547.404 1.43686 0.409217 0
M  V30 5895 H 549.286 2.51098 3.3842 0
M  V30 5896 H 547.961 1.4119 2.91285 0
M  V30 5897 H 546.868 3.35635 1.65227 0
M  V30 5898 H 548.201 4.40719 2.19152 0
M  V30 5899 N 549.853 -0.472356 1.50355 0
M  V30 5900 C 551.269 -0.806001 1.37753 0
M  V30 5901 C 551.469 -1.968 0.432649 0
M  V30 5902 O 550.525 -2.52189 -0.12519 0
M  V30 5903 C 551.838 -1.11926 2.79093 0
M  V30 5904 C 553.386 -1.22579 2.87999 0
M  V30 5905 C 553.861 -1.57218 4.3017 0
M  V30 5906 N 555.352 -1.64212 4.33115 0
M  V30 5907 C 556.087 -1.92517 5.40116 0
M  V30 5908 N 555.583 -2.1885 6.57325 0
M  V30 5909 N 557.376 -1.94008 5.27558 0
M  V30 5910 H 549.527 0.293451 2.10363 0
M  V30 5911 H 551.79 0.0687672 0.945503 0
M  V30 5912 H 551.496 -0.338504 3.50067 0
M  V30 5913 H 551.37 -2.05577 3.16256 0
M  V30 5914 H 553.757 -1.99722 2.17245 0
M  V30 5915 H 553.838 -0.269107 2.54381 0
M  V30 5916 H 553.482 -0.806154 5.01461 0
M  V30 5917 H 553.412 -2.54034 4.61275 0
M  V30 5918 H 555.903 -1.45906 3.48597 0
M  V30 5919 H 556.216 -2.39718 7.3468 0
M  V30 5920 H 554.561 -2.16245 6.60502 0
M  V30 5921 H 557.752 -1.72931 4.34986 0
M  V30 5922 H 557.925 -2.15731 6.11035 0
M  V30 5923 N 551.331 -1.39911 -0.725443 0
M  V30 5924 C 552.577 -1.37858 -1.48738 0
M  V30 5925 C 552.91 0.0224187 -1.94187 0
M  V30 5926 O 552.185 0.989204 -1.67466 0
M  V30 5927 C 552.468 -2.3594 -2.72038 0
M  V30 5928 C 552.321 -3.85023 -2.32546 0
M  V30 5929 C 553.64 -2.31704 -3.74167 0
M  V30 5930 H 550.759 -0.502074 -0.539528 0
M  V30 5931 H 553.401 -1.70974 -0.828728 0
M  V30 5932 H 551.551 -2.0783 -3.28236 0
M  V30 5933 H 553.223 -4.2392 -1.81905 0
M  V30 5934 H 551.466 -4.01334 -1.64661 0
M  V30 5935 H 552.137 -4.49152 -3.20884 0
M  V30 5936 H 554.613 -2.5658 -3.27576 0
M  V30 5937 H 553.489 -3.02395 -4.58092 0
M  V30 5938 H 553.75 -1.3253 -4.21768 0
M  V30 5939 N 552.809 0.956637 -1.25245 0
M  V30 5940 C 553.719 2.0868 -1.0719 0
M  V30 5941 C 554.735 1.73997 -0.00959074 0
M  V30 5942 O 555.911 2.00301 -0.210104 0
M  V30 5943 C 552.976 3.39754 -0.690526 0
M  V30 5944 C 552.037 3.88316 -1.83055 0
M  V30 5945 C 551.27 5.13134 -1.46728 0
M  V30 5946 O 551.493 5.6925 -0.362029 0
M  V30 5947 O 550.427 5.56356 -2.29677 0
M  V30 5948 H 554.253 2.26813 -2.01965 0
M  V30 5949 H 551.838 1.07098 -1.04165 0
M  V30 5950 H 553.72 4.18543 -0.489871 0
M  V30 5951 H 552.395 3.22896 0.227981 0
M  V30 5952 H 551.302 3.1054 -2.08604 0
M  V30 5953 H 552.635 4.09669 -2.72822 0
M  V30 5954 N 554.287 1.06798 1.15896 0
M  V30 5955 C 555.703 0.792423 1.38538 0
M  V30 5956 C 555.903 -0.60592 1.92174 0
M  V30 5957 O 554.959 -1.36561 2.12385 0
M  V30 5958 C 556.272 1.86157 2.36149 0
M  V30 5959 C 557.82 1.88567 2.49823 0
M  V30 5960 C 558.295 2.9455 3.5072 0
M  V30 5961 N 559.786 2.93616 3.58251 0
M  V30 5962 C 560.521 3.72267 4.36125 0
M  V30 5963 N 560.017 4.60751 5.17379 0
M  V30 5964 N 561.81 3.60637 4.31158 0
M  V30 5965 H 553.961 1.96993 0.794198 0
M  V30 5966 H 556.224 0.853942 0.411688 0
M  V30 5967 H 555.93 2.86603 2.03843 0
M  V30 5968 H 555.804 1.71692 3.3586 0
M  V30 5969 H 558.191 0.887765 2.8143 0
M  V30 5970 H 558.272 2.0711 1.5013 0
M  V30 5971 H 557.916 3.94537 3.19849 0
M  V30 5972 H 557.846 2.73255 4.50155 0
M  V30 5973 H 560.337 2.29472 3.00252 0
M  V30 5974 H 560.65 5.17408 5.74028 0
M  V30 5975 H 558.995 4.64803 5.16704 0
M  V30 5976 H 562.186 2.90892 3.66742 0
M  V30 5977 H 562.359 4.22176 4.91601 0
M  V30 5978 N 555.766 -1.3263 0.851289 0
M  V30 5979 C 556.696 -2.31449 0.308771 0
M  V30 5980 C 557.677 -1.59531 -0.590255 0
M  V30 5981 O 558.862 -1.87351 -0.511205 0
M  V30 5982 C 555.992 -3.43586 -0.506548 0
M  V30 5983 C 554.946 -4.26963 0.297753 0
M  V30 5984 C 554.272 -5.30831 -0.642094 0
M  V30 5985 C 555.572 -4.99643 1.52166 0
M  V30 5986 H 557.266 -2.77074 1.13447 0
M  V30 5987 H 554.812 -1.33207 0.546971 0
M  V30 5988 H 556.765 -4.11754 -0.896474 0
M  V30 5989 H 555.489 -2.96681 -1.36558 0
M  V30 5990 H 554.148 -3.60437 0.669391 0
M  V30 5991 H 553.796 -4.8018 -1.49788 0
M  V30 5992 H 553.496 -5.87501 -0.107968 0
M  V30 5993 H 555.02 -6.01862 -1.02927 0
M  V30 5994 H 556.434 -5.6051 1.20421 0
M  V30 5995 H 554.831 -5.66022 1.99347 0
M  V30 5996 H 555.901 -4.27701 2.28474 0
M  V30 5997 N 557.244 -0.608902 -1.45362 0
M  V30 5998 C 558.177 0.158059 -2.27652 0
M  V30 5999 C 559.155 0.872397 -1.37215 0
M  V30 6000 O 560.339 0.881002 -1.66645 0
M  V30 6001 C 557.466 1.22896 -3.15617 0
M  V30 6002 C 556.512 0.617607 -4.22005 0
M  V30 6003 S 557.345 -0.575518 -5.32398 0
M  V30 6004 C 558.501 0.495938 -6.23932 0
M  V30 6005 H 558.734 -0.540095 -2.92353 0
M  V30 6006 H 556.267 -0.396456 -1.49223 0
M  V30 6007 H 558.225 1.84195 -3.66855 0
M  V30 6008 H 556.886 1.89919 -2.50179 0
M  V30 6009 H 556.079 1.42341 -4.83482 0
M  V30 6010 H 555.681 0.0797273 -3.73915 0
M  V30 6011 H 557.973 1.37465 -6.63408 0
M  V30 6012 H 558.916 -0.0827108 -7.08052 0
M  V30 6013 H 559.324 0.811856 -5.58631 0
M  V30 6014 N 558.722 1.53707 -0.348139 0
M  V30 6015 C 559.962 2.02899 0.247254 0
M  V30 6016 C 560.326 1.23033 1.47401 0
M  V30 6017 O 561.527 1.62146 2.14388 0
M  V30 6018 C 559.798 3.53156 0.549151 0
M  V30 6019 S 561.357 4.24247 1.1207 0
M  V30 6020 H 558.175 0.707213 0.0732894 0
M  V30 6021 H 560.777 1.89338 -0.486965 0
M  V30 6022 H 559.481 4.08893 -0.351435 0
M  V30 6023 H 559.012 3.70845 1.31291 0
M  V30 6024 H 561.027 4.33958 2.40613 0
M  V30 6025 N 560.2 0.0768682 1.57412 0
M  V30 6026 C 561.428 -0.59997 1.9801 0
M  V30 6027 C 561.843 -1.62842 0.955408 0
M  V30 6028 O 561.2 -1.8241 -0.057314 0
M  V30 6029 C 561.251 -1.26401 3.38681 0
M  V30 6030 O 560.972 -0.276723 4.37225 0
M  V30 6031 C 562.473 -2.0282 3.94182 0
M  V30 6032 H 559.693 -0.162239 0.651091 0
M  V30 6033 H 562.237 0.150771 2.03943 0
M  V30 6034 H 560.392 -1.96581 3.33819 0
M  V30 6035 H 560.806 -0.753744 5.19056 0
M  V30 6036 H 562.28 -2.44667 4.94815 0
M  V30 6037 H 562.757 -2.88678 3.31001 0
M  V30 6038 H 563.363 -1.37496 4.02461 0
M  V30 6039 N 561.678 -1.56367 -0.196722 0
M  V30 6040 C 562.926 -1.80172 -0.915554 0
M  V30 6041 C 563.247 -0.649649 -1.8386 0
M  V30 6042 O 562.517 0.332111 -1.93064 0
M  V30 6043 H 561.097 -0.664592 -0.341067 0
M  V30 6044 H 563.759 -1.93844 -0.202622 0
M  V30 6045 H 562.855 -2.7327 -1.50764 0
M  V30 6046 N 563.156 0.464375 -1.50603 0
M  V30 6047 C 564.381 1.24372 -1.65971 0
M  V30 6048 C 564.806 1.84901 -0.345453 0
M  V30 6049 O 564.164 1.67596 0.691457 0
M  V30 6050 C 564.212 2.32331 -2.7578 0
M  V30 6051 O 563.316 3.37146 -2.375 0
M  V30 6052 H 562.657 0.365604 -0.554283 0
M  V30 6053 H 565.187 0.55183 -1.97018 0
M  V30 6054 H 565.197 2.77539 -2.99059 0
M  V30 6055 H 563.872 1.87648 -3.71162 0
M  V30 6056 H 562.449 2.97602 -2.24694 0
M  V30 6057 N 564.634 1.40294 0.718013 0
M  V30 6058 C 565.566 1.36281 1.84283 0
M  V30 6059 C 566.579 0.268621 1.60569 0
M  V30 6060 O 567.768 0.528798 1.70487 0
M  V30 6061 C 564.868 1.09741 3.2064 0
M  V30 6062 C 564.041 2.30767 3.71571 0
M  V30 6063 C 563.1 2.00424 4.86535 0
M  V30 6064 O 562.126 2.73268 4.99313 0
M  V30 6065 N 563.328 0.980724 5.72156 0
M  V30 6066 H 566.093 2.3322 1.88225 0
M  V30 6067 H 563.654 1.34616 0.899453 0
M  V30 6068 H 565.646 0.874322 3.95143 0
M  V30 6069 H 564.216 0.214771 3.11861 0
M  V30 6070 H 563.436 2.68921 2.88228 0
M  V30 6071 H 564.724 3.11455 4.02335 0
M  V30 6072 H 564.122 0.377375 5.6444 0
M  V30 6073 H 562.679 0.817538 6.46653 0
M  V30 6074 N 566.112 -0.949982 1.2575 0
M  V30 6075 C 567.34 -1.72972 1.13527 0
M  V30 6076 C 567.755 -1.8623 -0.310453 0
M  V30 6077 O 567.112 -1.36336 -1.2132 0
M  V30 6078 C 567.163 -3.14108 1.78936 0
M  V30 6079 O 566.884 -3.01493 3.17858 0
M  V30 6080 C 568.385 -4.08338 1.72554 0
M  V30 6081 H 565.605 -0.541864 0.395758 0
M  V30 6082 H 568.149 -1.19151 1.66202 0
M  V30 6083 H 566.304 -3.64858 1.30221 0
M  V30 6084 H 566.718 -3.90559 3.50092 0
M  V30 6085 H 568.192 -5.04963 2.22973 0
M  V30 6086 H 568.669 -4.33742 0.690251 0
M  V30 6087 H 569.275 -3.63506 2.2078 0
M  V30 6088 N 567.59 -1.07411 -1.15328 0
M  V30 6089 C 568.837 -0.797649 -1.86128 0
M  V30 6090 C 569.165 0.676298 -1.82364 0
M  V30 6091 O 568.42 1.51223 -1.24218 0
M  V30 6092 C 568.719 -1.25191 -3.34757 0
M  V30 6093 C 568.385 -2.73191 -3.58716 0
M  V30 6094 C 567.047 -3.13616 -3.64964 0
M  V30 6095 C 569.399 -3.68718 -3.6837 0
M  V30 6096 C 566.727 -4.48383 -3.78377 0
M  V30 6097 C 569.079 -5.03248 -3.83306 0
M  V30 6098 C 567.743 -5.43293 -3.878 0
M  V30 6099 H 567.013 -0.29188 -0.681092 0
M  V30 6100 H 569.66 -1.34524 -1.36292 0
M  V30 6101 H 567.965 -0.623712 -3.86804 0
M  V30 6102 H 569.662 -1.01489 -3.87945 0
M  V30 6103 H 566.252 -2.40898 -3.54494 0
M  V30 6104 H 570.436 -3.38614 -3.62842 0
M  V30 6105 H 565.692 -4.78877 -3.80114 0
M  V30 6106 H 569.866 -5.77142 -3.89718 0
M  V30 6107 H 567.493 -6.47721 -3.97946 0
M  V30 6108 N 569.068 1.32177 -0.85831 0
M  V30 6109 C 570.345 1.91781 -0.384624 0
M  V30 6110 C 570.725 1.78171 1.13217 0
M  V30 6111 O 570.073 1.18209 1.95548 0
M  V30 6112 C 570.283 3.38414 -0.853047 0
M  V30 6113 C 571.631 4.15542 -0.872359 0
M  V30 6114 O 572.655 3.47148 -0.797926 0
M  V30 6115 O 571.514 5.37678 -0.978009 0
M  V30 6116 H 568.608 0.819259 -0.112886 0
M  V30 6117 H 571.154 1.40923 -0.945453 0
M  V30 6118 H 569.926 3.4228 -1.89632 0
M  V30 6119 H 569.549 3.96683 -0.269874 0
M  V30 6120 N 570.547 0.616602 1.45037 0
M  V30 6121 C 571.772 0.120192 2.07051 0
M  V30 6122 C 572.197 -1.19008 1.45666 0
M  V30 6123 O 571.555 -1.7267 0.552692 0
M  V30 6124 C 571.603 0.00354901 3.606 0
M  V30 6125 O 570.707 -1.04431 3.98958 0
M  V30 6126 H 570.048 0.0781599 0.659384 0
M  V30 6127 H 572.578 0.849167 1.86146 0
M  V30 6128 H 572.588 -0.191754 4.07549 0
M  V30 6129 H 571.263 0.960239 4.04663 0
M  V30 6130 H 569.84 -0.824749 3.63665 0
M  V30 6131 N 572.025 -1.5352 0.356285 0
M  V30 6132 C 573.272 -2.01117 -0.236303 0
M  V30 6133 C 573.6 -1.24381 -1.49531 0
M  V30 6134 O 572.855 -0.323057 -1.93015 0
M  V30 6135 C 573.154 -3.52607 -0.583369 0
M  V30 6136 C 572.82 -4.47151 0.58023 0
M  V30 6137 C 571.482 -4.72718 0.899528 0
M  V30 6138 C 573.834 -5.03137 1.36024 0
M  V30 6139 C 571.162 -5.51523 2.00098 0
M  V30 6140 C 573.514 -5.83145 2.45204 0
M  V30 6141 C 572.178 -6.07001 2.77679 0
M  V30 6142 H 571.448 -0.735938 -0.0864695 0
M  V30 6143 H 574.095 -1.85209 0.48683 0
M  V30 6144 H 572.4 -3.66413 -1.38739 0
M  V30 6145 H 574.097 -3.86901 -1.05397 0
M  V30 6146 H 570.687 -4.27394 0.321322 0
M  V30 6147 H 574.871 -4.83339 1.12682 0
M  V30 6148 H 570.127 -5.68229 2.25668 0
M  V30 6149 H 574.301 -6.25537 3.06067 0
M  V30 6150 H 571.928 -6.67851 3.63151 0
M  V30 6151 N 573.503 -0.0852151 -1.57369 0
M  V30 6152 C 574.914 0.445428 -1.81309 0
M  V30 6153 C 575.265 1.68795 -1.00013 0
M  V30 6154 O 574.39 2.15211 -0.226573 0
M  V30 6155 C 574.985 0.814887 -3.28854 0
M  V30 6156 C 573.544 1.29032 -3.53592 0
M  V30 6157 C 572.691 0.282089 -2.75861 0
M  V30 6158 H 575.642 -0.310771 -1.55627 0
M  V30 6159 H 575.663 1.67524 -3.41637 0
M  V30 6160 H 575.175 -0.0896309 -3.87996 0
M  V30 6161 H 573.276 2.21289 -2.9977 0
M  V30 6162 H 573.389 1.25898 -4.62262 0
M  V30 6163 H 571.753 0.762182 -2.43029 0
M  V30 6164 H 572.536 -0.614936 -3.37748 0
M  V30 6165 N 574.981 1.5647 0.188427 0
M  V30 6166 C 576.392 1.70864 0.752494 0
M  V30 6167 C 576.743 0.692905 1.83557 0
M  V30 6168 O 575.868 -0.149307 2.15884 0
M  V30 6169 C 576.463 3.09789 1.37173 0
M  V30 6170 C 575.022 3.25925 1.88281 0
M  V30 6171 C 574.169 2.66817 0.755259 0
M  V30 6172 H 577.12 1.58657 -0.0367408 0
M  V30 6173 H 577.141 3.07489 2.24122 0
M  V30 6174 H 576.653 3.83693 0.583219 0
M  V30 6175 H 574.754 2.56948 2.6983 0
M  V30 6176 H 574.867 4.33498 2.04001 0
M  V30 6177 H 573.231 2.2617 1.17128 0
M  V30 6178 H 574.014 3.43294 -0.0211237 0
M  V30 6179 N 576.459 -0.456382 1.50847 0
M  V30 6180 C 577.369 -1.57805 1.73594 0
M  V30 6181 C 578.385 -1.62599 0.619476 0
M  V30 6182 O 579.561 -1.80195 0.899532 0
M  V30 6183 C 576.626 -2.93926 1.8387 0
M  V30 6184 C 575.687 -2.99402 3.07663 0
M  V30 6185 C 574.92 -4.29031 3.1744 0
M  V30 6186 O 575.143 -5.20358 2.33631 0
M  V30 6187 O 574.077 -4.40401 4.10281 0
M  V30 6188 H 577.903 -1.41531 2.68705 0
M  V30 6189 H 575.488 -0.637422 1.3512 0
M  V30 6190 H 577.37 -3.74747 1.92725 0
M  V30 6191 H 576.045 -3.10368 0.91944 0
M  V30 6192 H 574.952 -2.17606 3.043 0
M  V30 6193 H 576.285 -2.87901 3.99216 0
M  V30 6194 N 577.937 -1.40673 -0.710563 0
M  V30 6195 C 579.165 -1.42547 -1.4996 0
M  V30 6196 C 579.58 -0.0265485 -1.88781 0
M  V30 6197 O 578.937 0.950694 -1.55782 0
M  V30 6198 C 578.988 -2.32071 -2.77173 0
M  V30 6199 O 578.709 -3.66518 -2.39992 0
M  V30 6200 C 580.21 -2.42591 -3.71032 0
M  V30 6201 H 577.43 -0.486025 -0.462623 0
M  V30 6202 H 579.974 -1.84783 -0.876102 0
M  V30 6203 H 578.129 -1.93184 -3.35795 0
M  V30 6204 H 578.543 -4.14115 -3.21884 0
M  V30 6205 H 580.017 -3.09429 -4.57119 0
M  V30 6206 H 580.494 -1.4525 -4.14486 0
M  V30 6207 H 581.1 -2.82051 -3.18319 0
M  V30 6208 N 579.415 0.9433 -1.26252 0
M  V30 6209 C 580.347 2.04542 -1.03417 0
M  V30 6210 C 581.36 1.62799 0.0046911 0
M  V30 6211 O 582.549 1.76944 -0.235146 0
M  V30 6212 C 579.649 3.34511 -0.543671 0
M  V30 6213 C 578.822 4.05033 -1.65128 0
M  V30 6214 C 577.881 5.13273 -1.1592 0
M  V30 6215 O 576.907 5.38095 -1.85586 0
M  V30 6216 N 578.109 5.805 -0.00649279 0
M  V30 6217 H 580.874 2.24699 -1.98319 0
M  V30 6218 H 578.435 1.11264 -1.1761 0
M  V30 6219 H 580.427 4.04212 -0.198703 0
M  V30 6220 H 578.997 3.11042 0.311711 0
M  V30 6221 H 578.217 3.29275 -2.16729 0
M  V30 6222 H 579.505 4.48903 -2.39508 0
M  V30 6223 H 578.903 5.62767 0.575347 0
M  V30 6224 H 577.46 6.51201 0.279416 0
M  V30 6225 N 580.893 1.08022 1.14757 0
M  V30 6226 C 581.856 0.71048 2.1791 0
M  V30 6227 C 582.856 -0.252731 1.58801 0
M  V30 6228 O 584.046 -0.0327915 1.74169 0
M  V30 6229 C 581.178 0.0483203 3.40866 0
M  V30 6230 H 582.371 1.62384 2.52134 0
M  V30 6231 H 579.924 0.877595 1.29337 0
M  V30 6232 H 580.659 -0.876959 3.12218 0
M  V30 6233 H 580.444 0.741189 3.85031 0
M  V30 6234 H 581.934 -0.195471 4.17142 0
M  V30 6235 N 582.371 -1.3172 0.865308 0
M  V30 6236 C 583.301 -2.31109 0.333302 0
M  V30 6237 C 584.282 -1.60148 -0.573301 0
M  V30 6238 O 585.467 -1.87882 -0.491305 0
M  V30 6239 C 582.597 -3.44104 -0.470078 0
M  V30 6240 C 581.551 -4.26623 0.343021 0
M  V30 6241 C 580.877 -5.31482 -0.585756 0
M  V30 6242 C 582.177 -4.98001 1.57456 0
M  V30 6243 H 583.871 -2.75855 1.1638 0
M  V30 6244 H 581.417 -1.3262 0.561069 0
M  V30 6245 H 583.37 -4.12682 -0.852752 0
M  V30 6246 H 582.094 -2.98112 -1.33404 0
M  V30 6247 H 580.753 -3.59707 0.707583 0
M  V30 6248 H 580.401 -4.81741 -1.44686 0
M  V30 6249 H 580.101 -5.87582 -0.0456494 0
M  V30 6250 H 581.625 -6.0292 -0.965375 0
M  V30 6251 H 583.039 -5.59201 1.26359 0
M  V30 6252 H 581.436 -5.63876 2.05339 0
M  V30 6253 H 582.506 -4.25253 2.32997 0
M  V30 6254 N 583.85 -0.624285 -1.44708 0
M  V30 6255 C 584.797 0.0847135 -2.30644 0
M  V30 6256 C 585.767 0.843575 -1.43084 0
M  V30 6257 O 586.952 0.825982 -1.71995 0
M  V30 6258 C 584.091 1.06495 -3.28257 0
M  V30 6259 C 583.205 0.305224 -4.3092 0
M  V30 6260 C 582.34 1.27667 -5.1563 0
M  V30 6261 C 581.379 0.505706 -6.10007 0
M  V30 6262 N 580.516 1.42727 -6.8744 0
M  V30 6263 H 585.356 -0.654068 -2.90733 0
M  V30 6264 H 582.893 -0.334334 -1.4325 0
M  V30 6265 H 584.851 1.64658 -3.83332 0
M  V30 6266 H 583.481 1.77094 -2.69884 0
M  V30 6267 H 582.533 -0.392207 -3.78373 0
M  V30 6268 H 583.845 -0.295553 -4.97924 0
M  V30 6269 H 582.999 1.92984 -5.75189 0
M  V30 6270 H 581.738 1.91137 -4.48685 0
M  V30 6271 H 580.743 -0.160999 -5.49564 0
M  V30 6272 H 581.968 -0.124183 -6.78986 0
M  V30 6273 H 579.913 2.04931 -6.23169 0
M  V30 6274 H 579.831 0.880345 -7.50857 0
M  V30 6275 H 581.099 2.0695 -7.51526 0
M  V30 6276 N 585.328 1.53329 -0.364422 0
M  V30 6277 C 586.291 2.24323 0.470292 0
M  V30 6278 C 587.291 1.25068 1.01067 0
M  V30 6279 O 588.481 1.49354 0.896605 0
M  V30 6280 C 585.613 2.97908 1.65722 0
M  V30 6281 H 586.806 2.9952 -0.150917 0
M  V30 6282 H 584.359 1.55868 -0.116092 0
M  V30 6283 H 585.094 2.2695 2.31655 0
M  V30 6284 H 584.879 3.70732 1.27671 0
M  V30 6285 H 586.369 3.5188 2.24878 0
M  V30 6286 N 586.806 0.0935595 1.57322 0
M  V30 6287 C 587.769 -0.851426 2.12799 0
M  V30 6288 C 588.769 -1.21187 1.0569 0
M  V30 6289 O 589.959 -1.14156 1.31583 0
M  V30 6290 C 587.091 -2.14779 2.64731 0
M  V30 6291 H 588.284 -0.369733 2.97612 0
M  V30 6292 H 585.837 -0.155417 1.55525 0
M  V30 6293 H 586.572 -2.67437 1.83434 0
M  V30 6294 H 586.357 -1.89907 3.43042 0
M  V30 6295 H 587.847 -2.82383 3.07651 0
M  V30 6296 N 588.284 -1.56567 -0.180126 0
M  V30 6297 C 589.531 -1.81492 -0.898167 0
M  V30 6298 C 589.859 -0.669225 -1.82624 0
M  V30 6299 O 589.114 0.344096 -1.92651 0
M  V30 6300 C 589.413 -3.1252 -1.73395 0
M  V30 6301 C 589.079 -4.40658 -0.955567 0
M  V30 6302 C 587.741 -4.75465 -0.740707 0
M  V30 6303 C 590.093 -5.19593 -0.408948 0
M  V30 6304 C 587.421 -5.86691 0.0320128 0
M  V30 6305 C 589.773 -6.31627 0.350638 0
M  V30 6306 C 588.437 -6.65007 0.576378 0
M  V30 6307 H 587.707 -0.664125 -0.328662 0
M  V30 6308 H 590.354 -1.908 -0.163616 0
M  V30 6309 H 588.659 -2.98515 -2.53763 0
M  V30 6310 H 590.356 -3.29013 -2.29241 0
M  V30 6311 H 586.946 -4.13352 -1.13306 0
M  V30 6312 H 591.13 -4.93104 -0.562307 0
M  V30 6313 H 586.386 -6.11016 0.216735 0
M  V30 6314 H 590.56 -6.92001 0.781497 0
M  V30 6315 H 588.187 -7.51033 1.17703 0
M  V30 6316 N 589.762 0.448376 -1.51087 0
M  V30 6317 C 590.695 1.56298 -1.66272 0
M  V30 6318 C 591.673 1.54381 -0.510419 0
M  V30 6319 O 592.857 1.73671 -0.732854 0
M  V30 6320 C 589.984 2.94883 -1.66618 0
M  V30 6321 C 589.03 3.14868 -2.87681 0
M  V30 6322 S 589.863 2.9234 -4.48662 0
M  V30 6323 C 591.019 4.33227 -4.51735 0
M  V30 6324 H 591.252 1.43182 -2.6055 0
M  V30 6325 H 588.785 0.637309 -1.40633 0
M  V30 6326 H 590.743 3.74771 -1.67502 0
M  V30 6327 H 589.404 3.05371 -0.735358 0
M  V30 6328 H 588.597 4.16166 -2.84292 0
M  V30 6329 H 588.199 2.42788 -2.84482 0
M  V30 6330 H 590.491 5.26247 -4.26697 0
M  V30 6331 H 591.434 4.41653 -5.53487 0
M  V30 6332 H 591.842 4.16367 -3.81181 0
M  V30 6333 N 591.24 1.41047 0.703093 0
M  V30 6334 C 592.187 1.42302 1.81711 0
M  V30 6335 C 593.157 0.278336 1.63751 0
M  V30 6336 O 594.342 0.478266 1.84709 0
M  V30 6337 C 591.482 1.30362 3.19531 0
M  V30 6338 C 590.595 2.54638 3.48975 0
M  V30 6339 C 589.73 2.35047 4.76368 0
M  V30 6340 C 588.769 3.54837 4.98756 0
M  V30 6341 N 587.906 3.34363 6.1737 0
M  V30 6342 H 592.746 2.37516 1.79973 0
M  V30 6343 H 590.283 1.1795 0.878983 0
M  V30 6344 H 592.241 1.21443 3.99134 0
M  V30 6345 H 590.871 0.387602 3.20464 0
M  V30 6346 H 589.923 2.74037 2.63833 0
M  V30 6347 H 591.235 3.43766 3.61423 0
M  V30 6348 H 590.389 2.23552 5.64012 0
M  V30 6349 H 589.128 1.43363 4.66153 0
M  V30 6350 H 588.133 3.66795 4.09563 0
M  V30 6351 H 589.358 4.47464 5.10835 0
M  V30 6352 H 587.304 2.45373 6.08382 0
M  V30 6353 H 587.221 4.17063 6.30551 0
M  V30 6354 H 588.489 3.26626 7.07768 0
M  V30 6355 N 592.718 -0.936591 1.26751 0
M  V30 6356 C 593.958 -1.69796 1.13792 0
M  V30 6357 C 594.322 -1.89437 -0.312671 0
M  V30 6358 O 595.523 -2.62806 -0.564489 0
M  V30 6359 C 593.794 -3.03297 1.89065 0
M  V30 6360 S 595.353 -3.94461 1.92214 0
M  V30 6361 H 592.171 -0.583412 0.406389 0
M  V30 6362 H 594.773 -1.11575 1.60535 0
M  V30 6363 H 593.477 -2.86687 2.93665 0
M  V30 6364 H 593.008 -3.66575 1.42781 0
M  V30 6365 H 595.023 -4.85767 1.01215 0
M  V30 6366 N 594.196 -1.08629 -1.14182 0
M  V30 6367 C 595.444 -0.815731 -1.84906 0
M  V30 6368 C 595.765 0.660441 -1.83475 0
M  V30 6369 O 595.035 1.47888 -1.28476 0
M  V30 6370 H 593.615 -0.298773 -0.684648 0
M  V30 6371 H 596.277 -1.37274 -1.38354 0
M  V30 6372 H 595.373 -1.16193 -2.89665 0
M  V30 6373 N 595.674 1.31259 -0.872281 0
M  V30 6374 C 596.899 2.0133 -0.498099 0
M  V30 6375 C 597.324 1.65031 0.902568 0
M  V30 6376 O 596.682 0.860164 1.59596 0
M  V30 6377 C 596.73 3.54411 -0.665205 0
M  V30 6378 O 595.834 4.11347 0.294473 0
M  V30 6379 H 595.175 0.633844 -0.197832 0
M  V30 6380 H 597.705 1.67402 -1.17633 0
M  V30 6381 H 597.715 4.04147 -0.559373 0
M  V30 6382 H 596.39 3.80171 -1.68651 0
M  V30 6383 H 594.967 3.72624 0.143403 0
M  V30 6384 N 597.152 0.631951 1.44375 0
M  V30 6385 C 598.062 -0.073674 2.34484 0
M  V30 6386 C 599.078 -0.834825 1.52665 0
M  V30 6387 O 600.254 -0.786902 1.85391 0
M  V30 6388 C 597.319 -1.04247 3.30656 0
M  V30 6389 C 596.38 -0.280602 4.28382 0
M  V30 6390 C 595.613 -1.20325 5.19959 0
M  V30 6391 O 595.836 -2.44199 5.15484 0
M  V30 6392 O 594.77 -0.687128 5.97965 0
M  V30 6393 H 598.596 0.667477 2.96274 0
M  V30 6394 H 596.181 0.392144 1.44162 0
M  V30 6395 H 598.063 -1.59981 3.89851 0
M  V30 6396 H 596.738 -1.76422 2.71398 0
M  V30 6397 H 595.645 0.319804 3.72731 0
M  V30 6398 H 596.978 0.401144 4.90563 0
M  V30 6399 N 598.631 -1.53133 0.372548 0
M  V30 6400 C 599.908 -1.93704 -0.271693 0
M  V30 6401 C 600.288 -1.30667 -1.65799 0
M  V30 6402 O 599.636 -0.46838 -2.23648 0
M  V30 6403 C 599.846 -3.47576 -0.314903 0
M  V30 6404 C 601.194 -4.20998 -0.551912 0
M  V30 6405 O 602.218 -3.53994 -0.39582 0
M  V30 6406 O 601.077 -5.39748 -0.85639 0
M  V30 6407 H 598.171 -0.810457 -0.164586 0
M  V30 6408 H 600.717 -1.6427 0.425838 0
M  V30 6409 H 599.489 -3.85749 0.656792 0
M  V30 6410 H 599.112 -3.83264 -1.05804 0
M  V30 6411 N 600.109 -0.101901 -1.5727 0
M  V30 6412 C 601.337 0.568392 -1.98939 0
M  V30 6413 C 601.752 1.61301 -0.981194 0
M  V30 6414 O 601.109 1.82478 0.0282869 0
M  V30 6415 C 601.16 1.20997 -3.40649 0
M  V30 6416 O 600.881 0.207129 -4.3761 0
M  V30 6417 C 602.382 1.96523 -3.97358 0
M  V30 6418 H 599.602 0.15186 -0.65359 0
M  V30 6419 H 602.146 -0.183198 -2.03678 0
M  V30 6420 H 600.301 1.91245 -3.36904 0
M  V30 6421 H 600.715 0.671071 -5.20189 0
M  V30 6422 H 602.189 2.36764 -4.98645 0
M  V30 6423 H 602.666 2.83376 -3.35552 0
M  V30 6424 H 603.272 1.31076 -4.04598 0
M  V30 6425 N 601.587 1.56661 0.17182 0
M  V30 6426 C 602.55 1.9549 1.19651 0
M  V30 6427 C 603.55 0.838501 1.37207 0
M  V30 6428 O 604.74 1.10556 1.34622 0
M  V30 6429 C 601.872 2.24927 2.56166 0
M  V30 6430 H 603.065 2.87184 0.864007 0
M  V30 6431 H 600.618 1.50711 0.41425 0
M  V30 6432 H 601.353 1.35944 2.94431 0
M  V30 6433 H 601.138 3.06301 2.4479 0
M  V30 6434 H 602.628 2.55891 3.30014 0
M  V30 6435 N 603.065 -0.440357 1.51323 0
M  V30 6436 C 604.476 -1.02032 1.56353 0
M  V30 6437 C 604.827 -1.92382 0.385197 0
M  V30 6438 O 603.952 -2.10583 -0.498373 0
M  V30 6439 C 604.547 -1.85723 2.83359 0
M  V30 6440 C 603.106 -2.38774 2.90971 0
M  V30 6441 C 602.253 -1.17908 2.50984 0
M  V30 6442 H 605.204 -0.221744 1.57143 0
M  V30 6443 H 605.225 -2.71141 2.66951 0
M  V30 6444 H 604.737 -1.19939 3.69102 0
M  V30 6445 H 602.838 -3.08021 2.09651 0
M  V30 6446 H 602.951 -2.71778 3.94555 0
M  V30 6447 H 601.315 -1.52347 2.04114 0
M  V30 6448 H 602.098 -0.537393 3.39068 0
M  V30 6449 N 604.543 -1.41418 -0.695603 0
M  V30 6450 C 605.789 -1.40982 -1.4578 0
M  V30 6451 C 606.122 -0.0187763 -1.94191 0
M  V30 6452 O 605.397 0.95346 -1.69527 0
M  V30 6453 C 605.68 -2.41657 -2.66972 0
M  V30 6454 C 605.533 -3.89869 -2.24327 0
M  V30 6455 C 606.852 -2.39589 -3.69168 0
M  V30 6456 H 603.971 -0.513405 -0.528757 0
M  V30 6457 H 606.613 -1.72693 -0.792275 0
M  V30 6458 H 604.763 -2.14746 -3.23754 0
M  V30 6459 H 606.435 -4.27683 -1.72872 0
M  V30 6460 H 604.678 -4.04737 -1.56111 0
M  V30 6461 H 605.349 -4.55857 -3.11285 0
M  V30 6462 H 607.825 -2.63471 -3.2206 0
M  V30 6463 H 606.701 -3.12044 -4.51575 0
M  V30 6464 H 606.962 -1.41447 -4.18862 0
M  V30 6465 N 606.021 0.929856 -1.27246 0
M  V30 6466 C 607.27 1.67182 -1.12842 0
M  V30 6467 C 607.583 1.9287 0.325666 0
M  V30 6468 O 608.789 2.64999 0.590572 0
M  V30 6469 C 607.245 3.01097 -1.97151 0
M  V30 6470 C 606.853 2.83115 -3.47203 0
M  V30 6471 C 608.597 3.78907 -1.91389 0
M  V30 6472 C 606.504 4.12573 -4.23719 0
M  V30 6473 H 605.434 0.627064 -0.418697 0
M  V30 6474 H 608.085 1.0332 -1.51649 0
M  V30 6475 H 606.467 3.66004 -1.51186 0
M  V30 6476 H 607.641 2.26989 -4.01015 0
M  V30 6477 H 605.956 2.18736 -3.54321 0
M  V30 6478 H 608.553 4.74837 -2.45834 0
M  V30 6479 H 608.896 4.0674 -0.887047 0
M  V30 6480 H 609.429 3.20794 -2.35237 0
M  V30 6481 H 606.168 3.8992 -5.26918 0
M  V30 6482 H 605.688 4.68371 -3.74685 0
M  V30 6483 H 607.367 4.8095 -4.32777 0
M  V30 6484 N 607.499 1.09233 1.13605 0
M  V30 6485 C 608.748 0.82205 1.84188 0
M  V30 6486 C 609.061 -0.654548 1.84323 0
M  V30 6487 O 610.267 -1.04029 2.50779 0
M  V30 6488 C 608.723 1.42066 3.30674 0
M  V30 6489 C 608.331 2.92965 3.38933 0
M  V30 6490 C 610.075 1.22924 4.06313 0
M  V30 6491 C 607.982 3.45922 4.79679 0
M  V30 6492 H 606.912 0.303854 0.690064 0
M  V30 6493 H 609.563 1.31479 1.28006 0
M  V30 6494 H 607.945 0.855613 3.86646 0
M  V30 6495 H 609.119 3.55679 2.92966 0
M  V30 6496 H 607.434 3.11118 2.76757 0
M  V30 6497 H 610.031 1.59945 5.10217 0
M  V30 6498 H 610.374 0.169726 4.15954 0
M  V30 6499 H 610.907 1.76168 3.56665 0
M  V30 6500 H 607.646 4.51484 4.75229 0
M  V30 6501 H 607.166 2.87971 5.26149 0
M  V30 6502 H 608.845 3.43009 5.48592 0
M  V30 6503 N 608.977 -1.30795 0.87923 0
M  V30 6504 C 610.224 -1.96362 0.494786 0
M  V30 6505 C 610.552 -1.69448 -0.954868 0
M  V30 6506 O 609.807 -0.988711 -1.68888 0
M  V30 6507 C 610.106 -3.50287 0.709476 0
M  V30 6508 C 609.772 -3.9724 2.13333 0
M  V30 6509 C 608.434 -4.09772 2.52271 0
M  V30 6510 C 610.786 -4.21807 3.06151 0
M  V30 6511 C 608.114 -4.44227 3.83248 0
M  V30 6512 C 610.466 -4.5773 4.36654 0
M  V30 6513 C 609.13 -4.68469 4.75492 0
M  V30 6514 H 608.4 -0.71854 0.181055 0
M  V30 6515 H 611.047 -1.55764 1.11399 0
M  V30 6516 H 609.352 -3.91799 0.0072 0
M  V30 6517 H 611.049 -3.99082 0.391703 0
M  V30 6518 H 607.639 -3.87988 1.82107 0
M  V30 6519 H 611.823 -4.11611 2.77291 0
M  V30 6520 H 607.079 -4.50741 4.13089 0
M  V30 6521 H 611.253 -4.7569 5.08617 0
M  V30 6522 H 608.88 -4.94923 5.77022 0
M  V30 6523 N 610.455 -0.639598 -1.44038 0
M  V30 6524 C 611.701 -0.147698 -2.02261 0
M  V30 6525 C 612.034 1.23031 -1.50256 0
M  V30 6526 O 611.309 1.81847 -0.690068 0
M  V30 6527 C 611.592 -0.14362 -3.59813 0
M  V30 6528 C 611.445 -1.55458 -4.22082 0
M  V30 6529 C 612.764 0.527317 -4.36929 0
M  V30 6530 H 609.883 -0.0551453 -0.734934 0
M  V30 6531 H 612.525 -0.817688 -1.71505 0
M  V30 6532 H 610.675 0.426898 -3.86147 0
M  V30 6533 H 612.347 -2.17464 -4.06826 0
M  V30 6534 H 610.59 -2.10594 -3.79253 0
M  V30 6535 H 611.261 -1.50369 -5.31124 0
M  V30 6536 H 613.737 0.0420504 -4.16079 0
M  V30 6537 H 612.613 0.499389 -5.46624 0
M  V30 6538 H 612.874 1.59914 -4.12165 0
M  V30 6539 N 611.933 1.52934 -0.380664 0
M  V30 6540 C 613.158 2.06363 0.207157 0
M  V30 6541 C 613.583 1.25122 1.4045 0
M  V30 6542 O 612.941 0.274062 1.79217 0
M  V30 6543 C 612.989 3.56162 0.563996 0
M  V30 6544 O 612.093 3.77552 1.65917 0
M  V30 6545 H 611.434 0.663468 0.0265859 0
M  V30 6546 H 613.964 1.9719 -0.545635 0
M  V30 6547 H 613.974 3.99453 0.830752 0
M  V30 6548 H 612.649 4.14732 -0.311427 0
M  V30 6549 H 611.226 3.46154 1.3868 0
M  V30 6550 N 613.412 0.11024 1.57214 0
M  V30 6551 C 614.359 -0.843195 2.14846 0
M  V30 6552 C 615.329 -1.26954 1.07107 0
M  V30 6553 O 616.514 -1.34861 1.34971 0
M  V30 6554 C 613.654 -2.09123 2.74521 0
M  V30 6555 C 612.767 -1.71404 3.96541 0
M  V30 6556 C 611.902 -2.91107 4.44331 0
M  V30 6557 C 610.941 -2.49586 5.58903 0
M  V30 6558 N 610.078 -3.62175 6.01477 0
M  V30 6559 H 614.918 -0.344886 2.95998 0
M  V30 6560 H 612.455 -0.15855 1.46243 0
M  V30 6561 H 614.413 -2.82234 3.07246 0
M  V30 6562 H 613.043 -2.56427 1.96074 0
M  V30 6563 H 612.095 -0.88201 3.70033 0
M  V30 6564 H 613.407 -1.36884 4.7965 0
M  V30 6565 H 612.561 -3.72454 4.78919 0
M  V30 6566 H 611.3 -3.28848 3.60153 0
M  V30 6567 H 610.305 -1.6667 5.23929 0
M  V30 6568 H 611.53 -2.12973 6.4484 0
M  V30 6569 H 609.476 -3.99605 5.20242 0
M  V30 6570 H 609.393 -3.3155 6.79419 0
M  V30 6571 H 610.661 -4.43987 6.407 0
M  V30 6572 N 614.89 -1.56749 -0.16351 0
M  V30 6573 C 615.823 -1.9213 -1.23132 0
M  V30 6574 C 616.801 -0.785047 -1.42393 0
M  V30 6575 O 617.985 -1.0391 -1.57273 0
M  V30 6576 C 615.112 -2.17901 -2.59301 0
M  V30 6577 C 614.158 -3.40576 -2.5673 0
M  V30 6578 S 614.991 -4.94689 -2.05045 0
M  V30 6579 C 616.147 -5.23564 -3.42975 0
M  V30 6580 H 616.38 -2.824 -0.929383 0
M  V30 6581 H 613.913 -1.4994 -0.368418 0
M  V30 6582 H 615.871 -2.33429 -3.3767 0
M  V30 6583 H 614.532 -1.28324 -2.86691 0
M  V30 6584 H 613.725 -3.55833 -3.5693 0
M  V30 6585 H 613.327 -3.24204 -1.86462 0
M  V30 6586 H 615.619 -5.16019 -4.3901 0
M  V30 6587 H 616.562 -6.25134 -3.32586 0
M  V30 6588 H 616.97 -4.51113 -3.39348 0
M  V30 6589 N 616.368 0.432326 -1.51554 0
M  V30 6590 C 617.615 1.18134 -1.64471 0
M  V30 6591 C 617.943 1.91076 -0.363349 0
M  V30 6592 O 617.198 1.84492 0.65279 0
M  V30 6593 C 617.497 2.21907 -2.80164 0
M  V30 6594 C 617.163 1.65941 -4.19255 0
M  V30 6595 C 615.825 1.50401 -4.57092 0
M  V30 6596 C 618.177 1.24843 -5.06027 0
M  V30 6597 C 615.505 0.922443 -5.79403 0
M  V30 6598 C 617.857 0.68113 -6.28922 0
M  V30 6599 C 616.521 0.512673 -6.65528 0
M  V30 6600 H 615.791 0.432283 -0.601841 0
M  V30 6601 H 618.438 0.471701 -1.856 0
M  V30 6602 H 616.743 2.98928 -2.53277 0
M  V30 6603 H 618.44 2.79691 -2.87357 0
M  V30 6604 H 615.03 1.79014 -3.89425 0
M  V30 6605 H 619.214 1.35667 -4.77397 0
M  V30 6606 H 614.47 0.779733 -6.06408 0
M  V30 6607 H 618.644 0.35418 -6.95499 0
M  V30 6608 H 616.271 0.0599084 -7.60176 0
M  V30 6609 N 617.846 1.41785 0.688094 0
M  V30 6610 C 618.809 1.43936 1.78368 0
M  V30 6611 C 619.809 0.328866 1.57401 0
M  V30 6612 O 620.999 0.589093 1.63937 0
M  V30 6613 C 618.131 1.25804 3.16838 0
M  V30 6614 H 619.324 2.41472 1.77852 0
M  V30 6615 H 616.877 1.28037 0.896448 0
M  V30 6616 H 617.612 0.291386 3.22988 0
M  V30 6617 H 617.397 2.06272 3.33458 0
M  V30 6618 H 618.887 1.30162 3.96797 0
M  V30 6619 N 619.324 -0.923095 1.27737 0
M  V30 6620 C 620.57 -1.67375 1.14514 0
M  V30 6621 C 620.903 -1.91751 -0.307424 0
M  V30 6622 O 620.178 -1.51119 -1.22447 0
M  V30 6623 C 620.461 -3.03745 1.9342 0
M  V30 6624 C 620.314 -2.86581 3.46686 0
M  V30 6625 C 621.633 -4.04144 1.74228 0
M  V30 6626 H 618.752 -0.607427 0.417374 0
M  V30 6627 H 621.394 -1.07089 1.56946 0
M  V30 6628 H 619.544 -3.55204 1.5736 0
M  V30 6629 H 621.216 -2.42203 3.92601 0
M  V30 6630 H 619.459 -2.21829 3.72793 0
M  V30 6631 H 620.13 -3.83381 3.97143 0
M  V30 6632 H 622.606 -3.61712 2.05678 0
M  V30 6633 H 621.482 -4.97543 2.31824 0
M  V30 6634 H 621.743 -4.36661 0.691373 0
M  V30 6635 N 620.802 -1.09834 -1.13024 0
M  V30 6636 C 622.079 -0.749225 -1.80682 0
M  V30 6637 C 622.459 0.765171 -1.96744 0
M  V30 6638 O 621.807 1.68912 -1.53886 0
M  V30 6639 C 622.017 -1.49311 -3.15448 0
M  V30 6640 C 623.365 -1.66162 -3.90737 0
M  V30 6641 O 624.389 -1.45597 -3.25085 0
M  V30 6642 O 623.248 -2.00211 -5.08505 0
M  V30 6643 H 620.342 -0.269614 -0.781817 0
M  V30 6644 H 622.888 -1.20078 -1.19914 0
M  V30 6645 H 621.66 -2.52407 -2.99009 0
M  V30 6646 H 621.283 -1.034 -3.8392 0
M  V30 6647 N 622.28 1.30327 -0.886154 0
M  V30 6648 C 623.243 2.26376 -0.358687 0
M  V30 6649 C 624.243 1.52845 0.499498 0
M  V30 6650 O 625.433 1.71483 0.306485 0
M  V30 6651 C 622.565 3.37379 0.488726 0
M  V30 6652 H 623.758 2.74547 -1.20681 0
M  V30 6653 H 621.311 1.41536 -0.663113 0
M  V30 6654 H 622.046 2.94526 1.35739 0
M  V30 6655 H 621.831 3.91897 -0.126003 0
M  V30 6656 H 623.321 4.08868 0.84952 0
M  V30 6657 N 623.758 0.647228 1.43697 0
M  V30 6658 C 624.705 -0.0480092 2.3075 0
M  V30 6659 C 625.675 -0.820705 1.44408 0
M  V30 6660 O 626.86 -0.798515 1.73287 0
M  V30 6661 C 624 -1.01259 3.2991 0
M  V30 6662 C 623.113 -0.236629 4.31351 0
M  V30 6663 C 622.248 -1.19447 5.17596 0
M  V30 6664 C 621.287 -0.408595 6.10735 0
M  V30 6665 N 620.424 -1.31772 6.89623 0
M  V30 6666 H 625.264 0.700238 2.89656 0
M  V30 6667 H 622.801 0.357082 1.427 0
M  V30 6668 H 624.759 -1.58538 3.85903 0
M  V30 6669 H 623.389 -1.72778 2.72667 0
M  V30 6670 H 622.441 0.452353 3.77701 0
M  V30 6671 H 623.753 0.374731 4.9739 0
M  V30 6672 H 622.907 -1.83809 5.78186 0
M  V30 6673 H 621.646 -1.83975 4.51669 0
M  V30 6674 H 620.651 0.24841 5.49239 0
M  V30 6675 H 621.876 0.232188 6.78703 0
M  V30 6676 H 619.822 -1.94991 6.2635 0
M  V30 6677 H 619.739 -0.760779 7.52162 0
M  V30 6678 H 621.007 -1.94967 7.54724 0
M  V30 6679 N 625.236 -1.5273 0.388769 0
M  V30 6680 C 626.199 -2.25043 -0.434544 0
M  V30 6681 C 627.199 -1.26661 -0.990644 0
M  V30 6682 O 628.389 -1.50762 -0.872731 0
M  V30 6683 C 625.521 -3.00507 -1.60961 0
M  V30 6684 H 626.714 -2.99242 0.198549 0
M  V30 6685 H 624.267 -1.55664 0.140875 0
M  V30 6686 H 625.002 -2.30607 -2.28015 0
M  V30 6687 H 624.787 -3.72716 -1.21757 0
M  V30 6688 H 626.277 -3.55413 -2.19251 0
M  V30 6689 N 626.714 -0.118576 -1.57153 0
M  V30 6690 C 627.644 0.828436 -2.1831 0
M  V30 6691 C 628.625 1.27758 -1.12303 0
M  V30 6692 O 629.81 1.34026 -1.40537 0
M  V30 6693 C 626.94 2.07876 -2.78217 0
M  V30 6694 C 625.894 1.76742 -3.89803 0
M  V30 6695 C 625.22 3.08801 -4.36516 0
M  V30 6696 C 626.52 1.03606 -5.11921 0
M  V30 6697 H 628.214 0.318824 -2.97698 0
M  V30 6698 H 625.76 0.151911 -1.43196 0
M  V30 6699 H 627.713 2.74584 -3.19659 0
M  V30 6700 H 626.437 2.61161 -1.96118 0
M  V30 6701 H 625.096 1.12424 -3.48936 0
M  V30 6702 H 624.744 3.6002 -3.51276 0
M  V30 6703 H 624.444 2.88743 -5.11763 0
M  V30 6704 H 625.968 3.76627 -4.80608 0
M  V30 6705 H 627.382 1.60467 -5.50385 0
M  V30 6706 H 625.779 0.936454 -5.92748 0
M  V30 6707 H 626.849 0.0227421 -4.84895 0
M  V30 6708 N 628.193 1.56834 0.155195 0
M  V30 6709 C 629.604 1.72421 0.716082 0
M  V30 6710 C 629.955 0.731685 1.82046 0
M  V30 6711 O 629.08 -0.103481 2.16152 0
M  V30 6712 C 629.675 3.12629 1.30571 0
M  V30 6713 C 628.234 3.29846 1.81325 0
M  V30 6714 C 627.381 2.68359 0.698494 0
M  V30 6715 H 630.332 1.58544 -0.0703861 0
M  V30 6716 H 630.353 3.12174 2.1755 0
M  V30 6717 H 629.865 3.84844 0.501701 0
M  V30 6718 H 627.966 2.62614 2.64319 0
M  V30 6719 H 628.079 4.37727 1.9476 0
M  V30 6720 H 626.443 2.28604 1.12305 0
M  V30 6721 H 627.226 3.43171 -0.0939366 0
M  V30 6722 N 629.671 -0.424282 1.51781 0
M  V30 6723 C 630.603 -1.53457 1.70246 0
M  V30 6724 C 631.616 -1.52004 0.582967 0
M  V30 6725 O 632.805 -1.56544 0.857683 0
M  V30 6726 C 629.905 -2.92368 1.71389 0
M  V30 6727 C 629.078 -3.1818 3.00133 0
M  V30 6728 C 628.137 -4.36884 2.9329 0
M  V30 6729 O 627.163 -4.34901 3.67219 0
M  V30 6730 N 628.365 -5.4117 2.10036 0
M  V30 6731 H 631.13 -1.38017 2.66029 0
M  V30 6732 H 628.691 -0.613394 1.4983 0
M  V30 6733 H 630.683 -3.6982 1.64362 0
M  V30 6734 H 629.253 -3.0134 0.831449 0
M  V30 6735 H 628.473 -2.28908 3.20928 0
M  V30 6736 H 629.761 -3.32261 3.85331 0
M  V30 6737 H 629.159 -5.45623 1.49373 0
M  V30 6738 H 627.716 -6.17425 2.08878 0
M  V30 6739 N 631.149 -1.42148 -0.680565 0
M  V30 6740 C 632.097 -1.45401 -1.81552 0
M  V30 6741 C 633.091 -0.33036 -1.66147 0
M  V30 6742 O 634.297 -0.503103 -1.72826 0
M  V30 6743 H 630.672 -0.455265 -0.59853 0
M  V30 6744 H 632.643 -2.41024 -1.75926 0
M  V30 6745 C 631.392 -1.36769 -3.19671 0
M  V30 6746 H 630.715 -2.22525 -3.32149 0
M  V30 6747 H 632.155 -1.43106 -3.9912 0
M  V30 6748 C 630.614 -0.0817752 -3.36801 0
M  V30 6749 O 631.144 0.867707 -3.92216 0
M  V30 6750 N 629.35 -0.000799811 -2.906 0
M  V30 6751 H 628.897 -0.774231 -2.4569 0
M  V30 6752 H 628.855 0.858961 -3.02439 0
M  V30 6753 N 632.627 0.916307 -1.28225 0
M  V30 6754 C 633.574 2.01841 -1.11932 0
M  V30 6755 C 634.544 1.66091 -0.0171604 0
M  V30 6756 O 635.729 1.89934 -0.181617 0
M  V30 6757 C 632.869 3.36065 -0.784504 0
M  V30 6758 C 631.982 3.847 -1.96544 0
M  V30 6759 C 631.117 5.07423 -1.57149 0
M  V30 6760 C 630.156 5.48384 -2.71922 0
M  V30 6761 N 629.293 6.62298 -2.33037 0
M  V30 6762 H 634.133 2.1511 -2.06232 0
M  V30 6763 H 631.67 1.05366 -1.02647 0
M  V30 6764 H 633.628 4.13272 -0.571148 0
M  V30 6765 H 632.258 3.22571 0.121565 0
M  V30 6766 H 631.31 3.03673 -2.291 0
M  V30 6767 H 632.622 4.1102 -2.82603 0
M  V30 6768 H 631.776 5.92165 -1.32004 0
M  V30 6769 H 630.515 4.82906 -0.682153 0
M  V30 6770 H 629.52 4.62184 -2.97768 0
M  V30 6771 H 630.745 5.7489 -3.61494 0
M  V30 6772 H 628.691 6.39416 -1.4657 0
M  V30 6773 H 628.608 6.8833 -3.12631 0
M  V30 6774 H 629.876 7.50352 -2.11169 0
M  V30 6775 N 634.105 1.10431 1.1244 0
M  V30 6776 C 635.516 0.864439 1.65482 0
M  V30 6777 C 635.867 -0.60527 1.8663 0
M  V30 6778 O 634.992 -1.46492 1.59276 0
M  V30 6779 C 635.587 1.56267 3.0061 0
M  V30 6780 C 634.146 1.3695 3.50602 0
M  V30 6781 C 633.293 1.61209 2.25626 0
M  V30 6782 H 636.244 1.26203 0.962209 0
M  V30 6783 H 636.265 1.00166 3.67079 0
M  V30 6784 H 635.777 2.63231 2.85186 0
M  V30 6785 H 633.878 0.321481 3.71211 0
M  V30 6786 H 633.991 2.11143 4.30064 0
M  V30 6787 H 632.355 1.03482 2.32731 0
M  V30 6788 H 633.138 2.69425 2.12756 0
M  V30 6789 N 635.583 -1.29855 0.893053 0
M  V30 6790 C 636.999 -1.48366 0.588199 0
M  V30 6791 C 637.199 -1.81654 -0.872018 0
M  V30 6792 O 636.255 -1.909 -1.65268 0
M  V30 6793 C 637.568 -2.60136 1.5083 0
M  V30 6794 C 639.116 -2.74014 1.51279 0
M  V30 6795 C 639.591 -3.88905 2.41902 0
M  V30 6796 N 641.082 -3.96228 2.39911 0
M  V30 6797 C 641.817 -4.84458 3.06738 0
M  V30 6798 N 641.313 -5.77426 3.8282 0
M  V30 6799 N 643.106 -4.77894 2.95929 0
M  V30 6800 H 635.257 -1.06522 1.83757 0
M  V30 6801 H 637.52 -0.528495 0.787018 0
M  V30 6802 H 637.226 -2.42383 2.54839 0
M  V30 6803 H 637.1 -3.56793 1.22388 0
M  V30 6804 H 639.487 -2.91167 0.480179 0
M  V30 6805 H 639.568 -1.77952 1.83757 0
M  V30 6806 H 639.212 -3.72508 3.45253 0
M  V30 6807 H 639.142 -4.84322 2.06737 0
M  V30 6808 H 641.633 -3.29728 1.84629 0
M  V30 6809 H 641.946 -6.41529 4.30883 0
M  V30 6810 H 640.291 -5.77332 3.86927 0
M  V30 6811 H 643.482 -4.04248 2.36012 0
M  V30 6812 H 643.655 -5.46444 3.48286 0
M  V30 6813 N 637.061 -0.65484 -1.43351 0
M  V30 6814 C 638.472 -0.248506 -1.85039 0
M  V30 6815 C 638.823 1.20526 -1.54816 0
M  V30 6816 O 637.948 1.92016 -0.99794 0
M  V30 6817 C 638.543 -0.444241 -3.35875 0
M  V30 6818 C 637.102 -0.0922108 -3.76287 0
M  V30 6819 C 636.249 -0.746327 -2.67068 0
M  V30 6820 H 639.2 -0.8584 -1.33481 0
M  V30 6821 H 639.221 0.309762 -3.79237 0
M  V30 6822 H 638.733 -1.50239 -3.5784 0
M  V30 6823 H 636.834 0.96328 -3.59933 0
M  V30 6824 H 636.947 -0.518807 -4.76283 0
M  V30 6825 H 635.311 -0.179416 -2.54067 0
M  V30 6826 H 636.094 -1.80754 -2.91861 0
M  V30 6827 N 638.539 1.52521 -0.396863 0
M  V30 6828 C 639.469 2.29582 0.425941 0
M  V30 6829 C 640.45 1.33281 1.05689 0
M  V30 6830 O 641.635 1.62181 1.06823 0
M  V30 6831 C 638.765 3.10821 1.54943 0
M  V30 6832 C 637.719 4.15069 1.04413 0
M  V30 6833 C 637.045 4.84578 2.26028 0
M  V30 6834 C 638.345 5.22191 0.106767 0
M  V30 6835 H 640.039 2.98612 -0.217045 0
M  V30 6836 H 637.585 1.43611 -0.105826 0
M  V30 6837 H 639.538 3.63492 2.13193 0
M  V30 6838 H 638.262 2.39538 2.22011 0
M  V30 6839 H 636.921 3.63389 0.484118 0
M  V30 6840 H 636.569 4.09835 2.91623 0
M  V30 6841 H 636.269 5.55043 1.92876 0
M  V30 6842 H 637.793 5.40056 2.84906 0
M  V30 6843 H 639.207 5.70176 0.597685 0
M  V30 6844 H 637.604 5.99947 -0.135352 0
M  V30 6845 H 638.674 4.77531 -0.842134 0
M  V30 6846 N 640.017 0.126909 1.57088 0
M  V30 6847 C 641.245 -0.53667 1.99819 0
M  V30 6848 C 641.66 -1.5972 1.00673 0
M  V30 6849 O 641.017 -1.825 0.000747365 0
M  V30 6850 C 641.068 -1.15563 3.42531 0
M  V30 6851 O 640.789 -0.137483 4.37884 0
M  V30 6852 C 642.29 -1.90176 4.00435 0
M  V30 6853 H 639.51 -0.141443 0.655923 0
M  V30 6854 H 642.054 0.215578 2.03361 0
M  V30 6855 H 640.209 -1.85861 3.39904 0
M  V30 6856 H 640.623 -0.588229 5.21191 0
M  V30 6857 H 642.097 -2.28801 5.02349 0
M  V30 6858 H 642.574 -2.78002 3.40017 0
M  V30 6859 H 643.18 -1.24623 4.06632 0
M  V30 6860 N 641.495 -1.56914 -0.146875 0
M  V30 6861 C 642.427 -1.94878 -1.20645 0
M  V30 6862 C 643.44 -0.844633 -1.39175 0
M  V30 6863 O 644.629 -1.12304 -1.38744 0
M  V30 6864 C 641.729 -2.20769 -2.57127 0
M  V30 6865 C 640.902 -3.52053 -2.59572 0
M  V30 6866 C 639.961 -3.66482 -3.77594 0
M  V30 6867 O 638.987 -4.38873 -3.62462 0
M  V30 6868 N 640.189 -3.03156 -4.95052 0
M  V30 6869 H 642.954 -2.86374 -0.883757 0
M  V30 6870 H 640.515 -1.58366 -0.336436 0
M  V30 6871 H 642.507 -2.27664 -3.34591 0
M  V30 6872 H 641.077 -1.35538 -2.81688 0
M  V30 6873 H 640.297 -3.56598 -1.68023 0
M  V30 6874 H 641.585 -4.38396 -2.58238 0
M  V30 6875 H 640.983 -2.44258 -5.10249 0
M  V30 6876 H 639.54 -3.15611 -5.70292 0
M  V30 6877 N 642.974 0.416227 -1.52004 0
M  V30 6878 C 643.884 1.53147 -1.77717 0
M  V30 6879 C 644.9 1.609 -0.662368 0
M  V30 6880 O 646.076 1.77747 -0.946991 0
M  V30 6881 C 643.141 2.88948 -1.91598 0
M  V30 6882 C 642.202 2.9114 -3.15493 0
M  V30 6883 C 641.435 4.20464 -3.28703 0
M  V30 6884 O 641.658 5.13981 -2.47345 0
M  V30 6885 O 640.592 4.29368 -4.21813 0
M  V30 6886 H 644.418 1.34357 -2.72363 0
M  V30 6887 H 642.003 0.601373 -1.36762 0
M  V30 6888 H 643.885 3.69505 -2.02593 0
M  V30 6889 H 642.56 3.07821 -1.00141 0
M  V30 6890 H 641.467 2.09461 -3.09962 0
M  V30 6891 H 642.8 2.77216 -4.06709 0
M  V30 6892 N 644.452 1.42507 0.673017 0
M  V30 6893 C 645.362 1.4853 1.81593 0
M  V30 6894 C 646.378 0.373907 1.69935 0
M  V30 6895 O 647.554 0.625078 1.91454 0
M  V30 6896 C 644.619 1.387 3.17747 0
M  V30 6897 C 643.68 2.60346 3.41348 0
M  V30 6898 C 642.913 2.50975 4.71007 0
M  V30 6899 O 643.136 1.54659 5.49033 0
M  V30 6900 O 642.07 3.41138 4.95892 0
M  V30 6901 H 645.896 2.45001 1.79467 0
M  V30 6902 H 643.481 1.2429 0.82899 0
M  V30 6903 H 645.363 1.35586 3.98992 0
M  V30 6904 H 644.038 0.453555 3.20507 0
M  V30 6905 H 642.945 2.69034 2.59945 0
M  V30 6906 H 644.278 3.52595 3.43421 0
M  V30 6907 N 645.93 -0.909495 1.28709 0
M  V30 6908 C 647.179 -1.65365 1.15487 0
M  V30 6909 C 647.492 -1.93364 -0.294941 0
M  V30 6910 O 648.698 -2.65905 -0.548338 0
M  V30 6911 C 647.154 -2.97923 2.01916 0
M  V30 6912 C 646.762 -2.77556 3.51663 0
M  V30 6913 C 648.506 -3.75814 1.97393 0
M  V30 6914 C 646.413 -4.0578 4.30229 0
M  V30 6915 H 645.343 -0.620323 0.42862 0
M  V30 6916 H 647.994 -1.00894 1.53273 0
M  V30 6917 H 646.376 -3.63552 1.5699 0
M  V30 6918 H 647.55 -2.2058 4.04575 0
M  V30 6919 H 645.865 -2.13072 3.57756 0
M  V30 6920 H 648.462 -4.70866 2.53357 0
M  V30 6921 H 648.805 -4.05277 0.951643 0
M  V30 6922 H 649.338 -3.1701 2.40311 0
M  V30 6923 H 646.077 -3.81488 5.33055 0
M  V30 6924 H 645.597 -4.62351 3.82089 0
M  V30 6925 H 647.276 -4.74004 4.40374 0
M  V30 6926 N 647.408 -1.11026 -1.11852 0
M  V30 6927 C 648.371 -0.768006 -2.1595 0
M  V30 6928 C 649.371 0.210538 -1.59416 0
M  V30 6929 O 650.561 -0.0133978 -1.74195 0
M  V30 6930 C 647.693 -0.138678 -3.40618 0
M  V30 6931 H 648.886 -1.69012 -2.4774 0
M  V30 6932 H 646.439 -0.911578 -1.26964 0
M  V30 6933 H 647.174 0.793872 -3.14433 0
M  V30 6934 H 646.959 -0.843012 -3.8293 0
M  V30 6935 H 648.449 0.0848039 -4.17514 0
M  V30 6936 N 648.886 1.2938 -0.899927 0
M  V30 6937 C 649.818 2.26737 -0.335139 0
M  V30 6938 C 650.831 1.54316 0.518681 0
M  V30 6939 O 652.02 1.75313 0.335803 0
M  V30 6940 C 649.12 3.34558 0.540774 0
M  V30 6941 C 648.293 4.36455 -0.287372 0
M  V30 6942 C 647.352 5.2361 0.52141 0
M  V30 6943 O 646.378 5.69167 -0.0611735 0
M  V30 6944 N 647.58 5.50985 1.82745 0
M  V30 6945 H 650.345 2.75838 -1.17191 0
M  V30 6946 H 647.906 1.42716 -0.764438 0
M  V30 6947 H 649.898 3.89794 1.08825 0
M  V30 6948 H 648.468 2.85272 1.27823 0
M  V30 6949 H 647.688 3.80875 -1.01626 0
M  V30 6950 H 648.976 5.01573 -0.854518 0
M  V30 6951 H 648.374 5.15781 2.32349 0
M  V30 6952 H 646.931 6.09036 2.32204 0
M  V30 6953 N 650.364 0.662433 1.43002 0
M  V30 6954 C 651.78 0.330835 1.56133 0
M  V30 6955 C 651.98 -1.16454 1.64441 0
M  V30 6956 O 651.036 -1.94964 1.60453 0
M  V30 6957 C 652.349 1.05029 2.81761 0
M  V30 6958 C 653.897 1.03142 2.95518 0
M  V30 6959 C 654.372 1.73196 4.2399 0
M  V30 6960 N 655.863 1.70004 4.30875 0
M  V30 6961 C 656.598 2.21074 5.29069 0
M  V30 6962 N 656.094 2.80473 6.33488 0
M  V30 6963 N 657.887 2.1152 5.20784 0
M  V30 6964 H 650.038 1.63272 1.35853 0
M  V30 6965 H 652.301 0.687149 0.653092 0
M  V30 6966 H 652.007 2.10542 2.81718 0
M  V30 6967 H 651.881 0.607664 3.72273 0
M  V30 6968 H 654.268 -0.0153339 2.95096 0
M  V30 6969 H 654.349 1.51282 2.0627 0
M  V30 6970 H 653.993 2.77833 4.25172 0
M  V30 6971 H 653.923 1.22515 5.1215 0
M  V30 6972 H 656.414 1.26667 3.56039 0
M  V30 6973 H 656.727 3.17094 7.04749 0
M  V30 6974 H 655.072 2.84538 6.34085 0
M  V30 6975 H 658.263 1.64814 4.38126 0
M  V30 6976 H 658.436 2.51629 5.97149 0
M  V30 6977 N 651.842 -1.52309 0.404946 0
M  V30 6978 C 653.258 -1.59503 0.0556255 0
M  V30 6979 C 653.458 -1.41805 -1.43156 0
M  V30 6980 O 652.514 -1.2429 -2.19792 0
M  V30 6981 C 653.827 -2.95687 0.546801 0
M  V30 6982 C 655.375 -3.08909 0.504413 0
M  V30 6983 C 655.85 -4.47566 0.97203 0
M  V30 6984 N 657.341 -4.53795 0.928679 0
M  V30 6985 C 658.076 -5.59346 1.26174 0
M  V30 6986 N 657.572 -6.72469 1.66604 0
M  V30 6987 N 659.365 -5.49532 1.18198 0
M  V30 6988 H 651.516 -1.6206 1.37296 0
M  V30 6989 H 653.779 -0.762161 0.563751 0
M  V30 6990 H 653.485 -3.13905 1.58609 0
M  V30 6991 H 653.359 -3.77172 -0.0457905 0
M  V30 6992 H 655.746 -2.90378 -0.525819 0
M  V30 6993 H 655.827 -2.2934 1.13301 0
M  V30 6994 H 655.471 -4.6684 2.00057 0
M  V30 6995 H 655.401 -5.25625 0.320292 0
M  V30 6996 H 657.892 -3.72588 0.631369 0
M  V30 6997 H 658.205 -7.48993 1.9034 0
M  V30 6998 H 656.55 -6.73761 1.70504 0
M  V30 6999 H 659.741 -4.60038 0.865011 0
M  V30 7000 H 659.914 -6.31687 1.44485 0
M  V30 7001 N 653.32 -0.135238 -1.57019 0
M  V30 7002 C 654.23 0.822226 -2.19719 0
M  V30 7003 C 655.246 1.28057 -1.17802 0
M  V30 7004 O 656.422 1.3402 -1.50335 0
M  V30 7005 C 653.487 2.0484 -2.79717 0
M  V30 7006 C 652.548 1.64042 -3.96723 0
M  V30 7007 C 651.781 2.80814 -4.53849 0
M  V30 7008 O 652.004 3.967 -4.0986 0
M  V30 7009 O 650.938 2.56963 -5.44292 0
M  V30 7010 H 654.764 0.318552 -3.02025 0
M  V30 7011 H 652.349 0.0912021 -1.49121 0
M  V30 7012 H 654.231 2.76622 -3.17897 0
M  V30 7013 H 652.906 2.54182 -2.00432 0
M  V30 7014 H 651.813 0.893182 -3.63281 0
M  V30 7015 H 653.146 1.19426 -4.77492 0
M  V30 7016 N 654.798 1.5699 0.138552 0
M  V30 7017 C 656.214 1.51844 0.491472 0
M  V30 7018 C 656.414 0.845063 1.82923 0
M  V30 7019 O 655.47 0.419143 2.48997 0
M  V30 7020 C 656.783 2.96615 0.493987 0
M  V30 7021 C 658.331 3.076 0.578913 0
M  V30 7022 C 658.806 4.53893 0.612009 0
M  V30 7023 N 660.297 4.5827 0.673997 0
M  V30 7024 C 661.032 5.68852 0.720729 0
M  V30 7025 N 660.528 6.88982 0.726292 0
M  V30 7026 N 662.321 5.56908 0.762253 0
M  V30 7027 H 654.472 1.99158 -0.738228 0
M  V30 7028 H 656.735 0.908693 -0.270149 0
M  V30 7029 H 656.441 3.49172 -0.420933 0
M  V30 7030 H 656.315 3.53017 1.32887 0
M  V30 7031 H 658.702 2.55057 1.48425 0
M  V30 7032 H 658.783 2.54227 -0.283286 0
M  V30 7033 H 658.427 5.07076 -0.289208 0
M  V30 7034 H 658.357 5.05057 1.49082 0
M  V30 7035 H 660.848 3.71793 0.676654 0
M  V30 7036 H 661.161 7.69014 0.764032 0
M  V30 7037 H 659.506 6.91526 0.69403 0
M  V30 7038 H 662.697 4.61969 0.755135 0
M  V30 7039 H 662.87 6.43102 0.795207 0
M  V30 7040 N 656.276 -0.40816 1.52223 0
M  V30 7041 C 657.239 -1.48 1.7501 0
M  V30 7042 C 658.239 -1.48367 0.619996 0
M  V30 7043 O 659.429 -1.49874 0.887881 0
M  V30 7044 C 656.561 -2.87403 1.83336 0
M  V30 7045 H 657.754 -1.29086 2.70697 0
M  V30 7046 H 655.307 -0.638715 1.42654 0
M  V30 7047 H 656.042 -3.11686 0.895677 0
M  V30 7048 H 655.827 -2.8854 2.65494 0
M  V30 7049 H 657.317 -3.65103 2.02705 0
M  V30 7050 N 657.755 -1.42862 -0.66545 0
M  V30 7051 C 659.171 -1.25993 -0.979687 0
M  V30 7052 C 659.371 -0.170831 -2.00775 0
M  V30 7053 O 658.427 0.454827 -2.4837 0
M  V30 7054 C 659.74 -2.62005 -1.47559 0
M  V30 7055 C 661.288 -2.69437 -1.59288 0
M  V30 7056 C 661.763 -4.05838 -2.12272 0
M  V30 7057 N 663.254 -4.0784 -2.19592 0
M  V30 7058 C 663.989 -5.10205 -2.61684 0
M  V30 7059 N 663.485 -6.22949 -3.03161 0
M  V30 7060 N 665.278 -4.9756 -2.61516 0
M  V30 7061 H 657.429 -2.12395 0.0150493 0
M  V30 7062 H 659.692 -0.946355 -0.0558187 0
M  V30 7063 H 659.398 -3.42605 -0.794654 0
M  V30 7064 H 659.272 -2.86566 -2.45275 0
M  V30 7065 H 661.659 -1.89178 -2.26486 0
M  V30 7066 H 661.74 -2.48655 -0.600374 0
M  V30 7067 H 661.384 -4.86559 -1.4568 0
M  V30 7068 H 661.314 -4.23977 -3.12331 0
M  V30 7069 H 663.805 -3.26452 -1.90361 0
M  V30 7070 H 664.118 -6.96899 -3.33993 0
M  V30 7071 H 662.463 -6.2644 -3.00995 0
M  V30 7072 H 665.654 -4.08551 -2.28481 0
M  V30 7073 H 665.827 -5.77468 -2.93999 0
M  V30 7074 N 659.233 0.902656 -1.29189 0
M  V30 7075 C 660.165 2.01149 -1.09872 0
M  V30 7076 C 661.178 1.62732 -0.0471046 0
M  V30 7077 O 662.367 1.76107 -0.29132 0
M  V30 7078 C 659.467 3.32612 -0.649818 0
M  V30 7079 C 658.64 3.99574 -1.7793 0
M  V30 7080 C 657.699 5.09325 -1.32191 0
M  V30 7081 O 656.725 5.31919 -2.02611 0
M  V30 7082 N 657.927 5.80185 -0.191171 0
M  V30 7083 H 660.692 2.18276 -2.05368 0
M  V30 7084 H 658.253 1.07466 -1.2109 0
M  V30 7085 H 660.245 4.03375 -0.327199 0
M  V30 7086 H 658.815 3.11876 0.212597 0
M  V30 7087 H 658.035 3.22213 -2.27095 0
M  V30 7088 H 659.323 4.41056 -2.53668 0
M  V30 7089 H 658.721 5.64312 0.396016 0
M  V30 7090 H 657.278 6.5176 0.0721001 0
M  V30 7091 N 660.711 1.11618 1.11262 0
M  V30 7092 C 662.127 0.850468 1.35053 0
M  V30 7093 C 662.327 -0.523868 1.94571 0
M  V30 7094 O 661.383 -1.2743 2.17986 0
M  V30 7095 C 662.696 1.96005 2.28041 0
M  V30 7096 C 664.244 1.98993 2.416 0
M  V30 7097 C 664.719 3.0916 3.37911 0
M  V30 7098 N 666.21 3.08547 3.45475 0
M  V30 7099 C 666.945 3.9043 4.19943 0
M  V30 7100 N 666.441 4.8228 4.97371 0
M  V30 7101 N 668.234 3.786 4.15474 0
M  V30 7102 H 660.385 2.00184 0.709932 0
M  V30 7103 H 662.648 0.870635 0.375099 0
M  V30 7104 H 662.354 2.9499 1.91503 0
M  V30 7105 H 662.228 1.85782 3.28275 0
M  V30 7106 H 664.615 1.00633 2.77411 0
M  V30 7107 H 664.696 2.13292 1.4121 0
M  V30 7108 H 664.34 4.07748 3.02827 0
M  V30 7109 H 664.27 2.92102 4.3816 0
M  V30 7110 H 666.761 2.42 2.90249 0
M  V30 7111 H 667.074 5.41289 5.51567 0
M  V30 7112 H 665.419 4.863 4.96525 0
M  V30 7113 H 668.61 3.06185 3.54074 0
M  V30 7114 H 668.783 4.42647 4.73253 0
M  V30 7115 N 662.189 -1.289 0.906776 0
M  V30 7116 C 663.139 -2.25122 0.361109 0
M  V30 7117 C 664.123 -1.52169 -0.52283 0
M  V30 7118 O 665.315 -1.73223 -0.363691 0
M  V30 7119 C 662.444 -3.40915 -0.403982 0
M  V30 7120 C 661.53 -4.21198 0.495279 0
M  V30 7121 N 661.921 -4.79636 1.60572 0
M  V30 7122 C 660.219 -4.45027 0.294372 0
M  V30 7123 C 660.92 -5.39977 2.16332 0
M  V30 7124 N 659.896 -5.23753 1.45546 0
M  V30 7125 H 663.698 -2.67869 1.20927 0
M  V30 7126 H 661.212 -1.43592 0.758632 0
M  V30 7127 H 663.209 -4.08922 -0.811695 0
M  V30 7128 H 661.869 -2.99703 -1.24932 0
M  V30 7129 H 662.88 -4.78209 1.98838 0
M  V30 7130 H 659.557 -4.14348 -0.512021 0
M  V30 7131 H 660.947 -5.96266 3.09704 0
M  V30 7132 N 663.667 -0.670007 -1.42649 0
M  V30 7133 C 664.63 0.00204659 -2.292 0
M  V30 7134 C 665.63 0.733817 -1.4308 0
M  V30 7135 O 666.82 0.57254 -1.64522 0
M  V30 7136 C 663.952 1.01359 -3.25483 0
M  V30 7137 H 665.145 -0.759696 -2.90118 0
M  V30 7138 H 662.698 -0.432105 -1.50208 0
M  V30 7139 H 663.433 1.80399 -2.69493 0
M  V30 7140 H 663.218 0.492323 -3.88997 0
M  V30 7141 H 664.708 1.4824 -3.90403 0
M  V30 7142 N 665.145 1.52092 -0.413018 0
M  V30 7143 C 666.055 2.30858 0.417318 0
M  V30 7144 C 667.071 1.38746 1.05003 0
M  V30 7145 O 668.247 1.71821 1.05069 0
M  V30 7146 C 665.312 3.11756 1.51687 0
M  V30 7147 C 664.373 4.19613 0.906825 0
M  V30 7148 C 663.606 4.96644 1.95399 0
M  V30 7149 O 663.829 4.7402 3.17271 0
M  V30 7150 O 662.763 5.81385 1.55805 0
M  V30 7151 H 666.589 3.02865 -0.225028 0
M  V30 7152 H 664.174 1.48358 -0.176126 0
M  V30 7153 H 666.056 3.62122 2.15512 0
M  V30 7154 H 664.731 2.42539 2.14375 0
M  V30 7155 H 663.638 3.73385 0.231183 0
M  V30 7156 H 664.971 4.91134 0.323814 0
M  V30 7157 N 666.623 0.143563 1.56945 0
M  V30 7158 C 667.57 -0.797433 2.16586 0
M  V30 7159 C 668.54 -1.24654 1.09775 0
M  V30 7160 O 669.725 -1.31968 1.37801 0
M  V30 7161 C 666.865 -2.03253 2.78895 0
M  V30 7162 C 665.978 -1.62954 4.00087 0
M  V30 7163 C 665.113 -2.81617 4.50406 0
M  V30 7164 C 664.152 -2.37675 5.64072 0
M  V30 7165 N 663.289 -3.49335 6.09023 0
M  V30 7166 H 668.129 -0.282023 2.96662 0
M  V30 7167 H 665.666 -0.127494 1.46546 0
M  V30 7168 H 667.624 -2.75653 3.13163 0
M  V30 7169 H 666.254 -2.52211 2.01469 0
M  V30 7170 H 665.306 -0.803322 3.71821 0
M  V30 7171 H 666.618 -1.26679 4.82446 0
M  V30 7172 H 665.772 -3.62212 4.86711 0
M  V30 7173 H 664.511 -3.21134 3.67048 0
M  V30 7174 H 663.516 -1.55519 5.27346 0
M  V30 7175 H 664.741 -1.99247 6.49213 0
M  V30 7176 H 662.687 -3.8848 5.28601 0
M  V30 7177 H 662.604 -3.17064 6.86299 0
M  V30 7178 H 663.872 -4.30297 6.49973 0
M  V30 7179 N 668.101 -1.57061 -0.130224 0
M  V30 7180 C 669.031 -2.02552 -1.16168 0
M  V30 7181 C 670.012 -0.907971 -1.4384 0
M  V30 7182 O 671.197 -1.17693 -1.54473 0
M  V30 7183 C 668.327 -2.42035 -2.49071 0
M  V30 7184 C 667.281 -3.5713 -2.35886 0
M  V30 7185 C 666.607 -3.82478 -3.7365 0
M  V30 7186 C 667.907 -4.89236 -1.8288 0
M  V30 7187 H 669.601 -2.8897 -0.783359 0
M  V30 7188 H 667.147 -1.39021 -0.375376 0
M  V30 7189 H 669.1 -2.72462 -3.21469 0
M  V30 7190 H 667.824 -1.52573 -2.88771 0
M  V30 7191 H 666.483 -3.26895 -1.65938 0
M  V30 7192 H 666.131 -2.9024 -4.10816 0
M  V30 7193 H 665.831 -4.59944 -3.65685 0
M  V30 7194 H 667.355 -4.15347 -4.47571 0
M  V30 7195 H 668.769 -5.18272 -2.45085 0
M  V30 7196 H 667.166 -5.70624 -1.85763 0
M  V30 7197 H 668.236 -4.78494 -0.785571 0
M  V30 7198 N 669.579 0.400081 -1.52437 0
M  V30 7199 C 670.542 1.4707 -1.75793 0
M  V30 7200 C 671.542 1.48036 -0.627856 0
M  V30 7201 O 672.732 1.49401 -0.895817 0
M  V30 7202 C 669.864 2.86427 -1.84858 0
M  V30 7203 H 671.057 1.27649 -2.71377 0
M  V30 7204 H 668.61 0.631141 -1.42991 0
M  V30 7205 H 669.345 3.11207 -0.912194 0
M  V30 7206 H 669.13 2.87128 -2.6702 0
M  V30 7207 H 670.62 3.64023 -2.04638 0
M  V30 7208 N 671.057 1.43213 0.657864 0
M  V30 7209 C 672.02 1.47687 1.75275 0
M  V30 7210 C 673.02 0.362179 1.56668 0
M  V30 7211 O 674.21 0.623734 1.62651 0
M  V30 7212 C 671.342 1.32497 3.14098 0
M  V30 7213 H 672.535 2.4519 1.7269 0
M  V30 7214 H 670.088 1.2991 0.869087 0
M  V30 7215 H 670.823 0.359831 3.22298 0
M  V30 7216 H 670.608 2.13299 3.29008 0
M  V30 7217 H 672.098 1.38549 3.93946 0
M  V30 7218 N 672.536 -0.895792 1.29666 0
M  V30 7219 C 673.499 -1.98189 1.15124 0
M  V30 7220 C 674.499 -1.60572 0.0855717 0
M  V30 7221 O 675.689 -1.70991 0.332826 0
M  V30 7222 C 672.821 -3.32289 0.761372 0
M  V30 7223 H 674.014 -2.12518 2.11603 0
M  V30 7224 H 671.567 -1.0808 1.12908 0
M  V30 7225 H 672.302 -3.23662 -0.203393 0
M  V30 7226 H 672.087 -3.60958 1.53139 0
M  V30 7227 H 673.577 -4.1198 0.682792 0
M  V30 7228 N 674.014 -1.12206 -1.10668 0
M  V30 7229 C 674.946 -0.74552 -2.16736 0
M  V30 7230 C 675.959 0.226696 -1.61214 0
M  V30 7231 O 677.148 0.0083936 -1.78498 0
M  V30 7232 C 674.248 -0.0823368 -3.388 0
M  V30 7233 C 673.421 -1.08341 -4.2377 0
M  V30 7234 C 672.48 -0.448292 -5.24287 0
M  V30 7235 O 671.506 -1.10458 -5.58379 0
M  V30 7236 N 672.708 0.785336 -5.75163 0
M  V30 7237 H 675.473 -1.65818 -2.49649 0
M  V30 7238 H 673.034 -1.01335 -1.26265 0
M  V30 7239 H 675.026 0.354476 -4.03145 0
M  V30 7240 H 673.596 0.733041 -3.03884 0
M  V30 7241 H 672.816 -1.69792 -3.55759 0
M  V30 7242 H 674.104 -1.76042 -4.77375 0
M  V30 7243 H 673.502 1.33755 -5.4966 0
M  V30 7244 H 672.059 1.16501 -6.41304 0
M  V30 7245 N 675.492 1.28418 -0.913599 0
M  V30 7246 C 676.74 1.94596 -0.545594 0
M  V30 7247 C 677.061 1.7227 0.913668 0
M  V30 7248 O 676.331 1.06233 1.64595 0
M  V30 7249 H 674.911 0.720065 -0.198783 0
M  V30 7250 H 677.573 1.56404 -1.16292 0
M  V30 7251 H 676.669 3.03202 -0.739911 0
M  V30 7252 N 676.97 0.677563 1.42291 0
M  V30 7253 C 677.902 -0.0380218 2.29168 0
M  V30 7254 C 678.915 -0.762714 1.43828 0
M  V30 7255 O 680.104 -0.616413 1.67519 0
M  V30 7256 C 677.204 -1.07761 3.21311 0
M  V30 7257 C 676.377 -0.42618 4.35319 0
M  V30 7258 C 675.436 -1.36592 5.08162 0
M  V30 7259 O 674.462 -0.865174 5.62586 0
M  V30 7260 N 675.664 -2.69909 5.13935 0
M  V30 7261 H 678.429 0.707766 2.91223 0
M  V30 7262 H 675.99 0.52219 1.53247 0
M  V30 7263 H 677.982 -1.70761 3.6691 0
M  V30 7264 H 676.552 -1.72511 2.60689 0
M  V30 7265 H 675.772 0.383385 3.92331 0
M  V30 7266 H 677.06 0.0275277 5.08793 0
M  V30 7267 H 676.458 -3.13129 4.71134 0
M  V30 7268 H 675.015 -3.2815 5.6317 0
M  V30 7269 N 678.448 -1.51871 0.421078 0
M  V30 7270 C 679.411 -2.25914 -0.386712 0
M  V30 7271 C 680.411 -1.28733 -0.963555 0
M  V30 7272 O 681.601 -1.52579 -0.840556 0
M  V30 7273 C 678.733 -3.03853 -1.54551 0
M  V30 7274 H 679.926 -2.98754 0.261978 0
M  V30 7275 H 677.479 -1.5533 0.173862 0
M  V30 7276 H 678.214 -2.35392 -2.23072 0
M  V30 7277 H 677.999 -3.75215 -1.13824 0
M  V30 7278 H 679.489 -3.59984 -2.11663 0
M  V30 7279 N 679.926 -0.151884 -1.56866 0
M  V30 7280 C 681.337 0.368128 -1.83035 0
M  V30 7281 C 681.688 1.64402 -1.07082 0
M  V30 7282 O 680.813 2.14056 -0.317647 0
M  V30 7283 C 681.408 0.674676 -3.32014 0
M  V30 7284 C 679.967 1.13919 -3.58747 0
M  V30 7285 C 679.114 0.164833 -2.7681 0
M  V30 7286 H 682.065 -0.376499 -1.54169 0
M  V30 7287 H 682.086 1.52883 -3.48435 0
M  V30 7288 H 681.598 -0.254113 -3.87267 0
M  V30 7289 H 679.699 2.08375 -3.08886 0
M  V30 7290 H 679.812 1.06179 -4.67186 0
M  V30 7291 H 678.176 0.658419 -2.46043 0
M  V30 7292 H 678.959 -0.757633 -3.34836 0
M  V30 7293 N 681.404 1.57128 0.121893 0
M  V30 7294 C 682.334 2.03165 1.15092 0
M  V30 7295 C 683.315 0.915587 1.43356 0
M  V30 7296 O 684.5 1.1851 1.53847 0
M  V30 7297 C 681.63 2.43352 2.47784 0
M  V30 7298 C 680.584 3.58376 2.33989 0
M  V30 7299 C 679.91 3.84454 3.71617 0
M  V30 7300 C 681.21 4.90199 1.80283 0
M  V30 7301 H 682.904 2.89382 0.768023 0
M  V30 7302 H 680.45 1.39218 0.367998 0
M  V30 7303 H 682.403 2.74163 3.20019 0
M  V30 7304 H 681.127 1.54103 2.87958 0
M  V30 7305 H 679.786 3.2777 1.64202 0
M  V30 7306 H 679.434 2.92414 4.09271 0
M  V30 7307 H 679.134 4.61877 3.6324 0
M  V30 7308 H 680.658 4.17714 4.45362 0
M  V30 7309 H 682.072 5.19565 2.42333 0
M  V30 7310 H 680.469 5.71601 1.82735 0
M  V30 7311 H 681.539 4.78904 0.760184 0
M  V30 7312 N 682.882 -0.391992 1.52647 0
M  V30 7313 C 683.792 -1.503 1.80131 0
M  V30 7314 C 684.808 -1.59825 0.687882 0
M  V30 7315 O 685.984 -1.76218 0.975149 0
M  V30 7316 C 683.049 -2.85863 1.96171 0
M  V30 7317 C 682.11 -2.86084 3.20085 0
M  V30 7318 C 681.343 -4.15181 3.35351 0
M  V30 7319 O 681.566 -5.09981 2.55491 0
M  V30 7320 O 680.5 -4.22603 4.28591 0
M  V30 7321 H 684.326 -1.30007 2.74466 0
M  V30 7322 H 681.911 -0.579539 1.37701 0
M  V30 7323 H 683.793 -3.66236 2.08445 0
M  V30 7324 H 682.468 -3.06189 1.05025 0
M  V30 7325 H 681.375 -2.04504 3.13256 0
M  V30 7326 H 682.708 -2.7071 4.11068 0
M  V30 7327 N 684.36 -1.4356 -0.65026 0
M  V30 7328 C 685.771 -1.40324 -1.2315 0
M  V30 7329 C 686.122 -0.108812 -1.95898 0
M  V30 7330 O 685.247 0.79163 -2.01401 0
M  V30 7331 C 685.842 -2.54195 -2.23987 0
M  V30 7332 C 684.401 -2.54215 -2.77582 0
M  V30 7333 C 683.548 -2.31752 -1.5227 0
M  V30 7334 H 686.499 -1.52418 -0.442095 0
M  V30 7335 H 686.52 -2.25854 -3.0622 0
M  V30 7336 H 686.032 -3.48392 -1.71011 0
M  V30 7337 H 684.133 -1.63907 -3.34612 0
M  V30 7338 H 684.246 -3.52081 -3.24925 0
M  V30 7339 H 682.61 -1.80476 -1.79723 0
M  V30 7340 H 683.393 -3.28037 -1.01225 0
M  V30 7341 N 685.838 0.888903 -1.30139 0
M  V30 7342 C 687.066 1.67358 -1.21651 0
M  V30 7343 C 687.481 1.87499 0.221246 0
M  V30 7344 O 686.838 1.41969 1.14677 0
M  V30 7345 C 686.889 3.05213 -1.93719 0
M  V30 7346 O 686.61 2.85984 -3.31881 0
M  V30 7347 C 688.111 3.9964 -1.9184 0
M  V30 7348 H 685.331 0.522365 -0.42116 0
M  V30 7349 H 687.875 1.11086 -1.71698 0
M  V30 7350 H 686.03 3.5823 -1.4748 0
M  V30 7351 H 686.444 3.73411 -3.68327 0
M  V30 7352 H 687.918 4.93749 -2.46811 0
M  V30 7353 H 688.395 4.29955 -0.896409 0
M  V30 7354 H 689.001 3.52558 -2.37872 0
M  V30 7355 N 687.317 1.12792 1.10072 0
M  V30 7356 C 688.249 0.757003 2.16338 0
M  V30 7357 C 689.262 -0.218144 1.61332 0
M  V30 7358 O 690.451 0.0010727 1.785 0
M  V30 7359 C 687.551 0.100303 3.38752 0
M  V30 7360 C 686.724 1.10586 4.2319 0
M  V30 7361 C 685.783 0.47609 5.24042 0
M  V30 7362 O 684.809 1.13418 5.57786 0
M  V30 7363 N 686.011 -0.754823 5.75572 0
M  V30 7364 H 688.776 1.6714 2.48766 0
M  V30 7365 H 686.337 1.02003 1.25726 0
M  V30 7366 H 688.329 -0.333092 4.03327 0
M  V30 7367 H 686.899 -0.716915 3.04268 0
M  V30 7368 H 686.119 1.71677 3.54853 0
M  V30 7369 H 687.407 1.78571 4.76435 0
M  V30 7370 H 686.805 -1.30838 5.50362 0
M  V30 7371 H 685.362 -1.13098 6.41913 0
M  V30 7372 N 688.795 -1.27931 0.920396 0
M  V30 7373 C 690.072 -1.89728 0.475687 0
M  V30 7374 C 690.452 -1.8337 -1.04588 0
M  V30 7375 O 689.8 -1.27404 -1.89685 0
M  V30 7376 C 690.01 -3.33959 1.01354 0
M  V30 7377 C 691.358 -4.10907 1.06963 0
M  V30 7378 O 692.382 -3.42945 0.962646 0
M  V30 7379 O 691.241 -5.32399 1.23343 0
M  V30 7380 H 688.335 -0.81294 0.151845 0
M  V30 7381 H 690.881 -1.36252 1.01161 0
M  V30 7382 H 689.653 -3.32843 2.05746 0
M  V30 7383 H 689.276 -3.94944 0.458829 0
M  V30 7384 N 690.273 -0.685099 -1.4193 0
M  V30 7385 C 691.521 -0.21124 -2.00993 0
M  V30 7386 C 691.842 1.18985 -1.54491 0
M  V30 7387 O 691.112 1.8009 -0.771 0
M  V30 7388 H 689.692 -0.0751059 -0.743215 0
M  V30 7389 H 692.354 -0.883915 -1.73704 0
M  V30 7390 H 691.45 -0.220513 -3.1132 0
M  V30 7391 N 691.751 1.51645 -0.429126 0
M  V30 7392 C 692.976 2.06917 0.141399 0
M  V30 7393 C 693.401 1.29527 1.36398 0
M  V30 7394 O 692.759 0.33094 1.78254 0
M  V30 7395 C 692.807 3.57776 0.4504 0
M  V30 7396 O 691.911 3.82639 1.53821 0
M  V30 7397 H 691.252 0.663978 0.0054647 0
M  V30 7398 H 693.782 1.95355 -0.608093 0
M  V30 7399 H 693.792 4.01894 0.703249 0
M  V30 7400 H 692.467 4.13532 -0.443213 0
M  V30 7401 H 691.044 3.5039 1.27597 0
M  V30 7402 N 693.229 0.160201 1.56784 0
M  V30 7403 C 694.192 -0.760405 2.16219 0
M  V30 7404 C 695.192 -1.16595 1.10735 0
M  V30 7405 O 696.382 -1.08472 1.36306 0
M  V30 7406 C 693.514 -2.03358 2.73603 0
M  V30 7407 H 694.707 -0.243173 2.98912 0
M  V30 7408 H 692.26 -0.0893139 1.56045 0
M  V30 7409 H 692.995 -2.59416 1.94612 0
M  V30 7410 H 692.78 -1.75186 3.50788 0
M  V30 7411 H 694.27 -2.69081 3.19351 0
M  V30 7412 N 694.707 -1.5719 -0.113559 0
M  V30 7413 C 695.956 -1.84325 -0.818984 0
M  V30 7414 C 696.269 -0.746685 -1.80787 0
M  V30 7415 O 697.475 -0.904596 -2.55987 0
M  V30 7416 C 695.931 -3.26818 -1.50724 0
M  V30 7417 C 695.539 -4.44498 -0.559065 0
M  V30 7418 C 697.283 -3.63196 -2.19748 0
M  V30 7419 C 695.19 -5.7802 -1.25086 0
M  V30 7420 H 694.12 -0.687507 -0.309596 0
M  V30 7421 H 696.771 -1.8336 -0.0717621 0
M  V30 7422 H 695.153 -3.22269 -2.30128 0
M  V30 7423 H 696.327 -4.60356 0.202146 0
M  V30 7424 H 694.642 -4.16393 0.024495 0
M  V30 7425 H 697.239 -4.60226 -2.72206 0
M  V30 7426 H 697.582 -2.90899 -2.97798 0
M  V30 7427 H 698.115 -3.69553 -1.47226 0
M  V30 7428 H 694.854 -6.53501 -0.511539 0
M  V30 7429 H 694.374 -5.66038 -1.98395 0
M  V30 7430 H 696.053 -6.2196 -1.78253 0
M  V30 7431 N 696.185 0.383891 -1.52853 0
M  V30 7432 C 697.095 1.49343 -1.80925 0
M  V30 7433 C 698.111 1.59458 -0.696348 0
M  V30 7434 O 699.287 1.75698 -0.984481 0
M  V30 7435 C 696.352 2.84819 -1.97684 0
M  V30 7436 C 695.413 2.84382 -3.21598 0
M  V30 7437 C 694.646 4.13397 -3.37548 0
M  V30 7438 O 694.869 5.08619 -2.58192 0
M  V30 7439 O 693.803 4.20325 -4.30826 0
M  V30 7440 H 697.629 1.2855 -2.75152 0
M  V30 7441 H 695.214 0.572229 -1.38007 0
M  V30 7442 H 697.096 3.65125 -2.10385 0
M  V30 7443 H 695.771 3.05627 -1.06647 0
M  V30 7444 H 694.678 2.0284 -3.14336 0
M  V30 7445 H 696.011 2.68526 -4.12498 0
M  V30 7446 N 697.663 1.43903 0.642637 0
M  V30 7447 C 698.891 1.4954 1.42988 0
M  V30 7448 C 699.306 0.116588 1.8844 0
M  V30 7449 O 698.663 -0.875285 1.60141 0
M  V30 7450 C 698.714 2.45031 2.65785 0
M  V30 7451 O 698.435 3.77551 2.22232 0
M  V30 7452 C 699.936 2.60017 3.59035 0
M  V30 7453 H 697.156 0.507544 0.438907 0
M  V30 7454 H 699.7 1.88752 0.786942 0
M  V30 7455 H 697.855 2.08985 3.26196 0
M  V30 7456 H 698.269 4.29001 3.01759 0
M  V30 7457 H 699.743 3.30887 4.41835 0
M  V30 7458 H 700.22 1.64861 4.07084 0
M  V30 7459 H 700.826 2.96918 3.045 0
M  V30 7460 N 699.141 -0.881989 1.30609 0
M  V30 7461 C 700.381 -1.64817 1.20891 0
M  V30 7462 C 700.745 -1.90593 -0.232043 0
M  V30 7463 O 701.946 -2.64964 -0.452516 0
M  V30 7464 C 700.217 -2.95006 2.01758 0
M  V30 7465 S 701.776 -3.85953 2.08771 0
M  V30 7466 H 698.594 -0.565651 0.430767 0
M  V30 7467 H 701.196 -1.04665 1.65122 0
M  V30 7468 H 699.9 -2.73973 3.0556 0
M  V30 7469 H 699.431 -3.60189 1.582 0
M  V30 7470 H 701.446 -4.81037 1.21727 0
M  V30 7471 N 700.619 -1.13374 -1.09472 0
M  V30 7472 C 702.03 -0.90801 -1.63132 0
M  V30 7473 C 702.381 0.555576 -1.8817 0
M  V30 7474 O 701.506 1.42218 -1.63104 0
M  V30 7475 C 702.101 -1.64182 -2.96361 0
M  V30 7476 C 700.66 -1.46197 -3.46848 0
M  V30 7477 C 699.807 -1.67134 -2.21273 0
M  V30 7478 H 702.758 -1.2871 -0.928411 0
M  V30 7479 H 702.779 -1.09863 -3.64294 0
M  V30 7480 H 702.291 -2.707 -2.78106 0
M  V30 7481 H 700.392 -0.419788 -3.70228 0
M  V30 7482 H 700.505 -2.22472 -4.24315 0
M  V30 7483 H 698.869 -1.09616 -2.29905 0
M  V30 7484 H 699.652 -2.74971 -2.05538 0
M  V30 7485 N 702.098 1.27442 -0.927168 0
M  V30 7486 C 703.045 2.26863 -0.424459 0
M  V30 7487 C 704.015 1.5813 0.508346 0
M  V30 7488 O 705.2 1.85946 0.42762 0
M  V30 7489 C 702.34 3.43639 0.31718 0
M  V30 7490 C 701.453 4.27087 -0.649675 0
M  V30 7491 C 700.588 5.31082 0.111753 0
M  V30 7492 C 699.627 6.062 -0.847843 0
M  V30 7493 N 698.764 7.01999 -0.119074 0
M  V30 7494 H 703.604 2.69239 -1.27728 0
M  V30 7495 H 701.141 1.32394 -0.641106 0
M  V30 7496 H 703.099 4.10155 0.763486 0
M  V30 7497 H 701.729 3.02217 1.13424 0
M  V30 7498 H 700.781 3.60491 -1.21451 0
M  V30 7499 H 702.093 4.79242 -1.38307 0
M  V30 7500 H 701.247 6.03544 0.618 0
M  V30 7501 H 699.986 4.7973 0.878114 0
M  V30 7502 H 698.991 5.32577 -1.36534 0
M  V30 7503 H 700.216 6.59642 -1.61398 0
M  V30 7504 H 698.162 6.52977 0.629051 0
M  V30 7505 H 698.079 7.5184 -0.792046 0
M  V30 7506 H 699.347 7.78638 0.366537 0
M  V30 7507 N 703.576 0.692616 1.41565 0
M  V30 7508 C 704.824 0.221896 2.00878 0
M  V30 7509 C 705.145 -1.18164 1.5512 0
M  V30 7510 O 704.415 -1.79679 0.78054 0
M  V30 7511 H 702.995 0.0790463 0.742806 0
M  V30 7512 H 705.657 0.893115 1.73232 0
M  V30 7513 H 704.753 0.23702 3.11199 0
M  V30 7514 N 705.054 -1.51416 0.437162 0
M  V30 7515 C 705.964 -2.31493 -0.380537 0
M  V30 7516 C 706.98 -1.40399 -1.02782 0
M  V30 7517 O 708.156 -1.73471 -1.02323 0
M  V30 7518 C 705.221 -3.1413 -1.46709 0
M  V30 7519 C 704.282 -4.21003 -0.839953 0
M  V30 7520 C 703.515 -4.9969 -1.87473 0
M  V30 7521 O 703.738 -4.79008 -3.09689 0
M  V30 7522 O 702.672 -5.8379 -1.46536 0
M  V30 7523 H 706.498 -3.02469 0.273183 0
M  V30 7524 H 704.083 -1.48059 0.199706 0
M  V30 7525 H 705.965 -3.65505 -2.09724 0
M  V30 7526 H 704.64 -2.45919 -2.10489 0
M  V30 7527 H 703.547 -3.73706 -0.171752 0
M  V30 7528 H 704.88 -4.91587 -0.245638 0
M  V30 7529 N 706.532 -0.168513 -1.56696 0
M  V30 7530 C 707.442 0.775435 -2.21414 0
M  V30 7531 C 708.458 1.25529 -1.20492 0
M  V30 7532 O 709.634 1.30801 -1.53144 0
M  V30 7533 C 706.699 1.9886 -2.83999 0
M  V30 7534 C 705.76 1.5559 -4.00113 0
M  V30 7535 C 704.993 2.71124 -4.59704 0
M  V30 7536 O 705.216 3.87917 -4.18182 0
M  V30 7537 O 704.15 2.4536 -5.4962 0
M  V30 7538 H 707.976 0.254416 -3.02632 0
M  V30 7539 H 705.561 0.0595507 -1.49281 0
M  V30 7540 H 707.443 2.69816 -3.23693 0
M  V30 7541 H 706.118 2.49874 -2.05779 0
M  V30 7542 H 705.025 0.815924 -3.65094 0
M  V30 7543 H 706.358 1.09271 -4.79917 0
M  V30 7544 N 708.01 1.57248 0.105221 0
M  V30 7545 C 709.421 1.74612 0.660865 0
M  V30 7546 C 709.772 0.789231 1.79626 0
M  V30 7547 O 708.897 -0.0346611 2.16372 0
M  V30 7548 C 709.492 3.16624 1.20559 0
M  V30 7549 C 708.051 3.35447 1.7074 0
M  V30 7550 C 707.198 2.70445 0.612764 0
M  V30 7551 H 710.149 1.5824 -0.12079 0
M  V30 7552 H 710.17 3.18937 2.07508 0
M  V30 7553 H 709.682 3.86245 0.379012 0
M  V30 7554 H 707.783 2.7089 2.5583 0
M  V30 7555 H 707.896 4.43702 1.80736 0
M  V30 7556 H 706.26 2.32061 1.04975 0
M  V30 7557 H 707.043 3.42699 -0.203066 0
M  V30 7558 N 709.488 -0.375779 1.53054 0
M  V30 7559 C 710.904 -0.716764 1.426 0
M  V30 7560 C 711.104 -1.93651 0.556931 0
M  V30 7561 O 710.16 -2.52475 0.0354461 0
M  V30 7562 C 711.473 -0.939499 2.85646 0
M  V30 7563 C 713.021 -1.04015 2.95212 0
M  V30 7564 C 713.496 -1.29543 4.39298 0
M  V30 7565 N 714.987 -1.36335 4.42682 0
M  V30 7566 C 715.722 -1.57778 5.51266 0
M  V30 7567 N 715.218 -1.76604 6.69913 0
M  V30 7568 N 717.011 -1.60065 5.38828 0
M  V30 7569 H 709.162 0.42664 2.08071 0
M  V30 7570 H 711.425 0.128758 0.939215 0
M  V30 7571 H 711.131 -0.115189 3.51511 0
M  V30 7572 H 711.005 -1.85048 3.2869 0
M  V30 7573 H 713.392 -1.85501 2.29507 0
M  V30 7574 H 713.473 -0.106785 2.55577 0
M  V30 7575 H 713.117 -0.485611 5.05573 0
M  V30 7576 H 713.047 -2.24184 4.76497 0
M  V30 7577 H 715.538 -1.23441 3.5717 0
M  V30 7578 H 715.851 -1.9251 7.48438 0
M  V30 7579 H 714.196 -1.73802 6.72917 0
M  V30 7580 H 717.387 -1.44917 4.45103 0
M  V30 7581 H 717.56 -1.76435 6.23518 0
M  V30 7582 N 710.966 -1.44241 -0.634997 0
M  V30 7583 C 712.214 -1.46531 -1.39187 0
M  V30 7584 C 712.535 -0.0976441 -1.94755 0
M  V30 7585 O 711.805 0.869528 -1.75545 0
M  V30 7586 H 710.385 -0.539544 -0.516625 0
M  V30 7587 H 713.047 -1.79989 -0.747655 0
M  V30 7588 H 712.143 -2.18848 -2.22513 0
M  V30 7589 N 712.444 0.87505 -1.31075 0
M  V30 7590 C 713.721 1.60976 -1.11113 0
M  V30 7591 C 714.101 2.08409 0.336006 0
M  V30 7592 O 713.449 1.85858 1.32924 0
M  V30 7593 C 713.659 2.77166 -2.12085 0
M  V30 7594 C 715.007 3.47254 -2.44335 0
M  V30 7595 O 716.031 2.87367 -2.10472 0
M  V30 7596 O 714.89 4.55276 -3.02301 0
M  V30 7597 H 711.984 0.707982 -0.427424 0
M  V30 7598 H 714.53 0.920957 -1.42536 0
M  V30 7599 H 713.302 2.39494 -3.09449 0
M  V30 7600 H 712.925 3.53737 -1.81538 0
M  V30 7601 N 713.922 1.13953 1.08869 0
M  V30 7602 C 714.832 0.835666 2.19212 0
M  V30 7603 C 715.848 -0.182005 1.73045 0
M  V30 7604 O 717.024 -0.0116661 2.01397 0
M  V30 7605 C 714.089 0.312325 3.4529 0
M  V30 7606 C 713.15 1.39196 4.06107 0
M  V30 7607 C 712.383 0.893496 5.26168 0
M  V30 7608 O 712.606 -0.266807 5.69776 0
M  V30 7609 O 711.54 1.67037 5.78258 0
M  V30 7610 H 715.366 1.75769 2.47667 0
M  V30 7611 H 712.951 0.917421 1.17914 0
M  V30 7612 H 714.833 0.0261582 4.21392 0
M  V30 7613 H 713.508 -0.582042 3.18424 0
M  V30 7614 H 712.415 1.73152 3.31616 0
M  V30 7615 H 713.748 2.26068 4.37212 0
M  V30 7616 N 715.4 -1.26948 0.933913 0
M  V30 7617 C 716.332 -2.25768 0.395137 0
M  V30 7618 C 717.345 -1.55637 -0.477585 0
M  V30 7619 O 718.534 -1.76142 -0.289204 0
M  V30 7620 C 715.634 -3.35874 -0.451882 0
M  V30 7621 C 714.807 -4.3554 0.40299 0
M  V30 7622 C 713.866 -5.24809 -0.3824 0
M  V30 7623 O 712.892 -5.68805 0.212057 0
M  V30 7624 N 714.094 -5.55636 -1.68072 0
M  V30 7625 H 716.859 -2.72634 1.24463 0
M  V30 7626 H 714.42 -1.40639 0.802008 0
M  V30 7627 H 716.412 -3.92542 -0.984516 0
M  V30 7628 H 714.982 -2.8856 -1.20215 0
M  V30 7629 H 714.202 -3.78047 1.11688 0
M  V30 7630 H 715.49 -4.99131 0.987201 0
M  V30 7631 H 714.888 -5.2176 -2.18592 0
M  V30 7632 H 713.445 -6.14978 -2.15975 0
M  V30 7633 N 716.879 -0.700114 -1.41195 0
M  V30 7634 C 717.811 0.00155823 -2.292 0
M  V30 7635 C 718.824 0.739736 -1.45023 0
M  V30 7636 O 720.013 0.589684 -1.68478 0
M  V30 7637 C 717.113 1.02635 -3.22985 0
M  V30 7638 C 716.286 0.356871 -4.35942 0
M  V30 7639 C 715.345 1.28491 -5.10271 0
M  V30 7640 O 714.371 0.775562 -5.63892 0
M  V30 7641 N 715.573 2.61699 -5.18164 0
M  V30 7642 H 718.338 -0.754008 -2.9006 0
M  V30 7643 H 715.899 -0.546504 -1.52397 0
M  V30 7644 H 717.891 1.64902 -3.6958 0
M  V30 7645 H 716.461 1.68341 -2.63401 0
M  V30 7646 H 715.681 -0.445753 -3.91672 0
M  V30 7647 H 716.969 -0.108469 -5.08684 0
M  V30 7648 H 716.367 3.05594 -4.76056 0
M  V30 7649 H 714.924 3.19149 -5.6832 0
M  V30 7650 N 718.357 1.51182 -0.445186 0
M  V30 7651 C 719.603 2.02452 0.11882 0
M  V30 7652 C 719.936 1.32824 1.41673 0
M  V30 7653 O 719.211 0.445637 1.89326 0
M  V30 7654 C 719.494 3.5859 0.329475 0
M  V30 7655 C 719.347 4.38823 -0.987638 0
M  V30 7656 C 720.666 4.26241 1.09575 0
M  V30 7657 H 717.785 0.735819 0.0417092 0
M  V30 7658 H 720.427 1.80747 -0.585718 0
M  V30 7659 H 718.577 3.77214 0.9296 0
M  V30 7660 H 720.249 4.3183 -1.62235 0
M  V30 7661 H 718.492 4.03594 -1.59041 0
M  V30 7662 H 719.163 5.46257 -0.794192 0
M  V30 7663 H 721.639 4.11934 0.587328 0
M  V30 7664 H 720.515 5.35354 1.21191 0
M  V30 7665 H 720.776 3.87635 2.12584 0
M  V30 7666 N 719.835 0.176821 1.56605 0
M  V30 7667 C 720.745 -0.763682 2.21822 0
M  V30 7668 C 721.761 -1.24889 1.21156 0
M  V30 7669 O 722.937 -1.29987 1.53836 0
M  V30 7670 C 720.002 -1.97352 2.8505 0
M  V30 7671 C 719.063 -1.53466 4.00932 0
M  V30 7672 C 718.296 -2.68682 4.61135 0
M  V30 7673 O 718.519 -3.85694 4.20234 0
M  V30 7674 O 717.453 -2.42442 5.50913 0
M  V30 7675 H 721.279 -0.238363 3.02763 0
M  V30 7676 H 718.864 -0.0516331 1.49311 0
M  V30 7677 H 720.746 -2.68096 3.25119 0
M  V30 7678 H 719.421 -2.48779 2.07101 0
M  V30 7679 H 718.328 -0.796551 3.65521 0
M  V30 7680 H 719.661 -1.06724 4.8049 0
M  V30 7681 N 721.313 -1.57302 -0.09688 0
M  V30 7682 C 722.538 -1.9058 -0.818169 0
M  V30 7683 C 722.963 -0.770921 -1.71576 0
M  V30 7684 O 722.321 0.277588 -1.79162 0
M  V30 7685 C 722.369 -3.22714 -1.60898 0
M  V30 7686 O 721.473 -3.10178 -2.71779 0
M  V30 7687 H 720.814 -0.624759 -0.224882 0
M  V30 7688 H 723.344 -2.04471 -0.07264 0
M  V30 7689 H 723.354 -3.55978 -1.99358 0
M  V30 7690 H 722.029 -4.04899 -0.950227 0
M  V30 7691 H 720.606 -2.88424 -2.3636 0
M  V30 7692 N 722.791 0.367657 -1.53252 0
M  V30 7693 C 723.724 1.47264 -1.74323 0
M  V30 7694 C 724.702 1.51458 -0.591535 0
M  V30 7695 O 725.886 1.69542 -0.823883 0
M  V30 7696 C 723.013 2.85637 -1.82015 0
M  V30 7697 C 722.059 2.99176 -3.03967 0
M  V30 7698 S 722.892 2.68147 -4.63527 0
M  V30 7699 C 724.048 4.08673 -4.74065 0
M  V30 7700 H 724.281 1.29169 -2.67773 0
M  V30 7701 H 721.814 0.561866 -1.43814 0
M  V30 7702 H 723.772 3.65365 -1.87132 0
M  V30 7703 H 722.433 3.01043 -0.896195 0
M  V30 7704 H 721.626 4.00511 -3.05953 0
M  V30 7705 H 721.228 2.27367 -2.96952 0
M  V30 7706 H 723.52 5.02889 -4.53992 0
M  V30 7707 H 724.463 4.11693 -5.7612 0
M  V30 7708 H 724.871 3.95576 -4.02716 0
M  V30 7709 N 724.269 1.44576 0.627338 0
M  V30 7710 C 725.497 1.51048 1.41394 0
M  V30 7711 C 725.912 0.136568 1.88305 0
M  V30 7712 O 725.269 -0.858251 1.6106 0
M  V30 7713 C 725.32 2.47837 2.63172 0
M  V30 7714 O 725.041 3.79887 2.18215 0
M  V30 7715 C 726.542 2.63811 3.56257 0
M  V30 7716 H 723.762 0.512171 0.4335 0
M  V30 7717 H 726.306 1.89576 0.766878 0
M  V30 7718 H 724.461 2.12433 3.23961 0
M  V30 7719 H 724.875 4.32177 2.97192 0
M  V30 7720 H 726.349 3.35554 4.38301 0
M  V30 7721 H 726.826 1.69169 4.05313 0
M  V30 7722 H 727.432 3.0013 3.01333 0
M  V30 7723 N 725.747 -0.868086 1.31537 0
M  V30 7724 C 727.158 -1.437 1.19195 0
M  V30 7725 C 727.509 -1.95169 -0.200842 0
M  V30 7726 O 726.634 -1.86432 -1.09872 0
M  V30 7727 C 727.229 -2.612 2.15778 0
M  V30 7728 C 725.788 -3.1413 2.07363 0
M  V30 7729 C 724.935 -1.86845 2.049 0
M  V30 7730 H 727.886 -0.676457 1.43561 0
M  V30 7731 H 727.907 -3.37948 1.74847 0
M  V30 7732 H 727.419 -2.23709 3.17137 0
M  V30 7733 H 725.52 -3.56238 1.09204 0
M  V30 7734 H 725.633 -3.76285 2.96557 0
M  V30 7735 H 723.997 -2.05886 1.49943 0
M  V30 7736 H 724.78 -1.51589 3.08019 0
M  V30 7737 N 727.225 -1.14528 -1.08264 0
M  V30 7738 C 728.172 -0.833556 -2.15222 0
M  V30 7739 C 729.142 0.209539 -1.64773 0
M  V30 7740 O 730.327 0.0791388 -1.90636 0
M  V30 7741 C 727.467 -0.318799 -3.43624 0
M  V30 7742 C 726.58 -1.42237 -4.07913 0
M  V30 7743 C 725.715 -0.864704 -5.24115 0
M  V30 7744 C 724.754 -1.94585 -5.80347 0
M  V30 7745 N 723.891 -1.40525 -6.87893 0
M  V30 7746 H 728.731 -1.74965 -2.41228 0
M  V30 7747 H 726.268 -0.873169 -1.18381 0
M  V30 7748 H 728.226 -0.00213088 -4.172 0
M  V30 7749 H 726.856 0.560397 -3.17898 0
M  V30 7750 H 725.908 -1.8554 -3.32083 0
M  V30 7751 H 727.22 -2.23901 -4.45724 0
M  V30 7752 H 726.374 -0.500025 -6.04636 0
M  V30 7753 H 725.113 -0.0171219 -4.87697 0
M  V30 7754 H 724.118 -2.31946 -4.98479 0
M  V30 7755 H 725.343 -2.79704 -6.18823 0
M  V30 7756 H 723.289 -0.579873 -6.53432 0
M  V30 7757 H 723.206 -2.15825 -7.24538 0
M  V30 7758 H 724.474 -1.06852 -7.72142 0
M  V30 7759 N 728.703 1.26451 -0.940633 0
M  V30 7760 C 730.114 1.75726 -0.630653 0
M  V30 7761 C 730.465 1.76631 0.854167 0
M  V30 7762 O 729.59 1.37807 1.66848 0
M  V30 7763 C 730.185 3.19114 -1.13805 0
M  V30 7764 C 728.744 3.66005 -0.878497 0
M  V30 7765 C 727.891 2.45505 -1.28928 0
M  V30 7766 H 730.842 1.12535 -1.119 0
M  V30 7767 H 730.863 3.77311 -0.491625 0
M  V30 7768 H 730.375 3.18424 -2.21874 0
M  V30 7769 H 728.476 3.72126 0.187833 0
M  V30 7770 H 728.589 4.54844 -1.50512 0
M  V30 7771 H 726.953 2.4467 -0.707713 0
M  V30 7772 H 727.736 2.47516 -2.37888 0
M  V30 7773 N 730.181 0.707592 1.40822 0
M  V30 7774 C 731.427 0.244031 2.01326 0
M  V30 7775 C 731.76 -1.15722 1.55955 0
M  V30 7776 O 731.035 -1.78347 0.776044 0
M  V30 7777 C 731.318 0.315128 3.58718 0
M  V30 7778 C 731.171 1.75419 4.14184 0
M  V30 7779 C 732.49 -0.318251 4.38948 0
M  V30 7780 H 729.609 0.0901471 0.731466 0
M  V30 7781 H 732.251 0.898584 1.67408 0
M  V30 7782 H 730.401 -0.242176 3.87744 0
M  V30 7783 H 732.073 2.36626 3.95987 0
M  V30 7784 H 730.316 2.28449 3.68773 0
M  V30 7785 H 730.987 1.75538 5.23345 0
M  V30 7786 H 733.463 0.156514 4.15806 0
M  V30 7787 H 732.339 -0.238019 5.48384 0
M  V30 7788 H 732.6 -1.40067 4.19325 0
M  V30 7789 N 731.66 -1.50943 0.453197 0
M  V30 7790 C 732.59 -2.31005 -0.34044 0
M  V30 7791 C 733.571 -1.37112 -1.00669 0
M  V30 7792 O 734.756 -1.66033 -1.0073 0
M  V30 7793 C 731.886 -3.16358 -1.433 0
M  V30 7794 C 730.84 -4.18658 -0.889363 0
M  V30 7795 C 730.166 -4.92633 -2.07887 0
M  V30 7796 C 731.466 -5.22227 0.0871142 0
M  V30 7797 H 733.16 -2.97601 0.327723 0
M  V30 7798 H 730.706 -1.43119 0.159054 0
M  V30 7799 H 732.659 -3.71155 -1.99555 0
M  V30 7800 H 731.383 -2.47613 -2.12968 0
M  V30 7801 H 730.042 -3.64936 -0.348915 0
M  V30 7802 H 729.69 -4.20376 -2.76211 0
M  V30 7803 H 729.39 -5.61819 -1.72143 0
M  V30 7804 H 730.914 -5.50258 -2.64666 0
M  V30 7805 H 732.328 -5.72001 -0.385656 0
M  V30 7806 H 730.725 -5.99032 0.357926 0
M  V30 7807 H 731.795 -4.74077 1.01879 0
M  V30 7808 N 733.138 -0.185124 -1.56509 0
M  V30 7809 C 734.07 0.771401 -2.15829 0
M  V30 7810 C 735.083 1.18392 -1.11747 0
M  V30 7811 O 736.272 1.12137 -1.38879 0
M  V30 7812 C 733.372 2.05169 -2.69739 0
M  V30 7813 C 732.545 1.80056 -3.98621 0
M  V30 7814 C 731.604 2.92435 -4.37456 0
M  V30 7815 O 730.63 2.62473 -5.05071 0
M  V30 7816 N 731.832 4.20554 -4.00143 0
M  V30 7817 H 734.597 0.264184 -2.98533 0
M  V30 7818 H 732.158 -0.00281069 -1.619 0
M  V30 7819 H 734.15 2.7947 -2.92709 0
M  V30 7820 H 732.72 2.47041 -1.91545 0
M  V30 7821 H 731.94 0.895862 -3.83885 0
M  V30 7822 H 733.228 1.60662 -4.82768 0
M  V30 7823 H 732.626 4.47753 -3.45736 0
M  V30 7824 H 731.183 4.91514 -4.28085 0
M  V30 7825 N 734.616 1.57351 0.0885366 0
M  V30 7826 C 735.526 2.05858 1.12516 0
M  V30 7827 C 736.542 0.984758 1.43452 0
M  V30 7828 O 737.718 1.29836 1.53963 0
M  V30 7829 C 734.783 2.47882 2.42395 0
M  V30 7830 C 733.844 3.69487 2.18582 0
M  V30 7831 C 733.077 4.09497 3.42268 0
M  V30 7832 O 733.3 3.49536 4.50755 0
M  V30 7833 O 732.234 5.02406 3.31469 0
M  V30 7834 H 736.06 2.94467 0.743146 0
M  V30 7835 H 733.645 1.46326 0.301507 0
M  V30 7836 H 735.527 2.75509 3.18862 0
M  V30 7837 H 734.202 1.62408 2.8001 0
M  V30 7838 H 733.109 3.46967 1.39875 0
M  V30 7839 H 734.442 4.55761 1.85857 0
M  V30 7840 N 736.094 -0.359525 1.53444 0
M  V30 7841 C 737.004 -1.46445 1.83278 0
M  V30 7842 C 738.02 -1.5833 0.721629 0
M  V30 7843 O 739.196 -1.7411 1.01231 0
M  V30 7844 C 736.261 -2.81638 2.02191 0
M  V30 7845 C 735.322 -2.7923 3.26082 0
M  V30 7846 C 734.555 -4.07974 3.44082 0
M  V30 7847 O 734.778 -5.04447 2.66251 0
M  V30 7848 O 733.712 -4.13417 4.37458 0
M  V30 7849 H 737.538 -1.24156 2.77162 0
M  V30 7850 H 735.123 -0.550201 1.389 0
M  V30 7851 H 737.005 -3.61732 2.16167 0
M  V30 7852 H 735.68 -3.03892 1.11496 0
M  V30 7853 H 734.587 -1.97813 3.17523 0
M  V30 7854 H 735.92 -2.6193 4.16718 0
M  V30 7855 N 737.572 -1.44907 -0.619662 0
M  V30 7856 C 738.52 -1.52971 -1.75222 0
M  V30 7857 C 739.514 -0.400531 -1.64597 0
M  V30 7858 O 740.72 -0.575952 -1.70537 0
M  V30 7859 H 737.095 -0.480241 -0.578682 0
M  V30 7860 H 739.066 -2.48269 -1.65545 0
M  V30 7861 C 737.815 -1.50204 -3.13583 0
M  V30 7862 H 737.138 -2.36412 -3.22412 0
M  V30 7863 H 738.578 -1.59905 -3.92691 0
M  V30 7864 C 737.037 -0.22455 -3.36151 0
M  V30 7865 O 737.567 0.700574 -3.95544 0
M  V30 7866 N 735.773 -0.124052 -2.90335 0
M  V30 7867 H 735.32 -0.87774 -2.42185 0
M  V30 7868 H 735.278 0.729914 -3.0581 0
M  V30 7869 N 739.05 0.861098 -1.31996 0
M  V30 7870 C 739.998 1.99052 -1.20337 0
M  V30 7871 C 740.992 1.69045 -0.109623 0
M  V30 7872 O 742.198 1.77931 -0.272117 0
M  V30 7873 H 738.573 0.653064 -0.372843 0
M  V30 7874 H 740.544 2.06015 -2.15872 0
M  V30 7875 C 739.293 3.34846 -0.936663 0
M  V30 7876 H 738.616 3.58462 -1.77045 0
M  V30 7877 H 740.056 4.1444 -0.895302 0
M  V30 7878 C 738.515 3.34965 0.360607 0
M  V30 7879 O 739.045 3.7745 1.37456 0
M  V30 7880 N 737.251 2.88101 0.380296 0
M  V30 7881 H 736.798 2.53721 -0.445351 0
M  V30 7882 H 736.756 2.88563 1.24816 0
M  V30 7883 N 740.528 1.15101 1.07655 0
M  V30 7884 C 741.46 0.802722 2.14684 0
M  V30 7885 C 742.473 -0.183874 1.61758 0
M  V30 7886 O 743.662 0.0389349 1.78458 0
M  V30 7887 C 740.762 0.172135 3.38463 0
M  V30 7888 C 739.935 1.19538 4.20749 0
M  V30 7889 C 738.994 0.58714 5.22914 0
M  V30 7890 O 738.02 1.25224 5.55255 0
M  V30 7891 N 739.222 -0.632566 5.77043 0
M  V30 7892 H 741.987 1.72379 2.45164 0
M  V30 7893 H 739.548 1.04647 1.23534 0
M  V30 7894 H 741.54 -0.247465 4.03943 0
M  V30 7895 H 740.11 -0.652214 3.0572 0
M  V30 7896 H 739.33 1.79165 3.51132 0
M  V30 7897 H 740.618 1.88636 4.7254 0
M  V30 7898 H 740.016 -1.19135 5.53013 0
M  V30 7899 H 738.573 -0.994566 6.44167 0
M  V30 7900 N 742.006 -1.2595 0.947325 0
M  V30 7901 C 742.916 -2.29883 0.468079 0
M  V30 7902 C 743.932 -1.67783 -0.460975 0
M  V30 7903 O 745.108 -1.98526 -0.339006 0
M  V30 7904 C 742.173 -3.45773 -0.253315 0
M  V30 7905 C 741.234 -4.23337 0.713054 0
M  V30 7906 C 740.467 -5.33694 0.025993 0
M  V30 7907 O 740.69 -5.57853 -1.18978 0
M  V30 7908 O 739.624 -5.97724 0.70782 0
M  V30 7909 H 743.45 -2.72952 1.33156 0
M  V30 7910 H 741.035 -1.31263 0.713468 0
M  V30 7911 H 742.917 -4.16209 -0.659423 0
M  V30 7912 H 741.592 -3.04721 -1.09209 0
M  V30 7913 H 740.499 -3.55359 1.16923 0
M  V30 7914 H 741.832 -4.68154 1.51963 0
M  V30 7915 N 743.484 -0.715051 -1.40445 0
M  V30 7916 C 744.709 -0.26254 -2.05732 0
M  V30 7917 C 745.134 1.08691 -1.53519 0
M  V30 7918 O 744.492 1.68453 -0.670328 0
M  V30 7919 C 744.54 -0.25195 -3.59719 0
M  V30 7920 O 743.644 0.766998 -4.05205 0
M  V30 7921 H 742.985 -0.123398 -0.652433 0
M  V30 7922 H 745.515 -0.975382 -1.79854 0
M  V30 7923 H 745.525 -0.0894537 -4.07902 0
M  V30 7924 H 744.2 -1.23672 -3.97087 0
M  V30 7925 H 742.777 0.572269 -3.68483 0
M  V30 7926 N 744.962 1.50701 -0.461195 0
M  V30 7927 C 746.209 2.02267 0.0971971 0
M  V30 7928 C 746.537 1.34387 1.40608 0
M  V30 7929 O 745.792 0.455254 1.90331 0
M  V30 7930 C 746.091 3.55788 0.33908 0
M  V30 7931 C 745.757 4.42092 -0.886885 0
M  V30 7932 C 744.419 4.65398 -1.22304 0
M  V30 7933 C 746.771 4.92571 -1.70361 0
M  V30 7934 C 744.099 5.36429 -2.37616 0
M  V30 7935 C 746.451 5.64868 -2.84793 0
M  V30 7936 C 745.115 5.86431 -3.18834 0
M  V30 7937 H 744.385 0.740146 0.0355669 0
M  V30 7938 H 747.032 1.81415 -0.61326 0
M  V30 7939 H 745.337 3.751 1.13168 0
M  V30 7940 H 747.034 3.93243 0.784937 0
M  V30 7941 H 743.624 4.24165 -0.614981 0
M  V30 7942 H 747.808 4.74428 -1.4571 0
M  V30 7943 H 743.064 5.51333 -2.64276 0
M  V30 7944 H 747.238 6.02966 -3.48432 0
M  V30 7945 H 744.865 6.41248 -4.08296 0
M  V30 7946 N 746.441 0.193421 1.56409 0
M  V30 7947 C 747.69 -0.445995 1.96707 0
M  V30 7948 C 748.003 -1.62876 1.08309 0
M  V30 7949 O 749.209 -2.33586 1.38383 0
M  V30 7950 C 747.665 -0.844863 3.49843 0
M  V30 7951 C 747.273 0.31352 4.46902 0
M  V30 7952 C 749.017 -1.45146 3.98915 0
M  V30 7953 C 746.924 -0.106214 5.91305 0
M  V30 7954 H 745.854 -0.170398 0.734493 0
M  V30 7955 H 748.505 0.285172 1.81271 0
M  V30 7956 H 746.887 -1.63265 3.60778 0
M  V30 7957 H 748.061 1.09103 4.47698 0
M  V30 7958 H 746.376 0.8315 4.08014 0
M  V30 7959 H 748.973 -1.77792 5.04276 0
M  V30 7960 H 749.316 -2.35734 3.43126 0
M  V30 7961 H 749.849 -0.727675 3.91088 0
M  V30 7962 H 746.588 0.765442 6.51016 0
M  V30 7963 H 746.108 -0.848623 5.93766 0
M  V30 7964 H 747.787 -0.542588 6.44721 0
M  V30 7965 N 747.919 -1.57396 -0.0801906 0
M  V30 7966 C 748.882 -2.02133 -1.0805 0
M  V30 7967 C 749.882 -0.91707 -1.32085 0
M  V30 7968 O 751.072 -1.18217 -1.27947 0
M  V30 7969 C 748.204 -2.39479 -2.42616 0
M  V30 7970 H 749.397 -2.91733 -0.6951 0
M  V30 7971 H 746.95 -1.52869 -0.325677 0
M  V30 7972 H 747.685 -1.52879 -2.86004 0
M  V30 7973 H 747.47 -3.20052 -2.26515 0
M  V30 7974 H 748.96 -2.74697 -3.14534 0
M  V30 7975 N 749.397 0.351382 -1.53633 0
M  V30 7976 C 750.644 1.0925 -1.70502 0
M  V30 7977 C 750.972 1.88881 -0.464123 0
M  V30 7978 O 750.227 1.87693 0.554077 0
M  V30 7979 C 750.526 2.06744 -2.91533 0
M  V30 7980 C 750.192 1.43484 -4.27461 0
M  V30 7981 C 748.854 1.2596 -4.64422 0
M  V30 7982 C 751.206 0.978436 -5.11934 0
M  V30 7983 C 748.534 0.614017 -5.83478 0
M  V30 7984 C 750.886 0.346795 -6.31649 0
M  V30 7985 C 749.55 0.15917 -6.6731 0
M  V30 7986 H 748.82 0.399773 -0.623909 0
M  V30 7987 H 751.467 0.372656 -1.87839 0
M  V30 7988 H 749.772 2.85082 -2.68767 0
M  V30 7989 H 751.469 2.64066 -3.01778 0
M  V30 7990 H 748.059 1.5812 -3.98367 0
M  V30 7991 H 752.243 1.1017 -4.83918 0
M  V30 7992 H 747.499 0.457194 -6.09688 0
M  V30 7993 H 751.673 -0.0149864 -6.96398 0
M  V30 7994 H 749.3 -0.343129 -7.59425 0
M  V30 7995 N 750.875 1.45233 0.611969 0
M  V30 7996 C 751.838 1.53189 1.70487 0
M  V30 7997 C 752.838 0.411839 1.55437 0
M  V30 7998 O 754.028 0.675164 1.60584 0
M  V30 7999 C 751.16 1.42422 3.09723 0
M  V30 8000 H 752.353 2.5056 1.64802 0
M  V30 8001 H 749.906 1.32609 0.827318 0
M  V30 8002 H 750.641 0.462185 3.2099 0
M  V30 8003 H 750.426 2.23658 3.22055 0
M  V30 8004 H 751.916 1.51012 3.89339 0
M  V30 8005 N 752.353 -0.854086 1.3245 0
M  V30 8006 C 753.769 -1.14238 1.11453 0
M  V30 8007 C 753.969 -2.01228 -0.10461 0
M  V30 8008 O 753.025 -2.39845 -0.789339 0
M  V30 8009 C 754.338 -1.81916 2.39431 0
M  V30 8010 C 755.886 -1.94549 2.45193 0
M  V30 8011 C 756.361 -2.65642 3.73093 0
M  V30 8012 N 757.852 -2.73167 3.74078 0
M  V30 8013 C 758.587 -3.28828 4.69744 0
M  V30 8014 N 758.083 -3.85295 5.75778 0
M  V30 8015 N 759.876 -3.26936 4.57241 0
M  V30 8016 H 752.027 -0.274786 2.10615 0
M  V30 8017 H 754.29 -0.184375 0.929898 0
M  V30 8018 H 753.996 -1.25452 3.28565 0
M  V30 8019 H 753.87 -2.82068 2.50434 0
M  V30 8020 H 756.257 -2.50172 1.56518 0
M  V30 8021 H 756.338 -0.933914 2.38142 0
M  V30 8022 H 755.982 -2.10683 4.62142 0
M  V30 8023 H 755.912 -3.6724 3.77415 0
M  V30 8024 H 758.403 -2.33108 2.97438 0
M  V30 8025 H 758.716 -4.25925 6.44832 0
M  V30 8026 H 757.061 -3.83625 5.79531 0
M  V30 8027 H 760.252 -2.8207 3.7357 0
M  V30 8028 H 760.425 -3.70014 5.31971 0
M  V30 8029 N 753.831 -1.1567 -1.07043 0
M  V30 8030 C 755.077 -0.9349 -1.79965 0
M  V30 8031 C 755.41 0.536464 -1.86643 0
M  V30 8032 O 754.685 1.39781 -1.35247 0
M  V30 8033 C 754.968 -1.55371 -3.24857 0
M  V30 8034 C 754.821 -3.09589 -3.26305 0
M  V30 8035 C 756.14 -1.24209 -4.22209 0
M  V30 8036 H 753.259 -0.341061 -0.653335 0
M  V30 8037 H 755.901 -1.42883 -1.25237 0
M  V30 8038 H 754.051 -1.13368 -3.71591 0
M  V30 8039 H 755.723 -3.60521 -2.87789 0
M  V30 8040 H 753.966 -3.43315 -2.65174 0
M  V30 8041 H 754.637 -3.48002 -4.28484 0
M  V30 8042 H 757.113 -1.60548 -3.8388 0
M  V30 8043 H 755.989 -1.70119 -5.21872 0
M  V30 8044 H 756.25 -0.15964 -4.41812 0
M  V30 8045 N 755.309 1.25446 -0.953992 0
M  V30 8046 C 756.556 1.93143 -0.608429 0
M  V30 8047 C 756.884 1.74727 0.854451 0
M  V30 8048 O 756.139 1.0855 1.62836 0
M  V30 8049 C 756.438 3.45555 -0.912496 0
M  V30 8050 C 756.104 3.84126 -2.36131 0
M  V30 8051 C 754.766 3.94367 -2.75732 0
M  V30 8052 C 757.118 4.0324 -3.30223 0
M  V30 8053 C 754.446 4.21127 -4.08496 0
M  V30 8054 C 756.798 4.31493 -4.62598 0
M  V30 8055 C 755.462 4.3995 -5.01996 0
M  V30 8056 H 754.732 0.706762 -0.22264 0
M  V30 8057 H 757.379 1.49005 -1.20291 0
M  V30 8058 H 755.684 3.91091 -0.235618 0
M  V30 8059 H 757.381 3.9612 -0.623714 0
M  V30 8060 H 753.971 3.76711 -2.04418 0
M  V30 8061 H 758.155 3.94744 -3.00817 0
M  V30 8062 H 753.411 4.2589 -4.38665 0
M  V30 8063 H 757.585 4.45227 -5.35486 0
M  V30 8064 H 755.212 4.60439 -6.04896 0
M  V30 8065 N 756.787 0.722489 1.40064 0
M  V30 8066 C 758.012 0.273446 2.05589 0
M  V30 8067 C 758.437 -1.07875 1.54093 0
M  V30 8068 O 757.795 -1.68095 0.679252 0
M  V30 8069 C 757.843 0.271023 3.5958 0
M  V30 8070 O 756.947 -0.745499 4.05606 0
M  V30 8071 H 756.288 0.126856 0.65177 0
M  V30 8072 H 758.818 0.984906 1.79334 0
M  V30 8073 H 758.828 0.111084 4.07849 0
M  V30 8074 H 757.503 1.25776 3.96425 0
M  V30 8075 H 756.08 -0.552719 3.68781 0
M  V30 8076 N 758.265 -1.50454 0.469181 0
M  V30 8077 C 759.513 -2.01916 -0.0862982 0
M  V30 8078 C 759.834 -1.35337 -1.40388 0
M  V30 8079 O 759.104 -0.498096 -1.89462 0
M  V30 8080 H 757.684 -0.746185 -0.0348825 0
M  V30 8081 H 760.346 -1.84804 0.619167 0
M  V30 8082 H 759.442 -3.11182 -0.239189 0
M  V30 8083 N 759.743 -0.201713 -1.56304 0
M  V30 8084 C 760.989 0.435952 -1.98059 0
M  V30 8085 C 761.322 1.60811 -1.08873 0
M  V30 8086 O 760.597 1.9398 -0.142128 0
M  V30 8087 C 760.88 0.889706 -3.48936 0
M  V30 8088 C 760.733 -0.284725 -4.48898 0
M  V30 8089 C 762.052 1.7529 -4.03685 0
M  V30 8090 H 759.171 0.15699 -0.720085 0
M  V30 8091 H 761.813 -0.293965 -1.87712 0
M  V30 8092 H 759.963 1.51166 -3.57884 0
M  V30 8093 H 761.635 -0.922531 -4.51981 0
M  V30 8094 H 759.878 -0.935427 -4.23594 0
M  V30 8095 H 760.549 0.0753865 -5.51949 0
M  V30 8096 H 763.025 1.2283 -3.97558 0
M  V30 8097 H 761.901 2.03933 -5.0961 0
M  V30 8098 H 762.162 2.70939 -3.49348 0
M  V30 8099 N 761.222 1.57436 0.0718424 0
M  V30 8100 C 762.185 2.02703 1.06977 0
M  V30 8101 C 763.185 0.924062 1.31597 0
M  V30 8102 O 764.375 1.18894 1.27318 0
M  V30 8103 C 761.507 2.40763 2.41342 0
M  V30 8104 H 762.7 2.92098 0.679619 0
M  V30 8105 H 760.253 1.5304 0.317565 0
M  V30 8106 H 760.988 1.54394 2.8519 0
M  V30 8107 H 760.773 3.21249 2.24814 0
M  V30 8108 H 762.263 2.76361 3.13073 0
M  V30 8109 N 762.7 -0.34323 1.53817 0
M  V30 8110 C 764.116 -0.686355 1.44088 0
M  V30 8111 C 764.316 -1.92426 0.597882 0
M  V30 8112 O 763.372 -2.52343 0.0889918 0
M  V30 8113 C 764.685 -0.878698 2.87575 0
M  V30 8114 C 766.233 -0.977296 2.97352 0
M  V30 8115 C 766.708 -1.20195 4.41947 0
M  V30 8116 N 768.199 -1.26915 4.45474 0
M  V30 8117 C 768.934 -1.46049 5.54488 0
M  V30 8118 N 768.43 -1.62354 6.73508 0
M  V30 8119 N 770.223 -1.48599 5.42102 0
M  V30 8120 H 762.374 0.470679 2.07119 0
M  V30 8121 H 764.637 0.148652 0.936273 0
M  V30 8122 H 764.343 -0.040602 3.51677 0
M  V30 8123 H 764.217 -1.78034 3.32541 0
M  V30 8124 H 766.604 -1.80591 2.3339 0
M  V30 8125 H 766.685 -0.0525498 2.55746 0
M  V30 8126 H 766.329 -0.378262 5.06489 0
M  V30 8127 H 766.259 -2.14027 4.81145 0
M  V30 8128 H 768.75 -1.15837 3.59708 0
M  V30 8129 H 769.063 -1.76591 7.52353 0
M  V30 8130 H 767.408 -1.5949 6.76453 0
M  V30 8131 H 770.599 -1.35443 4.48077 0
M  V30 8132 H 770.772 -1.6317 6.2712 0
M  V30 8133 N 764.178 -1.45556 -0.604258 0
M  V30 8134 C 765.594 -1.30035 -0.925368 0
M  V30 8135 C 765.794 -0.255833 -1.99869 0
M  V30 8136 O 764.85 0.349076 -2.50075 0
M  V30 8137 C 766.163 -2.68028 -1.36314 0
M  V30 8138 C 767.711 -2.75951 -1.47717 0
M  V30 8139 C 768.186 -4.14476 -1.94868 0
M  V30 8140 N 769.677 -4.16787 -2.02097 0
M  V30 8141 C 770.412 -5.20845 -2.39809 0
M  V30 8142 N 769.908 -6.35246 -2.76467 0
M  V30 8143 N 771.701 -5.08204 -2.40177 0
M  V30 8144 H 763.852 -2.1214 0.10512 0
M  V30 8145 H 766.115 -0.947871 -0.0156303 0
M  V30 8146 H 765.821 -3.45667 -0.648628 0
M  V30 8147 H 765.695 -2.96711 -2.329 0
M  V30 8148 H 768.082 -1.98613 -2.18258 0
M  V30 8149 H 768.163 -2.50977 -0.494371 0
M  V30 8150 H 767.807 -4.923 -1.24912 0
M  V30 8151 H 767.737 -4.36843 -2.94068 0
M  V30 8152 H 770.228 -3.34233 -1.76343 0
M  V30 8153 H 770.541 -7.10438 -3.04134 0
M  V30 8154 H 768.886 -6.38642 -2.74155 0
M  V30 8155 H 772.077 -4.17874 -2.10947 0
M  V30 8156 H 772.25 -5.89417 -2.69242 0
M  V30 8157 N 765.656 0.84705 -1.32902 0
M  V30 8158 C 766.904 1.5986 -1.2365 0
M  V30 8159 C 767.225 1.93974 0.199789 0
M  V30 8160 O 766.495 1.60273 1.12648 0
M  V30 8161 H 765.075 0.592696 -0.454665 0
M  V30 8162 H 767.737 1.01278 -1.66519 0
M  V30 8163 H 766.833 2.53218 -1.82448 0
M  V30 8164 N 767.134 1.16236 1.06428 0
M  V30 8165 C 768.081 0.86769 2.13869 0
M  V30 8166 C 769.051 -0.183298 1.65086 0
M  V30 8167 O 770.236 -0.0488002 1.90738 0
M  V30 8168 C 767.376 0.373427 3.43074 0
M  V30 8169 C 766.489 1.48708 4.05598 0
M  V30 8170 C 765.624 0.947977 5.22673 0
M  V30 8171 C 764.663 2.03793 5.77178 0
M  V30 8172 N 763.8 1.51451 6.85571 0
M  V30 8173 H 768.64 1.78781 2.38414 0
M  V30 8174 H 766.177 0.891892 1.16977 0
M  V30 8175 H 768.135 0.0685035 4.17144 0
M  V30 8176 H 766.765 -0.509752 3.1875 0
M  V30 8177 H 765.817 1.908 3.29089 0
M  V30 8178 H 767.129 2.30964 4.42105 0
M  V30 8179 H 766.283 0.596154 6.03764 0
M  V30 8180 H 765.022 0.0947081 4.87608 0
M  V30 8181 H 764.027 2.39847 4.94726 0
M  V30 8182 H 765.252 2.89514 6.14295 0
M  V30 8183 H 763.198 0.683755 6.52427 0
M  V30 8184 H 763.115 2.27325 7.21013 0
M  V30 8185 H 764.383 1.19123 7.70344 0
M  V30 8186 N 768.612 -1.24939 0.960631 0
M  V30 8187 C 769.559 -2.25658 0.484459 0
M  V30 8188 C 770.529 -1.59422 -0.466242 0
M  V30 8189 O 771.714 -1.87015 -0.378169 0
M  V30 8190 C 768.854 -3.44359 -0.225958 0
M  V30 8191 C 767.967 -4.25214 0.762682 0
M  V30 8192 C 767.102 -5.31192 0.0290931 0
M  V30 8193 C 766.141 -6.03739 1.00827 0
M  V30 8194 N 765.278 -7.01437 0.305155 0
M  V30 8195 H 770.118 -2.65758 1.34821 0
M  V30 8196 H 767.655 -1.30648 0.675983 0
M  V30 8197 H 769.613 -4.12035 -0.654472 0
M  V30 8198 H 768.243 -3.05118 -1.05371 0
M  V30 8199 H 767.295 -3.57144 1.30966 0
M  V30 8200 H 768.607 -4.75406 1.50964 0
M  V30 8201 H 767.761 -6.04971 -0.457763 0
M  V30 8202 H 766.5 -4.81889 -0.750614 0
M  V30 8203 H 765.505 -5.2877 1.50607 0
M  V30 8204 H 766.73 -6.55131 1.7883 0
M  V30 8205 H 764.676 -6.54415 -0.455704 0
M  V30 8206 H 764.593 -7.49475 0.991104 0
M  V30 8207 H 765.861 -7.79336 -0.159966 0
M  V30 8208 N 770.09 -0.729906 -1.39679 0
M  V30 8209 C 771.339 -0.272534 -1.9985 0
M  V30 8210 C 771.652 1.14519 -1.58571 0
M  V30 8211 O 772.858 1.70182 -2.11543 0
M  V30 8212 C 771.314 -0.436322 -3.57245 0
M  V30 8213 C 770.922 -1.86161 -4.0749 0
M  V30 8214 C 772.666 -0.0404679 -4.24481 0
M  V30 8215 C 770.573 -1.97522 -5.5744 0
M  V30 8216 H 769.503 -0.0981428 -0.747585 0
M  V30 8217 H 772.154 -0.903056 -1.59741 0
M  V30 8218 H 770.536 0.263015 -3.95126 0
M  V30 8219 H 771.71 -2.59248 -3.80955 0
M  V30 8220 H 770.025 -2.21021 -3.529 0
M  V30 8221 H 772.622 -0.104437 -5.34598 0
M  V30 8222 H 772.965 1.00357 -4.04023 0
M  V30 8223 H 773.498 -0.690774 -3.91757 0
M  V30 8224 H 770.237 -3.00096 -5.82771 0
M  V30 8225 H 769.757 -1.28864 -5.85794 0
M  V30 8226 H 771.436 -1.754 -6.22771 0
M  V30 8227 N 771.568 1.50203 -0.477153 0
M  V30 8228 C 772.815 2.02358 0.0757385 0
M  V30 8229 C 773.143 1.3587 1.39174 0
M  V30 8230 O 772.398 0.475415 1.89838 0
M  V30 8231 C 772.697 3.56127 0.301325 0
M  V30 8232 C 772.363 4.41126 -0.933725 0
M  V30 8233 C 771.025 4.64075 -1.27233 0
M  V30 8234 C 773.377 4.90737 -1.75576 0
M  V30 8235 C 770.705 5.33878 -2.43292 0
M  V30 8236 C 773.057 5.61816 -2.90768 0
M  V30 8237 C 771.721 5.83016 -3.25036 0
M  V30 8238 H 770.991 0.740482 0.0277147 0
M  V30 8239 H 773.638 1.80754 -0.632467 0
M  V30 8240 H 771.943 3.76279 1.09183 0
M  V30 8241 H 773.64 3.94053 0.743184 0
M  V30 8242 H 770.23 4.23489 -0.659935 0
M  V30 8243 H 774.414 4.72856 -1.50734 0
M  V30 8244 H 769.67 5.48499 -2.70109 0
M  V30 8245 H 773.844 5.99237 -3.54807 0
M  V30 8246 H 771.471 6.36881 -4.15074 0
M  V30 8247 N 773.046 0.209999 1.56195 0
M  V30 8248 C 774.292 -0.425442 1.98287 0
M  V30 8249 C 774.625 -1.60232 1.09724 0
M  V30 8250 O 773.9 -1.93902 0.152414 0
M  V30 8251 C 774.183 -0.871189 3.49403 0
M  V30 8252 C 774.036 0.308527 4.48741 0
M  V30 8253 C 775.355 -1.73146 4.04609 0
M  V30 8254 H 772.474 -0.153169 0.720908 0
M  V30 8255 H 775.116 0.303916 1.87554 0
M  V30 8256 H 773.266 -1.49266 3.58681 0
M  V30 8257 H 774.938 0.946487 4.51486 0
M  V30 8258 H 773.181 0.957878 4.23092 0
M  V30 8259 H 773.852 -0.0461143 5.51981 0
M  V30 8260 H 776.328 -1.2072 3.98203 0
M  V30 8261 H 775.204 -2.01228 5.10684 0
M  V30 8262 H 775.465 -2.69083 3.5078 0
M  V30 8263 N 774.524 -1.57472 -0.0634922 0
M  V30 8264 C 775.454 -2.07297 -1.07473 0
M  V30 8265 C 776.435 -0.968162 -1.39859 0
M  V30 8266 O 777.62 -1.24139 -1.49343 0
M  V30 8267 C 774.75 -2.52381 -2.38581 0
M  V30 8268 C 773.704 -3.66813 -2.20526 0
M  V30 8269 C 773.03 -3.97982 -3.57092 0
M  V30 8270 C 774.33 -4.96553 -1.61965 0
M  V30 8271 H 776.024 -2.92033 -0.660092 0
M  V30 8272 H 773.57 -1.40488 -0.316074 0
M  V30 8273 H 775.523 -2.85852 -3.09624 0
M  V30 8274 H 774.247 -1.64684 -2.8204 0
M  V30 8275 H 772.906 -3.33639 -1.51924 0
M  V30 8276 H 772.554 -3.07403 -3.98136 0
M  V30 8277 H 772.254 -4.7504 -3.45848 0
M  V30 8278 H 773.778 -4.33956 -4.29552 0
M  V30 8279 H 775.192 -5.28201 -2.22883 0
M  V30 8280 H 773.589 -5.7799 -1.61394 0
M  V30 8281 H 774.659 -4.81396 -0.581918 0
M  V30 8282 N 776.003 0.335068 -1.53997 0
M  V30 8283 C 777.251 1.07223 -1.71312 0
M  V30 8284 C 777.572 1.88911 -0.483486 0
M  V30 8285 O 776.842 1.89344 0.50257 0
M  V30 8286 H 775.422 0.398846 -0.63161 0
M  V30 8287 H 778.084 0.374288 -1.91272 0
M  V30 8288 H 777.18 1.7448 -2.58772 0
M  V30 8289 N 777.481 1.45874 0.596531 0
M  V30 8290 C 778.892 1.44798 1.17857 0
M  V30 8291 C 779.243 0.181443 1.95359 0
M  V30 8292 O 778.368 -0.716336 2.042 0
M  V30 8293 C 778.963 2.62333 2.14398 0
M  V30 8294 C 777.522 2.64342 2.67955 0
M  V30 8295 C 776.669 2.37244 1.43564 0
M  V30 8296 H 779.62 1.53954 0.385222 0
M  V30 8297 H 779.641 2.37063 2.97626 0
M  V30 8298 H 779.153 3.54499 1.57963 0
M  V30 8299 H 777.254 1.76213 3.28298 0
M  V30 8300 H 777.367 3.63897 3.11634 0
M  V30 8301 H 775.731 1.87022 1.72901 0
M  V30 8302 H 776.514 3.31568 0.889805 0
M  V30 8303 N 778.959 -0.83999 1.33349 0
M  V30 8304 C 779.906 -1.94972 1.23509 0
M  V30 8305 C 780.876 -1.65709 0.113967 0
M  V30 8306 O 782.061 -1.88552 0.292045 0
M  V30 8307 C 779.201 -3.30919 0.979105 0
M  V30 8308 C 778.314 -3.72587 2.18639 0
M  V30 8309 C 777.449 -4.97397 1.86465 0
M  V30 8310 C 776.488 -5.31597 3.03432 0
M  V30 8311 N 775.625 -6.47584 2.71254 0
M  V30 8312 H 780.465 -2.0272 2.18423 0
M  V30 8313 H 778.002 -0.992017 1.08616 0
M  V30 8314 H 779.96 -4.09239 0.811126 0
M  V30 8315 H 778.59 -3.22731 0.0667099 0
M  V30 8316 H 777.642 -2.89799 2.46416 0
M  V30 8317 H 778.954 -3.93844 3.06086 0
M  V30 8318 H 778.108 -5.83462 1.66305 0
M  V30 8319 H 776.847 -4.78107 0.96254 0
M  V30 8320 H 775.852 -4.44037 3.24208 0
M  V30 8321 H 777.077 -5.52836 3.94397 0
M  V30 8322 H 775.023 -6.29783 1.836 0
M  V30 8323 H 774.94 -6.68931 3.52231 0
M  V30 8324 H 776.208 -7.36764 2.54558 0
M  V30 8325 N 780.437 -1.16799 -1.0581 0
M  V30 8326 C 781.667 -0.975454 -1.82122 0
M  V30 8327 C 782.075 0.479584 -1.83021 0
M  V30 8328 O 781.418 1.34471 -1.25153 0
M  V30 8329 C 781.48 -1.43209 -3.29744 0
M  V30 8330 C 781.144 -2.908 -3.5254 0
M  V30 8331 C 782.141 -3.88775 -3.45181 0
M  V30 8332 C 779.826 -3.28832 -3.79703 0
M  V30 8333 C 781.82 -5.22782 -3.64661 0
M  V30 8334 C 779.507 -4.63007 -3.98832 0
M  V30 8335 C 780.505 -5.59791 -3.91309 0
M  V30 8336 O 780.193 -6.9154 -4.09911 0
M  V30 8337 H 779.925 -0.345655 -0.580947 0
M  V30 8338 H 782.479 -1.55355 -1.34365 0
M  V30 8339 H 780.709 -0.797504 -3.78387 0
M  V30 8340 H 782.398 -1.2062 -3.87564 0
M  V30 8341 H 783.164 -3.60738 -3.2418 0
M  V30 8342 H 779.043 -2.54073 -3.84666 0
M  V30 8343 H 782.587 -5.98312 -3.58705 0
M  V30 8344 H 778.484 -4.90752 -4.19324 0
M  V30 8345 H 779.252 -6.98188 -4.27172 0
M  V30 8346 N 781.915 1.24427 -0.967243 0
M  V30 8347 C 783.14 1.9708 -0.646069 0
M  V30 8348 C 783.565 1.71272 0.777665 0
M  V30 8349 O 782.923 0.976179 1.52776 0
M  V30 8350 C 782.971 3.48501 -0.926266 0
M  V30 8351 O 782.075 4.12398 -0.0114653 0
M  V30 8352 H 781.416 0.617423 -0.244304 0
M  V30 8353 H 783.946 1.58215 -1.29727 0
M  V30 8354 H 783.956 3.98885 -0.857619 0
M  V30 8355 H 782.631 3.66613 -1.96386 0
M  V30 8356 H 781.208 3.72661 -0.133396 0
M  V30 8357 N 783.393 0.737304 1.3929 0
M  V30 8358 C 784.804 0.355966 1.83275 0
M  V30 8359 C 785.155 -1.11295 1.6158 0
M  V30 8360 O 784.28 -1.85871 1.10819 0
M  V30 8361 C 784.875 0.63931 3.32713 0
M  V30 8362 C 783.434 0.31144 3.75109 0
M  V30 8363 C 782.581 0.900765 2.62262 0
M  V30 8364 H 785.532 0.934763 1.28249 0
M  V30 8365 H 785.553 -0.0881293 3.80398 0
M  V30 8366 H 785.065 1.70847 3.48472 0
M  V30 8367 H 783.166 -0.751791 3.64937 0
M  V30 8368 H 783.279 0.795611 4.72448 0
M  V30 8369 H 781.643 0.327239 2.52589 0
M  V30 8370 H 782.426 1.97463 2.80826 0
M  V30 8371 N 784.871 -1.49948 0.485112 0
M  V30 8372 C 785.801 -2.31675 -0.291364 0
M  V30 8373 C 786.782 -1.39216 -0.977383 0
M  V30 8374 O 787.967 -1.68133 -0.971855 0
M  V30 8375 C 785.097 -3.19326 -1.36558 0
M  V30 8376 C 784.051 -4.2045 -0.800359 0
M  V30 8377 C 783.377 -4.96931 -1.97391 0
M  V30 8378 C 784.677 -5.21925 0.197867 0
M  V30 8379 H 786.371 -2.96839 0.390775 0
M  V30 8380 H 783.917 -1.42749 0.189375 0
M  V30 8381 H 785.87 -3.75304 -1.91638 0
M  V30 8382 H 784.594 -2.52074 -2.07668 0
M  V30 8383 H 783.253 -3.65594 -0.271428 0
M  V30 8384 H 782.901 -4.26141 -2.67232 0
M  V30 8385 H 782.601 -5.65344 -1.60187 0
M  V30 8386 H 784.125 -5.55749 -2.52935 0
M  V30 8387 H 785.539 -5.72691 -0.264239 0
M  V30 8388 H 783.936 -5.98138 0.484908 0
M  V30 8389 H 785.006 -4.71809 1.11912 0
M  V30 8390 N 786.349 -0.21828 -1.56081 0
M  V30 8391 C 787.259 0.704602 -2.23769 0
M  V30 8392 C 788.275 1.21633 -1.24425 0
M  V30 8393 O 789.451 1.25862 -1.57228 0
M  V30 8394 C 786.516 1.89725 -2.90182 0
M  V30 8395 C 785.577 1.42782 -4.0486 0
M  V30 8396 C 784.81 2.56361 -4.68097 0
M  V30 8397 O 785.033 3.74417 -4.30312 0
M  V30 8398 O 783.967 2.2775 -5.57148 0
M  V30 8399 H 787.793 0.158007 -3.03289 0
M  V30 8400 H 785.378 0.0120279 -1.49395 0
M  V30 8401 H 787.26 2.59382 -3.32113 0
M  V30 8402 H 785.935 2.432 -2.13624 0
M  V30 8403 H 784.842 0.699359 -3.67505 0
M  V30 8404 H 786.175 0.939474 -4.83151 0
M  V30 8405 N 787.827 1.57504 0.0551401 0
M  V30 8406 C 789.074 1.88055 0.751104 0
M  V30 8407 C 789.402 0.812231 1.76729 0
M  V30 8408 O 788.657 -0.189918 1.94776 0
M  V30 8409 C 788.956 3.25311 1.48013 0
M  V30 8410 C 788.622 4.46858 0.602375 0
M  V30 8411 C 787.284 4.79847 0.360536 0
M  V30 8412 C 789.636 5.212 -0.00524047 0
M  V30 8413 C 786.964 5.84582 -0.498127 0
M  V30 8414 C 789.316 6.26844 -0.851453 0
M  V30 8415 C 787.98 6.58324 -1.103 0
M  V30 8416 H 787.25 0.688142 0.274848 0
M  V30 8417 H 789.897 1.91497 0.0114795 0
M  V30 8418 H 788.202 3.17737 2.29239 0
M  V30 8419 H 789.899 3.46189 2.02371 0
M  V30 8420 H 786.489 4.21049 0.801007 0
M  V30 8421 H 790.673 4.96013 0.168682 0
M  V30 8422 H 785.929 6.07361 -0.701594 0
M  V30 8423 H 790.103 6.83603 -1.32893 0
M  V30 8424 H 787.73 7.39304 -1.77011 0
M  V30 8425 N 789.305 -0.326896 1.54172 0
M  V30 8426 C 790.235 -1.40741 1.86317 0
M  V30 8427 C 791.216 -1.54125 0.719684 0
M  V30 8428 O 792.401 -1.6806 0.973117 0
M  V30 8429 C 789.531 -2.77557 2.08757 0
M  V30 8430 C 788.485 -2.78965 3.24596 0
M  V30 8431 C 787.811 -4.18824 3.32401 0
M  V30 8432 C 789.111 -2.4301 4.62324 0
M  V30 8433 H 790.805 -1.14088 2.76811 0
M  V30 8434 H 788.351 -0.547389 1.3319 0
M  V30 8435 H 790.304 -3.53209 2.29829 0
M  V30 8436 H 789.028 -3.0568 1.15009 0
M  V30 8437 H 787.687 -2.05767 3.03406 0
M  V30 8438 H 787.335 -4.44083 2.36218 0
M  V30 8439 H 787.035 -4.20673 4.10253 0
M  V30 8440 H 788.559 -4.96294 3.55703 0
M  V30 8441 H 789.973 -3.08375 4.83299 0
M  V30 8442 H 788.37 -2.56116 5.42701 0
M  V30 8443 H 789.44 -1.38165 4.64799 0
M  V30 8444 N 790.784 -1.46188 -0.588786 0
M  V30 8445 C 792.2 -1.31009 -0.911524 0
M  V30 8446 C 792.4 -0.277017 -1.99587 0
M  V30 8447 O 791.456 0.322532 -2.50432 0
M  V30 8448 C 792.769 -2.69459 -1.33463 0
M  V30 8449 C 794.317 -2.77502 -1.44782 0
M  V30 8450 C 794.792 -4.1652 -1.90461 0
M  V30 8451 N 796.283 -4.18907 -1.97665 0
M  V30 8452 C 797.018 -5.23359 -2.34271 0
M  V30 8453 N 796.514 -6.38143 -2.69714 0
M  V30 8454 N 798.307 -5.10723 -2.34774 0
M  V30 8455 H 790.458 -2.12016 0.127614 0
M  V30 8456 H 792.721 -0.947984 -0.00557599 0
M  V30 8457 H 792.427 -3.46336 -0.611929 0
M  V30 8458 H 792.301 -2.99165 -2.2974 0
M  V30 8459 H 794.688 -2.00917 -2.1614 0
M  V30 8460 H 794.769 -2.51488 -0.467724 0
M  V30 8461 H 794.413 -4.93597 -1.19684 0
M  V30 8462 H 794.343 -4.39937 -2.89418 0
M  V30 8463 H 796.834 -3.36084 -1.72789 0
M  V30 8464 H 797.147 -7.13624 -2.96582 0
M  V30 8465 H 795.492 -6.41514 -2.67366 0
M  V30 8466 H 798.683 -4.20088 -2.06503 0
M  V30 8467 H 798.856 -5.9224 -2.62975 0
M  V30 8468 N 792.262 0.832906 -1.33792 0
M  V30 8469 C 793.678 1.1245 -1.13257 0
M  V30 8470 C 793.878 2.01369 0.0725832 0
M  V30 8471 O 792.934 2.41071 0.751082 0
M  V30 8472 C 794.247 1.78084 -2.42294 0
M  V30 8473 C 795.795 1.90624 -2.48257 0
M  V30 8474 C 796.27 2.59673 -3.77271 0
M  V30 8475 N 797.761 2.67181 -3.78376 0
M  V30 8476 C 798.496 3.21313 -4.74916 0
M  V30 8477 N 797.992 3.76086 -5.81835 0
M  V30 8478 N 799.785 3.19621 -4.62384 0
M  V30 8479 H 791.936 0.241244 -2.11026 0
M  V30 8480 H 794.199 0.169557 -0.932713 0
M  V30 8481 H 793.905 1.20209 -3.30519 0
M  V30 8482 H 793.779 2.78049 -2.5489 0
M  V30 8483 H 796.166 2.4765 -1.60478 0
M  V30 8484 H 796.247 0.89591 -2.39598 0
M  V30 8485 H 795.891 2.03304 -4.65435 0
M  V30 8486 H 795.821 3.61189 -3.8321 0
M  V30 8487 H 798.312 2.28346 -3.01108 0
M  V30 8488 H 798.625 4.15612 -6.51526 0
M  V30 8489 H 796.97 3.74357 -5.85561 0
M  V30 8490 H 800.161 2.76091 -3.7801 0
M  V30 8491 H 800.334 3.61504 -5.37791 0
M  V30 8492 N 793.74 1.17359 1.05189 0
M  V30 8493 C 794.986 0.963413 1.78455 0
M  V30 8494 C 795.319 -0.506703 1.87473 0
M  V30 8495 O 794.594 -1.37611 1.37453 0
M  V30 8496 C 794.877 1.60519 3.22344 0
M  V30 8497 C 794.73 3.14741 3.21338 0
M  V30 8498 C 796.049 1.3091 4.20179 0
M  V30 8499 H 793.168 0.351412 0.647826 0
M  V30 8500 H 795.81 1.44858 1.22948 0
M  V30 8501 H 793.96 1.19265 3.69741 0
M  V30 8502 H 795.632 3.65053 2.82017 0
M  V30 8503 H 793.875 3.4749 2.59679 0
M  V30 8504 H 794.546 3.54775 4.22894 0
M  V30 8505 H 797.022 1.66635 3.81277 0
M  V30 8506 H 795.898 1.784 5.191 0
M  V30 8507 H 796.159 0.229908 4.41502 0
M  V30 8508 N 795.218 -1.23913 0.973828 0
M  V30 8509 C 796.629 -1.73992 0.677021 0
M  V30 8510 C 796.98 -1.78833 -0.807036 0
M  V30 8511 O 796.105 -1.42183 -1.63135 0
M  V30 8512 C 796.7 -3.15985 1.22226 0
M  V30 8513 C 795.259 -3.63547 0.975228 0
M  V30 8514 C 794.406 -2.42001 1.35392 0
M  V30 8515 H 797.357 -1.09529 1.14844 0
M  V30 8516 H 797.378 -3.75875 0.591489 0
M  V30 8517 H 796.89 -3.12429 2.30238 0
M  V30 8518 H 794.991 -3.72493 -0.0891047 0
M  V30 8519 H 795.104 -4.50693 1.62518 0
M  V30 8520 H 793.468 -2.42708 0.772334 0
M  V30 8521 H 794.251 -2.41122 2.44367 0
M  V30 8522 N 796.696 -0.74468 -1.38897 0
M  V30 8523 C 797.626 -0.126355 -2.33158 0
M  V30 8524 C 798.607 0.713517 -1.54412 0
M  V30 8525 O 799.792 0.656523 -1.82766 0
M  V30 8526 C 796.922 0.774375 -3.38557 0
M  V30 8527 C 795.876 0.0379214 -4.27983 0
M  V30 8528 C 795.202 1.05631 -5.24162 0
M  V30 8529 C 796.502 -1.12523 -5.10035 0
M  V30 8530 H 798.196 -0.913744 -2.85116 0
M  V30 8531 H 795.742 -0.440847 -1.37086 0
M  V30 8532 H 797.695 1.21655 -4.03458 0
M  V30 8533 H 796.419 1.59399 -2.85061 0
M  V30 8534 H 795.078 -0.384733 -3.64576 0
M  V30 8535 H 794.726 1.86975 -4.66958 0
M  V30 8536 H 794.426 0.568261 -5.84846 0
M  V30 8537 H 795.95 1.49799 -5.9194 0
M  V30 8538 H 797.364 -0.761037 -5.68226 0
M  V30 8539 H 795.761 -1.54355 -5.79909 0
M  V30 8540 H 796.831 -1.94237 -4.44297 0
M  V30 8541 N 798.174 1.49689 -0.493057 0
M  V30 8542 C 799.422 2.02027 0.0541642 0
M  V30 8543 C 799.743 1.37554 1.38217 0
M  V30 8544 O 799.013 0.528174 1.88646 0
M  V30 8545 H 797.593 0.746646 0.0230069 0
M  V30 8546 H 800.255 1.83795 -0.648489 0
M  V30 8547 H 799.351 3.11523 0.189652 0
M  V30 8548 N 799.652 0.226554 1.55963 0
M  V30 8549 C 800.899 -0.403789 1.98433 0
M  V30 8550 C 801.227 -1.59416 1.1143 0
M  V30 8551 O 800.482 -1.95042 0.160389 0
M  V30 8552 C 800.781 -0.87642 3.46488 0
M  V30 8553 C 800.447 0.203973 4.50438 0
M  V30 8554 C 799.109 0.500754 4.78587 0
M  V30 8555 C 801.461 0.934396 5.12756 0
M  V30 8556 C 798.789 1.53239 5.66334 0
M  V30 8557 C 801.141 1.9554 6.0162 0
M  V30 8558 C 799.805 2.25905 6.28111 0
M  V30 8559 H 799.075 -0.147757 0.726119 0
M  V30 8560 H 801.722 0.330121 1.88633 0
M  V30 8561 H 800.027 -1.68918 3.53517 0
M  V30 8562 H 801.724 -1.37407 3.76723 0
M  V30 8563 H 798.314 -0.0374917 4.28584 0
M  V30 8564 H 802.498 0.718355 4.91074 0
M  V30 8565 H 797.754 1.77321 5.85122 0
M  V30 8566 H 801.928 2.52642 6.48957 0
M  V30 8567 H 799.555 3.05985 6.959 0
M  V30 8568 N 801.13 -1.57531 -0.0467866 0
M  V30 8569 C 802.355 -1.93087 -0.757123 0
M  V30 8570 C 802.78 -0.825116 -1.69037 0
M  V30 8571 O 802.138 0.220449 -1.79955 0
M  V30 8572 C 802.186 -3.27669 -1.5055 0
M  V30 8573 O 801.29 -3.18667 -2.61773 0
M  V30 8574 H 800.631 -0.631597 -0.204892 0
M  V30 8575 H 803.161 -2.04599 -0.00755232 0
M  V30 8576 H 803.171 -3.6214 -1.87932 0
M  V30 8577 H 801.846 -4.07717 -0.820931 0
M  V30 8578 H 800.423 -2.95798 -2.27064 0
M  V30 8579 N 802.608 0.318715 -1.54344 0
M  V30 8580 C 803.571 1.37545 -1.83342 0
M  V30 8581 C 804.571 1.445 -0.705444 0
M  V30 8582 O 805.761 1.44443 -0.973752 0
M  V30 8583 C 802.893 2.76225 -1.99781 0
M  V30 8584 H 804.086 1.13084 -2.77762 0
M  V30 8585 H 801.639 0.554457 -1.46135 0
M  V30 8586 H 802.374 3.05934 -1.07588 0
M  V30 8587 H 802.159 2.7257 -2.81865 0
M  V30 8588 H 803.649 3.52664 -2.23647 0
M  V30 8589 N 804.086 1.46499 0.581025 0
M  V30 8590 C 805.497 1.4604 1.16315 0
M  V30 8591 C 805.848 0.202154 1.95156 0
M  V30 8592 O 804.973 -0.694638 2.04948 0
M  V30 8593 C 805.568 2.64593 2.11604 0
M  V30 8594 C 804.127 2.6717 2.65136 0
M  V30 8595 C 803.274 2.38753 1.4104 0
M  V30 8596 H 806.225 1.54354 0.368871 0
M  V30 8597 H 806.246 2.40207 2.95095 0
M  V30 8598 H 805.758 3.56154 1.54194 0
M  V30 8599 H 803.859 1.79685 3.26411 0
M  V30 8600 H 803.972 3.67182 3.07757 0
M  V30 8601 H 802.336 1.88845 1.70908 0
M  V30 8602 H 803.119 3.32493 0.854588 0
M  V30 8603 N 805.565 -0.825799 1.34232 0
M  V30 8604 C 806.976 -1.39835 1.23706 0
M  V30 8605 C 807.327 -1.95709 -0.138649 0
M  V30 8606 O 806.452 -1.89833 -1.03886 0
M  V30 8607 C 807.047 -2.54203 2.23978 0
M  V30 8608 C 805.606 -3.07374 2.17251 0
M  V30 8609 C 804.753 -1.80232 2.10741 0
M  V30 8610 H 807.704 -0.630442 1.4564 0
M  V30 8611 H 807.725 -3.32214 1.8551 0
M  V30 8612 H 807.237 -2.13506 3.24094 0
M  V30 8613 H 805.338 -3.52583 1.20483 0
M  V30 8614 H 805.451 -3.6666 3.08379 0
M  V30 8615 H 803.815 -2.01012 1.56417 0
M  V30 8616 H 804.598 -1.41713 3.12686 0
M  V30 8617 N 807.043 -1.17915 -1.04565 0
M  V30 8618 C 808.32 -0.881187 -1.74627 0
M  V30 8619 C 808.7 0.617123 -2.01878 0
M  V30 8620 O 808.048 1.57032 -1.65991 0
M  V30 8621 C 808.258 -1.72299 -3.03503 0
M  V30 8622 C 809.606 -1.94688 -3.77335 0
M  V30 8623 O 810.63 -1.6931 -3.13389 0
M  V30 8624 O 809.489 -2.37379 -4.92253 0
M  V30 8625 H 806.583 -0.326864 -0.759664 0
M  V30 8626 H 809.129 -1.28642 -1.10676 0
M  V30 8627 H 807.901 -2.73891 -2.79462 0
M  V30 8628 H 807.524 -1.31593 -3.75192 0
M  V30 8629 N 808.521 1.23394 -0.980386 0
M  V30 8630 C 809.769 1.91431 -0.647978 0
M  V30 8631 C 810.09 1.76871 0.821066 0
M  V30 8632 O 809.36 1.14808 1.58732 0
M  V30 8633 H 807.94 0.708516 -0.236673 0
M  V30 8634 H 810.602 1.50019 -1.2442 0
M  V30 8635 H 809.698 2.98854 -0.899592 0
M  V30 8636 N 809.999 0.752036 1.385 0
M  V30 8637 C 810.929 0.138718 2.33088 0
M  V30 8638 C 811.91 -0.705318 1.54788 0
M  V30 8639 O 813.095 -0.646821 1.83112 0
M  V30 8640 C 810.225 -0.75641 3.38963 0
M  V30 8641 C 809.179 -0.0152239 4.27997 0
M  V30 8642 C 808.505 -1.0285 5.24715 0
M  V30 8643 C 809.805 1.15226 5.09431 0
M  V30 8644 H 811.499 0.928852 2.84627 0
M  V30 8645 H 809.045 0.448111 1.3685 0
M  V30 8646 H 810.998 -1.19513 4.04097 0
M  V30 8647 H 809.722 -1.57885 2.85902 0
M  V30 8648 H 808.381 0.404061 3.64366 0
M  V30 8649 H 808.029 -1.84496 4.67943 0
M  V30 8650 H 807.729 -0.537238 5.85139 0
M  V30 8651 H 809.253 -1.46657 5.92726 0
M  V30 8652 H 810.667 0.791161 5.67815 0
M  V30 8653 H 809.064 1.57428 5.79082 0
M  V30 8654 H 810.134 1.9659 4.43261 0
M  V30 8655 N 811.477 -1.49425 0.500989 0
M  V30 8656 C 812.888 -1.86624 0.0532011 0
M  V30 8657 C 813.239 -1.41331 -1.36088 0
M  V30 8658 O 812.364 -0.791195 -2.01418 0
M  V30 8659 C 812.959 -3.38681 0.0897693 0
M  V30 8660 C 811.518 -3.75181 -0.302677 0
M  V30 8661 C 810.665 -2.73419 0.462307 0
M  V30 8662 H 813.616 -1.41743 0.713773 0
M  V30 8663 H 813.637 -3.73902 -0.705528 0
M  V30 8664 H 813.149 -3.71616 1.11907 0
M  V30 8665 H 811.25 -3.47855 -1.33521 0
M  V30 8666 H 811.363 -4.79097 0.0167653 0
M  V30 8667 H 809.727 -2.54548 -0.0878557 0
M  V30 8668 H 810.51 -3.09198 1.49169 0
M  V30 8669 N 812.955 -0.234822 -1.55841 0
M  V30 8670 C 813.887 0.702346 -2.18174 0
M  V30 8671 C 814.9 1.14776 -1.15457 0
M  V30 8672 O 816.089 1.07662 -1.42377 0
M  V30 8673 C 813.189 1.96483 -2.76129 0
M  V30 8674 C 812.362 1.67283 -4.04148 0
M  V30 8675 C 811.421 2.7837 -4.46539 0
M  V30 8676 O 810.447 2.46272 -5.13166 0
M  V30 8677 N 811.649 4.07611 -4.1332 0
M  V30 8678 H 814.414 0.169074 -2.99223 0
M  V30 8679 H 811.975 -0.0543164 -1.61809 0
M  V30 8680 H 813.967 2.70016 -3.01452 0
M  V30 8681 H 812.537 2.40822 -1.99307 0
M  V30 8682 H 811.757 0.773278 -3.86541 0
M  V30 8683 H 813.045 1.45222 -4.87635 0
M  V30 8684 H 812.443 4.36527 -3.59806 0
M  V30 8685 H 811 4.77646 -4.43506 0
M  V30 8686 N 814.433 1.57553 0.0384317 0
M  V30 8687 C 815.679 1.89121 0.732199 0
M  V30 8688 C 816.012 0.831404 1.75503 0
M  V30 8689 O 815.287 -0.154642 1.93884 0
M  V30 8690 C 815.57 3.31338 1.41021 0
M  V30 8691 C 815.423 4.48004 0.401532 0
M  V30 8692 C 816.742 3.72318 2.34665 0
M  V30 8693 H 813.861 0.687819 0.264715 0
M  V30 8694 H 816.503 1.89999 -0.00496279 0
M  V30 8695 H 814.653 3.3072 2.03854 0
M  V30 8696 H 816.325 4.60755 -0.224159 0
M  V30 8697 H 814.568 4.32895 -0.280092 0
M  V30 8698 H 815.239 5.44377 0.91423 0
M  V30 8699 H 817.715 3.74243 1.81883 0
M  V30 8700 H 816.591 4.72652 2.7909 0
M  V30 8701 H 816.852 3.04062 3.20934 0
M  V30 8702 N 815.911 -0.310526 1.54511 0
M  V30 8703 C 817.322 -0.884142 1.64438 0
M  V30 8704 C 817.673 -1.88425 0.546855 0
M  V30 8705 O 816.798 -2.14049 -0.31811 0
M  V30 8706 C 817.393 -1.6104 2.9808 0
M  V30 8707 C 815.952 -2.13255 3.1016 0
M  V30 8708 C 815.099 -0.96213 2.60074 0
M  V30 8709 H 818.05 -0.0877666 1.58457 0
M  V30 8710 H 818.071 -2.47541 2.8897 0
M  V30 8711 H 817.583 -0.882255 3.77939 0
M  V30 8712 H 815.684 -2.89145 2.35002 0
M  V30 8713 H 815.797 -2.37361 4.16169 0
M  V30 8714 H 814.161 -1.34501 2.16291 0
M  V30 8715 H 814.944 -0.248098 3.42402 0
M  V30 8716 N 817.389 -1.46805 -0.573248 0
M  V30 8717 C 818.339 -1.54497 -1.67674 0
M  V30 8718 C 819.323 -0.405117 -1.55716 0
M  V30 8719 O 820.515 -0.654097 -1.64471 0
M  V30 8720 C 817.644 -1.54717 -3.0646 0
M  V30 8721 C 816.73 -2.7403 -3.2368 0
M  V30 8722 N 817.121 -3.98871 -3.11023 0
M  V30 8723 C 815.419 -2.70453 -3.54642 0
M  V30 8724 C 816.12 -4.78689 -3.30502 0
M  V30 8725 N 815.096 -4.10727 -3.56096 0
M  V30 8726 H 818.898 -2.48809 -1.56433 0
M  V30 8727 H 816.412 -1.42576 -0.777554 0
M  V30 8728 H 818.409 -1.58316 -3.8567 0
M  V30 8729 H 817.069 -0.614886 -3.18825 0
M  V30 8730 H 818.08 -4.29976 -2.88688 0
M  V30 8731 H 814.757 -1.86291 -3.73633 0
M  V30 8732 H 816.147 -5.87615 -3.2582 0
M  V30 8733 N 818.867 0.818669 -1.34668 0
M  V30 8734 C 819.8 1.93516 -1.20941 0
M  V30 8735 C 820.778 1.62292 -0.100061 0
M  V30 8736 O 821.962 1.86614 -0.265983 0
M  V30 8737 C 819.089 3.27612 -0.859524 0
M  V30 8738 C 818.135 3.77794 -1.97923 0
M  V30 8739 S 818.968 3.97043 -3.59329 0
M  V30 8740 C 820.124 5.3406 -3.2639 0
M  V30 8741 H 820.357 2.04864 -2.15449 0
M  V30 8742 H 817.89 0.974716 -1.19744 0
M  V30 8743 H 819.848 4.05087 -0.664444 0
M  V30 8744 H 818.509 3.14028 0.0672835 0
M  V30 8745 H 817.702 4.74883 -1.68827 0
M  V30 8746 H 817.304 3.0728 -2.13202 0
M  V30 8747 H 819.596 6.17626 -2.78469 0
M  V30 8748 H 820.539 5.68143 -4.22634 0
M  V30 8749 H 820.947 4.99773 -2.62464 0
M  V30 8750 N 820.346 1.18468 1.03938 0
M  V30 8751 C 821.309 0.914944 2.10146 0
M  V30 8752 C 822.309 -0.10022 1.60487 0
M  V30 8753 O 823.499 0.133365 1.73689 0
M  V30 8754 C 820.631 0.372993 3.38853 0
M  V30 8755 H 821.824 1.85677 2.35508 0
M  V30 8756 H 819.377 0.996876 1.20383 0
M  V30 8757 H 820.112 -0.57538 3.19155 0
M  V30 8758 H 819.897 1.1048 3.76213 0
M  V30 8759 H 821.387 0.203014 4.17106 0
M  V30 8760 N 821.824 -1.22873 0.986916 0
M  V30 8761 C 823.054 -1.95204 0.67668 0
M  V30 8762 C 823.462 -1.73193 -0.761641 0
M  V30 8763 O 822.805 -1.0243 -1.52492 0
M  V30 8764 C 822.867 -3.48173 0.895302 0
M  V30 8765 C 822.531 -3.93912 2.31695 0
M  V30 8766 C 823.528 -4.02064 3.29607 0
M  V30 8767 C 821.213 -4.26722 2.64978 0
M  V30 8768 C 823.207 -4.42391 4.58878 0
M  V30 8769 C 820.894 -4.66729 3.94471 0
M  V30 8770 C 821.892 -4.74531 4.91232 0
M  V30 8771 O 821.58 -5.13636 6.18412 0
M  V30 8772 H 821.312 -0.628105 0.24992 0
M  V30 8773 H 823.866 -1.5714 1.32274 0
M  V30 8774 H 822.096 -3.86223 0.192072 0
M  V30 8775 H 823.785 -4.01717 0.581233 0
M  V30 8776 H 824.551 -3.76912 3.05225 0
M  V30 8777 H 820.43 -4.19858 1.9037 0
M  V30 8778 H 823.974 -4.48395 5.34404 0
M  V30 8779 H 819.871 -4.91332 4.18645 0
M  V30 8780 H 820.639 -5.31728 6.2226 0
M  V30 8781 N 823.302 -0.75937 -1.38099 0
M  V30 8782 C 824.542 -0.323116 -2.0183 0
M  V30 8783 C 824.906 1.07658 -1.58977 0
M  V30 8784 O 826.107 1.61227 -2.1508 0
M  V30 8785 C 824.378 -0.448234 -3.54578 0
M  V30 8786 S 825.937 -0.0954152 -4.38696 0
M  V30 8787 H 822.755 -0.125013 -0.699923 0
M  V30 8788 H 825.357 -0.991262 -1.68506 0
M  V30 8789 H 824.061 -1.46778 -3.83255 0
M  V30 8790 H 823.592 0.236895 -3.92686 0
M  V30 8791 H 825.607 1.11312 -4.83554 0
M  V30 8792 N 824.78 1.49157 -0.508906 0
M  V30 8793 C 825.743 2.27784 0.25434 0
M  V30 8794 C 826.743 1.34132 0.88686 0
M  V30 8795 O 827.933 1.5722 0.750168 0
M  V30 8796 C 825.065 3.12347 1.36573 0
M  V30 8797 H 826.258 2.96718 -0.435714 0
M  V30 8798 H 823.811 1.54052 -0.264128 0
M  V30 8799 H 824.546 2.47997 2.08969 0
M  V30 8800 H 824.331 3.81213 0.917543 0
M  V30 8801 H 825.821 3.71712 1.90315 0
M  V30 8802 N 826.258 0.243083 1.55714 0
M  V30 8803 C 827.188 -0.652336 2.24203 0
M  V30 8804 C 828.169 -1.1843 1.221 0
M  V30 8805 O 829.354 -1.22435 1.50743 0
M  V30 8806 C 826.484 -1.85111 2.93856 0
M  V30 8807 C 825.438 -1.45208 4.02615 0
M  V30 8808 C 824.764 -2.73137 4.59674 0
M  V30 8809 C 826.064 -0.625988 5.18535 0
M  V30 8810 H 827.758 -0.0812504 2.9929 0
M  V30 8811 H 825.304 -0.0376388 1.43951 0
M  V30 8812 H 827.257 -2.48314 3.40468 0
M  V30 8813 H 825.981 -2.44751 2.16251 0
M  V30 8814 H 824.64 -0.843406 3.56766 0
M  V30 8815 H 824.288 -3.30967 3.78774 0
M  V30 8816 H 823.988 -2.47163 5.33089 0
M  V30 8817 H 825.512 -3.37245 5.09017 0
M  V30 8818 H 826.926 -1.16223 5.61396 0
M  V30 8819 H 825.323 -0.462465 5.98315 0
M  V30 8820 H 826.393 0.362652 4.83542 0
M  V30 8821 N 827.736 -1.57571 -0.0300757 0
M  V30 8822 C 828.646 -2.09892 -1.04798 0
M  V30 8823 C 829.662 -1.03732 -1.39698 0
M  V30 8824 O 830.838 -1.35461 -1.49038 0
M  V30 8825 C 827.903 -2.56707 -2.33028 0
M  V30 8826 C 826.964 -3.77345 -2.04718 0
M  V30 8827 C 826.197 -4.21918 -3.26834 0
M  V30 8828 O 826.42 -3.66025 -4.37472 0
M  V30 8829 O 825.354 -5.14362 -3.12594 0
M  V30 8830 H 829.18 -2.97023 -0.633344 0
M  V30 8831 H 826.765 -1.47344 -0.246991 0
M  V30 8832 H 828.647 -2.87154 -3.08417 0
M  V30 8833 H 827.322 -1.72688 -2.73789 0
M  V30 8834 H 826.229 -3.51919 -1.26901 0
M  V30 8835 H 827.562 -4.62345 -1.68813 0
M  V30 8836 N 829.214 0.302327 -1.54673 0
M  V30 8837 C 830.162 1.39286 -1.86285 0
M  V30 8838 C 831.156 1.52553 -0.736478 0
M  V30 8839 O 832.362 1.54686 -0.92045 0
M  V30 8840 H 828.737 0.465228 -0.590819 0
M  V30 8841 H 830.708 1.09859 -2.77441 0
M  V30 8842 C 829.457 2.75155 -2.12567 0
M  V30 8843 H 828.78 2.65728 -2.98712 0
M  V30 8844 H 830.22 3.50476 -2.38627 0
M  V30 8845 C 828.679 3.23987 -0.923813 0
M  V30 8846 O 829.209 4.01443 -0.143649 0
M  V30 8847 N 827.415 2.81293 -0.72956 0
M  V30 8848 H 826.962 2.18421 -1.36565 0
M  V30 8849 H 826.92 3.14315 0.0730351 0
M  V30 8850 N 830.692 1.47107 0.565454 0
M  V30 8851 C 831.622 1.61846 1.68309 0
M  V30 8852 C 832.603 0.468159 1.63531 0
M  V30 8853 O 833.788 0.696504 1.8128 0
M  V30 8854 C 830.918 1.62474 3.06952 0
M  V30 8855 C 829.872 2.76649 3.26572 0
M  V30 8856 C 829.198 2.62345 4.65917 0
M  V30 8857 C 830.498 4.18319 3.12741 0
M  V30 8858 H 832.192 2.55407 1.5623 0
M  V30 8859 H 829.738 1.22916 0.750179 0
M  V30 8860 H 831.691 1.71378 3.84977 0
M  V30 8861 H 830.415 0.654692 3.19971 0
M  V30 8862 H 829.074 2.67242 2.50952 0
M  V30 8863 H 828.722 1.63386 4.75725 0
M  V30 8864 H 828.422 3.38936 4.79996 0
M  V30 8865 H 829.946 2.73165 5.46089 0
M  V30 8866 H 831.36 4.28745 3.80593 0
M  V30 8867 H 829.757 4.95632 3.38333 0
M  V30 8868 H 830.827 4.37263 2.09592 0
M  V30 8869 N 832.17 -0.811516 1.35101 0
M  V30 8870 C 833.4 -1.59749 1.31011 0
M  V30 8871 C 833.808 -1.88847 -0.115566 0
M  V30 8872 O 833.151 -1.48854 -1.07649 0
M  V30 8873 C 833.213 -2.95714 2.04435 0
M  V30 8874 C 832.877 -2.89456 3.53645 0
M  V30 8875 C 833.874 -2.63237 4.48333 0
M  V30 8876 C 831.559 -3.08728 3.96222 0
M  V30 8877 C 833.553 -2.56361 5.83573 0
M  V30 8878 C 831.24 -3.01475 5.3156 0
M  V30 8879 C 832.238 -2.75326 6.25048 0
M  V30 8880 O 831.926 -2.68026 7.57903 0
M  V30 8881 H 831.658 -0.502889 0.45175 0
M  V30 8882 H 834.212 -1.01687 1.78462 0
M  V30 8883 H 832.442 -3.55739 1.51613 0
M  V30 8884 H 834.131 -3.56816 1.93487 0
M  V30 8885 H 834.897 -2.48072 4.16756 0
M  V30 8886 H 830.776 -3.28094 3.23845 0
M  V30 8887 H 834.32 -2.35871 6.56514 0
M  V30 8888 H 830.217 -3.16197 5.62752 0
M  V30 8889 H 830.985 -2.8367 7.67772 0
M  V30 8890 N 833.648 -1.19017 -1.03309 0
M  V30 8891 C 834.578 -0.94772 -2.13402 0
M  V30 8892 C 835.559 0.117383 -1.69694 0
M  V30 8893 O 836.744 -0.0367733 -1.94165 0
M  V30 8894 C 833.874 -0.480977 -3.43953 0
M  V30 8895 C 832.828 -1.48743 -4.01322 0
M  V30 8896 C 832.154 -0.877924 -5.27443 0
M  V30 8897 C 833.454 -2.86642 -4.36616 0
M  V30 8898 H 835.148 -1.86846 -2.33942 0
M  V30 8899 H 832.694 -0.899781 -1.12427 0
M  V30 8900 H 834.647 -0.298677 -4.2034 0
M  V30 8901 H 833.371 0.475348 -3.23122 0
M  V30 8902 H 832.03 -1.65681 -3.27025 0
M  V30 8903 H 831.678 0.0858232 -5.02927 0
M  V30 8904 H 831.378 -1.54996 -5.66789 0
M  V30 8905 H 832.902 -0.706326 -6.06501 0
M  V30 8906 H 834.316 -2.73312 -5.03958 0
M  V30 8907 H 832.713 -3.50599 -4.87032 0
M  V30 8908 H 833.783 -3.39617 -3.46105 0
M  V30 8909 N 835.127 1.22348 -0.993418 0
M  V30 8910 C 836.057 2.26584 -0.564088 0
M  V30 8911 C 837.038 1.65102 0.409298 0
M  V30 8912 O 838.223 1.91872 0.299819 0
M  V30 8913 C 835.353 3.47087 0.121554 0
M  V30 8914 C 834.307 4.21009 -0.770429 0
M  V30 8915 C 833.633 5.34678 0.0481586 0
M  V30 8916 C 834.933 4.79636 -2.06752 0
M  V30 8917 H 836.627 2.62749 -1.43538 0
M  V30 8918 H 834.173 1.26303 -0.691628 0
M  V30 8919 H 836.126 4.19166 0.433303 0
M  V30 8920 H 834.85 3.1002 1.0274 0
M  V30 8921 H 833.509 3.50764 -1.06583 0
M  V30 8922 H 833.157 4.93852 0.954933 0
M  V30 8923 H 832.857 5.85061 -0.545641 0
M  V30 8924 H 834.381 6.09573 0.353991 0
M  V30 8925 H 835.795 5.43654 -1.81969 0
M  V30 8926 H 834.192 5.4036 -2.61019 0
M  V30 8927 H 835.262 3.99659 -2.74592 0
M  V30 8928 N 836.605 0.766683 1.37694 0
M  V30 8929 C 837.538 0.0959288 2.27998 0
M  V30 8930 C 838.516 -0.714493 1.46061 0
M  V30 8931 O 839.7 -0.690337 1.75404 0
M  V30 8932 C 836.827 -0.87057 3.27321 0
M  V30 8933 C 835.873 -0.144771 4.26254 0
M  V30 8934 S 836.706 1.16365 5.22704 0
M  V30 8935 C 837.862 0.200564 6.25579 0
M  V30 8936 H 838.095 0.861666 2.84539 0
M  V30 8937 H 835.628 0.559845 1.43893 0
M  V30 8938 H 837.586 -1.42282 3.85053 0
M  V30 8939 H 836.247 -1.60938 2.69737 0
M  V30 8940 H 835.44 -0.877259 4.96307 0
M  V30 8941 H 835.042 0.33633 3.72485 0
M  V30 8942 H 837.334 -0.628833 6.74575 0
M  V30 8943 H 838.277 0.869117 7.02746 0
M  V30 8944 H 838.685 -0.185972 5.64194 0
M  V30 8945 N 838.083 -1.48885 0.516809 0
M  V30 8946 C 839.331 -2.02088 -0.0220166 0
M  V30 8947 C 839.652 -1.39735 -1.36011 0
M  V30 8948 O 838.922 -0.558119 -1.87781 0
M  V30 8949 H 837.502 -0.746917 -0.0111255 0
M  V30 8950 H 840.164 -1.8274 0.677647 0
M  V30 8951 H 839.26 -3.11786 -0.140067 0
M  V30 8952 N 839.561 -0.251338 -1.55583 0
M  V30 8953 C 840.977 0.103409 -1.59265 0
M  V30 8954 C 841.177 1.56559 -1.26852 0
M  V30 8955 O 840.233 2.31071 -1.01796 0
M  V30 8956 C 841.546 -0.249781 -2.99661 0
M  V30 8957 C 843.094 -0.194442 -3.12395 0
M  V30 8958 C 843.569 -0.521728 -4.55019 0
M  V30 8959 N 845.06 -0.472393 -4.60785 0
M  V30 8960 C 845.795 -0.698737 -5.69127 0
M  V30 8961 N 845.291 -0.988443 -6.85713 0
M  V30 8962 N 847.084 -0.629143 -5.58568 0
M  V30 8963 H 839.235 -1.20484 -1.74921 0
M  V30 8964 H 841.498 -0.485092 -0.814488 0
M  V30 8965 H 841.204 -1.26577 -3.28133 0
M  V30 8966 H 841.078 0.420973 -3.74844 0
M  V30 8967 H 843.465 0.812229 -2.83702 0
M  V30 8968 H 843.546 -0.899111 -2.39478 0
M  V30 8969 H 843.19 -1.52597 -4.84434 0
M  V30 8970 H 843.12 0.204468 -5.26203 0
M  V30 8971 H 845.611 -0.257386 -3.77022 0
M  V30 8972 H 845.924 -1.14846 -7.64219 0
M  V30 8973 H 844.269 -1.02596 -6.87386 0
M  V30 8974 H 847.46 -0.402826 -4.66364 0
M  V30 8975 H 847.633 -0.808935 -6.42931 0
M  V30 8976 N 841.039 1.57585 0.0217189 0
M  V30 8977 C 841.949 2.10444 1.03684 0
M  V30 8978 C 842.965 1.04472 1.39146 0
M  V30 8979 O 844.141 1.36249 1.48317 0
M  V30 8980 C 841.206 2.5794 2.31664 0
M  V30 8981 C 840.267 3.78425 2.02714 0
M  V30 8982 C 839.5 4.23646 3.24592 0
M  V30 8983 O 839.723 3.6834 4.35525 0
M  V30 8984 O 838.657 5.16013 3.09862 0
M  V30 8985 H 842.483 2.97354 0.617584 0
M  V30 8986 H 840.068 1.47473 0.239174 0
M  V30 8987 H 841.95 2.88785 3.06889 0
M  V30 8988 H 840.625 1.74138 2.7287 0
M  V30 8989 H 839.532 3.52587 1.25033 0
M  V30 8990 H 840.865 4.63234 1.66359 0
M  V30 8991 N 842.517 -0.29412 1.54831 0
M  V30 8992 C 843.447 -1.36757 1.89261 0
M  V30 8993 C 844.428 -1.52564 0.752214 0
M  V30 8994 O 845.613 -1.65958 1.00855 0
M  V30 8995 C 842.743 -2.73066 2.14597 0
M  V30 8996 C 841.697 -2.72017 3.3044 0
M  V30 8997 C 841.023 -4.11679 3.4121 0
M  V30 8998 C 842.323 -2.33149 4.67375 0
M  V30 8999 H 844.017 -1.08191 2.79169 0
M  V30 9000 H 841.563 -0.519014 1.34321 0
M  V30 9001 H 843.516 -3.48255 2.37269 0
M  V30 9002 H 842.24 -3.03172 1.21467 0
M  V30 9003 H 840.899 -1.99285 3.07703 0
M  V30 9004 H 840.547 -4.38973 2.45584 0
M  V30 9005 H 840.247 -4.11877 4.19084 0
M  V30 9006 H 841.771 -4.88637 3.6615 0
M  V30 9007 H 843.185 -2.98054 4.89731 0
M  V30 9008 H 841.582 -2.44546 5.48012 0
M  V30 9009 H 842.652 -1.28275 4.67626 0
M  V30 9010 N 843.995 -1.47404 -0.557645 0
M  V30 9011 C 844.905 -1.62491 -1.69216 0
M  V30 9012 C 845.921 -0.507764 -1.66426 0
M  V30 9013 O 847.097 -0.775241 -1.85882 0
M  V30 9014 C 844.162 -1.63511 -3.05721 0
M  V30 9015 C 843.223 -2.86648 -3.1958 0
M  V30 9016 C 842.456 -2.87609 -4.49574 0
M  V30 9017 O 842.679 -1.97799 -5.35006 0
M  V30 9018 O 841.613 -3.79465 -4.67215 0
M  V30 9019 H 845.439 -2.58487 -1.59431 0
M  V30 9020 H 843.024 -1.30485 -0.7276 0
M  V30 9021 H 844.906 -1.66863 -3.86956 0
M  V30 9022 H 843.581 -0.706812 -3.15889 0
M  V30 9023 H 842.488 -2.8884 -2.37744 0
M  V30 9024 H 843.821 -3.7877 -3.14316 0
M  V30 9025 N 845.473 0.80434 -1.35529 0
M  V30 9026 C 846.703 1.59052 -1.31856 0
M  V30 9027 C 847.111 1.88905 0.105549 0
M  V30 9028 O 846.454 1.49422 1.06858 0
M  V30 9029 C 846.516 2.94626 -2.06 0
M  V30 9030 C 846.18 2.87576 -3.55175 0
M  V30 9031 C 847.177 2.60856 -4.49722 0
M  V30 9032 C 844.862 3.06623 -3.97854 0
M  V30 9033 C 846.856 2.53262 -5.84925 0
M  V30 9034 C 844.543 2.98652 -5.33151 0
M  V30 9035 C 845.541 2.72007 -6.26499 0
M  V30 9036 O 845.229 2.64003 -7.59314 0
M  V30 9037 H 844.961 0.500486 -0.454411 0
M  V30 9038 H 847.515 1.0074 -1.78999 0
M  V30 9039 H 845.745 3.5493 -1.53498 0
M  V30 9040 H 847.434 3.55785 -1.95376 0
M  V30 9041 H 848.2 2.45858 -4.18066 0
M  V30 9042 H 844.079 3.26372 -3.2558 0
M  V30 9043 H 847.623 2.32386 -6.57756 0
M  V30 9044 H 843.52 3.13208 -5.64421 0
M  V30 9045 H 844.288 2.79595 -7.69265 0
M  V30 9046 N 846.951 1.19563 1.02676 0
M  V30 9047 C 847.881 0.959024 2.12897 0
M  V30 9048 C 848.862 -0.108382 1.69754 0
M  V30 9049 O 850.047 0.0470698 1.94143 0
M  V30 9050 C 847.177 0.499211 3.43693 0
M  V30 9051 C 846.131 1.5087 4.00528 0
M  V30 9052 C 845.457 0.905884 5.2697 0
M  V30 9053 C 846.757 2.88954 4.3509 0
M  V30 9054 H 848.451 1.88084 2.32948 0
M  V30 9055 H 845.997 0.905731 1.11949 0
M  V30 9056 H 847.95 0.320965 4.20176 0
M  V30 9057 H 846.674 -0.458205 3.2337 0
M  V30 9058 H 845.333 1.67413 3.26142 0
M  V30 9059 H 844.981 -0.0591506 5.02965 0
M  V30 9060 H 844.681 1.58 5.65959 0
M  V30 9061 H 846.205 0.73848 6.06118 0
M  V30 9062 H 847.619 2.75981 5.02501 0
M  V30 9063 H 846.016 3.53177 4.85166 0
M  V30 9064 H 847.086 3.41447 3.44299 0
M  V30 9065 N 848.429 -1.21819 0.999893 0
M  V30 9066 C 849.339 -2.27691 0.565159 0
M  V30 9067 C 850.355 -1.69587 -0.389398 0
M  V30 9068 O 851.531 -1.99786 -0.254499 0
M  V30 9069 C 848.596 -3.46537 -0.106432 0
M  V30 9070 C 847.657 -4.19932 0.891964 0
M  V30 9071 C 846.89 -5.33103 0.252327 0
M  V30 9072 O 847.113 -5.62398 -0.952103 0
M  V30 9073 O 846.047 -5.94184 0.960698 0
M  V30 9074 H 849.873 -2.67059 1.44613 0
M  V30 9075 H 847.458 -1.28119 0.768499 0
M  V30 9076 H 849.34 -4.18631 -0.482301 0
M  V30 9077 H 848.015 -3.09079 -0.961865 0
M  V30 9078 H 846.922 -3.5008 1.3189 0
M  V30 9079 H 848.255 -4.61287 1.71682 0
M  V30 9080 N 849.908 -0.773975 -1.37286 0
M  V30 9081 C 850.818 -0.162571 -2.34036 0
M  V30 9082 C 851.834 0.677022 -1.60289 0
M  V30 9083 O 853.01 0.596423 -1.92366 0
M  V30 9084 C 850.075 0.70457 -3.39465 0
M  V30 9085 C 849.136 -0.151738 -4.29032 0
M  V30 9086 C 848.369 0.674111 -5.29426 0
M  V30 9087 O 848.592 1.91107 -5.37433 0
M  V30 9088 O 847.526 0.0821398 -6.01844 0
M  V30 9089 H 851.352 -0.962119 -2.88057 0
M  V30 9090 H 848.937 -0.53517 -1.39486 0
M  V30 9091 H 850.819 1.19954 -4.03967 0
M  V30 9092 H 849.494 1.48227 -2.87768 0
M  V30 9093 H 848.401 -0.693118 -3.67623 0
M  V30 9094 H 849.734 -0.892575 -4.84039 0
M  V30 9095 N 851.386 1.48609 -0.524698 0
M  V30 9096 C 852.632 2.02797 0.0113382 0
M  V30 9097 C 852.965 1.40147 1.34433 0
M  V30 9098 O 852.24 0.545368 1.86698 0
M  V30 9099 C 852.523 3.59832 0.138931 0
M  V30 9100 C 852.376 4.32971 -1.21886 0
M  V30 9101 C 853.695 4.3145 0.868265 0
M  V30 9102 H 850.814 0.736995 0.00264645 0
M  V30 9103 H 853.456 1.77388 -0.680704 0
M  V30 9104 H 851.606 3.81612 0.72834 0
M  V30 9105 H 853.278 4.22624 -1.84897 0
M  V30 9106 H 851.521 3.94597 -1.80211 0
M  V30 9107 H 852.192 5.41279 -1.08263 0
M  V30 9108 H 854.668 4.14468 0.368145 0
M  V30 9109 H 853.544 5.41025 0.926428 0
M  V30 9110 H 853.805 3.98358 1.91737 0
M  V30 9111 N 852.864 0.259585 1.55447 0
M  V30 9112 C 854.275 -0.241165 1.85136 0
M  V30 9113 C 854.626 -1.56634 1.18153 0
M  V30 9114 O 853.751 -2.11359 0.464351 0
M  V30 9115 C 854.346 -0.444355 3.35873 0
M  V30 9116 C 852.905 -0.889354 3.65742 0
M  V30 9117 C 852.052 0.0262474 2.77288 0
M  V30 9118 H 855.003 0.481808 1.51209 0
M  V30 9119 H 855.024 -1.28517 3.58139 0
M  V30 9120 H 854.536 0.520289 3.84597 0
M  V30 9121 H 852.637 -1.86602 3.22507 0
M  V30 9122 H 852.75 -0.737432 4.73391 0
M  V30 9123 H 851.114 -0.487361 2.49994 0
M  V30 9124 H 851.897 0.986494 3.28821 0
M  V30 9125 N 854.342 -1.57594 -0.0133615 0
M  V30 9126 C 855.753 -1.78168 -0.557937 0
M  V30 9127 C 856.104 -0.892616 -1.74719 0
M  V30 9128 O 855.229 -0.0915491 -2.16206 0
M  V30 9129 C 855.824 -3.23115 -1.01894 0
M  V30 9130 C 854.383 -3.44831 -1.50892 0
M  V30 9131 C 853.53 -2.73558 -0.454044 0
M  V30 9132 H 856.481 -1.57266 0.212843 0
M  V30 9133 H 856.502 -3.30493 -1.8856 0
M  V30 9134 H 856.014 -3.87798 -0.153175 0
M  V30 9135 H 854.115 -2.85345 -2.39602 0
M  V30 9136 H 854.228 -4.53485 -1.54559 0
M  V30 9137 H 852.592 -2.37787 -0.912666 0
M  V30 9138 H 853.375 -3.40932 0.402524 0
M  V30 9139 N 855.82 0.285905 -1.54985 0
M  V30 9140 C 857.068 1.01718 -1.74636 0
M  V30 9141 C 857.389 1.87277 -0.543342 0
M  V30 9142 O 856.659 1.90847 0.442078 0
M  V30 9143 H 855.239 0.378549 -0.643979 0
M  V30 9144 H 857.901 0.313247 -1.92366 0
M  V30 9145 H 856.997 1.66159 -2.64192 0
M  V30 9146 N 857.298 1.47698 0.54982 0
M  V30 9147 C 858.246 1.61156 1.67724 0
M  V30 9148 C 859.24 0.478606 1.62498 0
M  V30 9149 O 860.446 0.656661 1.67595 0
M  V30 9150 H 856.821 0.507304 0.55511 0
M  V30 9151 H 858.792 2.55884 1.53512 0
M  V30 9152 C 857.541 1.64994 3.06059 0
M  V30 9153 H 856.864 2.51525 3.10765 0
M  V30 9154 H 858.304 1.78459 3.84615 0
M  V30 9155 C 856.763 0.384677 3.34697 0
M  V30 9156 O 857.293 -0.511057 3.98436 0
M  V30 9157 N 855.499 0.262434 2.89413 0
M  V30 9158 H 855.046 0.99229 2.37721 0
M  V30 9159 H 855.004 -0.583177 3.08944 0
M  V30 9160 N 858.776 -0.797141 1.35954 0
M  V30 9161 C 860.022 -1.55698 1.29946 0
M  V30 9162 C 860.355 -1.93808 -0.123259 0
M  V30 9163 O 859.63 -1.62102 -1.07486 0
M  V30 9164 C 859.913 -2.83926 2.2149 0
M  V30 9165 C 859.766 -2.52232 3.72423 0
M  V30 9166 C 861.085 -3.85698 2.11955 0
M  V30 9167 H 858.204 -0.56488 0.47337 0
M  V30 9168 H 860.846 -0.916421 1.66438 0
M  V30 9169 H 858.996 -3.38588 1.905 0
M  V30 9170 H 860.668 -2.0368 4.13899 0
M  V30 9171 H 858.911 -1.85286 3.92239 0
M  V30 9172 H 859.582 -3.43782 4.31877 0
M  V30 9173 H 862.058 -3.40462 2.39218 0
M  V30 9174 H 860.934 -4.73182 2.78191 0
M  V30 9175 H 861.195 -4.28083 1.10442 0
M  V30 9176 N 860.254 -1.20106 -1.0204 0
M  V30 9177 C 861.184 -0.970301 -2.12385 0
M  V30 9178 C 862.165 0.099378 -1.69809 0
M  V30 9179 O 863.35 -0.057365 -1.94115 0
M  V30 9180 C 860.48 -0.517431 -3.43424 0
M  V30 9181 C 859.434 -1.52992 -3.99722 0
M  V30 9182 C 858.76 -0.933817 -5.26483 0
M  V30 9183 C 860.06 -2.91257 -4.33551 0
M  V30 9184 H 861.754 -1.89316 -2.31948 0
M  V30 9185 H 859.3 -0.911655 -1.11467 0
M  V30 9186 H 861.253 -0.343243 -4.2 0
M  V30 9187 H 859.977 0.441049 -3.23608 0
M  V30 9188 H 858.636 -1.6914 -3.2525 0
M  V30 9189 H 858.284 0.0324763 -5.0299 0
M  V30 9190 H 857.984 -1.60999 -5.65113 0
M  V30 9191 H 859.508 -0.770614 -6.05718 0
M  V30 9192 H 860.922 -2.78642 -5.0103 0
M  V30 9193 H 859.319 -3.55745 -4.83286 0
M  V30 9194 H 860.389 -3.43269 -3.42483 0
M  V30 9195 N 861.732 1.21287 -1.00634 0
M  V30 9196 C 862.98 1.90013 -0.688438 0
M  V30 9197 C 863.301 1.78573 0.783365 0
M  V30 9198 O 862.571 1.1815 1.56261 0
M  V30 9199 H 861.151 0.703336 -0.251648 0
M  V30 9200 H 863.813 1.47346 -1.27574 0
M  V30 9201 H 862.909 2.96879 -0.962781 0
M  V30 9202 N 863.21 0.781244 1.36873 0
M  V30 9203 C 864.459 0.34652 1.98701 0
M  V30 9204 C 864.772 -1.08555 1.62712 0
M  V30 9205 O 865.978 -1.62213 2.17713 0
M  V30 9206 C 864.434 0.568611 3.5538 0
M  V30 9207 C 864.042 2.01156 4.003 0
M  V30 9208 C 865.786 0.197983 4.24038 0
M  V30 9209 C 863.693 2.18074 5.49725 0
M  V30 9210 H 862.623 0.125821 0.743428 0
M  V30 9211 H 865.274 0.961721 1.56279 0
M  V30 9212 H 863.656 -0.116185 3.9583 0
M  V30 9213 H 864.83 2.73209 3.71071 0
M  V30 9214 H 863.145 2.33967 3.44454 0
M  V30 9215 H 865.742 0.302778 5.33842 0
M  V30 9216 H 866.085 -0.852927 4.07469 0
M  V30 9217 H 866.618 0.835696 3.88923 0
M  V30 9218 H 863.357 3.21519 5.71232 0
M  V30 9219 H 862.877 1.50517 5.80607 0
M  V30 9220 H 864.556 1.98393 6.15832 0
M  V30 9221 N 864.689 -1.48329 0.532571 0
M  V30 9222 C 865.937 -2.021 -0.000581206 0
M  V30 9223 C 866.258 -1.4117 -1.34522 0
M  V30 9224 O 865.528 -0.578005 -1.87179 0
M  V30 9225 H 864.108 -0.746993 -0.00320281 0
M  V30 9226 H 866.77 -1.82011 0.696991 0
M  V30 9227 H 865.866 -3.11917 -0.106991 0
M  V30 9228 N 866.167 -0.267825 -1.55308 0
M  V30 9229 C 867.415 0.350343 -1.9904 0
M  V30 9230 C 867.736 1.56924 -1.15758 0
M  V30 9231 O 867.006 1.94358 -0.245336 0
M  V30 9232 H 865.586 0.132435 -0.735167 0
M  V30 9233 H 868.248 -0.371471 -1.91327 0
M  V30 9234 H 867.344 0.645203 -3.05358 0
M  V30 9235 N 867.645 1.57599 0.00500368 0
M  V30 9236 C 868.575 2.11143 0.99705 0
M  V30 9237 C 869.556 1.0194 1.3617 0
M  V30 9238 O 870.741 1.29596 1.44632 0
M  V30 9239 C 867.871 2.61062 2.2905 0
M  V30 9240 C 866.825 3.74745 2.0676 0
M  V30 9241 C 866.151 4.10961 3.42075 0
M  V30 9242 C 867.451 5.02222 1.43424 0
M  V30 9243 H 869.145 2.94281 0.551251 0
M  V30 9244 H 866.691 1.41565 0.263715 0
M  V30 9245 H 868.644 2.97146 2.98801 0
M  V30 9246 H 867.368 1.75038 2.75734 0
M  V30 9247 H 866.027 3.39047 1.39436 0
M  V30 9248 H 865.675 3.21968 3.86453 0
M  V30 9249 H 865.375 4.87549 3.27979 0
M  V30 9250 H 866.899 4.49599 4.1315 0
M  V30 9251 H 868.313 5.36109 2.03125 0
M  V30 9252 H 866.71 5.83581 1.39831 0
M  V30 9253 H 867.78 4.83224 0.40285 0
M  V30 9254 N 869.123 -0.277682 1.55134 0
M  V30 9255 C 870.055 -1.36531 1.84098 0
M  V30 9256 C 871.068 -1.45756 0.725194 0
M  V30 9257 O 872.257 -1.47656 1.00299 0
M  V30 9258 C 869.357 -2.74701 1.98476 0
M  V30 9259 C 868.53 -2.88125 3.29094 0
M  V30 9260 C 867.589 -4.0694 3.33596 0
M  V30 9261 O 866.615 -3.9792 4.06999 0
M  V30 9262 N 867.817 -5.18687 2.60661 0
M  V30 9263 H 870.582 -1.12032 2.77973 0
M  V30 9264 H 868.143 -0.467793 1.54995 0
M  V30 9265 H 870.135 -3.52471 1.98863 0
M  V30 9266 H 868.705 -2.92043 1.11488 0
M  V30 9267 H 867.925 -1.97277 3.41285 0
M  V30 9268 H 869.213 -2.94021 4.15246 0
M  V30 9269 H 868.611 -5.28901 2.00699 0
M  V30 9270 H 867.168 -5.94705 2.66776 0
M  V30 9271 N 870.601 -1.47988 -0.541979 0
M  V30 9272 C 871.878 -1.45878 -1.30303 0
M  V30 9273 C 872.258 -0.163931 -2.10463 0
M  V30 9274 O 871.606 0.854479 -2.11922 0
M  V30 9275 C 871.816 -2.71359 -2.19466 0
M  V30 9276 C 873.164 -3.19199 -2.79995 0
M  V30 9277 O 874.188 -2.72193 -2.2976 0
M  V30 9278 O 873.047 -4.00961 -3.71339 0
M  V30 9279 H 870.141 -0.582043 -0.587498 0
M  V30 9280 H 872.687 -1.60207 -0.559623 0
M  V30 9281 H 871.459 -3.57122 -1.59936 0
M  V30 9282 H 871.082 -2.59692 -3.01075 0
M  V30 9283 N 872.079 0.78992 -1.36375 0
M  V30 9284 C 873.326 1.54777 -1.30576 0
M  V30 9285 C 873.654 1.94159 0.115095 0
M  V30 9286 O 872.909 1.62918 1.08426 0
M  V30 9287 C 873.208 2.83698 -2.17371 0
M  V30 9288 C 872.874 2.63457 -3.65925 0
M  V30 9289 C 871.536 2.57645 -4.06415 0
M  V30 9290 C 873.888 2.44833 -4.60115 0
M  V30 9291 C 871.216 2.31174 -5.39236 0
M  V30 9292 C 873.568 2.19889 -5.93154 0
M  V30 9293 C 872.232 2.1251 -6.32768 0
M  V30 9294 H 871.502 0.566371 -0.477813 0
M  V30 9295 H 874.149 0.91138 -1.68422 0
M  V30 9296 H 872.454 3.51802 -1.72459 0
M  V30 9297 H 874.151 3.41487 -2.10209 0
M  V30 9298 H 870.741 2.68836 -3.33804 0
M  V30 9299 H 874.925 2.48325 -4.29707 0
M  V30 9300 H 870.181 2.23942 -5.68911 0
M  V30 9301 H 874.355 2.04473 -6.65705 0
M  V30 9302 H 871.982 1.91761 -7.35616 0
M  V30 9303 N 873.557 1.20646 1.01402 0
M  V30 9304 C 874.803 1.0197 1.753 0
M  V30 9305 C 875.136 -0.446803 1.8899 0
M  V30 9306 O 874.411 -1.33169 1.41762 0
M  V30 9307 C 874.694 1.70693 3.17074 0
M  V30 9308 C 874.547 3.24805 3.11162 0
M  V30 9309 C 875.866 1.44212 4.15802 0
M  V30 9310 H 872.985 0.371844 0.636318 0
M  V30 9311 H 875.627 1.48696 1.18277 0
M  V30 9312 H 873.777 1.30968 3.65759 0
M  V30 9313 H 875.449 3.73841 2.70261 0
M  V30 9314 H 873.692 3.55576 2.48492 0
M  V30 9315 H 874.363 3.68049 4.11393 0
M  V30 9316 H 876.839 1.7868 3.75783 0
M  V30 9317 H 875.715 1.94825 5.13161 0
M  V30 9318 H 875.976 0.370252 4.40547 0
M  V30 9319 N 875.035 -1.20752 1.01276 0
M  V30 9320 C 875.965 -2.25658 0.600064 0
M  V30 9321 C 876.946 -1.65733 -0.38298 0
M  V30 9322 O 878.131 -1.92324 -0.269256 0
M  V30 9323 C 875.261 -3.47237 -0.0663197 0
M  V30 9324 C 874.215 -4.1973 0.83731 0
M  V30 9325 C 873.541 -5.34687 0.0369102 0
M  V30 9326 C 874.841 -4.76286 2.14357 0
M  V30 9327 H 876.535 -2.60432 1.477 0
M  V30 9328 H 874.081 -1.25187 0.711634 0
M  V30 9329 H 876.034 -4.19803 -0.366563 0
M  V30 9330 H 874.758 -3.11615 -0.977944 0
M  V30 9331 H 873.417 -3.49024 1.1215 0
M  V30 9332 H 873.065 -4.95309 -0.876244 0
M  V30 9333 H 872.765 -5.84119 0.63865 0
M  V30 9334 H 874.289 -6.10059 -0.256968 0
M  V30 9335 H 875.703 -5.40691 1.90595 0
M  V30 9336 H 874.1 -5.36139 2.69583 0
M  V30 9337 H 875.17 -3.9524 2.80916 0
M  V30 9338 N 876.513 -0.788492 -1.36457 0
M  V30 9339 C 877.46 -0.18435 -2.30063 0
M  V30 9340 C 878.43 0.67128 -1.51931 0
M  V30 9341 O 879.615 0.620152 -1.8044 0
M  V30 9342 C 876.755 0.675596 -3.38422 0
M  V30 9343 C 875.868 -0.198475 -4.31544 0
M  V30 9344 C 875.003 0.667757 -5.26986 0
M  V30 9345 C 874.042 -0.207825 -6.11747 0
M  V30 9346 N 873.179 0.617335 -6.99381 0
M  V30 9347 H 878.019 -0.988056 -2.81143 0
M  V30 9348 H 875.556 -0.498815 -1.38384 0
M  V30 9349 H 877.514 1.18916 -3.99894 0
M  V30 9350 H 876.144 1.44474 -2.88664 0
M  V30 9351 H 875.196 -0.829995 -3.71235 0
M  V30 9352 H 876.508 -0.873163 -4.91098 0
M  V30 9353 H 875.662 1.24716 -5.93743 0
M  V30 9354 H 874.401 1.37607 -4.67884 0
M  V30 9355 H 873.406 -0.799638 -5.43954 0
M  V30 9356 H 874.631 -0.913729 -6.72925 0
M  V30 9357 H 872.577 1.30996 -6.42788 0
M  V30 9358 H 872.494 0.000307255 -7.56 0
M  V30 9359 H 873.762 1.1806 -7.70508 0
M  V30 9360 N 877.991 1.48044 -0.54043 0
M  V30 9361 C 879.216 2.07396 -0.0124765 0
M  V30 9362 C 879.641 1.39288 1.26414 0
M  V30 9363 O 878.999 0.462252 1.75308 0
M  V30 9364 C 879.047 3.60131 0.18377 0
M  V30 9365 O 878.151 3.92995 1.25014 0
M  V30 9366 H 877.492 0.662554 -0.0438026 0
M  V30 9367 H 880.022 1.90306 -0.751327 0
M  V30 9368 H 880.032 4.06003 0.403197 0
M  V30 9369 H 878.707 4.09105 -0.74874 0
M  V30 9370 H 877.284 3.5889 1.01254 0
M  V30 9371 N 879.47 0.276058 1.55163 0
M  V30 9372 C 880.433 -0.597924 2.21263 0
M  V30 9373 C 881.433 -1.0806 1.19078 0
M  V30 9374 O 882.623 -0.980626 1.43977 0
M  V30 9375 C 879.755 -1.82503 2.87933 0
M  V30 9376 H 880.948 -0.0207769 2.99893 0
M  V30 9377 H 878.501 0.0266823 1.56277 0
M  V30 9378 H 879.236 -2.44266 2.13318 0
M  V30 9379 H 879.021 -1.48683 3.62816 0
M  V30 9380 H 880.511 -2.44651 3.38431 0
M  V30 9381 N 880.948 -1.576 0.00335426 0
M  V30 9382 C 882.176 -1.94996 -0.691685 0
M  V30 9383 C 882.591 -0.878405 -1.67121 0
M  V30 9384 O 881.948 0.142343 -1.81944 0
M  V30 9385 C 881.999 -3.32416 -1.42063 0
M  V30 9386 O 881.72 -4.35458 -0.48038 0
M  V30 9387 C 883.221 -3.84291 -2.20987 0
M  V30 9388 H 880.441 -0.642814 -0.192434 0
M  V30 9389 H 882.985 -2.04425 0.0554706 0
M  V30 9390 H 881.14 -3.24285 -2.11939 0
M  V30 9391 H 881.554 -5.14975 -0.995054 0
M  V30 9392 H 883.028 -4.82863 -2.67483 0
M  V30 9393 H 883.505 -3.17174 -3.03805 0
M  V30 9394 H 884.111 -3.95609 -1.56121 0
M  V30 9395 N 882.426 0.269451 -1.5528 0
M  V30 9396 C 883.356 1.33729 -1.91413 0
M  V30 9397 C 884.337 1.51348 -0.776391 0
M  V30 9398 O 885.522 1.64332 -1.03482 0
M  V30 9399 C 882.652 2.69618 -2.18914 0
M  V30 9400 C 881.606 2.66725 -3.34726 0
M  V30 9401 C 880.932 4.06199 -3.47716 0
M  V30 9402 C 882.232 2.25684 -4.71025 0
M  V30 9403 H 883.926 1.03736 -2.80854 0
M  V30 9404 H 881.472 0.497579 -1.3513 0
M  V30 9405 H 883.425 3.44436 -2.42779 0
M  V30 9406 H 882.149 3.01201 -1.26275 0
M  V30 9407 H 880.808 1.94365 -3.10834 0
M  V30 9408 H 880.456 4.3501 -2.52537 0
M  V30 9409 H 880.156 4.05157 -4.25583 0
M  V30 9410 H 881.68 4.8275 -3.73877 0
M  V30 9411 H 883.094 2.90225 -4.94411 0
M  V30 9412 H 881.491 2.35797 -5.51833 0
M  V30 9413 H 882.561 1.20819 -4.69607 0
M  V30 9414 N 883.904 1.48273 0.534124 0
M  V30 9415 C 885.144 1.57674 1.3007 0
M  V30 9416 C 885.508 0.243256 1.90453 0
M  V30 9417 O 886.709 0.212231 2.67961 0
M  V30 9418 C 884.98 2.68044 2.36405 0
M  V30 9419 S 886.539 2.97183 3.22843 0
M  V30 9420 H 883.357 0.55652 0.442501 0
M  V30 9421 H 885.959 1.85774 0.60896 0
M  V30 9422 H 884.663 3.63498 1.90518 0
M  V30 9423 H 884.194 2.41833 3.10291 0
M  V30 9424 H 886.209 2.36164 4.36396 0
M  V30 9425 N 885.382 -0.782676 1.36792 0
M  V30 9426 C 886.607 -1.57676 1.34733 0
M  V30 9427 C 887.032 -1.87979 -0.0675253 0
M  V30 9428 O 886.39 -1.48404 -1.04144 0
M  V30 9429 C 886.438 -2.87047 2.18257 0
M  V30 9430 O 885.542 -3.80946 1.57969 0
M  V30 9431 H 884.883 -0.478034 0.460846 0
M  V30 9432 H 887.413 -0.969578 1.80168 0
M  V30 9433 H 887.423 -3.36254 2.31079 0
M  V30 9434 H 886.098 -2.64319 3.21104 0
M  V30 9435 H 884.675 -3.39558 1.54126 0
M  V30 9436 N 886.86 -1.21182 -1.00761 0
M  V30 9437 C 887.79 -0.992773 -2.11344 0
M  V30 9438 C 888.771 0.0813618 -1.69905 0
M  V30 9439 O 889.956 -0.0779503 -1.94043 0
M  V30 9440 C 887.086 -0.553826 -3.42856 0
M  V30 9441 C 886.04 -1.57223 -3.98077 0
M  V30 9442 C 885.366 -0.989605 -5.25463 0
M  V30 9443 C 886.666 -2.95839 -4.30438 0
M  V30 9444 H 888.36 -1.91766 -2.29927 0
M  V30 9445 H 885.906 -0.923426 -1.10494 0
M  V30 9446 H 887.859 -0.387771 -4.19612 0
M  V30 9447 H 886.583 0.406702 -3.24058 0
M  V30 9448 H 885.242 -1.7258 -3.23437 0
M  V30 9449 H 884.89 -0.0208743 -5.02996 0
M  V30 9450 H 884.59 -1.66984 -5.63374 0
M  V30 9451 H 886.114 -0.834815 -6.04866 0
M  V30 9452 H 887.528 -2.8394 -4.98047 0
M  V30 9453 H 885.925 -3.60851 -4.79486 0
M  V30 9454 H 886.995 -3.46882 -3.38823 0
M  V30 9455 N 888.338 1.20213 -1.01915 0
M  V30 9456 C 889.749 1.7136 -0.741131 0
M  V30 9457 C 890.1 1.81705 0.740107 0
M  V30 9458 O 889.225 1.48139 1.57746 0
M  V30 9459 C 889.82 3.11231 -1.33869 0
M  V30 9460 C 888.379 3.59677 -1.10948 0
M  V30 9461 C 887.526 2.36809 -1.4428 0
M  V30 9462 H 890.477 1.05191 -1.1883 0
M  V30 9463 H 890.498 3.7342 -0.730585 0
M  V30 9464 H 890.01 3.03669 -2.41675 0
M  V30 9465 H 888.111 3.72568 -0.0492052 0
M  V30 9466 H 888.224 4.44351 -1.79134 0
M  V30 9467 H 886.588 2.39674 -0.861881 0
M  V30 9468 H 887.371 2.31886 -2.53148 0
M  V30 9469 N 889.816 0.795718 1.36037 0
M  V30 9470 C 891.041 0.38204 2.03851 0
M  V30 9471 C 891.466 -0.995553 1.59594 0
M  V30 9472 O 890.824 -1.64258 0.767401 0
M  V30 9473 C 890.872 0.461248 3.57638 0
M  V30 9474 O 889.976 -0.529448 4.08987 0
M  V30 9475 H 889.317 0.161227 0.644129 0
M  V30 9476 H 891.847 1.07858 1.73861 0
M  V30 9477 H 891.857 0.32712 4.06687 0
M  V30 9478 H 890.532 1.46613 3.89201 0
M  V30 9479 H 889.109 -0.35646 3.71192 0
M  V30 9480 N 891.294 -1.47756 0.548274 0
M  V30 9481 C 892.534 -2.04387 0.0231354 0
M  V30 9482 C 892.898 -1.41438 -1.29843 0
M  V30 9483 O 894.099 -1.89064 -1.91072 0
M  V30 9484 C 892.37 -3.57316 -0.077482 0
M  V30 9485 S 893.929 -4.35339 -0.550038 0
M  V30 9486 H 890.747 -0.710694 0.0208428 0
M  V30 9487 H 893.349 -1.81239 0.732984 0
M  V30 9488 H 892.053 -4.00658 0.88888 0
M  V30 9489 H 891.584 -3.84947 -0.811157 0
M  V30 9490 H 893.599 -4.61957 -1.81135 0
M  V30 9491 N 892.772 -0.284283 -1.55015 0
M  V30 9492 C 894.183 0.211681 -1.85496 0
M  V30 9493 C 894.534 1.54735 -1.2063 0
M  V30 9494 O 893.659 2.10594 -0.497918 0
M  V30 9495 C 894.254 0.390864 -3.36538 0
M  V30 9496 C 892.813 0.831055 -3.67111 0
M  V30 9497 C 891.96 -0.0703581 -2.77211 0
M  V30 9498 H 894.911 -0.505803 -1.50424 0
M  V30 9499 H 894.932 1.22803 -3.60138 0
M  V30 9500 H 894.444 -0.581409 -3.8372 0
M  V30 9501 H 892.545 1.81447 -3.25434 0
M  V30 9502 H 892.658 0.662026 -4.74504 0
M  V30 9503 H 891.022 0.447528 -2.50737 0
M  V30 9504 H 891.805 -1.03868 -3.2721 0
M  V30 9505 N 894.251 1.57596 -0.0117121 0
M  V30 9506 C 895.662 1.79033 0.529521 0
M  V30 9507 C 896.013 0.920299 1.73277 0
M  V30 9508 O 895.138 0.125934 2.16033 0
M  V30 9509 C 895.733 3.24695 0.967405 0
M  V30 9510 C 894.292 3.47188 1.45387 0
M  V30 9511 C 893.439 2.74245 0.410466 0
M  V30 9512 H 896.39 1.56908 -0.237836 0
M  V30 9513 H 896.411 3.33451 1.83278 0
M  V30 9514 H 895.923 3.87992 0.0914605 0
M  V30 9515 H 894.024 2.89121 2.35032 0
M  V30 9516 H 894.137 4.55886 1.47325 0
M  V30 9517 H 892.501 2.39209 0.874721 0
M  V30 9518 H 893.284 3.40248 -0.456713 0
M  V30 9519 N 895.729 -0.261212 1.5542 0
M  V30 9520 C 896.976 -0.99123 1.76581 0
M  V30 9521 C 897.304 -1.85854 0.573457 0
M  V30 9522 O 896.559 -1.90604 -0.443705 0
M  V30 9523 C 896.858 -1.89395 3.03091 0
M  V30 9524 C 896.524 -1.18318 4.351 0
M  V30 9525 C 895.186 -0.986688 4.70975 0
M  V30 9526 C 897.538 -0.678299 5.16767 0
M  V30 9527 C 894.866 -0.272788 5.86065 0
M  V30 9528 C 897.218 0.0220646 6.32596 0
M  V30 9529 C 895.882 0.230161 6.67103 0
M  V30 9530 H 895.152 -0.362717 0.646156 0
M  V30 9531 H 897.799 -0.262506 1.89692 0
M  V30 9532 H 896.104 -2.68927 2.8493 0
M  V30 9533 H 897.801 -2.46022 3.16661 0
M  V30 9534 H 894.391 -1.34625 4.06908 0
M  V30 9535 H 898.575 -0.817691 4.89518 0
M  V30 9536 H 893.831 -0.10095 6.11317 0
M  V30 9537 H 898.005 0.420981 6.95126 0
M  V30 9538 H 895.632 0.785312 7.56133 0
M  V30 9539 N 897.207 -1.48554 -0.526253 0
M  V30 9540 C 898.456 -1.56014 -1.27837 0
M  V30 9541 C 898.769 -0.240643 -1.94114 0
M  V30 9542 O 899.975 -0.193525 -2.70809 0
M  V30 9543 C 898.431 -2.75161 -2.31979 0
M  V30 9544 C 898.039 -4.13768 -1.71755 0
M  V30 9545 C 899.783 -2.91936 -3.08178 0
M  V30 9546 C 897.69 -5.24171 -2.7386 0
M  V30 9547 H 896.62 -0.58082 -0.480795 0
M  V30 9548 H 899.271 -1.74895 -0.555335 0
M  V30 9549 H 897.653 -2.49722 -3.07335 0
M  V30 9550 H 898.827 -4.49241 -1.02563 0
M  V30 9551 H 897.142 -4.02141 -1.08036 0
M  V30 9552 H 899.739 -3.71586 -3.84484 0
M  V30 9553 H 900.082 -2.01533 -3.64267 0
M  V30 9554 H 900.615 -3.17294 -2.39937 0
M  V30 9555 H 897.354 -6.16552 -2.22586 0
M  V30 9556 H 896.874 -4.93181 -3.41368 0
M  V30 9557 H 898.553 -5.52442 -3.36774 0
M  V30 9558 N 898.685 0.775411 -1.37205 0
M  V30 9559 C 900.096 1.35147 -1.28811 0
M  V30 9560 C 900.447 1.96089 0.0659168 0
M  V30 9561 O 899.572 1.93558 0.967684 0
M  V30 9562 C 900.167 2.45715 -2.33258 0
M  V30 9563 C 898.726 2.99099 -2.2851 0
M  V30 9564 C 897.873 1.72286 -2.17285 0
M  V30 9565 H 900.824 0.575954 -1.4788 0
M  V30 9566 H 900.845 3.251 -1.97712 0
M  V30 9567 H 900.357 2.01331 -3.31795 0
M  V30 9568 H 898.458 3.47868 -1.33485 0
M  V30 9569 H 898.571 3.54962 -3.21774 0
M  V30 9570 H 896.935 1.95068 -1.6377 0
M  V30 9571 H 897.718 1.3001 -3.1773 0
M  V30 9572 N 900.163 1.21714 1.00117 0
M  V30 9573 C 901.093 1.00397 2.10815 0
M  V30 9574 C 902.074 -0.0723502 1.69946 0
M  V30 9575 O 903.259 0.0882398 1.93999 0
M  V30 9576 C 900.389 0.572001 3.42557 0
M  V30 9577 C 899.343 1.59331 3.97237 0
M  V30 9578 C 898.669 1.01746 5.2493 0
M  V30 9579 C 899.969 2.98117 4.28863 0
M  V30 9580 H 901.663 1.92983 2.28906 0
M  V30 9581 H 899.209 0.929273 1.10002 0
M  V30 9582 H 901.162 0.410018 4.19401 0
M  V30 9583 H 899.886 -0.38951 3.24269 0
M  V30 9584 H 898.545 1.74293 3.22518 0
M  V30 9585 H 898.193 0.0475491 5.02978 0
M  V30 9586 H 897.893 1.69969 5.62481 0
M  V30 9587 H 899.417 0.866881 6.04415 0
M  V30 9588 H 900.831 2.86578 4.96534 0
M  V30 9589 H 899.228 3.63389 4.77565 0
M  V30 9590 H 900.298 3.48674 3.36979 0
M  V30 9591 N 901.641 -1.19671 1.02551 0
M  V30 9592 C 902.589 -2.24812 0.596867 0
M  V30 9593 C 903.583 -1.65336 -0.368839 0
M  V30 9594 O 904.789 -1.78422 -0.237786 0
M  V30 9595 H 901.164 -0.731417 0.174739 0
M  V30 9596 H 903.135 -2.58286 1.49435 0
M  V30 9597 C 901.884 -3.47677 -0.0399514 0
M  V30 9598 H 901.207 -3.93728 0.694153 0
M  V30 9599 H 902.647 -4.22917 -0.302861 0
M  V30 9600 C 901.106 -3.11411 -1.2855 0
M  V30 9601 O 901.636 -3.23757 -2.37791 0
M  V30 9602 N 899.842 -2.65875 -1.17297 0
M  V30 9603 H 899.389 -2.56029 -0.284045 0
M  V30 9604 H 899.347 -2.41981 -2.00731 0
M  V30 9605 N 903.119 -0.802921 -1.35613 0
M  V30 9606 C 904.366 -0.381576 -1.98872 0
M  V30 9607 C 904.694 1.0503 -1.63704 0
M  V30 9608 O 903.949 1.7427 -0.890418 0
M  V30 9609 C 904.248 -0.507806 -3.53774 0
M  V30 9610 C 903.914 -1.90245 -4.088 0
M  V30 9611 C 902.576 -2.28401 -4.2354 0
M  V30 9612 C 904.928 -2.81504 -4.3864 0
M  V30 9613 C 902.256 -3.57192 -4.65436 0
M  V30 9614 C 904.608 -4.09737 -4.81973 0
M  V30 9615 C 903.272 -4.47897 -4.94919 0
M  V30 9616 H 902.542 -0.139629 -0.727726 0
M  V30 9617 H 905.189 -1.023 -1.61886 0
M  V30 9618 H 903.494 0.21708 -3.91198 0
M  V30 9619 H 905.191 -0.162625 -4.0067 0
M  V30 9620 H 901.781 -1.596 -3.97776 0
M  V30 9621 H 905.965 -2.53276 -4.26808 0
M  V30 9622 H 901.221 -3.86611 -4.73648 0
M  V30 9623 H 905.395 -4.80555 -5.04024 0
M  V30 9624 H 903.022 -5.47747 -5.27141 0
M  V30 9625 N 904.597 1.47463 -0.556102 0
M  V30 9626 C 905.507 2.33785 0.195378 0
M  V30 9627 C 906.523 1.48123 0.913 0
M  V30 9628 O 907.699 1.81053 0.882141 0
M  V30 9629 C 904.764 3.24795 1.21282 0
M  V30 9630 C 903.825 4.26346 0.502747 0
M  V30 9631 C 903.058 5.13007 1.47172 0
M  V30 9632 O 903.281 5.02103 2.70646 0
M  V30 9633 O 902.215 5.93588 0.996814 0
M  V30 9634 H 906.041 2.99341 -0.512676 0
M  V30 9635 H 903.626 1.46004 -0.31673 0
M  V30 9636 H 905.508 3.81015 1.80016 0
M  V30 9637 H 904.183 2.61868 1.90282 0
M  V30 9638 H 903.09 3.73889 -0.125757 0
M  V30 9639 H 904.423 4.91984 -0.145779 0
M  V30 9640 N 906.075 0.2925 1.54862 0
M  V30 9641 C 907.038 -0.574423 2.21885 0
M  V30 9642 C 908.038 -1.06791 1.20218 0
M  V30 9643 O 909.228 -0.9653 1.45009 0
M  V30 9644 C 906.36 -1.79438 2.89853 0
M  V30 9645 H 907.553 0.0110319 2.99898 0
M  V30 9646 H 905.106 0.043256 1.5624 0
M  V30 9647 H 905.841 -2.4199 2.15897 0
M  V30 9648 H 905.626 -1.44827 3.64373 0
M  V30 9649 H 907.116 -2.41048 3.41007 0
M  V30 9650 N 907.553 -1.57587 0.0200696 0
M  V30 9651 C 908.781 -1.95718 -0.670964 0
M  V30 9652 C 909.196 -0.896081 -1.6618 0
M  V30 9653 O 908.553 0.123037 -1.82085 0
M  V30 9654 C 908.604 -3.33904 -1.38529 0
M  V30 9655 O 908.325 -4.35943 -0.434167 0
M  V30 9656 C 909.826 -3.86614 -2.16898 0
M  V30 9657 H 907.046 -0.644819 -0.185606 0
M  V30 9658 H 909.59 -2.04354 0.0771495 0
M  V30 9659 H 907.745 -3.26515 -2.08487 0
M  V30 9660 H 908.159 -5.16001 -0.940378 0
M  V30 9661 H 909.633 -4.85673 -2.62346 0
M  V30 9662 H 910.11 -3.20379 -3.00423 0
M  V30 9663 H 910.716 -3.97243 -1.51916 0
M  V30 9664 N 909.032 0.252966 -1.55557 0
M  V30 9665 C 910.443 0.822503 -1.67606 0
M  V30 9666 C 910.794 1.86265 -0.616411 0
M  V30 9667 O 909.919 2.15082 0.238447 0
M  V30 9668 C 910.514 1.49866 -3.03852 0
M  V30 9669 C 909.073 2.01597 -3.17861 0
M  V30 9670 C 908.22 0.864943 -2.63465 0
M  V30 9671 H 911.171 0.0288958 -1.58674 0
M  V30 9672 H 911.192 2.36646 -2.97958 0
M  V30 9673 H 910.704 0.741378 -3.80953 0
M  V30 9674 H 908.805 2.80224 -2.45571 0
M  V30 9675 H 908.918 2.21752 -4.24692 0
M  V30 9676 H 907.282 1.2638 -2.21134 0
M  V30 9677 H 908.065 0.120847 -3.43087 0
M  V30 9678 N 910.51 1.48831 0.518367 0
M  V30 9679 C 911.759 1.5669 1.27008 0
M  V30 9680 C 912.072 0.250934 1.93984 0
M  V30 9681 O 913.278 0.207884 2.70703 0
M  V30 9682 C 911.734 2.76387 2.30517 0
M  V30 9683 C 911.342 4.14673 1.69559 0
M  V30 9684 C 913.086 2.93566 3.06625 0
M  V30 9685 C 910.993 5.25616 2.71076 0
M  V30 9686 H 909.923 0.583362 0.477708 0
M  V30 9687 H 912.574 1.75187 0.546052 0
M  V30 9688 H 910.956 2.51348 3.06006 0
M  V30 9689 H 912.13 4.49779 1.00179 0
M  V30 9690 H 910.445 4.02708 1.05902 0
M  V30 9691 H 913.042 3.7362 3.82508 0
M  V30 9692 H 913.385 2.03462 3.63193 0
M  V30 9693 H 913.918 3.18562 2.38251 0
M  V30 9694 H 910.657 6.17723 2.19313 0
M  V30 9695 H 910.177 4.94985 3.38748 0
M  V30 9696 H 911.856 5.5422 3.3384 0
M  V30 9697 N 911.988 -0.768124 1.37614 0
M  V30 9698 C 913.234 -1.52907 1.33219 0
M  V30 9699 C 913.567 -1.94026 -0.0821218 0
M  V30 9700 O 912.842 -1.64345 -1.04023 0
M  V30 9701 C 913.125 -2.79164 2.27463 0
M  V30 9702 C 912.978 -2.44276 3.7769 0
M  V30 9703 C 914.297 -3.81115 2.20089 0
M  V30 9704 H 911.416 -0.554712 0.485246 0
M  V30 9705 H 914.058 -0.880911 1.68345 0
M  V30 9706 H 912.208 -3.34472 1.97639 0
M  V30 9707 H 913.88 -1.94855 4.18126 0
M  V30 9708 H 912.123 -1.76925 3.96081 0
M  V30 9709 H 912.794 -3.34544 4.39072 0
M  V30 9710 H 915.27 -3.35311 2.46386 0
M  V30 9711 H 914.146 -4.67174 2.88166 0
M  V30 9712 H 914.407 -4.25644 1.19498 0
M  V30 9713 N 913.466 -1.22244 -0.994698 0
M  V30 9714 C 914.882 -0.982006 -1.25813 0
M  V30 9715 C 915.082 0.325488 -1.98854 0
M  V30 9716 O 914.138 1.04857 -2.29698 0
M  V30 9717 C 915.451 -2.1795 -2.07167 0
M  V30 9718 C 916.999 -2.22287 -2.20358 0
M  V30 9719 C 917.474 -3.41583 -3.05098 0
M  V30 9720 N 918.965 -3.41734 -3.12686 0
M  V30 9721 C 919.7 -4.30692 -3.78539 0
M  V30 9722 N 919.196 -5.29865 -4.46335 0
M  V30 9723 N 920.989 -4.18473 -3.75283 0
M  V30 9724 H 913.14 -2.0631 -0.504963 0
M  V30 9725 H 915.403 -0.90395 -0.285618 0
M  V30 9726 H 915.109 -3.12758 -1.60858 0
M  V30 9727 H 914.983 -2.17862 -3.07922 0
M  V30 9728 H 917.37 -1.28028 -2.65881 0
M  V30 9729 H 917.451 -2.26414 -1.19039 0
M  V30 9730 H 917.095 -4.36141 -2.60275 0
M  V30 9731 H 917.025 -3.34695 -4.06555 0
M  V30 9732 H 919.516 -2.69969 -2.64433 0
M  V30 9733 H 919.829 -5.94027 -4.9432 0
M  V30 9734 H 918.174 -5.3378 -4.45089 0
M  V30 9735 H 921.365 -3.40249 -3.21478 0
M  V30 9736 H 921.538 -4.88007 -4.26326 0
M  V30 9737 N 914.944 1.19125 -1.03184 0
M  V30 9738 C 916.19 1.89163 -0.731111 0
M  V30 9739 C 916.523 1.79604 0.738662 0
M  V30 9740 O 915.798 1.19037 1.53819 0
M  V30 9741 C 916.081 3.39986 -1.18666 0
M  V30 9742 C 915.934 3.58401 -2.71788 0
M  V30 9743 C 917.253 4.33316 -0.769772 0
M  V30 9744 H 914.372 0.686908 -0.267069 0
M  V30 9745 H 917.014 1.40205 -1.28229 0
M  V30 9746 H 915.164 3.81813 -0.717736 0
M  V30 9747 H 916.836 3.25727 -3.26649 0
M  V30 9748 H 915.079 3.01355 -3.12038 0
M  V30 9749 H 915.75 4.64189 -2.98719 0
M  V30 9750 H 918.226 3.9922 -1.17314 0
M  V30 9751 H 917.102 5.37427 -1.11637 0
M  V30 9752 H 917.363 4.40884 0.327681 0
M  V30 9753 N 916.422 0.810101 1.35185 0
M  V30 9754 C 917.385 0.22852 2.28058 0
M  V30 9755 C 918.385 -0.586168 1.49735 0
M  V30 9756 O 919.575 -0.40414 1.69447 0
M  V30 9757 C 916.707 -0.681041 3.34028 0
M  V30 9758 H 917.9 1.04768 2.81005 0
M  V30 9759 H 915.453 0.58101 1.451 0
M  V30 9760 H 916.188 -1.52375 2.86273 0
M  V30 9761 H 915.973 -0.0985276 3.91976 0
M  V30 9762 H 917.463 -1.08217 4.03335 0
M  V30 9763 N 917.9 -1.47166 0.563914 0
M  V30 9764 C 919.146 -2.02756 0.0424338 0
M  V30 9765 C 919.479 -1.43662 -1.3067 0
M  V30 9766 O 918.754 -0.594676 -1.85186 0
M  V30 9767 C 919.037 -3.60074 -0.0434793 0
M  V30 9768 C 918.89 -4.29587 1.33323 0
M  V30 9769 C 920.209 -4.336 -0.753568 0
M  V30 9770 H 917.328 -0.736806 0.0168946 0
M  V30 9771 H 919.97 -1.75521 0.727496 0
M  V30 9772 H 918.12 -3.83409 -0.626906 0
M  V30 9773 H 919.792 -4.17573 1.96037 0
M  V30 9774 H 918.035 -3.8968 1.9061 0
M  V30 9775 H 918.706 -5.38218 1.22576 0
M  V30 9776 H 921.182 -4.15299 -0.258126 0
M  V30 9777 H 920.058 -5.43291 -0.782659 0
M  V30 9778 H 920.319 -4.03302 -1.81108 0
M  V30 9779 N 919.378 -0.300708 -1.54705 0
M  V30 9780 C 920.288 0.584996 -2.27189 0
M  V30 9781 C 921.304 1.14866 -1.30697 0
M  V30 9782 O 922.48 1.17351 -1.63679 0
M  V30 9783 C 919.545 1.74076 -2.99831 0
M  V30 9784 C 918.606 1.2112 -4.1186 0
M  V30 9785 C 917.839 2.31188 -4.81028 0
M  V30 9786 O 918.062 3.5108 -4.49554 0
M  V30 9787 O 916.996 1.97897 -5.68437 0
M  V30 9788 H 920.822 -0.00298177 -3.037 0
M  V30 9789 H 918.407 -0.0671802 -1.49249 0
M  V30 9790 H 920.289 2.41413 -3.45395 0
M  V30 9791 H 918.964 2.31535 -2.26215 0
M  V30 9792 H 917.871 0.50357 -3.70695 0
M  V30 9793 H 919.204 0.682046 -4.87452 0
M  V30 9794 N 920.856 1.57574 -0.0284266 0
M  V30 9795 C 922.267 1.79585 0.510502 0
M  V30 9796 C 922.618 0.938625 1.72291 0
M  V30 9797 O 921.743 0.14884 2.15888 0
M  V30 9798 C 922.338 3.25703 0.932912 0
M  V30 9799 C 920.897 3.48711 1.41696 0
M  V30 9800 C 920.044 2.74665 0.381356 0
M  V30 9801 H 922.995 1.56647 -0.254464 0
M  V30 9802 H 923.016 3.35376 1.79731 0
M  V30 9803 H 922.528 3.88067 0.0503036 0
M  V30 9804 H 920.629 2.91597 2.31952 0
M  V30 9805 H 920.742 4.57423 1.42481 0
M  V30 9806 H 919.106 2.40123 0.8493 0
M  V30 9807 H 919.889 3.39745 -0.492775 0
M  V30 9808 N 922.334 -0.244713 1.55689 0
M  V30 9809 C 923.281 -1.30301 1.905 0
M  V30 9810 C 924.251 -1.4772 0.759478 0
M  V30 9811 O 925.436 -1.61667 1.01333 0
M  V30 9812 C 922.576 -2.653 2.20703 0
M  V30 9813 C 921.689 -2.55872 3.48071 0
M  V30 9814 C 920.824 -3.83238 3.67834 0
M  V30 9815 C 919.863 -3.68436 4.88796 0
M  V30 9816 N 919 -4.877 5.05068 0
M  V30 9817 H 923.84 -0.999143 2.80751 0
M  V30 9818 H 921.377 -0.482099 1.38976 0
M  V30 9819 H 923.335 -3.43884 2.36219 0
M  V30 9820 H 921.965 -2.93831 1.33653 0
M  V30 9821 H 921.017 -1.68846 3.40874 0
M  V30 9822 H 922.329 -2.40845 4.36801 0
M  V30 9823 H 921.483 -4.70266 3.83321 0
M  V30 9824 H 920.222 -4.01165 2.77341 0
M  V30 9825 H 919.227 -2.79793 4.73282 0
M  V30 9826 H 920.452 -3.52003 5.8075 0
M  V30 9827 H 918.398 -5.05983 4.17513 0
M  V30 9828 H 918.315 -4.75312 5.8789 0
M  V30 9829 H 919.583 -5.76219 5.24969 0
M  V30 9830 N 923.813 -1.49104 -0.510467 0
M  V30 9831 C 924.763 -1.6147 -1.6097 0
M  V30 9832 C 925.747 -0.470797 -1.53858 0
M  V30 9833 O 926.939 -0.723266 -1.61548 0
M  V30 9834 C 924.068 -1.67575 -2.99622 0
M  V30 9835 C 923.154 -2.87511 -3.11766 0
M  V30 9836 N 923.545 -4.11704 -2.93826 0
M  V30 9837 C 921.843 -2.85251 -3.42852 0
M  V30 9838 C 922.544 -4.92276 -3.09902 0
M  V30 9839 N 921.52 -4.2546 -3.38355 0
M  V30 9840 H 925.322 -2.5522 -1.45739 0
M  V30 9841 H 922.836 -1.45745 -0.716383 0
M  V30 9842 H 924.833 -1.74531 -3.78609 0
M  V30 9843 H 923.493 -0.749557 -3.1593 0
M  V30 9844 H 924.504 -4.41834 -2.70191 0
M  V30 9845 H 921.181 -2.0197 -3.65396 0
M  V30 9846 H 922.571 -6.00905 -3.00604 0
M  V30 9847 N 925.291 0.760815 -1.38019 0
M  V30 9848 C 926.702 1.33773 -1.30237 0
M  V30 9849 C 927.053 1.96148 0.0451153 0
M  V30 9850 O 926.178 1.94574 0.9471 0
M  V30 9851 C 926.773 2.43227 -2.35851 0
M  V30 9852 C 925.332 2.96659 -2.31669 0
M  V30 9853 C 924.479 1.69972 -2.191 0
M  V30 9854 H 927.43 0.560237 -1.48482 0
M  V30 9855 H 927.451 3.22985 -2.01149 0
M  V30 9856 H 926.963 1.978 -3.33911 0
M  V30 9857 H 925.064 3.46433 -1.37167 0
M  V30 9858 H 925.177 3.51529 -3.25521 0
M  V30 9859 H 923.541 1.9332 -1.65829 0
M  V30 9860 H 924.324 1.26633 -3.19091 0
M  V30 9861 N 926.769 1.22769 0.988202 0
M  V30 9862 C 927.994 1.08239 1.76915 0
M  V30 9863 C 928.419 -0.362519 1.84574 0
M  V30 9864 O 927.777 -1.26202 1.30165 0
M  V30 9865 C 927.825 1.70363 3.17819 0
M  V30 9866 O 926.929 0.960484 4.01059 0
M  V30 9867 H 926.27 0.379872 0.544604 0
M  V30 9868 H 928.8 1.62663 1.24104 0
M  V30 9869 H 928.81 1.7528 3.6843 0
M  V30 9870 H 927.485 2.75505 3.1156 0
M  V30 9871 H 926.062 0.987667 3.59582 0
M  V30 9872 N 928.247 -1.18576 1.03814 0
M  V30 9873 C 929.157 -2.25778 0.637311 0
M  V30 9874 C 930.173 -1.7074 -0.335248 0
M  V30 9875 O 931.349 -2.00494 -0.19081 0
M  V30 9876 C 928.414 -3.467 0.00386953 0
M  V30 9877 C 927.475 -4.16881 1.02511 0
M  V30 9878 C 926.708 -5.32031 0.421802 0
M  V30 9879 O 926.931 -5.65142 -0.772699 0
M  V30 9880 O 925.865 -5.90826 1.14925 0
M  V30 9881 H 929.691 -2.62323 1.53037 0
M  V30 9882 H 927.276 -1.25609 0.80887 0
M  V30 9883 H 929.158 -4.19953 -0.348873 0
M  V30 9884 H 927.833 -3.11983 -0.863047 0
M  V30 9885 H 926.74 -3.45707 1.4296 0
M  V30 9886 H 928.073 -4.55592 1.86271 0
M  V30 9887 N 929.725 -0.817259 -1.34754 0
M  V30 9888 C 930.658 -0.180483 -2.27485 0
M  V30 9889 C 931.636 0.659792 -1.48612 0
M  V30 9890 O 932.82 0.624761 -1.77845 0
M  V30 9891 C 929.947 0.748487 -3.30326 0
M  V30 9892 C 928.993 -0.0135304 -4.26498 0
M  V30 9893 S 929.826 -1.35685 -5.18025 0
M  V30 9894 C 930.982 -0.432605 -6.24403 0
M  V30 9895 H 931.215 -0.966677 -2.81145 0
M  V30 9896 H 928.748 -0.612864 -1.41716 0
M  V30 9897 H 930.706 1.27893 -3.90069 0
M  V30 9898 H 929.367 1.50816 -2.75524 0
M  V30 9899 H 928.56 0.692454 -4.9922 0
M  V30 9900 H 928.162 -0.474344 -3.7098 0
M  V30 9901 H 930.454 0.378035 -6.76444 0
M  V30 9902 H 931.397 -1.12934 -6.99036 0
M  V30 9903 H 931.805 -0.0235533 -5.64495 0
M  V30 9904 N 931.203 1.46865 -0.571711 0
M  V30 9905 C 932.614 1.86158 -0.142181 0
M  V30 9906 C 932.965 1.47663 1.2919 0
M  V30 9907 O 932.09 0.886393 1.97413 0
M  V30 9908 C 932.685 3.37867 -0.251256 0
M  V30 9909 C 931.244 3.76198 0.123329 0
M  V30 9910 C 930.391 2.70902 -0.592232 0
M  V30 9911 H 933.342 1.38176 -0.780587 0
M  V30 9912 H 933.363 3.76842 0.526331 0
M  V30 9913 H 932.875 3.65853 -1.2951 0
M  V30 9914 H 930.976 3.53829 1.16773 0
M  V30 9915 H 931.089 4.78471 -0.24533 0
M  V30 9916 H 929.453 2.54678 -0.0336927 0
M  V30 9917 H 930.236 3.01729 -1.63751 0
M  V30 9918 N 932.681 0.308908 1.54543 0
M  V30 9919 C 933.613 -0.597453 2.21276 0
M  V30 9920 C 934.626 -1.09137 1.20801 0
M  V30 9921 O 935.815 -1.00747 1.47351 0
M  V30 9922 C 932.915 -1.83085 2.85189 0
M  V30 9923 C 932.088 -1.4781 4.11669 0
M  V30 9924 C 931.147 -2.56748 4.59311 0
M  V30 9925 O 930.173 -2.21507 5.24331 0
M  V30 9926 N 931.375 -3.87427 4.32297 0
M  V30 9927 H 934.14 -0.0261183 2.99689 0
M  V30 9928 H 931.701 0.131456 1.61365 0
M  V30 9929 H 933.693 -2.55326 3.13992 0
M  V30 9930 H 932.263 -2.31039 2.1057 0
M  V30 9931 H 931.483 -0.587974 3.8979 0
M  V30 9932 H 932.771 -1.2179 4.94009 0
M  V30 9933 H 932.169 -4.18863 3.80224 0
M  V30 9934 H 930.726 -4.55942 4.6579 0
M  V30 9935 N 934.159 -1.57557 0.0367827 0
M  V30 9936 C 935.089 -2.13712 -0.940719 0
M  V30 9937 C 936.07 -1.05515 -1.33419 0
M  V30 9938 O 937.255 -1.33385 -1.41146 0
M  V30 9939 C 934.385 -2.67043 -2.22048 0
M  V30 9940 C 933.339 -3.80096 -1.96752 0
M  V30 9941 C 932.665 -4.19886 -3.31059 0
M  V30 9942 C 933.965 -5.05848 -1.30058 0
M  V30 9943 H 935.659 -2.9564 -0.473033 0
M  V30 9944 H 933.205 -1.42214 -0.226089 0
M  V30 9945 H 935.158 -3.04964 -2.90818 0
M  V30 9946 H 933.882 -1.82287 -2.70996 0
M  V30 9947 H 932.541 -3.42625 -1.30398 0
M  V30 9948 H 932.189 -3.32101 -3.77781 0
M  V30 9949 H 931.889 -4.96073 -3.14937 0
M  V30 9950 H 933.413 -4.60395 -4.01084 0
M  V30 9951 H 934.827 -5.41306 -1.8884 0
M  V30 9952 H 933.224 -5.87084 -1.24309 0
M  V30 9953 H 934.294 -4.84122 -0.274591 0
M  V30 9954 N 935.637 0.236453 -1.55816 0
M  V30 9955 C 936.883 0.964439 -1.784 0
M  V30 9956 C 937.216 1.84573 -0.603868 0
M  V30 9957 O 936.491 1.90395 0.397473 0
M  V30 9958 C 936.774 1.81608 -3.10951 0
M  V30 9959 C 936.627 0.962283 -4.39386 0
M  V30 9960 C 937.946 2.79665 -3.39817 0
M  V30 9961 H 935.065 0.349192 -0.649026 0
M  V30 9962 H 937.707 0.234247 -1.8855 0
M  V30 9963 H 935.857 2.43864 -3.02428 0
M  V30 9964 H 937.529 0.35762 -4.59912 0
M  V30 9965 H 935.772 0.267062 -4.32977 0
M  V30 9966 H 936.443 1.59222 -5.28538 0
M  V30 9967 H 938.919 2.27546 -3.4837 0
M  V30 9968 H 937.795 3.36367 -4.33761 0
M  V30 9969 H 938.056 3.56657 -2.61244 0
M  V30 9970 N 937.115 1.49373 0.502552 0
M  V30 9971 C 938.062 1.65927 1.60427 0
M  V30 9972 C 939.032 0.500768 1.58371 0
M  V30 9973 O 940.217 0.727606 1.76382 0
M  V30 9974 C 937.357 1.73043 2.9858 0
M  V30 9975 C 936.47 3.00187 3.10663 0
M  V30 9976 C 935.605 2.98292 4.3954 0
M  V30 9977 C 934.644 4.20022 4.4525 0
M  V30 9978 N 933.781 4.16046 5.65553 0
M  V30 9979 H 938.621 2.59998 1.45619 0
M  V30 9980 H 936.158 1.28912 0.708519 0
M  V30 9981 H 938.116 1.7515 3.78653 0
M  V30 9982 H 936.746 0.824397 3.12095 0
M  V30 9983 H 935.798 3.07699 2.23663 0
M  V30 9984 H 937.11 3.9018 3.10742 0
M  V30 9985 H 936.264 2.98953 5.27932 0
M  V30 9986 H 935.003 2.06075 4.42023 0
M  V30 9987 H 934.008 4.19607 3.5526 0
M  V30 9988 H 935.233 5.13431 4.44484 0
M  V30 9989 H 933.179 3.26665 5.68881 0
M  V30 9990 H 933.096 4.99773 5.67242 0
M  V30 9991 H 934.364 4.20807 6.56156 0
M  V30 9992 N 938.594 -0.753485 1.38421 0
M  V30 9993 C 939.842 -1.50962 1.34368 0
M  V30 9994 C 940.163 -1.94889 -0.0656895 0
M  V30 9995 O 939.433 -1.67652 -1.01339 0
M  V30 9996 H 938.013 -0.559967 0.494415 0
M  V30 9997 H 940.675 -0.895665 1.73101 0
M  V30 9998 H 939.771 -2.40048 1.99458 0
M  V30 9999 N 940.072 -1.23292 -0.981677 0
M  V30 10000 C 941.005 -0.956198 -2.07201 0
M  V30 10001 C 941.983 0.105027 -1.6226 0
M  V30 10002 O 943.167 -0.0289582 -1.88478 0
M  V30 10003 C 940.294 -0.44029 -3.35826 0
M  V30 10004 C 939.34 -1.48792 -3.99704 0
M  V30 10005 S 940.173 -3.06491 -4.39117 0
M  V30 10006 C 941.329 -2.56567 -5.70898 0
M  V30 10007 H 941.562 -1.87947 -2.30355 0
M  V30 10008 H 939.095 -1.06522 -1.1177 0
M  V30 10009 H 941.053 -0.149237 -4.10229 0
M  V30 10010 H 939.714 0.462045 -3.10683 0
M  V30 10011 H 938.907 -1.07706 -4.92357 0
M  V30 10012 H 938.509 -1.72826 -3.31673 0
M  V30 10013 H 940.801 -1.98508 -6.47766 0
M  V30 10014 H 941.744 -3.47755 -6.16824 0
M  V30 10015 H 942.152 -1.97465 -5.28836 0
M  V30 10016 N 941.55 1.18024 -1.04442 0
M  V30 10017 C 942.497 2.21785 -0.638759 0
M  V30 10018 C 943.467 1.62255 0.355312 0
M  V30 10019 O 944.652 1.89176 0.24844 0
M  V30 10020 C 941.792 3.45098 -0.0118002 0
M  V30 10021 C 940.905 4.1895 -1.05379 0
M  V30 10022 C 940.04 5.2973 -0.394951 0
M  V30 10023 C 939.079 5.95359 -1.42178 0
M  V30 10024 N 938.216 6.97668 -0.787635 0
M  V30 10025 H 943.056 2.55839 -1.52808 0
M  V30 10026 H 940.593 1.25681 -0.764378 0
M  V30 10027 H 942.551 4.15564 0.369075 0
M  V30 10028 H 941.181 3.11652 0.84102 0
M  V30 10029 H 940.233 3.47274 -1.55258 0
M  V30 10030 H 941.545 4.63877 -1.83355 0
M  V30 10031 H 940.699 6.06687 0.0399244 0
M  V30 10032 H 939.438 4.85915 0.416867 0
M  V30 10033 H 938.443 5.17139 -1.86675 0
M  V30 10034 H 939.668 6.41255 -2.23536 0
M  V30 10035 H 937.614 6.56 0.00380893 0
M  V30 10036 H 937.531 7.40867 -1.50505 0
M  V30 10037 H 938.799 7.78586 -0.377282 0
M  V30 10038 N 943.028 0.824394 1.34319 0
M  V30 10039 C 943.958 0.262077 2.32025 0
M  V30 10040 C 944.939 -0.622277 1.58309 0
M  V30 10041 O 946.124 -0.548848 1.86283 0
M  V30 10042 C 943.254 -0.57567 3.42496 0
M  V30 10043 C 942.208 0.21167 4.27476 0
M  V30 10044 C 941.534 -0.748913 5.29429 0
M  V30 10045 C 942.834 1.42068 5.02607 0
M  V30 10046 H 944.528 1.07842 2.79304 0
M  V30 10047 H 942.074 0.520022 1.34282 0
M  V30 10048 H 944.027 -0.979251 4.09864 0
M  V30 10049 H 942.751 -1.42508 2.93869 0
M  V30 10050 H 941.41 0.596636 3.61712 0
M  V30 10051 H 941.058 -1.59432 4.77064 0
M  V30 10052 H 940.758 -0.226313 5.87164 0
M  V30 10053 H 942.282 -1.15032 5.99667 0
M  V30 10054 H 943.696 1.09103 5.62823 0
M  V30 10055 H 942.093 1.87903 5.69923 0
M  V30 10056 H 943.163 2.1981 4.32217 0
M  V30 10057 N 944.506 -1.46559 0.579492 0
M  V30 10058 C 945.436 -2.33059 -0.143437 0
M  V30 10059 C 946.417 -1.4515 -0.886868 0
M  V30 10060 O 947.602 -1.73973 -0.862961 0
M  V30 10061 C 944.732 -3.27364 -1.15973 0
M  V30 10062 C 943.686 -4.24689 -0.531348 0
M  V30 10063 C 943.012 -5.08479 -1.65388 0
M  V30 10064 C 944.312 -5.1961 0.529391 0
M  V30 10065 H 946.006 -2.93753 0.578762 0
M  V30 10066 H 943.552 -1.41256 0.279775 0
M  V30 10067 H 945.505 -3.86732 -1.67382 0
M  V30 10068 H 944.229 -2.64771 -1.91217 0
M  V30 10069 H 942.888 -3.6658 -0.0383749 0
M  V30 10070 H 942.536 -4.42273 -2.3959 0
M  V30 10071 H 942.236 -5.74387 -1.23909 0
M  V30 10072 H 943.76 -5.70709 -2.17079 0
M  V30 10073 H 945.174 -5.73212 0.100506 0
M  V30 10074 H 943.571 -5.93843 0.86432 0
M  V30 10075 H 944.641 -4.63737 1.4169 0
M  V30 10076 N 945.984 -0.3171 -1.54377 0
M  V30 10077 C 946.932 0.567371 -2.25574 0
M  V30 10078 C 947.926 1.12387 -1.2675 0
M  V30 10079 O 949.132 1.07266 -1.44548 0
M  V30 10080 H 945.507 0.201605 -0.724472 0
M  V30 10081 H 947.478 -0.0554644 -2.98348 0
M  V30 10082 C 946.227 1.71984 -3.02187 0
M  V30 10083 H 945.55 1.30086 -3.78044 0
M  V30 10084 H 946.99 2.31443 -3.5526 0
M  V30 10085 C 945.449 2.6336 -2.10103 0
M  V30 10086 O 945.979 3.64899 -1.67962 0
M  V30 10087 N 944.185 2.3145 -1.75725 0
M  V30 10088 H 943.732 1.48921 -2.10191 0
M  V30 10089 H 943.69 2.92852 -1.14391 0
M  V30 10090 N 947.462 1.57535 -0.0451378 0
M  V30 10091 C 948.394 2.08109 0.960372 0
M  V30 10092 C 949.407 1.0077 1.27864 0
M  V30 10093 O 950.596 1.28351 1.24049 0
M  V30 10094 C 947.696 2.50414 2.28355 0
M  V30 10095 C 946.869 3.8102 2.14808 0
M  V30 10096 C 945.928 4.09702 3.30198 0
M  V30 10097 O 944.954 4.79715 3.0637 0
M  V30 10098 N 946.156 3.61138 4.54489 0
M  V30 10099 H 948.921 2.94999 0.528752 0
M  V30 10100 H 946.482 1.61283 0.141248 0
M  V30 10101 H 948.474 2.66683 3.04405 0
M  V30 10102 H 947.044 1.68805 2.63104 0
M  V30 10103 H 946.264 3.74392 1.23387 0
M  V30 10104 H 947.552 4.66559 2.02978 0
M  V30 10105 H 946.95 3.04527 4.76739 0
M  V30 10106 H 945.507 3.82656 5.27653 0
M  V30 10107 N 948.94 -0.228186 1.55939 0
M  V30 10108 C 949.903 -1.26621 1.91049 0
M  V30 10109 C 950.903 -1.40141 0.788491 0
M  V30 10110 O 952.093 -1.3852 1.05631 0
M  V30 10111 C 949.225 -2.64108 2.15545 0
M  V30 10112 H 950.418 -0.966978 2.83883 0
M  V30 10113 H 947.971 -0.468313 1.49119 0
M  V30 10114 H 948.706 -2.99141 1.25241 0
M  V30 10115 H 948.491 -2.55673 2.97277 0
M  V30 10116 H 949.981 -3.39025 2.43827 0
M  V30 10117 N 950.418 -1.49637 -0.494624 0
M  V30 10118 C 951.695 -1.4995 -1.25596 0
M  V30 10119 C 952.075 -0.230805 -2.09834 0
M  V30 10120 O 951.423 0.786625 -2.14533 0
M  V30 10121 C 951.633 -2.78204 -2.10721 0
M  V30 10122 C 952.981 -3.27946 -2.69698 0
M  V30 10123 O 954.005 -2.79365 -2.20984 0
M  V30 10124 O 952.864 -4.12571 -3.58395 0
M  V30 10125 H 949.958 -0.60044 -0.568684 0
M  V30 10126 H 952.504 -1.61906 -0.508371 0
M  V30 10127 H 951.276 -3.62029 -1.48494 0
M  V30 10128 H 950.899 -2.69139 -2.92661 0
M  V30 10129 N 951.896 0.746133 -1.38819 0
M  V30 10130 C 953.307 1.32384 -1.31648 0
M  V30 10131 C 953.658 1.96185 0.0243086 0
M  V30 10132 O 952.783 1.95567 0.92641 0
M  V30 10133 C 953.378 2.40712 -2.38418 0
M  V30 10134 C 951.937 2.94185 -2.34803 0
M  V30 10135 C 951.084 1.67639 -2.20891 0
M  V30 10136 H 954.035 0.544457 -1.49068 0
M  V30 10137 H 954.056 3.20833 -2.04564 0
M  V30 10138 H 953.568 1.94247 -3.3599 0
M  V30 10139 H 951.669 3.44959 -1.40834 0
M  V30 10140 H 951.782 3.48057 -3.29231 0
M  V30 10141 H 950.146 1.9155 -1.67871 0
M  V30 10142 H 950.929 1.23242 -3.20416 0
M  V30 10143 N 953.375 1.23811 0.975125 0
M  V30 10144 C 954.615 1.08517 1.73215 0
M  V30 10145 C 954.979 -0.370777 1.88386 0
M  V30 10146 O 956.18 -0.645036 2.60946 0
M  V30 10147 C 954.451 1.79649 3.08968 0
M  V30 10148 S 956.01 1.79993 4.00185 0
M  V30 10149 H 952.828 0.388256 0.595633 0
M  V30 10150 H 955.43 1.57028 1.16458 0
M  V30 10151 H 954.134 2.8471 2.95581 0
M  V30 10152 H 953.665 1.31441 3.70792 0
M  V30 10153 H 955.68 0.862294 4.8865 0
M  V30 10154 N 954.853 -1.17469 1.05066 0
M  V30 10155 C 956.099 -1.87976 0.761113 0
M  V30 10156 C 956.432 -1.80756 -0.709995 0
M  V30 10157 O 955.707 -1.21469 -1.51906 0
M  V30 10158 C 955.99 -3.38055 1.2406 0
M  V30 10159 C 955.843 -3.54032 2.77455 0
M  V30 10160 C 957.162 -4.32036 0.838612 0
M  V30 10161 H 954.281 -0.682573 0.277963 0
M  V30 10162 H 956.923 -1.38147 1.30443 0
M  V30 10163 H 955.073 -3.80622 0.778388 0
M  V30 10164 H 956.745 -3.20489 3.3179 0
M  V30 10165 H 954.988 -2.96352 3.16793 0
M  V30 10166 H 955.659 -4.59377 3.06066 0
M  V30 10167 H 958.135 -3.97303 1.23651 0
M  V30 10168 H 957.011 -5.35583 1.20173 0
M  V30 10169 H 957.272 -4.41349 -0.257498 0
M  V30 10170 N 956.331 -0.831506 -1.3388 0
M  V30 10171 C 957.263 -0.216908 -2.28171 0
M  V30 10172 C 958.276 0.598141 -1.51414 0
M  V30 10173 O 959.465 0.426416 -1.73332 0
M  V30 10174 C 956.565 0.713831 -3.31297 0
M  V30 10175 C 955.738 -0.0602673 -4.37358 0
M  V30 10176 C 954.797 0.792696 -5.20195 0
M  V30 10177 O 953.823 0.234564 -5.68716 0
M  V30 10178 N 955.025 2.11119 -5.40748 0
M  V30 10179 H 957.79 -1.02704 -2.81553 0
M  V30 10180 H 955.351 -0.689272 -1.46495 0
M  V30 10181 H 957.343 1.28925 -3.83615 0
M  V30 10182 H 955.913 1.42469 -2.78247 0
M  V30 10183 H 955.133 -0.817041 -3.8564 0
M  V30 10184 H 956.421 -0.592822 -5.05335 0
M  V30 10185 H 955.819 2.58828 -5.03016 0
M  V30 10186 H 954.376 2.63527 -5.96151 0
M  V30 10187 N 957.809 1.4625 -0.587256 0
M  V30 10188 C 959.058 2.01571 -0.0722643 0
M  V30 10189 C 959.371 1.46385 1.29733 0
M  V30 10190 O 960.577 1.93554 1.90392 0
M  V30 10191 C 959.033 3.59814 -0.078579 0
M  V30 10192 C 958.641 4.23996 -1.44678 0
M  V30 10193 C 960.385 4.22776 0.382231 0
M  V30 10194 C 958.292 5.74332 -1.41057 0
M  V30 10195 H 957.222 0.753642 -0.0232461 0
M  V30 10196 H 959.873 1.67936 -0.739577 0
M  V30 10197 H 958.255 3.90546 0.654988 0
M  V30 10198 H 959.429 4.04867 -2.20043 0
M  V30 10199 H 957.744 3.73147 -1.84799 0
M  V30 10200 H 960.341 5.32983 0.428182 0
M  V30 10201 H 960.684 3.92027 1.40072 0
M  V30 10202 H 961.217 3.96687 -0.297417 0
M  V30 10203 H 957.956 6.09747 -2.40601 0
M  V30 10204 H 957.476 5.95711 -0.699185 0
M  V30 10205 H 959.155 6.37137 -1.12543 0
M  V30 10206 N 959.287 0.325282 1.54207 0
M  V30 10207 C 960.217 -0.532574 2.27345 0
M  V30 10208 C 961.198 -1.11791 1.28206 0
M  V30 10209 O 962.383 -1.14272 1.57021 0
M  V30 10210 C 959.513 -1.69274 3.03255 0
M  V30 10211 C 958.467 -1.23662 4.09746 0
M  V30 10212 C 957.793 -2.48386 4.73506 0
M  V30 10213 C 959.093 -0.350244 5.21124 0
M  V30 10214 H 960.787 0.0775108 2.993 0
M  V30 10215 H 958.333 0.0387193 1.43948 0
M  V30 10216 H 960.286 -2.29917 3.53152 0
M  V30 10217 H 959.01 -2.32944 2.28921 0
M  V30 10218 H 957.669 -0.653106 3.60735 0
M  V30 10219 H 957.317 -3.10424 3.95786 0
M  V30 10220 H 957.017 -2.18558 5.45441 0
M  V30 10221 H 958.541 -3.09789 5.26178 0
M  V30 10222 H 959.955 -0.863011 5.66767 0
M  V30 10223 H 958.352 -0.14466 5.99926 0
M  V30 10224 H 959.422 0.618457 4.8094 0
M  V30 10225 N 960.765 -1.57509 0.0534917 0
M  V30 10226 C 962.014 -1.91959 -0.619244 0
M  V30 10227 C 962.327 -0.933882 -1.71866 0
M  V30 10228 O 963.533 -1.17052 -2.44972 0
M  V30 10229 C 961.989 -3.40938 -1.15278 0
M  V30 10230 C 961.597 -4.47919 -0.085348 0
M  V30 10231 C 963.341 -3.84419 -1.80063 0
M  V30 10232 C 961.248 -5.88014 -0.631897 0
M  V30 10233 H 960.178 -0.71642 -0.235072 0
M  V30 10234 H 962.829 -1.83089 0.122758 0
M  V30 10235 H 961.211 -3.44821 -1.94717 0
M  V30 10236 H 962.385 -4.55629 0.688374 0
M  V30 10237 H 960.7 -4.13793 0.465178 0
M  V30 10238 H 963.297 -4.86457 -2.21954 0
M  V30 10239 H 963.64 -3.20791 -2.65328 0
M  V30 10240 H 964.173 -3.83062 -1.07275 0
M  V30 10241 H 960.912 -6.55244 0.183175 0
M  V30 10242 H 960.432 -5.83861 -1.37355 0
M  V30 10243 H 962.111 -6.37336 -1.11407 0
M  V30 10244 N 962.243 0.219913 -1.56058 0
M  V30 10245 C 963.175 1.29604 -1.89038 0
M  V30 10246 C 964.188 1.42964 -0.778791 0
M  V30 10247 O 965.377 1.43832 -1.0571 0
M  V30 10248 C 962.477 2.67145 -2.08534 0
M  V30 10249 C 961.65 2.75712 -3.39561 0
M  V30 10250 C 960.709 3.94279 -3.48469 0
M  V30 10251 O 959.735 3.8254 -4.21487 0
M  V30 10252 N 960.937 5.08655 -2.79732 0
M  V30 10253 H 963.702 1.01638 -2.81939 0
M  V30 10254 H 961.263 0.409945 -1.56624 0
M  V30 10255 H 963.255 3.44847 -2.11808 0
M  V30 10256 H 961.825 2.87704 -1.2225 0
M  V30 10257 H 961.045 1.84475 -3.48371 0
M  V30 10258 H 962.333 2.78407 -4.25872 0
M  V30 10259 H 961.731 5.21088 -2.2019 0
M  V30 10260 H 960.288 5.84394 -2.88665 0
M  V30 10261 N 963.721 1.49897 0.486681 0
M  V30 10262 C 964.631 1.70379 1.6127 0
M  V30 10263 C 965.647 0.58659 1.63814 0
M  V30 10264 O 966.823 0.863044 1.81971 0
M  V30 10265 C 963.888 1.77911 2.97571 0
M  V30 10266 C 962.949 3.01569 3.0554 0
M  V30 10267 C 962.182 3.08732 4.35339 0
M  V30 10268 O 962.405 2.23099 5.2496 0
M  V30 10269 O 961.339 4.01325 4.48578 0
M  V30 10270 H 965.165 2.65799 1.46916 0
M  V30 10271 H 962.75 1.33808 0.664516 0
M  V30 10272 H 964.632 1.85135 3.78554 0
M  V30 10273 H 963.307 0.856722 3.12157 0
M  V30 10274 H 962.214 2.99854 2.23693 0
M  V30 10275 H 963.547 3.93335 2.95886 0
M  V30 10276 N 965.199 -0.738761 1.39212 0
M  V30 10277 C 966.427 -1.52801 1.39497 0
M  V30 10278 C 966.842 -1.88797 -0.0114917 0
M  V30 10279 O 966.199 -1.53835 -0.981887 0
M  V30 10280 C 966.25 -2.81793 2.2644 0
M  V30 10281 O 965.971 -2.47328 3.61608 0
M  V30 10282 C 967.472 -3.75844 2.35067 0
M  V30 10283 H 964.692 -0.472322 0.476606 0
M  V30 10284 H 967.236 -0.913153 1.8298 0
M  V30 10285 H 965.391 -3.3962 1.8638 0
M  V30 10286 H 965.805 -3.30162 4.07545 0
M  V30 10287 H 967.279 -4.6326 3.00157 0
M  V30 10288 H 967.756 -4.17329 1.3687 0
M  V30 10289 H 968.362 -3.23937 2.75581 0
M  V30 10290 N 966.677 -1.24326 -0.968545 0
M  V30 10291 C 967.925 -1.08032 -1.70803 0
M  V30 10292 C 968.246 0.381728 -1.91227 0
M  V30 10293 O 967.516 1.27253 -1.48942 0
M  V30 10294 H 966.096 -0.396777 -0.632912 0
M  V30 10295 H 968.758 -1.56232 -1.16523 0
M  V30 10296 H 967.854 -1.57769 -2.69287 0
M  V30 10297 N 968.156 1.1691 -1.05688 0
M  V30 10298 C 969.066 2.24735 -0.67315 0
M  V30 10299 C 970.082 1.71252 0.308043 0
M  V30 10300 O 971.258 2.00772 0.158889 0
M  V30 10301 C 968.323 3.4665 -0.059026 0
M  V30 10302 C 967.384 4.15198 -1.0913 0
M  V30 10303 C 966.617 5.31292 -0.50639 0
M  V30 10304 O 966.84 5.663 0.682692 0
M  V30 10305 O 965.774 5.88923 -1.2431 0
M  V30 10306 H 969.6 2.59855 -1.57191 0
M  V30 10307 H 967.185 1.24306 -0.828751 0
M  V30 10308 H 969.067 4.20455 0.282018 0
M  V30 10309 H 967.742 3.13316 0.813304 0
M  V30 10310 H 966.649 3.43389 -1.48442 0
M  V30 10311 H 967.982 4.52571 -1.93495 0
M  V30 10312 N 969.634 0.838594 1.33437 0
M  V30 10313 C 970.584 0.243681 2.26694 0
M  V30 10314 C 971.568 -0.601168 1.49247 0
M  V30 10315 O 972.76 -0.453181 1.711 0
M  V30 10316 C 969.889 -0.580525 3.38356 0
M  V30 10317 C 968.975 0.275819 4.23202 0
M  V30 10318 N 969.366 1.3544 4.87329 0
M  V30 10319 C 967.664 0.0628047 4.45956 0
M  V30 10320 C 968.365 1.87991 5.50486 0
M  V30 10321 N 967.341 1.18143 5.30607 0
M  V30 10322 H 971.143 1.06849 2.73789 0
M  V30 10323 H 968.657 0.683019 1.47338 0
M  V30 10324 H 970.654 -1.02301 4.04153 0
M  V30 10325 H 969.314 -1.40331 2.92809 0
M  V30 10326 H 970.325 1.73729 4.87892 0
M  V30 10327 H 967.002 -0.726563 4.11129 0
M  V30 10328 H 968.392 2.78312 6.11549 0
M  V30 10329 N 971.112 -1.45937 0.595003 0
M  V30 10330 C 972.358 -2.0262 0.0854317 0
M  V30 10331 C 972.691 -1.46402 -1.27594 0
M  V30 10332 O 971.966 -0.633823 -1.83883 0
M  V30 10333 C 972.249 -3.60085 0.0329075 0
M  V30 10334 C 972.102 -4.26663 1.42405 0
M  V30 10335 C 973.421 -4.35101 -0.661426 0
M  V30 10336 H 970.54 -0.736282 0.0325196 0
M  V30 10337 H 973.182 -1.73938 0.764563 0
M  V30 10338 H 971.332 -3.84652 -0.545439 0
M  V30 10339 H 973.004 -4.13321 2.04851 0
M  V30 10340 H 971.247 -3.85549 1.98833 0
M  V30 10341 H 971.918 -5.35497 1.33965 0
M  V30 10342 H 974.394 -4.15753 -0.169977 0
M  V30 10343 H 973.27 -5.44829 -0.667243 0
M  V30 10344 H 973.531 -4.07053 -1.72513 0
M  V30 10345 N 972.59 -0.333456 -1.54032 0
M  V30 10346 C 973.52 0.52051 -2.27625 0
M  V30 10347 C 974.501 1.1111 -1.28797 0
M  V30 10348 O 975.686 1.13438 -1.57625 0
M  V30 10349 C 972.816 1.67663 -3.04149 0
M  V30 10350 C 971.77 1.21487 -4.10396 0
M  V30 10351 C 971.096 2.45872 -4.74817 0
M  V30 10352 C 972.396 0.322603 -5.21303 0
M  V30 10353 H 974.09 -0.0933823 -2.99254 0
M  V30 10354 H 971.636 -0.0463526 -1.43925 0
M  V30 10355 H 973.589 2.28041 -3.54366 0
M  V30 10356 H 972.313 2.31727 -2.30153 0
M  V30 10357 H 970.972 0.633966 -3.61077 0
M  V30 10358 H 970.62 3.0832 -3.97426 0
M  V30 10359 H 970.32 2.15662 -5.46593 0
M  V30 10360 H 971.844 3.06994 -5.27814 0
M  V30 10361 H 973.258 0.832942 -5.67217 0
M  V30 10362 H 971.655 0.112843 -5.99994 0
M  V30 10363 H 972.725 -0.643954 -4.80605 0
M  V30 10364 N 974.068 1.57479 -0.061844 0
M  V30 10365 C 975.314 1.93395 0.610443 0
M  V30 10366 C 975.647 0.941334 1.6986 0
M  V30 10367 O 974.922 -0.0310262 1.94475 0
M  V30 10368 C 975.205 3.39636 1.19664 0
M  V30 10369 C 975.058 4.49651 0.115805 0
M  V30 10370 C 976.377 3.86488 2.10512 0
M  V30 10371 H 973.496 0.703262 0.220436 0
M  V30 10372 H 976.138 1.89583 -0.125785 0
M  V30 10373 H 974.288 3.43015 1.82409 0
M  V30 10374 H 975.96 4.58397 -0.516728 0
M  V30 10375 H 974.203 4.30237 -0.55483 0
M  V30 10376 H 974.874 5.49089 0.566176 0
M  V30 10377 H 977.35 3.85052 1.57715 0
M  V30 10378 H 976.226 4.89444 2.48466 0
M  V30 10379 H 976.487 3.23856 3.00948 0
M  V30 10380 N 975.546 -0.211634 1.56173 0
M  V30 10381 C 976.774 -0.951184 1.83739 0
M  V30 10382 C 977.189 -1.7754 0.642252 0
M  V30 10383 O 976.546 -1.78302 -0.389174 0
M  V30 10384 C 976.597 -1.86075 3.09933 0
M  V30 10385 O 976.318 -1.06983 4.24837 0
M  V30 10386 C 977.819 -2.71337 3.50559 0
M  V30 10387 H 975.039 -0.278312 0.61056 0
M  V30 10388 H 977.583 -0.223871 2.03271 0
M  V30 10389 H 975.738 -2.54189 2.92347 0
M  V30 10390 H 976.152 -1.68815 4.9659 0
M  V30 10391 H 977.626 -3.30843 4.41868 0
M  V30 10392 H 978.103 -3.44226 2.72773 0
M  V30 10393 H 978.709 -2.0862 3.70618 0
M  V30 10394 N 977.024 -1.50153 -0.478725 0
M  V30 10395 C 977.987 -1.67916 -1.56003 0
M  V30 10396 C 978.987 -0.550111 -1.51097 0
M  V30 10397 O 980.177 -0.817001 -1.53853 0
M  V30 10398 C 977.309 -1.6973 -2.95643 0
M  V30 10399 H 978.502 -2.6438 -1.41573 0
M  V30 10400 H 976.055 -1.39519 -0.704565 0
M  V30 10401 H 976.79 -0.749306 -3.15525 0
M  V30 10402 H 976.575 -2.51745 -3.00611 0
M  V30 10403 H 978.065 -1.85453 -3.74162 0
M  V30 10404 N 978.502 0.731368 -1.39602 0
M  V30 10405 C 979.75 1.48805 -1.36753 0
M  V30 10406 C 980.071 1.94969 0.034676 0
M  V30 10407 O 979.341 1.69243 0.986591 0
M  V30 10408 H 977.921 0.55203 -0.503261 0
M  V30 10409 H 980.583 0.868013 -1.74504 0
M  V30 10410 H 979.679 2.36844 -2.03252 0
M  V30 10411 N 979.98 1.24838 0.961938 0
M  V30 10412 C 980.89 1.06304 2.09133 0
M  V30 10413 C 981.906 0.00221475 1.74 0
M  V30 10414 O 983.082 0.201611 2.00388 0
M  V30 10415 C 980.147 0.676117 3.40043 0
M  V30 10416 C 979.208 1.81407 3.89089 0
M  V30 10417 C 978.441 1.44551 5.13752 0
M  V30 10418 O 978.664 0.337894 5.69398 0
M  V30 10419 O 977.598 2.27316 5.57325 0
M  V30 10420 H 981.424 2.01001 2.27667 0
M  V30 10421 H 979.009 1.0371 1.07539 0
M  V30 10422 H 980.891 0.472124 4.18747 0
M  V30 10423 H 979.566 -0.241667 3.22797 0
M  V30 10424 H 978.473 2.07286 3.11421 0
M  V30 10425 H 979.806 2.71083 4.10822 0
M  V30 10426 N 981.458 -1.16348 1.06306 0
M  V30 10427 C 982.704 -1.87158 0.781007 0
M  V30 10428 C 983.037 -1.81499 -0.690784 0
M  V30 10429 O 982.312 -1.23074 -1.50609 0
M  V30 10430 C 982.595 -3.3672 1.27639 0
M  V30 10431 C 982.448 -3.51069 2.81194 0
M  V30 10432 C 983.767 -4.31122 0.884388 0
M  V30 10433 H 980.886 -0.679586 0.285187 0
M  V30 10434 H 983.528 -1.36756 1.31901 0
M  V30 10435 H 981.678 -3.79775 0.818715 0
M  V30 10436 H 983.35 -3.16952 3.35171 0
M  V30 10437 H 981.593 -2.92976 3.19918 0
M  V30 10438 H 982.264 -4.56105 3.10921 0
M  V30 10439 H 984.74 -3.95969 1.27858 0
M  V30 10440 H 983.616 -5.34279 1.25847 0
M  V30 10441 H 983.877 -4.41598 -0.210673 0
M  V30 10442 N 982.937 -0.845659 -1.3299 0
M  V30 10443 C 983.887 -0.2557 -2.26562 0
M  V30 10444 C 984.871 0.593245 -1.49564 0
M  V30 10445 O 986.063 0.444101 -1.71338 0
M  V30 10446 C 983.192 0.562573 -3.38659 0
M  V30 10447 C 982.278 -0.298259 -4.2305 0
M  V30 10448 N 982.669 -1.38023 -4.86604 0
M  V30 10449 C 980.967 -0.0864539 -4.45916 0
M  V30 10450 C 981.668 -1.90907 -5.49481 0
M  V30 10451 N 980.644 -1.20955 -5.29973 0
M  V30 10452 H 984.446 -1.083 -2.73219 0
M  V30 10453 H 981.96 -0.690823 -1.46974 0
M  V30 10454 H 983.957 1.00157 -4.0469 0
M  V30 10455 H 982.617 1.38777 -2.93549 0
M  V30 10456 H 983.628 -1.76314 -4.86964 0
M  V30 10457 H 980.305 0.70475 -4.11509 0
M  V30 10458 H 981.695 -2.81552 -6.10064 0
M  V30 10459 N 984.415 1.45619 -0.602734 0
M  V30 10460 C 985.345 2.33258 0.106342 0
M  V30 10461 C 986.326 1.46543 0.863664 0
M  V30 10462 O 987.511 1.75324 0.835175 0
M  V30 10463 C 984.641 3.29168 1.10751 0
M  V30 10464 C 983.595 4.25481 0.463717 0
M  V30 10465 C 982.921 5.11046 1.57278 0
M  V30 10466 C 984.221 5.18702 -0.61199 0
M  V30 10467 H 985.915 2.92795 -0.625423 0
M  V30 10468 H 983.461 1.40793 -0.302213 0
M  V30 10469 H 985.414 3.89346 1.61208 0
M  V30 10470 H 984.138 2.6778 1.8698 0
M  V30 10471 H 982.797 3.66595 -0.0199496 0
M  V30 10472 H 982.445 4.46029 2.32524 0
M  V30 10473 H 982.145 5.76286 1.14755 0
M  V30 10474 H 983.669 5.74091 2.07972 0
M  V30 10475 H 985.083 5.72979 -0.191686 0
M  V30 10476 H 983.48 5.92393 -0.958686 0
M  V30 10477 H 984.55 4.61424 -1.4905 0
M  V30 10478 N 985.893 0.34162 1.53853 0
M  V30 10479 C 986.825 -0.550383 2.22494 0
M  V30 10480 C 987.838 -1.0655 1.23089 0
M  V30 10481 O 989.027 -0.975985 1.49455 0
M  V30 10482 C 986.127 -1.76995 2.89009 0
M  V30 10483 C 985.3 -1.39045 4.14711 0
M  V30 10484 C 984.359 -2.46947 4.64654 0
M  V30 10485 O 983.385 -2.10336 5.28912 0
M  V30 10486 N 984.587 -3.7817 4.40418 0
M  V30 10487 H 987.352 0.037456 2.99677 0
M  V30 10488 H 984.913 0.165654 1.6105 0
M  V30 10489 H 986.905 -2.48608 3.19337 0
M  V30 10490 H 985.475 -2.2652 2.15424 0
M  V30 10491 H 984.695 -0.505161 3.9095 0
M  V30 10492 H 985.983 -1.11284 4.96481 0
M  V30 10493 H 985.381 -4.10704 3.89023 0
M  V30 10494 H 983.938 -4.45959 4.75356 0
M  V30 10495 N 987.371 -1.57444 0.0701946 0
M  V30 10496 C 988.787 -1.57009 -0.286431 0
M  V30 10497 C 988.987 -1.07946 -1.70147 0
M  V30 10498 O 988.043 -0.744622 -2.41271 0
M  V30 10499 C 989.356 -3.00542 -0.0975466 0
M  V30 10500 C 990.904 -3.12553 -0.167205 0
M  V30 10501 C 991.379 -4.58 -0.00662047 0
M  V30 10502 N 992.87 -4.63158 -0.0622778 0
M  V30 10503 C 993.605 -5.73388 0.0375831 0
M  V30 10504 N 993.101 -6.92537 0.190873 0
M  V30 10505 N 994.894 -5.62097 -0.0193672 0
M  V30 10506 H 987.045 -1.87651 0.995023 0
M  V30 10507 H 989.308 -0.865006 0.387902 0
M  V30 10508 H 989.014 -3.40543 0.878822 0
M  V30 10509 H 988.888 -3.67485 -0.850547 0
M  V30 10510 H 991.275 -2.72439 -1.13406 0
M  V30 10511 H 991.356 -2.48251 0.616871 0
M  V30 10512 H 991 -4.98803 0.956992 0
M  V30 10513 H 990.93 -5.20332 -0.810081 0
M  V30 10514 H 993.421 -3.77475 -0.179229 0
M  V30 10515 H 993.734 -7.72365 0.25926 0
M  V30 10516 H 992.079 -6.94632 0.226214 0
M  V30 10517 H 995.27 -4.67897 -0.137815 0
M  V30 10518 H 995.443 -6.4797 0.0619121 0
M  V30 10519 N 988.849 0.203349 -1.56283 0
M  V30 10520 C 990.089 0.931871 -1.81922 0
M  V30 10521 C 990.453 1.8079 -0.646459 0
M  V30 10522 O 991.654 2.57157 -0.782556 0
M  V30 10523 C 989.925 1.73347 -3.12547 0
M  V30 10524 S 991.484 2.51514 -3.59564 0
M  V30 10525 H 988.302 0.312706 -0.638542 0
M  V30 10526 H 990.904 0.195931 -1.94516 0
M  V30 10527 H 989.608 1.08038 -3.95924 0
M  V30 10528 H 989.139 2.51138 -3.02809 0
M  V30 10529 H 991.154 3.7552 -3.24345 0
M  V30 10530 N 990.327 1.50405 0.470755 0
M  V30 10531 C 991.257 1.72222 1.57676 0
M  V30 10532 C 992.238 0.57121 1.60222 0
M  V30 10533 O 993.423 0.810381 1.76484 0
M  V30 10534 C 990.553 1.81666 2.95998 0
M  V30 10535 C 989.507 2.96857 3.08318 0
M  V30 10536 C 988.833 2.91445 4.4829 0
M  V30 10537 C 990.133 4.37361 2.85504 0
M  V30 10538 H 991.827 2.64825 1.39671 0
M  V30 10539 H 989.373 1.27438 0.67049 0
M  V30 10540 H 991.326 1.95514 3.73299 0
M  V30 10541 H 990.05 0.856856 3.1516 0
M  V30 10542 H 988.709 2.82661 2.33449 0
M  V30 10543 H 988.357 1.93309 4.64371 0
M  V30 10544 H 988.057 3.68776 4.57469 0
M  V30 10545 H 989.581 3.07341 5.27611 0
M  V30 10546 H 990.995 4.52081 3.52555 0
M  V30 10547 H 989.392 5.16145 3.06127 0
M  V30 10548 H 990.462 4.49708 1.81359 0
M  V30 10549 N 991.805 -0.723954 1.39988 0
M  V30 10550 C 993.082 -1.4763 1.28316 0
M  V30 10551 C 993.462 -2.10852 -0.102302 0
M  V30 10552 O 992.81 -1.9948 -1.11445 0
M  V30 10553 C 993.02 -2.51878 2.41574 0
M  V30 10554 C 994.368 -3.17948 2.81415 0
M  V30 10555 O 995.392 -2.62195 2.41106 0
M  V30 10556 O 994.251 -4.18858 3.51027 0
M  V30 10557 H 991.345 -0.656092 0.50346 0
M  V30 10558 H 993.891 -0.75684 1.51888 0
M  V30 10559 H 992.663 -2.03618 3.34149 0
M  V30 10560 H 992.286 -3.3137 2.19727 0
M  V30 10561 N 993.283 -1.25346 -0.955304 0
M  V30 10562 C 994.56 -1.00829 -1.67609 0
M  V30 10563 C 994.94 0.465675 -2.059 0
M  V30 10564 O 994.288 1.44287 -1.77182 0
M  V30 10565 C 994.498 -1.94337 -2.89886 0
M  V30 10566 C 995.846 -2.22142 -3.61854 0
M  V30 10567 O 996.87 -1.9209 -2.99967 0
M  V30 10568 O 995.729 -2.73239 -4.73289 0
M  V30 10569 H 992.823 -0.382314 -0.733325 0
M  V30 10570 H 995.369 -1.36498 -1.00829 0
M  V30 10571 H 994.141 -2.93867 -2.58376 0
M  V30 10572 H 993.764 -1.59062 -3.64397 0
M  V30 10573 N 994.761 1.15782 -1.06922 0
M  V30 10574 C 995.691 2.22538 -0.707045 0
M  V30 10575 C 996.672 1.67371 0.303471 0
M  V30 10576 O 997.857 1.9339 0.177189 0
M  V30 10577 C 994.987 3.47158 -0.0994269 0
M  V30 10578 C 993.941 4.15257 -1.03661 0
M  V30 10579 C 993.267 5.33902 -0.291974 0
M  V30 10580 C 994.567 4.65516 -2.36837 0
M  V30 10581 H 996.261 2.53089 -1.59958 0
M  V30 10582 H 993.807 1.21649 -0.770552 0
M  V30 10583 H 995.76 4.21073 0.165852 0
M  V30 10584 H 994.484 3.15926 0.828155 0
M  V30 10585 H 993.143 3.43276 -1.28674 0
M  V30 10586 H 992.791 4.98926 0.638928 0
M  V30 10587 H 992.491 5.80407 -0.916613 0
M  V30 10588 H 994.015 6.1059 -0.0343915 0
M  V30 10589 H 995.429 5.30981 -2.16175 0
M  V30 10590 H 993.826 5.22666 -2.94856 0
M  V30 10591 H 994.896 3.81387 -2.99453 0
M  V30 10592 N 996.239 0.8527 1.3254 0
M  V30 10593 C 997.186 0.293905 2.28921 0
M  V30 10594 C 998.156 -0.598027 1.54961 0
M  V30 10595 O 999.341 -0.533355 1.83194 0
M  V30 10596 C 996.481 -0.513361 3.4126 0
M  V30 10597 C 995.594 0.404144 4.30105 0
M  V30 10598 C 994.729 -0.415564 5.29572 0
M  V30 10599 C 993.768 0.499461 6.10059 0
M  V30 10600 N 992.905 -0.282949 7.0153 0
M  V30 10601 H 997.745 1.12107 2.76109 0
M  V30 10602 H 995.282 0.564272 1.35847 0
M  V30 10603 H 997.24 -0.997008 4.05112 0
M  V30 10604 H 995.87 -1.30537 2.95229 0
M  V30 10605 H 994.922 1.00617 3.66852 0
M  V30 10606 H 996.234 1.10648 4.86373 0
M  V30 10607 H 995.388 -0.962458 5.99017 0
M  V30 10608 H 994.127 -1.15127 4.73917 0
M  V30 10609 H 993.132 1.05825 5.39519 0
M  V30 10610 H 994.357 1.23375 6.67799 0
M  V30 10611 H 992.303 -1.00179 6.48306 0
M  V30 10612 H 992.22 0.36039 7.55141 0
M  V30 10613 H 993.488 -0.811632 7.75263 0
M  V30 10614 N 997.718 -1.45297 0.610449 0
M  V30 10615 C 998.628 -2.34349 -0.108475 0
M  V30 10616 C 999.644 -1.51409 -0.857397 0
M  V30 10617 O 1000.82 -1.84202 -0.814337 0
M  V30 10618 C 997.885 -3.29072 -1.09144 0
M  V30 10619 C 996.946 -4.27918 -0.344165 0
M  V30 10620 C 996.179 -5.18116 -1.28031 0
M  V30 10621 O 996.402 -5.11802 -2.51824 0
M  V30 10622 O 995.336 -5.96879 -0.775821 0
M  V30 10623 H 999.162 -2.97232 0.623421 0
M  V30 10624 H 996.747 -1.44728 0.3707 0
M  V30 10625 H 998.629 -3.87433 -1.65751 0
M  V30 10626 H 997.304 -2.68749 -1.80431 0
M  V30 10627 H 996.211 -3.73164 0.264437 0
M  V30 10628 H 997.544 -4.91104 0.328275 0
M  V30 10629 N 999.196 -0.349774 -1.5367 0
M  V30 10630 C 1000.61 0.00191293 -1.596 0
M  V30 10631 C 1000.81 1.48175 -1.36552 0
M  V30 10632 O 999.868 2.24129 -1.16285 0
M  V30 10633 C 1001.18 -0.439848 -2.97466 0
M  V30 10634 C 1002.73 -0.392721 -3.10526 0
M  V30 10635 C 1003.2 -0.810047 -4.5078 0
M  V30 10636 N 1004.69 -0.764478 -4.56848 0
M  V30 10637 C 1005.43 -1.05927 -5.63531 0
M  V30 10638 N 1004.93 -1.42253 -6.78038 0
M  V30 10639 N 1006.72 -0.983098 -5.53436 0
M  V30 10640 H 998.87 -1.31364 -1.66905 0
M  V30 10641 H 1001.13 -0.535908 -0.781989 0
M  V30 10642 H 1000.84 -1.47189 -3.19419 0
M  V30 10643 H 1000.71 0.181735 -3.76762 0
M  V30 10644 H 1003.1 0.630161 -2.88293 0
M  V30 10645 H 1003.18 -1.04959 -2.33275 0
M  V30 10646 H 1002.82 -1.83097 -4.73749 0
M  V30 10647 H 1002.75 -0.130591 -5.26438 0
M  V30 10648 H 1005.25 -0.496637 -3.74622 0
M  V30 10649 H 1005.56 -1.63215 -7.55368 0
M  V30 10650 H 1003.9 -1.46104 -6.79469 0
M  V30 10651 H 1007.09 -0.698601 -4.62858 0
M  V30 10652 H 1007.27 -1.21618 -6.36485 0
M  V30 10653 N 1000.67 1.57404 -0.0785433 0
M  V30 10654 C 1001.92 1.93744 0.589024 0
M  V30 10655 C 1002.25 0.959087 1.69209 0
M  V30 10656 O 1001.5 -0.0241604 1.95685 0
M  V30 10657 C 1001.8 3.36684 1.1991 0
M  V30 10658 C 1001.47 4.50356 0.221493 0
M  V30 10659 C 1000.13 4.81177 -0.0474347 0
M  V30 10660 C 1002.48 5.1928 -0.446941 0
M  V30 10661 C 999.811 5.78257 -0.99177 0
M  V30 10662 C 1002.16 6.17372 -1.37964 0
M  V30 10663 C 1000.83 6.46607 -1.65697 0
M  V30 10664 H 1000.1 0.70896 0.215539 0
M  V30 10665 H 1002.74 1.90905 -0.150856 0
M  V30 10666 H 1001.05 3.36022 2.01486 0
M  V30 10667 H 1002.75 3.62095 1.72303 0
M  V30 10668 H 999.336 4.26322 0.441284 0
M  V30 10669 H 1003.52 4.95658 -0.252298 0
M  V30 10670 H 998.776 5.9923 -1.21381 0
M  V30 10671 H 1002.95 6.6988 -1.9035 0
M  V30 10672 H 1000.58 7.21643 -2.39031 0
M  V30 10673 N 1002.15 -0.195058 1.56388 0
M  V30 10674 C 1003.11 -1.2254 1.93692 0
M  V30 10675 C 1004.11 -1.38437 0.81804 0
M  V30 10676 O 1005.3 -1.36248 1.08545 0
M  V30 10677 C 1002.44 -2.59476 2.21099 0
M  V30 10678 H 1003.63 -0.906544 2.8587 0
M  V30 10679 H 1001.18 -0.436577 1.50079 0
M  V30 10680 H 1001.92 -2.96417 1.31558 0
M  V30 10681 H 1001.7 -2.4931 3.02634 0
M  V30 10682 H 1003.19 -3.33777 2.50964 0
M  V30 10683 N 1003.63 -1.50653 -0.462772 0
M  V30 10684 C 1004.58 -1.70122 -1.55971 0
M  V30 10685 C 1005.55 -0.542581 -1.56988 0
M  V30 10686 O 1006.73 -0.774114 -1.74391 0
M  V30 10687 C 1003.87 -1.80899 -2.93887 0
M  V30 10688 C 1002.98 -3.08318 -3.02595 0
M  V30 10689 C 1002.12 -3.09841 -4.31477 0
M  V30 10690 C 1001.16 -4.3168 -4.33957 0
M  V30 10691 N 1000.3 -4.30894 -5.54323 0
M  V30 10692 H 1005.14 -2.63768 -1.38674 0
M  V30 10693 H 1002.67 -1.30746 -0.674091 0
M  V30 10694 H 1004.63 -1.85128 -3.73876 0
M  V30 10695 H 1003.26 -0.906854 -3.098 0
M  V30 10696 H 1002.31 -3.13521 -2.15427 0
M  V30 10697 H 1003.62 -3.98282 -3.00288 0
M  V30 10698 H 1002.78 -3.12845 -5.1982 0
M  V30 10699 H 1001.52 -2.17722 -4.36404 0
M  V30 10700 H 1000.52 -4.28879 -3.4401 0
M  V30 10701 H 1001.75 -5.25035 -4.30715 0
M  V30 10702 H 999.694 -3.41633 -5.6002 0
M  V30 10703 H 999.611 -5.14636 -5.53792 0
M  V30 10704 H 1000.88 -4.38056 -6.44769 0
M  V30 10705 N 1005.11 0.71652 -1.4037 0
M  V30 10706 C 1006.36 1.47193 -1.37903 0
M  V30 10707 C 1006.67 1.95593 0.0159939 0
M  V30 10708 O 1007.88 2.71009 0.163282 0
M  V30 10709 C 1006.33 2.6606 -2.42363 0
M  V30 10710 C 1005.94 2.24533 -3.87671 0
M  V30 10711 C 1007.68 3.438 -2.49001 0
M  V30 10712 C 1005.59 3.40234 -4.8373 0
M  V30 10713 H 1004.52 0.552811 -0.512753 0
M  V30 10714 H 1007.17 0.779894 -1.66102 0
M  V30 10715 H 1005.55 3.37429 -2.07262 0
M  V30 10716 H 1006.73 1.6059 -4.31911 0
M  V30 10717 H 1005.04 1.59839 -3.845 0
M  V30 10718 H 1007.64 4.29893 -3.17956 0
M  V30 10719 H 1007.98 3.8755 -1.52023 0
M  V30 10720 H 1008.52 2.79474 -2.83088 0
M  V30 10721 H 1005.26 3.01517 -5.82037 0
M  V30 10722 H 1004.78 4.03095 -4.44156 0
M  V30 10723 H 1006.45 4.06312 -5.03507 0
M  V30 10724 N 1006.59 1.25851 0.948643 0
M  V30 10725 C 1007.54 1.03437 2.03187 0
M  V30 10726 C 1008.52 -0.0307632 1.60871 0
M  V30 10727 O 1009.71 0.185296 1.76027 0
M  V30 10728 C 1006.84 0.661426 3.36868 0
M  V30 10729 C 1005.93 1.76363 3.8569 0
M  V30 10730 N 1006.32 2.9998 4.07241 0
M  V30 10731 C 1004.62 1.64552 4.14534 0
M  V30 10732 C 1005.32 3.71564 4.47566 0
M  V30 10733 N 1004.29 2.99214 4.53841 0
M  V30 10734 H 1008.1 1.97277 2.17851 0
M  V30 10735 H 1005.61 1.16258 1.13392 0
M  V30 10736 H 1007.61 0.482021 4.14104 0
M  V30 10737 H 1006.27 -0.269582 3.23579 0
M  V30 10738 H 1007.28 3.35963 3.94143 0
M  V30 10739 H 1003.95 0.783891 4.10075 0
M  V30 10740 H 1005.34 4.77702 4.72494 0
M  V30 10741 N 1008.06 -1.15214 1.07534 0
M  V30 10742 C 1009.31 -1.85388 0.794617 0
M  V30 10743 C 1009.63 -1.83331 -0.681838 0
M  V30 10744 O 1010.83 -2.49207 -1.0774 0
M  V30 10745 C 1009.29 -3.32747 1.37141 0
M  V30 10746 C 1008.9 -3.43244 2.87902 0
M  V30 10747 C 1010.64 -4.08093 1.16879 0
M  V30 10748 C 1008.55 -4.84762 3.38763 0
M  V30 10749 H 1007.48 -0.694499 0.293577 0
M  V30 10750 H 1010.13 -1.29944 1.29564 0
M  V30 10751 H 1008.51 -3.87874 0.798121 0
M  V30 10752 H 1009.68 -2.98214 3.51291 0
M  V30 10753 H 1008 -2.81345 3.06975 0
M  V30 10754 H 1010.6 -5.12535 1.52353 0
M  V30 10755 H 1010.94 -4.1616 0.107958 0
M  V30 10756 H 1011.47 -3.59241 1.70854 0
M  V30 10757 H 1008.21 -4.81879 4.4438 0
M  V30 10758 H 1007.73 -5.30366 2.80128 0
M  V30 10759 H 1009.41 -5.53624 3.34827 0
M  V30 10760 N 1009.54 -0.859717 -1.32086 0
M  V30 10761 C 1010.77 -0.478865 -2.01796 0
M  V30 10762 C 1011.19 0.918274 -1.64163 0
M  V30 10763 O 1010.55 1.60409 -0.844896 0
M  V30 10764 C 1010.6 -0.631356 -3.5503 0
M  V30 10765 O 1009.7 0.333712 -4.11048 0
M  V30 10766 H 1009.04 -0.191775 -0.635703 0
M  V30 10767 H 1011.57 -1.16031 -1.68517 0
M  V30 10768 H 1011.58 -0.520783 -4.04663 0
M  V30 10769 H 1010.26 -1.65015 -3.81763 0
M  V30 10770 H 1008.84 0.178953 -3.7247 0
M  V30 10771 N 1011.02 1.44971 -0.618145 0
M  V30 10772 C 1012.27 2.02458 -0.117656 0
M  V30 10773 C 1012.6 1.48413 1.25248 0
M  V30 10774 O 1011.87 0.662997 1.82851 0
M  V30 10775 C 1012.16 3.59987 -0.0901897 0
M  V30 10776 C 1012.01 4.24343 -1.49175 0
M  V30 10777 C 1013.33 4.36099 0.592121 0
M  V30 10778 H 1010.45 0.735672 -0.0442291 0
M  V30 10779 H 1013.09 1.727 -0.792138 0
M  V30 10780 H 1011.24 3.85471 0.484175 0
M  V30 10781 H 1012.91 4.10009 -2.114 0
M  V30 10782 H 1011.16 3.82337 -2.04941 0
M  V30 10783 H 1011.83 5.33298 -1.42468 0
M  V30 10784 H 1014.3 4.1597 0.103813 0
M  V30 10785 H 1013.18 5.45822 0.580481 0
M  V30 10786 H 1013.44 4.09746 1.66015 0
M  V30 10787 N 1012.5 0.357919 1.53482 0
M  V30 10788 C 1013.72 -0.237769 2.06033 0
M  V30 10789 C 1014.15 -1.42292 1.23023 0
M  V30 10790 O 1013.51 -1.79604 0.247427 0
M  V30 10791 C 1013.55 -0.616806 3.55286 0
M  V30 10792 O 1012.66 -1.71503 3.75047 0
M  V30 10793 H 1012 -0.0364322 0.663 0
M  V30 10794 H 1014.53 0.516301 1.97979 0
M  V30 10795 H 1014.54 -0.88996 3.98175 0
M  V30 10796 H 1013.21 0.249825 4.15149 0
M  V30 10797 H 1011.79 -1.43803 3.44057 0
M  V30 10798 N 1013.98 -1.5736 0.0868897 0
M  V30 10799 C 1014.89 -2.17087 -0.889402 0
M  V30 10800 C 1015.9 -1.13809 -1.31619 0
M  V30 10801 O 1017.08 -1.46143 -1.38579 0
M  V30 10802 C 1014.14 -2.73286 -2.13344 0
M  V30 10803 C 1013.2 -3.91491 -1.76164 0
M  V30 10804 C 1012.44 -4.45 -2.94637 0
M  V30 10805 O 1012.66 -3.97467 -4.09116 0
M  V30 10806 O 1011.59 -5.36133 -2.73579 0
M  V30 10807 H 1015.42 -3.00902 -0.411275 0
M  V30 10808 H 1013.01 -1.4877 -0.137015 0
M  V30 10809 H 1014.89 -3.0924 -2.86266 0
M  V30 10810 H 1013.56 -1.92521 -2.60225 0
M  V30 10811 H 1012.47 -3.60363 -1.00447 0
M  V30 10812 H 1013.8 -4.73593 -1.34053 0
M  V30 10813 N 1015.45 0.186762 -1.56489 0
M  V30 10814 C 1016.87 0.750675 -1.70944 0
M  V30 10815 C 1017.22 1.83483 -0.694858 0
M  V30 10816 O 1016.34 2.159 0.147009 0
M  V30 10817 C 1016.94 1.36843 -3.09934 0
M  V30 10818 C 1015.5 1.87934 -3.26125 0
M  V30 10819 C 1014.64 0.75242 -2.66897 0
M  V30 10820 H 1017.59 -0.0384292 -1.58653 0
M  V30 10821 H 1017.61 2.23795 -3.07727 0
M  V30 10822 H 1017.13 0.579135 -3.83755 0
M  V30 10823 H 1015.23 2.69556 -2.57235 0
M  V30 10824 H 1015.34 2.0354 -4.33715 0
M  V30 10825 H 1013.7 1.16888 -2.26295 0
M  V30 10826 H 1014.49 -0.0247769 -3.43291 0
M  V30 10827 N 1016.93 1.50896 0.454776 0
M  V30 10828 C 1018.18 1.61936 1.20248 0
M  V30 10829 C 1018.49 0.332983 1.92745 0
M  V30 10830 O 1019.7 0.322512 2.69578 0
M  V30 10831 C 1018.16 2.85916 2.18587 0
M  V30 10832 C 1017.76 4.21492 1.51818 0
M  V30 10833 C 1019.51 3.06307 2.93898 0
M  V30 10834 C 1017.42 5.3664 2.48539 0
M  V30 10835 H 1016.35 0.603098 0.452536 0
M  V30 10836 H 1019 1.77345 0.471257 0
M  V30 10837 H 1017.38 2.64101 2.95071 0
M  V30 10838 H 1018.55 4.53623 0.810123 0
M  V30 10839 H 1016.87 4.06837 0.887265 0
M  V30 10840 H 1019.46 3.89507 3.66317 0
M  V30 10841 H 1019.81 2.18683 3.54236 0
M  V30 10842 H 1020.34 3.2838 2.24525 0
M  V30 10843 H 1017.08 6.26469 1.92916 0
M  V30 10844 H 1016.6 5.08907 3.17449 0
M  V30 10845 H 1018.28 5.67881 3.10033 0
M  V30 10846 N 1018.41 -0.709066 1.40748 0
M  V30 10847 C 1019.66 -1.4646 1.38681 0
M  V30 10848 C 1019.97 -1.95599 -0.0056209 0
M  V30 10849 O 1021.18 -2.71091 -0.148907 0
M  V30 10850 C 1019.63 -2.64771 2.43771 0
M  V30 10851 C 1019.24 -2.22474 3.88856 0
M  V30 10852 C 1020.99 -3.42475 2.50821 0
M  V30 10853 C 1018.89 -3.37663 4.85528 0
M  V30 10854 H 1017.82 -0.550084 0.515678 0
M  V30 10855 H 1020.47 -0.771074 1.66513 0
M  V30 10856 H 1018.86 -3.36325 2.09048 0
M  V30 10857 H 1020.03 -1.58297 4.32757 0
M  V30 10858 H 1018.35 -1.57798 3.85342 0
M  V30 10859 H 1020.94 -4.28201 3.20232 0
M  V30 10860 H 1021.29 -3.86738 1.54076 0
M  V30 10861 H 1021.82 -2.77969 2.84567 0
M  V30 10862 H 1018.56 -2.98426 5.83628 0
M  V30 10863 H 1018.08 -4.00734 4.46287 0
M  V30 10864 H 1019.76 -4.03636 5.05655 0
M  V30 10865 N 1019.89 -1.26353 -0.941956 0
M  V30 10866 C 1021.3 -1.10774 -1.50287 0
M  V30 10867 C 1021.65 0.312229 -1.937 0
M  V30 10868 O 1020.78 1.20364 -1.79838 0
M  V30 10869 C 1021.37 -2.00473 -2.73123 0
M  V30 10870 C 1019.93 -1.89042 -3.25485 0
M  V30 10871 C 1019.08 -1.93869 -1.98267 0
M  V30 10872 H 1022.03 -1.39454 -0.757523 0
M  V30 10873 H 1022.05 -1.55216 -3.47402 0
M  V30 10874 H 1021.56 -3.03812 -2.41495 0
M  V30 10875 H 1019.66 -0.886341 -3.61904 0
M  V30 10876 H 1019.78 -2.74533 -3.92643 0
M  V30 10877 H 1018.14 -1.37912 -2.14132 0
M  V30 10878 H 1018.92 -2.98837 -1.68972 0
M  V30 10879 N 1021.37 1.14642 -1.08144 0
M  V30 10880 C 1022.61 1.85617 -0.809484 0
M  V30 10881 C 1022.94 1.8279 0.664672 0
M  V30 10882 O 1022.2 1.25178 1.50429 0
M  V30 10883 C 1022.5 3.33953 -1.2732 0
M  V30 10884 C 1022.16 3.56969 -2.7547 0
M  V30 10885 C 1020.82 3.6296 -3.15933 0
M  V30 10886 C 1023.18 3.66014 -3.71057 0
M  V30 10887 C 1020.5 3.75515 -4.50783 0
M  V30 10888 C 1022.86 3.80094 -5.05679 0
M  V30 10889 C 1021.52 3.84333 -5.45751 0
M  V30 10890 H 1020.79 0.67922 -0.296211 0
M  V30 10891 H 1023.44 1.35433 -1.35389 0
M  V30 10892 H 1021.74 3.86399 -0.648329 0
M  V30 10893 H 1023.44 3.87291 -1.03957 0
M  V30 10894 H 1020.03 3.52953 -2.4315 0
M  V30 10895 H 1024.21 3.60679 -3.40917 0
M  V30 10896 H 1019.47 3.77057 -4.81288 0
M  V30 10897 H 1023.64 3.86035 -5.79612 0
M  V30 10898 H 1021.27 3.93814 -6.50242 0
M  V30 10899 N 1022.85 0.866709 1.31628 0
M  V30 10900 C 1024.26 0.558188 1.49521 0
M  V30 10901 C 1024.46 -0.90844 1.7986 0
M  V30 10902 O 1023.52 -1.6908 1.87531 0
M  V30 10903 C 1024.83 1.45559 2.63122 0
M  V30 10904 C 1026.38 1.45728 2.77006 0
M  V30 10905 C 1026.85 2.34017 3.937 0
M  V30 10906 N 1028.34 2.31879 4.00982 0
M  V30 10907 C 1029.08 2.96915 4.90539 0
M  V30 10908 N 1028.58 3.71109 5.85021 0
M  V30 10909 N 1030.37 2.86241 4.83759 0
M  V30 10910 H 1022.52 1.81574 1.10203 0
M  V30 10911 H 1024.78 0.77621 0.544244 0
M  V30 10912 H 1024.49 2.49904 2.47469 0
M  V30 10913 H 1024.36 1.15174 3.59186 0
M  V30 10914 H 1026.75 0.421419 2.92075 0
M  V30 10915 H 1026.83 1.80134 1.81619 0
M  V30 10916 H 1026.47 3.37678 3.79389 0
M  V30 10917 H 1026.4 1.96937 4.88388 0
M  V30 10918 H 1028.9 1.77948 3.33381 0
M  V30 10919 H 1029.21 4.1787 6.5008 0
M  V30 10920 H 1027.55 3.75217 5.8501 0
M  V30 10921 H 1030.74 2.27819 4.08921 0
M  V30 10922 H 1030.92 3.37206 5.5335 0
M  V30 10923 N 1024.32 -1.44642 0.625825 0
M  V30 10924 C 1025.23 -2.34451 -0.0836134 0
M  V30 10925 C 1026.25 -1.5231 -0.841289 0
M  V30 10926 O 1027.43 -1.85056 -0.794754 0
M  V30 10927 C 1024.49 -3.30211 -1.05648 0
M  V30 10928 C 1023.55 -4.28259 -0.298759 0
M  V30 10929 C 1022.78 -5.19444 -1.22528 0
M  V30 10930 O 1023.01 -5.14444 -2.46382 0
M  V30 10931 O 1021.94 -5.97668 -0.71247 0
M  V30 10932 H 1025.77 -2.96555 0.654912 0
M  V30 10933 H 1023.35 -1.44327 0.386029 0
M  V30 10934 H 1025.23 -3.8917 -1.61632 0
M  V30 10935 H 1023.91 -2.70648 -1.77571 0
M  V30 10936 H 1022.82 -3.72863 0.304001 0
M  V30 10937 H 1024.15 -4.90728 0.380345 0
M  V30 10938 N 1025.8 -0.366053 -1.5329 0
M  V30 10939 C 1027.03 0.224236 -2.05681 0
M  V30 10940 C 1027.44 1.42412 -1.23952 0
M  V30 10941 O 1026.8 1.80334 -0.280309 0
M  V30 10942 C 1026.85 0.617266 -3.56191 0
M  V30 10943 O 1026.57 -0.534931 -4.34822 0
M  V30 10944 C 1028.07 1.26589 -4.24841 0
M  V30 10945 H 1025.29 0.0392928 -0.669849 0
M  V30 10946 H 1027.84 -0.52456 -1.97658 0
M  V30 10947 H 1025.99 1.31598 -3.64364 0
M  V30 10948 H 1026.41 -0.217123 -5.2405 0
M  V30 10949 H 1027.88 1.49146 -5.31469 0
M  V30 10950 H 1028.36 2.22633 -3.78591 0
M  V30 10951 H 1028.96 0.6086 -4.20923 0
M  V30 10952 N 1027.28 1.57312 -0.0952337 0
M  V30 10953 C 1028.53 1.93533 0.568131 0
M  V30 10954 C 1028.84 0.979121 1.6933 0
M  V30 10955 O 1030.05 1.23506 2.41782 0
M  V30 10956 C 1028.5 3.43875 1.06198 0
M  V30 10957 C 1028.11 4.47988 -0.0334397 0
M  V30 10958 C 1029.86 3.89057 1.69807 0
M  V30 10959 C 1027.76 5.89483 0.475774 0
M  V30 10960 H 1026.69 0.7224 0.215995 0
M  V30 10961 H 1029.34 1.82699 -0.171257 0
M  V30 10962 H 1027.73 3.49862 1.85506 0
M  V30 10963 H 1028.9 4.53644 -0.808934 0
M  V30 10964 H 1027.21 4.12415 -0.574725 0
M  V30 10965 H 1029.81 4.92171 2.08978 0
M  V30 10966 H 1030.15 3.27713 2.5673 0
M  V30 10967 H 1030.69 3.85772 0.970815 0
M  V30 10968 H 1027.43 6.54528 -0.356837 0
M  V30 10969 H 1026.95 5.87297 1.21827 0
M  V30 10970 H 1028.63 6.40066 0.944697 0
M  V30 10971 N 1028.76 -0.17846 1.56586 0
M  V30 10972 C 1029.99 -0.911996 1.85715 0
M  V30 10973 C 1030.4 -1.76138 0.679766 0
M  V30 10974 O 1029.76 -1.79088 -0.351266 0
M  V30 10975 C 1029.81 -1.79459 3.1381 0
M  V30 10976 O 1029.53 -0.979476 4.2701 0
M  V30 10977 C 1031.03 -2.6384 3.56235 0
M  V30 10978 H 1028.25 -0.265299 0.616326 0
M  V30 10979 H 1030.79 -0.180704 2.037 0
M  V30 10980 H 1028.95 -2.4793 2.97673 0
M  V30 10981 H 1029.36 -1.58244 5.00059 0
M  V30 10982 H 1030.84 -3.21396 4.48786 0
M  V30 10983 H 1031.31 -3.38363 2.80013 0
M  V30 10984 H 1031.92 -2.00712 3.7496 0
M  V30 10985 N 1030.24 -1.51135 -0.446768 0
M  V30 10986 C 1031.18 -1.71767 -1.54158 0
M  V30 10987 C 1032.15 -0.559201 -1.56404 0
M  V30 10988 O 1033.34 -0.792567 -1.7356 0
M  V30 10989 C 1030.48 -1.84006 -2.91952 0
M  V30 10990 C 1029.59 -3.11511 -2.99308 0
M  V30 10991 C 1028.73 -3.144 -4.28166 0
M  V30 10992 C 1027.76 -4.36258 -4.29355 0
M  V30 10993 N 1026.9 -4.3675 -5.49722 0
M  V30 10994 H 1031.74 -2.65224 -1.35869 0
M  V30 10995 H 1029.28 -1.31453 -0.660186 0
M  V30 10996 H 1031.24 -1.89083 -3.71892 0
M  V30 10997 H 1029.87 -0.939661 -3.08821 0
M  V30 10998 H 1028.92 -3.15788 -2.12089 0
M  V30 10999 H 1030.23 -4.01445 -2.96047 0
M  V30 11000 H 1029.38 -3.18341 -5.16473 0
M  V30 11001 H 1028.12 -2.22338 -4.3407 0
M  V30 11002 H 1027.13 -4.32503 -3.39442 0
M  V30 11003 H 1028.35 -5.29574 -4.25122 0
M  V30 11004 H 1026.3 -3.47554 -5.56365 0
M  V30 11005 H 1026.22 -5.20481 -5.48302 0
M  V30 11006 H 1027.48 -4.4487 -6.40086 0
M  V30 11007 N 1031.71 0.701592 -1.41122 0
M  V30 11008 C 1033.12 1.28129 -1.35793 0
M  V30 11009 C 1033.48 1.96163 -0.0381185 0
M  V30 11010 O 1032.6 1.98416 0.863723 0
M  V30 11011 C 1033.2 2.33005 -2.45955 0
M  V30 11012 C 1031.75 2.86566 -2.44043 0
M  V30 11013 C 1030.9 1.60526 -2.26112 0
M  V30 11014 H 1033.85 0.496756 -1.50725 0
M  V30 11015 H 1033.87 3.14163 -2.14667 0
M  V30 11016 H 1033.39 1.8346 -3.42 0
M  V30 11017 H 1031.49 3.40304 -1.51737 0
M  V30 11018 H 1031.6 3.37406 -3.40138 0
M  V30 11019 H 1029.96 1.86113 -1.7388 0
M  V30 11020 H 1030.75 1.12985 -3.24175 0
M  V30 11021 N 1033.19 1.2685 0.935242 0
M  V30 11022 C 1034.6 1.11569 1.49697 0
M  V30 11023 C 1034.95 -0.301952 1.93863 0
M  V30 11024 O 1034.08 -1.19408 1.80473 0
M  V30 11025 C 1034.67 2.01918 2.72056 0
M  V30 11026 C 1033.23 1.90765 3.24477 0
M  V30 11027 C 1032.38 1.94918 1.97237 0
M  V30 11028 H 1035.33 1.39853 0.750116 0
M  V30 11029 H 1035.35 1.57056 3.46574 0
M  V30 11030 H 1034.86 3.05088 2.39881 0
M  V30 11031 H 1032.96 0.905521 3.61429 0
M  V30 11032 H 1033.08 2.76611 3.91182 0
M  V30 11033 H 1031.44 1.39046 2.13397 0
M  V30 11034 H 1032.22 2.99729 1.67385 0
M  V30 11035 N 1034.67 -1.14067 1.0875 0
M  V30 11036 C 1035.62 -2.19261 0.720633 0
M  V30 11037 C 1036.59 -1.63462 -0.294847 0
M  V30 11038 O 1037.77 -1.89967 -0.178058 0
M  V30 11039 C 1034.91 -3.44816 0.139873 0
M  V30 11040 C 1034.03 -4.1475 1.20856 0
M  V30 11041 C 1033.16 -5.27899 0.591285 0
M  V30 11042 C 1032.2 -5.89672 1.64176 0
M  V30 11043 N 1031.34 -6.94264 1.04603 0
M  V30 11044 H 1036.18 -2.49991 1.62198 0
M  V30 11045 H 1033.71 -1.22757 0.810497 0
M  V30 11046 H 1035.67 -4.16648 -0.214587 0
M  V30 11047 H 1034.3 -3.14558 -0.724774 0
M  V30 11048 H 1033.35 -3.41272 1.6804 0
M  V30 11049 H 1034.67 -4.56753 2.00446 0
M  V30 11050 H 1033.82 -6.06417 0.185271 0
M  V30 11051 H 1032.56 -4.87128 -0.236236 0
M  V30 11052 H 1031.56 -5.09854 2.05739 0
M  V30 11053 H 1032.79 -6.32517 2.47182 0
M  V30 11054 H 1030.73 -6.55562 0.239664 0
M  V30 11055 H 1030.65 -7.34771 1.77898 0
M  V30 11056 H 1031.92 -7.7665 0.665989 0
M  V30 11057 N 1036.15 -0.873678 -1.31166 0
M  V30 11058 C 1037.39 -0.487178 -1.96861 0
M  V30 11059 C 1037.73 0.95887 -1.68877 0
M  V30 11060 O 1037 1.6758 -0.987279 0
M  V30 11061 C 1037.29 -0.74925 -3.52219 0
M  V30 11062 C 1037.14 -2.2451 -3.89763 0
M  V30 11063 C 1038.46 -0.218194 -4.39559 0
M  V30 11064 H 1035.58 -0.178477 -0.715063 0
M  V30 11065 H 1038.22 -1.0956 -1.55231 0
M  V30 11066 H 1036.37 -0.231403 -3.8781 0
M  V30 11067 H 1038.04 -2.83049 -3.64254 0
M  V30 11068 H 1036.28 -2.71621 -3.38237 0
M  V30 11069 H 1036.95 -2.37911 -4.98099 0
M  V30 11070 H 1039.43 -0.661274 -4.10812 0
M  V30 11071 H 1038.31 -0.430983 -5.47205 0
M  V30 11072 H 1038.57 0.880056 -4.33252 0
M  V30 11073 N 1037.63 1.44308 -0.633487 0
M  V30 11074 C 1038.9 1.95476 -0.0697262 0
M  V30 11075 C 1039.28 1.57539 1.40516 0
M  V30 11076 O 1038.63 0.850632 2.12077 0
M  V30 11077 C 1038.84 3.4775 -0.295093 0
M  V30 11078 C 1040.19 4.24177 -0.189542 0
M  V30 11079 O 1041.21 3.55479 -0.226586 0
M  V30 11080 O 1040.07 5.46415 -0.096479 0
M  V30 11081 H 1037.17 0.826734 0.0209582 0
M  V30 11082 H 1039.71 1.54347 -0.705354 0
M  V30 11083 H 1038.48 3.6842 -1.31841 0
M  V30 11084 H 1038.11 3.95832 0.37456 0
M  V30 11085 N 1039.1 0.374177 1.53094 0
M  V30 11086 C 1040.04 -0.511995 2.22382 0
M  V30 11087 C 1041.02 -1.07617 1.2189 0
M  V30 11088 O 1042.2 -1.13068 1.50824 0
M  V30 11089 C 1039.33 -1.70724 2.92525 0
M  V30 11090 C 1038.37 -1.26972 4.07161 0
M  V30 11091 S 1039.21 -0.263835 5.3485 0
M  V30 11092 C 1040.36 -1.46521 6.08508 0
M  V30 11093 H 1040.59 0.0764311 2.97202 0
M  V30 11094 H 1038.13 0.158307 1.53586 0
M  V30 11095 H 1040.09 -2.39279 3.3355 0
M  V30 11096 H 1038.75 -2.26693 2.17414 0
M  V30 11097 H 1037.94 -2.16172 4.55286 0
M  V30 11098 H 1037.54 -0.663273 3.68072 0
M  V30 11099 H 1039.83 -2.39483 6.33762 0
M  V30 11100 H 1040.78 -1.02517 7.0064 0
M  V30 11101 H 1041.18 -1.67516 5.39072 0
M  V30 11102 N 1040.58 -1.57259 0.103575 0
M  V30 11103 C 1041.83 -1.94945 -0.558953 0
M  V30 11104 C 1042.16 -0.986038 -1.67305 0
M  V30 11105 O 1041.44 -0.0205464 -1.94489 0
M  V30 11106 C 1041.72 -3.42689 -1.10617 0
M  V30 11107 C 1041.57 -4.498 0.00345246 0
M  V30 11108 C 1042.89 -3.91933 -2.00191 0
M  V30 11109 H 1040.01 -0.708859 -0.201713 0
M  V30 11110 H 1042.65 -1.89183 0.176006 0
M  V30 11111 H 1040.8 -3.4773 -1.73251 0
M  V30 11112 H 1042.47 -4.56866 0.638082 0
M  V30 11113 H 1040.72 -4.28615 0.668705 0
M  V30 11114 H 1041.39 -5.50397 -0.420396 0
M  V30 11115 H 1043.86 -3.89098 -1.4745 0
M  V30 11116 H 1042.74 -4.9586 -2.35402 0
M  V30 11117 H 1043 -3.31722 -2.92255 0
M  V30 11118 N 1042.06 0.170153 -1.56679 0
M  V30 11119 C 1043.01 1.22997 -1.9742 0
M  V30 11120 C 1044 1.45762 -0.863117 0
M  V30 11121 O 1045.21 1.46328 -1.04824 0
M  V30 11122 H 1041.58 0.413482 -0.628122 0
M  V30 11123 H 1043.55 0.859502 -2.85754 0
M  V30 11124 C 1042.3 2.5615 -2.35122 0
M  V30 11125 H 1041.63 2.39456 -3.20158 0
M  V30 11126 H 1043.07 3.28991 -2.67471 0
M  V30 11127 C 1041.53 3.14992 -1.19507 0
M  V30 11128 O 1042.06 3.98781 -0.483357 0
M  V30 11129 N 1040.26 2.74098 -0.965332 0
M  V30 11130 H 1039.81 2.06062 -1.54585 0
M  V30 11131 H 1039.77 3.13803 -0.193611 0
M  V30 11132 N 1043.54 1.5137 0.438746 0
M  V30 11133 C 1044.45 1.75424 1.55768 0
M  V30 11134 C 1045.46 0.638409 1.61865 0
M  V30 11135 O 1046.64 0.9205 1.79133 0
M  V30 11136 C 1043.71 1.87288 2.9176 0
M  V30 11137 C 1042.77 3.11137 2.95791 0
M  V30 11138 C 1042 3.22425 4.25297 0
M  V30 11139 O 1042.22 2.39688 5.17596 0
M  V30 11140 O 1041.16 4.15393 4.35583 0
M  V30 11141 H 1044.98 2.70339 1.38386 0
M  V30 11142 H 1042.57 1.35854 0.621609 0
M  V30 11143 H 1044.45 1.97085 3.72472 0
M  V30 11144 H 1043.12 0.955599 3.09273 0
M  V30 11145 H 1042.03 3.06819 2.1404 0
M  V30 11146 H 1043.36 4.02549 2.83223 0
M  V30 11147 N 1045.02 -0.694098 1.41492 0
M  V30 11148 C 1045.93 -1.83778 1.45818 0
M  V30 11149 C 1046.94 -1.70471 0.348639 0
M  V30 11150 O 1048.12 -1.92361 0.596588 0
M  V30 11151 C 1045.18 -3.19771 1.33967 0
M  V30 11152 C 1044.24 -3.45175 2.5525 0
M  V30 11153 C 1043.48 -4.74681 2.43955 0
M  V30 11154 O 1043.7 -5.51268 1.46491 0
M  V30 11155 O 1042.63 -5.00901 3.33739 0
M  V30 11156 H 1046.46 -1.83084 2.42309 0
M  V30 11157 H 1044.05 -0.847349 1.23046 0
M  V30 11158 H 1045.93 -4.00961 1.29648 0
M  V30 11159 H 1044.6 -3.21145 0.405926 0
M  V30 11160 H 1043.51 -2.6391 2.65146 0
M  V30 11161 H 1044.84 -3.48617 3.47458 0
M  V30 11162 N 1046.49 -1.27344 -0.928501 0
M  V30 11163 C 1047.74 -1.13019 -1.67061 0
M  V30 11164 C 1048.06 0.323614 -1.92904 0
M  V30 11165 O 1049.26 0.587752 -2.65062 0
M  V30 11166 C 1047.72 -1.97471 -3.00887 0
M  V30 11167 C 1047.33 -3.47504 -2.82746 0
M  V30 11168 C 1049.07 -1.91792 -3.78703 0
M  V30 11169 C 1046.98 -4.24158 -4.12122 0
M  V30 11170 H 1045.91 -0.419364 -0.626618 0
M  V30 11171 H 1048.56 -1.51759 -1.03158 0
M  V30 11172 H 1046.94 -1.51576 -3.65843 0
M  V30 11173 H 1048.11 -4.01256 -2.26562 0
M  V30 11174 H 1046.43 -3.54554 -2.18359 0
M  V30 11175 H 1049.03 -2.46339 -4.74575 0
M  V30 11176 H 1049.37 -0.891375 -4.06645 0
M  V30 11177 H 1049.9 -2.35578 -3.20543 0
M  V30 11178 H 1046.64 -5.27333 -3.89359 0
M  V30 11179 H 1046.16 -3.75183 -4.67972 0
M  V30 11180 H 1047.84 -4.33288 -4.80489 0
M  V30 11181 N 1047.97 1.13488 -1.09353 0
M  V30 11182 C 1049.22 1.84383 -0.827488 0
M  V30 11183 C 1049.54 1.83892 0.648745 0
M  V30 11184 O 1048.81 1.29415 1.47066 0
M  V30 11185 H 1047.39 0.682732 -0.303127 0
M  V30 11186 H 1050.05 1.37477 -1.38152 0
M  V30 11187 H 1049.15 2.88919 -1.18035 0
M  V30 11188 N 1049.45 0.880621 1.30701 0
M  V30 11189 C 1050.4 0.342397 2.28246 0
M  V30 11190 C 1051.37 -0.565023 1.56194 0
M  V30 11191 O 1052.55 -0.494377 1.84284 0
M  V30 11192 C 1049.69 -0.440859 3.42272 0
M  V30 11193 C 1048.81 0.495284 4.29151 0
M  V30 11194 C 1047.94 -0.303141 5.30334 0
M  V30 11195 C 1046.98 0.628751 6.08862 0
M  V30 11196 N 1046.12 -0.13408 7.01972 0
M  V30 11197 H 1050.96 1.17938 2.73669 0
M  V30 11198 H 1048.49 0.59296 1.34619 0
M  V30 11199 H 1050.45 -0.910854 4.07135 0
M  V30 11200 H 1049.08 -1.24245 2.97931 0
M  V30 11201 H 1048.13 1.08376 3.64635 0
M  V30 11202 H 1049.45 1.2094 4.83916 0
M  V30 11203 H 1048.6 -0.835181 6.00924 0
M  V30 11204 H 1047.34 -1.05049 4.76252 0
M  V30 11205 H 1046.34 1.17246 5.37153 0
M  V30 11206 H 1047.57 1.37512 6.65032 0
M  V30 11207 H 1045.52 -0.864046 6.50285 0
M  V30 11208 H 1045.43 0.520486 7.54206 0
M  V30 11209 H 1046.7 -0.647005 7.7681 0
M  V30 11210 N 1050.93 -1.4397 0.641131 0
M  V30 11211 C 1051.86 -2.28997 -0.0963315 0
M  V30 11212 C 1052.87 -1.4184 -0.799071 0
M  V30 11213 O 1054.06 -1.65896 -0.658846 0
M  V30 11214 C 1051.16 -3.18465 -1.15903 0
M  V30 11215 C 1050.34 -4.34093 -0.536828 0
M  V30 11216 C 1049.4 -5.04522 -1.4948 0
M  V30 11217 O 1048.42 -5.60202 -1.00807 0
M  V30 11218 N 1049.62 -5.06899 -2.82901 0
M  V30 11219 H 1052.39 -2.9293 0.633422 0
M  V30 11220 H 1049.95 -1.54527 0.48302 0
M  V30 11221 H 1051.94 -3.62445 -1.80044 0
M  V30 11222 H 1050.51 -2.56214 -1.79089 0
M  V30 11223 H 1049.73 -3.9318 0.283414 0
M  V30 11224 H 1051.02 -5.08698 -0.101966 0
M  V30 11225 H 1050.42 -4.63012 -3.25017 0
M  V30 11226 H 1048.97 -5.54637 -3.42376 0
M  V30 11227 N 1052.41 -0.382291 -1.52893 0
M  V30 11228 C 1053.34 0.491199 -2.23875 0
M  V30 11229 C 1054.35 1.03249 -1.25871 0
M  V30 11230 O 1055.54 0.936016 -1.5199 0
M  V30 11231 C 1052.64 1.6927 -2.936 0
M  V30 11232 C 1051.81 1.28 -4.18252 0
M  V30 11233 C 1050.87 2.34541 -4.71038 0
M  V30 11234 O 1049.9 1.96239 -5.34302 0
M  V30 11235 N 1051.1 3.6636 -4.50289 0
M  V30 11236 H 1053.87 -0.116897 -2.99472 0
M  V30 11237 H 1051.43 -0.208296 -1.60554 0
M  V30 11238 H 1053.42 2.40054 -3.25816 0
M  V30 11239 H 1051.99 2.20729 -2.21354 0
M  V30 11240 H 1051.21 0.40133 -3.92152 0
M  V30 11241 H 1052.5 0.98082 -4.99257 0
M  V30 11242 H 1051.9 4.00245 -3.99775 0
M  V30 11243 H 1050.45 4.332 -4.87013 0
M  V30 11244 N 1053.89 1.57202 -0.111913 0
M  V30 11245 C 1054.83 2.14936 0.840908 0
M  V30 11246 C 1055.8 1.07242 1.2684 0
M  V30 11247 O 1056.99 1.35114 1.34718 0
M  V30 11248 C 1054.13 2.74743 2.0883 0
M  V30 11249 C 1053.24 3.96723 1.70982 0
M  V30 11250 C 1052.38 4.4464 2.90634 0
M  V30 11251 C 1051.41 5.59169 2.48992 0
M  V30 11252 N 1050.55 6.01862 3.61534 0
M  V30 11253 H 1055.39 2.96034 0.341735 0
M  V30 11254 H 1052.93 1.4626 0.156993 0
M  V30 11255 H 1054.89 3.07546 2.81907 0
M  V30 11256 H 1053.52 1.96346 2.56218 0
M  V30 11257 H 1052.57 3.70127 0.878072 0
M  V30 11258 H 1053.88 4.79795 1.36373 0
M  V30 11259 H 1053.03 4.79315 3.71944 0
M  V30 11260 H 1051.77 3.60503 3.28464 0
M  V30 11261 H 1050.78 5.24106 1.66113 0
M  V30 11262 H 1052 6.45067 2.12287 0
M  V30 11263 H 1049.95 5.20667 3.99051 0
M  V30 11264 H 1049.87 6.79772 3.30827 0
M  V30 11265 H 1051.13 6.41172 4.43305 0
M  V30 11266 N 1055.36 -0.161842 1.56767 0
M  V30 11267 C 1056.61 -0.878224 1.82798 0
M  V30 11268 C 1056.94 -1.81481 0.691242 0
M  V30 11269 O 1056.22 -1.92075 -0.30618 0
M  V30 11270 C 1056.5 -1.66565 3.19262 0
M  V30 11271 C 1056.35 -0.751551 4.43477 0
M  V30 11272 C 1057.67 -2.63134 3.52773 0
M  V30 11273 H 1054.79 -0.317828 0.664947 0
M  V30 11274 H 1057.43 -0.14402 1.89453 0
M  V30 11275 H 1055.58 -2.29157 3.13719 0
M  V30 11276 H 1057.26 -0.137783 4.61094 0
M  V30 11277 H 1055.5 -0.0601785 4.33758 0
M  V30 11278 H 1056.17 -1.33823 5.35533 0
M  V30 11279 H 1058.65 -2.10666 3.5883 0
M  V30 11280 H 1057.52 -3.15289 4.49315 0
M  V30 11281 H 1057.78 -3.43786 2.77963 0
M  V30 11282 N 1056.84 -1.516 -0.430713 0
M  V30 11283 C 1057.8 -1.72794 -1.50582 0
M  V30 11284 C 1058.8 -0.597903 -1.49271 0
M  V30 11285 O 1059.99 -0.865535 -1.51176 0
M  V30 11286 C 1057.13 -1.79049 -2.90093 0
M  V30 11287 H 1058.32 -2.68751 -1.33091 0
M  V30 11288 H 1055.87 -1.4169 -0.659822 0
M  V30 11289 H 1056.61 -0.849309 -3.12981 0
M  V30 11290 H 1056.39 -2.61181 -2.92449 0
M  V30 11291 H 1057.88 -1.97262 -3.68072 0
M  V30 11292 N 1058.32 0.686584 -1.41858 0
M  V30 11293 C 1059.57 1.44879 -1.41908 0
M  V30 11294 C 1059.9 1.94175 -0.0311408 0
M  V30 11295 O 1059.17 1.70131 0.942646 0
M  V30 11296 C 1059.46 2.65428 -2.43352 0
M  V30 11297 C 1059.31 2.2184 -3.91289 0
M  V30 11298 C 1060.63 3.67635 -2.41934 0
M  V30 11299 H 1057.75 0.525477 -0.516762 0
M  V30 11300 H 1060.39 0.781263 -1.73194 0
M  V30 11301 H 1058.54 3.2238 -2.16803 0
M  V30 11302 H 1060.21 1.70146 -4.28775 0
M  V30 11303 H 1058.45 1.53531 -4.05722 0
M  V30 11304 H 1059.13 3.08376 -4.5783 0
M  V30 11305 H 1061.6 3.20376 -2.65516 0
M  V30 11306 H 1060.48 4.49579 -3.14913 0
M  V30 11307 H 1060.74 4.17953 -1.44111 0
M  V30 11308 N 1059.8 1.27835 0.921735 0
M  V30 11309 C 1061.05 1.13904 1.6646 0
M  V30 11310 C 1061.36 -0.313379 1.93073 0
M  V30 11311 O 1062.57 -0.573687 2.6537 0
M  V30 11312 C 1061.02 1.99064 2.99836 0
M  V30 11313 C 1060.63 3.48998 2.80899 0
M  V30 11314 C 1062.37 1.93797 3.77681 0
M  V30 11315 C 1060.28 4.26337 4.09867 0
M  V30 11316 H 1059.21 0.422681 0.624385 0
M  V30 11317 H 1061.86 1.52303 1.02352 0
M  V30 11318 H 1060.24 1.53514 3.65034 0
M  V30 11319 H 1061.42 4.02452 2.24431 0
M  V30 11320 H 1059.73 3.55707 2.16476 0
M  V30 11321 H 1062.33 2.48852 4.73262 0
M  V30 11322 H 1062.67 0.912928 4.06167 0
M  V30 11323 H 1063.21 2.37275 3.19289 0
M  V30 11324 H 1059.94 5.2939 3.86557 0
M  V30 11325 H 1059.46 3.77659 4.65976 0
M  V30 11326 H 1061.14 4.3583 4.78185 0
M  V30 11327 N 1061.28 -1.12907 1.09954 0
M  V30 11328 C 1062.23 -2.16558 0.713204 0
M  V30 11329 C 1063.21 -1.5853 -0.27515 0
M  V30 11330 O 1064.4 -1.76797 -0.0846643 0
M  V30 11331 C 1061.53 -3.43009 0.141224 0
M  V30 11332 C 1060.62 -4.08032 1.15632 0
M  V30 11333 N 1061.01 -4.48139 2.34531 0
M  V30 11334 C 1059.31 -4.34743 0.995701 0
M  V30 11335 C 1060.01 -4.98885 2.99147 0
M  V30 11336 N 1058.98 -4.9408 2.26684 0
M  V30 11337 H 1062.78 -2.45328 1.61838 0
M  V30 11338 H 1060.3 -1.29759 0.976539 0
M  V30 11339 H 1062.3 -4.16617 -0.153598 0
M  V30 11340 H 1060.96 -3.15711 -0.758729 0
M  V30 11341 H 1061.97 -4.40668 2.72089 0
M  V30 11342 H 1058.64 -4.17227 0.150888 0
M  V30 11343 H 1060.03 -5.3967 4.00257 0
M  V30 11344 N 1062.75 -0.88754 -1.30232 0
M  V30 11345 C 1063.69 -0.313488 -2.27046 0
M  V30 11346 C 1064.7 0.533383 -1.53814 0
M  V30 11347 O 1065.89 0.352516 -1.74984 0
M  V30 11348 C 1062.99 0.572674 -3.34026 0
M  V30 11349 C 1062.16 -0.245712 -4.36709 0
M  V30 11350 C 1061.22 0.57135 -5.23089 0
M  V30 11351 O 1060.25 -0.00685948 -5.692 0
M  V30 11352 N 1061.45 1.87994 -5.49216 0
M  V30 11353 H 1064.21 -1.14553 -2.76943 0
M  V30 11354 H 1061.77 -0.750785 -1.43439 0
M  V30 11355 H 1063.77 1.12539 -3.88738 0
M  V30 11356 H 1062.34 1.3054 -2.84039 0
M  V30 11357 H 1061.56 -0.979869 -3.81827 0
M  V30 11358 H 1062.84 -0.806618 -5.02366 0
M  V30 11359 H 1062.24 2.3726 -5.13541 0
M  V30 11360 H 1060.8 2.38005 -6.06792 0
M  V30 11361 N 1064.23 1.43628 -0.648757 0
M  V30 11362 C 1065.17 2.28001 0.0952198 0
M  V30 11363 C 1066.14 1.39569 0.834225 0
M  V30 11364 O 1067.33 1.69011 0.834711 0
M  V30 11365 C 1064.45 3.18886 1.14145 0
M  V30 11366 C 1063.5 4.23547 0.500996 0
M  V30 11367 S 1064.33 5.30609 -0.722118 0
M  V30 11368 C 1065.49 6.25062 0.323687 0
M  V30 11369 H 1065.72 2.90752 -0.620511 0
M  V30 11370 H 1063.26 1.48073 -0.437457 0
M  V30 11371 H 1065.21 3.71795 1.74008 0
M  V30 11372 H 1063.87 2.55322 1.82947 0
M  V30 11373 H 1063.07 4.87224 1.28954 0
M  V30 11374 H 1062.67 3.73993 -0.0234176 0
M  V30 11375 H 1064.96 6.66946 1.19118 0
M  V30 11376 H 1065.9 7.07554 -0.277939 0
M  V30 11377 H 1066.31 5.60658 0.657493 0
M  V30 11378 N 1065.71 0.390394 1.52688 0
M  V30 11379 C 1066.66 -0.444229 2.26485 0
M  V30 11380 C 1067.63 -1.05688 1.28138 0
M  V30 11381 O 1068.81 -1.0847 1.56968 0
M  V30 11382 C 1065.95 -1.56501 3.07574 0
M  V30 11383 C 1065.07 -0.975111 4.20851 0
M  V30 11384 C 1064.2 -2.06704 4.89333 0
M  V30 11385 C 1063.24 -1.45309 5.94602 0
M  V30 11386 N 1062.38 -2.48437 6.56676 0
M  V30 11387 H 1067.22 0.191535 2.97384 0
M  V30 11388 H 1064.75 0.106287 1.46716 0
M  V30 11389 H 1066.71 -2.22558 3.52879 0
M  V30 11390 H 1065.34 -2.17107 2.38881 0
M  V30 11391 H 1064.39 -0.204109 3.79852 0
M  V30 11392 H 1065.71 -0.486465 4.96422 0
M  V30 11393 H 1064.86 -2.80528 5.37949 0
M  V30 11394 H 1063.6 -2.58928 4.13289 0
M  V30 11395 H 1062.6 -0.700091 5.45324 0
M  V30 11396 H 1063.83 -0.938775 6.7258 0
M  V30 11397 H 1061.77 -2.99829 5.83471 0
M  V30 11398 H 1061.69 -2.04331 7.27863 0
M  V30 11399 H 1062.96 -3.21888 7.09935 0
M  V30 11400 N 1067.19 -1.57141 0.120249 0
M  V30 11401 C 1068.1 -2.18925 -0.843155 0
M  V30 11402 C 1069.11 -1.16575 -1.29175 0
M  V30 11403 O 1070.29 -1.4905 -1.35448 0
M  V30 11404 C 1067.36 -2.7775 -2.075 0
M  V30 11405 C 1066.42 -3.95139 -1.6782 0
M  V30 11406 C 1065.65 -4.51149 -2.85132 0
M  V30 11407 O 1065.87 -4.06056 -4.00593 0
M  V30 11408 O 1064.81 -5.41815 -2.62145 0
M  V30 11409 H 1068.63 -3.01707 -0.347357 0
M  V30 11410 H 1066.22 -1.49028 -0.105427 0
M  V30 11411 H 1068.1 -3.15243 -2.79643 0
M  V30 11412 H 1066.77 -1.97998 -2.56083 0
M  V30 11413 H 1065.68 -3.62412 -0.927807 0
M  V30 11414 H 1067.01 -4.7633 -1.23977 0
M  V30 11415 N 1068.67 0.153526 -1.5685 0
M  V30 11416 C 1069.94 0.895545 -1.73895 0
M  V30 11417 C 1070.32 1.99625 -0.686504 0
M  V30 11418 O 1069.67 2.26579 0.2957 0
M  V30 11419 C 1069.88 1.44399 -3.17726 0
M  V30 11420 C 1071.23 1.90996 -3.79217 0
M  V30 11421 O 1072.25 1.54155 -3.21115 0
M  V30 11422 O 1071.11 2.58917 -4.81274 0
M  V30 11423 H 1068.21 0.422755 -0.710779 0
M  V30 11424 H 1070.75 0.139961 -1.69122 0
M  V30 11425 H 1069.52 0.652635 -3.85819 0
M  V30 11426 H 1069.15 2.26326 -3.26898 0
M  V30 11427 N 1070.14 1.51827 0.422667 0
M  V30 11428 C 1071.08 1.70409 1.53275 0
M  V30 11429 C 1072.09 0.584584 1.51942 0
M  V30 11430 O 1073.28 0.859349 1.56453 0
M  V30 11431 C 1070.38 1.717 2.92185 0
M  V30 11432 C 1069.55 3.00472 3.17861 0
M  V30 11433 C 1068.61 2.93755 4.36571 0
M  V30 11434 O 1067.64 3.67682 4.3451 0
M  V30 11435 N 1068.84 2.10612 5.40946 0
M  V30 11436 H 1071.6 2.66176 1.37734 0
M  V30 11437 H 1069.16 1.49895 0.611799 0
M  V30 11438 H 1071.16 1.64756 3.69645 0
M  V30 11439 H 1069.73 0.834655 3.01251 0
M  V30 11440 H 1068.95 3.21171 2.28567 0
M  V30 11441 H 1070.23 3.85684 3.31851 0
M  V30 11442 H 1069.63 1.49954 5.45463 0
M  V30 11443 H 1068.19 2.09535 6.17202 0
M  V30 11444 N 1071.62 -0.679052 1.4222 0
M  V30 11445 C 1072.85 -1.47248 1.46058 0
M  V30 11446 C 1073.27 -1.87962 0.0720987 0
M  V30 11447 O 1072.63 -1.5572 -0.928488 0
M  V30 11448 C 1072.68 -2.70067 2.38948 0
M  V30 11449 O 1071.78 -3.68178 1.85791 0
M  V30 11450 H 1071.12 -0.442533 0.495036 0
M  V30 11451 H 1073.65 -0.833263 1.86863 0
M  V30 11452 H 1073.66 -3.18187 2.55385 0
M  V30 11453 H 1072.34 -2.39773 3.39826 0
M  V30 11454 H 1070.92 -3.2719 1.78889 0
M  V30 11455 N 1073.1 -1.28322 -0.914942 0
M  V30 11456 C 1074.05 -1.12146 -2.01722 0
M  V30 11457 C 1075.02 -0.0189279 -1.66089 0
M  V30 11458 O 1076.2 -0.183638 -1.89914 0
M  V30 11459 C 1073.34 -0.78808 -3.35981 0
M  V30 11460 C 1072.46 -1.96954 -3.84491 0
M  V30 11461 C 1071.59 -1.57688 -5.07255 0
M  V30 11462 C 1070.63 -2.72506 -5.48094 0
M  V30 11463 N 1069.77 -2.33741 -6.62049 0
M  V30 11464 H 1074.61 -2.06461 -2.1489 0
M  V30 11465 H 1072.14 -1.0276 -1.05256 0
M  V30 11466 H 1074.1 -0.575546 -4.13211 0
M  V30 11467 H 1072.73 0.118132 -3.22584 0
M  V30 11468 H 1071.78 -2.29423 -3.03429 0
M  V30 11469 H 1073.1 -2.8304 -4.10719 0
M  V30 11470 H 1072.25 -1.32634 -5.92025 0
M  V30 11471 H 1070.99 -0.687291 -4.82833 0
M  V30 11472 H 1069.99 -2.9826 -4.61867 0
M  V30 11473 H 1071.22 -3.62106 -5.74505 0
M  V30 11474 H 1069.16 -1.4725 -6.3926 0
M  V30 11475 H 1069.08 -3.13364 -6.87997 0
M  V30 11476 H 1070.35 -2.11968 -7.50127 0
M  V30 11477 N 1074.58 1.12322 -1.10551 0
M  V30 11478 C 1075.83 1.83216 -0.84349 0
M  V30 11479 C 1076.14 1.85075 0.632992 0
M  V30 11480 O 1077.35 2.51976 1.01095 0
M  V30 11481 C 1075.8 3.28994 -1.45915 0
M  V30 11482 C 1075.41 3.3549 -2.96901 0
M  V30 11483 C 1077.15 4.0485 -1.27657 0
M  V30 11484 C 1075.06 4.7561 -3.51496 0
M  V30 11485 H 1073.99 0.686471 -0.311887 0
M  V30 11486 H 1076.64 1.26463 -1.32964 0
M  V30 11487 H 1075.02 3.85621 -0.900678 0
M  V30 11488 H 1076.2 2.88795 -3.59074 0
M  V30 11489 H 1074.51 2.73107 -3.14327 0
M  V30 11490 H 1077.11 5.08316 -1.65889 0
M  V30 11491 H 1077.45 4.15727 -0.218258 0
M  V30 11492 H 1077.99 3.54584 -1.80318 0
M  V30 11493 H 1074.73 4.69927 -4.56999 0
M  V30 11494 H 1074.25 5.22753 -2.94091 0
M  V30 11495 H 1075.92 5.44552 -3.49388 0
M  V30 11496 N 1076.06 0.894434 1.2976 0
M  V30 11497 C 1077.47 0.566892 1.77885 0
M  V30 11498 C 1077.82 -0.917289 1.73437 0
M  V30 11499 O 1076.94 -1.71707 1.31703 0
M  V30 11500 C 1077.54 1.02227 3.2301 0
M  V30 11501 C 1076.1 0.745978 3.68934 0
M  V30 11502 C 1075.24 1.19993 2.49994 0
M  V30 11503 H 1078.2 1.0777 1.16496 0
M  V30 11504 H 1078.22 0.355281 3.78838 0
M  V30 11505 H 1077.73 2.1025 3.26215 0
M  V30 11506 H 1075.83 -0.321866 3.71207 0
M  V30 11507 H 1075.94 1.34017 4.59974 0
M  V30 11508 H 1074.31 0.619047 2.47063 0
M  V30 11509 H 1075.09 2.28811 2.55931 0
M  V30 11510 N 1077.53 -1.43282 0.656365 0
M  V30 11511 C 1078.44 -2.34576 -0.033864 0
M  V30 11512 C 1079.46 -1.5406 -0.808793 0
M  V30 11513 O 1080.64 -1.867 -0.755322 0
M  V30 11514 C 1077.7 -3.32378 -0.986197 0
M  V30 11515 C 1076.76 -4.28797 -0.207851 0
M  V30 11516 C 1076 -5.21927 -1.11482 0
M  V30 11517 O 1076.22 -5.19554 -2.35414 0
M  V30 11518 O 1075.15 -5.99045 -0.585536 0
M  V30 11519 H 1078.98 -2.95099 0.717668 0
M  V30 11520 H 1076.56 -1.43475 0.416556 0
M  V30 11521 H 1078.45 -3.9251 -1.53341 0
M  V30 11522 H 1077.12 -2.74354 -1.7179 0
M  V30 11523 H 1076.03 -3.72134 0.383022 0
M  V30 11524 H 1077.36 -4.89811 0.48435 0
M  V30 11525 N 1079.01 -0.398486 -1.52479 0
M  V30 11526 C 1080.26 0.180394 -2.01293 0
M  V30 11527 C 1080.58 1.46548 -1.28641 0
M  V30 11528 O 1079.85 1.91579 -0.409173 0
M  V30 11529 H 1078.43 0.0696528 -0.743746 0
M  V30 11530 H 1081.09 -0.532285 -1.87491 0
M  V30 11531 H 1080.19 0.38409 -3.09728 0
M  V30 11532 N 1080.49 1.57075 -0.12858 0
M  V30 11533 C 1081.74 1.94695 0.526952 0
M  V30 11534 C 1082.05 1.01482 1.67215 0
M  V30 11535 O 1083.26 1.28606 2.39108 0
M  V30 11536 C 1081.72 3.4605 0.988801 0
M  V30 11537 C 1081.32 4.47816 -0.128457 0
M  V30 11538 C 1083.07 3.92572 1.61517 0
M  V30 11539 C 1080.97 5.9036 0.350628 0
M  V30 11540 H 1079.9 0.726819 0.200623 0
M  V30 11541 H 1082.56 1.82295 -0.209972 0
M  V30 11542 H 1080.94 3.53718 1.78043 0
M  V30 11543 H 1082.11 4.51826 -0.904976 0
M  V30 11544 H 1080.43 4.11103 -0.662075 0
M  V30 11545 H 1083.02 4.96493 1.98491 0
M  V30 11546 H 1083.37 3.33085 2.49721 0
M  V30 11547 H 1083.9 3.87744 0.888768 0
M  V30 11548 H 1080.64 6.53624 -0.495592 0
M  V30 11549 H 1080.16 5.89749 1.09342 0
M  V30 11550 H 1081.84 6.41926 0.808717 0
M  V30 11551 N 1081.97 -0.145205 1.5693 0
M  V30 11552 C 1082.9 -1.20438 1.95006 0
M  V30 11553 C 1083.91 -1.39085 0.846114 0
M  V30 11554 O 1085.1 -1.38625 1.12452 0
M  V30 11555 C 1082.2 -2.56892 2.21043 0
M  V30 11556 C 1081.38 -2.59197 3.52329 0
M  V30 11557 C 1080.44 -3.77204 3.66884 0
M  V30 11558 O 1079.46 -3.61995 4.39259 0
M  V30 11559 N 1080.66 -4.9473 3.03682 0
M  V30 11560 H 1083.43 -0.880709 2.86467 0
M  V30 11561 H 1080.99 -0.334751 1.58401 0
M  V30 11562 H 1082.98 -3.34349 2.2802 0
M  V30 11563 H 1081.55 -2.81544 1.35838 0
M  V30 11564 H 1080.77 -1.67644 3.56776 0
M  V30 11565 H 1082.06 -2.57771 4.3867 0
M  V30 11566 H 1081.46 -5.09989 2.44801 0
M  V30 11567 H 1080.01 -5.69956 3.16218 0
M  V30 11568 N 1083.45 -1.52049 -0.414609 0
M  V30 11569 C 1084.69 -1.66084 -1.16379 0
M  V30 11570 C 1085.03 -0.386932 -1.90306 0
M  V30 11571 O 1084.3 0.614441 -1.8454 0
M  V30 11572 C 1084.58 -2.87927 -2.16264 0
M  V30 11573 C 1084.44 -4.25353 -1.46269 0
M  V30 11574 C 1085.76 -3.05289 -3.16996 0
M  V30 11575 H 1082.88 -0.604414 -0.421726 0
M  V30 11576 H 1085.52 -1.8459 -0.450177 0
M  V30 11577 H 1083.67 -2.7228 -2.77121 0
M  V30 11578 H 1085.34 -4.52717 -0.885743 0
M  V30 11579 H 1083.58 -4.27006 -0.76472 0
M  V30 11580 H 1084.25 -5.06644 -2.19126 0
M  V30 11581 H 1086.73 -3.19798 -2.66212 0
M  V30 11582 H 1085.61 -3.92065 -3.84156 0
M  V30 11583 H 1085.87 -2.1836 -3.84411 0
M  V30 11584 N 1084.93 0.6715 -1.42579 0
M  V30 11585 C 1086.2 1.42766 -1.33706 0
M  V30 11586 C 1086.58 2.11086 0.0239748 0
M  V30 11587 O 1085.93 2.03479 1.03964 0
M  V30 11588 C 1086.14 2.42739 -2.50756 0
M  V30 11589 C 1087.49 3.07284 -2.93021 0
M  V30 11590 O 1088.51 2.53066 -2.50671 0
M  V30 11591 O 1087.37 4.05541 -3.66331 0
M  V30 11592 H 1084.47 0.636955 -0.527463 0
M  V30 11593 H 1087.01 0.699946 -1.54593 0
M  V30 11594 H 1085.78 1.91076 -3.41476 0
M  V30 11595 H 1085.41 3.22986 -2.31874 0
M  V30 11596 N 1086.4 1.28806 0.908124 0
M  V30 11597 C 1087.63 1.19271 1.69674 0
M  V30 11598 C 1088.05 -0.244403 1.86505 0
M  V30 11599 O 1087.41 -1.17668 1.37927 0
M  V30 11600 C 1087.46 1.9023 3.06341 0
M  V30 11601 O 1086.56 1.2136 3.94139 0
M  V30 11602 H 1085.9 0.413738 0.519343 0
M  V30 11603 H 1088.43 1.70227 1.13508 0
M  V30 11604 H 1088.44 1.98356 3.56537 0
M  V30 11605 H 1087.12 2.94762 2.93408 0
M  V30 11606 H 1085.7 1.21435 3.52573 0
M  V30 11607 N 1087.88 -1.11734 1.11145 0
M  V30 11608 C 1089.16 -1.79795 0.770261 0
M  V30 11609 C 1089.54 -1.97624 -0.742158 0
M  V30 11610 O 1088.89 -1.55847 -1.67105 0
M  V30 11611 C 1089.1 -3.13684 1.52982 0
M  V30 11612 C 1090.44 -3.88771 1.70711 0
M  V30 11613 O 1091.47 -3.23363 1.49381 0
M  V30 11614 O 1090.33 -5.06134 2.06132 0
M  V30 11615 H 1087.42 -0.778617 0.27872 0
M  V30 11616 H 1089.97 -1.18504 1.2147 0
M  V30 11617 H 1088.74 -2.96043 2.55879 0
M  V30 11618 H 1088.36 -3.82687 1.07873 0
M  V30 11619 N 1089.36 -0.901303 -1.29284 0
M  V30 11620 C 1090.61 -0.527 -1.95108 0
M  V30 11621 C 1090.93 0.930065 -1.71391 0
M  V30 11622 O 1090.2 1.65601 -1.04658 0
M  V30 11623 H 1088.78 -0.191903 -0.721929 0
M  V30 11624 H 1091.44 -1.14795 -1.57506 0
M  V30 11625 H 1090.54 -0.710945 -3.03895 0
M  V30 11626 N 1090.84 1.42931 -0.663954 0
M  V30 11627 C 1091.77 2.33499 0.00731327 0
M  V30 11628 C 1092.75 1.50074 0.800733 0
M  V30 11629 O 1093.93 1.78708 0.760062 0
M  V30 11630 C 1091.06 3.33569 0.966897 0
M  V30 11631 C 1090.02 4.27064 0.282839 0
M  V30 11632 C 1089.34 5.17257 1.35461 0
M  V30 11633 C 1090.64 5.1564 -0.831438 0
M  V30 11634 H 1092.34 2.89879 -0.749044 0
M  V30 11635 H 1089.88 1.39385 -0.361656 0
M  V30 11636 H 1091.84 3.95833 1.44549 0
M  V30 11637 H 1090.56 2.75469 1.75455 0
M  V30 11638 H 1089.22 3.6618 -0.175417 0
M  V30 11639 H 1088.87 4.5549 2.13397 0
M  V30 11640 H 1088.57 5.80634 0.902098 0
M  V30 11641 H 1090.09 5.82395 1.83436 0
M  V30 11642 H 1091.51 5.71651 -0.434534 0
M  V30 11643 H 1089.9 5.87794 -1.20908 0
M  V30 11644 H 1090.97 4.54687 -1.68487 0
M  V30 11645 N 1092.32 0.406567 1.52266 0
M  V30 11646 C 1093.56 -0.171391 2.00971 0
M  V30 11647 C 1093.88 -1.46443 1.29668 0
M  V30 11648 O 1095.08 -2.12348 1.69176 0
M  V30 11649 C 1093.54 -0.35599 3.58135 0
M  V30 11650 C 1093.15 0.924803 4.38351 0
M  V30 11651 C 1094.89 -0.889378 4.15079 0
M  V30 11652 C 1092.8 0.707534 5.87152 0
M  V30 11653 H 1091.73 -0.0678253 0.750943 0
M  V30 11654 H 1094.38 0.531619 1.7563 0
M  V30 11655 H 1092.76 -1.12127 3.79794 0
M  V30 11656 H 1093.94 1.69603 4.28452 0
M  V30 11657 H 1092.25 1.38442 3.92712 0
M  V30 11658 H 1094.85 -1.06792 5.23927 0
M  V30 11659 H 1095.19 -1.86334 3.7227 0
M  V30 11660 H 1095.72 -0.183224 3.97378 0
M  V30 11661 H 1092.46 1.65299 6.34316 0
M  V30 11662 H 1091.98 -0.024446 5.99795 0
M  V30 11663 H 1093.66 0.348721 6.4606 0
M  V30 11664 N 1093.79 -1.57004 0.136909 0
M  V30 11665 C 1095.02 -2.00156 -0.523936 0
M  V30 11666 C 1095.44 -1.01688 -1.59075 0
M  V30 11667 O 1094.79 -0.0123678 -1.82496 0
M  V30 11668 C 1094.85 -3.4326 -1.13379 0
M  V30 11669 O 1094.57 -4.37963 -0.109598 0
M  V30 11670 C 1096.07 -4.01637 -1.87623 0
M  V30 11671 H 1093.29 -0.65681 -0.137263 0
M  V30 11672 H 1095.83 -2.03219 0.228522 0
M  V30 11673 H 1093.99 -3.4108 -1.83693 0
M  V30 11674 H 1094.4 -5.21555 -0.55503 0
M  V30 11675 H 1095.87 -5.03795 -2.25597 0
M  V30 11676 H 1096.35 -3.41781 -2.75831 0
M  V30 11677 H 1096.96 -4.07417 -1.22031 0
M  V30 11678 N 1095.27 0.136881 -1.57004 0
M  V30 11679 C 1096.52 0.846257 -1.83088 0
M  V30 11680 C 1096.83 1.81876 -0.719765 0
M  V30 11681 O 1098.04 2.57302 -0.866494 0
M  V30 11682 C 1096.5 1.55559 -3.24545 0
M  V30 11683 C 1096.1 0.624989 -4.43619 0
M  V30 11684 C 1097.85 2.25115 -3.59893 0
M  V30 11685 C 1095.76 1.33653 -5.761 0
M  V30 11686 H 1094.69 0.319768 -0.682836 0
M  V30 11687 H 1097.34 0.0989741 -1.83233 0
M  V30 11688 H 1095.72 2.34887 -3.18817 0
M  V30 11689 H 1096.89 -0.133783 -4.60606 0
M  V30 11690 H 1095.21 0.0373216 -4.16383 0
M  V30 11691 H 1097.8 2.79008 -4.56134 0
M  V30 11692 H 1098.15 3.02084 -2.86446 0
M  V30 11693 H 1098.68 1.52696 -3.67327 0
M  V30 11694 H 1095.42 0.608495 -6.5267 0
M  V30 11695 H 1094.94 2.06776 -5.63031 0
M  V30 11696 H 1096.62 1.87467 -6.19246 0
M  V30 11697 N 1096.75 1.52266 0.40654 0
M  V30 11698 C 1097.98 1.70304 1.17491 0
M  V30 11699 C 1098.39 0.413656 1.84213 0
M  V30 11700 O 1097.75 -0.610524 1.71985 0
M  V30 11701 C 1097.8 2.84045 2.23609 0
M  V30 11702 O 1097.52 4.0799 1.5961 0
M  V30 11703 C 1099.02 3.13614 3.13306 0
M  V30 11704 H 1096.24 0.570669 0.352955 0
M  V30 11705 H 1098.79 1.98836 0.477967 0
M  V30 11706 H 1096.94 2.58025 2.88967 0
M  V30 11707 H 1097.36 4.7139 2.29983 0
M  V30 11708 H 1098.83 3.96707 3.83833 0
M  V30 11709 H 1099.31 2.27272 3.75824 0
M  V30 11710 H 1099.91 3.41409 2.53614 0
M  V30 11711 N 1098.23 -0.663929 1.42933 0
M  V30 11712 C 1099.46 -1.45192 1.474 0
M  V30 11713 C 1099.87 -1.88592 0.0886014 0
M  V30 11714 O 1099.23 -1.58824 -0.898962 0
M  V30 11715 C 1099.28 -2.69394 2.41059 0
M  V30 11716 O 1099 -2.27812 3.7421 0
M  V30 11717 C 1100.5 -3.62855 2.54659 0
M  V30 11718 H 1097.72 -0.446394 0.500973 0
M  V30 11719 H 1100.27 -0.814875 1.87563 0
M  V30 11720 H 1098.42 -3.29262 2.0412 0
M  V30 11721 H 1098.83 -3.08095 4.24474 0
M  V30 11722 H 1100.31 -4.46698 3.24291 0
M  V30 11723 H 1100.79 -4.09487 1.58799 0
M  V30 11724 H 1101.39 -3.08874 2.92364 0
M  V30 11725 N 1099.71 -1.29285 -0.901281 0
M  V30 11726 C 1101.12 -1.15499 -1.46686 0
M  V30 11727 C 1101.47 0.250446 -1.94595 0
M  V30 11728 O 1100.59 1.14581 -1.83576 0
M  V30 11729 C 1101.19 -2.0906 -2.66607 0
M  V30 11730 C 1099.75 -1.99301 -3.19306 0
M  V30 11731 C 1098.89 -2.00079 -1.91999 0
M  V30 11732 H 1101.85 -1.41793 -0.712773 0
M  V30 11733 H 1101.87 -1.6619 -3.42288 0
M  V30 11734 H 1101.38 -3.11341 -2.31707 0
M  V30 11735 H 1099.48 -1.00103 -3.58901 0
M  V30 11736 H 1099.59 -2.86885 -3.8371 0
M  V30 11737 H 1097.96 -1.44655 -2.09636 0
M  V30 11738 H 1098.74 -3.04061 -1.59379 0
M  V30 11739 N 1101.18 1.11143 -1.11736 0
M  V30 11740 C 1102.13 2.19358 -0.773626 0
M  V30 11741 C 1103.13 1.67744 0.236288 0
M  V30 11742 O 1104.33 1.79748 0.09525 0
M  V30 11743 H 1100.71 0.715218 -0.232309 0
M  V30 11744 H 1102.68 2.45594 -1.69487 0
M  V30 11745 C 1101.43 3.46895 -0.236457 0
M  V30 11746 H 1100.75 3.86967 -1.00483 0
M  V30 11747 H 1102.19 4.23986 -0.034168 0
M  V30 11748 C 1100.65 3.20641 1.03397 0
M  V30 11749 O 1101.18 3.41629 2.11312 0
M  V30 11750 N 1099.39 2.74356 0.957986 0
M  V30 11751 H 1098.93 2.57477 0.0796924 0
M  V30 11752 H 1098.89 2.57166 1.80867 0
M  V30 11753 N 1102.66 0.908147 1.28804 0
M  V30 11754 C 1103.61 0.390734 2.27468 0
M  V30 11755 C 1104.58 -0.531765 1.57358 0
M  V30 11756 O 1105.76 -0.455177 1.85291 0
M  V30 11757 C 1102.9 -0.368159 3.43131 0
M  V30 11758 C 1102.02 0.586202 4.28004 0
M  V30 11759 C 1101.15 -0.190581 5.30858 0
M  V30 11760 C 1100.19 0.757758 6.07391 0
M  V30 11761 N 1099.33 0.0148488 7.02098 0
M  V30 11762 H 1104.17 1.23717 2.71105 0
M  V30 11763 H 1101.71 0.621382 1.33331 0
M  V30 11764 H 1103.66 -0.824289 4.08976 0
M  V30 11765 H 1102.29 -1.17898 3.00499 0
M  V30 11766 H 1101.35 1.16086 3.62254 0
M  V30 11767 H 1102.66 1.31177 4.81242 0
M  V30 11768 H 1101.81 -0.707528 6.0256 0
M  V30 11769 H 1100.55 -0.949234 4.78373 0
M  V30 11770 H 1099.56 1.28613 5.34545 0
M  V30 11771 H 1100.78 1.51588 6.61965 0
M  V30 11772 H 1098.73 -0.725916 6.51971 0
M  V30 11773 H 1098.64 0.680347 7.52932 0
M  V30 11774 H 1099.91 -0.482086 7.78008 0
M  V30 11775 N 1104.14 -1.42577 0.671525 0
M  V30 11776 C 1105.07 -2.33499 0.00506984 0
M  V30 11777 C 1106.05 -1.50497 -0.792763 0
M  V30 11778 O 1107.24 -1.79109 -0.750574 0
M  V30 11779 C 1104.37 -3.34077 -0.949194 0
M  V30 11780 C 1103.32 -4.27208 -0.260187 0
M  V30 11781 C 1102.65 -5.17968 -1.32716 0
M  V30 11782 C 1103.95 -5.15192 0.858772 0
M  V30 11783 H 1105.64 -2.89477 0.764407 0
M  V30 11784 H 1103.19 -1.39191 0.369043 0
M  V30 11785 H 1105.14 -3.96594 -1.42448 0
M  V30 11786 H 1103.86 -2.76396 -1.73991 0
M  V30 11787 H 1102.52 -3.66082 0.194834 0
M  V30 11788 H 1102.17 -4.56615 -2.10979 0
M  V30 11789 H 1101.87 -5.81104 -0.871293 0
M  V30 11790 H 1103.39 -5.83359 -1.80345 0
M  V30 11791 H 1104.81 -5.71412 0.464844 0
M  V30 11792 H 1103.21 -5.87144 1.24023 0
M  V30 11793 H 1104.28 -4.53787 1.70895 0
M  V30 11794 N 1105.62 -0.414636 -1.52048 0
M  V30 11795 C 1106.58 0.396285 -2.25748 0
M  V30 11796 C 1107.58 0.969003 -1.28324 0
M  V30 11797 O 1108.77 0.847016 -1.52221 0
M  V30 11798 C 1105.9 1.55838 -3.03195 0
M  V30 11799 H 1107.1 -0.249311 -2.98862 0
M  V30 11800 H 1104.65 -0.167276 -1.55402 0
M  V30 11801 H 1105.38 2.24068 -2.34444 0
M  V30 11802 H 1105.17 1.15414 -3.74729 0
M  V30 11803 H 1106.66 2.13187 -3.59084 0
M  V30 11804 N 1107.1 1.56929 -0.145233 0
M  V30 11805 C 1108.32 2.00431 0.513314 0
M  V30 11806 C 1108.74 1.0253 1.58534 0
M  V30 11807 O 1108.1 0.0220459 1.82487 0
M  V30 11808 C 1108.15 3.43856 1.11557 0
M  V30 11809 O 1107.87 4.38015 0.0863707 0
M  V30 11810 C 1109.37 4.02627 1.8549 0
M  V30 11811 H 1106.59 0.657529 0.133778 0
M  V30 11812 H 1109.13 2.03095 -0.239296 0
M  V30 11813 H 1107.29 3.4205 1.81881 0
M  V30 11814 H 1107.7 5.21842 0.527363 0
M  V30 11815 H 1109.18 5.04985 2.22923 0
M  V30 11816 H 1109.65 3.43239 2.74014 0
M  V30 11817 H 1110.26 4.08058 1.19869 0
M  V30 11818 N 1108.58 -0.128553 1.57075 0
M  V30 11819 C 1109.51 -1.15953 2.02675 0
M  V30 11820 C 1110.49 -1.43743 0.909501 0
M  V30 11821 O 1111.67 -1.54348 1.17857 0
M  V30 11822 C 1108.8 -2.48813 2.423 0
M  V30 11823 C 1107.76 -2.35506 3.57381 0
M  V30 11824 C 1107.08 -3.73243 3.82875 0
M  V30 11825 C 1108.38 -1.82359 4.89431 0
M  V30 11826 H 1110.08 -0.780283 2.89054 0
M  V30 11827 H 1107.62 -0.373896 1.39061 0
M  V30 11828 H 1109.57 -3.21179 2.72804 0
M  V30 11829 H 1108.3 -2.88609 1.52881 0
M  V30 11830 H 1106.96 -1.6559 3.27071 0
M  V30 11831 H 1106.61 -4.10507 2.90677 0
M  V30 11832 H 1106.31 -3.65195 4.60333 0
M  V30 11833 H 1107.83 -4.47128 4.15823 0
M  V30 11834 H 1109.24 -2.44533 5.18533 0
M  V30 11835 H 1107.64 -1.85156 5.70822 0
M  V30 11836 H 1108.71 -0.780478 4.78578 0
M  V30 11837 N 1110.05 -1.5248 -0.398459 0
M  V30 11838 C 1111.28 -1.71221 -1.17039 0
M  V30 11839 C 1111.7 -0.425515 -1.83224 0
M  V30 11840 O 1111.06 0.617938 -1.70444 0
M  V30 11841 C 1111.11 -2.8562 -2.20121 0
M  V30 11842 O 1110.21 -2.51934 -3.26501 0
M  V30 11843 H 1109.55 -0.569654 -0.34116 0
M  V30 11844 H 1112.08 -1.99231 -0.465652 0
M  V30 11845 H 1112.09 -3.10842 -2.64275 0
M  V30 11846 H 1110.77 -3.78969 -1.71334 0
M  V30 11847 H 1109.35 -2.3742 -2.87552 0
M  V30 11848 N 1111.53 0.65634 -1.43283 0
M  V30 11849 C 1112.78 1.41837 -1.44949 0
M  V30 11850 C 1113.11 1.94065 -0.0723212 0
M  V30 11851 O 1112.39 1.72092 0.906346 0
M  V30 11852 C 1112.67 2.60206 -2.48927 0
M  V30 11853 C 1112.52 2.1349 -3.95907 0
M  V30 11854 C 1113.84 3.62421 -2.49678 0
M  V30 11855 H 1110.96 0.514398 -0.527792 0
M  V30 11856 H 1113.6 0.74435 -1.74813 0
M  V30 11857 H 1111.75 3.17708 -2.23592 0
M  V30 11858 H 1113.42 1.61012 -4.32288 0
M  V30 11859 H 1111.67 1.4489 -4.08888 0
M  V30 11860 H 1112.34 2.98596 -4.64268 0
M  V30 11861 H 1114.81 3.14671 -2.72252 0
M  V30 11862 H 1113.69 4.42798 -3.24378 0
M  V30 11863 H 1113.95 4.14802 -1.52944 0
M  V30 11864 N 1113.01 1.29761 0.894412 0
M  V30 11865 C 1114.43 1.07888 1.17611 0
M  V30 11866 C 1114.63 -0.16644 2.00811 0
M  V30 11867 O 1113.68 -0.86272 2.37304 0
M  V30 11868 C 1114.99 2.33723 1.89193 0
M  V30 11869 C 1116.54 2.39095 2.01997 0
M  V30 11870 C 1117.02 3.64747 2.7699 0
M  V30 11871 N 1118.51 3.65501 2.84541 0
M  V30 11872 C 1119.24 4.59411 3.43117 0
M  V30 11873 N 1118.74 5.63657 4.02818 0
M  V30 11874 N 1120.53 4.46971 3.40842 0
M  V30 11875 H 1112.68 2.0967 0.339421 0
M  V30 11876 H 1114.95 0.923788 0.212882 0
M  V30 11877 H 1114.65 3.24551 1.35496 0
M  V30 11878 H 1114.53 2.41642 2.89636 0
M  V30 11879 H 1116.91 1.48751 2.54867 0
M  V30 11880 H 1116.99 2.35158 1.0067 0
M  V30 11881 H 1116.64 4.55445 2.24794 0
M  V30 11882 H 1116.57 3.65944 3.78672 0
M  V30 11883 H 1119.06 2.90129 2.42144 0
M  V30 11884 H 1119.37 6.31429 4.45552 0
M  V30 11885 H 1117.72 5.67461 4.01265 0
M  V30 11886 H 1120.91 3.64719 2.93424 0
M  V30 11887 H 1121.08 5.20341 3.86198 0
M  V30 11888 N 1114.49 -1.10549 1.12324 0
M  V30 11889 C 1115.45 -2.15039 0.793156 0
M  V30 11890 C 1116.45 -1.59651 -0.19192 0
M  V30 11891 O 1117.64 -1.74167 0.0337262 0
M  V30 11892 C 1114.77 -3.40433 0.17842 0
M  V30 11893 H 1115.97 -2.4575 1.71892 0
M  V30 11894 H 1113.52 -1.25892 0.926333 0
M  V30 11895 H 1114.25 -3.15338 -0.757122 0
M  V30 11896 H 1114.04 -3.81921 0.887645 0
M  V30 11897 H 1115.53 -4.17584 -0.0360724 0
M  V30 11898 N 1115.97 -0.914965 -1.28321 0
M  V30 11899 C 1116.9 -0.348729 -2.2552 0
M  V30 11900 C 1117.88 0.547737 -1.53097 0
M  V30 11901 O 1119.06 0.491119 -1.8199 0
M  V30 11902 C 1116.19 0.501397 -3.34968 0
M  V30 11903 C 1115.23 -0.329859 -4.25223 0
M  V30 11904 S 1116.07 -1.73737 -5.06533 0
M  V30 11905 C 1117.22 -0.89458 -6.19474 0
M  V30 11906 H 1117.46 -1.17256 -2.732 0
M  V30 11907 H 1114.99 -0.716297 -1.36779 0
M  V30 11908 H 1116.95 0.986061 -3.98481 0
M  V30 11909 H 1115.61 1.29962 -2.85952 0
M  V30 11910 H 1114.8 0.320236 -5.02982 0
M  V30 11911 H 1114.4 -0.748221 -3.66439 0
M  V30 11912 H 1116.69 -0.124776 -6.77385 0
M  V30 11913 H 1117.64 -1.64475 -6.88733 0
M  V30 11914 H 1118.05 -0.442217 -5.62765 0
M  V30 11915 N 1117.44 1.42219 -0.679077 0
M  V30 11916 C 1118.85 1.8459 -0.279877 0
M  V30 11917 C 1119.21 1.56839 1.17881 0
M  V30 11918 O 1118.33 1.03039 1.90294 0
M  V30 11919 C 1118.93 3.35072 -0.501185 0
M  V30 11920 C 1117.48 3.76076 -0.156065 0
M  V30 11921 C 1116.63 2.65763 -0.791549 0
M  V30 11922 H 1119.58 1.32005 -0.880932 0
M  V30 11923 H 1119.6 3.79708 0.245349 0
M  V30 11924 H 1119.12 3.55239 -1.56291 0
M  V30 11925 H 1117.22 3.61516 0.90205 0
M  V30 11926 H 1117.33 4.75334 -0.599572 0
M  V30 11927 H 1115.69 2.53726 -0.222514 0
M  V30 11928 H 1116.48 2.88751 -1.85682 0
M  V30 11929 N 1118.92 0.422693 1.51826 0
M  V30 11930 C 1119.85 -0.386913 2.30272 0
M  V30 11931 C 1120.83 -1.03411 1.35056 0
M  V30 11932 O 1122.02 -1.04055 1.6397 0
M  V30 11933 C 1119.15 -1.49645 3.13407 0
M  V30 11934 C 1118.1 -0.973532 4.16781 0
M  V30 11935 C 1117.43 -2.1777 4.88344 0
M  V30 11936 C 1118.73 -0.0181194 5.22297 0
M  V30 11937 H 1120.42 0.267697 2.98201 0
M  V30 11938 H 1117.97 0.130186 1.4341 0
M  V30 11939 H 1119.92 -2.06993 3.67059 0
M  V30 11940 H 1118.64 -2.17914 2.43272 0
M  V30 11941 H 1117.3 -0.42237 3.64159 0
M  V30 11942 H 1116.95 -2.84625 4.14726 0
M  V30 11943 H 1116.65 -1.83427 5.58237 0
M  V30 11944 H 1118.18 -2.75699 5.44814 0
M  V30 11945 H 1119.59 -0.500822 5.71108 0
M  V30 11946 H 1117.99 0.237163 5.99631 0
M  V30 11947 H 1119.06 0.923065 4.76033 0
M  V30 11948 N 1120.4 -1.5685 0.153553 0
M  V30 11949 C 1121.81 -1.83074 -0.36618 0
M  V30 11950 C 1122.16 -1.07257 -1.64288 0
M  V30 11951 O 1121.29 -0.319925 -2.14022 0
M  V30 11952 C 1121.88 -3.32086 -0.671142 0
M  V30 11953 C 1120.44 -3.58868 -1.13537 0
M  V30 11954 C 1119.59 -2.76827 -0.161887 0
M  V30 11955 H 1122.54 -1.54129 0.378139 0
M  V30 11956 H 1122.56 -3.48598 -1.52512 0
M  V30 11957 H 1122.07 -3.8724 0.258234 0
M  V30 11958 H 1120.17 -3.09107 -2.08047 0
M  V30 11959 H 1120.29 -4.67299 -1.05682 0
M  V30 11960 H 1118.65 -2.46112 -0.6558 0
M  V30 11961 H 1119.43 -3.34755 0.761195 0
M  V30 11962 N 1121.88 0.120221 -1.57141 0
M  V30 11963 C 1122.79 1.16641 -2.03549 0
M  V30 11964 C 1123.8 1.45407 -0.955656 0
M  V30 11965 O 1124.98 1.56547 -1.26708 0
M  V30 11966 C 1122.04 2.4734 -2.42948 0
M  V30 11967 C 1121.11 2.25982 -3.65008 0
M  V30 11968 C 1120.34 3.50449 -4.02518 0
M  V30 11969 O 1120.56 4.57706 -3.40384 0
M  V30 11970 O 1119.5 3.41524 -4.95626 0
M  V30 11971 H 1123.32 0.802323 -2.9291 0
M  V30 11972 H 1120.91 0.330927 -1.45689 0
M  V30 11973 H 1122.79 3.24348 -2.69029 0
M  V30 11974 H 1121.46 2.83225 -1.56733 0
M  V30 11975 H 1120.37 1.46837 -3.44078 0
M  V30 11976 H 1121.7 1.95002 -4.51924 0
M  V30 11977 N 1123.36 1.52689 0.390367 0
M  V30 11978 C 1124.27 1.8029 1.50108 0
M  V30 11979 C 1125.28 0.689582 1.59752 0
M  V30 11980 O 1126.46 0.977024 1.76114 0
M  V30 11981 C 1123.52 1.96475 2.85654 0
M  V30 11982 C 1122.58 3.2039 2.85743 0
M  V30 11983 C 1121.82 3.35793 4.14824 0
M  V30 11984 O 1122.04 2.56033 5.09709 0
M  V30 11985 O 1120.97 4.2904 4.22147 0
M  V30 11986 H 1124.8 2.74605 1.29715 0
M  V30 11987 H 1122.39 1.37763 0.578074 0
M  V30 11988 H 1124.27 2.08835 3.66013 0
M  V30 11989 H 1122.94 1.05351 3.06077 0
M  V30 11990 H 1121.85 3.13473 2.0417 0
M  V30 11991 H 1123.18 4.11356 2.70272 0
M  V30 11992 N 1124.83 -0.648732 1.43629 0
M  V30 11993 C 1126.08 -1.41066 1.45699 0
M  V30 11994 C 1126.41 -1.94024 0.082612 0
M  V30 11995 O 1125.69 -1.7257 -0.897207 0
M  V30 11996 C 1125.97 -2.58882 2.50304 0
M  V30 11997 C 1125.82 -2.11387 3.97033 0
M  V30 11998 C 1127.14 -3.61092 2.51597 0
M  V30 11999 H 1124.26 -0.511591 0.530512 0
M  V30 12000 H 1126.9 -0.735069 1.75205 0
M  V30 12001 H 1125.05 -3.16518 2.25274 0
M  V30 12002 H 1126.73 -1.58718 4.33136 0
M  V30 12003 H 1124.97 -1.4272 4.0965 0
M  V30 12004 H 1125.64 -2.96129 4.65845 0
M  V30 12005 H 1128.12 -3.13223 2.73917 0
M  V30 12006 H 1126.99 -4.41071 3.26722 0
M  V30 12007 H 1127.25 -4.13985 1.55141 0
M  V30 12008 N 1126.31 -1.30234 -0.887518 0
M  V30 12009 C 1127.54 -1.21829 -1.67229 0
M  V30 12010 C 1127.96 0.219251 -1.87523 0
M  V30 12011 O 1127.31 1.14526 -1.42091 0
M  V30 12012 C 1127.36 -1.94044 -3.05007 0
M  V30 12013 O 1127.08 -3.32185 -2.85631 0
M  V30 12014 C 1128.59 -1.92265 -3.99436 0
M  V30 12015 H 1125.81 -0.421716 -0.521916 0
M  V30 12016 H 1128.35 -1.71816 -1.10903 0
M  V30 12017 H 1126.5 -1.47861 -3.58072 0
M  V30 12018 H 1126.92 -3.68724 -3.73018 0
M  V30 12019 H 1128.39 -2.47336 -4.93486 0
M  V30 12020 H 1128.87 -0.900984 -4.29859 0
M  V30 12021 H 1129.48 -2.38247 -3.52305 0
M  V30 12022 N 1127.79 1.09952 -1.12909 0
M  V30 12023 C 1128.72 2.16257 -0.759305 0
M  V30 12024 C 1129.74 1.61355 0.216427 0
M  V30 12025 O 1130.92 1.785 -0.00297224 0
M  V30 12026 C 1128.02 3.38741 -0.103908 0
M  V30 12027 C 1127.2 4.23072 -1.11037 0
M  V30 12028 C 1126.26 5.23991 -0.481667 0
M  V30 12029 O 1125.28 5.57665 -1.14011 0
M  V30 12030 N 1126.48 5.75652 0.748698 0
M  V30 12031 H 1129.25 2.48588 -1.67405 0
M  V30 12032 H 1126.81 1.25617 -1.02137 0
M  V30 12033 H 1128.8 4.03362 0.328799 0
M  V30 12034 H 1127.37 3.04344 0.713677 0
M  V30 12035 H 1126.59 3.5467 -1.72054 0
M  V30 12036 H 1127.88 4.76244 -1.79078 0
M  V30 12037 H 1127.28 5.505 1.30253 0
M  V30 12038 H 1125.84 6.42033 1.12415 0
M  V30 12039 N 1129.27 0.921757 1.27833 0
M  V30 12040 C 1130.52 0.55493 1.93916 0
M  V30 12041 C 1130.83 -0.907191 1.7329 0
M  V30 12042 O 1132.04 -1.38253 2.33663 0
M  V30 12043 C 1130.49 0.941644 3.47363 0
M  V30 12044 C 1130.1 2.42404 3.76755 0
M  V30 12045 C 1131.84 0.645785 4.19559 0
M  V30 12046 C 1129.75 2.75046 5.23549 0
M  V30 12047 H 1128.68 0.203818 0.72593 0
M  V30 12048 H 1131.33 1.12176 1.4522 0
M  V30 12049 H 1129.71 0.303519 3.94835 0
M  V30 12050 H 1130.89 3.10957 3.40062 0
M  V30 12051 H 1129.2 2.69118 3.17749 0
M  V30 12052 H 1131.8 0.866237 5.27637 0
M  V30 12053 H 1132.14 -0.41676 4.14209 0
M  V30 12054 H 1132.68 1.24274 3.7789 0
M  V30 12055 H 1129.42 3.80186 5.33984 0
M  V30 12056 H 1128.94 2.11138 5.6141 0
M  V30 12057 H 1130.61 2.62474 5.91368 0
M  V30 12058 N 1130.75 -1.41857 0.686609 0
M  V30 12059 C 1131.68 -2.33481 0.0298353 0
M  V30 12060 C 1132.66 -1.51329 -0.776756 0
M  V30 12061 O 1133.84 -1.79895 -0.731535 0
M  V30 12062 C 1130.97 -3.35065 -0.913707 0
M  V30 12063 C 1129.93 -4.2746 -0.214861 0
M  V30 12064 C 1129.25 -5.19346 -1.27215 0
M  V30 12065 C 1130.55 -5.14252 0.913367 0
M  V30 12066 H 1132.25 -2.8865 0.795067 0
M  V30 12067 H 1129.79 -1.38792 0.383785 0
M  V30 12068 H 1131.75 -3.98082 -1.38234 0
M  V30 12069 H 1130.47 -2.78226 -1.7105 0
M  V30 12070 H 1129.13 -3.65855 0.233651 0
M  V30 12071 H 1128.78 -4.58827 -2.06124 0
M  V30 12072 H 1128.48 -5.81996 -0.80961 0
M  V30 12073 H 1130 -5.85239 -1.74147 0
M  V30 12074 H 1131.41 -5.70887 0.525424 0
M  V30 12075 H 1129.81 -5.85796 1.30244 0
M  V30 12076 H 1130.88 -4.51949 1.75699 0
M  V30 12077 N 1132.22 -0.430739 -1.51599 0
M  V30 12078 C 1133.13 0.390347 -2.3133 0
M  V30 12079 C 1134.15 1.03376 -1.39962 0
M  V30 12080 O 1135.33 1.03057 -1.73035 0
M  V30 12081 C 1132.39 1.48039 -3.13505 0
M  V30 12082 C 1131.45 0.857792 -4.20643 0
M  V30 12083 C 1130.69 1.89589 -4.9889 0
M  V30 12084 O 1130.91 3.11717 -4.77691 0
M  V30 12085 O 1129.84 1.49009 -5.83164 0
M  V30 12086 H 1133.67 -0.260358 -3.02582 0
M  V30 12087 H 1131.25 -0.193428 -1.48143 0
M  V30 12088 H 1133.14 2.11272 -3.64612 0
M  V30 12089 H 1131.81 2.1153 -2.45024 0
M  V30 12090 H 1130.72 0.187592 -3.73629 0
M  V30 12091 H 1132.05 0.266474 -4.91478 0
M  V30 12092 N 1133.7 1.56767 -0.161869 0
M  V30 12093 C 1134.61 2.21083 0.784814 0
M  V30 12094 C 1135.63 1.19959 1.26039 0
M  V30 12095 O 1136.8 1.52588 1.31449 0
M  V30 12096 C 1133.87 2.83153 2.00063 0
M  V30 12097 C 1132.93 3.9945 1.57285 0
M  V30 12098 C 1132.16 4.5855 2.7307 0
M  V30 12099 O 1132.39 4.16534 3.89686 0
M  V30 12100 O 1131.32 5.48575 2.47688 0
M  V30 12101 H 1135.15 3.02522 0.267243 0
M  V30 12102 H 1132.73 1.49255 0.0658783 0
M  V30 12103 H 1134.61 3.22546 2.71186 0
M  V30 12104 H 1133.29 2.04718 2.50744 0
M  V30 12105 H 1132.2 3.64745 0.831393 0
M  V30 12106 H 1133.53 4.7945 1.11304 0
M  V30 12107 N 1135.18 -0.111886 1.57202 0
M  V30 12108 C 1136.13 -1.15585 2.01849 0
M  V30 12109 C 1137.12 -1.42458 0.916621 0
M  V30 12110 O 1138.33 -1.42337 1.10182 0
M  V30 12111 H 1134.7 -0.389885 0.643035 0
M  V30 12112 H 1136.67 -0.752854 2.88747 0
M  V30 12113 C 1135.42 -2.47247 2.44467 0
M  V30 12114 H 1134.75 -2.27409 3.28824 0
M  V30 12115 H 1136.19 -3.18837 2.79497 0
M  V30 12116 C 1134.65 -3.10339 1.31115 0
M  V30 12117 O 1135.18 -3.96713 0.631029 0
M  V30 12118 N 1133.38 -2.70326 1.0664 0
M  V30 12119 H 1132.93 -2.00182 1.62126 0
M  V30 12120 H 1132.89 -3.12869 0.309944 0
M  V30 12121 N 1136.66 -1.52894 -0.382264 0
M  V30 12122 C 1137.88 -1.72453 -1.15216 0
M  V30 12123 C 1138.31 -0.444925 -1.82762 0
M  V30 12124 O 1137.67 0.599825 -1.7109 0
M  V30 12125 C 1137.71 -2.87939 -2.17079 0
M  V30 12126 O 1136.82 -2.55383 -3.23811 0
M  V30 12127 H 1136.16 -0.57324 -0.335099 0
M  V30 12128 H 1138.69 -1.99713 -0.444495 0
M  V30 12129 H 1138.7 -3.13628 -2.60963 0
M  V30 12130 H 1137.37 -3.80765 -1.67305 0
M  V30 12131 H 1135.95 -2.40457 -2.85018 0
M  V30 12132 N 1138.14 0.641106 -1.43971 0
M  V30 12133 C 1139.41 1.39897 -1.36704 0
M  V30 12134 C 1139.79 2.1109 -0.0208051 0
M  V30 12135 O 1139.14 2.05638 0.99625 0
M  V30 12136 C 1139.35 2.37366 -2.55849 0
M  V30 12137 C 1140.7 3.01 -2.99473 0
M  V30 12138 O 1141.72 2.47692 -2.55982 0
M  V30 12139 O 1140.58 3.9768 -3.74851 0
M  V30 12140 H 1137.68 0.625623 -0.540855 0
M  V30 12141 H 1140.22 0.666997 -1.56042 0
M  V30 12142 H 1139 1.8379 -3.45452 0
M  V30 12143 H 1138.62 3.17995 -2.38673 0
M  V30 12144 N 1139.62 1.30703 0.880598 0
M  V30 12145 C 1140.55 1.20033 2.00286 0
M  V30 12146 C 1141.53 0.0899614 1.69862 0
M  V30 12147 O 1142.71 0.272747 1.92275 0
M  V30 12148 C 1139.84 0.895902 3.35546 0
M  V30 12149 C 1138.8 1.96468 3.80242 0
M  V30 12150 C 1138.12 1.51316 5.12843 0
M  V30 12151 C 1139.42 3.37637 3.98496 0
M  V30 12152 H 1141.12 2.13922 2.0947 0
M  V30 12153 H 1138.66 1.02989 1.00644 0
M  V30 12154 H 1140.61 0.807899 4.13583 0
M  V30 12155 H 1139.34 -0.0786636 3.26505 0
M  V30 12156 H 1138 2.0424 3.04437 0
M  V30 12157 H 1137.65 0.52674 5.00234 0
M  V30 12158 H 1137.35 2.22807 5.43719 0
M  V30 12159 H 1138.87 1.43903 5.93401 0
M  V30 12160 H 1140.28 3.326 4.66959 0
M  V30 12161 H 1138.68 4.07253 4.40755 0
M  V30 12162 H 1139.75 3.79205 3.02211 0
M  V30 12163 N 1141.09 -1.09351 1.1349 0
M  V30 12164 C 1142.34 -1.80915 0.89177 0
M  V30 12165 C 1142.66 -1.86688 -0.5837 0
M  V30 12166 O 1143.86 -2.54568 -0.943788 0
M  V30 12167 C 1142.32 -3.25009 1.54587 0
M  V30 12168 C 1141.93 -3.27501 3.05691 0
M  V30 12169 C 1143.67 -4.01323 1.38346 0
M  V30 12170 C 1141.58 -4.66123 3.63983 0
M  V30 12171 H 1140.51 -0.677961 0.329978 0
M  V30 12172 H 1143.16 -1.22893 1.3627 0
M  V30 12173 H 1141.54 -3.83098 1.0026 0
M  V30 12174 H 1142.71 -2.79174 3.66604 0
M  V30 12175 H 1141.03 -2.64677 3.21457 0
M  V30 12176 H 1143.63 -5.03739 1.79307 0
M  V30 12177 H 1143.97 -4.15003 0.328404 0
M  V30 12178 H 1144.5 -3.49679 1.89656 0
M  V30 12179 H 1141.24 -4.57646 4.69298 0
M  V30 12180 H 1140.76 -5.14772 3.07848 0
M  V30 12181 H 1142.44 -5.35097 3.63703 0
M  V30 12182 N 1142.57 -0.928524 -1.27343 0
M  V30 12183 C 1143.99 -0.62889 -1.46687 0
M  V30 12184 C 1144.19 0.821592 -1.83989 0
M  V30 12185 O 1143.24 1.59941 -1.95385 0
M  V30 12186 C 1144.56 -1.57947 -2.55878 0
M  V30 12187 C 1146.1 -1.58778 -2.69738 0
M  V30 12188 C 1146.58 -2.52535 -3.82087 0
M  V30 12189 N 1148.07 -2.50747 -3.89462 0
M  V30 12190 C 1148.81 -3.19981 -4.75814 0
M  V30 12191 N 1148.3 -3.98598 -5.66649 0
M  V30 12192 N 1150.09 -3.08996 -4.69551 0
M  V30 12193 H 1142.25 -1.86625 -1.01414 0
M  V30 12194 H 1144.51 -0.801293 -0.50659 0
M  V30 12195 H 1144.21 -2.61427 -2.35264 0
M  V30 12196 H 1144.09 -1.3218 -3.53282 0
M  V30 12197 H 1146.48 -0.560292 -2.89732 0
M  V30 12198 H 1146.56 -1.88594 -1.72817 0
M  V30 12199 H 1146.2 -3.55395 -3.62846 0
M  V30 12200 H 1146.13 -2.20015 -4.78436 0
M  V30 12201 H 1148.62 -1.93651 -3.24511 0
M  V30 12202 H 1148.93 -4.4841 -6.29403 0
M  V30 12203 H 1147.28 -4.02701 -5.66442 0
M  V30 12204 H 1150.47 -2.4707 -3.97585 0
M  V30 12205 H 1150.64 -3.63223 -5.36631 0
M  V30 12206 N 1144.05 1.41491 -0.694123 0
M  V30 12207 C 1145.27 2.06099 -0.23197 0
M  V30 12208 C 1145.7 1.51888 1.10958 0
M  V30 12209 O 1145.06 0.645247 1.69429 0
M  V30 12210 C 1145.11 3.60053 -0.198522 0
M  V30 12211 O 1144.21 4.04021 0.827067 0
M  V30 12212 H 1143.55 0.654193 -0.113699 0
M  V30 12213 H 1146.08 1.81282 -0.948575 0
M  V30 12214 H 1146.09 4.0799 -0.0288904 0
M  V30 12215 H 1144.77 3.98879 -1.17764 0
M  V30 12216 H 1143.34 3.67593 0.626908 0
M  V30 12217 N 1145.53 0.438773 1.51369 0
M  V30 12218 C 1146.46 -0.417215 2.24354 0
M  V30 12219 C 1147.44 -1.02351 1.26345 0
M  V30 12220 O 1148.62 -1.06569 1.55484 0
M  V30 12221 C 1145.75 -1.58163 2.99503 0
M  V30 12222 C 1144.8 -1.09588 4.1218 0
M  V30 12223 S 1145.63 -0.0367491 5.35487 0
M  V30 12224 C 1146.78 -1.2058 6.14175 0
M  V30 12225 H 1147.02 0.202416 2.9661 0
M  V30 12226 H 1144.55 0.223306 1.52777 0
M  V30 12227 H 1146.51 -2.24917 3.43399 0
M  V30 12228 H 1145.17 -2.17268 2.26833 0
M  V30 12229 H 1144.36 -1.96667 4.64045 0
M  V30 12230 H 1143.96 -0.506564 3.70554 0
M  V30 12231 H 1146.26 -2.12387 6.43349 0
M  V30 12232 H 1147.2 -0.727087 7.04357 0
M  V30 12233 H 1147.61 -1.44501 5.45692 0
M  V30 12234 N 1147.01 -1.56678 0.170181 0
M  V30 12235 C 1147.92 -2.21496 -0.773079 0
M  V30 12236 C 1148.93 -1.20626 -1.25401 0
M  V30 12237 O 1150.11 -1.53283 -1.30638 0
M  V30 12238 C 1147.17 -2.8421 -1.98558 0
M  V30 12239 C 1146.23 -4.00278 -1.55164 0
M  V30 12240 C 1145.47 -4.59992 -2.70634 0
M  V30 12241 O 1145.69 -4.18595 -3.87472 0
M  V30 12242 O 1144.62 -5.49881 -2.44775 0
M  V30 12243 H 1148.45 -3.02659 -0.251195 0
M  V30 12244 H 1146.03 -1.49288 -0.0579621 0
M  V30 12245 H 1147.92 -3.2398 -2.69472 0
M  V30 12246 H 1146.59 -2.06045 -2.49654 0
M  V30 12247 H 1145.5 -3.6518 -0.812038 0
M  V30 12248 H 1146.83 -4.80033 -1.0876 0
M  V30 12249 N 1148.48 0.103547 -1.57259 0
M  V30 12250 C 1149.42 1.15225 -1.98131 0
M  V30 12251 C 1150.43 1.36793 -0.882692 0
M  V30 12252 O 1151.62 1.35595 -1.16088 0
M  V30 12253 C 1148.72 2.50941 -2.27776 0
M  V30 12254 C 1147.89 2.49765 -3.59077 0
M  V30 12255 C 1146.95 3.67344 -3.76756 0
M  V30 12256 O 1145.98 3.50221 -4.48702 0
M  V30 12257 N 1147.18 4.86504 -3.16692 0
M  V30 12258 H 1149.94 0.804448 -2.88702 0
M  V30 12259 H 1147.5 0.292636 -1.59233 0
M  V30 12260 H 1149.5 3.28186 -2.36804 0
M  V30 12261 H 1148.07 2.77843 -1.43255 0
M  V30 12262 H 1147.29 1.58125 -3.61096 0
M  V30 12263 H 1148.57 2.4605 -4.4535 0
M  V30 12264 H 1147.97 5.03319 -2.58236 0
M  V30 12265 H 1146.53 5.61371 -3.31218 0
M  V30 12266 N 1149.96 1.53094 0.37415 0
M  V30 12267 C 1150.89 1.81901 1.46404 0
M  V30 12268 C 1151.87 0.671949 1.56265 0
M  V30 12269 O 1153.06 0.920978 1.70973 0
M  V30 12270 C 1150.19 2.00123 2.83845 0
M  V30 12271 C 1149.14 3.15864 2.88814 0
M  V30 12272 C 1148.47 3.19364 4.28848 0
M  V30 12273 C 1149.77 4.54633 2.57112 0
M  V30 12274 H 1151.46 2.73172 1.22546 0
M  V30 12275 H 1149.01 1.31444 0.588087 0
M  V30 12276 H 1150.96 2.18859 3.6011 0
M  V30 12277 H 1149.68 1.05555 3.09072 0
M  V30 12278 H 1148.34 2.96935 2.15 0
M  V30 12279 H 1147.99 2.2245 4.51137 0
M  V30 12280 H 1147.69 3.97123 4.3309 0
M  V30 12281 H 1149.22 3.40273 5.06997 0
M  V30 12282 H 1150.63 4.73587 3.23091 0
M  V30 12283 H 1149.03 5.34569 2.72683 0
M  V30 12284 H 1150.1 4.60331 1.52392 0
M  V30 12285 N 1151.44 -0.633461 1.44309 0
M  V30 12286 C 1152.67 -1.42033 1.50447 0
M  V30 12287 C 1153.08 -1.88362 0.128585 0
M  V30 12288 O 1152.44 -1.60695 -0.865071 0
M  V30 12289 C 1152.49 -2.6422 2.46719 0
M  V30 12290 O 1152.21 -2.19823 3.78958 0
M  V30 12291 C 1153.71 -3.57372 2.62298 0
M  V30 12292 H 1150.93 -0.435667 0.510329 0
M  V30 12293 H 1153.48 -0.774907 1.8925 0
M  V30 12294 H 1151.63 -3.24859 2.11058 0
M  V30 12295 H 1152.05 -2.99022 4.30913 0
M  V30 12296 H 1153.52 -4.39719 3.33693 0
M  V30 12297 H 1154 -4.06026 1.67449 0
M  V30 12298 H 1154.6 -3.02603 2.9885 0
M  V30 12299 N 1152.92 -1.31168 -0.873655 0
M  V30 12300 C 1154.14 -1.23728 -1.66452 0
M  V30 12301 C 1154.57 0.194869 -1.87088 0
M  V30 12302 O 1153.93 1.1397 -1.40998 0
M  V30 12303 C 1153.97 -1.98285 -3.0119 0
M  V30 12304 O 1153.08 -1.31767 -3.90783 0
M  V30 12305 H 1152.42 -0.427362 -0.508191 0
M  V30 12306 H 1154.95 -1.73176 -1.08955 0
M  V30 12307 H 1154.96 -2.0774 -3.51153 0
M  V30 12308 H 1153.63 -3.02437 -2.8549 0
M  V30 12309 H 1152.21 -1.3074 -3.4923 0
M  V30 12310 N 1154.4 1.08748 -1.14068 0
M  V30 12311 C 1155.62 1.85353 -0.930532 0
M  V30 12312 C 1156.05 1.80892 0.515717 0
M  V30 12313 O 1155.4 1.19146 1.36652 0
M  V30 12314 C 1155.45 3.30962 -1.43167 0
M  V30 12315 O 1154.56 4.0769 -0.621468 0
M  V30 12316 H 1153.9 0.574485 -0.332962 0
M  V30 12317 H 1156.43 1.37282 -1.51707 0
M  V30 12318 H 1156.44 3.81807 -1.43832 0
M  V30 12319 H 1155.11 3.33524 -2.48464 0
M  V30 12320 H 1153.69 3.66587 -0.683267 0
M  V30 12321 N 1155.87 0.935264 1.26849 0
M  V30 12322 C 1156.8 0.457776 2.28969 0
M  V30 12323 C 1157.79 -0.48587 1.63013 0
M  V30 12324 O 1158.97 -0.388998 1.90264 0
M  V30 12325 C 1156.1 -0.283332 3.46142 0
M  V30 12326 C 1155.05 0.573196 4.24144 0
M  V30 12327 C 1154.38 -0.297525 5.33872 0
M  V30 12328 C 1155.68 1.84153 4.88759 0
M  V30 12329 H 1157.37 1.31125 2.69159 0
M  V30 12330 H 1154.92 0.631956 1.29392 0
M  V30 12331 H 1156.87 -0.628366 4.16689 0
M  V30 12332 H 1155.6 -1.1709 3.04889 0
M  V30 12333 H 1154.26 0.901043 3.55354 0
M  V30 12334 H 1153.9 -1.18427 4.8886 0
M  V30 12335 H 1153.6 0.272126 5.8697 0
M  V30 12336 H 1155.13 -0.637961 6.07258 0
M  V30 12337 H 1156.54 1.5641 5.51551 0
M  V30 12338 H 1154.94 2.35528 5.51948 0
M  V30 12339 H 1156.01 2.5565 4.12033 0
M  V30 12340 N 1157.35 -1.41121 0.701616 0
M  V30 12341 C 1158.3 -2.32582 0.0288052 0
M  V30 12342 C 1159.29 -1.5129 -0.762074 0
M  V30 12343 O 1160.5 -1.67185 -0.667014 0
M  V30 12344 H 1156.88 -0.75194 -0.00948675 0
M  V30 12345 H 1158.85 -2.86994 0.817141 0
M  V30 12346 C 1157.6 -3.36137 -0.889217 0
M  V30 12347 H 1156.92 -3.98746 -0.290062 0
M  V30 12348 H 1158.36 -4.0266 -1.32819 0
M  V30 12349 C 1156.82 -2.70504 -2.00821 0
M  V30 12350 O 1157.35 -2.55753 -3.09763 0
M  V30 12351 N 1155.55 -2.29105 -1.78772 0
M  V30 12352 H 1155.1 -2.41303 -0.901708 0
M  V30 12353 H 1155.06 -1.85527 -2.53825 0
M  V30 12354 N 1158.83 -0.446794 -1.51134 0
M  V30 12355 C 1159.74 0.36579 -2.31731 0
M  V30 12356 C 1160.76 1.01886 -1.41051 0
M  V30 12357 O 1161.93 1.01216 -1.74119 0
M  V30 12358 C 1159 1.44705 -3.15058 0
M  V30 12359 C 1158.06 0.813129 -4.21529 0
M  V30 12360 C 1157.29 1.84287 -5.00873 0
M  V30 12361 O 1157.51 3.06633 -4.8097 0
M  V30 12362 O 1156.45 1.42816 -5.84711 0
M  V30 12363 H 1160.27 -0.292436 -3.02289 0
M  V30 12364 H 1157.86 -0.209129 -1.47929 0
M  V30 12365 H 1159.74 2.07393 -3.66833 0
M  V30 12366 H 1158.42 2.08919 -2.47254 0
M  V30 12367 H 1157.32 0.147953 -3.73807 0
M  V30 12368 H 1158.66 0.214331 -4.91733 0
M  V30 12369 N 1160.31 1.56586 -0.178487 0
M  V30 12370 C 1161.56 1.96709 0.4637 0
M  V30 12371 C 1161.88 1.06586 1.63292 0
M  V30 12372 O 1161.15 0.133683 1.95443 0
M  V30 12373 H 1159.73 0.726381 0.174299 0
M  V30 12374 H 1162.39 1.9314 -0.261345 0
M  V30 12375 H 1161.49 3.01164 0.818934 0
M  V30 12376 N 1161.79 -0.095206 1.57312 0
M  V30 12377 C 1162.7 -1.13388 2.05379 0
M  V30 12378 C 1163.71 -1.43868 0.978668 0
M  V30 12379 O 1164.89 -1.54512 1.29182 0
M  V30 12380 C 1161.95 -2.43444 2.46852 0
M  V30 12381 C 1161.01 -2.20146 3.68557 0
M  V30 12382 C 1160.25 -3.44001 4.08043 0
M  V30 12383 O 1160.47 -4.52233 3.47623 0
M  V30 12384 O 1159.4 -3.33596 5.00997 0
M  V30 12385 H 1163.23 -0.755622 2.9415 0
M  V30 12386 H 1160.82 -0.307707 1.46197 0
M  V30 12387 H 1162.7 -3.20027 2.74155 0
M  V30 12388 H 1161.37 -2.80696 1.61219 0
M  V30 12389 H 1160.28 -1.41345 3.46371 0
M  V30 12390 H 1161.61 -1.87787 4.54969 0
M  V30 12391 N 1163.26 -1.53291 -0.366026 0
M  V30 12392 C 1164.21 -1.80367 -1.4687 0
M  V30 12393 C 1165.21 -0.672767 -1.55468 0
M  V30 12394 O 1166.41 -0.8557 -1.5836 0
M  V30 12395 H 1162.79 -0.571076 -0.48926 0
M  V30 12396 H 1164.76 -2.72661 -1.21237 0
M  V30 12397 C 1163.51 -2.01008 -2.8371 0
M  V30 12398 H 1162.83 -2.87468 -2.77853 0
M  V30 12399 H 1164.27 -2.2393 -3.60043 0
M  V30 12400 C 1162.73 -0.789054 -3.27529 0
M  V30 12401 O 1163.26 0.0224712 -4.01694 0
M  V30 12402 N 1161.47 -0.612621 -2.84069 0
M  V30 12403 H 1161.01 -1.27416 -2.23881 0
M  V30 12404 H 1160.97 0.202943 -3.13744 0
M  V30 12405 N 1164.74 0.6258 -1.44643 0
M  V30 12406 C 1165.97 1.41233 -1.51198 0
M  V30 12407 C 1166.39 1.88291 -0.138572 0
M  V30 12408 O 1165.74 1.61151 0.856537 0
M  V30 12409 C 1165.79 2.62908 -2.48117 0
M  V30 12410 O 1165.51 2.1781 -3.80119 0
M  V30 12411 C 1167.02 3.55976 -2.6419 0
M  V30 12412 H 1164.24 0.432954 -0.512632 0
M  V30 12413 H 1166.78 0.76486 -1.89658 0
M  V30 12414 H 1164.93 3.23735 -2.12778 0
M  V30 12415 H 1165.35 2.96732 -4.32493 0
M  V30 12416 H 1166.82 4.37943 -3.3602 0
M  V30 12417 H 1167.3 4.05133 -1.696 0
M  V30 12418 H 1167.91 3.01014 -3.00451 0
M  V30 12419 N 1166.22 1.31629 0.866686 0
M  V30 12420 C 1167.17 1.16149 1.96197 0
M  V30 12421 C 1168.15 0.0716068 1.60741 0
M  V30 12422 O 1169.35 0.296868 1.74493 0
M  V30 12423 C 1166.48 0.874322 3.3198 0
M  V30 12424 C 1165.56 2.00534 3.73693 0
M  V30 12425 N 1165.95 3.25272 3.87339 0
M  V30 12426 C 1164.25 1.90582 4.0323 0
M  V30 12427 C 1164.95 3.99275 4.2303 0
M  V30 12428 N 1163.93 3.27471 4.33894 0
M  V30 12429 H 1167.73 2.10732 2.04864 0
M  V30 12430 H 1165.24 1.23234 1.05769 0
M  V30 12431 H 1167.24 0.7444 4.102 0
M  V30 12432 H 1165.9 -0.0632521 3.24638 0
M  V30 12433 H 1166.91 3.60349 3.71979 0
M  V30 12434 H 1163.59 1.0431 4.0426 0
M  V30 12435 H 1164.98 5.06784 4.41157 0
M  V30 12436 N 1167.7 -1.08142 1.14644 0
M  V30 12437 C 1168.63 -2.14476 0.779437 0
M  V30 12438 C 1169.61 -1.60812 -0.240454 0
M  V30 12439 O 1170.79 -1.88059 -0.128881 0
M  V30 12440 C 1167.92 -3.38333 0.157692 0
M  V30 12441 C 1166.97 -4.10754 1.14819 0
M  V30 12442 S 1167.8 -4.63227 2.68666 0
M  V30 12443 C 1168.96 -5.90367 2.07888 0
M  V30 12444 H 1169.19 -2.45276 1.68009 0
M  V30 12445 H 1166.72 -1.20292 0.967942 0
M  V30 12446 H 1168.68 -4.10038 -0.194607 0
M  V30 12447 H 1167.34 -3.05726 -0.720435 0
M  V30 12448 H 1166.53 -4.99644 0.661226 0
M  V30 12449 H 1166.14 -3.44974 1.44462 0
M  V30 12450 H 1168.43 -6.62107 1.43599 0
M  V30 12451 H 1169.37 -6.43764 2.94913 0
M  V30 12452 H 1169.78 -5.43507 1.52514 0
M  V30 12453 N 1169.18 -0.941978 -1.26351 0
M  V30 12454 C 1170.43 -0.585711 -1.93009 0
M  V30 12455 C 1170.74 0.879507 -1.74711 0
M  V30 12456 O 1171.95 1.34518 -2.35833 0
M  V30 12457 C 1170.4 -0.996787 -3.45821 0
M  V30 12458 C 1170.01 -2.48367 -3.72851 0
M  V30 12459 C 1171.75 -0.712452 -4.18479 0
M  V30 12460 C 1169.66 -2.83341 -5.19107 0
M  V30 12461 H 1168.59 -0.215342 -0.722595 0
M  V30 12462 H 1171.24 -1.14472 -1.43417 0
M  V30 12463 H 1169.62 -0.366295 -3.94302 0
M  V30 12464 H 1170.8 -3.16328 -3.35072 0
M  V30 12465 H 1169.11 -2.74139 -3.13427 0
M  V30 12466 H 1171.71 -0.95007 -5.26192 0
M  V30 12467 H 1172.05 0.350811 -4.14819 0
M  V30 12468 H 1172.59 -1.3027 -3.75865 0
M  V30 12469 H 1169.32 -3.88633 -5.27868 0
M  V30 12470 H 1168.84 -2.20043 -5.5798 0
M  V30 12471 H 1170.52 -2.71849 -5.87118 0
M  V30 12472 N 1170.66 1.40747 -0.709091 0
M  V30 12473 C 1171.61 2.27982 -0.0289269 0
M  V30 12474 C 1172.59 1.42917 0.739164 0
M  V30 12475 O 1173.78 1.66067 0.612433 0
M  V30 12476 C 1170.91 3.31378 0.896856 0
M  V30 12477 C 1170 4.23918 0.124296 0
M  V30 12478 N 1170.39 4.97925 -0.889043 0
M  V30 12479 C 1168.69 4.44562 0.357808 0
M  V30 12480 C 1169.39 5.65754 -1.35268 0
M  V30 12481 N 1168.36 5.3938 -0.676047 0
M  V30 12482 H 1172.16 2.82641 -0.805676 0
M  V30 12483 H 1169.68 1.5312 -0.541105 0
M  V30 12484 H 1171.68 3.92712 1.39939 0
M  V30 12485 H 1170.34 2.78279 1.67305 0
M  V30 12486 H 1171.35 5.02095 -1.2697 0
M  V30 12487 H 1168.02 4.02451 1.11084 0
M  V30 12488 H 1169.41 6.35058 -2.19432 0
M  V30 12489 N 1172.13 0.454803 1.50895 0
M  V30 12490 C 1173.07 -0.383826 2.25963 0
M  V30 12491 C 1174.08 -0.971263 1.30653 0
M  V30 12492 O 1175.27 -0.862434 1.56283 0
M  V30 12493 C 1172.37 -1.55069 3.01342 0
M  V30 12494 C 1171.54 -1.07899 4.23883 0
M  V30 12495 C 1170.6 -2.118 4.81692 0
M  V30 12496 O 1169.63 -1.70523 5.43057 0
M  V30 12497 N 1170.83 -3.44459 4.67256 0
M  V30 12498 H 1173.59 0.259646 2.98573 0
M  V30 12499 H 1171.15 0.284661 1.59378 0
M  V30 12500 H 1173.15 -2.24236 3.36898 0
M  V30 12501 H 1171.72 -2.09917 2.31633 0
M  V30 12502 H 1170.94 -0.213773 3.9362 0
M  V30 12503 H 1172.22 -0.741501 5.03368 0
M  V30 12504 H 1171.62 -3.80716 4.18416 0
M  V30 12505 H 1170.18 -4.0947 5.07127 0
M  V30 12506 N 1173.61 -1.56489 0.186789 0
M  V30 12507 C 1174.56 -2.18703 -0.737402 0
M  V30 12508 C 1175.53 -1.13171 -1.21579 0
M  V30 12509 O 1176.71 -1.41388 -1.28118 0
M  V30 12510 C 1173.85 -2.84394 -1.95484 0
M  V30 12511 C 1172.97 -4.04429 -1.51859 0
M  V30 12512 C 1172.1 -4.58001 -2.69089 0
M  V30 12513 C 1171.14 -5.70412 -2.22029 0
M  V30 12514 N 1170.28 -6.18425 -3.32407 0
M  V30 12515 H 1175.12 -2.97327 -0.200105 0
M  V30 12516 H 1172.65 -1.46842 -0.087032 0
M  V30 12517 H 1174.61 -3.20646 -2.66912 0
M  V30 12518 H 1173.24 -2.08347 -2.46559 0
M  V30 12519 H 1172.29 -3.73895 -0.70048 0
M  V30 12520 H 1173.61 -4.85756 -1.13327 0
M  V30 12521 H 1172.76 -4.96515 -3.48652 0
M  V30 12522 H 1171.5 -3.75764 -3.1089 0
M  V30 12523 H 1170.5 -5.31434 -1.40918 0
M  V30 12524 H 1171.73 -6.54461 -1.81268 0
M  V30 12525 H 1169.68 -5.39113 -3.73755 0
M  V30 12526 H 1169.59 -6.94782 -2.98017 0
M  V30 12527 H 1170.86 -6.61592 -4.12209 0
M  V30 12528 N 1175.09 0.086862 -1.5736 0
M  V30 12529 C 1176.32 0.802167 -1.90717 0
M  V30 12530 C 1176.73 1.71875 -0.781304 0
M  V30 12531 O 1176.09 1.80831 0.246255 0
M  V30 12532 C 1176.14 1.60858 -3.23739 0
M  V30 12533 O 1175.86 0.728851 -4.31995 0
M  V30 12534 C 1177.36 2.42621 -3.71012 0
M  V30 12535 H 1174.58 0.228914 -0.630745 0
M  V30 12536 H 1177.13 0.061634 -2.04407 0
M  V30 12537 H 1175.28 2.30153 -3.11622 0
M  V30 12538 H 1175.7 1.2882 -5.08435 0
M  V30 12539 H 1177.17 2.94683 -4.66761 0
M  V30 12540 H 1177.65 3.21462 -2.99264 0
M  V30 12541 H 1178.25 1.78509 -3.86024 0
M  V30 12542 N 1176.57 1.53483 0.357892 0
M  V30 12543 C 1177.5 1.76757 1.4591 0
M  V30 12544 C 1178.51 0.648502 1.49326 0
M  V30 12545 O 1179.7 0.924932 1.52667 0
M  V30 12546 C 1176.8 1.83938 2.8464 0
M  V30 12547 C 1175.97 3.13683 3.04831 0
M  V30 12548 C 1175.03 3.12007 4.23719 0
M  V30 12549 O 1174.06 3.8578 4.18524 0
M  V30 12550 N 1175.26 2.33366 5.31527 0
M  V30 12551 H 1178.03 2.71778 1.2632 0
M  V30 12552 H 1175.59 1.52355 0.547673 0
M  V30 12553 H 1177.58 1.80285 3.62325 0
M  V30 12554 H 1176.15 0.961675 2.9744 0
M  V30 12555 H 1175.37 3.30576 2.14739 0
M  V30 12556 H 1176.66 3.99412 3.15194 0
M  V30 12557 H 1176.06 1.72954 5.38613 0
M  V30 12558 H 1174.61 2.35524 6.07759 0
M  V30 12559 N 1178.05 -0.61812 1.44973 0
M  V30 12560 C 1178.96 -1.7579 1.55355 0
M  V30 12561 C 1179.97 -1.68384 0.438512 0
M  V30 12562 O 1181.15 -1.88928 0.697715 0
M  V30 12563 C 1178.21 -3.1222 1.50729 0
M  V30 12564 C 1177.27 -3.3116 2.73188 0
M  V30 12565 C 1176.51 -4.61082 2.68774 0
M  V30 12566 O 1176.73 -5.42728 1.75507 0
M  V30 12567 O 1175.66 -4.82506 3.59821 0
M  V30 12568 H 1179.49 -1.69983 2.51674 0
M  V30 12569 H 1177.07 -0.780934 1.27365 0
M  V30 12570 H 1178.96 -3.93524 1.5072 0
M  V30 12571 H 1177.63 -3.18541 0.575587 0
M  V30 12572 H 1176.54 -2.49485 2.78762 0
M  V30 12573 H 1177.87 -3.29709 3.65449 0
M  V30 12574 N 1179.52 -1.32087 -0.859693 0
M  V30 12575 C 1180.47 -1.20601 -1.96784 0
M  V30 12576 C 1181.44 -0.089355 -1.65859 0
M  V30 12577 O 1182.63 -0.264022 -1.88964 0
M  V30 12578 C 1179.77 -0.929872 -3.32336 0
M  V30 12579 C 1178.88 -2.13084 -3.75791 0
M  V30 12580 C 1178.01 -1.79061 -5.00111 0
M  V30 12581 C 1177.05 -2.95507 -5.36043 0
M  V30 12582 N 1176.19 -2.61611 -6.5154 0
M  V30 12583 H 1181.03 -2.1539 -2.0594 0
M  V30 12584 H 1178.57 -1.07131 -1.00803 0
M  V30 12585 H 1180.52 -0.750285 -4.10398 0
M  V30 12586 H 1179.15 -0.0187929 -3.22795 0
M  V30 12587 H 1178.21 -2.42086 -2.93425 0
M  V30 12588 H 1179.52 -3.00205 -3.98344 0
M  V30 12589 H 1178.67 -1.57625 -5.85866 0
M  V30 12590 H 1177.41 -0.891459 -4.79483 0
M  V30 12591 H 1176.42 -3.17581 -4.48801 0
M  V30 12592 H 1177.64 -3.86147 -5.5863 0
M  V30 12593 H 1175.59 -1.74231 -6.32439 0
M  V30 12594 H 1175.5 -3.42262 -6.74087 0
M  V30 12595 H 1176.77 -2.43592 -7.40461 0
M  V30 12596 N 1181 1.07532 -1.15215 0
M  V30 12597 C 1182.25 1.79474 -0.920439 0
M  V30 12598 C 1182.56 1.87593 0.553926 0
M  V30 12599 O 1183.77 2.56037 0.903169 0
M  V30 12600 C 1182.23 3.22509 -1.59738 0
M  V30 12601 C 1181.83 3.22596 -3.10863 0
M  V30 12602 C 1183.58 3.99072 -1.44714 0
M  V30 12603 C 1181.48 4.60273 -3.71352 0
M  V30 12604 H 1180.41 0.672625 -0.340722 0
M  V30 12605 H 1183.07 1.2071 -1.38208 0
M  V30 12606 H 1181.45 3.81454 -1.06342 0
M  V30 12607 H 1182.62 2.73306 -3.70999 0
M  V30 12608 H 1180.94 2.5953 -3.25627 0
M  V30 12609 H 1183.53 5.00823 -1.87299 0
M  V30 12610 H 1183.88 4.14428 -0.394386 0
M  V30 12611 H 1184.41 3.46617 -1.95195 0
M  V30 12612 H 1181.15 4.50122 -4.76519 0
M  V30 12613 H 1180.67 5.09809 -3.15998 0
M  V30 12614 H 1182.35 5.29243 -3.7217 0
M  V30 12615 N 1182.48 0.948665 1.2585 0
M  V30 12616 C 1183.73 0.610669 1.94016 0
M  V30 12617 C 1184.08 -0.842181 1.72989 0
M  V30 12618 O 1183.37 -1.59556 1.06078 0
M  V30 12619 C 1183.57 0.89784 3.45939 0
M  V30 12620 C 1183.4 2.37705 3.81741 0
M  V30 12621 C 1182.17 3.03355 4.04109 0
M  V30 12622 C 1184.37 3.35602 3.89712 0
M  V30 12623 N 1182.35 4.41211 4.26856 0
M  V30 12624 C 1183.72 4.58743 4.17079 0
M  V30 12625 C 1185.77 3.30523 3.72369 0
M  V30 12626 C 1184.48 5.77436 4.28906 0
M  V30 12627 C 1186.5 4.48548 3.85433 0
M  V30 12628 C 1185.86 5.70474 4.13205 0
M  V30 12629 H 1181.96 0.273966 0.732439 0
M  V30 12630 H 1184.55 1.21961 1.51768 0
M  V30 12631 H 1182.72 0.317878 3.87097 0
M  V30 12632 H 1184.45 0.520353 4.01341 0
M  V30 12633 H 1181.21 2.53947 3.9976 0
M  V30 12634 H 1181.63 5.12589 4.42247 0
M  V30 12635 H 1186.27 2.3731 3.4992 0
M  V30 12636 H 1183.99 6.71095 4.50174 0
M  V30 12637 H 1187.58 4.46159 3.73408 0
M  V30 12638 H 1186.46 6.60277 4.23088 0
M  V30 12639 N 1183.96 -1.40369 0.716545 0
M  V30 12640 C 1184.87 -2.34508 0.065658 0
M  V30 12641 C 1185.88 -1.57352 -0.742723 0
M  V30 12642 O 1187.06 -1.89735 -0.675456 0
M  V30 12643 C 1184.13 -3.36262 -0.844337 0
M  V30 12644 C 1183.19 -4.29292 -0.0257971 0
M  V30 12645 C 1182.42 -5.26185 -0.892452 0
M  V30 12646 O 1182.64 -5.29071 -2.13166 0
M  V30 12647 O 1181.58 -6.0099 -0.330933 0
M  V30 12648 H 1185.4 -2.91789 0.842184 0
M  V30 12649 H 1182.99 -1.41579 0.477034 0
M  V30 12650 H 1184.87 -3.98661 -1.36555 0
M  V30 12651 H 1183.54 -2.81393 -1.59999 0
M  V30 12652 H 1182.45 -3.70175 0.540512 0
M  V30 12653 H 1183.78 -4.87316 0.69166 0
M  V30 12654 N 1185.44 -0.462799 -1.50652 0
M  V30 12655 C 1186.68 0.0950445 -2.02277 0
M  V30 12656 C 1187.01 1.40465 -1.34536 0
M  V30 12657 O 1186.27 1.90283 -0.457279 0
M  V30 12658 C 1186.57 0.335294 -3.55824 0
M  V30 12659 C 1186.23 -0.891589 -4.41997 0
M  V30 12660 C 1184.89 -1.22799 -4.65268 0
M  V30 12661 C 1187.25 -1.70885 -4.9239 0
M  V30 12662 C 1184.57 -2.38186 -5.36175 0
M  V30 12663 C 1186.93 -2.85394 -5.64564 0
M  V30 12664 C 1185.59 -3.19458 -5.86091 0
M  V30 12665 H 1184.86 0.0347793 -0.740183 0
M  V30 12666 H 1187.51 -0.61519 -1.8135 0
M  V30 12667 H 1185.81 1.12769 -3.7522 0
M  V30 12668 H 1187.51 0.780752 -3.93326 0
M  V30 12669 H 1184.1 -0.619495 -4.24099 0
M  V30 12670 H 1188.28 -1.46215 -4.74273 0
M  V30 12671 H 1183.54 -2.64862 -5.51052 0
M  V30 12672 H 1187.71 -3.49073 -6.02595 0
M  V30 12673 H 1185.34 -4.08978 -6.40813 0
M  V30 12674 N 1186.91 1.56388 -0.195085 0
M  V30 12675 C 1187.86 2.19091 0.725793 0
M  V30 12676 C 1188.83 1.13814 1.20977 0
M  V30 12677 O 1190.02 1.42065 1.27366 0
M  V30 12678 C 1187.16 2.85427 1.93973 0
M  V30 12679 C 1186.27 4.05229 1.49712 0
M  V30 12680 C 1185.4 4.59421 2.66656 0
M  V30 12681 C 1184.44 5.71581 2.19001 0
M  V30 12682 N 1183.58 6.2018 3.29123 0
M  V30 12683 H 1188.42 2.97429 0.184334 0
M  V30 12684 H 1185.96 1.46886 0.0792434 0
M  V30 12685 H 1187.92 3.22057 2.65208 0
M  V30 12686 H 1186.55 2.09652 2.4545 0
M  V30 12687 H 1185.6 3.74261 0.680641 0
M  V30 12688 H 1186.91 4.8635 1.10749 0
M  V30 12689 H 1186.06 4.98357 3.46014 0
M  V30 12690 H 1184.8 3.77407 3.08893 0
M  V30 12691 H 1183.81 5.32174 1.38097 0
M  V30 12692 H 1185.03 6.55413 1.77795 0
M  V30 12693 H 1182.98 5.41088 3.70891 0
M  V30 12694 H 1182.9 6.96353 2.94328 0
M  V30 12695 H 1184.16 6.63769 4.08694 0
M  V30 12696 N 1188.39 -0.0785156 1.57404 0
M  V30 12697 C 1189.64 -0.777399 1.8655 0
M  V30 12698 C 1189.96 -1.78451 0.786142 0
M  V30 12699 O 1189.23 -1.95016 -0.185911 0
M  V30 12700 H 1187.81 -0.290097 0.688369 0
M  V30 12701 H 1190.47 -0.0562017 1.94819 0
M  V30 12702 H 1189.57 -1.29776 2.83839 0
M  V30 12703 N 1189.87 -1.5367 -0.349747 0
M  V30 12704 C 1190.82 -1.81223 -1.42922 0
M  V30 12705 C 1191.79 -0.657536 -1.52531 0
M  V30 12706 O 1192.97 -0.90134 -1.68168 0
M  V30 12707 C 1190.11 -2.022 -2.79659 0
M  V30 12708 C 1189.23 -3.29915 -2.78891 0
M  V30 12709 C 1188.36 -3.40993 -4.07305 0
M  V30 12710 C 1187.4 -4.6268 -4.00741 0
M  V30 12711 N 1186.54 -4.70826 -5.20833 0
M  V30 12712 H 1191.38 -2.73328 -1.18727 0
M  V30 12713 H 1188.91 -1.35386 -0.57525 0
M  V30 12714 H 1190.87 -2.12351 -3.59114 0
M  V30 12715 H 1189.5 -1.13416 -3.0222 0
M  V30 12716 H 1188.55 -3.28637 -1.91577 0
M  V30 12717 H 1189.87 -4.19459 -2.69917 0
M  V30 12718 H 1189.02 -3.50542 -4.95182 0
M  V30 12719 H 1187.76 -2.49493 -4.19052 0
M  V30 12720 H 1186.76 -4.53215 -3.11249 0
M  V30 12721 H 1187.99 -5.55538 -3.90582 0
M  V30 12722 H 1185.93 -3.82233 -5.33136 0
M  V30 12723 H 1185.85 -5.54297 -5.14092 0
M  V30 12724 H 1187.12 -4.84677 -6.10499 0
M  V30 12725 N 1191.35 0.610423 -1.45298 0
M  V30 12726 C 1192.28 1.73207 -1.56594 0
M  V30 12727 C 1193.26 1.64893 -0.417651 0
M  V30 12728 O 1194.44 1.83336 -0.64043 0
M  V30 12729 C 1191.57 3.11803 -1.52959 0
M  V30 12730 C 1190.53 3.34925 -2.66475 0
M  V30 12731 C 1189.85 4.73764 -2.47894 0
M  V30 12732 C 1191.15 3.25456 -4.08504 0
M  V30 12733 H 1192.85 1.6401 -2.50482 0
M  V30 12734 H 1190.39 0.787621 -1.20551 0
M  V30 12735 H 1192.35 3.90065 -1.59458 0
M  V30 12736 H 1191.07 3.21833 -0.55599 0
M  V30 12737 H 1189.73 2.59051 -2.59399 0
M  V30 12738 H 1189.38 4.80524 -1.4868 0
M  V30 12739 H 1189.08 4.90191 -3.24016 0
M  V30 12740 H 1190.6 5.54231 -2.56243 0
M  V30 12741 H 1192.02 3.93597 -4.16839 0
M  V30 12742 H 1190.41 3.53414 -4.84994 0
M  V30 12743 H 1191.48 2.22939 -4.30612 0
M  V30 12744 N 1192.83 1.32541 0.852676 0
M  V30 12745 C 1193.74 1.23646 1.99371 0
M  V30 12746 C 1194.75 0.149673 1.73355 0
M  V30 12747 O 1195.93 0.370716 1.97959 0
M  V30 12748 C 1192.99 0.961873 3.3309 0
M  V30 12749 C 1192.05 2.1373 3.72315 0
M  V30 12750 C 1191.29 1.87572 4.99652 0
M  V30 12751 O 1191.51 0.819247 5.64486 0
M  V30 12752 O 1190.44 2.73732 5.36054 0
M  V30 12753 H 1194.27 2.19573 2.09813 0
M  V30 12754 H 1191.86 1.12451 0.983627 0
M  V30 12755 H 1193.74 0.825316 4.13239 0
M  V30 12756 H 1192.41 0.0327745 3.23683 0
M  V30 12757 H 1191.32 2.32933 2.92733 0
M  V30 12758 H 1192.65 3.04925 3.86369 0
M  V30 12759 N 1194.3 -1.0692 1.15784 0
M  V30 12760 C 1195.24 -2.14168 0.816375 0
M  V30 12761 C 1196.25 -1.61872 -0.17357 0
M  V30 12762 O 1197.44 -1.78429 0.0502973 0
M  V30 12763 C 1194.54 -3.38346 0.193682 0
M  V30 12764 C 1193.71 -4.19979 1.22215 0
M  V30 12765 C 1192.77 -5.2253 0.620424 0
M  V30 12766 O 1191.8 -5.54446 1.28757 0
M  V30 12767 N 1193 -5.77434 -0.595811 0
M  V30 12768 H 1195.76 -2.44062 1.73937 0
M  V30 12769 H 1193.32 -1.22865 1.05431 0
M  V30 12770 H 1195.32 -4.04092 -0.22174 0
M  V30 12771 H 1193.89 -3.06129 -0.632735 0
M  V30 12772 H 1193.11 -3.49984 1.81397 0
M  V30 12773 H 1194.39 -4.71329 1.91641 0
M  V30 12774 H 1193.79 -5.5376 -1.15611 0
M  V30 12775 H 1192.35 -6.44788 -0.953529 0
M  V30 12776 N 1195.78 -0.955326 -1.25345 0
M  V30 12777 C 1196.73 -0.446792 -2.23579 0
M  V30 12778 C 1197.72 0.464354 -1.54054 0
M  V30 12779 O 1198.91 0.297293 -1.74485 0
M  V30 12780 C 1196.04 0.273533 -3.42209 0
M  V30 12781 C 1195.12 -0.655722 -4.19 0
M  V30 12782 N 1195.51 -1.78766 -4.73156 0
M  V30 12783 C 1193.81 -0.464059 -4.43579 0
M  V30 12784 C 1194.51 -2.36789 -5.31324 0
M  V30 12785 N 1193.49 -1.65435 -5.17815 0
M  V30 12786 H 1197.29 -1.31065 -2.63057 0
M  V30 12787 H 1194.81 -0.812899 -1.40591 0
M  V30 12788 H 1196.8 0.654986 -4.11723 0
M  V30 12789 H 1195.46 1.13399 -3.04254 0
M  V30 12790 H 1196.47 -2.1695 -4.70269 0
M  V30 12791 H 1193.15 0.353459 -4.16001 0
M  V30 12792 H 1194.54 -3.32242 -5.84008 0
M  V30 12793 N 1197.26 1.39987 -0.723979 0
M  V30 12794 C 1198.19 2.3332 -0.0917282 0
M  V30 12795 C 1199.17 1.53335 0.736361 0
M  V30 12796 O 1200.36 1.81771 0.683582 0
M  V30 12797 C 1197.49 3.3737 0.824549 0
M  V30 12798 C 1196.44 4.2788 0.101452 0
M  V30 12799 C 1195.77 5.22536 1.13401 0
M  V30 12800 C 1197.07 5.11649 -1.04939 0
M  V30 12801 H 1198.76 2.86441 -0.871318 0
M  V30 12802 H 1196.31 1.37725 -0.420448 0
M  V30 12803 H 1198.26 4.01607 1.27631 0
M  V30 12804 H 1196.98 2.82663 1.63613 0
M  V30 12805 H 1195.64 3.65107 -0.330569 0
M  V30 12806 H 1195.29 4.64131 1.93886 0
M  V30 12807 H 1194.99 5.83938 0.65502 0
M  V30 12808 H 1196.52 5.89651 1.58569 0
M  V30 12809 H 1197.93 5.69293 -0.6766 0
M  V30 12810 H 1196.33 5.82137 -1.45729 0
M  V30 12811 H 1197.4 4.47132 -1.8762 0
M  V30 12812 N 1198.74 0.470782 1.50404 0
M  V30 12813 C 1199.97 -0.0820134 2.06737 0
M  V30 12814 C 1200.38 -1.33535 1.33468 0
M  V30 12815 O 1199.74 -1.77975 0.403872 0
M  V30 12816 C 1199.79 -0.370427 3.59597 0
M  V30 12817 O 1199.51 0.8332 4.30104 0
M  V30 12818 C 1201.01 -0.970222 4.32552 0
M  V30 12819 H 1198.23 0.00694502 0.670964 0
M  V30 12820 H 1200.78 0.659476 1.93575 0
M  V30 12821 H 1198.93 -1.06185 3.72563 0
M  V30 12822 H 1199.35 0.577614 5.2131 0
M  V30 12823 H 1200.82 -1.1218 5.40481 0
M  V30 12824 H 1201.3 -1.96024 3.93028 0
M  V30 12825 H 1201.9 -0.31719 4.24116 0
M  V30 12826 N 1200.22 -1.56282 0.203376 0
M  V30 12827 C 1201.47 -1.97421 -0.432346 0
M  V30 12828 C 1201.79 -1.0917 -1.61576 0
M  V30 12829 O 1201.06 -0.164759 -1.95206 0
M  V30 12830 H 1199.64 -0.729062 -0.162721 0
M  V30 12831 H 1202.3 -1.927 0.292039 0
M  V30 12832 H 1201.39 -3.02429 -0.770918 0
M  V30 12833 N 1201.7 0.070167 -1.57444 0
M  V30 12834 C 1203.11 0.424991 -1.53838 0
M  V30 12835 C 1203.31 1.79076 -0.923793 0
M  V30 12836 O 1202.37 2.46939 -0.527002 0
M  V30 12837 C 1203.68 0.364562 -2.98482 0
M  V30 12838 C 1205.23 0.444631 -3.09826 0
M  V30 12839 C 1205.7 0.414093 -4.56124 0
M  V30 12840 N 1207.19 0.474119 -4.60767 0
M  V30 12841 C 1207.93 0.472729 -5.71448 0
M  V30 12842 N 1207.43 0.426059 -6.91489 0
M  V30 12843 N 1209.22 0.519408 -5.59695 0
M  V30 12844 H 1201.37 -0.824117 -1.9576 0
M  V30 12845 H 1203.63 -0.309401 -0.896089 0
M  V30 12846 H 1203.34 -0.572343 -3.47012 0
M  V30 12847 H 1203.21 1.17414 -3.5846 0
M  V30 12848 H 1205.6 1.37196 -2.61269 0
M  V30 12849 H 1205.68 -0.393547 -2.52755 0
M  V30 12850 H 1205.32 -0.509394 -5.05339 0
M  V30 12851 H 1205.25 1.26983 -5.11061 0
M  V30 12852 H 1207.75 0.514371 -3.74383 0
M  V30 12853 H 1208.06 0.428969 -7.71609 0
M  V30 12854 H 1206.4 0.392722 -6.9389 0
M  V30 12855 H 1209.59 0.553573 -4.64815 0
M  V30 12856 H 1209.77 0.514856 -6.45951 0
M  V30 12857 N 1203.17 1.53854 0.341593 0
M  V30 12858 C 1204.59 1.44161 0.684821 0
M  V30 12859 C 1204.79 0.599929 1.92362 0
M  V30 12860 O 1203.85 0.0916771 2.52334 0
M  V30 12861 C 1205.16 2.87668 0.875637 0
M  V30 12862 C 1206.71 2.97455 0.974131 0
M  V30 12863 C 1207.18 4.42075 1.19725 0
M  V30 12864 N 1208.67 4.45609 1.2644 0
M  V30 12865 C 1209.41 5.54643 1.45459 0
M  V30 12866 N 1208.9 6.7368 1.61637 0
M  V30 12867 N 1210.7 5.4226 1.48022 0
M  V30 12868 H 1202.85 2.07069 -0.472883 0
M  V30 12869 H 1205.11 0.936114 -0.149648 0
M  V30 12870 H 1204.82 3.51681 0.0368595 0
M  V30 12871 H 1204.69 3.32731 1.7768 0
M  V30 12872 H 1207.08 2.33582 1.80343 0
M  V30 12873 H 1207.16 2.55751 0.0498282 0
M  V30 12874 H 1206.8 5.06529 0.372872 0
M  V30 12875 H 1206.73 4.81372 2.13515 0
M  V30 12876 H 1209.22 3.59831 1.15455 0
M  V30 12877 H 1209.54 7.52541 1.7579 0
M  V30 12878 H 1207.88 6.76622 1.5877 0
M  V30 12879 H 1211.07 4.48221 1.34966 0
M  V30 12880 H 1211.25 6.27293 1.62502 0
M  V30 12881 N 1204.65 -0.602709 1.4562 0
M  V30 12882 C 1205.9 -1.36159 1.51103 0
M  V30 12883 C 1206.25 -1.91794 0.152552 0
M  V30 12884 O 1205.55 -1.7239 -0.836201 0
M  V30 12885 C 1205.74 -2.52474 2.52966 0
M  V30 12886 C 1205.57 -2.0823 3.98585 0
M  V30 12887 C 1204.34 -1.94175 4.66502 0
M  V30 12888 C 1206.54 -1.65402 4.86977 0
M  V30 12889 N 1204.52 -1.43792 5.96822 0
M  V30 12890 C 1205.89 -1.26469 6.06964 0
M  V30 12891 C 1207.94 -1.53038 4.73797 0
M  V30 12892 C 1206.65 -0.764065 7.1523 0
M  V30 12893 C 1208.67 -1.04379 5.82116 0
M  V30 12894 C 1208.04 -0.664136 7.01262 0
M  V30 12895 H 1204.13 -0.491974 0.607853 0
M  V30 12896 H 1206.72 -0.688472 1.82121 0
M  V30 12897 H 1204.89 -3.17375 2.23891 0
M  V30 12898 H 1206.62 -3.19369 2.48567 0
M  V30 12899 H 1203.38 -2.1551 4.21726 0
M  V30 12900 H 1203.8 -1.2082 6.66132 0
M  V30 12901 H 1208.44 -1.81014 3.82091 0
M  V30 12902 H 1206.16 -0.471858 8.06721 0
M  V30 12903 H 1209.75 -0.952316 5.73953 0
M  V30 12904 H 1208.63 -0.293412 7.83651 0
M  V30 12905 N 1206.13 -1.32992 -0.845635 0
M  V30 12906 C 1207.55 -1.12179 -1.13526 0
M  V30 12907 C 1207.75 0.091795 -2.01291 0
M  V30 12908 O 1206.8 0.774051 -2.40343 0
M  V30 12909 C 1208.11 -2.40584 -1.80388 0
M  V30 12910 C 1209.66 -2.46427 -1.92984 0
M  V30 12911 C 1210.14 -3.74776 -2.63261 0
M  V30 12912 N 1211.63 -3.75809 -2.7078 0
M  V30 12913 C 1212.36 -4.71829 -3.2583 0
M  V30 12914 N 1211.86 -5.78219 -3.81621 0
M  V30 12915 N 1213.65 -4.59313 -3.24018 0
M  V30 12916 H 1205.8 -2.10786 -0.261369 0
M  V30 12917 H 1208.07 -0.931053 -0.17845 0
M  V30 12918 H 1207.77 -3.29357 -1.23357 0
M  V30 12919 H 1207.65 -2.52225 -2.80468 0
M  V30 12920 H 1210.03 -1.58108 -2.4917 0
M  V30 12921 H 1210.11 -2.38732 -0.918732 0
M  V30 12922 H 1209.76 -4.63474 -2.07736 0
M  V30 12923 H 1209.69 -3.79746 -3.6483 0
M  V30 12924 H 1212.18 -2.98916 -2.31209 0
M  V30 12925 H 1212.49 -6.47531 -4.2181 0
M  V30 12926 H 1210.84 -5.81962 -3.79927 0
M  V30 12927 H 1214.03 -3.75358 -2.79685 0
M  V30 12928 H 1214.2 -5.34316 -3.6662 0
M  V30 12929 N 1207.61 1.06304 -1.1635 0
M  V30 12930 C 1208.56 2.15879 -0.865967 0
M  V30 12931 C 1209.55 1.68595 0.164929 0
M  V30 12932 O 1210.76 1.7999 0.0189271 0
M  V30 12933 H 1207.13 0.704721 -0.262435 0
M  V30 12934 H 1209.1 2.38185 -1.79751 0
M  V30 12935 C 1207.85 3.4558 -0.383374 0
M  V30 12936 H 1207.17 3.82356 -1.16806 0
M  V30 12937 H 1208.61 4.2346 -0.213964 0
M  V30 12938 C 1207.07 3.24738 0.897044 0
M  V30 12939 O 1207.6 3.50284 1.96632 0
M  V30 12940 N 1205.81 2.78172 0.840761 0
M  V30 12941 H 1205.36 2.57583 -0.029584 0
M  V30 12942 H 1205.31 2.64606 1.69797 0
M  V30 12943 N 1209.09 0.96196 1.24836 0
M  V30 12944 C 1210.33 0.616342 1.92052 0
M  V30 12945 C 1210.65 -0.851601 1.76088 0
M  V30 12946 O 1211.85 -1.3075 2.37943 0
M  V30 12947 C 1210.31 1.05168 3.44191 0
M  V30 12948 C 1209.92 2.54268 3.68852 0
M  V30 12949 C 1211.66 0.778938 4.17292 0
M  V30 12950 C 1209.57 2.91564 5.14533 0
M  V30 12951 H 1208.5 0.22681 0.719078 0
M  V30 12952 H 1211.15 1.1674 1.41577 0
M  V30 12953 H 1209.53 0.428979 3.9367 0
M  V30 12954 H 1210.71 3.21619 3.29997 0
M  V30 12955 H 1209.02 2.79091 3.09026 0
M  V30 12956 H 1211.62 1.03366 5.24614 0
M  V30 12957 H 1211.96 -0.284772 4.15325 0
M  V30 12958 H 1212.49 1.36233 3.73745 0
M  V30 12959 H 1209.23 3.96982 5.21618 0
M  V30 12960 H 1208.75 2.28892 5.54408 0
M  V30 12961 H 1210.43 2.81155 5.82718 0
M  V30 12962 N 1210.56 -1.39601 0.731392 0
M  V30 12963 C 1211.81 -2.00883 0.278168 0
M  V30 12964 C 1212.14 -1.57897 -1.13059 0
M  V30 12965 O 1211.42 -0.806203 -1.77005 0
M  V30 12966 C 1211.7 -3.58132 0.375969 0
M  V30 12967 C 1211.55 -4.11147 1.82423 0
M  V30 12968 C 1212.87 -4.39425 -0.243702 0
M  V30 12969 H 1209.99 -0.729831 0.102549 0
M  V30 12970 H 1212.63 -1.65859 0.926869 0
M  V30 12971 H 1210.78 -3.881 -0.176329 0
M  V30 12972 H 1212.46 -3.91914 2.43313 0
M  V30 12973 H 1210.7 -3.64842 2.34675 0
M  V30 12974 H 1211.37 -5.20291 1.84396 0
M  V30 12975 H 1213.85 -4.1548 0.227067 0
M  V30 12976 H 1212.72 -5.48709 -0.144907 0
M  V30 12977 H 1212.98 -4.21642 -1.32929 0
M  V30 12978 N 1212.04 -0.478751 -1.50152 0
M  V30 12979 C 1213.32 0.135533 -1.9513 0
M  V30 12980 C 1213.7 1.56253 -1.41944 0
M  V30 12981 O 1213.05 2.19824 -0.623673 0
M  V30 12982 C 1213.26 0.0710037 -3.48928 0
M  V30 12983 C 1214.61 0.256075 -4.23827 0
M  V30 12984 O 1215.63 0.147234 -3.55896 0
M  V30 12985 O 1214.49 0.476741 -5.44417 0
M  V30 12986 H 1211.58 0.107491 -0.819985 0
M  V30 12987 H 1214.13 -0.539701 -1.60889 0
M  V30 12988 H 1212.9 -0.925012 -3.80209 0
M  V30 12989 H 1212.52 0.787362 -3.89726 0
M  V30 12990 N 1213.52 1.56172 -0.211661 0
M  V30 12991 C 1214.45 2.17107 0.734657 0
M  V30 12992 C 1215.47 1.1374 1.16478 0
M  V30 12993 O 1216.65 1.40763 1.09764 0
M  V30 12994 C 1213.75 2.73182 2.00561 0
M  V30 12995 C 1212.93 4.0162 1.73264 0
M  V30 12996 C 1211.99 4.42357 2.84968 0
M  V30 12997 O 1211.01 5.09453 2.53863 0
M  V30 12998 N 1212.21 4.07223 4.13702 0
M  V30 12999 H 1214.98 2.98939 0.213475 0
M  V30 13000 H 1212.54 1.61872 -0.0302898 0
M  V30 13001 H 1214.53 2.97411 2.74461 0
M  V30 13002 H 1213.1 1.9571 2.43754 0
M  V30 13003 H 1212.32 3.85351 0.830575 0
M  V30 13004 H 1213.61 4.85426 1.52445 0
M  V30 13005 H 1213.01 3.53286 4.4182 0
M  V30 13006 H 1211.57 4.36366 4.84178 0
M  V30 13007 N 1215 -0.0618163 1.57479 0
M  V30 13008 C 1216.25 -0.75794 1.86918 0
M  V30 13009 C 1216.56 -1.78234 0.80572 0
M  V30 13010 O 1217.77 -2.52874 0.98827 0
M  V30 13011 C 1216.22 -1.39898 3.31597 0
M  V30 13012 C 1215.83 -0.412621 4.46096 0
M  V30 13013 C 1217.57 -2.07688 3.70224 0
M  V30 13014 C 1215.48 -1.06014 5.8182 0
M  V30 13015 H 1214.41 -0.286825 0.697314 0
M  V30 13016 H 1217.06 -0.0114386 1.83496 0
M  V30 13017 H 1215.44 -2.19408 3.29661 0
M  V30 13018 H 1216.62 0.353392 4.59443 0
M  V30 13019 H 1214.93 0.161383 4.16087 0
M  V30 13020 H 1217.53 -2.56928 4.68927 0
M  V30 13021 H 1217.87 -2.88073 3.00532 0
M  V30 13022 H 1218.41 -1.34996 3.74194 0
M  V30 13023 H 1215.15 -0.296405 6.5483 0
M  V30 13024 H 1214.67 -1.79677 5.72255 0
M  V30 13025 H 1216.34 -1.57708 6.27485 0
M  V30 13026 N 1216.48 -1.54033 -0.333429 0
M  V30 13027 C 1217.72 -1.72958 -1.07038 0
M  V30 13028 C 1218.08 -0.492055 -1.86002 0
M  V30 13029 O 1217.37 0.515453 -1.84536 0
M  V30 13030 C 1217.56 -2.93926 -2.03328 0
M  V30 13031 C 1217.39 -4.29324 -1.33831 0
M  V30 13032 C 1216.16 -4.93647 -1.07892 0
M  V30 13033 C 1218.36 -5.08664 -0.75929 0
M  V30 13034 N 1216.34 -6.12897 -0.35082 0
M  V30 13035 C 1217.71 -6.19788 -0.162281 0
M  V30 13036 C 1219.77 -4.93491 -0.661131 0
M  V30 13037 C 1218.47 -7.17394 0.523351 0
M  V30 13038 C 1220.5 -5.91399 0.0107794 0
M  V30 13039 C 1219.86 -7.01867 0.596775 0
M  V30 13040 H 1215.96 -0.685828 -0.375718 0
M  V30 13041 H 1218.54 -1.91478 -0.35274 0
M  V30 13042 H 1216.71 -2.76889 -2.72373 0
M  V30 13043 H 1218.45 -3.01524 -2.69936 0
M  V30 13044 H 1215.2 -4.53392 -1.36868 0
M  V30 13045 H 1215.63 -6.77 -0.00120039 0
M  V30 13046 H 1220.27 -4.08242 -1.09991 0
M  V30 13047 H 1217.99 -8.02209 0.973994 0
M  V30 13048 H 1221.57 -5.81736 0.0862353 0
M  V30 13049 H 1220.45 -7.76327 1.10845 0
M  V30 13050 N 1217.95 0.594978 -1.45938 0
M  V30 13051 C 1219.18 1.38482 -1.54394 0
M  V30 13052 C 1219.6 1.87222 -0.181563 0
M  V30 13053 O 1218.96 1.60869 0.836119 0
M  V30 13054 C 1219.01 2.55676 -2.54287 0
M  V30 13055 O 1218.11 3.5672 -2.06941 0
M  V30 13056 H 1217.46 0.412918 -0.519995 0
M  V30 13057 H 1219.99 0.722899 -1.91404 0
M  V30 13058 H 1220 3.02756 -2.73501 0
M  V30 13059 H 1218.67 2.19552 -3.53228 0
M  V30 13060 H 1217.25 3.16204 -1.97661 0
M  V30 13061 N 1219.43 1.33438 0.838571 0
M  V30 13062 C 1220.68 1.24912 1.59384 0
M  V30 13063 C 1221.01 -0.185017 1.93618 0
M  V30 13064 O 1220.26 -1.14229 1.58904 0
M  V30 13065 C 1220.56 2.07002 2.9135 0
M  V30 13066 C 1220.23 3.5619 2.76477 0
M  V30 13067 C 1218.89 3.96862 2.72129 0
M  V30 13068 C 1221.24 4.5099 2.61261 0
M  V30 13069 C 1218.57 5.30551 2.50464 0
M  V30 13070 C 1220.92 5.84841 2.4113 0
M  V30 13071 C 1219.59 6.24696 2.35183 0
M  V30 13072 H 1218.86 0.457084 0.583228 0
M  V30 13073 H 1221.5 1.65027 0.971506 0
M  V30 13074 H 1219.81 1.59665 3.57791 0
M  V30 13075 H 1221.5 1.97762 3.48843 0
M  V30 13076 H 1218.09 3.23896 2.80695 0
M  V30 13077 H 1222.28 4.20476 2.63655 0
M  V30 13078 H 1217.53 5.60468 2.44307 0
M  V30 13079 H 1221.71 6.57901 2.2834 0
M  V30 13080 H 1219.34 7.28225 2.18156 0
M  V30 13081 N 1220.91 -1.05686 1.16912 0
M  V30 13082 C 1222.16 -1.78244 0.95254 0
M  V30 13083 C 1222.48 -1.87924 -0.520525 0
M  V30 13084 O 1221.75 -1.39239 -1.37802 0
M  V30 13085 H 1220.33 -0.660228 0.349439 0
M  V30 13086 H 1222.99 -1.27634 1.47294 0
M  V30 13087 H 1222.09 -2.80102 1.37657 0
M  V30 13088 N 1222.39 -0.968567 -1.24324 0
M  V30 13089 C 1223.8 -0.66964 -1.74278 0
M  V30 13090 C 1224.15 0.81461 -1.7849 0
M  V30 13091 O 1223.28 1.63736 -1.4149 0
M  V30 13092 C 1223.87 -1.20885 -3.165 0
M  V30 13093 C 1222.43 -0.959808 -3.63957 0
M  V30 13094 C 1221.58 -1.34365 -2.42573 0
M  V30 13095 H 1224.53 -1.14379 -1.10015 0
M  V30 13096 H 1224.55 -0.57555 -3.76122 0
M  V30 13097 H 1224.06 -2.28912 -3.13402 0
M  V30 13098 H 1222.16 0.104894 -3.72452 0
M  V30 13099 H 1222.27 -1.60606 -4.51378 0
M  V30 13100 H 1220.64 -0.762039 -2.43033 0
M  V30 13101 H 1221.42 -2.43343 -2.42155 0
M  V30 13102 N 1223.87 1.39211 -0.738786 0
M  V30 13103 C 1225.28 1.54116 -0.414773 0
M  V30 13104 C 1225.48 1.70497 1.07392 0
M  V30 13105 O 1224.54 1.7076 1.86003 0
M  V30 13106 C 1225.85 2.7567 -1.2011 0
M  V30 13107 C 1227.4 2.89508 -1.1897 0
M  V30 13108 C 1227.87 4.14005 -1.95868 0
M  V30 13109 N 1229.37 4.21052 -1.93053 0
M  V30 13110 C 1230.1 5.16341 -2.49358 0
M  V30 13111 N 1229.6 6.17396 -3.14316 0
M  V30 13112 N 1231.39 5.08585 -2.3937 0
M  V30 13113 H 1223.54 1.26827 -1.70378 0
M  V30 13114 H 1225.8 0.614983 -0.721457 0
M  V30 13115 H 1225.51 2.69922 -2.25467 0
M  V30 13116 H 1225.38 3.68443 -0.808065 0
M  V30 13117 H 1227.77 2.94747 -0.144248 0
M  V30 13118 H 1227.85 1.97788 -1.62214 0
M  V30 13119 H 1227.5 4.09527 -3.00416 0
M  V30 13120 H 1227.43 5.04776 -1.50028 0
M  V30 13121 H 1229.92 3.48669 -1.45733 0
M  V30 13122 H 1230.23 6.86572 -3.54737 0
M  V30 13123 H 1228.57 6.17772 -3.18407 0
M  V30 13124 H 1231.77 4.28573 -1.88262 0
M  V30 13125 H 1231.94 5.8267 -2.83549 0
M  V30 13126 N 1225.34 0.486708 1.49896 0
M  V30 13127 C 1226.29 -0.299294 2.28851 0
M  V30 13128 C 1227.26 -0.973251 1.346 0
M  V30 13129 O 1228.45 -0.982678 1.63548 0
M  V30 13130 C 1225.59 -1.36624 3.16904 0
M  V30 13131 C 1224.7 -0.705492 4.262 0
M  V30 13132 C 1223.83 -1.75165 5.01488 0
M  V30 13133 C 1222.87 -1.072 6.0264 0
M  V30 13134 N 1222.01 -2.06172 6.71147 0
M  V30 13135 H 1226.85 0.380272 2.95564 0
M  V30 13136 H 1224.39 0.199377 1.45743 0
M  V30 13137 H 1226.35 -1.99666 3.66319 0
M  V30 13138 H 1224.98 -2.01476 2.52205 0
M  V30 13139 H 1224.03 0.0378757 3.80381 0
M  V30 13140 H 1225.34 -0.169774 4.98511 0
M  V30 13141 H 1224.49 -2.45749 5.547 0
M  V30 13142 H 1223.23 -2.3212 4.28919 0
M  V30 13143 H 1222.24 -0.351868 5.48673 0
M  V30 13144 H 1223.46 -0.509139 6.77189 0
M  V30 13145 H 1221.41 -2.62115 6.01358 0
M  V30 13146 H 1221.33 -1.57627 7.39385 0
M  V30 13147 H 1222.59 -2.76088 7.28969 0
M  V30 13148 N 1226.82 -1.56058 0.219941 0
M  V30 13149 C 1228.06 -2.00162 -0.414063 0
M  V30 13150 C 1228.43 -1.10432 -1.57063 0
M  V30 13151 O 1229.63 -1.43877 -2.27053 0
M  V30 13152 C 1227.9 -3.47411 -0.839084 0
M  V30 13153 S 1229.46 -4.13536 -1.46742 0
M  V30 13154 H 1226.28 -0.698738 -0.131475 0
M  V30 13155 H 1228.88 -1.92714 0.32885 0
M  V30 13156 H 1227.58 -4.10398 0.0123666 0
M  V30 13157 H 1227.11 -3.58728 -1.61485 0
M  V30 13158 H 1229.13 -4.12592 -2.75648 0
M  V30 13159 N 1228.3 0.053464 -1.57509 0
M  V30 13160 C 1229.55 0.747622 -1.87763 0
M  V30 13161 C 1229.87 1.77178 -0.814433 0
M  V30 13162 O 1229.14 1.95287 0.154862 0
M  V30 13163 H 1227.72 0.279109 -0.692898 0
M  V30 13164 H 1230.38 0.0252006 -1.94884 0
M  V30 13165 H 1229.48 1.25244 -2.85868 0
M  V30 13166 N 1229.78 1.54207 0.325255 0
M  V30 13167 C 1231.19 1.63587 0.899793 0
M  V30 13168 C 1231.54 0.528851 1.88938 0
M  V30 13169 O 1230.67 -0.33852 2.13736 0
M  V30 13170 C 1231.26 2.9653 1.63877 0
M  V30 13171 C 1229.82 3.08111 2.16205 0
M  V30 13172 C 1228.97 2.59144 0.986903 0
M  V30 13173 H 1231.92 1.58366 0.102883 0
M  V30 13174 H 1231.94 2.86595 2.50287 0
M  V30 13175 H 1231.45 3.7708 0.918279 0
M  V30 13176 H 1229.55 2.32232 2.91375 0
M  V30 13177 H 1229.67 4.13885 2.41322 0
M  V30 13178 H 1228.03 2.14997 1.36558 0
M  V30 13179 H 1228.81 3.4215 0.28076 0
M  V30 13180 N 1231.26 -0.58723 1.46251 0
M  V30 13181 C 1232.21 -1.71771 1.56836 0
M  V30 13182 C 1233.2 -1.63664 0.437096 0
M  V30 13183 O 1234.41 -1.69212 0.613797 0
M  V30 13184 H 1230.78 -0.567841 0.493012 0
M  V30 13185 H 1232.75 -1.59974 2.51895 0
M  V30 13186 C 1231.5 -3.10159 1.57152 0
M  V30 13187 H 1230.82 -3.17066 2.43535 0
M  V30 13188 H 1232.26 -3.89032 1.68613 0
M  V30 13189 C 1230.72 -3.35567 0.299374 0
M  V30 13190 O 1231.25 -3.97006 -0.612291 0
M  V30 13191 N 1229.46 -2.89987 0.188695 0
M  V30 13192 H 1229.01 -2.4017 0.93147 0
M  V30 13193 H 1228.96 -3.0736 -0.661612 0
M  V30 13194 N 1232.74 -1.33881 -0.831482 0
M  V30 13195 C 1233.98 -1.251 -1.58218 0
M  V30 13196 C 1234.3 0.17963 -1.94773 0
M  V30 13197 O 1235.5 0.389516 -2.68691 0
M  V30 13198 C 1233.96 -2.19246 -2.8541 0
M  V30 13199 C 1233.57 -3.6752 -2.5619 0
M  V30 13200 C 1235.31 -2.19355 -3.63433 0
M  V30 13201 C 1233.22 -4.53559 -3.79523 0
M  V30 13202 H 1232.15 -0.46469 -0.593784 0
M  V30 13203 H 1234.8 -1.58992 -0.916169 0
M  V30 13204 H 1233.18 -1.78295 -3.53591 0
M  V30 13205 H 1234.36 -4.16956 -1.96173 0
M  V30 13206 H 1232.67 -3.69774 -1.91458 0
M  V30 13207 H 1235.27 -2.80863 -4.54995 0
M  V30 13208 H 1235.61 -1.19056 -3.98913 0
M  V30 13209 H 1236.14 -2.58706 -3.02185 0
M  V30 13210 H 1232.88 -5.54762 -3.4917 0
M  V30 13211 H 1232.4 -4.08862 -4.38853 0
M  V30 13212 H 1234.08 -4.67736 -4.47025 0
M  V30 13213 N 1234.21 1.05064 -1.1747 0
M  V30 13214 C 1235.14 2.14786 -0.915936 0
M  V30 13215 C 1236.12 1.69502 0.142561 0
M  V30 13216 O 1237.31 1.94198 -0.00794522 0
M  V30 13217 C 1234.44 3.44629 -0.429864 0
M  V30 13218 C 1233.39 4.03486 -1.42769 0
M  V30 13219 C 1232.72 5.28689 -0.799528 0
M  V30 13220 C 1234.02 4.40823 -2.80129 0
M  V30 13221 H 1235.71 2.3669 -1.83352 0
M  V30 13222 H 1233.26 1.13751 -0.882992 0
M  V30 13223 H 1235.21 4.20737 -0.236245 0
M  V30 13224 H 1233.94 3.22381 0.523263 0
M  V30 13225 H 1232.6 3.29449 -1.60808 0
M  V30 13226 H 1232.24 5.02744 0.160474 0
M  V30 13227 H 1231.94 5.69028 -1.46565 0
M  V30 13228 H 1233.47 6.07483 -0.616212 0
M  V30 13229 H 1234.88 5.07959 -2.65801 0
M  V30 13230 H 1233.28 4.92183 -3.43331 0
M  V30 13231 H 1234.35 3.51108 -3.34441 0
M  V30 13232 N 1235.69 0.975146 1.23809 0
M  V30 13233 C 1236.94 0.642074 1.92367 0
M  V30 13234 C 1237.27 -0.82164 1.75962 0
M  V30 13235 O 1236.55 -1.59205 1.11732 0
M  V30 13236 C 1236.83 1.02677 3.45151 0
M  V30 13237 C 1236.68 2.54773 3.7069 0
M  V30 13238 C 1238 0.5668 4.36435 0
M  V30 13239 H 1235.12 0.234735 0.698619 0
M  V30 13240 H 1237.76 1.21549 1.46034 0
M  V30 13241 H 1235.91 0.538846 3.84745 0
M  V30 13242 H 1237.58 3.11099 3.4061 0
M  V30 13243 H 1235.83 2.97641 3.15583 0
M  V30 13244 H 1236.5 2.7674 4.77618 0
M  V30 13245 H 1238.97 0.985635 4.04258 0
M  V30 13246 H 1237.85 0.864458 5.4205 0
M  V30 13247 H 1238.11 -0.532989 4.38875 0
M  V30 13248 N 1237.17 -1.38817 0.746158 0
M  V30 13249 C 1238.12 -2.32373 0.102785 0
M  V30 13250 C 1239.11 -1.53638 -0.713556 0
M  V30 13251 O 1240.32 -1.69223 -0.613488 0
M  V30 13252 H 1236.69 -0.751861 0.0144405 0
M  V30 13253 H 1238.66 -2.84249 0.908032 0
M  V30 13254 C 1237.41 -3.38796 -0.781827 0
M  V30 13255 H 1236.74 -3.99467 -0.163057 0
M  V30 13256 H 1238.18 -4.06682 -1.19941 0
M  V30 13257 C 1236.63 -2.76756 -1.92113 0
M  V30 13258 O 1237.16 -2.65478 -3.0147 0
M  V30 13259 N 1235.37 -2.34676 -1.71392 0
M  V30 13260 H 1234.92 -2.44049 -0.824483 0
M  V30 13261 H 1234.88 -1.93508 -2.47794 0
M  V30 13262 N 1238.65 -0.49465 -1.49636 0
M  V30 13263 C 1239.59 0.287153 -2.29007 0
M  V30 13264 C 1240.56 0.966099 -1.35114 0
M  V30 13265 O 1241.75 0.973991 -1.64067 0
M  V30 13266 C 1238.89 1.34941 -3.17624 0
M  V30 13267 C 1238 0.682879 -4.26569 0
M  V30 13268 C 1237.14 1.72503 -5.0241 0
M  V30 13269 C 1236.18 1.04003 -6.032 0
M  V30 13270 N 1235.31 2.0261 -6.7223 0
M  V30 13271 H 1240.15 -0.395941 -2.95358 0
M  V30 13272 H 1237.69 -0.207103 -1.45635 0
M  V30 13273 H 1239.65 1.9772 -3.67372 0
M  V30 13274 H 1238.28 2.00135 -2.5327 0
M  V30 13275 H 1237.33 -0.0580477 -3.80356 0
M  V30 13276 H 1238.64 0.143334 -4.98594 0
M  V30 13277 H 1237.8 2.42804 -5.55996 0
M  V30 13278 H 1236.54 2.29843 -4.30144 0
M  V30 13279 H 1235.54 0.322765 -5.48852 0
M  V30 13280 H 1236.77 0.473219 -6.77449 0
M  V30 13281 H 1234.71 2.58922 -6.0274 0
M  V30 13282 H 1234.63 1.53704 -7.4021 0
M  V30 13283 H 1235.9 2.72218 -7.30423 0
M  V30 13284 N 1240.13 1.55939 -0.228214 0
M  V30 13285 C 1241.35 2.0332 0.409364 0
M  V30 13286 C 1241.78 1.10683 1.52088 0
M  V30 13287 O 1241.13 0.0962484 1.81044 0
M  V30 13288 C 1241.18 3.48877 0.911981 0
M  V30 13289 O 1240.29 3.59378 2.02289 0
M  V30 13290 H 1239.63 0.657625 0.0917909 0
M  V30 13291 H 1242.16 2.01605 -0.348802 0
M  V30 13292 H 1242.17 3.89331 1.22007 0
M  V30 13293 H 1240.84 4.15783 0.0984902 0
M  V30 13294 H 1239.42 3.30815 1.72093 0
M  V30 13295 N 1241.6 -0.0451101 1.57535 0
M  V30 13296 C 1242.51 -1.06796 2.08882 0
M  V30 13297 C 1243.53 -1.40682 1.02394 0
M  V30 13298 O 1244.71 -1.50324 1.34033 0
M  V30 13299 C 1241.77 -2.35467 2.54472 0
M  V30 13300 C 1240.83 -2.0831 3.75374 0
M  V30 13301 C 1240.07 -3.30846 4.1878 0
M  V30 13302 O 1240.29 -4.40945 3.61834 0
M  V30 13303 O 1239.22 -3.17488 5.11356 0
M  V30 13304 H 1243.05 -0.661658 2.96405 0
M  V30 13305 H 1240.63 -0.26104 1.47102 0
M  V30 13306 H 1242.52 -3.11143 2.84198 0
M  V30 13307 H 1241.19 -2.75425 1.70068 0
M  V30 13308 H 1240.1 -1.30254 3.50692 0
M  V30 13309 H 1241.43 -1.73218 4.60713 0
M  V30 13310 N 1243.08 -1.54377 -0.317073 0
M  V30 13311 C 1244.36 -1.63551 -1.07287 0
M  V30 13312 C 1244.74 -0.473499 -2.05721 0
M  V30 13313 O 1244.09 0.531545 -2.22232 0
M  V30 13314 C 1244.3 -3.00842 -1.76904 0
M  V30 13315 C 1245.65 -3.57111 -2.29689 0
M  V30 13316 O 1246.67 -3.0319 -1.86961 0
M  V30 13317 O 1245.53 -4.51486 -3.07932 0
M  V30 13318 H 1242.62 -0.662557 -0.494922 0
M  V30 13319 H 1245.17 -1.66723 -0.316444 0
M  V30 13320 H 1243.94 -3.76854 -1.05341 0
M  V30 13321 H 1243.56 -3.01377 -2.59341 0
M  V30 13322 N 1244.56 0.579466 -1.4656 0
M  V30 13323 C 1245.81 1.33756 -1.52038 0
M  V30 13324 C 1246.14 1.93725 -0.173423 0
M  V30 13325 O 1245.39 1.77167 0.831293 0
M  V30 13326 C 1245.69 2.48417 -2.56951 0
M  V30 13327 C 1245.36 2.0642 -4.00876 0
M  V30 13328 C 1244.02 1.94682 -4.4006 0
M  V30 13329 C 1246.37 1.74066 -4.91274 0
M  V30 13330 C 1243.7 1.48852 -5.67503 0
M  V30 13331 C 1246.05 1.29714 -6.19158 0
M  V30 13332 C 1244.71 1.16555 -6.57245 0
M  V30 13333 H 1243.98 0.489447 -0.556347 0
M  V30 13334 H 1246.63 0.652176 -1.80053 0
M  V30 13335 H 1244.94 3.22416 -2.2261 0
M  V30 13336 H 1246.63 3.06629 -2.58418 0
M  V30 13337 H 1243.22 2.16492 -3.69904 0
M  V30 13338 H 1247.41 1.82019 -4.61717 0
M  V30 13339 H 1242.66 1.3731 -5.95782 0
M  V30 13340 H 1246.84 1.03734 -6.88631 0
M  V30 13341 H 1244.46 0.808193 -7.55892 0
M  V30 13342 N 1246.04 1.3432 0.824371 0
M  V30 13343 C 1246.97 1.21619 1.94271 0
M  V30 13344 C 1247.98 0.143628 1.62165 0
M  V30 13345 O 1249.17 0.395353 1.74067 0
M  V30 13346 C 1246.27 0.846128 3.28167 0
M  V30 13347 C 1245.45 2.01337 3.88307 0
M  V30 13348 C 1244.5 1.62194 5.00579 0
M  V30 13349 O 1243.53 2.33831 5.18953 0
M  V30 13350 N 1244.73 0.535262 5.78027 0
M  V30 13351 H 1247.5 2.17963 2.05699 0
M  V30 13352 H 1245.06 1.27256 1.00088 0
M  V30 13353 H 1247.05 0.566086 4.00721 0
M  V30 13354 H 1245.62 -0.0270764 3.12588 0
M  V30 13355 H 1244.84 2.45823 3.08164 0
M  V30 13356 H 1246.13 2.79404 4.25219 0
M  V30 13357 H 1245.53 -0.0603126 5.65668 0
M  V30 13358 H 1244.08 0.314946 6.51039 0
M  V30 13359 N 1247.52 -1.0444 1.18026 0
M  V30 13360 C 1248.46 -2.14474 0.900202 0
M  V30 13361 C 1249.46 -1.68836 -0.138086 0
M  V30 13362 O 1250.66 -1.79997 0.00971011 0
M  V30 13363 H 1247.04 -0.700457 0.273613 0
M  V30 13364 H 1249.01 -2.35295 1.83518 0
M  V30 13365 C 1247.76 -3.44926 0.438305 0
M  V30 13366 H 1247.08 -3.8045 1.22874 0
M  V30 13367 H 1248.52 -4.23066 0.281306 0
M  V30 13368 C 1246.98 -3.26124 -0.845268 0
M  V30 13369 O 1247.51 -3.53368 -1.91034 0
M  V30 13370 N 1245.72 -2.79474 -0.7964 0
M  V30 13371 H 1245.26 -2.57503 0.0705595 0
M  V30 13372 H 1245.22 -2.67274 -1.65566 0
M  V30 13373 N 1248.99 -0.981699 -1.2329 0
M  V30 13374 C 1250.22 -0.669025 -1.96313 0
M  V30 13375 C 1250.64 0.757624 -1.72168 0
M  V30 13376 O 1250 1.51626 -0.993942 0
M  V30 13377 C 1250.05 -0.966875 -3.47396 0
M  V30 13378 O 1249.15 -0.0595933 -4.12357 0
M  V30 13379 H 1248.5 -0.251493 -0.61453 0
M  V30 13380 H 1251.03 -1.31564 -1.56691 0
M  V30 13381 H 1251.04 -0.904112 -3.97857 0
M  V30 13382 H 1249.71 -2.00651 -3.64296 0
M  V30 13383 H 1248.29 -0.176878 -3.7248 0
M  V30 13384 N 1250.47 1.3842 -0.753509 0
M  V30 13385 C 1251.72 2.00415 -0.310091 0
M  V30 13386 C 1252.05 1.59675 1.10532 0
M  V30 13387 O 1251.33 0.834261 1.757 0
M  V30 13388 C 1251.61 3.57488 -0.432897 0
M  V30 13389 C 1251.46 4.08193 -1.88941 0
M  V30 13390 C 1252.78 4.39757 0.173763 0
M  V30 13391 H 1249.9 0.728107 -0.114147 0
M  V30 13392 H 1252.54 1.64363 -0.953138 0
M  V30 13393 H 1250.69 3.88331 0.114563 0
M  V30 13394 H 1252.36 3.87993 -2.49517 0
M  V30 13395 H 1250.61 3.61063 -2.4045 0
M  V30 13396 H 1251.28 5.17291 -1.9265 0
M  V30 13397 H 1253.75 4.15066 -0.293137 0
M  V30 13398 H 1252.63 5.4887 0.057594 0
M  V30 13399 H 1252.89 4.23704 1.26205 0
M  V30 13400 N 1251.95 0.502579 1.49372 0
M  V30 13401 C 1253.2 -0.0334303 2.03373 0
M  V30 13402 C 1253.55 -1.34548 1.3753 0
M  V30 13403 O 1252.84 -1.84894 0.502484 0
M  V30 13404 C 1253.04 -0.240835 3.56588 0
M  V30 13405 C 1252.87 1.04956 4.37281 0
M  V30 13406 C 1251.64 1.6018 4.7924 0
M  V30 13407 C 1253.84 1.95323 4.75766 0
M  V30 13408 N 1251.82 2.83793 5.44366 0
M  V30 13409 C 1253.19 3.03516 5.40628 0
M  V30 13410 C 1255.24 1.95982 4.57707 0
M  V30 13411 C 1253.95 4.12396 5.89341 0
M  V30 13412 C 1255.97 3.03839 5.07382 0
M  V30 13413 C 1255.33 4.10749 5.72245 0
M  V30 13414 H 1251.43 0.0285863 0.781477 0
M  V30 13415 H 1254.02 0.677787 1.82522 0
M  V30 13416 H 1252.19 -0.921111 3.7732 0
M  V30 13417 H 1253.92 -0.773993 3.9723 0
M  V30 13418 H 1250.68 1.14674 4.59507 0
M  V30 13419 H 1251.1 3.46654 5.81515 0
M  V30 13420 H 1255.74 1.14632 4.06963 0
M  V30 13421 H 1253.46 4.94542 6.39104 0
M  V30 13422 H 1257.05 3.0537 4.95218 0
M  V30 13423 H 1255.93 4.92833 6.09988 0
M  V30 13424 N 1253.43 -1.55816 0.23648 0
M  V30 13425 C 1254.66 -2.03083 -0.395584 0
M  V30 13426 C 1255.07 -1.11599 -1.52286 0
M  V30 13427 O 1254.43 -0.128403 -1.82048 0
M  V30 13428 C 1254.48 -3.49776 -0.913197 0
M  V30 13429 O 1254.2 -4.37773 0.169151 0
M  V30 13430 C 1255.7 -4.12756 -1.617 0
M  V30 13431 H 1252.92 -0.66421 -0.0952146 0
M  V30 13432 H 1255.47 -2.01354 0.357299 0
M  V30 13433 H 1253.62 -3.52072 -1.6163 0
M  V30 13434 H 1254.03 -5.24029 -0.222217 0
M  V30 13435 H 1255.51 -5.17123 -1.93101 0
M  V30 13436 H 1255.99 -3.58631 -2.53537 0
M  V30 13437 H 1256.59 -4.14353 -0.958736 0
M  V30 13438 N 1254.91 0.036755 -1.57557 0
M  V30 13439 C 1256.15 0.727665 -1.88546 0
M  V30 13440 C 1256.48 1.76304 -0.833179 0
M  V30 13441 O 1255.75 1.9544 0.13414 0
M  V30 13442 H 1254.33 0.271744 -0.695819 0
M  V30 13443 H 1256.99 0.00452915 -1.94899 0
M  V30 13444 H 1256.08 1.22205 -2.8718 0
M  V30 13445 N 1256.39 1.54543 0.308881 0
M  V30 13446 C 1257.8 1.64532 0.882392 0
M  V30 13447 C 1258.15 0.54886 1.88367 0
M  V30 13448 O 1257.27 -0.315832 2.14083 0
M  V30 13449 C 1257.87 2.98251 1.60722 0
M  V30 13450 C 1256.43 3.10387 2.12925 0
M  V30 13451 C 1255.57 2.60176 0.959362 0
M  V30 13452 H 1258.52 1.58466 0.0860803 0
M  V30 13453 H 1258.55 2.89233 2.47233 0
M  V30 13454 H 1258.06 3.78033 0.878233 0
M  V30 13455 H 1256.16 2.35309 2.88895 0
M  V30 13456 H 1256.27 4.16421 2.36918 0
M  V30 13457 H 1254.64 2.16434 1.3427 0
M  V30 13458 H 1255.42 3.42429 0.244454 0
M  V30 13459 N 1257.86 -0.571685 1.46866 0
M  V30 13460 C 1258.83 -1.66198 1.57832 0
M  V30 13461 C 1259.83 -1.54242 0.454547 0
M  V30 13462 O 1261.02 -1.58661 0.719191 0
M  V30 13463 C 1258.15 -3.05678 1.5091 0
M  V30 13464 H 1259.34 -1.57829 2.5501 0
M  V30 13465 H 1256.89 -0.790433 1.3484 0
M  V30 13466 H 1257.63 -3.19593 0.550529 0
M  V30 13467 H 1257.41 -3.15765 2.32454 0
M  V30 13468 H 1258.9 -3.85027 1.61692 0
M  V30 13469 N 1259.34 -1.34755 -0.817236 0
M  V30 13470 C 1260.62 -1.18007 -1.55993 0
M  V30 13471 C 1261 0.245079 -2.09673 0
M  V30 13472 O 1260.35 1.24718 -1.91462 0
M  V30 13473 C 1260.56 -2.23934 -2.67684 0
M  V30 13474 C 1261.9 -2.59201 -3.36303 0
M  V30 13475 O 1262.93 -2.22767 -2.77945 0
M  V30 13476 O 1261.79 -3.21809 -4.41702 0
M  V30 13477 H 1258.88 -0.4578 -0.688729 0
M  V30 13478 H 1261.43 -1.46405 -0.858117 0
M  V30 13479 H 1260.2 -3.19568 -2.25813 0
M  V30 13480 H 1259.82 -1.96745 -3.4551 0
M  V30 13481 N 1260.82 1.03812 -1.18578 0
M  V30 13482 C 1261.77 2.11883 -0.915115 0
M  V30 13483 C 1262.74 1.65453 0.146479 0
M  V30 13484 O 1263.92 1.90799 0.00630058 0
M  V30 13485 C 1261.06 3.42157 -0.449755 0
M  V30 13486 C 1260.17 4.02185 -1.57706 0
M  V30 13487 C 1259.31 5.20431 -1.06417 0
M  V30 13488 C 1258.35 5.72496 -2.16599 0
M  V30 13489 N 1257.49 6.82027 -1.66685 0
M  V30 13490 H 1262.33 2.34373 -1.84047 0
M  V30 13491 H 1259.86 1.14962 -0.917728 0
M  V30 13492 H 1261.82 4.16888 -0.161407 0
M  V30 13493 H 1260.45 3.19806 0.438622 0
M  V30 13494 H 1259.5 3.24757 -1.98083 0
M  V30 13495 H 1260.81 4.36851 -2.40754 0
M  V30 13496 H 1259.97 6.02286 -0.730497 0
M  V30 13497 H 1258.71 4.87276 -0.203301 0
M  V30 13498 H 1257.71 4.8926 -2.50808 0
M  V30 13499 H 1258.94 6.07694 -3.03126 0
M  V30 13500 H 1256.88 6.50742 -0.828916 0
M  V30 13501 H 1256.8 7.1577 -2.43329 0
M  V30 13502 H 1258.07 7.67499 -1.36253 0
M  V30 13503 N 1262.3 0.988223 1.22768 0
M  V30 13504 C 1263.26 0.539813 2.22752 0
M  V30 13505 C 1264.26 -0.374796 1.56371 0
M  V30 13506 O 1265.45 -0.167402 1.73394 0
M  V30 13507 C 1262.58 -0.215461 3.40218 0
M  V30 13508 H 1263.78 1.42397 2.63938 0
M  V30 13509 H 1261.33 0.774933 1.35737 0
M  V30 13510 H 1262.06 -1.11581 3.045 0
M  V30 13511 H 1261.85 0.441173 3.8961 0
M  V30 13512 H 1263.34 -0.517517 4.14381 0
M  V30 13513 N 1263.78 -1.38018 0.760839 0
M  V30 13514 C 1265 -2.04757 0.330038 0
M  V30 13515 C 1265.43 -1.57009 -1.03585 0
M  V30 13516 O 1264.78 -0.725349 -1.66158 0
M  V30 13517 C 1264.83 -3.58696 0.370082 0
M  V30 13518 O 1263.94 -4.07507 -0.633361 0
M  V30 13519 H 1263.28 -0.648023 0.144782 0
M  V30 13520 H 1265.81 -1.7655 1.03399 0
M  V30 13521 H 1265.82 -4.07387 0.223515 0
M  V30 13522 H 1264.49 -3.92806 1.36661 0
M  V30 13523 H 1263.07 -3.70165 -0.45081 0
M  V30 13524 N 1265.25 -0.510493 -1.49103 0
M  V30 13525 C 1266.2 0.262848 -2.29298 0
M  V30 13526 C 1267.17 0.951714 -1.36131 0
M  V30 13527 O 1268.36 0.956534 -1.65091 0
M  V30 13528 C 1265.5 1.31565 -3.19037 0
M  V30 13529 C 1264.61 0.637598 -4.27269 0
M  V30 13530 C 1263.74 1.67165 -5.04212 0
M  V30 13531 C 1262.78 0.975992 -6.04269 0
M  V30 13532 N 1261.92 1.95468 -6.74342 0
M  V30 13533 H 1266.76 -0.427246 -2.94921 0
M  V30 13534 H 1264.3 -0.222538 -1.45407 0
M  V30 13535 H 1266.25 1.93813 -3.69449 0
M  V30 13536 H 1264.88 1.97438 -2.55379 0
M  V30 13537 H 1263.94 -0.0983863 -3.80273 0
M  V30 13538 H 1265.25 0.0904435 -4.98718 0
M  V30 13539 H 1264.4 2.36893 -5.5854 0
M  V30 13540 H 1263.14 2.25267 -4.32557 0
M  V30 13541 H 1262.15 0.264534 -5.49163 0
M  V30 13542 H 1263.37 0.40134 -6.77913 0
M  V30 13543 H 1261.32 2.52515 -6.05452 0
M  V30 13544 H 1261.23 1.45845 -7.41799 0
M  V30 13545 H 1262.5 2.64455 -7.33269 0
M  V30 13546 N 1266.73 1.55688 -0.24474 0
M  V30 13547 C 1267.64 2.24933 0.666519 0
M  V30 13548 C 1268.66 1.26471 1.19503 0
M  V30 13549 O 1269.83 1.59342 1.23176 0
M  V30 13550 C 1266.9 2.9336 1.84772 0
M  V30 13551 C 1265.96 4.07225 1.35889 0
M  V30 13552 C 1265.19 4.72381 2.48379 0
M  V30 13553 O 1265.42 4.36605 3.67059 0
M  V30 13554 O 1264.35 5.60933 2.18261 0
M  V30 13555 H 1268.18 3.03513 0.106507 0
M  V30 13556 H 1265.76 1.49394 -0.0133309 0
M  V30 13557 H 1267.64 3.36468 2.53708 0
M  V30 13558 H 1266.32 2.17721 2.39539 0
M  V30 13559 H 1265.22 3.68639 0.636881 0
M  V30 13560 H 1266.56 4.84676 0.857333 0
M  V30 13561 N 1268.21 -0.0283989 1.57574 0
M  V30 13562 C 1269.17 -1.01346 2.05576 0
M  V30 13563 C 1270.17 -1.28999 0.960001 0
M  V30 13564 O 1271.36 -1.23991 1.2236 0
M  V30 13565 C 1268.49 -2.34611 2.47327 0
M  V30 13566 H 1269.69 -0.598809 2.93861 0
M  V30 13567 H 1267.24 -0.27524 1.53857 0
M  V30 13568 H 1267.98 -2.80823 1.622 0
M  V30 13569 H 1267.76 -2.1587 3.27326 0
M  V30 13570 H 1269.25 -3.05332 2.84889 0
M  V30 13571 N 1269.69 -1.54705 -0.300681 0
M  V30 13572 C 1270.91 -1.78318 -1.05913 0
M  V30 13573 C 1271.34 -0.541177 -1.80147 0
M  V30 13574 O 1270.7 0.508291 -1.74029 0
M  V30 13575 C 1270.74 -2.99041 -2.01511 0
M  V30 13576 O 1269.85 -2.72188 -3.09818 0
M  V30 13577 H 1269.19 -0.590197 -0.304242 0
M  V30 13578 H 1271.72 -2.01789 -0.338006 0
M  V30 13579 H 1271.73 -3.2702 -2.43971 0
M  V30 13580 H 1270.4 -3.89098 -1.46886 0
M  V30 13581 H 1268.98 -2.55227 -2.71871 0
M  V30 13582 N 1271.17 0.563888 -1.47167 0
M  V30 13583 C 1272.58 0.889156 -1.32537 0
M  V30 13584 C 1272.78 1.99088 -0.310854 0
M  V30 13585 O 1271.84 2.50943 0.27998 0
M  V30 13586 C 1273.15 1.28871 -2.71685 0
M  V30 13587 C 1274.7 1.40051 -2.79919 0
M  V30 13588 C 1275.17 1.83364 -4.19692 0
M  V30 13589 N 1276.67 1.90526 -4.22201 0
M  V30 13590 C 1277.4 2.25355 -5.2726 0
M  V30 13591 N 1276.9 2.58844 -6.42629 0
M  V30 13592 N 1278.69 2.26071 -5.14634 0
M  V30 13593 H 1270.84 -0.163581 -2.11769 0
M  V30 13594 H 1273.1 -0.0105151 -0.947942 0
M  V30 13595 H 1272.81 0.553057 -3.47324 0
M  V30 13596 H 1272.68 2.24629 -3.03021 0
M  V30 13597 H 1275.07 2.12698 -2.04557 0
M  V30 13598 H 1275.15 0.424971 -2.52245 0
M  V30 13599 H 1274.8 1.11289 -4.95557 0
M  V30 13600 H 1274.73 2.81909 -4.44786 0
M  V30 13601 H 1277.22 1.67059 -3.38968 0
M  V30 13602 H 1277.53 2.84427 -7.18555 0
M  V30 13603 H 1275.87 2.56439 -6.4596 0
M  V30 13604 H 1279.07 1.99343 -4.23533 0
M  V30 13605 H 1279.24 2.52885 -5.96618 0
M  V30 13606 N 1272.64 1.35187 0.810078 0
M  V30 13607 C 1273.87 1.31181 1.59609 0
M  V30 13608 C 1274.28 -0.113556 1.88859 0
M  V30 13609 O 1273.63 -1.07491 1.48968 0
M  V30 13610 C 1273.69 2.04749 2.95496 0
M  V30 13611 C 1273.35 3.53952 2.89079 0
M  V30 13612 C 1274.35 4.48612 2.6276 0
M  V30 13613 C 1272.03 3.96551 3.08306 0
M  V30 13614 C 1274.03 5.83846 2.5574 0
M  V30 13615 C 1271.71 5.31881 3.00909 0
M  V30 13616 C 1272.71 6.2534 2.74661 0
M  V30 13617 O 1272.4 7.58188 2.6722 0
M  V30 13618 H 1272.13 0.452285 0.502408 0
M  V30 13619 H 1274.69 1.78571 1.01497 0
M  V30 13620 H 1272.92 1.51992 3.55577 0
M  V30 13621 H 1274.61 1.93866 3.5661 0
M  V30 13622 H 1275.37 4.1702 2.47628 0
M  V30 13623 H 1271.25 3.24194 3.27749 0
M  V30 13624 H 1274.79 6.56765 2.35172 0
M  V30 13625 H 1270.69 5.63088 3.15598 0
M  V30 13626 H 1271.46 7.68073 2.82853 0
M  V30 13627 N 1274.12 -1.03182 1.19127 0
M  V30 13628 C 1275.54 -1.28773 0.942854 0
M  V30 13629 C 1275.74 -1.97759 -0.386483 0
M  V30 13630 O 1274.79 -2.26365 -1.1187 0
M  V30 13631 C 1276.11 -2.13771 2.11476 0
M  V30 13632 C 1277.66 -2.27089 2.15406 0
M  V30 13633 C 1278.13 -3.15458 3.32039 0
M  V30 13634 N 1279.62 -3.23046 3.31957 0
M  V30 13635 C 1280.36 -3.91604 4.18848 0
M  V30 13636 N 1279.85 -4.62418 5.15889 0
M  V30 13637 N 1281.65 -3.87974 4.06734 0
M  V30 13638 H 1273.8 -0.568165 2.0466 0
M  V30 13639 H 1276.06 -0.31328 0.89474 0
M  V30 13640 H 1275.77 -1.704 3.07663 0
M  V30 13641 H 1275.64 -3.14476 2.0829 0
M  V30 13642 H 1278.03 -2.69693 1.19791 0
M  V30 13643 H 1278.11 -1.25945 2.22647 0
M  V30 13644 H 1277.75 -2.73564 4.27931 0
M  V30 13645 H 1277.68 -4.16654 3.22035 0
M  V30 13646 H 1280.17 -2.7261 2.6171 0
M  V30 13647 H 1280.49 -5.12353 5.78545 0
M  V30 13648 H 1278.83 -4.61293 5.1984 0
M  V30 13649 H 1282.02 -3.31789 3.30202 0
M  V30 13650 H 1282.19 -4.4113 4.74666 0
M  V30 13651 N 1275.6 -0.99472 -1.22242 0
M  V30 13652 C 1276.88 -0.587481 -1.86569 0
M  V30 13653 C 1277.26 0.935174 -1.89256 0
M  V30 13654 O 1276.61 1.81787 -1.3844 0
M  V30 13655 C 1276.82 -1.21001 -3.27353 0
M  V30 13656 C 1278.16 -1.31167 -4.03832 0
M  V30 13657 O 1279.19 -1.16454 -3.36626 0
M  V30 13658 O 1278.05 -1.54731 -5.24138 0
M  V30 13659 H 1275.14 -0.199838 -0.802492 0
M  V30 13660 H 1277.69 -1.09071 -1.30006 0
M  V30 13661 H 1276.46 -2.25143 -3.20041 0
M  V30 13662 H 1276.08 -0.692479 -3.91523 0
M  V30 13663 N 1277.08 1.37613 -0.768148 0
M  V30 13664 C 1278.01 2.3291 -0.165911 0
M  V30 13665 C 1278.99 1.556 0.687205 0
M  V30 13666 O 1280.17 1.83854 0.625407 0
M  V30 13667 C 1277.3 3.39822 0.7168 0
M  V30 13668 C 1276.26 4.27986 -0.0347264 0
M  V30 13669 C 1275.58 5.2588 0.967192 0
M  V30 13670 C 1276.88 5.08052 -1.21164 0
M  V30 13671 H 1278.58 2.83524 -0.962006 0
M  V30 13672 H 1276.12 1.36318 -0.464051 0
M  V30 13673 H 1278.08 4.05464 1.14789 0
M  V30 13674 H 1276.8 2.87725 1.54538 0
M  V30 13675 H 1275.46 3.6387 -0.446557 0
M  V30 13676 H 1275.11 4.70064 1.79022 0
M  V30 13677 H 1274.81 5.85726 0.468913 0
M  V30 13678 H 1276.33 5.94397 1.3973 0
M  V30 13679 H 1277.75 5.66853 -0.857373 0
M  V30 13680 H 1276.14 5.77206 -1.64176 0
M  V30 13681 H 1277.21 4.40936 -2.0175 0
M  V30 13682 N 1278.56 0.518393 1.4883 0
M  V30 13683 C 1279.8 -0.019866 2.0209 0
M  V30 13684 C 1280.13 -1.35863 1.3988 0
M  V30 13685 O 1279.4 -1.87722 0.560117 0
M  V30 13686 H 1277.98 -0.0103306 0.746929 0
M  V30 13687 H 1280.64 0.679591 1.82668 0
M  V30 13688 H 1279.73 -0.136749 3.118 0
M  V30 13689 N 1280.03 -1.55556 0.252993 0
M  V30 13690 C 1280.98 -2.23035 -0.660161 0
M  V30 13691 C 1281.98 -1.21994 -1.17532 0
M  V30 13692 O 1283.18 -1.39989 -1.13151 0
M  V30 13693 H 1279.56 -0.715516 -0.23139 0
M  V30 13694 H 1281.53 -2.98323 -0.0679506 0
M  V30 13695 C 1280.28 -2.94817 -1.84332 0
M  V30 13696 H 1279.6 -3.72342 -1.45607 0
M  V30 13697 H 1281.04 -3.45386 -2.45936 0
M  V30 13698 C 1279.5 -1.99033 -2.71822 0
M  V30 13699 O 1280.03 -1.5273 -3.71533 0
M  V30 13700 N 1278.24 -1.66004 -2.38518 0
M  V30 13701 H 1277.78 -2.03853 -1.57485 0
M  V30 13702 H 1277.74 -1.02183 -2.97331 0
M  V30 13703 N 1281.51 0.0200419 -1.57587 0
M  V30 13704 C 1282.74 0.724241 -1.94344 0
M  V30 13705 C 1283.16 1.67612 -0.853688 0
M  V30 13706 O 1282.52 1.80303 0.189873 0
M  V30 13707 C 1282.57 1.44967 -3.30177 0
M  V30 13708 O 1281.67 2.56326 -3.23064 0
M  V30 13709 H 1281.01 0.194142 -0.634984 0
M  V30 13710 H 1283.54 -0.0271756 -2.04582 0
M  V30 13711 H 1283.55 1.81758 -3.65278 0
M  V30 13712 H 1282.23 0.75161 -4.09052 0
M  V30 13713 H 1280.81 2.22011 -2.99609 0
M  V30 13714 N 1282.99 1.54862 0.292472 0
M  V30 13715 C 1284.24 1.73756 1.02429 0
M  V30 13716 C 1284.55 0.535164 1.88137 0
M  V30 13717 O 1285.76 0.606092 2.64648 0
M  V30 13718 C 1284.21 3.0745 1.8709 0
M  V30 13719 C 1283.82 4.35195 1.06343 0
M  V30 13720 C 1285.57 3.357 2.59819 0
M  V30 13721 C 1283.47 5.59936 1.9033 0
M  V30 13722 H 1282.4 0.647617 0.386145 0
M  V30 13723 H 1285.05 1.81338 0.28086 0
M  V30 13724 H 1283.44 2.93855 2.65453 0
M  V30 13725 H 1284.61 4.5965 0.325335 0
M  V30 13726 H 1282.93 4.13944 0.451574 0
M  V30 13727 H 1285.52 4.26099 3.23023 0
M  V30 13728 H 1285.87 2.54956 3.29094 0
M  V30 13729 H 1286.4 3.50304 1.88499 0
M  V30 13730 H 1283.14 6.43372 1.25509 0
M  V30 13731 H 1282.66 5.39654 2.61789 0
M  V30 13732 H 1284.34 5.97512 2.48171 0
M  V30 13733 N 1284.47 -0.556076 1.47464 0
M  V30 13734 C 1285.71 -1.31515 1.54375 0
M  V30 13735 C 1286.05 -1.93106 0.205837 0
M  V30 13736 O 1285.32 -1.77927 -0.785643 0
M  V30 13737 C 1285.61 -2.4244 2.66261 0
M  V30 13738 C 1285.46 -1.8571 4.09673 0
M  V30 13739 C 1286.78 -3.4436 2.74051 0
M  V30 13740 H 1283.9 -0.476817 0.561974 0
M  V30 13741 H 1286.54 -0.622157 1.79525 0
M  V30 13742 H 1284.69 -3.01551 2.44948 0
M  V30 13743 H 1286.36 -1.30851 4.42353 0
M  V30 13744 H 1284.6 -1.16379 4.17898 0
M  V30 13745 H 1285.27 -2.65904 4.83735 0
M  V30 13746 H 1287.75 -2.95169 2.93282 0
M  V30 13747 H 1286.63 -4.194 3.54111 0
M  V30 13748 H 1286.89 -4.03281 1.81155 0
M  V30 13749 N 1285.95 -1.35615 -0.802897 0
M  V30 13750 C 1287.17 -1.32377 -1.59659 0
M  V30 13751 C 1287.6 0.0954235 -1.87858 0
M  V30 13752 O 1286.96 1.06336 -1.46842 0
M  V30 13753 C 1287 -2.13972 -2.90256 0
M  V30 13754 O 1286.11 -1.52296 -3.83249 0
M  V30 13755 H 1285.45 -0.453699 -0.484823 0
M  V30 13756 H 1287.98 -1.78708 -0.996217 0
M  V30 13757 H 1287.99 -2.26061 -3.39647 0
M  V30 13758 H 1286.66 -3.17145 -2.69057 0
M  V30 13759 H 1285.24 -1.49068 -3.41809 0
M  V30 13760 N 1287.43 1.02549 -1.19673 0
M  V30 13761 C 1288.67 1.75656 -0.999463 0
M  V30 13762 C 1288.99 1.89238 0.470517 0
M  V30 13763 O 1288.26 1.42843 1.34062 0
M  V30 13764 H 1286.84 0.650732 -0.366821 0
M  V30 13765 H 1289.51 1.23684 -1.50627 0
M  V30 13766 H 1288.6 2.76353 -1.45035 0
M  V30 13767 N 1288.9 1.00119 1.21713 0
M  V30 13768 C 1290.15 0.681723 1.9068 0
M  V30 13769 C 1290.48 -0.787121 1.77861 0
M  V30 13770 O 1289.73 -1.58573 1.14687 0
M  V30 13771 C 1290.03 1.04376 3.41819 0
M  V30 13772 C 1289.7 2.50624 3.74831 0
M  V30 13773 C 1288.36 2.90587 3.83552 0
M  V30 13774 C 1290.71 3.45377 3.90339 0
M  V30 13775 C 1288.04 4.24276 4.05225 0
M  V30 13776 C 1290.39 4.78734 4.13517 0
M  V30 13777 C 1289.06 5.18427 4.20464 0
M  V30 13778 H 1288.33 0.24946 0.697747 0
M  V30 13779 H 1290.97 1.25892 1.44304 0
M  V30 13780 H 1289.28 0.384756 3.89906 0
M  V30 13781 H 1290.98 0.774488 3.9345 0
M  V30 13782 H 1287.57 2.18651 3.68632 0
M  V30 13783 H 1291.75 3.15669 3.82971 0
M  V30 13784 H 1287.01 4.54605 4.08833 0
M  V30 13785 H 1291.18 5.52094 4.24459 0
M  V30 13786 H 1288.81 6.22034 4.3701 0
M  V30 13787 N 1290.38 -1.37203 0.775435 0
M  V30 13788 C 1291.31 -2.28873 0.122374 0
M  V30 13789 C 1292.33 -1.48811 -0.660239 0
M  V30 13790 O 1293.52 -1.7142 -0.497724 0
M  V30 13791 C 1290.62 -3.28062 -0.850212 0
M  V30 13792 C 1289.79 -4.37234 -0.120633 0
M  V30 13793 C 1288.85 -5.16472 -1.00712 0
M  V30 13794 O 1287.87 -5.6726 -0.469528 0
M  V30 13795 N 1289.08 -5.31556 -2.33299 0
M  V30 13796 H 1291.84 -2.85559 0.909741 0
M  V30 13797 H 1289.4 -1.49219 0.628107 0
M  V30 13798 H 1291.39 -3.77956 -1.44678 0
M  V30 13799 H 1289.96 -2.72118 -1.53853 0
M  V30 13800 H 1289.18 -3.88688 0.656879 0
M  V30 13801 H 1290.47 -5.07354 0.383358 0
M  V30 13802 H 1289.87 -4.91883 -2.79406 0
M  V30 13803 H 1288.43 -5.84745 -2.87953 0
M  V30 13804 N 1291.86 -0.526279 -1.48553 0
M  V30 13805 C 1292.79 0.227364 -2.3239 0
M  V30 13806 C 1293.77 0.93862 -1.41859 0
M  V30 13807 O 1294.96 0.925119 -1.70749 0
M  V30 13808 C 1292.09 1.277 -3.22971 0
M  V30 13809 C 1291.04 0.684107 -4.22497 0
M  V30 13810 C 1290.37 1.83612 -5.02186 0
M  V30 13811 C 1291.67 -0.341723 -5.21181 0
M  V30 13812 H 1293.36 -0.472486 -2.95648 0
M  V30 13813 H 1290.91 -0.228669 -1.42173 0
M  V30 13814 H 1292.86 1.81215 -3.80446 0
M  V30 13815 H 1291.58 2.00638 -2.57705 0
M  V30 13816 H 1290.24 0.170505 -3.66203 0
M  V30 13817 H 1289.89 2.55379 -4.33348 0
M  V30 13818 H 1289.59 1.44536 -5.69547 0
M  V30 13819 H 1291.11 2.37513 -5.62512 0
M  V30 13820 H 1292.53 0.106207 -5.73202 0
M  V30 13821 H 1290.92 -0.649673 -5.96573 0
M  V30 13822 H 1291.99 -1.2488 -4.68543 0
M  V30 13823 N 1293.34 1.5542 -0.261239 0
M  V30 13824 C 1294.3 2.20683 0.619011 0
M  V30 13825 C 1295.3 1.18042 1.09192 0
M  V30 13826 O 1296.49 1.43035 0.99432 0
M  V30 13827 C 1293.62 2.86179 1.85242 0
M  V30 13828 H 1294.82 2.99859 0.0493924 0
M  V30 13829 H 1292.37 1.56296 -0.0117687 0
M  V30 13830 H 1293.1 2.10978 2.4629 0
M  V30 13831 H 1292.89 3.61381 1.52138 0
M  V30 13832 H 1294.38 3.36081 2.47869 0
M  V30 13833 N 1294.82 -0.0116844 1.57596 0
M  V30 13834 C 1296.04 -0.71026 1.94327 0
M  V30 13835 C 1296.46 -1.67952 0.862418 0
M  V30 13836 O 1295.82 -1.818 -0.159698 0
M  V30 13837 C 1295.87 -1.45228 3.31045 0
M  V30 13838 O 1295.59 -0.52191 4.3498 0
M  V30 13839 C 1297.09 -2.24644 3.82165 0
M  V30 13840 H 1294.31 -0.198559 0.640949 0
M  V30 13841 H 1296.85 0.0359615 2.04468 0
M  V30 13842 H 1295.01 -2.15023 3.22248 0
M  V30 13843 H 1295.42 -1.04415 5.14002 0
M  V30 13844 H 1296.9 -2.72078 4.80289 0
M  V30 13845 H 1297.37 -3.06817 3.14261 0
M  V30 13846 H 1297.98 -1.59888 3.94101 0
M  V30 13847 N 1296.29 -1.55015 -0.284256 0
M  V30 13848 C 1297.22 -1.90128 -1.3555 0
M  V30 13849 C 1298.2 -0.761914 -1.52082 0
M  V30 13850 O 1299.39 -1.01909 -1.65312 0
M  V30 13851 C 1296.52 -2.16332 -2.71695 0
M  V30 13852 C 1295.47 -3.32166 -2.69907 0
M  V30 13853 C 1294.8 -3.43824 -4.09498 0
M  V30 13854 C 1296.1 -4.6885 -2.30168 0
M  V30 13855 H 1297.79 -2.79852 -1.06411 0
M  V30 13856 H 1295.34 -1.34649 -0.510451 0
M  V30 13857 H 1297.29 -2.39482 -3.46737 0
M  V30 13858 H 1296.02 -1.23395 -3.02392 0
M  V30 13859 H 1294.68 -3.08965 -1.97322 0
M  V30 13860 H 1294.32 -2.48375 -4.374 0
M  V30 13861 H 1294.02 -4.21698 -4.092 0
M  V30 13862 H 1295.55 -3.69254 -4.86296 0
M  V30 13863 H 1296.96 -4.91619 -2.9493 0
M  V30 13864 H 1295.36 -5.49558 -2.41052 0
M  V30 13865 H 1296.43 -4.68433 -1.25294 0
M  V30 13866 N 1297.77 0.548248 -1.47757 0
M  V30 13867 C 1299 1.335 -1.58722 0
M  V30 13868 C 1299.42 1.86549 -0.241034 0
M  V30 13869 O 1298.78 1.63447 0.784517 0
M  V30 13870 C 1298.83 2.47457 -2.62293 0
M  V30 13871 O 1297.93 3.49956 -2.18185 0
M  V30 13872 H 1297.27 0.396166 -0.532868 0
M  V30 13873 H 1299.8 0.66164 -1.93607 0
M  V30 13874 H 1299.81 2.93901 -2.82995 0
M  V30 13875 H 1298.49 2.08203 -3.60034 0
M  V30 13876 H 1297.06 3.09755 -2.0762 0
M  V30 13877 N 1299.25 1.36039 0.795694 0
M  V30 13878 C 1300.5 1.29663 1.55023 0
M  V30 13879 C 1300.82 -0.125588 1.94595 0
M  V30 13880 O 1300.09 -1.06447 1.64456 0
M  V30 13881 H 1298.67 0.476962 0.574906 0
M  V30 13882 H 1301.33 1.70265 0.948471 0
M  V30 13883 H 1300.43 1.91982 2.46068 0
M  V30 13884 N 1300.73 -1.01913 1.20215 0
M  V30 13885 C 1302.14 -1.5692 1.01159 0
M  V30 13886 C 1302.49 -1.91368 -0.432746 0
M  V30 13887 O 1301.62 -1.71959 -1.31374 0
M  V30 13888 C 1302.21 -2.85125 1.83001 0
M  V30 13889 C 1300.77 -3.36669 1.68318 0
M  V30 13890 C 1299.92 -2.10003 1.81091 0
M  V30 13891 H 1302.87 -0.843246 1.34443 0
M  V30 13892 H 1302.89 -3.56428 1.33188 0
M  V30 13893 H 1302.4 -2.60021 2.88116 0
M  V30 13894 H 1300.5 -3.66739 0.658292 0
M  V30 13895 H 1300.61 -4.09042 2.49442 0
M  V30 13896 H 1298.98 -2.22337 1.24252 0
M  V30 13897 H 1299.76 -1.87329 2.87685 0
M  V30 13898 N 1302.21 -1.00763 -1.2118 0
M  V30 13899 C 1303.14 -0.515053 -2.22312 0
M  V30 13900 C 1304.12 0.432665 -1.56738 0
M  V30 13901 O 1305.3 0.35477 -1.85131 0
M  V30 13902 C 1302.43 0.251544 -3.37765 0
M  V30 13903 C 1301.47 -0.64437 -4.21604 0
M  V30 13904 S 1302.31 -2.10832 -4.9225 0
M  V30 13905 C 1303.46 -1.35163 -6.11132 0
M  V30 13906 H 1303.7 -1.37198 -2.6375 0
M  V30 13907 H 1301.23 -0.815783 -1.31089 0
M  V30 13908 H 1303.19 0.687761 -4.04698 0
M  V30 13909 H 1301.85 1.08393 -2.94805 0
M  V30 13910 H 1301.04 -0.0537452 -5.03971 0
M  V30 13911 H 1300.64 -1.01798 -3.5988 0
M  V30 13912 H 1302.94 -0.6269 -6.74593 0
M  V30 13913 H 1303.88 -2.15111 -6.74635 0
M  V30 13914 H 1304.29 -0.858444 -5.57935 0
M  V30 13915 N 1303.68 1.3679 -0.7827 0
M  V30 13916 C 1304.92 2.01252 -0.357327 0
M  V30 13917 C 1305.29 1.60782 1.04944 0
M  V30 13918 O 1306.49 2.17785 1.57553 0
M  V30 13919 C 1304.76 3.53766 -0.508352 0
M  V30 13920 S 1306.32 4.38471 -0.169862 0
M  V30 13921 H 1303.14 0.697701 -0.136875 0
M  V30 13922 H 1305.74 1.66799 -1.01972 0
M  V30 13923 H 1304.44 3.80708 -1.53262 0
M  V30 13924 H 1303.97 3.93032 0.170209 0
M  V30 13925 H 1305.99 4.85373 1.03088 0
M  V30 13926 N 1305.16 0.53415 1.48272 0
M  V30 13927 C 1306.07 -0.230062 2.33469 0
M  V30 13928 C 1307.09 -0.934889 1.46751 0
M  V30 13929 O 1308.26 -0.908921 1.79724 0
M  V30 13930 C 1305.33 -1.2609 3.22958 0
M  V30 13931 C 1304.39 -0.565983 4.25553 0
M  V30 13932 C 1303.62 -1.54771 5.10766 0
M  V30 13933 O 1303.85 -2.7807 4.9803 0
M  V30 13934 O 1302.78 -1.08482 5.92043 0
M  V30 13935 H 1306.61 0.468182 3.0007 0
M  V30 13936 H 1304.19 0.29502 1.46458 0
M  V30 13937 H 1306.07 -1.85652 3.783 0
M  V30 13938 H 1304.75 -1.94148 2.59014 0
M  V30 13939 H 1303.66 0.0702391 3.74034 0
M  V30 13940 H 1304.99 0.0727277 4.92146 0
M  V30 13941 N 1306.64 -1.55279 0.269478 0
M  V30 13942 C 1307.55 -2.25965 -0.63065 0
M  V30 13943 C 1308.57 -1.28357 -1.17476 0
M  V30 13944 O 1309.74 -1.61281 -1.20625 0
M  V30 13945 C 1306.81 -2.96263 -1.80081 0
M  V30 13946 C 1305.87 -4.09336 -1.29394 0
M  V30 13947 C 1305.1 -4.76272 -2.40833 0
M  V30 13948 O 1305.32 -4.42389 -3.60066 0
M  V30 13949 O 1304.26 -5.64334 -2.09309 0
M  V30 13950 H 1308.08 -3.03644 -0.0582069 0
M  V30 13951 H 1305.67 -1.49354 0.0370966 0
M  V30 13952 H 1307.55 -3.40461 -2.48322 0
M  V30 13953 H 1306.23 -2.21505 -2.36045 0
M  V30 13954 H 1305.13 -3.69605 -0.578154 0
M  V30 13955 H 1306.47 -4.85978 -0.780117 0
M  V30 13956 N 1308.12 0.00332656 -1.576 0
M  V30 13957 C 1309.53 0.546581 -1.7852 0
M  V30 13958 C 1309.88 1.74147 -0.903722 0
M  V30 13959 O 1309.01 2.16144 -0.105314 0
M  V30 13960 C 1309.6 0.998344 -3.23757 0
M  V30 13961 C 1308.16 1.48693 -3.45785 0
M  V30 13962 C 1307.31 0.436617 -2.73841 0
M  V30 13963 H 1310.26 -0.222852 -1.57128 0
M  V30 13964 H 1310.28 1.86452 -3.31686 0
M  V30 13965 H 1309.79 0.128479 -3.87887 0
M  V30 13966 H 1307.89 2.3778 -2.86865 0
M  V30 13967 H 1308 1.51668 -4.5446 0
M  V30 13968 H 1306.37 0.897506 -2.38363 0
M  V30 13969 H 1307.15 -0.424225 -3.40669 0
M  V30 13970 N 1309.6 1.55164 0.276031 0
M  V30 13971 C 1310.53 1.90844 1.34539 0
M  V30 13972 C 1311.51 0.769968 1.51676 0
M  V30 13973 O 1312.69 1.02785 1.64769 0
M  V30 13974 C 1309.82 2.17769 2.70543 0
M  V30 13975 C 1308.78 3.33592 2.68142 0
M  V30 13976 C 1308.1 3.45991 4.07669 0
M  V30 13977 C 1309.4 4.70064 2.27678 0
M  V30 13978 H 1311.1 2.80412 1.04926 0
M  V30 13979 H 1308.64 1.34918 0.503303 0
M  V30 13980 H 1310.6 2.41317 3.45462 0
M  V30 13981 H 1309.32 1.24997 3.01734 0
M  V30 13982 H 1307.98 3.10007 1.95681 0
M  V30 13983 H 1307.63 2.50691 4.36077 0
M  V30 13984 H 1307.33 4.23862 4.06958 0
M  V30 13985 H 1308.85 3.71828 4.84331 0
M  V30 13986 H 1310.26 4.93176 2.92319 0
M  V30 13987 H 1308.66 5.50829 2.38134 0
M  V30 13988 H 1309.73 4.69091 1.22808 0
M  V30 13989 N 1311.07 -0.540404 1.48045 0
M  V30 13990 C 1312.01 -1.66223 1.56349 0
M  V30 13991 C 1312.99 -1.57227 0.414552 0
M  V30 13992 O 1314.17 -1.77847 0.624709 0
M  V30 13993 C 1311.3 -3.04568 1.48176 0
M  V30 13994 C 1310.34 -3.31957 2.67781 0
M  V30 13995 S 1311.18 -3.19368 4.29842 0
M  V30 13996 C 1312.33 -4.60177 4.2425 0
M  V30 13997 H 1312.56 -1.58927 2.51256 0
M  V30 13998 H 1310.1 -0.722554 1.3645 0
M  V30 13999 H 1312.06 -3.84359 1.44147 0
M  V30 14000 H 1310.72 -3.09314 0.54625 0
M  V30 14001 H 1309.91 -4.32855 2.58172 0
M  V30 14002 H 1309.51 -2.59817 2.69019 0
M  V30 14003 H 1311.8 -5.51482 3.9354 0
M  V30 14004 H 1312.75 -4.74842 5.25291 0
M  V30 14005 H 1313.15 -4.39011 3.54865 0
M  V30 14006 N 1312.55 -1.36459 -0.788468 0
M  V30 14007 C 1313.8 -1.30483 -1.54333 0
M  V30 14008 C 1314.12 0.115266 -1.94659 0
M  V30 14009 O 1313.39 1.05573 -1.65019 0
M  V30 14010 H 1311.97 -0.480004 -0.572368 0
M  V30 14011 H 1314.63 -1.70765 -0.939428 0
M  V30 14012 H 1313.73 -1.93284 -2.45046 0
M  V30 14013 N 1314.03 1.01274 -1.20754 0
M  V30 14014 C 1315.28 1.75191 -1.02156 0
M  V30 14015 C 1315.61 1.89038 0.444791 0
M  V30 14016 O 1314.88 1.41903 1.33018 0
M  V30 14017 C 1315.17 3.16892 -1.71031 0
M  V30 14018 C 1315.02 3.10816 -3.25136 0
M  V30 14019 C 1316.34 4.15648 -1.44654 0
M  V30 14020 H 1313.46 0.635922 -0.372521 0
M  V30 14021 H 1316.1 1.18119 -1.48822 0
M  V30 14022 H 1314.25 3.6562 -1.31357 0
M  V30 14023 H 1315.92 2.69863 -3.74128 0
M  V30 14024 H 1314.17 2.48113 -3.5584 0
M  V30 14025 H 1314.84 4.11001 -3.68487 0
M  V30 14026 H 1317.31 3.75592 -1.7908 0
M  V30 14027 H 1316.19 5.12954 -1.95371 0
M  V30 14028 H 1316.45 4.40507 -0.37494 0
M  V30 14029 N 1315.51 1.01404 1.20644 0
M  V30 14030 C 1316.75 0.710412 1.91657 0
M  V30 14031 C 1317.11 -0.745972 1.76916 0
M  V30 14032 O 1318.31 -1.162 2.42386 0
M  V30 14033 C 1316.59 1.13093 3.39035 0
M  V30 14034 S 1318.14 0.948885 4.28418 0
M  V30 14035 H 1314.96 0.259074 0.662119 0
M  V30 14036 H 1317.56 1.30077 1.45946 0
M  V30 14037 H 1316.27 2.18682 3.47284 0
M  V30 14038 H 1315.8 0.533248 3.89769 0
M  V30 14039 H 1317.81 -0.149 4.95976 0
M  V30 14040 N 1316.99 -1.36373 0.789944 0
M  V30 14041 C 1318.23 -1.99227 0.362582 0
M  V30 14042 C 1318.56 -1.62694 -1.06587 0
M  V30 14043 O 1317.82 -0.873748 -1.75112 0
M  V30 14044 C 1318.12 -3.54243 0.474025 0
M  V30 14045 C 1317.78 -4.10597 1.86336 0
M  V30 14046 C 1316.44 -4.257 2.24349 0
M  V30 14047 C 1318.8 -4.41306 2.77306 0
M  V30 14048 C 1316.12 -4.68824 3.52734 0
M  V30 14049 C 1318.48 -4.85861 4.05119 0
M  V30 14050 C 1317.14 -4.9917 4.43154 0
M  V30 14051 H 1316.41 -0.729025 0.132678 0
M  V30 14052 H 1319.06 -1.62854 1.00751 0
M  V30 14053 H 1317.36 -3.90973 -0.254399 0
M  V30 14054 H 1319.06 -4.00807 0.124384 0
M  V30 14055 H 1315.65 -3.99281 1.55797 0
M  V30 14056 H 1319.83 -4.29205 2.49191 0
M  V30 14057 H 1315.09 -4.77315 3.82073 0
M  V30 14058 H 1319.26 -5.08587 4.75723 0
M  V30 14059 H 1316.89 -5.32344 5.42692 0
M  V30 14060 N 1318.47 -0.542005 -1.47987 0
M  V30 14061 C 1319.71 -0.0123299 -2.02796 0
M  V30 14062 C 1320.04 1.32789 -1.41707 0
M  V30 14063 O 1319.32 1.86048 -0.567119 0
M  V30 14064 C 1319.6 0.0969277 -3.5997 0
M  V30 14065 C 1319.46 -1.26931 -4.31519 0
M  V30 14066 C 1320.77 0.817854 -4.32434 0
M  V30 14067 H 1317.89 -0.00595479 -0.736976 0
M  V30 14068 H 1320.54 -0.70136 -1.76581 0
M  V30 14069 H 1318.69 0.683755 -3.82436 0
M  V30 14070 H 1320.36 -1.89817 -4.20437 0
M  V30 14071 H 1318.6 -1.84804 -3.92467 0
M  V30 14072 H 1319.27 -1.14573 -5.39979 0
M  V30 14073 H 1321.75 0.319749 -4.1487 0
M  V30 14074 H 1320.62 0.863225 -5.4207 0
M  V30 14075 H 1320.88 1.87075 -4.00569 0
M  V30 14076 N 1319.94 1.55134 -0.277709 0
M  V30 14077 C 1320.87 2.256 0.602232 0
M  V30 14078 C 1321.85 1.24708 1.15681 0
M  V30 14079 O 1323.04 1.53433 1.19046 0
M  V30 14080 C 1320.17 2.97907 1.78519 0
M  V30 14081 C 1319.12 4.0575 1.36203 0
M  V30 14082 C 1318.45 4.65644 2.62829 0
M  V30 14083 C 1319.75 5.19801 0.510327 0
M  V30 14084 H 1321.44 2.99396 0.0145622 0
M  V30 14085 H 1318.99 1.43999 0.00556389 0
M  V30 14086 H 1320.94 3.45915 2.40668 0
M  V30 14087 H 1319.67 2.21649 2.39873 0
M  V30 14088 H 1318.33 3.58557 0.763726 0
M  V30 14089 H 1317.97 3.86053 3.22447 0
M  V30 14090 H 1317.67 5.38463 2.35227 0
M  V30 14091 H 1319.2 5.16403 3.25823 0
M  V30 14092 H 1320.61 5.63845 1.03689 0
M  V30 14093 H 1319.01 5.99197 0.329073 0
M  V30 14094 H 1320.08 4.82614 -0.470273 0
M  V30 14095 N 1321.42 0.00503138 1.57599 0
M  V30 14096 C 1322.33 -1.00097 2.12174 0
M  V30 14097 C 1323.35 -1.37353 1.06818 0
M  V30 14098 O 1324.52 -1.45984 1.38747 0
M  V30 14099 C 1321.59 -2.27252 2.61835 0
M  V30 14100 C 1320.65 -1.96262 3.81811 0
M  V30 14101 C 1319.88 -3.17355 4.29094 0
M  V30 14102 O 1320.11 -4.2921 3.75679 0
M  V30 14103 O 1319.04 -3.01059 5.21198 0
M  V30 14104 H 1322.87 -0.567024 2.9836 0
M  V30 14105 H 1320.45 -0.214109 1.47858 0
M  V30 14106 H 1322.33 -3.01944 2.93952 0
M  V30 14107 H 1321.01 -2.69875 1.78744 0
M  V30 14108 H 1319.91 -1.19031 3.54658 0
M  V30 14109 H 1321.25 -1.58473 4.65991 0
M  V30 14110 N 1322.9 -1.55308 -0.267798 0
M  V30 14111 C 1323.85 -1.88544 -1.33115 0
M  V30 14112 C 1324.82 -0.737465 -1.48831 0
M  V30 14113 O 1326 -0.989215 -1.63154 0
M  V30 14114 C 1323.14 -2.1674 -2.68547 0
M  V30 14115 C 1322.25 -3.44234 -2.61011 0
M  V30 14116 C 1321.39 -3.62104 -3.88657 0
M  V30 14117 C 1320.43 -4.83272 -3.75652 0
M  V30 14118 N 1319.57 -4.97772 -4.95144 0
M  V30 14119 H 1324.41 -2.79237 -1.04071 0
M  V30 14120 H 1321.94 -1.38245 -0.502677 0
M  V30 14121 H 1323.9 -2.31088 -3.47353 0
M  V30 14122 H 1322.53 -1.29276 -2.95783 0
M  V30 14123 H 1321.58 -3.3833 -1.73887 0
M  V30 14124 H 1322.89 -4.33177 -2.47303 0
M  V30 14125 H 1322.05 -3.76298 -4.75904 0
M  V30 14126 H 1320.79 -2.71356 -4.05238 0
M  V30 14127 H 1319.79 -4.69076 -2.86788 0
M  V30 14128 H 1321.02 -5.75461 -3.60585 0
M  V30 14129 H 1318.96 -4.09956 -5.12125 0
M  V30 14130 H 1318.88 -5.80769 -4.83987 0
M  V30 14131 H 1320.15 -5.16357 -5.83949 0
M  V30 14132 N 1324.38 0.532545 -1.4833 0
M  V30 14133 C 1325.62 1.28795 -1.57427 0
M  V30 14134 C 1325.98 1.90848 -0.243885 0
M  V30 14135 O 1325.27 1.76183 0.753 0
M  V30 14136 C 1325.47 2.40117 -2.64724 0
M  V30 14137 C 1325.29 1.88976 -4.08066 0
M  V30 14138 C 1324.06 1.71696 -4.75235 0
M  V30 14139 C 1326.26 1.41979 -4.94314 0
M  V30 14140 N 1324.24 1.15154 -6.03003 0
M  V30 14141 C 1325.62 0.973661 -6.12307 0
M  V30 14142 C 1327.67 1.30258 -4.80559 0
M  V30 14143 C 1326.37 0.42195 -7.18061 0
M  V30 14144 C 1328.4 0.764867 -5.86433 0
M  V30 14145 C 1327.76 0.328799 -7.03632 0
M  V30 14146 H 1323.86 0.462412 -0.630634 0
M  V30 14147 H 1326.44 0.600796 -1.85199 0
M  V30 14148 H 1324.62 3.06332 -2.38779 0
M  V30 14149 H 1326.35 3.07146 -2.63521 0
M  V30 14150 H 1323.1 1.95143 -4.31528 0
M  V30 14151 H 1323.53 0.888999 -6.71138 0
M  V30 14152 H 1328.17 1.62578 -3.90293 0
M  V30 14153 H 1325.89 0.0864233 -8.08054 0
M  V30 14154 H 1329.47 0.677391 -5.77843 0
M  V30 14155 H 1328.35 -0.0808116 -7.84158 0
M  V30 14156 N 1325.86 1.36875 0.78122 0
M  V30 14157 C 1327.13 1.22101 1.52809 0
M  V30 14158 C 1327.51 -0.189402 2.10249 0
M  V30 14159 O 1326.86 -1.19598 1.94701 0
M  V30 14160 C 1327.07 2.30953 2.61652 0
M  V30 14161 C 1328.42 2.68027 3.29313 0
M  V30 14162 O 1329.44 2.30058 2.71941 0
M  V30 14163 O 1328.3 3.33407 4.33015 0
M  V30 14164 H 1325.4 0.4759 0.676349 0
M  V30 14165 H 1327.94 1.48629 0.818998 0
M  V30 14166 H 1326.71 3.25443 2.17261 0
M  V30 14167 H 1326.34 2.05837 3.40172 0
M  V30 14168 N 1327.33 -1.00632 1.21289 0
M  V30 14169 C 1328.26 -2.11238 0.995021 0
M  V30 14170 C 1329.24 -1.69914 -0.0795537 0
M  V30 14171 O 1330.43 -1.94035 0.0800152 0
M  V30 14172 C 1327.56 -3.42797 0.557475 0
M  V30 14173 C 1326.51 -3.97909 1.57646 0
M  V30 14174 C 1325.84 -5.25357 0.995197 0
M  V30 14175 C 1327.14 -4.30123 2.96297 0
M  V30 14176 H 1328.83 -2.29722 1.9201 0
M  V30 14177 H 1326.38 -1.10395 0.924602 0
M  V30 14178 H 1328.33 -4.19571 0.392236 0
M  V30 14179 H 1327.06 -3.24101 -0.403253 0
M  V30 14180 H 1325.72 -3.23254 1.72924 0
M  V30 14181 H 1325.36 -5.02993 0.026227 0
M  V30 14182 H 1325.06 -5.63196 1.67583 0
M  V30 14183 H 1326.59 -6.04777 0.841251 0
M  V30 14184 H 1328 -4.97744 2.8447 0
M  V30 14185 H 1326.4 -4.79101 3.61361 0
M  V30 14186 H 1327.47 -3.38454 3.47242 0
M  V30 14187 N 1328.81 -1.02043 -1.20104 0
M  V30 14188 C 1330.04 -0.731142 -1.94085 0
M  V30 14189 C 1330.46 0.702467 -1.74491 0
M  V30 14190 O 1329.82 1.48387 -1.04168 0
M  V30 14191 C 1329.87 -1.07691 -3.44144 0
M  V30 14192 O 1328.97 -0.190751 -4.11959 0
M  V30 14193 H 1328.31 -0.270917 -0.606218 0
M  V30 14194 H 1330.84 -1.36483 -1.52426 0
M  V30 14195 H 1330.85 -1.03023 -3.94779 0
M  V30 14196 H 1329.53 -2.1214 -3.57728 0
M  V30 14197 H 1328.1 -0.29529 -3.71729 0
M  V30 14198 N 1330.29 1.35952 -0.797165 0
M  V30 14199 C 1331.24 2.29941 -0.198995 0
M  V30 14200 C 1332.21 1.52355 0.661592 0
M  V30 14201 O 1333.39 1.80832 0.60865 0
M  V30 14202 C 1330.53 3.38846 0.654033 0
M  V30 14203 C 1329.65 4.31409 -0.225949 0
M  V30 14204 C 1328.78 5.27401 0.634188 0
M  V30 14205 C 1327.82 6.11602 -0.246773 0
M  V30 14206 N 1326.96 6.9976 0.57279 0
M  V30 14207 H 1331.8 2.80508 -1.00594 0
M  V30 14208 H 1329.33 1.38064 -0.507617 0
M  V30 14209 H 1331.29 4.00643 1.16367 0
M  V30 14210 H 1329.92 2.89578 1.42633 0
M  V30 14211 H 1328.97 3.70699 -0.853616 0
M  V30 14212 H 1330.29 4.90532 -0.904416 0
M  V30 14213 H 1329.44 5.94525 1.20933 0
M  V30 14214 H 1328.18 4.68751 1.34625 0
M  V30 14215 H 1327.18 5.43434 -0.834258 0
M  V30 14216 H 1328.41 6.72329 -0.956559 0
M  V30 14217 H 1326.35 6.43609 1.26901 0
M  V30 14218 H 1326.27 7.55985 -0.0478303 0
M  V30 14219 H 1327.54 7.71244 1.13151 0
M  V30 14220 N 1331.77 0.549846 1.47697 0
M  V30 14221 C 1333.02 0.0230503 2.02487 0
M  V30 14222 C 1333.34 -1.32382 1.42497 0
M  V30 14223 O 1332.6 -1.87293 0.567441 0
M  V30 14224 C 1332.9 -0.127268 3.57173 0
M  V30 14225 C 1332.56 1.14777 4.36047 0
M  V30 14226 C 1331.23 1.49716 4.57317 0
M  V30 14227 C 1333.58 1.99302 4.81589 0
M  V30 14228 C 1330.91 2.69042 5.21376 0
M  V30 14229 C 1333.26 3.17824 5.46965 0
M  V30 14230 C 1331.92 3.53086 5.66469 0
M  V30 14231 H 1331.19 0.00843471 0.740952 0
M  V30 14232 H 1333.84 0.719876 1.77454 0
M  V30 14233 H 1332.14 -0.907008 3.81157 0
M  V30 14234 H 1333.84 -0.550103 3.97209 0
M  V30 14235 H 1330.43 0.865703 4.19766 0
M  V30 14236 H 1334.61 1.73618 4.64942 0
M  V30 14237 H 1329.87 2.9654 5.34672 0
M  V30 14238 H 1334.04 3.83612 5.81218 0
M  V30 14239 H 1331.67 4.45643 6.15878 0
M  V30 14240 N 1333.25 -1.54984 0.285932 0
M  V30 14241 C 1334.16 -2.26621 -0.606648 0
M  V30 14242 C 1335.17 -1.29595 -1.16108 0
M  V30 14243 O 1336.35 -1.62551 -1.18908 0
M  V30 14244 C 1333.41 -2.98156 -1.76929 0
M  V30 14245 C 1332.47 -4.10685 -1.25045 0
M  V30 14246 C 1331.71 -4.788 -2.35768 0
M  V30 14247 O 1331.93 -4.46183 -3.55354 0
M  V30 14248 O 1330.86 -5.66523 -2.03312 0
M  V30 14249 H 1334.69 -3.03689 -0.0259981 0
M  V30 14250 H 1332.28 -1.49306 0.0529355 0
M  V30 14251 H 1334.16 -3.43076 -2.44697 0
M  V30 14252 H 1332.83 -2.23996 -2.33683 0
M  V30 14253 H 1331.74 -3.70198 -0.538919 0
M  V30 14254 H 1333.07 -4.86778 -0.728528 0
M  V30 14255 N 1334.72 -0.0133892 -1.57594 0
M  V30 14256 C 1335.63 0.989701 -2.12702 0
M  V30 14257 C 1336.65 1.36785 -1.07545 0
M  V30 14258 O 1337.83 1.45246 -1.39519 0
M  V30 14259 C 1334.89 2.2586 -2.63036 0
M  V30 14260 C 1333.95 1.94234 -3.82847 0
M  V30 14261 C 1333.19 3.15075 -4.30771 0
M  V30 14262 O 1333.41 4.27212 -3.7795 0
M  V30 14263 O 1332.34 2.98291 -5.22787 0
M  V30 14264 H 1336.17 0.551194 -2.98656 0
M  V30 14265 H 1333.75 0.206264 -1.47969 0
M  V30 14266 H 1335.64 3.0038 -2.9555 0
M  V30 14267 H 1334.31 2.68923 -1.80173 0
M  V30 14268 H 1333.22 1.17148 -3.55285 0
M  V30 14269 H 1334.55 1.55999 -4.66824 0
M  V30 14270 N 1336.2 1.55448 0.259558 0
M  V30 14271 C 1337.13 1.85678 1.34373 0
M  V30 14272 C 1338.15 0.742155 1.449 0
M  V30 14273 O 1339.34 1.02015 1.46476 0
M  V30 14274 C 1336.44 2.01668 2.72366 0
M  V30 14275 C 1335.61 3.32434 2.84265 0
M  V30 14276 C 1334.67 3.38322 4.03019 0
M  V30 14277 O 1333.69 4.11616 3.93143 0
M  V30 14278 N 1334.9 2.66697 5.1561 0
M  V30 14279 H 1337.66 2.79261 1.08781 0
M  V30 14280 H 1335.22 1.5553 0.449672 0
M  V30 14281 H 1337.21 2.02963 3.50126 0
M  V30 14282 H 1335.78 1.14889 2.90722 0
M  V30 14283 H 1335 3.43564 1.93281 0
M  V30 14284 H 1336.29 4.18649 2.89155 0
M  V30 14285 H 1335.69 2.06857 5.26523 0
M  V30 14286 H 1334.25 2.73699 5.91551 0
M  V30 14287 N 1337.68 -0.524672 1.4861 0
M  V30 14288 C 1338.93 -1.27768 1.56588 0
M  V30 14289 C 1339.25 -1.93469 0.243899 0
M  V30 14290 O 1338.52 -1.8159 -0.734985 0
M  V30 14291 H 1337.1 -0.474566 0.576885 0
M  V30 14292 H 1339.76 -0.610114 1.85104 0
M  V30 14293 H 1338.86 -2.05416 2.34969 0
M  V30 14294 N 1339.16 -1.37287 -0.77395 0
M  V30 14295 C 1340.12 -1.32699 -1.86878 0
M  V30 14296 C 1341.12 -0.231486 -1.59125 0
M  V30 14297 O 1342.31 -0.487203 -1.67248 0
M  V30 14298 C 1339.44 -1.0609 -3.23972 0
M  V30 14299 H 1340.64 -2.30083 -1.92359 0
M  V30 14300 H 1338.19 -1.22284 -0.973459 0
M  V30 14301 H 1338.92 -0.0922868 -3.24169 0
M  V30 14302 H 1338.71 -1.85383 -3.45508 0
M  V30 14303 H 1340.2 -1.05524 -4.04048 0
M  V30 14304 N 1340.64 0.999871 -1.21821 0
M  V30 14305 C 1341.86 1.7794 -1.06546 0
M  V30 14306 C 1342.29 1.84219 0.380115 0
M  V30 14307 O 1341.64 1.28955 1.27438 0
M  V30 14308 C 1341.69 3.1943 -1.67322 0
M  V30 14309 O 1340.8 4.01957 -0.922171 0
M  V30 14310 H 1340.14 0.548204 -0.374658 0
M  V30 14311 H 1342.67 1.2565 -1.61472 0
M  V30 14312 H 1342.68 3.70086 -1.71757 0
M  V30 14313 H 1341.35 3.14175 -2.7252 0
M  V30 14314 H 1339.93 3.60509 -0.95331 0
M  V30 14315 N 1342.11 1.02678 1.19562 0
M  V30 14316 C 1343.39 0.63674 1.84946 0
M  V30 14317 C 1343.77 -0.884667 1.91669 0
M  V30 14318 O 1343.12 -1.78053 1.43211 0
M  V30 14319 C 1343.33 1.29637 3.2403 0
M  V30 14320 C 1344.68 1.41828 4.00212 0
M  V30 14321 O 1345.7 1.25338 3.3342 0
M  V30 14322 O 1344.56 1.68573 5.19851 0
M  V30 14323 H 1341.65 0.221044 0.796912 0
M  V30 14324 H 1344.2 1.1248 1.27068 0
M  V30 14325 H 1342.97 2.33549 3.1396 0
M  V30 14326 H 1342.6 0.796041 3.8955 0
M  V30 14327 N 1343.59 -1.35528 0.804364 0
M  V30 14328 C 1344.52 -2.32388 0.227604 0
M  V30 14329 C 1345.5 -1.57368 -0.645709 0
M  V30 14330 O 1346.69 -1.85448 -0.576441 0
M  V30 14331 C 1343.82 -3.41603 -0.62645 0
M  V30 14332 C 1342.77 -4.27743 0.148187 0
M  V30 14333 C 1342.1 -5.28259 -0.827425 0
M  V30 14334 C 1343.4 -5.04661 1.34591 0
M  V30 14335 H 1345.09 -2.80874 1.03684 0
M  V30 14336 H 1342.64 -1.3504 0.500031 0
M  V30 14337 H 1344.59 -4.08365 -1.03999 0
M  V30 14338 H 1343.32 -2.91721 -1.46855 0
M  V30 14339 H 1341.97 -3.62558 0.542874 0
M  V30 14340 H 1341.62 -4.74645 -1.66496 0
M  V30 14341 H 1341.32 -5.86763 -0.313453 0
M  V30 14342 H 1342.85 -5.97893 -1.23921 0
M  V30 14343 H 1344.26 -5.6438 1.00736 0
M  V30 14344 H 1342.66 -5.7265 1.79422 0
M  V30 14345 H 1343.73 -4.35432 2.1337 0
M  V30 14346 N 1345.07 -0.557671 -1.47404 0
M  V30 14347 C 1346.03 0.179311 -2.28498 0
M  V30 14348 C 1347.03 0.842281 -1.36975 0
M  V30 14349 O 1348.22 0.698072 -1.59601 0
M  V30 14350 C 1345.36 1.26229 -3.16668 0
M  V30 14351 H 1346.55 -0.533033 -2.95125 0
M  V30 14352 H 1344.1 -0.314634 -1.531 0
M  V30 14353 H 1344.84 2.00702 -2.54733 0
M  V30 14354 H 1344.62 0.791712 -3.84024 0
M  V30 14355 H 1346.11 1.77991 -3.77768 0
M  V30 14356 N 1346.55 1.54831 -0.294147 0
M  V30 14357 C 1347.5 2.23263 0.58499 0
M  V30 14358 C 1348.47 1.21278 1.13494 0
M  V30 14359 O 1349.65 1.49878 1.18073 0
M  V30 14360 C 1346.79 2.97185 1.75429 0
M  V30 14361 C 1345.9 4.1393 1.23638 0
M  V30 14362 C 1345.04 4.7545 2.36899 0
M  V30 14363 C 1344.08 5.84352 1.82207 0
M  V30 14364 N 1343.22 6.39855 2.89015 0
M  V30 14365 H 1348.06 2.98 -0.00519329 0
M  V30 14366 H 1345.59 1.47093 -0.0143313 0
M  V30 14367 H 1347.55 3.38271 2.4419 0
M  V30 14368 H 1346.18 2.24837 2.3162 0
M  V30 14369 H 1345.23 3.77832 0.441247 0
M  V30 14370 H 1346.54 4.92409 0.795946 0
M  V30 14371 H 1345.7 5.19353 3.1362 0
M  V30 14372 H 1344.44 3.96288 2.84266 0
M  V30 14373 H 1343.44 5.39879 1.03974 0
M  V30 14374 H 1344.67 6.65393 1.35753 0
M  V30 14375 H 1342.61 5.6358 3.35729 0
M  V30 14376 H 1342.53 7.13661 2.49447 0
M  V30 14377 H 1343.8 6.88417 3.65654 0
M  V30 14378 N 1348.03 0.0217466 1.57585 0
M  V30 14379 C 1348.94 -0.978407 2.13224 0
M  V30 14380 C 1349.95 -1.36212 1.08269 0
M  V30 14381 O 1351.13 -1.44504 1.40288 0
M  V30 14382 C 1348.19 -2.24462 2.6423 0
M  V30 14383 C 1347.26 -1.92201 3.83871 0
M  V30 14384 C 1346.49 -3.12786 4.32436 0
M  V30 14385 O 1346.71 -4.25201 3.8021 0
M  V30 14386 O 1345.65 -2.95514 5.24362 0
M  V30 14387 H 1349.47 -0.535347 2.98944 0
M  V30 14388 H 1347.06 -0.198414 1.48077 0
M  V30 14389 H 1348.94 -2.98809 2.97138 0
M  V30 14390 H 1347.61 -2.67964 1.81596 0
M  V30 14391 H 1346.52 -1.15262 3.55901 0
M  V30 14392 H 1347.85 -1.53521 4.67645 0
M  V30 14393 N 1349.51 -1.55583 -0.251311 0
M  V30 14394 C 1350.75 -1.76859 -0.978031 0
M  V30 14395 C 1351.07 -0.584924 -1.86021 0
M  V30 14396 O 1350.34 0.399456 -1.91784 0
M  V30 14397 H 1348.92 -0.652252 -0.364111 0
M  V30 14398 H 1351.59 -1.93016 -0.270319 0
M  V30 14399 H 1350.68 -2.67828 -1.60233 0
M  V30 14400 N 1350.98 0.516783 -1.48886 0
M  V30 14401 C 1351.92 1.63632 -1.60491 0
M  V30 14402 C 1352.93 1.55301 -0.488424 0
M  V30 14403 O 1354.12 1.6152 -0.75983 0
M  V30 14404 C 1351.22 3.02351 -1.53093 0
M  V30 14405 C 1350.39 3.36028 -2.80006 0
M  V30 14406 C 1349.45 4.54087 -2.65879 0
M  V30 14407 O 1348.48 4.56652 -3.3979 0
M  V30 14408 N 1349.68 5.53058 -1.76372 0
M  V30 14409 H 1352.44 1.54109 -2.57042 0
M  V30 14410 H 1350 0.704338 -1.45776 0
M  V30 14411 H 1352 3.79225 -1.41318 0
M  V30 14412 H 1350.57 3.05881 -0.644637 0
M  V30 14413 H 1349.79 2.48204 -3.06249 0
M  V30 14414 H 1351.07 3.5532 -3.64177 0
M  V30 14415 H 1350.47 5.53773 -1.1555 0
M  V30 14416 H 1349.03 6.29097 -1.70529 0
M  V30 14417 N 1352.46 1.37696 0.766659 0
M  V30 14418 C 1353.37 1.36075 1.91104 0
M  V30 14419 C 1354.39 0.259617 1.72052 0
M  V30 14420 O 1355.56 0.49586 1.952 0
M  V30 14421 C 1352.63 1.17176 3.26298 0
M  V30 14422 C 1351.69 2.36975 3.57968 0
M  V30 14423 C 1350.92 2.18968 4.86712 0
M  V30 14424 O 1351.15 1.17658 5.58133 0
M  V30 14425 O 1350.08 3.07269 5.17561 0
M  V30 14426 H 1353.91 2.32472 1.95424 0
M  V30 14427 H 1351.49 1.18478 0.910122 0
M  V30 14428 H 1353.37 1.08645 4.07154 0
M  V30 14429 H 1352.05 0.238559 3.2282 0
M  V30 14430 H 1350.95 2.51079 2.77327 0
M  V30 14431 H 1352.29 3.2888 3.66195 0
M  V30 14432 N 1353.94 -0.993397 1.22349 0
M  V30 14433 C 1354.85 -2.11771 1.00947 0
M  V30 14434 C 1355.87 -1.73949 -0.0420679 0
M  V30 14435 O 1357.04 -2.00837 0.150548 0
M  V30 14436 C 1354.11 -3.41654 0.589359 0
M  V30 14437 C 1353.17 -3.93579 1.71446 0
M  V30 14438 C 1352.4 -5.17264 1.3143 0
M  V30 14439 O 1352.62 -5.70074 0.192876 0
M  V30 14440 O 1351.56 -5.62929 2.13059 0
M  V30 14441 H 1355.38 -2.32708 1.95142 0
M  V30 14442 H 1352.97 -1.10144 1.00939 0
M  V30 14443 H 1354.85 -4.19813 0.365403 0
M  V30 14444 H 1353.53 -3.22077 -0.323738 0
M  V30 14445 H 1352.43 -3.16596 1.99294 0
M  V30 14446 H 1353.77 -4.17588 2.6054 0
M  V30 14447 N 1355.42 -1.03311 -1.19015 0
M  V30 14448 C 1356.37 -0.611169 -2.24427 0
M  V30 14449 C 1357.36 0.358303 -1.65567 0
M  V30 14450 O 1358.57 0.22642 -1.7857 0
M  V30 14451 H 1354.94 -0.179393 -0.730289 0
M  V30 14452 H 1356.91 -1.51077 -2.57329 0
M  V30 14453 C 1355.66 0.0178126 -3.47695 0
M  V30 14454 H 1354.98 -0.71921 -3.93278 0
M  V30 14455 H 1356.42 0.275926 -4.23101 0
M  V30 14456 C 1354.88 1.26564 -3.12223 0
M  V30 14457 O 1355.41 2.35725 -3.25264 0
M  V30 14458 N 1353.62 1.15602 -2.66617 0
M  V30 14459 H 1353.17 0.267736 -2.56205 0
M  V30 14460 H 1353.12 1.99186 -2.43254 0
M  V30 14461 N 1356.9 1.35099 -0.81154 0
M  V30 14462 C 1357.81 2.33499 -0.22705 0
M  V30 14463 C 1358.82 1.62095 0.632562 0
M  V30 14464 O 1360 1.93938 0.543147 0
M  V30 14465 C 1357.06 3.41279 0.610687 0
M  V30 14466 C 1356.12 4.2845 -0.269994 0
M  V30 14467 C 1355.36 5.31083 0.527854 0
M  V30 14468 O 1355.58 5.42499 1.76213 0
M  V30 14469 O 1354.51 6.01842 -0.083862 0
M  V30 14470 H 1358.34 2.85294 -1.04119 0
M  V30 14471 H 1355.92 1.37957 -0.573432 0
M  V30 14472 H 1357.81 4.07121 1.08768 0
M  V30 14473 H 1356.48 2.91746 1.40235 0
M  V30 14474 H 1355.39 3.65572 -0.794234 0
M  V30 14475 H 1356.72 4.81394 -1.02572 0
M  V30 14476 N 1358.37 0.56548 1.47106 0
M  V30 14477 C 1359.6 0.0496298 2.0684 0
M  V30 14478 C 1360.02 -1.24777 1.4169 0
M  V30 14479 O 1359.37 -1.75046 0.516239 0
M  V30 14480 C 1359.42 -0.140987 3.61225 0
M  V30 14481 O 1359.15 1.10504 4.23934 0
M  V30 14482 C 1360.65 -0.693171 4.37847 0
M  V30 14483 H 1357.87 0.0496018 0.669164 0
M  V30 14484 H 1360.41 0.781247 1.88989 0
M  V30 14485 H 1358.57 -0.822762 3.78562 0
M  V30 14486 H 1358.98 0.907978 5.16581 0
M  V30 14487 H 1360.45 -0.7758 5.46521 0
M  V30 14488 H 1360.93 -1.70632 4.04699 0
M  V30 14489 H 1361.54 -0.046826 4.25274 0
M  V30 14490 N 1359.85 -1.54672 0.302354 0
M  V30 14491 C 1361.09 -2.02076 -0.30738 0
M  V30 14492 C 1361.46 -1.18603 -1.50988 0
M  V30 14493 O 1362.66 -1.5571 -2.19107 0
M  V30 14494 C 1360.93 -3.5137 -0.65375 0
M  V30 14495 S 1362.49 -4.20733 -1.24615 0
M  V30 14496 H 1359.31 -0.704725 -0.0942521 0
M  V30 14497 H 1361.91 -1.907 0.430542 0
M  V30 14498 H 1360.61 -4.09756 0.229892 0
M  V30 14499 H 1360.14 -3.66784 -1.42243 0
M  V30 14500 H 1362.16 -4.26624 -2.5339 0
M  V30 14501 N 1361.33 -0.0301034 -1.57571 0
M  V30 14502 C 1362.56 0.662045 -1.9655 0
M  V30 14503 C 1362.98 1.64811 -0.906581 0
M  V30 14504 O 1362.34 1.80816 0.132415 0
M  V30 14505 C 1362.39 1.34389 -3.34622 0
M  V30 14506 O 1361.49 2.45919 -3.31056 0
M  V30 14507 H 1360.83 0.173842 -0.640839 0
M  V30 14508 H 1363.36 -0.092248 -2.04392 0
M  V30 14509 H 1363.37 1.70045 -3.70875 0
M  V30 14510 H 1362.05 0.621092 -4.11236 0
M  V30 14511 H 1360.62 2.12367 -3.06521 0
M  V30 14512 N 1362.81 1.55714 0.243056 0
M  V30 14513 C 1364.06 1.77375 0.968638 0
M  V30 14514 C 1364.38 0.594781 1.85708 0
M  V30 14515 O 1363.65 -0.38928 1.91993 0
M  V30 14516 H 1362.23 0.654174 0.360646 0
M  V30 14517 H 1364.89 1.93157 0.260079 0
M  V30 14518 H 1363.99 2.68674 1.5881 0
M  V30 14519 N 1364.29 -0.50888 1.49158 0
M  V30 14520 C 1365.53 -1.261 1.57934 0
M  V30 14521 C 1365.86 -1.93199 0.264405 0
M  V30 14522 O 1365.13 -1.82359 -0.715684 0
M  V30 14523 H 1363.71 -0.468421 0.581886 0
M  V30 14524 H 1366.37 -0.590447 1.85741 0
M  V30 14525 H 1365.46 -2.02913 2.37135 0
M  V30 14526 N 1365.76 -1.381 -0.759346 0
M  V30 14527 C 1366.71 -1.34972 -1.89434 0
M  V30 14528 C 1367.71 -0.236499 -1.67741 0
M  V30 14529 O 1368.91 -0.405218 -1.7538 0
M  V30 14530 H 1365.29 -0.420922 -0.62316 0
M  V30 14531 H 1367.26 -2.3076 -1.89189 0
M  V30 14532 C 1366.01 -1.18594 -3.2685 0
M  V30 14533 H 1365.33 -2.03514 -3.44125 0
M  V30 14534 H 1366.77 -1.20458 -4.06529 0
M  V30 14535 C 1365.23 0.107562 -3.36728 0
M  V30 14536 O 1365.76 1.08668 -3.86722 0
M  V30 14537 N 1363.97 0.162455 -2.90146 0
M  V30 14538 H 1363.51 -0.634985 -2.49651 0
M  V30 14539 H 1363.47 1.02751 -2.97136 0
M  V30 14540 N 1367.24 0.986894 -1.22875 0
M  V30 14541 C 1368.15 2.11232 -1.02069 0
M  V30 14542 C 1369.17 1.73969 0.0328424 0
M  V30 14543 O 1370.34 2.00754 -0.161197 0
M  V30 14544 C 1367.41 3.41337 -0.60747 0
M  V30 14545 C 1366.47 3.92665 -1.73531 0
M  V30 14546 C 1365.7 5.1656 -1.34171 0
M  V30 14547 O 1365.93 5.69964 -0.223106 0
M  V30 14548 O 1364.86 5.61791 -2.16041 0
M  V30 14549 H 1368.69 2.3167 -1.96374 0
M  V30 14550 H 1366.27 1.09607 -1.01522 0
M  V30 14551 H 1368.15 4.19613 -0.387661 0
M  V30 14552 H 1366.83 3.22244 0.306653 0
M  V30 14553 H 1365.74 3.15534 -2.0097 0
M  V30 14554 H 1367.07 4.162 -2.62751 0
M  V30 14555 N 1368.72 1.0394 1.18466 0
M  V30 14556 C 1369.67 0.623063 2.241 0
M  V30 14557 C 1370.66 -0.349518 1.65755 0
M  V30 14558 O 1371.87 -0.216947 1.78688 0
M  V30 14559 H 1368.24 0.183263 0.729327 0
M  V30 14560 H 1370.21 1.52439 2.56524 0
M  V30 14561 C 1368.96 0.000626805 3.477 0
M  V30 14562 H 1368.29 0.740056 3.92891 0
M  V30 14563 H 1369.73 -0.253484 4.23242 0
M  V30 14564 C 1368.19 -1.24907 3.1289 0
M  V30 14565 O 1368.72 -2.33996 3.2651 0
M  V30 14566 N 1366.92 -1.14187 2.67226 0
M  V30 14567 H 1366.47 -0.254146 2.56343 0
M  V30 14568 H 1366.43 -1.97893 2.44307 0
M  V30 14569 N 1370.2 -1.34667 0.818693 0
M  V30 14570 C 1371.13 -2.28368 0.195126 0
M  V30 14571 C 1372.14 -1.50836 -0.612562 0
M  V30 14572 O 1373.33 -1.72917 -0.442936 0
M  V30 14573 C 1370.43 -3.30601 -0.745411 0
M  V30 14574 C 1369.61 -4.37396 0.0185308 0
M  V30 14575 C 1368.66 -5.19415 -0.842298 0
M  V30 14576 O 1367.69 -5.68467 -0.288821 0
M  V30 14577 N 1368.89 -5.38709 -2.1627 0
M  V30 14578 H 1371.66 -2.8252 1.00013 0
M  V30 14579 H 1369.22 -1.47146 0.675262 0
M  V30 14580 H 1371.21 -3.82367 -1.3258 0
M  V30 14581 H 1369.78 -2.76875 -1.45118 0
M  V30 14582 H 1369 -3.86402 0.780205 0
M  V30 14583 H 1370.29 -5.05877 0.544575 0
M  V30 14584 H 1369.69 -5.00523 -2.63616 0
M  V30 14585 H 1368.24 -5.9361 -2.69204 0
M  V30 14586 N 1371.68 -0.573274 -1.46804 0
M  V30 14587 C 1372.59 0.168081 -2.33997 0
M  V30 14588 C 1373.6 0.895652 -1.49178 0
M  V30 14589 O 1374.78 0.860951 -1.8207 0
M  V30 14590 C 1371.84 1.17483 -3.26188 0
M  V30 14591 C 1370.9 0.452956 -4.26904 0
M  V30 14592 C 1370.14 1.41175 -5.1469 0
M  V30 14593 O 1370.36 2.64767 -5.05227 0
M  V30 14594 O 1369.29 0.927472 -5.94711 0
M  V30 14595 H 1373.12 -0.547576 -2.98723 0
M  V30 14596 H 1370.71 -0.333747 -1.45624 0
M  V30 14597 H 1372.59 1.75557 -3.8309 0
M  V30 14598 H 1371.26 1.87213 -2.6407 0
M  V30 14599 H 1370.17 -0.169383 -3.73716 0
M  V30 14600 H 1371.5 -0.203186 -4.9178 0
M  V30 14601 N 1373.15 1.5451 -0.310553 0
M  V30 14602 C 1374.08 2.26827 0.554243 0
M  V30 14603 C 1375.07 1.27133 1.13009 0
M  V30 14604 O 1376.25 1.55923 1.15765 0
M  V30 14605 C 1373.38 3.01626 1.7216 0
M  V30 14606 C 1372.33 4.08547 1.27566 0
M  V30 14607 C 1371.66 4.71115 2.52893 0
M  V30 14608 C 1372.96 5.20766 0.399955 0
M  V30 14609 H 1374.65 2.9936 -0.0489475 0
M  V30 14610 H 1372.2 1.43978 -0.0249817 0
M  V30 14611 H 1374.15 3.50942 2.33276 0
M  V30 14612 H 1372.88 2.26688 2.35118 0
M  V30 14613 H 1371.54 3.60096 0.687499 0
M  V30 14614 H 1371.18 3.92805 3.14186 0
M  V30 14615 H 1370.88 5.43331 2.23752 0
M  V30 14616 H 1372.41 5.23198 3.14796 0
M  V30 14617 H 1373.82 5.65918 0.917054 0
M  V30 14618 H 1372.22 5.9976 0.2019 0
M  V30 14619 H 1373.29 4.81508 -0.572537 0
M  V30 14620 N 1374.63 0.0384594 1.57553 0
M  V30 14621 C 1375.57 -0.969185 2.077 0
M  V30 14622 C 1376.58 -1.2829 1.00227 0
M  V30 14623 O 1377.77 -1.24592 1.27824 0
M  V30 14624 C 1374.87 -2.29414 2.49444 0
M  V30 14625 C 1374.04 -2.16422 3.80106 0
M  V30 14626 C 1373.1 -3.31931 4.08299 0
M  V30 14627 O 1372.13 -3.08401 4.78412 0
M  V30 14628 N 1373.33 -4.56015 3.59208 0
M  V30 14629 H 1376.09 -0.541252 2.94772 0
M  V30 14630 H 1373.65 -0.148084 1.61221 0
M  V30 14631 H 1375.65 -3.05533 2.6539 0
M  V30 14632 H 1374.22 -2.63817 1.67688 0
M  V30 14633 H 1373.44 -1.24973 3.73866 0
M  V30 14634 H 1374.72 -2.04954 4.65694 0
M  V30 14635 H 1374.12 -4.78025 3.02503 0
M  V30 14636 H 1372.68 -5.29271 3.80415 0
M  V30 14637 N 1376.11 -1.55841 -0.234795 0
M  V30 14638 C 1377.39 -1.69008 -0.984665 0
M  V30 14639 C 1377.77 -0.581882 -2.02922 0
M  V30 14640 O 1377.12 0.412998 -2.24737 0
M  V30 14641 C 1377.33 -3.09796 -1.60708 0
M  V30 14642 C 1378.67 -3.68784 -2.10436 0
M  V30 14643 O 1379.7 -3.12674 -1.70627 0
M  V30 14644 O 1378.56 -4.67175 -2.83567 0
M  V30 14645 H 1375.65 -0.68786 -0.459105 0
M  V30 14646 H 1378.2 -1.68166 -0.227623 0
M  V30 14647 H 1376.97 -3.81908 -0.852169 0
M  V30 14648 H 1376.59 -3.147 -2.43001 0
M  V30 14649 N 1377.59 0.500963 -1.49426 0
M  V30 14650 C 1378.84 1.25261 -1.58601 0
M  V30 14651 C 1379.16 1.93056 -0.274647 0
M  V30 14652 O 1378.43 1.82736 0.706003 0
M  V30 14653 H 1377.01 0.465328 -0.584362 0
M  V30 14654 H 1379.67 0.580588 -1.86052 0
M  V30 14655 H 1378.77 2.01652 -2.38208 0
M  V30 14656 N 1379.07 1.38501 0.752011 0
M  V30 14657 C 1380.31 1.36212 1.52399 0
M  V30 14658 C 1380.67 -0.0472831 1.91942 0
M  V30 14659 O 1381.87 -0.195055 2.68091 0
M  V30 14660 C 1380.14 2.2925 2.74188 0
M  V30 14661 S 1381.7 2.44995 3.64037 0
M  V30 14662 H 1378.52 0.483276 0.521503 0
M  V30 14663 H 1381.12 1.74441 0.882647 0
M  V30 14664 H 1379.83 3.30541 2.4325 0
M  V30 14665 H 1379.36 1.92176 3.43266 0
M  V30 14666 H 1381.37 1.67519 4.67067 0
M  V30 14667 N 1380.55 -0.980364 1.23396 0
M  V30 14668 C 1381.77 -1.76223 1.09363 0
M  V30 14669 C 1382.2 -1.84801 -0.350759 0
M  V30 14670 O 1381.55 -1.30966 -1.2537 0
M  V30 14671 C 1381.6 -3.16728 1.72383 0
M  V30 14672 O 1380.71 -4.00439 0.986002 0
M  V30 14673 H 1380.05 -0.542174 0.383332 0
M  V30 14674 H 1382.58 -1.23066 1.6345 0
M  V30 14675 H 1382.59 -3.67307 1.77623 0
M  V30 14676 H 1381.26 -3.098 2.77483 0
M  V30 14677 H 1379.84 -3.58946 1.01054 0
M  V30 14678 N 1382.02 -1.04567 -1.17913 0
M  V30 14679 C 1382.93 -0.651674 -2.25367 0
M  V30 14680 C 1383.95 0.32437 -1.7095 0
M  V30 14681 O 1385.13 0.178039 -2.00612 0
M  V30 14682 C 1382.19 -0.0259452 -3.4669 0
M  V30 14683 C 1381.25 -1.05163 -4.1622 0
M  V30 14684 C 1380.48 -0.45567 -5.31751 0
M  V30 14685 O 1380.71 0.736698 -5.65623 0
M  V30 14686 O 1379.64 -1.18684 -5.90083 0
M  V30 14687 H 1383.47 -1.54704 -2.61344 0
M  V30 14688 H 1381.05 -0.816852 -1.25092 0
M  V30 14689 H 1382.93 0.322126 -4.20167 0
M  V30 14690 H 1381.61 0.843165 -3.12526 0
M  V30 14691 H 1380.52 -1.45159 -3.44789 0
M  V30 14692 H 1381.85 -1.89168 -4.54397 0
M  V30 14693 N 1383.5 1.34231 -0.825823 0
M  V30 14694 C 1384.46 2.27776 -0.25512 0
M  V30 14695 C 1385.46 1.50409 0.568654 0
M  V30 14696 O 1386.65 1.69907 0.384337 0
M  V30 14697 C 1383.79 3.348 0.642013 0
M  V30 14698 H 1384.98 2.79763 -1.0804 0
M  V30 14699 H 1382.53 1.44412 -0.597904 0
M  V30 14700 H 1383.27 2.88032 1.49024 0
M  V30 14701 H 1383.05 3.92064 0.0527756 0
M  V30 14702 H 1384.54 4.0457 1.03502 0
M  V30 14703 N 1384.98 0.581051 1.46498 0
M  V30 14704 C 1386.23 0.0659956 2.02392 0
M  V30 14705 C 1386.55 -1.29329 1.45273 0
M  V30 14706 O 1385.81 -1.86047 0.607041 0
M  V30 14707 C 1386.11 -0.0514774 3.57363 0
M  V30 14708 C 1385.77 1.24 4.33514 0
M  V30 14709 C 1384.44 1.59383 4.54038 0
M  V30 14710 C 1386.79 2.09473 4.77253 0
M  V30 14711 C 1384.12 2.8004 5.15552 0
M  V30 14712 C 1386.47 3.29355 5.401 0
M  V30 14713 C 1385.13 3.65022 5.58852 0
M  V30 14714 H 1384.4 0.0241495 0.740606 0
M  V30 14715 H 1387.05 0.757354 1.75887 0
M  V30 14716 H 1385.35 -0.825955 3.82995 0
M  V30 14717 H 1387.05 -0.465726 3.98286 0
M  V30 14718 H 1383.64 0.954547 4.17835 0
M  V30 14719 H 1387.83 1.83441 4.61154 0
M  V30 14720 H 1383.08 3.07814 5.28262 0
M  V30 14721 H 1387.26 3.95855 5.7295 0
M  V30 14722 H 1384.88 4.58607 6.06287 0
M  V30 14723 N 1386.46 -1.54343 0.318742 0
M  V30 14724 C 1387.37 -2.27856 -0.558442 0
M  V30 14725 C 1388.38 -1.32029 -1.13333 0
M  V30 14726 O 1389.56 -1.65037 -1.15433 0
M  V30 14727 C 1386.62 -3.01842 -1.70565 0
M  V30 14728 C 1385.69 -4.13245 -1.16305 0
M  V30 14729 C 1384.92 -4.83693 -2.25559 0
M  V30 14730 O 1385.14 -4.53621 -3.4581 0
M  V30 14731 O 1384.08 -5.70708 -1.91249 0
M  V30 14732 H 1387.9 -3.03676 0.0384247 0
M  V30 14733 H 1385.49 -1.4916 0.0845936 0
M  V30 14734 H 1387.37 -3.48189 -2.37365 0
M  V30 14735 H 1386.04 -2.28902 -2.28879 0
M  V30 14736 H 1384.95 -3.71258 -0.460274 0
M  V30 14737 H 1386.28 -4.88214 -0.625111 0
M  V30 14738 N 1387.94 -0.0468143 -1.5753 0
M  V30 14739 C 1388.88 0.929065 -2.11275 0
M  V30 14740 C 1389.85 1.31166 -1.01905 0
M  V30 14741 O 1391.04 1.40189 -1.29428 0
M  V30 14742 C 1388.18 2.20012 -2.65873 0
M  V30 14743 C 1387.29 1.8724 -3.89314 0
M  V30 14744 C 1386.43 3.08772 -4.32242 0
M  V30 14745 C 1385.46 2.719 -5.48395 0
M  V30 14746 N 1384.6 3.86112 -5.86397 0
M  V30 14747 H 1389.44 0.463854 -2.94368 0
M  V30 14748 H 1386.98 0.217338 -1.45486 0
M  V30 14749 H 1388.94 2.94383 -2.95626 0
M  V30 14750 H 1387.57 2.64118 -1.85584 0
M  V30 14751 H 1386.62 1.03037 -3.6618 0
M  V30 14752 H 1387.93 1.56096 -4.73746 0
M  V30 14753 H 1387.08 3.91446 -4.63525 0
M  V30 14754 H 1385.82 3.4309 -3.46613 0
M  V30 14755 H 1384.83 1.87642 -5.16789 0
M  V30 14756 H 1386.05 2.38779 -6.35737 0
M  V30 14757 H 1384 4.2024 -5.03721 0
M  V30 14758 H 1383.92 3.58652 -6.65511 0
M  V30 14759 H 1385.18 4.69438 -6.22293 0
M  V30 14760 N 1389.41 1.55964 0.226527 0
M  V30 14761 C 1390.83 1.48844 0.575999 0
M  V30 14762 C 1391.03 0.740966 1.87382 0
M  V30 14763 O 1390.09 0.278599 2.50958 0
M  V30 14764 C 1391.4 2.93371 0.65984 0
M  V30 14765 C 1392.95 3.03862 0.750802 0
M  V30 14766 C 1393.42 4.49738 0.86603 0
M  V30 14767 N 1394.91 4.5376 0.930379 0
M  V30 14768 C 1395.65 5.63905 1.03916 0
M  V30 14769 N 1395.14 6.83814 1.1122 0
M  V30 14770 N 1396.94 5.51746 1.07391 0
M  V30 14771 H 1389.09 2.02991 -0.625179 0
M  V30 14772 H 1391.35 0.922435 -0.218674 0
M  V30 14773 H 1391.06 3.50985 -0.22411 0
M  V30 14774 H 1390.93 3.44994 1.52509 0
M  V30 14775 H 1393.32 2.46316 1.6252 0
M  V30 14776 H 1393.4 2.55416 -0.140019 0
M  V30 14777 H 1393.04 5.079 -0.00388632 0
M  V30 14778 H 1392.97 4.95884 1.77219 0
M  V30 14779 H 1395.46 3.67404 0.884451 0
M  V30 14780 H 1395.78 7.63507 1.19484 0
M  V30 14781 H 1394.12 6.86535 1.08142 0
M  V30 14782 H 1397.31 4.56997 1.01347 0
M  V30 14783 H 1397.49 6.37619 1.15523 0
M  V30 14784 N 1390.89 -0.493031 1.4969 0
M  V30 14785 C 1392.12 -1.27046 1.633 0
M  V30 14786 C 1392.54 -1.86278 0.307534 0
M  V30 14787 O 1391.89 -1.68208 -0.707968 0
M  V30 14788 C 1391.94 -2.39501 2.70779 0
M  V30 14789 O 1391.66 -1.82702 3.98185 0
M  V30 14790 C 1393.17 -3.30744 2.95166 0
M  V30 14791 H 1390.39 -0.385042 0.54953 0
M  V30 14792 H 1392.93 -0.590998 1.95774 0
M  V30 14793 H 1391.08 -3.03263 2.41061 0
M  V30 14794 H 1391.5 -2.56588 4.57452 0
M  V30 14795 H 1392.97 -4.05912 3.74085 0
M  V30 14796 H 1393.45 -3.88217 2.05387 0
M  V30 14797 H 1394.06 -2.72741 3.26332 0
M  V30 14798 N 1392.37 -1.38898 -0.744656 0
M  V30 14799 C 1393.6 -1.3903 -1.53901 0
M  V30 14800 C 1394.02 0.0156607 -1.88093 0
M  V30 14801 O 1393.38 1.00012 -1.51219 0
M  V30 14802 C 1393.43 -2.2609 -2.80919 0
M  V30 14803 O 1392.53 -1.68414 -3.76444 0
M  V30 14804 H 1391.87 -0.473854 -0.465144 0
M  V30 14805 H 1394.4 -1.82773 -0.919525 0
M  V30 14806 H 1394.41 -2.40264 -3.29754 0
M  V30 14807 H 1393.09 -3.28271 -2.55364 0
M  V30 14808 H 1391.66 -1.63431 -3.35179 0
M  V30 14809 N 1393.85 0.973806 -1.23914 0
M  V30 14810 C 1394.78 2.07003 -0.983982 0
M  V30 14811 C 1395.79 1.62739 0.0443893 0
M  V30 14812 O 1396.98 1.77465 -0.191927 0
M  V30 14813 C 1394.08 3.35737 -0.461937 0
M  V30 14814 C 1393.26 4.08939 -1.55202 0
M  V30 14815 C 1392.31 5.15947 -1.03369 0
M  V30 14816 O 1391.34 5.42461 -1.72409 0
M  V30 14817 N 1392.54 5.80343 0.135067 0
M  V30 14818 H 1395.31 2.29468 -1.92781 0
M  V30 14819 H 1392.87 1.14098 -1.14861 0
M  V30 14820 H 1394.86 4.04576 -0.100074 0
M  V30 14821 H 1393.43 3.10189 0.387467 0
M  V30 14822 H 1392.65 3.34462 -2.08635 0
M  V30 14823 H 1393.94 4.5461 -2.2849 0
M  V30 14824 H 1393.34 5.61196 0.71241 0
M  V30 14825 H 1391.89 6.50326 0.438132 0
M  V30 14826 N 1395.33 1.05191 1.17357 0
M  V30 14827 C 1396.27 0.652868 2.21374 0
M  V30 14828 C 1397.24 -0.344974 1.62478 0
M  V30 14829 O 1398.43 -0.23639 1.8933 0
M  V30 14830 C 1395.57 0.0337737 3.45083 0
M  V30 14831 C 1394.68 1.08045 4.18271 0
M  V30 14832 C 1393.82 0.428673 5.29468 0
M  V30 14833 C 1392.86 1.45966 5.94441 0
M  V30 14834 N 1391.99 0.832042 6.97152 0
M  V30 14835 H 1396.83 1.54434 2.54861 0
M  V30 14836 H 1394.37 0.772365 1.25192 0
M  V30 14837 H 1396.33 -0.342607 4.15791 0
M  V30 14838 H 1394.96 -0.821159 3.12181 0
M  V30 14839 H 1394.01 1.57466 3.46278 0
M  V30 14840 H 1395.32 1.86305 4.62701 0
M  V30 14841 H 1394.48 -0.00129344 6.067 0
M  V30 14842 H 1393.21 -0.385919 4.86171 0
M  V30 14843 H 1392.22 1.89964 5.1594 0
M  V30 14844 H 1393.44 2.27615 6.39819 0
M  V30 14845 H 1391.39 0.0379612 6.55989 0
M  V30 14846 H 1391.31 1.55219 7.39894 0
M  V30 14847 H 1392.58 0.42685 7.7833 0
M  V30 14848 N 1396.8 -1.33791 0.83293 0
M  V30 14849 C 1398.05 -1.97582 0.42494 0
M  V30 14850 C 1398.37 -1.66328 -1.01784 0
M  V30 14851 O 1397.64 -0.959141 -1.70814 0
M  V30 14852 H 1396.22 -0.730923 0.154143 0
M  V30 14853 H 1398.89 -1.63257 1.06458 0
M  V30 14854 H 1397.98 -3.07177 0.552127 0
M  V30 14855 N 1398.28 -0.588812 -1.46187 0
M  V30 14856 C 1399.19 0.143253 -2.34162 0
M  V30 14857 C 1400.21 0.879779 -1.5012 0
M  V30 14858 O 1401.38 0.841592 -1.82973 0
M  V30 14859 C 1398.45 1.14017 -3.27416 0
M  V30 14860 C 1397.51 0.407651 -4.2736 0
M  V30 14861 C 1396.74 1.35708 -5.16158 0
M  V30 14862 O 1396.97 2.59394 -5.08007 0
M  V30 14863 O 1395.9 0.864343 -5.95662 0
M  V30 14864 H 1399.73 -0.579228 -2.98125 0
M  V30 14865 H 1397.31 -0.349174 -1.45262 0
M  V30 14866 H 1399.19 1.71484 -3.8493 0
M  V30 14867 H 1397.87 1.84401 -2.66041 0
M  V30 14868 H 1396.78 -0.209011 -3.73516 0
M  V30 14869 H 1398.11 -0.255334 -4.91537 0
M  V30 14870 N 1399.76 1.54172 -0.326923 0
M  V30 14871 C 1400.99 2.05512 0.279231 0
M  V30 14872 C 1401.41 1.20131 1.44741 0
M  V30 14873 O 1400.77 0.211191 1.80066 0
M  V30 14874 C 1400.82 3.53971 0.688263 0
M  V30 14875 O 1399.92 3.71516 1.79025 0
M  V30 14876 H 1399.26 0.662131 0.0497826 0
M  V30 14877 H 1401.79 1.98979 -0.476309 0
M  V30 14878 H 1401.8 3.96302 0.970002 0
M  V30 14879 H 1400.48 4.15568 -0.166132 0
M  V30 14880 H 1399.05 3.4109 1.50706 0
M  V30 14881 N 1401.24 0.0551678 1.57503 0
M  V30 14882 C 1402.65 -0.479948 1.80426 0
M  V30 14883 C 1403 -1.70673 0.967733 0
M  V30 14884 O 1402.13 -2.15604 0.185462 0
M  V30 14885 C 1402.72 -0.877496 3.27239 0
M  V30 14886 C 1401.28 -1.35757 3.51066 0
M  V30 14887 C 1400.43 -0.334681 2.75273 0
M  V30 14888 H 1403.38 0.281016 1.56192 0
M  V30 14889 H 1403.4 -1.74013 3.38378 0
M  V30 14890 H 1402.91 0.015571 3.88097 0
M  V30 14891 H 1401.01 -2.26969 2.95492 0
M  V30 14892 H 1401.12 -1.34697 4.59776 0
M  V30 14893 H 1399.49 -0.808421 2.4153 0
M  V30 14894 H 1400.27 0.550369 3.3886 0
M  V30 14895 N 1402.72 -1.56081 -0.218252 0
M  V30 14896 C 1403.65 -1.95706 -1.27364 0
M  V30 14897 C 1404.63 -0.825731 -1.48713 0
M  V30 14898 O 1405.81 -1.08829 -1.60841 0
M  V30 14899 C 1402.94 -2.2766 -2.62275 0
M  V30 14900 C 1401.9 -3.43314 -2.55576 0
M  V30 14901 C 1401.22 -3.60883 -3.94547 0
M  V30 14902 C 1402.52 -4.7819 -2.10075 0
M  V30 14903 H 1404.22 -2.84113 -0.944459 0
M  V30 14904 H 1401.76 -1.36693 -0.452882 0
M  V30 14905 H 1403.72 -2.53973 -3.36268 0
M  V30 14906 H 1402.44 -1.3611 -2.96887 0
M  V30 14907 H 1401.1 -3.17056 -1.8404 0
M  V30 14908 H 1400.75 -2.66703 -4.26472 0
M  V30 14909 H 1400.45 -4.38674 -3.90946 0
M  V30 14910 H 1401.97 -3.89547 -4.70197 0
M  V30 14911 H 1403.38 -5.03686 -2.73813 0
M  V30 14912 H 1401.78 -5.59287 -2.17527 0
M  V30 14913 H 1402.85 -4.73325 -1.05314 0
M  V30 14914 N 1404.2 0.485086 -1.49949 0
M  V30 14915 C 1405.42 1.26179 -1.63971 0
M  V30 14916 C 1405.84 1.86113 -0.317408 0
M  V30 14917 O 1405.2 1.68581 0.699038 0
M  V30 14918 C 1405.25 2.38062 -2.72046 0
M  V30 14919 O 1404.97 1.80588 -3.99149 0
M  V30 14920 C 1406.47 3.29174 -2.96916 0
M  V30 14921 H 1403.69 0.382122 -0.551565 0
M  V30 14922 H 1406.23 0.580607 -1.96085 0
M  V30 14923 H 1404.39 3.0198 -2.42666 0
M  V30 14924 H 1404.8 2.54159 -4.58807 0
M  V30 14925 H 1406.28 4.03922 -3.76233 0
M  V30 14926 H 1406.75 3.87123 -2.07443 0
M  V30 14927 H 1407.36 2.71006 -3.27774 0
M  V30 14928 N 1405.67 1.39291 0.737279 0
M  V30 14929 C 1406.95 1.26901 1.48847 0
M  V30 14930 C 1407.33 -0.122417 2.10745 0
M  V30 14931 O 1406.68 -1.13343 1.98408 0
M  V30 14932 C 1406.89 2.3916 2.54172 0
M  V30 14933 C 1408.24 2.78368 3.20619 0
M  V30 14934 O 1409.26 2.38593 2.64484 0
M  V30 14935 O 1408.12 3.47014 4.22189 0
M  V30 14936 H 1405.21 0.497176 0.660867 0
M  V30 14937 H 1407.76 1.51159 0.771299 0
M  V30 14938 H 1406.53 3.3219 2.06797 0
M  V30 14939 H 1406.15 2.16555 3.33451 0
M  V30 14940 N 1407.15 -0.967221 1.24429 0
M  V30 14941 C 1408.39 -1.72521 1.09617 0
M  V30 14942 C 1408.76 -1.88618 -0.358774 0
M  V30 14943 O 1409.96 -2.61351 -0.628408 0
M  V30 14944 C 1408.23 -3.07818 1.81612 0
M  V30 14945 S 1409.79 -3.99031 1.82537 0
M  V30 14946 H 1406.6 -0.593148 0.392041 0
M  V30 14947 H 1409.21 -1.15456 1.57766 0
M  V30 14948 H 1407.91 -2.93762 2.86586 0
M  V30 14949 H 1407.44 -3.69948 1.33799 0
M  V30 14950 H 1409.46 -4.88091 0.893391 0
M  V30 14951 N 1408.63 -1.05812 -1.16797 0
M  V30 14952 C 1409.86 -0.79137 -1.90843 0
M  V30 14953 C 1410.27 0.657481 -1.77409 0
M  V30 14954 O 1409.61 1.46142 -1.11302 0
M  V30 14955 C 1409.67 -1.10042 -3.42244 0
M  V30 14956 C 1409.34 -2.54671 -3.79463 0
M  V30 14957 C 1410.33 -3.52894 -3.81788 0
M  V30 14958 C 1408.02 -2.89843 -4.10239 0
M  V30 14959 C 1410.01 -4.84332 -4.14369 0
M  V30 14960 C 1407.7 -4.21482 -4.42488 0
M  V30 14961 C 1408.7 -5.18537 -4.44532 0
M  V30 14962 O 1408.39 -6.47814 -4.76018 0
M  V30 14963 H 1408.12 -0.286766 -0.612161 0
M  V30 14964 H 1410.67 -1.41369 -1.4901 0
M  V30 14965 H 1408.9 -0.421015 -3.84401 0
M  V30 14966 H 1410.59 -0.818688 -3.97558 0
M  V30 14967 H 1411.36 -3.27062 -3.58128 0
M  V30 14968 H 1407.24 -2.14959 -4.07816 0
M  V30 14969 H 1410.78 -5.60081 -4.15879 0
M  V30 14970 H 1406.68 -4.47075 -4.65612 0
M  V30 14971 H 1407.44 -6.52729 -4.93849 0
M  V30 14972 N 1410.11 1.33347 -0.840014 0
M  V30 14973 C 1411.36 1.97354 -0.435412 0
M  V30 14974 C 1411.68 1.66866 1.009 0
M  V30 14975 O 1410.95 0.968186 1.70303 0
M  V30 14976 H 1409.53 0.730096 -0.158017 0
M  V30 14977 H 1412.19 1.6269 -1.07322 0
M  V30 14978 H 1411.28 3.0688 -0.56841 0
M  V30 14979 N 1411.59 0.596556 1.45873 0
M  V30 14980 C 1413 0.173758 1.8589 0
M  V30 14981 C 1413.35 -1.26665 1.49835 0
M  V30 14982 O 1412.47 -1.9588 0.919773 0
M  V30 14983 C 1413.07 0.308567 3.37392 0
M  V30 14984 C 1411.63 -0.0594585 3.76353 0
M  V30 14985 C 1410.77 0.638127 2.69858 0
M  V30 14986 H 1413.72 0.803928 1.36831 0
M  V30 14987 H 1413.75 -0.462294 3.77681 0
M  V30 14988 H 1413.26 1.35701 3.63603 0
M  V30 14989 H 1411.36 -1.1075 3.5576 0
M  V30 14990 H 1411.47 0.326506 4.77986 0
M  V30 14991 H 1409.84 0.0769147 2.54584 0
M  V30 14992 H 1410.62 1.68849 2.98906 0
M  V30 14993 N 1413.06 -1.53996 0.335095 0
M  V30 14994 C 1414.31 -2.00772 -0.263997 0
M  V30 14995 C 1414.64 -1.22309 -1.51231 0
M  V30 14996 O 1413.89 -0.296427 -1.93442 0
M  V30 14997 C 1414.19 -3.51769 -0.631907 0
M  V30 14998 C 1413.86 -4.47908 0.518553 0
M  V30 14999 C 1412.52 -4.73912 0.834297 0
M  V30 15000 C 1414.87 -5.04964 1.29078 0
M  V30 15001 C 1412.2 -5.54228 1.92478 0
M  V30 15002 C 1414.55 -5.86469 2.37144 0
M  V30 15003 C 1413.22 -6.1077 2.69288 0
M  V30 15004 H 1412.49 -0.734676 -0.0966033 0
M  V30 15005 H 1415.13 -1.85862 0.46126 0
M  V30 15006 H 1413.44 -3.64466 -1.43776 0
M  V30 15007 H 1415.14 -3.85412 -1.10719 0
M  V30 15008 H 1411.73 -4.27796 0.262392 0
M  V30 15009 H 1415.91 -4.84846 1.0601 0
M  V30 15010 H 1411.17 -5.71285 2.17816 0
M  V30 15011 H 1415.34 -6.29695 2.97417 0
M  V30 15012 H 1412.97 -6.72792 3.53913 0
M  V30 15013 N 1414.54 -0.0635198 -1.57472 0
M  V30 15014 C 1415.77 0.620205 -1.9791 0
M  V30 15015 C 1416.19 1.62851 -0.941335 0
M  V30 15016 O 1415.55 1.81056 0.0940313 0
M  V30 15017 C 1415.6 1.27261 -3.37397 0
M  V30 15018 O 1414.7 2.38841 -3.36197 0
M  V30 15019 H 1414.04 0.16021 -0.644382 0
M  V30 15020 H 1416.57 -0.135582 -2.0415 0
M  V30 15021 H 1416.58 1.6214 -3.74399 0
M  V30 15022 H 1415.26 0.533723 -4.12461 0
M  V30 15023 H 1413.83 2.05817 -3.10956 0
M  V30 15024 N 1416.02 1.56195 0.209972 0
M  V30 15025 C 1417.27 1.7939 0.930796 0
M  V30 15026 C 1417.59 0.634038 1.84404 0
M  V30 15027 O 1416.86 -0.348467 1.92776 0
M  V30 15028 H 1415.44 0.661676 0.346689 0
M  V30 15029 H 1418.1 1.93665 0.219049 0
M  V30 15030 H 1417.2 2.71982 1.53075 0
M  V30 15031 N 1417.5 -0.477127 1.50204 0
M  V30 15032 C 1418.43 -1.59319 1.64773 0
M  V30 15033 C 1419.44 -1.53951 0.529427 0
M  V30 15034 O 1420.63 -1.59449 0.802388 0
M  V30 15035 C 1417.73 -2.98185 1.61055 0
M  V30 15036 C 1416.9 -3.28486 2.88817 0
M  V30 15037 C 1415.96 -4.46878 2.77825 0
M  V30 15038 O 1414.99 -4.47483 3.51778 0
M  V30 15039 N 1416.19 -5.48187 1.90974 0
M  V30 15040 H 1418.96 -1.4724 2.61037 0
M  V30 15041 H 1416.52 -0.66544 1.47592 0
M  V30 15042 H 1418.51 -3.75345 1.51323 0
M  V30 15043 H 1417.08 -3.04064 0.725509 0
M  V30 15044 H 1416.3 -2.39997 3.12722 0
M  V30 15045 H 1417.59 -3.4554 3.7347 0
M  V30 15046 H 1416.99 -5.50515 1.30192 0
M  V30 15047 H 1415.54 -6.24355 1.87148 0
M  V30 15048 N 1418.98 -1.3968 -0.729882 0
M  V30 15049 C 1419.91 -1.41549 -1.85704 0
M  V30 15050 C 1420.89 -0.278186 -1.6781 0
M  V30 15051 O 1422.07 -0.484749 -1.88053 0
M  V30 15052 C 1419.2 -1.26327 -3.2351 0
M  V30 15053 C 1418.16 -2.37511 -3.56051 0
M  V30 15054 C 1417.48 -2.07375 -4.92849 0
M  V30 15055 C 1418.78 -3.79833 -3.58502 0
M  V30 15056 H 1420.48 -2.35877 -1.84398 0
M  V30 15057 H 1418.02 -1.13536 -0.885747 0
M  V30 15058 H 1419.98 -1.26254 -4.02042 0
M  V30 15059 H 1418.7 -0.284697 -3.25357 0
M  V30 15060 H 1417.36 -2.36809 -2.79852 0
M  V30 15061 H 1417.01 -1.07943 -4.91281 0
M  V30 15062 H 1416.71 -2.81855 -5.15588 0
M  V30 15063 H 1418.23 -2.08961 -5.73731 0
M  V30 15064 H 1419.64 -3.82436 -4.27101 0
M  V30 15065 H 1418.04 -4.53715 -3.92763 0
M  V30 15066 H 1419.11 -4.10443 -2.58195 0
M  V30 15067 N 1420.45 0.960609 -1.2494 0
M  V30 15068 C 1421.7 1.69884 -1.08731 0
M  V30 15069 C 1422.02 1.92018 0.372602 0
M  V30 15070 O 1423.22 2.6348 0.655018 0
M  V30 15071 C 1421.68 3.05815 -1.8975 0
M  V30 15072 C 1421.29 2.91498 -3.40196 0
M  V30 15073 C 1423.03 3.83462 -1.82092 0
M  V30 15074 C 1420.94 4.22783 -4.13532 0
M  V30 15075 H 1419.87 0.637087 -0.403281 0
M  V30 15076 H 1422.52 1.06987 -1.49084 0
M  V30 15077 H 1420.9 3.69582 -1.42216 0
M  V30 15078 H 1422.07 2.367 -3.9536 0
M  V30 15079 H 1420.39 2.27312 -3.48882 0
M  V30 15080 H 1422.99 4.8069 -2.34181 0
M  V30 15081 H 1423.33 4.08782 -0.787597 0
M  V30 15082 H 1423.86 3.26435 -2.27344 0
M  V30 15083 H 1420.6 4.02653 -5.17253 0
M  V30 15084 H 1420.12 4.77369 -3.63152 0
M  V30 15085 H 1421.8 4.91361 -4.2092 0
M  V30 15086 N 1421.93 1.0643 1.16234 0
M  V30 15087 C 1422.9 0.680383 2.18869 0
M  V30 15088 C 1423.9 -0.274591 1.58438 0
M  V30 15089 O 1425.09 -0.0567907 1.74107 0
M  V30 15090 C 1422.22 0.00134091 3.409 0
M  V30 15091 H 1423.41 1.58894 2.54347 0
M  V30 15092 H 1420.96 0.859688 1.30534 0
M  V30 15093 H 1421.7 -0.919903 3.1098 0
M  V30 15094 H 1421.48 0.688057 3.86016 0
M  V30 15095 H 1422.97 -0.252938 4.16833 0
M  V30 15096 N 1423.41 -1.329 0.847073 0
M  V30 15097 C 1424.64 -2.0171 0.460497 0
M  V30 15098 C 1425.05 -1.63699 -0.940649 0
M  V30 15099 O 1424.41 -0.854454 -1.61262 0
M  V30 15100 C 1424.46 -3.56799 0.581108 0
M  V30 15101 O 1424.18 -3.93442 1.92705 0
M  V30 15102 C 1425.68 -4.42882 0.192552 0
M  V30 15103 H 1422.9 -0.645887 0.181853 0
M  V30 15104 H 1425.45 -1.69648 1.14192 0
M  V30 15105 H 1423.6 -3.87364 -0.0524924 0
M  V30 15106 H 1424.02 -4.88157 1.91841 0
M  V30 15107 H 1425.49 -5.51025 0.327969 0
M  V30 15108 H 1425.97 -4.30571 -0.866315 0
M  V30 15109 H 1426.57 -4.17691 0.800918 0
M  V30 15110 N 1424.89 -0.604284 -1.45555 0
M  V30 15111 C 1425.82 0.165286 -2.27601 0
M  V30 15112 C 1426.8 0.876749 -1.36937 0
M  V30 15113 O 1427.98 0.886288 -1.66365 0
M  V30 15114 C 1425.11 1.23897 -3.15226 0
M  V30 15115 C 1424.16 0.631002 -4.21806 0
M  V30 15116 S 1424.99 -0.558612 -5.32578 0
M  V30 15117 C 1426.15 0.515745 -6.23772 0
M  V30 15118 H 1426.38 -0.53081 -2.92523 0
M  V30 15119 H 1423.91 -0.391717 -1.49348 0
M  V30 15120 H 1425.87 1.85358 -3.66268 0
M  V30 15121 H 1424.53 1.90712 -2.49575 0
M  V30 15122 H 1423.72 1.43876 -4.83028 0
M  V30 15123 H 1423.33 0.0915984 -3.73888 0
M  V30 15124 H 1425.62 1.39571 -6.62968 0
M  V30 15125 H 1426.56 -0.0602302 -7.08074 0
M  V30 15126 H 1426.97 0.829588 -5.58371 0
M  V30 15127 N 1426.37 1.53816 -0.343257 0
M  V30 15128 C 1427.31 2.25011 0.513664 0
M  V30 15129 C 1428.28 1.24827 1.09578 0
M  V30 15130 O 1429.47 1.53558 1.13245 0
M  V30 15131 C 1426.61 3.02616 1.65885 0
M  V30 15132 C 1425.72 4.17653 1.10406 0
M  V30 15133 C 1424.86 4.82746 2.21653 0
M  V30 15134 C 1423.9 5.89853 1.63524 0
M  V30 15135 N 1423.03 6.48726 2.68512 0
M  V30 15136 H 1427.87 2.97832 -0.099997 0
M  V30 15137 H 1425.41 1.46973 -0.0611206 0
M  V30 15138 H 1427.37 3.45868 2.33304 0
M  V30 15139 H 1426 2.32092 2.2435 0
M  V30 15140 H 1425.05 3.79045 0.320819 0
M  V30 15141 H 1426.36 4.94691 0.638887 0
M  V30 15142 H 1425.52 5.29068 2.96938 0
M  V30 15143 H 1424.25 4.05131 2.71515 0
M  V30 15144 H 1423.26 5.42914 0.86745 0
M  V30 15145 H 1424.48 6.69375 1.14515 0
M  V30 15146 H 1422.43 5.73975 3.17629 0
M  V30 15147 H 1422.35 7.21236 2.26616 0
M  V30 15148 H 1423.62 6.99701 3.43567 0
M  V30 15149 N 1427.84 0.0718701 1.57436 0
M  V30 15150 C 1428.75 -0.910077 2.16229 0
M  V30 15151 C 1429.77 -1.32699 1.12548 0
M  V30 15152 O 1430.95 -1.39967 1.44814 0
M  V30 15153 C 1428.01 -2.15942 2.71238 0
M  V30 15154 C 1427.07 -1.79891 3.89792 0
M  V30 15155 C 1426.31 -2.9887 4.42168 0
M  V30 15156 O 1426.53 -4.1289 3.93545 0
M  V30 15157 O 1425.46 -2.78682 5.33498 0
M  V30 15158 H 1429.29 -0.439969 3.00496 0
M  V30 15159 H 1426.87 -0.151204 1.48633 0
M  V30 15160 H 1428.76 -2.89204 3.06494 0
M  V30 15161 H 1427.43 -2.62051 1.90029 0
M  V30 15162 H 1426.34 -1.03881 3.59388 0
M  V30 15163 H 1427.67 -1.38566 4.72293 0
M  V30 15164 N 1429.32 -1.56304 -0.201686 0
M  V30 15165 C 1430.29 -1.93171 -1.2336 0
M  V30 15166 C 1431.29 -0.812164 -1.38782 0
M  V30 15167 O 1432.48 -1.07967 -1.36707 0
M  V30 15168 C 1429.61 -2.19997 -2.60411 0
M  V30 15169 H 1430.8 -2.85483 -0.918654 0
M  V30 15170 H 1428.35 -1.49893 -0.442935 0
M  V30 15171 H 1429.09 -1.30301 -2.96972 0
M  V30 15172 H 1428.87 -3.01574 -2.5059 0
M  V30 15173 H 1430.36 -2.49547 -3.34838 0
M  V30 15174 N 1430.8 0.469154 -1.50455 0
M  V30 15175 C 1432.04 1.23092 -1.6318 0
M  V30 15176 C 1432.4 1.89215 -0.325829 0
M  V30 15177 O 1433.61 2.66785 -0.328531 0
M  V30 15178 C 1431.88 2.24527 -2.78069 0
M  V30 15179 S 1433.44 3.09617 -3.10938 0
M  V30 15180 H 1430.25 0.417887 -0.575232 0
M  V30 15181 H 1432.86 0.527616 -1.88246 0
M  V30 15182 H 1431.56 1.74534 -3.71438 0
M  V30 15183 H 1431.09 2.99483 -2.55095 0
M  V30 15184 H 1433.11 4.25716 -2.54913 0
M  V30 15185 N 1432.28 1.40065 0.722464 0
M  V30 15186 C 1433.69 1.21944 1.02965 0
M  V30 15187 C 1433.89 0.0898069 2.013 0
M  V30 15188 O 1432.95 -0.554519 2.46336 0
M  V30 15189 C 1434.26 2.55848 1.57995 0
M  V30 15190 C 1435.81 2.62801 1.70013 0
M  V30 15191 C 1436.29 3.96957 2.2845 0
M  V30 15192 N 1437.78 3.98662 2.35844 0
M  V30 15193 C 1438.51 4.99248 2.82026 0
M  V30 15194 N 1438.01 6.1023 3.28012 0
M  V30 15195 N 1439.8 4.8662 2.81349 0
M  V30 15196 H 1431.95 2.12283 0.0705301 0
M  V30 15197 H 1434.22 0.943338 0.0938991 0
M  V30 15198 H 1433.92 3.39125 0.932034 0
M  V30 15199 H 1433.8 2.76452 2.5662 0
M  V30 15200 H 1436.18 1.799 2.33923 0
M  V30 15201 H 1436.26 2.46034 0.700062 0
M  V30 15202 H 1435.91 4.80295 1.65164 0
M  V30 15203 H 1435.84 4.1105 3.29158 0
M  V30 15204 H 1438.33 3.18518 2.03358 0
M  V30 15205 H 1438.64 6.82878 3.61797 0
M  V30 15206 H 1436.99 6.13805 3.25988 0
M  V30 15207 H 1440.18 3.99015 2.44755 0
M  V30 15208 H 1440.35 5.65155 3.17024 0
M  V30 15209 N 1433.76 -0.95397 1.25448 0
M  V30 15210 C 1434.99 -1.7308 1.12814 0
M  V30 15211 C 1435.4 -1.86461 -0.320764 0
M  V30 15212 O 1434.74 -1.3623 -1.23236 0
M  V30 15213 C 1434.8 -3.16239 1.70976 0
M  V30 15214 C 1434.46 -3.26286 3.19979 0
M  V30 15215 C 1435.46 -3.10547 4.16961 0
M  V30 15216 C 1433.15 -3.50085 3.60202 0
M  V30 15217 C 1435.14 -3.18456 5.52146 0
M  V30 15218 C 1432.83 -3.5763 4.95524 0
M  V30 15219 C 1433.83 -3.4183 5.91305 0
M  V30 15220 O 1433.51 -3.49058 7.24164 0
M  V30 15221 H 1433.25 -0.549143 0.394231 0
M  V30 15222 H 1435.8 -1.20538 1.66312 0
M  V30 15223 H 1434.03 -3.70148 1.11926 0
M  V30 15224 H 1435.72 -3.75784 1.53432 0
M  V30 15225 H 1436.48 -2.92029 3.87226 0
M  V30 15226 H 1432.36 -3.61445 2.86145 0
M  V30 15227 H 1435.91 -3.0604 6.26885 0
M  V30 15228 H 1431.8 -3.75665 5.24925 0
M  V30 15229 H 1432.57 -3.65684 7.32269 0
M  V30 15230 N 1435.24 -1.07045 -1.15668 0
M  V30 15231 C 1436.2 -0.69198 -2.18505 0
M  V30 15232 C 1437.2 0.266185 -1.58582 0
M  V30 15233 O 1438.39 0.0475566 -1.74135 0
M  V30 15234 C 1435.52 -0.0194196 -3.40894 0
M  V30 15235 H 1436.71 -1.60241 -2.53501 0
M  V30 15236 H 1434.27 -0.866598 -1.30076 0
M  V30 15237 H 1435 0.903398 -3.11463 0
M  V30 15238 H 1434.79 -0.708519 -3.85645 0
M  V30 15239 H 1436.28 0.230829 -4.16962 0
M  V30 15240 N 1436.71 1.32449 -0.85411 0
M  V30 15241 C 1437.64 2.31383 -0.313697 0
M  V30 15242 C 1438.62 1.59656 0.586858 0
M  V30 15243 O 1439.81 1.87459 0.507216 0
M  V30 15244 C 1436.94 3.43693 0.499235 0
M  V30 15245 C 1435.89 4.26899 -0.306839 0
M  V30 15246 C 1435.22 5.30966 0.630795 0
M  V30 15247 C 1436.52 4.99318 -1.53229 0
M  V30 15248 H 1438.21 2.76832 -1.14037 0
M  V30 15249 H 1435.76 1.33091 -0.549805 0
M  V30 15250 H 1437.71 4.11944 0.887709 0
M  V30 15251 H 1436.44 2.96971 1.35926 0
M  V30 15252 H 1435.1 3.60294 -0.677061 0
M  V30 15253 H 1434.74 4.80498 1.48765 0
M  V30 15254 H 1434.44 5.87522 0.0954635 0
M  V30 15255 H 1435.97 6.0208 1.01646 0
M  V30 15256 H 1437.38 5.60253 -1.21614 0
M  V30 15257 H 1435.78 5.65596 -2.00552 0
M  V30 15258 H 1436.85 4.27213 -2.29383 0
M  V30 15259 N 1438.19 0.611994 1.45232 0
M  V30 15260 C 1439.12 -0.142449 2.28757 0
M  V30 15261 C 1440.14 -0.827486 1.40202 0
M  V30 15262 O 1441.33 -0.692136 1.64535 0
M  V30 15263 C 1438.43 -1.22296 3.16065 0
M  V30 15264 C 1437.6 -0.624178 4.32924 0
M  V30 15265 C 1436.66 -1.59615 5.01408 0
M  V30 15266 O 1435.68 -1.12073 5.58058 0
M  V30 15267 N 1436.89 -2.93057 5.01097 0
M  V30 15268 H 1439.65 0.574276 2.94147 0
M  V30 15269 H 1437.21 0.451789 1.55469 0
M  V30 15270 H 1439.2 -1.87309 3.58744 0
M  V30 15271 H 1437.77 -1.84215 2.52554 0
M  V30 15272 H 1436.99 0.204141 3.93671 0
M  V30 15273 H 1438.28 -0.204435 5.08389 0
M  V30 15274 H 1437.68 -3.3428 4.5637 0
M  V30 15275 H 1436.24 -3.53481 5.47626 0
M  V30 15276 N 1439.67 -1.53632 0.351409 0
M  V30 15277 C 1440.92 -2.01338 -0.243047 0
M  V30 15278 C 1441.25 -1.23864 -1.4957 0
M  V30 15279 O 1440.52 -0.328412 -1.91707 0
M  V30 15280 C 1440.81 -3.55886 -0.549284 0
M  V30 15281 C 1440.66 -4.44064 0.716016 0
M  V30 15282 C 1441.98 -4.18699 -1.35569 0
M  V30 15283 H 1439.1 -0.731863 -0.0868627 0
M  V30 15284 H 1441.74 -1.84005 0.473501 0
M  V30 15285 H 1439.89 -3.70787 -1.15972 0
M  V30 15286 H 1441.56 -4.40987 1.35383 0
M  V30 15287 H 1439.8 -4.12608 1.3393 0
M  V30 15288 H 1440.48 -5.50106 0.456895 0
M  V30 15289 H 1442.95 -4.07545 -0.839441 0
M  V30 15290 H 1441.83 -5.26892 -1.53871 0
M  V30 15291 H 1442.09 -3.73834 -2.3601 0
M  V30 15292 N 1441.15 -0.0802183 -1.57396 0
M  V30 15293 C 1442.09 0.884041 -2.13198 0
M  V30 15294 C 1443.06 1.28975 -1.04664 0
M  V30 15295 O 1444.25 1.37413 -1.32372 0
M  V30 15296 C 1441.39 2.14323 -2.7048 0
M  V30 15297 C 1440.5 1.7894 -3.93198 0
M  V30 15298 C 1439.64 2.99534 -4.38695 0
M  V30 15299 C 1438.68 2.60207 -5.54039 0
M  V30 15300 N 1437.81 3.73587 -5.94455 0
M  V30 15301 H 1442.65 0.40131 -2.95285 0
M  V30 15302 H 1440.19 0.186429 -1.45914 0
M  V30 15303 H 1442.15 2.88046 -3.01804 0
M  V30 15304 H 1440.78 2.60122 -1.91144 0
M  V30 15305 H 1439.83 0.952465 -3.68283 0
M  V30 15306 H 1441.14 1.46012 -4.76951 0
M  V30 15307 H 1440.3 3.81526 -4.71724 0
M  V30 15308 H 1439.04 3.35661 -3.53812 0
M  V30 15309 H 1438.04 1.76638 -5.20652 0
M  V30 15310 H 1439.27 2.2524 -6.40659 0
M  V30 15311 H 1437.21 4.0946 -5.12521 0
M  V30 15312 H 1437.13 3.44455 -6.72969 0
M  V30 15313 H 1438.4 4.56133 -6.3211 0
M  V30 15314 N 1442.63 1.56409 0.193394 0
M  V30 15315 C 1444.04 1.70624 0.757915 0
M  V30 15316 C 1444.39 0.687074 1.83776 0
M  V30 15317 O 1443.51 -0.15616 2.15836 0
M  V30 15318 C 1444.11 3.09352 1.38156 0
M  V30 15319 C 1442.67 3.25326 1.89315 0
M  V30 15320 C 1441.81 2.66576 0.763727 0
M  V30 15321 H 1444.76 1.58668 -0.0317034 0
M  V30 15322 H 1444.79 3.06776 2.25098 0
M  V30 15323 H 1444.3 3.83506 0.595398 0
M  V30 15324 H 1442.4 2.5609 2.70644 0
M  V30 15325 H 1442.51 4.32848 2.05376 0
M  V30 15326 H 1440.88 2.25797 1.17846 0
M  V30 15327 H 1441.66 3.43298 -0.0102243 0
M  V30 15328 N 1444.1 -0.461169 1.50702 0
M  V30 15329 C 1445.04 -1.57562 1.66453 0
M  V30 15330 C 1446.05 -1.53381 0.545726 0
M  V30 15331 O 1447.24 -1.58589 0.819254 0
M  V30 15332 C 1444.34 -2.9646 1.64209 0
M  V30 15333 C 1443.51 -3.25405 2.92285 0
M  V30 15334 C 1442.57 -4.43906 2.82549 0
M  V30 15335 O 1441.6 -4.43726 3.56505 0
M  V30 15336 N 1442.8 -5.46131 1.96777 0
M  V30 15337 H 1445.56 -1.44463 2.62584 0
M  V30 15338 H 1443.12 -0.649749 1.4829 0
M  V30 15339 H 1445.12 -3.73719 1.55295 0
M  V30 15340 H 1443.69 -3.03278 0.757718 0
M  V30 15341 H 1442.91 -2.36666 3.1525 0
M  V30 15342 H 1444.19 -3.41559 3.77114 0
M  V30 15343 H 1443.59 -5.49103 1.36023 0
M  V30 15344 H 1442.15 -6.22335 1.9376 0
M  V30 15345 N 1445.58 -1.40446 -0.715026 0
M  V30 15346 C 1447 -1.22488 -1.02317 0
M  V30 15347 C 1447.2 -0.100481 -2.01249 0
M  V30 15348 O 1446.25 0.541447 -2.46626 0
M  V30 15349 C 1447.57 -2.56682 -1.56636 0
M  V30 15350 C 1449.11 -2.63699 -1.68617 0
M  V30 15351 C 1449.59 -3.98163 -2.26342 0
M  V30 15352 N 1451.08 -3.99907 -2.33727 0
M  V30 15353 C 1451.82 -5.00737 -2.79375 0
M  V30 15354 N 1451.31 -6.11961 -3.24771 0
M  V30 15355 N 1453.1 -4.88106 -2.78764 0
M  V30 15356 H 1445.26 -2.12317 -0.0592712 0
M  V30 15357 H 1447.52 -0.943823 -0.088895 0
M  V30 15358 H 1447.22 -3.39615 -0.914036 0
M  V30 15359 H 1447.1 -2.77809 -2.55151 0
M  V30 15360 H 1449.49 -1.81138 -2.32966 0
M  V30 15361 H 1449.57 -2.46402 -0.687004 0
M  V30 15362 H 1449.21 -4.81164 -1.62614 0
M  V30 15363 H 1449.14 -4.1279 -3.26974 0
M  V30 15364 H 1451.63 -3.19592 -2.01666 0
M  V30 15365 H 1451.94 -6.84787 -3.58171 0
M  V30 15366 H 1450.29 -6.15525 -3.22729 0
M  V30 15367 H 1453.48 -4.00307 -2.42635 0
M  V30 15368 H 1453.65 -5.66828 -3.14023 0
M  V30 15369 N 1447.06 0.947303 -1.25952 0
M  V30 15370 C 1447.99 2.0625 -1.09467 0
M  V30 15371 C 1448.97 1.701 -0.00160498 0
M  V30 15372 O 1450.16 1.93432 -0.172501 0
M  V30 15373 C 1447.29 3.39746 -0.720392 0
M  V30 15374 C 1446.24 3.89935 -1.76451 0
M  V30 15375 C 1445.57 5.2001 -1.24472 0
M  V30 15376 C 1446.87 4.15496 -3.16481 0
M  V30 15377 H 1448.56 2.203 -2.02752 0
M  V30 15378 H 1446.11 1.05858 -0.97622 0
M  V30 15379 H 1448.06 4.17221 -0.591972 0
M  V30 15380 H 1446.78 3.25656 0.248161 0
M  V30 15381 H 1445.44 3.14635 -1.8815 0
M  V30 15382 H 1445.09 5.02295 -0.266182 0
M  V30 15383 H 1444.79 5.54559 -1.94263 0
M  V30 15384 H 1446.31 6.00075 -1.12884 0
M  V30 15385 H 1447.73 4.83605 -3.07894 0
M  V30 15386 H 1446.12 4.61315 -3.83808 0
M  V30 15387 H 1447.19 3.21501 -3.62995 0
M  V30 15388 N 1448.54 1.07657 1.15099 0
M  V30 15389 C 1449.47 0.643791 2.18931 0
M  V30 15390 C 1450.45 -0.340546 1.58994 0
M  V30 15391 O 1451.63 -0.24623 1.86885 0
M  V30 15392 C 1448.76 -0.0541901 3.38657 0
M  V30 15393 C 1447.81 0.889081 4.1713 0
M  V30 15394 S 1448.64 2.39173 4.79121 0
M  V30 15395 C 1449.8 1.70563 6.02212 0
M  V30 15396 H 1450.03 1.52342 2.55302 0
M  V30 15397 H 1447.56 0.890824 1.2611 0
M  V30 15398 H 1449.52 -0.45064 4.08019 0
M  V30 15399 H 1448.18 -0.910208 3.00623 0
M  V30 15400 H 1447.37 0.347484 5.02801 0
M  V30 15401 H 1446.98 1.22606 3.53332 0
M  V30 15402 H 1449.27 1.01914 6.69791 0
M  V30 15403 H 1450.21 2.54078 6.60946 0
M  V30 15404 H 1450.62 1.18228 5.51981 0
M  V30 15405 N 1450.02 -1.31994 0.861122 0
M  V30 15406 C 1450.98 -2.27019 0.315421 0
M  V30 15407 C 1451.98 -1.51864 -0.528575 0
M  V30 15408 O 1453.17 -1.70867 -0.339154 0
M  V30 15409 C 1450.3 -3.36384 -0.553021 0
M  V30 15410 H 1451.49 -2.768 1.1542 0
M  V30 15411 H 1449.05 -1.42776 0.635982 0
M  V30 15412 H 1449.78 -2.91882 -1.41335 0
M  V30 15413 H 1449.57 -3.92067 0.0511919 0
M  V30 15414 H 1451.06 -4.07172 -0.927392 0
M  V30 15415 N 1451.49 -0.619688 -1.44906 0
M  V30 15416 C 1452.46 0.0822364 -2.29052 0
M  V30 15417 C 1453.46 0.783427 -1.40425 0
M  V30 15418 O 1454.65 0.629751 -1.62419 0
M  V30 15419 C 1451.78 1.12685 -3.21737 0
M  V30 15420 H 1452.97 -0.657726 -2.92599 0
M  V30 15421 H 1450.53 -0.379286 -1.51628 0
M  V30 15422 H 1451.26 1.89717 -2.63017 0
M  V30 15423 H 1451.05 0.628122 -3.87036 0
M  V30 15424 H 1452.54 1.61808 -3.84978 0
M  V30 15425 N 1452.97 1.53444 -0.359552 0
M  V30 15426 C 1453.91 2.21884 0.533192 0
M  V30 15427 C 1454.88 1.20858 1.08776 0
M  V30 15428 O 1456.07 1.49738 1.14502 0
M  V30 15429 C 1453.19 2.90883 1.73507 0
M  V30 15430 C 1452.24 4.05931 1.30851 0
M  V30 15431 S 1453.07 5.34574 0.314859 0
M  V30 15432 C 1454.23 6.07083 1.52321 0
M  V30 15433 H 1454.46 2.97261 -0.0480679 0
M  V30 15434 H 1452 1.5373 -0.143645 0
M  V30 15435 H 1453.95 3.31252 2.42451 0
M  V30 15436 H 1452.61 2.15241 2.28758 0
M  V30 15437 H 1451.81 4.53203 2.20507 0
M  V30 15438 H 1451.41 3.67422 0.698365 0
M  V30 15439 H 1453.7 6.31448 2.45519 0
M  V30 15440 H 1454.64 6.99629 1.09198 0
M  V30 15441 H 1455.05 5.37449 1.72652 0
M  V30 15442 N 1454.45 0.0885642 1.57351 0
M  V30 15443 C 1455.68 -0.584389 1.98163 0
M  V30 15444 C 1456.09 -1.62664 0.966281 0
M  V30 15445 O 1455.43 -1.83623 -0.053226 0
M  V30 15446 C 1455.49 -1.2959 3.35331 0
M  V30 15447 C 1455.16 -0.405168 4.552 0
M  V30 15448 C 1456.15 0.344053 5.1876 0
M  V30 15449 C 1453.84 -0.325136 5.01247 0
M  V30 15450 C 1455.83 1.16135 6.26731 0
M  V30 15451 C 1453.52 0.495821 6.09085 0
M  V30 15452 C 1454.52 1.23772 6.71691 0
M  V30 15453 O 1454.21 2.04511 7.77451 0
M  V30 15454 H 1453.94 -0.161852 0.656338 0
M  V30 15455 H 1456.49 0.162558 2.04756 0
M  V30 15456 H 1454.72 -2.08928 3.25401 0
M  V30 15457 H 1456.41 -1.86274 3.60634 0
M  V30 15458 H 1457.18 0.291916 4.84121 0
M  V30 15459 H 1453.06 -0.892245 4.52283 0
M  V30 15460 H 1456.6 1.74093 6.75528 0
M  V30 15461 H 1452.5 0.549463 6.43157 0
M  V30 15462 H 1453.27 1.97123 7.94409 0
M  V30 15463 N 1455.93 -1.56509 -0.185096 0
M  V30 15464 C 1457.16 -1.85327 -0.91986 0
M  V30 15465 C 1457.57 -0.672294 -1.76425 0
M  V30 15466 O 1456.93 0.358854 -1.78937 0
M  V30 15467 C 1456.98 -3.13047 -1.80787 0
M  V30 15468 O 1456.7 -4.26591 -0.997569 0
M  V30 15469 C 1458.2 -3.55114 -2.65347 0
M  V30 15470 H 1455.42 -0.615196 -0.267909 0
M  V30 15471 H 1457.97 -2.03622 -0.189338 0
M  V30 15472 H 1456.12 -2.96619 -2.4919 0
M  V30 15473 H 1456.53 -4.99384 -1.60362 0
M  V30 15474 H 1458.01 -4.47419 -3.23295 0
M  V30 15475 H 1458.49 -2.78576 -3.39547 0
M  V30 15476 H 1459.09 -3.74105 -2.023 0
M  V30 15477 N 1457.41 0.45317 -1.50944 0
M  V30 15478 C 1458.65 1.21354 -1.64476 0
M  V30 15479 C 1459.01 1.88859 -0.345879 0
M  V30 15480 O 1460.21 2.66421 -0.356808 0
M  V30 15481 C 1458.48 2.21565 -2.80435 0
M  V30 15482 S 1460.04 3.06302 -3.14205 0
M  V30 15483 H 1456.86 0.411762 -0.579632 0
M  V30 15484 H 1459.46 0.50762 -1.88795 0
M  V30 15485 H 1458.17 1.70585 -3.73268 0
M  V30 15486 H 1457.7 2.96761 -2.58257 0
M  V30 15487 H 1459.71 4.22988 -2.59414 0
M  V30 15488 N 1458.88 1.40823 0.707568 0
M  V30 15489 C 1460.16 1.3003 1.46122 0
M  V30 15490 C 1460.54 -0.0776873 2.10957 0
M  V30 15491 O 1459.89 -1.09109 2.00767 0
M  V30 15492 C 1460.1 2.44498 2.49042 0
M  V30 15493 C 1461.45 2.85106 3.14642 0
M  V30 15494 O 1462.47 2.44149 2.59364 0
M  V30 15495 O 1461.33 3.55892 4.14733 0
M  V30 15496 H 1458.42 0.511082 0.650172 0
M  V30 15497 H 1460.97 1.52761 0.739062 0
M  V30 15498 H 1459.74 3.36502 1.99705 0
M  V30 15499 H 1459.37 2.23579 3.28783 0
M  V30 15500 N 1460.36 -0.94061 1.26453 0
M  V30 15501 C 1461.61 -1.68132 1.1142 0
M  V30 15502 C 1461.92 -1.92587 -0.342006 0
M  V30 15503 O 1463.13 -2.64489 -0.613018 0
M  V30 15504 C 1461.59 -3.02758 1.94591 0
M  V30 15505 C 1461.19 -2.86049 3.4479 0
M  V30 15506 C 1462.94 -3.80516 1.88169 0
M  V30 15507 C 1460.85 -4.1615 4.20206 0
M  V30 15508 H 1459.78 -0.630591 0.413366 0
M  V30 15509 H 1462.43 -1.04602 1.50767 0
M  V30 15510 H 1460.81 -3.67272 1.48078 0
M  V30 15511 H 1461.98 -2.3038 3.99076 0
M  V30 15512 H 1460.3 -2.21732 3.52454 0
M  V30 15513 H 1462.89 -4.76904 2.41799 0
M  V30 15514 H 1463.24 -4.07477 0.852531 0
M  V30 15515 H 1463.77 -3.22776 2.32509 0
M  V30 15516 H 1460.51 -3.94373 5.23593 0
M  V30 15517 H 1460.03 -4.71531 3.707 0
M  V30 15518 H 1461.71 -4.84602 4.28684 0
M  V30 15519 N 1461.84 -1.08266 -1.14527 0
M  V30 15520 C 1462.77 -0.655392 -2.18586 0
M  V30 15521 C 1463.75 0.332109 -1.59172 0
M  V30 15522 O 1464.94 0.236315 -1.87013 0
M  V30 15523 C 1462.06 0.0362295 -3.38681 0
M  V30 15524 C 1461.11 -0.91119 -4.16653 0
M  V30 15525 S 1461.94 -2.4171 -4.77846 0
M  V30 15526 C 1463.1 -1.73755 -6.01299 0
M  V30 15527 H 1463.33 -1.53694 -2.54491 0
M  V30 15528 H 1460.86 -0.897499 -1.25636 0
M  V30 15529 H 1462.82 0.428996 -4.08252 0
M  V30 15530 H 1461.48 0.894253 -3.01101 0
M  V30 15531 H 1460.68 -0.374143 -5.02609 0
M  V30 15532 H 1460.28 -1.24478 -3.52677 0
M  V30 15533 H 1462.57 -1.05465 -6.69241 0
M  V30 15534 H 1463.51 -2.5758 -6.59589 0
M  V30 15535 H 1463.92 -1.21153 -5.51346 0
M  V30 15536 N 1463.32 1.31536 -0.86811 0
M  V30 15537 C 1464.28 2.26849 -0.327456 0
M  V30 15538 C 1465.28 1.52142 0.520514 0
M  V30 15539 O 1466.47 1.71044 0.330088 0
M  V30 15540 C 1463.6 3.36673 0.535174 0
M  V30 15541 H 1464.8 2.76184 -1.16886 0
M  V30 15542 H 1462.35 1.42437 -0.643545 0
M  V30 15543 H 1463.09 2.92627 1.39785 0
M  V30 15544 H 1462.87 3.92034 -0.0719835 0
M  V30 15545 H 1464.36 4.07658 0.905786 0
M  V30 15546 N 1464.8 0.627364 1.44575 0
M  V30 15547 C 1466.03 0.137313 2.06444 0
M  V30 15548 C 1466.44 -1.18655 1.46855 0
M  V30 15549 O 1465.8 -1.72699 0.590018 0
M  V30 15550 C 1465.85 0.0123481 3.61498 0
M  V30 15551 O 1465.57 1.28385 4.18866 0
M  V30 15552 C 1467.07 -0.506841 4.40393 0
M  V30 15553 H 1464.29 0.0779387 0.666458 0
M  V30 15554 H 1466.83 0.860701 1.85505 0
M  V30 15555 H 1464.99 -0.66146 3.81711 0
M  V30 15556 H 1465.4 1.12626 5.12265 0
M  V30 15557 H 1466.88 -0.543304 5.4932 0
M  V30 15558 H 1467.35 -1.53314 4.11572 0
M  V30 15559 H 1467.96 0.133589 4.2509 0
M  V30 15560 N 1466.28 -1.53251 0.367684 0
M  V30 15561 C 1467.52 -2.00889 -0.220914 0
M  V30 15562 C 1467.84 -1.25662 -1.4911 0
M  V30 15563 O 1467.11 -0.370491 -1.92365 0
M  V30 15564 H 1465.69 -0.742191 -0.0846233 0
M  V30 15565 H 1468.36 -1.88525 0.494402 0
M  V30 15566 H 1467.45 -3.08891 -0.446414 0
M  V30 15567 N 1467.75 -0.0969077 -1.57302 0
M  V30 15568 C 1469.03 0.608737 -1.85886 0
M  V30 15569 C 1469.41 1.86228 -0.994096 0
M  V30 15570 O 1468.76 2.28402 -0.0669975 0
M  V30 15571 C 1468.97 0.922385 -3.3659 0
M  V30 15572 C 1470.32 1.28505 -4.04687 0
M  V30 15573 O 1471.34 1.01334 -3.41482 0
M  V30 15574 O 1470.2 1.794 -5.16215 0
M  V30 15575 H 1467.29 0.304808 -0.768779 0
M  V30 15576 H 1469.84 -0.129742 -1.69203 0
M  V30 15577 H 1468.61 0.0331488 -3.91286 0
M  V30 15578 H 1468.23 1.71678 -3.58626 0
M  V30 15579 N 1469.23 1.56605 0.176793 0
M  V30 15580 C 1470.48 1.81952 0.895627 0
M  V30 15581 C 1470.81 0.673893 1.82133 0
M  V30 15582 O 1470.09 -0.324494 1.91774 0
M  V30 15583 C 1470.37 3.17658 1.69604 0
M  V30 15584 C 1470.22 4.4274 0.793834 0
M  V30 15585 C 1471.54 3.50246 2.66488 0
M  V30 15586 H 1468.66 0.661884 0.324159 0
M  V30 15587 H 1471.3 1.89307 0.162092 0
M  V30 15588 H 1469.45 3.11518 2.3214 0
M  V30 15589 H 1471.12 4.60942 0.181775 0
M  V30 15590 H 1469.37 4.33681 0.101566 0
M  V30 15591 H 1470.04 5.34231 1.38927 0
M  V30 15592 H 1472.51 3.56804 2.1408 0
M  V30 15593 H 1471.39 4.46286 3.19562 0
M  V30 15594 H 1471.65 2.7467 3.46423 0
M  V30 15595 N 1470.71 -0.445159 1.51182 0
M  V30 15596 C 1471.64 -1.5473 1.74874 0
M  V30 15597 C 1472.62 -1.5923 0.598323 0
M  V30 15598 O 1473.81 -1.75083 0.840219 0
M  V30 15599 C 1470.94 -2.92872 1.86664 0
M  V30 15600 C 1469.89 -3.03235 3.02048 0
M  V30 15601 C 1469.22 -4.43279 2.99012 0
M  V30 15602 C 1470.52 -2.7804 4.42144 0
M  V30 15603 H 1472.21 -1.35156 2.67158 0
M  V30 15604 H 1469.76 -0.648763 1.28558 0
M  V30 15605 H 1471.71 -3.69927 2.01822 0
M  V30 15606 H 1470.43 -3.1366 0.910225 0
M  V30 15607 H 1469.09 -2.28617 2.86583 0
M  V30 15608 H 1468.74 -4.61023 2.01163 0
M  V30 15609 H 1468.44 -4.51144 3.76488 0
M  V30 15610 H 1469.96 -5.22319 3.16252 0
M  V30 15611 H 1471.38 -3.44831 4.58 0
M  V30 15612 H 1469.77 -2.97323 5.21267 0
M  V30 15613 H 1470.84 -1.737 4.52721 0
M  V30 15614 N 1472.19 -1.41197 -0.700089 0
M  V30 15615 C 1473.44 -1.40034 -1.45722 0
M  V30 15616 C 1473.76 -0.00876281 -1.94998 0
M  V30 15617 O 1473.03 0.948647 -1.71399 0
M  V30 15618 H 1471.61 -0.515433 -0.540683 0
M  V30 15619 H 1474.27 -1.76394 -0.828926 0
M  V30 15620 H 1473.36 -2.08477 -2.32258 0
M  V30 15621 N 1473.67 0.933891 -1.2695 0
M  V30 15622 C 1475.08 1.20873 -1.0422 0
M  V30 15623 C 1475.28 2.00205 0.228112 0
M  V30 15624 O 1474.34 2.34539 0.935284 0
M  V30 15625 C 1475.65 1.9629 -2.27795 0
M  V30 15626 C 1477.2 2.09254 -2.3277 0
M  V30 15627 C 1477.67 2.88075 -3.56057 0
M  V30 15628 N 1479.16 2.95646 -3.56578 0
M  V30 15629 C 1479.9 3.57082 -4.48642 0
M  V30 15630 N 1479.4 4.1996 -5.51004 0
M  V30 15631 N 1481.19 3.54425 -4.36279 0
M  V30 15632 H 1473.34 0.403735 -2.08528 0
M  V30 15633 H 1475.6 0.241189 -0.916805 0
M  V30 15634 H 1475.31 1.45412 -3.20231 0
M  V30 15635 H 1475.18 2.9693 -2.32621 0
M  V30 15636 H 1477.57 2.5932 -1.40844 0
M  V30 15637 H 1477.65 1.07854 -2.31951 0
M  V30 15638 H 1477.29 2.38693 -4.48317 0
M  V30 15639 H 1477.22 3.89746 -3.54126 0
M  V30 15640 H 1479.72 2.50951 -2.82545 0
M  V30 15641 H 1480.03 4.64758 -6.1743 0
M  V30 15642 H 1478.37 4.18525 -5.54853 0
M  V30 15643 H 1481.56 3.045 -3.55524 0
M  V30 15644 H 1481.74 4.02016 -5.0822 0
M  V30 15645 N 1475.14 1.08871 1.13951 0
M  V30 15646 C 1476.39 0.822504 1.85372 0
M  V30 15647 C 1476.72 -0.650183 1.82993 0
M  V30 15648 O 1476 -1.4783 1.26398 0
M  V30 15649 C 1476.28 1.35107 3.33793 0
M  V30 15650 C 1476.13 2.88945 3.44719 0
M  V30 15651 C 1477.45 0.980203 4.29045 0
M  V30 15652 H 1474.57 0.300255 0.673065 0
M  V30 15653 H 1477.21 1.34914 1.33784 0
M  V30 15654 H 1475.36 0.903108 3.77857 0
M  V30 15655 H 1477.04 3.42148 3.09407 0
M  V30 15656 H 1475.28 3.26365 2.85777 0
M  V30 15657 H 1475.95 3.21004 4.49066 0
M  V30 15658 H 1478.43 1.36646 3.93023 0
M  V30 15659 H 1477.3 1.37717 5.31343 0
M  V30 15660 H 1477.56 -0.112253 4.41957 0
M  V30 15661 N 1476.62 -1.31073 0.875073 0
M  V30 15662 C 1477.85 -2.00397 0.50245 0
M  V30 15663 C 1478.26 -1.65826 -0.910951 0
M  V30 15664 O 1477.6 -0.886276 -1.60906 0
M  V30 15665 C 1477.66 -3.54696 0.585744 0
M  V30 15666 C 1477.33 -4.12756 1.96167 0
M  V30 15667 C 1478.33 -4.29484 2.92984 0
M  V30 15668 C 1476.01 -4.48365 2.26437 0
M  V30 15669 C 1478 -4.81019 4.18209 0
M  V30 15670 C 1475.69 -4.99601 3.51912 0
M  V30 15671 C 1476.69 -5.1588 4.47613 0
M  V30 15672 O 1476.38 -5.66014 5.70862 0
M  V30 15673 H 1476.11 -0.647645 0.193733 0
M  V30 15674 H 1478.66 -1.6816 1.17947 0
M  V30 15675 H 1476.89 -3.86416 -0.148214 0
M  V30 15676 H 1478.58 -4.05271 0.225818 0
M  V30 15677 H 1479.35 -4.02286 2.70907 0
M  V30 15678 H 1475.23 -4.34968 1.52721 0
M  V30 15679 H 1478.77 -4.9364 4.92915 0
M  V30 15680 H 1474.67 -5.26234 3.73829 0
M  V30 15681 H 1475.44 -5.84374 5.73105 0
M  V30 15682 N 1478.1 -0.635022 -1.4424 0
M  V30 15683 C 1479.06 0.0579377 -2.29127 0
M  V30 15684 C 1480.06 0.768489 -1.41248 0
M  V30 15685 O 1481.25 0.612489 -1.63077 0
M  V30 15686 C 1478.39 1.09266 -3.22914 0
M  V30 15687 H 1479.58 -0.688723 -2.91885 0
M  V30 15688 H 1477.13 -0.395347 -1.51217 0
M  V30 15689 H 1477.87 1.86917 -2.65014 0
M  V30 15690 H 1477.65 0.587036 -3.87681 0
M  V30 15691 H 1479.14 1.57716 -3.86672 0
M  V30 15692 N 1479.58 1.53054 -0.375806 0
M  V30 15693 C 1480.82 2.017 0.210985 0
M  V30 15694 C 1481.16 1.26228 1.47581 0
M  V30 15695 O 1480.43 0.358869 1.91161 0
M  V30 15696 C 1480.72 3.56715 0.492596 0
M  V30 15697 C 1480.57 4.42869 -0.786573 0
M  V30 15698 C 1481.89 4.20803 1.28891 0
M  V30 15699 H 1479.01 0.733153 0.0752084 0
M  V30 15700 H 1481.65 1.83229 -0.502715 0
M  V30 15701 H 1479.8 3.72585 1.10059 0
M  V30 15702 H 1481.47 4.38777 -1.42381 0
M  V30 15703 H 1479.71 4.10425 -1.40478 0
M  V30 15704 H 1480.38 5.49309 -0.544354 0
M  V30 15705 H 1482.86 4.08828 0.774498 0
M  V30 15706 H 1481.74 5.29273 1.45469 0
M  V30 15707 H 1482 3.77541 2.30033 0
M  V30 15708 N 1481.06 0.105248 1.57248 0
M  V30 15709 C 1481.99 -0.846915 2.176 0
M  V30 15710 C 1482.97 -1.28706 1.11216 0
M  V30 15711 O 1484.15 -1.35213 1.39396 0
M  V30 15712 C 1481.28 -2.10228 2.76445 0
M  V30 15713 C 1480.24 -1.80041 3.8829 0
M  V30 15714 C 1479.56 -3.12491 4.33882 0
M  V30 15715 C 1480.86 -1.07943 5.11024 0
M  V30 15716 H 1482.56 -0.344052 2.97417 0
M  V30 15717 H 1480.1 -0.164045 1.43063 0
M  V30 15718 H 1482.06 -2.77284 3.17319 0
M  V30 15719 H 1480.78 -2.62815 1.93897 0
M  V30 15720 H 1479.44 -1.15379 3.4797 0
M  V30 15721 H 1479.09 -3.62985 3.48211 0
M  V30 15722 H 1478.79 -2.93072 5.09296 0
M  V30 15723 H 1480.31 -3.80688 4.77398 0
M  V30 15724 H 1481.72 -1.65127 5.49004 0
M  V30 15725 H 1480.12 -0.986674 5.91933 0
M  V30 15726 H 1481.19 -0.0638511 4.84858 0
M  V30 15727 N 1482.53 -1.56697 -0.168486 0
M  V30 15728 C 1483.76 -1.86652 -0.904195 0
M  V30 15729 C 1484.18 -0.691906 -1.74912 0
M  V30 15730 O 1483.54 0.358971 -1.77711 0
M  V30 15731 C 1483.59 -3.15043 -1.75442 0
M  V30 15732 O 1482.69 -2.97466 -2.85636 0
M  V30 15733 H 1482.04 -0.613859 -0.253128 0
M  V30 15734 H 1484.57 -2.03927 -0.165773 0
M  V30 15735 H 1484.58 -3.4652 -2.15378 0
M  V30 15736 H 1483.25 -4.00147 -1.13381 0
M  V30 15737 H 1481.83 -2.7735 -2.49262 0
M  V30 15738 N 1484.01 0.437135 -1.51416 0
M  V30 15739 C 1484.96 1.53061 -1.72745 0
M  V30 15740 C 1485.93 1.56045 -0.569149 0
M  V30 15741 O 1487.11 1.73052 -0.803602 0
M  V30 15742 C 1484.25 2.90774 -1.85861 0
M  V30 15743 C 1483.37 2.97318 -3.1341 0
M  V30 15744 C 1482.5 4.26156 -3.1712 0
M  V30 15745 C 1481.54 4.26568 -4.38983 0
M  V30 15746 N 1480.68 5.4693 -4.40241 0
M  V30 15747 H 1485.52 1.34177 -2.66084 0
M  V30 15748 H 1483.06 0.651803 -1.31871 0
M  V30 15749 H 1485.01 3.7068 -1.91447 0
M  V30 15750 H 1483.64 3.08216 -0.959306 0
M  V30 15751 H 1482.7 2.10074 -3.17132 0
M  V30 15752 H 1484.01 2.93485 -4.03321 0
M  V30 15753 H 1483.16 5.14435 -3.21623 0
M  V30 15754 H 1481.9 4.32646 -2.25098 0
M  V30 15755 H 1480.91 3.36681 -4.34656 0
M  V30 15756 H 1482.13 4.21741 -5.3227 0
M  V30 15757 H 1480.08 5.54141 -3.51089 0
M  V30 15758 H 1479.99 5.44977 -5.23962 0
M  V30 15759 H 1481.26 6.37241 -4.48937 0
M  V30 15760 N 1485.49 1.41566 0.692592 0
M  V30 15761 C 1486.91 1.24101 1.00355 0
M  V30 15762 C 1487.11 0.132485 2.01064 0
M  V30 15763 O 1486.16 -0.502142 2.47457 0
M  V30 15764 C 1487.48 2.59142 1.52532 0
M  V30 15765 C 1489.02 2.66348 1.64401 0
M  V30 15766 C 1489.5 4.01713 2.19978 0
M  V30 15767 N 1490.99 4.03575 2.27335 0
M  V30 15768 C 1491.72 5.05118 2.71373 0
M  V30 15769 N 1491.22 6.1705 3.14994 0
M  V30 15770 N 1493.01 4.92479 2.70963 0
M  V30 15771 H 1485.16 2.12385 0.0254859 0
M  V30 15772 H 1487.43 0.945118 0.0738684 0
M  V30 15773 H 1487.13 3.41026 0.85989 0
M  V30 15774 H 1487.01 2.81833 2.50699 0
M  V30 15775 H 1489.39 1.84821 2.30055 0
M  V30 15776 H 1489.48 2.47464 0.647717 0
M  V30 15777 H 1489.12 4.8369 1.54939 0
M  V30 15778 H 1489.05 4.1794 3.20365 0
M  V30 15779 H 1491.54 3.2276 1.96556 0
M  V30 15780 H 1491.85 6.90399 3.47231 0
M  V30 15781 H 1490.2 6.20582 3.12895 0
M  V30 15782 H 1493.39 4.04117 2.36236 0
M  V30 15783 H 1493.56 5.71752 3.04965 0
M  V30 15784 N 1486.97 -0.927146 1.27443 0
M  V30 15785 C 1487.88 -2.06122 1.12031 0
M  V30 15786 C 1488.89 -1.73928 0.0501979 0
M  V30 15787 O 1490.07 -1.99756 0.256796 0
M  V30 15788 C 1487.14 -3.3805 0.769634 0
M  V30 15789 C 1486.2 -3.83938 1.92068 0
M  V30 15790 C 1485.43 -5.0957 1.58664 0
M  V30 15791 O 1485.65 -5.6825 0.494789 0
M  V30 15792 O 1484.59 -5.50844 2.42599 0
M  V30 15793 H 1488.41 -2.22037 2.07203 0
M  V30 15794 H 1486 -1.04638 1.06636 0
M  V30 15795 H 1487.88 -4.17286 0.587423 0
M  V30 15796 H 1486.55 -3.2334 -0.152557 0
M  V30 15797 H 1485.46 -3.05587 2.15795 0
M  V30 15798 H 1486.79 -4.0319 2.8231 0
M  V30 15799 N 1488.45 -1.09474 -1.13372 0
M  V30 15800 C 1489.69 -0.82945 -1.84295 0
M  V30 15801 C 1490.02 0.646788 -1.83961 0
M  V30 15802 O 1489.29 1.46929 -1.29572 0
M  V30 15803 H 1487.87 -0.303853 -0.682409 0
M  V30 15804 H 1490.53 -1.38298 -1.3733 0
M  V30 15805 H 1489.62 -1.18342 -2.88793 0
M  V30 15806 N 1489.92 1.30607 -0.882012 0
M  V30 15807 C 1491.34 1.48859 -0.575599 0
M  V30 15808 C 1491.54 1.80908 0.887388 0
M  V30 15809 O 1490.6 1.89492 1.6688 0
M  V30 15810 C 1491.91 2.61405 -1.48619 0
M  V30 15811 C 1493.46 2.75286 -1.48951 0
M  V30 15812 C 1493.93 3.90942 -2.38596 0
M  V30 15813 N 1495.42 3.98248 -2.36543 0
M  V30 15814 C 1496.16 4.87041 -3.0262 0
M  V30 15815 N 1495.65 5.80651 -3.77911 0
M  V30 15816 N 1497.45 4.80385 -2.91867 0
M  V30 15817 H 1489.6 1.08076 -1.82848 0
M  V30 15818 H 1491.86 0.535148 -0.782509 0
M  V30 15819 H 1491.57 2.44535 -2.52775 0
M  V30 15820 H 1491.44 3.57818 -1.19358 0
M  V30 15821 H 1493.83 2.91564 -0.455477 0
M  V30 15822 H 1493.91 1.79504 -1.82242 0
M  V30 15823 H 1493.55 3.75422 -3.42083 0
M  V30 15824 H 1493.48 4.86057 -2.02623 0
M  V30 15825 H 1495.97 3.31282 -1.81827 0
M  V30 15826 H 1496.29 6.45159 -4.25428 0
M  V30 15827 H 1494.63 5.80592 -3.82019 0
M  V30 15828 H 1497.82 4.06234 -2.32576 0
M  V30 15829 H 1498 5.49377 -3.43641 0
M  V30 15830 N 1491.4 0.642663 1.43901 0
M  V30 15831 C 1492.65 0.152003 2.0223 0
M  V30 15832 C 1492.98 -1.22711 1.50518 0
M  V30 15833 O 1492.26 -1.817 0.693937 0
M  V30 15834 C 1492.54 0.151278 3.59782 0
M  V30 15835 C 1492.39 1.56356 4.2175 0
M  V30 15836 C 1493.71 -0.518016 4.37041 0
M  V30 15837 H 1490.83 0.0567094 0.734815 0
M  V30 15838 H 1493.47 0.821337 1.7133 0
M  V30 15839 H 1491.62 -0.418679 3.86237 0
M  V30 15840 H 1493.29 2.18329 4.06362 0
M  V30 15841 H 1491.54 2.11401 3.78803 0
M  V30 15842 H 1492.21 1.51499 5.30803 0
M  V30 15843 H 1494.68 -0.0331947 4.16087 0
M  V30 15844 H 1493.56 -0.487754 5.46729 0
M  V30 15845 H 1493.82 -1.59036 4.12504 0
M  V30 15846 N 1492.88 -1.52852 0.383918 0
M  V30 15847 C 1493.81 -2.29213 -0.44539 0
M  V30 15848 C 1494.79 -1.3238 -1.06815 0
M  V30 15849 O 1495.98 -1.61269 -1.08194 0
M  V30 15850 C 1493.11 -3.09497 -1.57573 0
M  V30 15851 C 1492.06 -4.14168 -1.07928 0
M  V30 15852 C 1491.39 -4.82644 -2.30128 0
M  V30 15853 C 1492.69 -5.22082 -0.151035 0
M  V30 15854 H 1494.38 -2.98786 0.19172 0
M  V30 15855 H 1491.93 -1.43695 0.0936471 0
M  V30 15856 H 1493.88 -3.61672 -2.16267 0
M  V30 15857 H 1492.6 -2.37647 -2.24034 0
M  V30 15858 H 1491.26 -3.62966 -0.514909 0
M  V30 15859 H 1490.91 -4.07348 -2.95087 0
M  V30 15860 H 1490.61 -5.53388 -1.97574 0
M  V30 15861 H 1492.14 -5.37621 -2.89475 0
M  V30 15862 H 1493.55 -5.69649 -0.646003 0
M  V30 15863 H 1491.95 -6.00041 0.0844833 0
M  V30 15864 H 1493.02 -4.78228 0.801618 0
M  V30 15865 N 1494.36 -0.113586 -1.5719 0
M  V30 15866 C 1495.29 0.868985 -2.12088 0
M  V30 15867 C 1496.3 1.23362 -1.06233 0
M  V30 15868 O 1497.49 1.18352 -1.33623 0
M  V30 15869 C 1494.59 2.17252 -2.60106 0
M  V30 15870 C 1493.77 1.9804 -3.89999 0
M  V30 15871 C 1492.83 3.12073 -4.23671 0
M  V30 15872 O 1491.85 2.85224 -4.92581 0
M  V30 15873 N 1493.05 4.38358 -3.80556 0
M  V30 15874 H 1495.82 0.399996 -2.97019 0
M  V30 15875 H 1493.38 0.0709947 -1.61744 0
M  V30 15876 H 1495.37 2.92523 -2.79665 0
M  V30 15877 H 1493.94 2.55516 -1.80084 0
M  V30 15878 H 1493.16 1.06993 -3.79402 0
M  V30 15879 H 1494.45 1.82502 -4.74943 0
M  V30 15880 H 1493.85 4.63048 -3.24966 0
M  V30 15881 H 1492.4 5.10518 -4.05234 0
M  V30 15882 N 1495.84 1.56784 0.160173 0
M  V30 15883 C 1496.75 2.00514 1.21783 0
M  V30 15884 C 1497.76 0.918341 1.47792 0
M  V30 15885 O 1498.94 1.22683 1.59721 0
M  V30 15886 C 1496 2.36575 2.53443 0
M  V30 15887 C 1495.07 3.59138 2.35198 0
M  V30 15888 C 1494.3 3.93469 3.6058 0
M  V30 15889 O 1494.52 3.28625 4.6622 0
M  V30 15890 O 1493.46 4.86774 3.54027 0
M  V30 15891 H 1497.28 2.90774 0.876607 0
M  V30 15892 H 1494.87 1.44799 0.367897 0
M  V30 15893 H 1496.75 2.60687 3.31089 0
M  V30 15894 H 1495.42 1.49474 2.87122 0
M  V30 15895 H 1494.33 3.4023 1.55546 0
M  V30 15896 H 1495.66 4.46815 2.0644 0
M  V30 15897 N 1497.32 -0.429099 1.51646 0
M  V30 15898 C 1498.23 -1.54648 1.76412 0
M  V30 15899 C 1499.24 -1.61455 0.648703 0
M  V30 15900 O 1500.42 -1.78544 0.931888 0
M  V30 15901 C 1497.48 -2.90562 1.89142 0
M  V30 15902 C 1496.54 -2.93804 3.13014 0
M  V30 15903 C 1495.78 -4.23235 3.25127 0
M  V30 15904 O 1496 -5.1606 2.42979 0
M  V30 15905 O 1494.93 -4.32929 4.18158 0
M  V30 15906 H 1498.76 -1.36661 2.71215 0
M  V30 15907 H 1496.34 -0.612946 1.36247 0
M  V30 15908 H 1498.23 -3.7121 1.99453 0
M  V30 15909 H 1496.9 -3.08659 0.975272 0
M  V30 15910 H 1495.81 -2.12082 3.08175 0
M  V30 15911 H 1497.14 -2.80654 4.04344 0
M  V30 15912 N 1498.79 -1.41931 -0.685074 0
M  V30 15913 C 1499.73 -1.39028 -1.8096 0
M  V30 15914 C 1500.7 -0.256001 -1.60572 0
M  V30 15915 O 1501.89 -0.44459 -1.83182 0
M  V30 15916 C 1499.02 -1.17125 -3.17804 0
M  V30 15917 C 1498.06 -2.33411 -3.56961 0
M  V30 15918 S 1498.89 -3.9592 -3.60565 0
M  V30 15919 C 1500.05 -3.7634 -5.00119 0
M  V30 15920 H 1500.28 -2.34189 -1.83146 0
M  V30 15921 H 1497.82 -1.2858 -0.854778 0
M  V30 15922 H 1499.77 -1.05175 -3.96798 0
M  V30 15923 H 1498.44 -0.235668 -3.13215 0
M  V30 15924 H 1497.63 -2.13807 -4.56402 0
M  V30 15925 H 1497.23 -2.41823 -2.85303 0
M  V30 15926 H 1499.52 -3.36695 -5.87914 0
M  V30 15927 H 1500.47 -4.7542 -5.24768 0
M  V30 15928 H 1500.87 -3.09407 -4.72152 0
M  V30 15929 N 1500.27 0.920374 -1.27933 0
M  V30 15930 C 1501.22 2.02196 -1.1129 0
M  V30 15931 C 1502.19 1.66096 -0.0118871 0
M  V30 15932 O 1503.37 1.8999 -0.175586 0
M  V30 15933 C 1500.51 3.36312 -0.77383 0
M  V30 15934 C 1499.63 3.85322 -1.95322 0
M  V30 15935 C 1498.76 5.07919 -1.55537 0
M  V30 15936 C 1497.8 5.49244 -2.7018 0
M  V30 15937 N 1496.94 6.63034 -2.30933 0
M  V30 15938 H 1501.78 2.15764 -2.05548 0
M  V30 15939 H 1499.31 1.05691 -1.02312 0
M  V30 15940 H 1501.27 4.13451 -0.558024 0
M  V30 15941 H 1499.9 3.22531 0.131806 0
M  V30 15942 H 1498.95 3.04399 -2.28135 0
M  V30 15943 H 1500.27 4.11915 -2.81296 0
M  V30 15944 H 1499.42 5.92581 -1.30123 0
M  V30 15945 H 1498.16 4.8312 -0.666818 0
M  V30 15946 H 1497.16 4.63127 -2.96299 0
M  V30 15947 H 1498.39 5.76035 -3.59667 0
M  V30 15948 H 1496.34 6.39878 -1.44539 0
M  V30 15949 H 1496.25 6.89319 -3.10444 0
M  V30 15950 H 1497.52 7.51018 -2.08786 0
M  V30 15951 N 1501.75 1.10074 1.1279 0
M  V30 15952 C 1502.66 0.758458 2.22001 0
M  V30 15953 C 1503.68 -0.242438 1.72303 0
M  V30 15954 O 1504.85 -0.0821223 2.01233 0
M  V30 15955 C 1501.92 0.191326 3.46172 0
M  V30 15956 C 1500.98 1.24902 4.10729 0
M  V30 15957 C 1500.21 0.708857 5.28972 0
M  V30 15958 O 1500.43 -0.465993 5.68493 0
M  V30 15959 O 1499.37 1.46703 5.83748 0
M  V30 15960 H 1503.19 1.66997 2.53665 0
M  V30 15961 H 1500.78 0.875604 1.21052 0
M  V30 15962 H 1502.66 -0.121292 4.21225 0
M  V30 15963 H 1501.34 -0.693094 3.16193 0
M  V30 15964 H 1500.24 1.61444 3.37471 0
M  V30 15965 H 1501.58 2.10632 4.44854 0
M  V30 15966 N 1503.23 -1.30138 0.888926 0
M  V30 15967 C 1504.48 -1.95602 0.508359 0
M  V30 15968 C 1504.8 -1.70495 -0.946377 0
M  V30 15969 O 1504.07 -1.03073 -1.66592 0
M  V30 15970 H 1502.65 -0.723728 0.185006 0
M  V30 15971 H 1505.31 -1.58594 1.13286 0
M  V30 15972 H 1504.4 -3.04559 0.681915 0
M  V30 15973 N 1504.71 -0.650285 -1.43559 0
M  V30 15974 C 1505.93 -0.170139 -2.06199 0
M  V30 15975 C 1506.35 1.16304 -1.48724 0
M  V30 15976 O 1505.71 1.71739 -0.617418 0
M  V30 15977 C 1505.76 -0.0698577 -3.61432 0
M  V30 15978 O 1505.48 -1.35033 -4.16771 0
M  V30 15979 C 1506.98 0.436714 -4.41144 0
M  V30 15980 H 1504.2 -0.0885316 -0.665134 0
M  V30 15981 H 1506.74 -0.890104 -1.84112 0
M  V30 15982 H 1504.9 0.60065 -3.82715 0
M  V30 15983 H 1505.31 -1.20762 -5.10409 0
M  V30 15984 H 1506.79 0.455843 -5.50115 0
M  V30 15985 H 1507.26 1.46747 -4.13959 0
M  V30 15986 H 1507.87 -0.201201 -4.24824 0
M  V30 15987 N 1506.18 1.52647 -0.392018 0
M  V30 15988 C 1507.46 1.94034 0.247004 0
M  V30 15989 C 1507.84 1.32767 1.64122 0
M  V30 15990 O 1507.19 0.496822 2.23033 0
M  V30 15991 C 1507.4 3.47949 0.270615 0
M  V30 15992 C 1508.75 4.21666 0.498256 0
M  V30 15993 O 1509.77 3.54469 0.350708 0
M  V30 15994 O 1508.63 5.40795 0.787586 0
M  V30 15995 H 1505.72 0.812487 0.154251 0
M  V30 15996 H 1508.27 1.63715 -0.446723 0
M  V30 15997 H 1507.04 3.84881 -0.705862 0
M  V30 15998 H 1506.66 3.8458 1.00915 0
M  V30 15999 N 1507.66 0.121921 1.57128 0
M  V30 16000 C 1508.6 -0.864553 2.11189 0
M  V30 16001 C 1509.57 -1.25896 1.02902 0
M  V30 16002 O 1510.76 -1.3595 1.30575 0
M  V30 16003 C 1507.88 -2.15742 2.611 0
M  V30 16004 C 1506.93 -1.91085 3.81299 0
M  V30 16005 S 1507.76 -1.12448 5.23561 0
M  V30 16006 C 1508.92 -2.42908 5.76842 0
M  V30 16007 H 1509.15 -0.404737 2.94532 0
M  V30 16008 H 1506.69 -0.091909 1.54126 0
M  V30 16009 H 1508.64 -2.90024 2.9051 0
M  V30 16010 H 1507.3 -2.58841 1.77933 0
M  V30 16011 H 1506.5 -2.86889 4.1438 0
M  V30 16012 H 1506.1 -1.24922 3.5252 0
M  V30 16013 H 1508.39 -3.38728 5.86745 0
M  V30 16014 H 1509.33 -2.14367 6.74872 0
M  V30 16015 H 1509.74 -2.52409 5.04926 0
M  V30 16016 N 1509.14 -1.56867 -0.151857 0
M  V30 16017 C 1510.39 -1.83082 -0.865285 0
M  V30 16018 C 1510.72 -0.702056 -1.81387 0
M  V30 16019 O 1509.97 0.309291 -1.9324 0
M  V30 16020 C 1510.27 -3.15597 -1.6773 0
M  V30 16021 C 1509.94 -4.4231 -0.875929 0
M  V30 16022 C 1508.6 -4.76724 -0.654826 0
M  V30 16023 C 1510.95 -5.20246 -0.315162 0
M  V30 16024 C 1508.28 -5.86538 0.13783 0
M  V30 16025 C 1510.63 -6.30892 0.464508 0
M  V30 16026 C 1509.29 -6.63859 0.696233 0
M  V30 16027 H 1508.56 -0.669945 -0.31663 0
M  V30 16028 H 1511.21 -1.91064 -0.129175 0
M  V30 16029 H 1509.52 -3.03044 -2.48338 0
M  V30 16030 H 1511.21 -3.33094 -2.23269 0
M  V30 16031 H 1507.8 -4.15328 -1.05832 0
M  V30 16032 H 1511.99 -4.94038 -0.473273 0
M  V30 16033 H 1507.24 -6.10525 0.32691 0
M  V30 16034 H 1511.42 -6.90479 0.906187 0
M  V30 16035 H 1509.04 -7.48788 1.3123 0
M  V30 16036 N 1510.62 0.421051 -1.51871 0
M  V30 16037 C 1511.87 1.16611 -1.64574 0
M  V30 16038 C 1512.18 1.91955 -0.375835 0
M  V30 16039 O 1513.39 2.68792 -0.382481 0
M  V30 16040 C 1511.84 2.12164 -2.90714 0
M  V30 16041 C 1511.45 1.42392 -4.24769 0
M  V30 16042 C 1513.19 2.87002 -3.12778 0
M  V30 16043 C 1511.1 2.36523 -5.42043 0
M  V30 16044 H 1510.03 0.438989 -0.613029 0
M  V30 16045 H 1512.68 0.431636 -1.78351 0
M  V30 16046 H 1511.06 2.89114 -2.70608 0
M  V30 16047 H 1512.24 0.708875 -4.55315 0
M  V30 16048 H 1510.55 0.796421 -4.08713 0
M  V30 16049 H 1513.15 3.5755 -3.9757 0
M  V30 16050 H 1513.49 3.49277 -2.2652 0
M  V30 16051 H 1514.03 2.17154 -3.333 0
M  V30 16052 H 1510.77 1.78913 -6.30611 0
M  V30 16053 H 1510.29 3.06034 -5.15852 0
M  V30 16054 H 1511.96 2.97306 -5.74646 0
M  V30 16055 N 1512.1 1.42293 0.677538 0
M  V30 16056 C 1513.35 1.41909 1.43334 0
M  V30 16057 C 1513.66 0.037951 1.95563 0
M  V30 16058 O 1514.86 -0.0884836 2.71356 0
M  V30 16059 C 1513.32 2.49608 2.59275 0
M  V30 16060 C 1512.93 3.93716 2.13757 0
M  V30 16061 C 1514.67 2.58387 3.36803 0
M  V30 16062 C 1512.58 4.92929 3.26764 0
M  V30 16063 H 1511.51 0.527803 0.538461 0
M  V30 16064 H 1514.16 1.6819 0.733791 0
M  V30 16065 H 1512.54 2.16488 3.31585 0
M  V30 16066 H 1513.72 4.36176 1.48618 0
M  V30 16067 H 1512.03 3.88762 1.49175 0
M  V30 16068 H 1514.63 3.29691 4.20961 0
M  V30 16069 H 1514.97 1.62653 3.8321 0
M  V30 16070 H 1515.5 2.90688 2.71561 0
M  V30 16071 H 1512.24 5.90131 2.85352 0
M  V30 16072 H 1511.76 4.55103 3.90694 0
M  V30 16073 H 1513.44 5.1452 3.92273 0
M  V30 16074 N 1513.57 -0.913576 1.28419 0
M  V30 16075 C 1514.52 -2.01603 1.12361 0
M  V30 16076 C 1515.49 -1.66087 0.0206953 0
M  V30 16077 O 1516.68 -1.89895 0.185659 0
M  V30 16078 C 1513.82 -3.35897 0.791655 0
M  V30 16079 C 1512.93 -3.84281 1.97363 0
M  V30 16080 C 1512.06 -5.07087 1.58228 0
M  V30 16081 C 1511.1 -5.47804 2.73089 0
M  V30 16082 N 1510.24 -6.618 2.34446 0
M  V30 16083 H 1515.08 -2.1467 2.0669 0
M  V30 16084 H 1512.62 -1.05147 1.02871 0
M  V30 16085 H 1514.58 -4.13149 0.579943 0
M  V30 16086 H 1513.21 -3.22596 -0.114699 0
M  V30 16087 H 1512.26 -3.03184 2.29746 0
M  V30 16088 H 1513.57 -4.10417 2.83477 0
M  V30 16089 H 1512.72 -5.91883 1.33264 0
M  V30 16090 H 1511.46 -4.82759 0.692429 0
M  V30 16091 H 1510.47 -4.61549 2.98751 0
M  V30 16092 H 1511.69 -5.74119 3.62717 0
M  V30 16093 H 1509.64 -6.39103 1.4793 0
M  V30 16094 H 1509.56 -6.87663 3.14096 0
M  V30 16095 H 1510.82 -7.49901 2.12766 0
M  V30 16096 N 1515.05 -1.1067 -1.12204 0
M  V30 16097 C 1516.02 -0.761145 -2.16193 0
M  V30 16098 C 1517.02 0.215599 -1.59348 0
M  V30 16099 O 1518.21 -0.00786723 -1.74198 0
M  V30 16100 C 1515.34 -0.127863 -3.4066 0
M  V30 16101 H 1516.53 -1.68225 -2.48275 0
M  V30 16102 H 1514.08 -0.907542 -1.27253 0
M  V30 16103 H 1514.82 0.803851 -3.14179 0
M  V30 16104 H 1514.6 -0.83085 -3.83196 0
M  V30 16105 H 1516.09 0.0980593 -4.17485 0
M  V30 16106 N 1516.53 1.29665 -0.895815 0
M  V30 16107 C 1517.78 1.96006 -0.520522 0
M  V30 16108 C 1518.11 1.7048 0.930068 0
M  V30 16109 O 1517.38 1.01558 1.6588 0
M  V30 16110 C 1517.67 3.50897 -0.808925 0
M  V30 16111 C 1517.52 3.85896 -2.31093 0
M  V30 16112 C 1518.84 4.39125 -0.292769 0
M  V30 16113 H 1515.96 0.711931 -0.190588 0
M  V30 16114 H 1518.6 1.53349 -1.12179 0
M  V30 16115 H 1516.75 3.87362 -0.297194 0
M  V30 16116 H 1518.42 3.59397 -2.89191 0
M  V30 16117 H 1516.67 3.33578 -2.77323 0
M  V30 16118 H 1517.34 4.93989 -2.46331 0
M  V30 16119 H 1519.81 4.0963 -0.730906 0
M  V30 16120 H 1518.69 5.46395 -0.523799 0
M  V30 16121 H 1518.95 4.34683 0.806393 0
M  V30 16122 N 1518.01 0.657889 1.43212 0
M  V30 16123 C 1518.94 -0.0172114 2.33494 0
M  V30 16124 C 1519.92 -0.807087 1.49733 0
M  V30 16125 O 1521.1 -0.767631 1.78385 0
M  V30 16126 C 1518.23 -0.981029 3.33156 0
M  V30 16127 C 1517.19 -0.30094 4.26941 0
M  V30 16128 C 1516.51 -1.37653 5.16678 0
M  V30 16129 C 1517.81 0.809572 5.15988 0
M  V30 16130 H 1519.51 0.736749 2.90194 0
M  V30 16131 H 1517.05 0.355744 1.39537 0
M  V30 16132 H 1519.01 -1.46226 3.95216 0
M  V30 16133 H 1517.73 -1.76621 2.74723 0
M  V30 16134 H 1516.39 0.159893 3.66251 0
M  V30 16135 H 1516.04 -2.15326 4.54581 0
M  V30 16136 H 1515.74 -0.926704 5.80246 0
M  V30 16137 H 1517.26 -1.85903 5.81612 0
M  V30 16138 H 1518.68 0.410297 5.7183 0
M  V30 16139 H 1517.07 1.18415 5.88301 0
M  V30 16140 H 1518.14 1.66558 4.55397 0
M  V30 16141 N 1519.49 -1.52437 0.400108 0
M  V30 16142 C 1520.9 -1.86563 -0.0715162 0
M  V30 16143 C 1521.25 -1.3193 -1.4522 0
M  V30 16144 O 1520.37 -0.654955 -2.06251 0
M  V30 16145 C 1520.97 -3.38525 -0.13655 0
M  V30 16146 C 1519.53 -3.72323 -0.55249 0
M  V30 16147 C 1518.67 -2.75896 0.278729 0
M  V30 16148 H 1521.63 -1.46192 0.617547 0
M  V30 16149 H 1521.65 -3.68357 -0.953588 0
M  V30 16150 H 1521.16 -3.78258 0.868468 0
M  V30 16151 H 1519.26 -3.38164 -1.56448 0
M  V30 16152 H 1519.37 -4.7814 -0.303139 0
M  V30 16153 H 1517.74 -2.53394 -0.257608 0
M  V30 16154 H 1518.52 -3.18467 1.28193 0
M  V30 16155 N 1520.96 -0.130252 -1.57061 0
M  V30 16156 C 1522.21 0.525784 -1.95866 0
M  V30 16157 C 1522.54 1.65607 -1.01429 0
M  V30 16158 O 1521.82 1.94426 -0.0535544 0
M  V30 16159 C 1522.1 1.04784 -3.44517 0
M  V30 16160 C 1521.95 -0.0797972 -4.49729 0
M  V30 16161 C 1523.27 1.9351 -3.95275 0
M  V30 16162 H 1520.39 0.189652 -0.71218 0
M  V30 16163 H 1523.03 -0.208091 -1.88857 0
M  V30 16164 H 1521.18 1.67324 -3.50621 0
M  V30 16165 H 1522.86 -0.715535 -4.55717 0
M  V30 16166 H 1521.1 -0.741358 -4.27418 0
M  V30 16167 H 1521.77 0.326915 -5.51031 0
M  V30 16168 H 1524.25 1.40825 -3.91545 0
M  V30 16169 H 1523.12 2.26952 -4.99784 0
M  V30 16170 H 1523.38 2.86583 -3.36634 0
M  V30 16171 N 1522.44 1.56945 0.143535 0
M  V30 16172 C 1523.41 1.97616 1.16106 0
M  V30 16173 C 1524.41 0.863113 1.35672 0
M  V30 16174 O 1525.6 1.12966 1.32606 0
M  V30 16175 C 1522.73 2.29511 2.52067 0
M  V30 16176 H 1523.92 2.88696 0.812066 0
M  V30 16177 H 1521.47 1.51433 0.386999 0
M  V30 16178 H 1522.21 1.41233 2.91931 0
M  V30 16179 H 1521.99 3.10667 2.39225 0
M  V30 16180 H 1523.48 2.61802 3.25345 0
M  V30 16181 N 1523.92 -0.412991 1.52093 0
M  V30 16182 C 1524.83 -1.52768 1.78042 0
M  V30 16183 C 1525.85 -1.60758 0.665791 0
M  V30 16184 O 1527.02 -1.77545 0.950772 0
M  V30 16185 C 1524.09 -2.8854 1.92213 0
M  V30 16186 C 1523.15 -2.90468 3.16112 0
M  V30 16187 C 1522.38 -4.19763 3.29598 0
M  V30 16188 O 1522.61 -5.13454 2.48438 0
M  V30 16189 O 1521.54 -4.2847 4.22726 0
M  V30 16190 H 1525.37 -1.33777 2.72649 0
M  V30 16191 H 1522.95 -0.598461 1.3689 0
M  V30 16192 H 1524.83 -3.69073 2.03379 0
M  V30 16193 H 1523.51 -3.07607 1.00795 0
M  V30 16194 H 1522.41 -2.08801 3.10408 0
M  V30 16195 H 1523.75 -2.76349 4.07298 0
M  V30 16196 N 1525.4 -1.4265 -0.669982 0
M  V30 16197 C 1526.62 -1.46992 -1.46315 0
M  V30 16198 C 1527.05 -0.0840655 -1.87912 0
M  V30 16199 O 1526.41 0.918554 -1.56308 0
M  V30 16200 C 1526.46 -2.40663 -2.6854 0
M  V30 16201 O 1525.56 -1.88132 -3.66988 0
M  V30 16202 H 1524.9 -0.497844 -0.439372 0
M  V30 16203 H 1527.43 -1.8739 -0.821348 0
M  V30 16204 H 1527.44 -2.57405 -3.16554 0
M  V30 16205 H 1526.12 -3.41346 -2.37604 0
M  V30 16206 H 1524.69 -1.80969 -3.26044 0
M  V30 16207 N 1526.88 0.906753 -1.28902 0
M  V30 16208 C 1528.12 1.65658 -1.16464 0
M  V30 16209 C 1528.45 1.92396 0.285342 0
M  V30 16210 O 1527.71 1.52755 1.22329 0
M  V30 16211 C 1528.01 3.0171 -1.91588 0
M  V30 16212 C 1527.67 2.94606 -3.41347 0
M  V30 16213 C 1526.33 2.92376 -3.8219 0
M  V30 16214 C 1528.69 2.84335 -4.3681 0
M  V30 16215 C 1526.01 2.77685 -5.16825 0
M  V30 16216 C 1528.37 2.71184 -5.71526 0
M  V30 16217 C 1527.03 2.67316 -6.11636 0
M  V30 16218 H 1526.3 0.606184 -0.426171 0
M  V30 16219 H 1528.95 1.05592 -1.59758 0
M  V30 16220 H 1527.25 3.65602 -1.40863 0
M  V30 16221 H 1528.95 3.58645 -1.79374 0
M  V30 16222 H 1525.54 2.97141 -3.08878 0
M  V30 16223 H 1529.72 2.85141 -4.06212 0
M  V30 16224 H 1524.98 2.7309 -5.47021 0
M  V30 16225 H 1529.15 2.62206 -6.45152 0
M  V30 16226 H 1526.78 2.5569 -7.1591 0
M  V30 16227 N 1528.36 1.11264 1.11616 0
M  V30 16228 C 1529.6 0.858664 1.82952 0
M  V30 16229 C 1529.92 -0.617439 1.84967 0
M  V30 16230 O 1529.19 -1.44849 1.31893 0
M  V30 16231 H 1527.77 0.314671 0.677489 0
M  V30 16232 H 1530.44 1.40466 1.35113 0
M  V30 16233 H 1529.53 1.22921 2.86874 0
M  V30 16234 N 1529.83 -1.29188 0.902679 0
M  V30 16235 C 1531.08 -1.95438 0.530124 0
M  V30 16236 C 1531.41 -1.71142 -0.924149 0
M  V30 16237 O 1530.66 -1.01901 -1.67077 0
M  V30 16238 C 1530.96 -3.48951 0.772542 0
M  V30 16239 C 1530.63 -3.93328 2.20464 0
M  V30 16240 C 1529.29 -4.05155 2.59621 0
M  V30 16241 C 1531.64 -4.16216 3.13709 0
M  V30 16242 C 1528.97 -4.37242 3.91198 0
M  V30 16243 C 1531.32 -4.49779 4.44839 0
M  V30 16244 C 1529.99 -4.59817 4.83865 0
M  V30 16245 H 1529.26 -0.715158 0.193986 0
M  V30 16246 H 1531.9 -1.5373 1.1419 0
M  V30 16247 H 1530.21 -3.91723 0.0778683 0
M  V30 16248 H 1531.91 -3.98311 0.463623 0
M  V30 16249 H 1528.5 -3.84641 1.89075 0
M  V30 16250 H 1532.68 -4.06542 2.8467 0
M  V30 16251 H 1527.94 -4.43217 4.21152 0
M  V30 16252 H 1532.11 -4.66439 5.17115 0
M  V30 16253 H 1529.74 -4.84435 5.85856 0
M  V30 16254 N 1531.31 -0.665475 -1.42861 0
M  V30 16255 C 1532.27 0.00932351 -2.29198 0
M  V30 16256 C 1533.27 0.738356 -1.42846 0
M  V30 16257 O 1534.46 0.57776 -1.6434 0
M  V30 16258 C 1531.6 1.02392 -3.25159 0
M  V30 16259 H 1532.79 -0.750481 -2.90358 0
M  V30 16260 H 1530.34 -0.427334 -1.50345 0
M  V30 16261 H 1531.08 1.81254 -2.68919 0
M  V30 16262 H 1530.86 0.504671 -3.88839 0
M  V30 16263 H 1532.35 1.49479 -3.89931 0
M  V30 16264 N 1532.79 1.52222 -0.408187 0
M  V30 16265 C 1534.07 1.94285 0.22641 0
M  V30 16266 C 1534.45 1.34501 1.62705 0
M  V30 16267 O 1533.79 0.52045 2.22494 0
M  V30 16268 C 1534 3.48217 0.233695 0
M  V30 16269 C 1535.35 4.22171 0.453504 0
M  V30 16270 O 1536.38 3.54821 0.313093 0
M  V30 16271 O 1535.24 5.416 0.730183 0
M  V30 16272 H 1532.33 0.814078 0.145625 0
M  V30 16273 H 1534.88 1.63232 -0.464062 0
M  V30 16274 H 1533.65 3.84111 -0.746644 0
M  V30 16275 H 1533.27 3.85629 0.968305 0
M  V30 16276 N 1534.27 0.138579 1.5699 0
M  V30 16277 C 1535.18 -0.817548 2.19894 0
M  V30 16278 C 1536.19 -1.27806 1.18075 0
M  V30 16279 O 1537.37 -1.33699 1.5062 0
M  V30 16280 C 1534.43 -2.04244 2.80152 0
M  V30 16281 C 1533.5 -1.63197 3.97071 0
M  V30 16282 C 1532.73 -2.79847 4.54446 0
M  V30 16283 O 1532.95 -3.95827 4.10703 0
M  V30 16284 O 1531.89 -2.55804 5.44838 0
M  V30 16285 H 1535.71 -0.312123 3.02092 0
M  V30 16286 H 1533.3 -0.0880281 1.4914 0
M  V30 16287 H 1535.18 -2.75945 3.18485 0
M  V30 16288 H 1533.85 -2.53755 2.00973 0
M  V30 16289 H 1532.76 -0.885448 3.6347 0
M  V30 16290 H 1534.09 -1.1841 4.77745 0
M  V30 16291 N 1535.75 -1.57019 -0.13521 0
M  V30 16292 C 1536.99 -1.83178 -0.844308 0
M  V30 16293 C 1537.31 -0.7217 -1.81799 0
M  V30 16294 O 1538.51 -0.869232 -2.57209 0
M  V30 16295 C 1536.97 -3.2471 -1.55214 0
M  V30 16296 C 1536.58 -4.43685 -0.620268 0
M  V30 16297 C 1538.32 -3.60133 -2.24732 0
M  V30 16298 C 1536.23 -5.76242 -1.3304 0
M  V30 16299 H 1535.16 -0.683175 -0.319041 0
M  V30 16300 H 1537.81 -1.83243 -0.0970242 0
M  V30 16301 H 1536.19 -3.19067 -2.34547 0
M  V30 16302 H 1537.37 -4.60591 0.138685 0
M  V30 16303 H 1535.68 -4.16387 -0.0328906 0
M  V30 16304 H 1538.28 -4.56431 -2.78522 0
M  V30 16305 H 1538.62 -2.86767 -3.01779 0
M  V30 16306 H 1539.15 -3.67489 -1.52305 0
M  V30 16307 H 1535.89 -6.52734 -0.60155 0
M  V30 16308 H 1535.41 -5.63251 -2.06176 0
M  V30 16309 H 1537.09 -6.19445 -1.86808 0
M  V30 16310 N 1537.22 0.404919 -1.52309 0
M  V30 16311 C 1538.64 0.743846 -1.41206 0
M  V30 16312 C 1538.84 1.94678 -0.519874 0
M  V30 16313 O 1537.9 2.52497 0.0127417 0
M  V30 16314 C 1539.21 0.99384 -2.83802 0
M  V30 16315 C 1540.76 1.0963 -2.93173 0
M  V30 16316 C 1541.23 1.37902 -4.36746 0
M  V30 16317 N 1542.72 1.44758 -4.39999 0
M  V30 16318 C 1543.46 1.68269 -5.48154 0
M  V30 16319 N 1542.95 1.89356 -6.6642 0
M  V30 16320 N 1544.75 1.70318 -5.35675 0
M  V30 16321 H 1536.9 -0.386855 -2.08847 0
M  V30 16322 H 1539.16 -0.110811 -0.941501 0
M  V30 16323 H 1538.87 0.182249 -3.51227 0
M  V30 16324 H 1538.74 1.91287 -3.25099 0
M  V30 16325 H 1541.13 1.89847 -2.25925 0
M  V30 16326 H 1541.21 0.155539 -2.55327 0
M  V30 16327 H 1540.85 0.582004 -5.04554 0
M  V30 16328 H 1540.78 2.33237 -4.72132 0
M  V30 16329 H 1543.27 1.30235 -3.5475 0
M  V30 16330 H 1543.59 2.06758 -7.44628 0
M  V30 16331 H 1541.93 1.86612 -6.69478 0
M  V30 16332 H 1545.12 1.53385 -4.42256 0
M  V30 16333 H 1545.3 1.88302 -6.20037 0
M  V30 16334 N 1538.7 1.43003 0.662408 0
M  V30 16335 C 1539.65 1.47448 1.77561 0
M  V30 16336 C 1540.62 0.325121 1.62887 0
M  V30 16337 O 1541.8 0.530971 1.83263 0
M  V30 16338 C 1538.94 1.3946 3.15666 0
M  V30 16339 C 1538.06 2.64529 3.41539 0
M  V30 16340 C 1537.19 2.48594 4.69441 0
M  V30 16341 C 1536.23 3.68976 4.88388 0
M  V30 16342 N 1535.37 3.51908 6.0754 0
M  V30 16343 H 1540.21 2.42573 1.73097 0
M  V30 16344 H 1537.75 1.2042 0.84484 0
M  V30 16345 H 1539.7 1.32824 3.95492 0
M  V30 16346 H 1538.33 0.479227 3.19223 0
M  V30 16347 H 1537.39 2.81481 2.55877 0
M  V30 16348 H 1538.7 3.53977 3.51429 0
M  V30 16349 H 1537.85 2.39614 5.57378 0
M  V30 16350 H 1536.59 1.56656 4.61855 0
M  V30 16351 H 1535.6 3.78374 3.9889 0
M  V30 16352 H 1536.82 4.61911 4.9781 0
M  V30 16353 H 1534.77 2.62697 6.01104 0
M  V30 16354 H 1534.68 4.34951 6.18347 0
M  V30 16355 H 1535.95 3.46763 6.98123 0
M  V30 16356 N 1540.18 -0.899904 1.29381 0
M  V30 16357 C 1541.6 -1.18067 1.07388 0
M  V30 16358 C 1541.8 -2.00739 -0.174951 0
M  V30 16359 O 1540.85 -2.36937 -0.872771 0
M  V30 16360 C 1542.17 -1.90182 2.32919 0
M  V30 16361 C 1543.71 -2.03009 2.38236 0
M  V30 16362 C 1544.19 -2.78533 3.6357 0
M  V30 16363 N 1545.68 -2.86088 3.64291 0
M  V30 16364 C 1546.41 -3.45062 4.57952 0
M  V30 16365 N 1545.91 -4.05204 5.61945 0
M  V30 16366 N 1547.7 -3.42734 4.45522 0
M  V30 16367 H 1539.85 -0.348306 2.09525 0
M  V30 16368 H 1542.12 -0.216796 0.922878 0
M  V30 16369 H 1541.82 -1.36871 3.23974 0
M  V30 16370 H 1541.7 -2.90658 2.40412 0
M  V30 16371 H 1544.08 -2.55495 1.47669 0
M  V30 16372 H 1544.17 -1.01666 2.34729 0
M  V30 16373 H 1543.81 -2.26723 4.54488 0
M  V30 16374 H 1543.74 -3.8022 3.64335 0
M  V30 16375 H 1546.23 -2.43372 2.891 0
M  V30 16376 H 1546.54 -4.48225 6.29535 0
M  V30 16377 H 1544.89 -4.03667 5.65755 0
M  V30 16378 H 1548.08 -2.94967 3.63472 0
M  V30 16379 H 1548.25 -3.884 5.187 0
M  V30 16380 N 1541.66 -1.11854 -1.11024 0
M  V30 16381 C 1542.89 -0.892714 -1.8665 0
M  V30 16382 C 1543.3 0.557721 -1.80374 0
M  V30 16383 O 1542.66 1.3853 -1.1881 0
M  V30 16384 C 1542.71 -1.35135 -3.35292 0
M  V30 16385 O 1542.43 -2.74493 -3.41446 0
M  V30 16386 C 1543.93 -1.16157 -4.27811 0
M  V30 16387 H 1541.15 -0.319409 -0.590101 0
M  V30 16388 H 1543.7 -1.48697 -1.40391 0
M  V30 16389 H 1541.85 -0.80046 -3.7904 0
M  V30 16390 H 1542.26 -2.94474 -4.34034 0
M  V30 16391 H 1543.74 -1.53144 -5.30331 0
M  V30 16392 H 1544.22 -0.101546 -4.39083 0
M  V30 16393 H 1544.82 -1.69966 -3.89861 0
M  V30 16394 N 1543.14 1.28707 -0.909517 0
M  V30 16395 C 1544.36 1.99821 -0.555557 0
M  V30 16396 C 1544.79 1.67549 0.854931 0
M  V30 16397 O 1544.14 0.905521 1.57067 0
M  V30 16398 C 1544.19 3.52361 -0.766438 0
M  V30 16399 O 1543.3 4.12022 0.17654 0
M  V30 16400 H 1542.64 0.627918 -0.215905 0
M  V30 16401 H 1545.17 1.63965 -1.2238 0
M  V30 16402 H 1545.18 4.02379 -0.674894 0
M  V30 16403 H 1543.85 3.75184 -1.7947 0
M  V30 16404 H 1542.43 3.72882 0.0366216 0
M  V30 16405 N 1544.61 0.673042 1.42506 0
M  V30 16406 C 1545.86 0.194192 2.01165 0
M  V30 16407 C 1546.18 -1.2029 1.53477 0
M  V30 16408 O 1545.45 -1.80737 0.755704 0
M  V30 16409 H 1544.03 0.0688022 0.743825 0
M  V30 16410 H 1546.7 0.869157 1.74447 0
M  V30 16411 H 1545.79 0.194111 3.11496 0
M  V30 16412 N 1546.09 -1.52004 0.416254 0
M  V30 16413 C 1547.02 -2.30106 -0.396671 0
M  V30 16414 C 1548 -1.34616 -1.03983 0
M  V30 16415 O 1549.19 -1.63528 -1.04749 0
M  V30 16416 C 1546.32 -3.12769 -1.50972 0
M  V30 16417 C 1545.27 -4.16365 -0.99119 0
M  V30 16418 C 1544.6 -4.87417 -2.19838 0
M  V30 16419 C 1545.9 -5.22284 -0.0402599 0
M  V30 16420 H 1547.59 -2.98312 0.255054 0
M  V30 16421 H 1545.14 -1.43464 0.124106 0
M  V30 16422 H 1547.09 -3.66178 -2.08547 0
M  V30 16423 H 1545.82 -2.42346 -2.18943 0
M  V30 16424 H 1544.47 -3.63976 -0.437803 0
M  V30 16425 H 1544.12 -4.13516 -2.8638 0
M  V30 16426 H 1543.82 -5.57454 -1.85792 0
M  V30 16427 H 1545.35 -5.43641 -2.78006 0
M  V30 16428 H 1546.76 -5.70891 -0.525027 0
M  V30 16429 H 1545.16 -5.99726 0.211742 0
M  V30 16430 H 1546.23 -4.7642 0.902877 0
M  V30 16431 N 1547.57 -0.146903 -1.56914 0
M  V30 16432 C 1548.53 0.778709 -2.15566 0
M  V30 16433 C 1549.53 1.1753 -1.09742 0
M  V30 16434 O 1550.72 1.09624 -1.35382 0
M  V30 16435 C 1547.86 2.0567 -2.71869 0
M  V30 16436 H 1549.05 0.268506 -2.98696 0
M  V30 16437 H 1546.6 0.10254 -1.55963 0
M  V30 16438 H 1547.34 2.61057 -1.92405 0
M  V30 16439 H 1547.12 1.78154 -3.4929 0
M  V30 16440 H 1548.61 2.71779 -3.17059 0
M  V30 16441 N 1549.05 1.57088 0.126881 0
M  V30 16442 C 1550.27 1.88984 0.854389 0
M  V30 16443 C 1550.7 0.738037 1.73016 0
M  V30 16444 O 1550.06 -0.311728 1.786 0
M  V30 16445 C 1550.1 3.19584 1.67028 0
M  V30 16446 O 1549.21 3.04935 2.77648 0
M  V30 16447 H 1548.55 0.620354 0.236763 0
M  V30 16448 H 1551.08 2.04295 0.111647 0
M  V30 16449 H 1551.09 3.52109 2.06115 0
M  V30 16450 H 1549.76 4.03012 1.02732 0
M  V30 16451 H 1548.34 2.83861 2.41821 0
M  V30 16452 N 1550.53 -0.396836 1.52522 0
M  V30 16453 C 1551.94 -0.975124 1.59211 0
M  V30 16454 C 1552.29 -1.91199 0.440138 0
M  V30 16455 O 1551.41 -2.11924 -0.437856 0
M  V30 16456 C 1552.01 -1.77531 2.88562 0
M  V30 16457 C 1550.57 -2.30343 2.9769 0
M  V30 16458 C 1549.71 -1.10671 2.54258 0
M  V30 16459 H 1552.67 -0.176646 1.57714 0
M  V30 16460 H 1552.69 -2.63384 2.74607 0
M  V30 16461 H 1552.2 -1.09318 3.72386 0
M  V30 16462 H 1550.3 -3.01891 2.18387 0
M  V30 16463 H 1550.41 -2.60366 4.02177 0
M  V30 16464 H 1548.78 -1.46439 2.08393 0
M  V30 16465 H 1549.56 -0.440061 3.40468 0
M  V30 16466 N 1552.01 -1.43353 -0.654814 0
M  V30 16467 C 1552.94 -1.44353 -1.7803 0
M  V30 16468 C 1553.95 -0.339872 -1.59213 0
M  V30 16469 O 1555.14 -0.604207 -1.67963 0
M  V30 16470 C 1552.24 -1.23913 -3.15434 0
M  V30 16471 C 1551.41 -2.47088 -3.60924 0
M  V30 16472 C 1550.47 -2.21896 -4.77126 0
M  V30 16473 O 1549.5 -2.95236 -4.86646 0
M  V30 16474 N 1550.7 -1.23459 -5.6722 0
M  V30 16475 H 1553.46 -2.41372 -1.77651 0
M  V30 16476 H 1551.03 -1.38488 -0.838603 0
M  V30 16477 H 1553.02 -1.04945 -3.90856 0
M  V30 16478 H 1551.59 -0.35346 -3.10595 0
M  V30 16479 H 1550.81 -2.81492 -2.75964 0
M  V30 16480 H 1552.1 -3.29066 -3.88064 0
M  V30 16481 H 1551.49 -0.6284 -5.62199 0
M  V30 16482 H 1550.05 -1.10474 -6.4237 0
M  V30 16483 N 1553.48 0.89303 -1.29857 0
M  V30 16484 C 1554.41 2.01422 -1.18117 0
M  V30 16485 C 1555.39 1.6994 -0.0737487 0
M  V30 16486 O 1556.58 1.92527 -0.254387 0
M  V30 16487 C 1553.71 3.36385 -0.863842 0
M  V30 16488 C 1552.66 3.821 -1.92831 0
M  V30 16489 C 1551.99 5.14263 -1.46415 0
M  V30 16490 C 1553.29 4.01699 -3.33819 0
M  V30 16491 H 1554.98 2.11502 -2.11913 0
M  V30 16492 H 1552.53 1.01622 -1.02024 0
M  V30 16493 H 1554.48 4.14335 -0.768397 0
M  V30 16494 H 1553.21 3.26415 0.109816 0
M  V30 16495 H 1551.87 3.06372 -2.01325 0
M  V30 16496 H 1551.51 5.00714 -0.478983 0
M  V30 16497 H 1551.21 5.45821 -2.17609 0
M  V30 16498 H 1552.74 5.94747 -1.38234 0
M  V30 16499 H 1554.15 4.70111 -3.28129 0
M  V30 16500 H 1552.55 4.44621 -4.03029 0
M  V30 16501 H 1553.62 3.05816 -3.76304 0
M  V30 16502 N 1554.96 1.12442 1.10429 0
M  V30 16503 C 1556.21 0.881062 1.82661 0
M  V30 16504 C 1556.54 -0.591636 1.84968 0
M  V30 16505 O 1555.82 -1.43734 1.31037 0
M  V30 16506 C 1556.1 1.45658 3.29326 0
M  V30 16507 C 1555.95 2.99766 3.35352 0
M  V30 16508 C 1557.27 1.1162 4.2571 0
M  V30 16509 H 1554.39 0.321516 0.663172 0
M  V30 16510 H 1557.03 1.39102 1.29424 0
M  V30 16511 H 1555.18 1.02286 3.74793 0
M  V30 16512 H 1556.85 3.51818 2.98365 0
M  V30 16513 H 1555.1 3.35292 2.75249 0
M  V30 16514 H 1555.77 3.35128 4.38627 0
M  V30 16515 H 1558.24 1.49081 3.88477 0
M  V30 16516 H 1557.12 1.54552 5.26692 0
M  V30 16517 H 1557.38 0.0284093 4.42091 0
M  V30 16518 N 1556.44 -1.28223 0.91633 0
M  V30 16519 C 1557.69 -1.94865 0.550823 0
M  V30 16520 C 1558.01 -1.72113 -0.905945 0
M  V30 16521 O 1557.27 -1.03668 -1.65987 0
M  V30 16522 C 1557.57 -3.48112 0.809509 0
M  V30 16523 C 1557.23 -3.90967 2.24623 0
M  V30 16524 C 1555.9 -4.02379 2.63903 0
M  V30 16525 C 1558.25 -4.12865 3.18106 0
M  V30 16526 C 1555.58 -4.33069 3.95814 0
M  V30 16527 C 1557.93 -4.45036 4.49584 0
M  V30 16528 C 1556.59 -4.54659 4.88714 0
M  V30 16529 H 1555.86 -0.71306 0.20156 0
M  V30 16530 H 1558.51 -1.5251 1.15814 0
M  V30 16531 H 1556.81 -3.91618 0.119411 0
M  V30 16532 H 1558.51 -3.97797 0.505843 0
M  V30 16533 H 1555.1 -3.82614 1.93144 0
M  V30 16534 H 1559.29 -4.035 2.88966 0
M  V30 16535 H 1554.54 -4.38725 4.25829 0
M  V30 16536 H 1558.72 -4.60928 5.22033 0
M  V30 16537 H 1556.34 -4.78194 5.90961 0
M  V30 16538 N 1557.92 -0.68059 -1.42147 0
M  V30 16539 C 1559.14 -0.212293 -2.06311 0
M  V30 16540 C 1559.57 1.12402 -1.50822 0
M  V30 16541 O 1558.93 1.70037 -0.629051 0
M  V30 16542 C 1558.97 -0.164156 -3.60226 0
M  V30 16543 O 1558.08 0.865582 -4.03214 0
M  V30 16544 H 1557.42 -0.107451 -0.655248 0
M  V30 16545 H 1559.95 -0.931233 -1.82179 0
M  V30 16546 H 1559.96 0.0100422 -4.07999 0
M  V30 16547 H 1558.63 -1.13952 -3.99985 0
M  V30 16548 H 1557.21 0.661955 -3.66978 0
M  V30 16549 N 1559.4 1.51781 -0.424309 0
M  V30 16550 C 1560.35 2.24259 0.411339 0
M  V30 16551 C 1561.33 1.25976 1.00094 0
M  V30 16552 O 1562.52 1.51136 0.921238 0
M  V30 16553 C 1559.65 3.07858 1.51917 0
M  V30 16554 C 1558.74 4.13561 0.939599 0
M  V30 16555 N 1559.13 5.05723 0.08803 0
M  V30 16556 C 1557.43 4.29314 1.20855 0
M  V30 16557 C 1558.13 5.81221 -0.236076 0
M  V30 16558 N 1557.1 5.42291 0.376983 0
M  V30 16559 H 1560.9 2.92874 -0.2454 0
M  V30 16560 H 1558.42 1.60682 -0.235612 0
M  V30 16561 H 1560.42 3.58347 2.13056 0
M  V30 16562 H 1559.08 2.40784 2.17837 0
M  V30 16563 H 1560.09 5.17156 -0.277436 0
M  V30 16564 H 1556.76 3.73469 1.86621 0
M  V30 16565 H 1558.15 6.65457 -0.928241 0
M  V30 16566 N 1560.87 0.155222 1.56834 0
M  V30 16567 C 1562.12 -0.488126 1.97456 0
M  V30 16568 C 1562.47 -1.61935 1.03898 0
M  V30 16569 O 1561.77 -1.91451 0.0755621 0
M  V30 16570 C 1561.96 -1.03346 3.42132 0
M  V30 16571 C 1561.79 0.0434014 4.49679 0
M  V30 16572 C 1560.56 0.487619 5.02942 0
M  V30 16573 C 1562.76 0.837907 5.07428 0
M  V30 16574 N 1560.74 1.54646 5.94102 0
M  V30 16575 C 1562.11 1.74705 5.94877 0
M  V30 16576 C 1564.17 0.884781 4.89976 0
M  V30 16577 C 1562.87 2.69907 6.6674 0
M  V30 16578 C 1564.9 1.82467 5.62548 0
M  V30 16579 C 1564.26 2.72132 6.4971 0
M  V30 16580 H 1560.36 -0.147187 0.768023 0
M  V30 16581 H 1562.94 0.251725 1.93066 0
M  V30 16582 H 1561.11 -1.74288 3.471 0
M  V30 16583 H 1562.84 -1.6441 3.69799 0
M  V30 16584 H 1559.6 0.0883276 4.73518 0
M  V30 16585 H 1560.02 2.07589 6.44388 0
M  V30 16586 H 1564.66 0.205617 4.223 0
M  V30 16587 H 1562.38 3.3882 7.33639 0
M  V30 16588 H 1565.97 1.86684 5.51036 0
M  V30 16589 H 1564.85 3.43676 7.0488 0
M  V30 16590 N 1562.35 -1.57153 -0.118549 0
M  V30 16591 C 1563.26 -2.03673 -1.16424 0
M  V30 16592 C 1564.28 -0.957203 -1.45305 0
M  V30 16593 O 1565.45 -1.26874 -1.56413 0
M  V30 16594 C 1562.52 -2.43211 -2.47082 0
M  V30 16595 C 1561.58 -3.65248 -2.25593 0
M  V30 16596 C 1560.81 -4.02891 -3.50021 0
M  V30 16597 O 1561.04 -3.40871 -4.57344 0
M  V30 16598 O 1559.97 -4.95989 -3.40996 0
M  V30 16599 H 1563.8 -2.92996 -0.799206 0
M  V30 16600 H 1561.38 -1.45724 -0.329376 0
M  V30 16601 H 1563.26 -2.69374 -3.24061 0
M  V30 16602 H 1561.94 -1.57034 -2.83058 0
M  V30 16603 H 1560.84 -3.44234 -1.46471 0
M  V30 16604 H 1562.18 -4.52131 -1.94521 0
M  V30 16605 N 1563.83 0.388742 -1.5273 0
M  V30 16606 C 1565.08 1.13094 -1.67011 0
M  V30 16607 C 1565.39 1.91115 -0.416467 0
M  V30 16608 O 1566.6 2.67921 -0.43941 0
M  V30 16609 C 1565.05 2.0595 -2.95149 0
M  V30 16610 C 1564.66 1.3335 -4.27694 0
M  V30 16611 C 1566.41 2.80303 -3.18795 0
M  V30 16612 C 1564.31 2.24973 -5.46938 0
M  V30 16613 H 1563.24 0.425887 -0.622203 0
M  V30 16614 H 1565.89 0.393708 -1.79227 0
M  V30 16615 H 1564.28 2.83309 -2.7668 0
M  V30 16616 H 1565.45 0.612137 -4.56716 0
M  V30 16617 H 1563.76 0.709547 -4.1031 0
M  V30 16618 H 1566.36 3.49036 -4.05065 0
M  V30 16619 H 1566.7 3.44394 -2.33877 0
M  V30 16620 H 1567.24 2.10036 -3.37831 0
M  V30 16621 H 1563.98 1.65497 -6.34264 0
M  V30 16622 H 1563.5 2.95024 -5.22227 0
M  V30 16623 H 1565.18 2.8505 -5.80823 0
M  V30 16624 N 1565.31 1.43698 0.647203 0
M  V30 16625 C 1566.56 1.44918 1.40292 0
M  V30 16626 C 1566.87 0.0794243 1.95439 0
M  V30 16627 O 1568.08 -0.0309052 2.71482 0
M  V30 16628 C 1566.53 2.55052 2.53923 0
M  V30 16629 C 1566.14 3.98161 2.05357 0
M  V30 16630 C 1567.88 2.65473 3.31246 0
M  V30 16631 C 1565.79 4.99749 3.16235 0
M  V30 16632 H 1564.72 0.539106 0.527144 0
M  V30 16633 H 1567.37 1.69708 0.697951 0
M  V30 16634 H 1565.75 2.23473 3.26919 0
M  V30 16635 H 1566.93 4.3923 1.39333 0
M  V30 16636 H 1565.24 3.91839 1.40896 0
M  V30 16637 H 1567.84 3.38546 4.13873 0
M  V30 16638 H 1568.18 1.70745 3.79673 0
M  V30 16639 H 1568.72 2.96383 2.65334 0
M  V30 16640 H 1565.45 5.96051 2.7277 0
M  V30 16641 H 1564.97 4.63288 3.80952 0
M  V30 16642 H 1566.65 5.22725 3.81271 0
M  V30 16643 N 1566.79 -0.886131 1.30328 0
M  V30 16644 C 1568.2 -1.45328 1.17203 0
M  V30 16645 C 1568.55 -1.94874 -0.227719 0
M  V30 16646 O 1567.67 -1.84901 -1.12431 0
M  V30 16647 C 1568.27 -2.64149 2.12157 0
M  V30 16648 C 1566.83 -3.16958 2.03014 0
M  V30 16649 C 1565.97 -1.89651 2.02306 0
M  V30 16650 H 1568.93 -0.696177 1.42615 0
M  V30 16651 H 1568.95 -3.40325 1.70173 0
M  V30 16652 H 1568.46 -2.28058 3.14024 0
M  V30 16653 H 1566.56 -3.57709 1.04285 0
M  V30 16654 H 1566.67 -3.80336 2.91344 0
M  V30 16655 H 1565.04 -2.07933 1.47091 0
M  V30 16656 H 1565.82 -1.5582 3.05901 0
M  V30 16657 N 1568.26 -1.13026 -1.09832 0
M  V30 16658 C 1569.49 -0.912803 -1.86233 0
M  V30 16659 C 1569.91 0.532955 -1.80392 0
M  V30 16660 O 1569.27 1.37783 -1.17837 0
M  V30 16661 C 1569.32 -1.40002 -3.32313 0
M  V30 16662 O 1568.42 -0.582537 -4.08265 0
M  V30 16663 H 1567.77 -0.327464 -0.577636 0
M  V30 16664 H 1570.3 -1.5039 -1.38723 0
M  V30 16665 H 1570.31 -1.40182 -3.83162 0
M  V30 16666 H 1568.98 -2.4527 -3.3588 0
M  V30 16667 H 1567.56 -0.648255 -3.67222 0
M  V30 16668 N 1569.74 1.27735 -0.923117 0
M  V30 16669 C 1571.02 1.89626 -0.479724 0
M  V30 16670 C 1571.4 1.83592 1.04197 0
M  V30 16671 O 1570.75 1.27808 1.89413 0
M  V30 16672 C 1570.96 3.33742 -1.02064 0
M  V30 16673 C 1572.31 4.10678 -1.07837 0
M  V30 16674 O 1573.33 3.4274 -0.969943 0
M  V30 16675 O 1572.19 5.32135 -1.24476 0
M  V30 16676 H 1569.28 0.812615 -0.153575 0
M  V30 16677 H 1571.83 1.36036 -1.01451 0
M  V30 16678 H 1570.6 3.32404 -2.06454 0
M  V30 16679 H 1570.22 3.94845 -0.467234 0
M  V30 16680 N 1571.22 0.688118 1.41784 0
M  V30 16681 C 1572.63 0.291625 1.84408 0
M  V30 16682 C 1572.98 -1.1688 1.57587 0
M  V30 16683 O 1572.11 -1.89634 1.04248 0
M  V30 16684 C 1572.7 0.522511 3.34747 0
M  V30 16685 C 1571.26 0.180008 3.75969 0
M  V30 16686 C 1570.41 0.808455 2.65253 0
M  V30 16687 H 1573.36 0.88932 1.31441 0
M  V30 16688 H 1573.38 -0.221167 3.79857 0
M  V30 16689 H 1572.89 1.5855 3.54236 0
M  V30 16690 H 1570.99 -0.879012 3.62083 0
M  V30 16691 H 1571.11 0.629826 4.74942 0
M  V30 16692 H 1569.47 0.238665 2.53579 0
M  V30 16693 H 1570.25 1.87516 2.87563 0
M  V30 16694 N 1572.7 -1.51554 0.432352 0
M  V30 16695 C 1573.95 -2.02044 -0.135779 0
M  V30 16696 C 1574.27 -1.31679 -1.43147 0
M  V30 16697 O 1573.53 -0.418849 -1.91165 0
M  V30 16698 C 1573.83 -3.55076 -0.406915 0
M  V30 16699 C 1573.49 -4.43704 0.802356 0
M  V30 16700 C 1572.16 -4.67647 1.134 0
M  V30 16701 C 1574.51 -4.95733 1.6093 0
M  V30 16702 C 1571.84 -5.40865 2.27335 0
M  V30 16703 C 1574.19 -5.702 2.73961 0
M  V30 16704 C 1572.85 -5.92408 3.07585 0
M  V30 16705 H 1572.12 -0.739332 -0.0496851 0
M  V30 16706 H 1574.77 -1.82552 0.578528 0
M  V30 16707 H 1573.07 -3.72872 -1.20306 0
M  V30 16708 H 1574.77 -3.91673 -0.859839 0
M  V30 16709 H 1571.36 -4.25261 0.533923 0
M  V30 16710 H 1575.54 -4.77123 1.3663 0
M  V30 16711 H 1570.8 -5.56276 2.53706 0
M  V30 16712 H 1574.97 -6.09506 3.36861 0
M  V30 16713 H 1572.6 -6.48923 3.95984 0
M  V30 16714 N 1574.18 -0.163538 -1.56749 0
M  V30 16715 C 1575.42 0.477648 -1.97712 0
M  V30 16716 C 1575.78 1.61382 -1.04755 0
M  V30 16717 O 1575.07 1.91408 -0.0857142 0
M  V30 16718 C 1575.26 1.0153 -3.42675 0
M  V30 16719 C 1575.09 -0.0672483 -4.4965 0
M  V30 16720 C 1573.86 -0.514285 -5.02676 0
M  V30 16721 C 1576.06 -0.864805 -5.06977 0
M  V30 16722 N 1574.04 -1.57795 -5.93274 0
M  V30 16723 C 1575.41 -1.77857 -5.93942 0
M  V30 16724 C 1577.47 -0.910753 -4.89499 0
M  V30 16725 C 1576.17 -2.73439 -6.653 0
M  V30 16726 C 1578.2 -1.85448 -5.61572 0
M  V30 16727 C 1577.56 -2.75574 -6.48258 0
M  V30 16728 H 1573.66 0.143112 -0.768793 0
M  V30 16729 H 1576.24 -0.26196 -1.9293 0
M  V30 16730 H 1574.41 1.72445 -3.48019 0
M  V30 16731 H 1576.15 1.62447 -3.70666 0
M  V30 16732 H 1572.9 -0.113438 -4.73464 0
M  V30 16733 H 1573.33 -2.11004 -6.43278 0
M  V30 16734 H 1577.97 -0.228009 -4.22185 0
M  V30 16735 H 1575.69 -3.42706 -7.31832 0
M  V30 16736 H 1579.27 -1.89604 -5.50038 0
M  V30 16737 H 1578.15 -3.47409 -7.03048 0
M  V30 16738 N 1575.65 1.57214 0.110213 0
M  V30 16739 C 1576.9 1.85586 0.817649 0
M  V30 16740 C 1577.23 0.750536 1.79111 0
M  V30 16741 O 1576.51 -0.242864 1.92978 0
M  V30 16742 C 1576.79 3.24565 1.55979 0
M  V30 16743 C 1576.64 4.45708 0.605339 0
M  V30 16744 C 1577.96 3.61233 2.51393 0
M  V30 16745 H 1575.08 0.675037 0.295794 0
M  V30 16746 H 1577.72 1.89824 0.0816541 0
M  V30 16747 H 1575.87 3.21083 2.18718 0
M  V30 16748 H 1577.55 4.61298 -0.0138894 0
M  V30 16749 H 1575.79 4.33722 -0.0824644 0
M  V30 16750 H 1576.46 5.39643 1.16143 0
M  V30 16751 H 1578.94 3.65563 1.98754 0
M  V30 16752 H 1577.81 4.59438 3.00346 0
M  V30 16753 H 1578.07 2.89116 3.34461 0
M  V30 16754 N 1577.13 -0.380637 1.52934 0
M  V30 16755 C 1578.54 -0.958182 1.60237 0
M  V30 16756 C 1578.89 -1.90722 0.460393 0
M  V30 16757 O 1578.02 -2.12376 -0.415354 0
M  V30 16758 C 1578.61 -1.7446 2.90429 0
M  V30 16759 C 1577.17 -2.27172 3.00116 0
M  V30 16760 C 1576.32 -1.07969 2.55417 0
M  V30 16761 H 1579.27 -0.159908 1.57892 0
M  V30 16762 H 1579.29 -2.60456 2.77385 0
M  V30 16763 H 1578.8 -1.05362 3.73524 0
M  V30 16764 H 1576.91 -2.99557 2.21577 0
M  V30 16765 H 1577.02 -2.56086 4.04916 0
M  V30 16766 H 1575.38 -1.4422 2.09935 0
M  V30 16767 H 1576.17 -0.403925 3.40915 0
M  V30 16768 N 1578.61 -1.44039 -0.639573 0
M  V30 16769 C 1579.84 -1.49844 -1.42669 0
M  V30 16770 C 1580.25 -0.120599 -1.88414 0
M  V30 16771 O 1579.61 0.871875 -1.60327 0
M  V30 16772 C 1579.66 -2.45597 -2.65263 0
M  V30 16773 O 1579.38 -3.78023 -2.21427 0
M  V30 16774 C 1580.88 -2.60781 -3.5848 0
M  V30 16775 H 1578.1 -0.508477 -0.437826 0
M  V30 16776 H 1580.65 -1.88919 -0.782923 0
M  V30 16777 H 1578.8 -2.09679 -3.2575 0
M  V30 16778 H 1579.22 -4.29642 -3.00846 0
M  V30 16779 H 1580.69 -3.31826 -4.4113 0
M  V30 16780 H 1581.17 -1.65727 -4.06732 0
M  V30 16781 H 1581.77 -2.97565 -3.03867 0
M  V30 16782 N 1580.09 0.879207 -1.30796 0
M  V30 16783 C 1581.32 1.66449 -1.22891 0
M  V30 16784 C 1581.73 1.87658 0.207306 0
M  V30 16785 O 1581.09 1.42818 1.13619 0
M  V30 16786 C 1581.14 3.03765 -1.95982 0
M  V30 16787 O 1580.86 2.8351 -3.33997 0
M  V30 16788 C 1582.36 3.98204 -1.94804 0
M  V30 16789 H 1579.58 0.51922 -0.425031 0
M  V30 16790 H 1582.13 1.09807 -1.72519 0
M  V30 16791 H 1580.28 3.57124 -1.50138 0
M  V30 16792 H 1580.69 3.70663 -3.71092 0
M  V30 16793 H 1582.17 4.91901 -2.50474 0
M  V30 16794 H 1582.65 4.29277 -0.928336 0
M  V30 16795 H 1583.25 3.50781 -2.40485 0
M  V30 16796 N 1581.57 1.13606 1.09231 0
M  V30 16797 C 1582.48 0.828702 2.19476 0
M  V30 16798 C 1583.49 -0.187499 1.72987 0
M  V30 16799 O 1584.67 -0.0180602 2.01392 0
M  V30 16800 C 1581.73 0.301361 3.45388 0
M  V30 16801 C 1580.8 1.37906 4.06547 0
M  V30 16802 C 1580.03 0.876786 5.26449 0
M  V30 16803 O 1580.25 -0.284896 5.69688 0
M  V30 16804 O 1579.19 1.652 5.78785 0
M  V30 16805 H 1583.01 1.74982 2.48223 0
M  V30 16806 H 1580.6 0.913673 1.18205 0
M  V30 16807 H 1582.48 0.0127792 4.21398 0
M  V30 16808 H 1581.15 -0.592149 3.18238 0
M  V30 16809 H 1580.06 1.72098 3.32164 0
M  V30 16810 H 1581.39 2.24678 4.37927 0
M  V30 16811 N 1583.05 -1.27244 0.929878 0
M  V30 16812 C 1583.96 -2.30506 0.436355 0
M  V30 16813 C 1584.97 -1.67131 -0.484054 0
M  V30 16814 O 1586.15 -1.9804 -0.366332 0
M  V30 16815 C 1583.21 -3.45391 -0.300942 0
M  V30 16816 C 1582.27 -4.24279 0.654647 0
M  V30 16817 C 1581.51 -5.33679 -0.047558 0
M  V30 16818 O 1581.73 -5.56161 -1.26654 0
M  V30 16819 O 1580.66 -5.98642 0.62538 0
M  V30 16820 H 1584.49 -2.74762 1.29382 0
M  V30 16821 H 1582.07 -1.32234 0.695311 0
M  V30 16822 H 1583.96 -4.1526 -0.716718 0
M  V30 16823 H 1582.63 -3.03187 -1.13398 0
M  V30 16824 H 1581.54 -3.56936 1.12015 0
M  V30 16825 H 1582.87 -4.70204 1.45497 0
M  V30 16826 N 1584.52 -0.695628 -1.41417 0
M  V30 16827 C 1585.43 -0.0308378 -2.3458 0
M  V30 16828 C 1586.45 0.766 -1.56232 0
M  V30 16829 O 1587.63 0.703548 -1.88712 0
M  V30 16830 C 1584.69 0.894162 -3.34971 0
M  V30 16831 C 1583.75 0.0895231 -4.29207 0
M  V30 16832 C 1582.98 0.970467 -5.24802 0
M  V30 16833 O 1583.21 2.20997 -5.25848 0
M  V30 16834 O 1582.14 0.420114 -6.00432 0
M  V30 16835 H 1585.97 -0.798775 -2.93007 0
M  V30 16836 H 1583.55 -0.455964 -1.42272 0
M  V30 16837 H 1585.43 1.42458 -3.9659 0
M  V30 16838 H 1584.11 1.64159 -2.78987 0
M  V30 16839 H 1583.02 -0.4855 -3.70936 0
M  V30 16840 H 1584.35 -0.619241 -4.88289 0
M  V30 16841 N 1586 1.51322 -0.440383 0
M  V30 16842 C 1587.23 2.06231 0.12347 0
M  V30 16843 C 1587.64 1.30754 1.36748 0
M  V30 16844 O 1586.98 0.36135 1.80111 0
M  V30 16845 C 1587.04 3.55892 0.508059 0
M  V30 16846 C 1586.71 4.52643 -0.629572 0
M  V30 16847 C 1587.71 4.97712 -1.50261 0
M  V30 16848 C 1585.39 4.95707 -0.81117 0
M  V30 16849 C 1587.38 5.84522 -2.54191 0
M  V30 16850 C 1585.07 5.82305 -1.85374 0
M  V30 16851 C 1586.07 6.26611 -2.7175 0
M  V30 16852 O 1585.76 7.11489 -3.74217 0
M  V30 16853 H 1585.49 0.675926 0.0100034 0
M  V30 16854 H 1588.04 1.95846 -0.619156 0
M  V30 16855 H 1586.27 3.64071 1.30343 0
M  V30 16856 H 1587.96 3.93302 1.00342 0
M  V30 16857 H 1588.73 4.65135 -1.37386 0
M  V30 16858 H 1584.61 4.60761 -0.148423 0
M  V30 16859 H 1588.15 6.19025 -3.21643 0
M  V30 16860 H 1584.05 6.14296 -1.98268 0
M  V30 16861 H 1584.82 7.29674 -3.70834 0
M  V30 16862 N 1587.48 0.171848 1.5666 0
M  V30 16863 C 1588.41 -0.753861 2.20996 0
M  V30 16864 C 1589.39 -1.23873 1.16574 0
M  V30 16865 O 1590.58 -1.29179 1.45005 0
M  V30 16866 C 1587.71 -1.98314 2.85112 0
M  V30 16867 C 1586.66 -1.6341 3.95577 0
M  V30 16868 C 1585.99 -2.93807 4.46745 0
M  V30 16869 C 1587.29 -0.861713 5.15142 0
M  V30 16870 H 1588.98 -0.217598 2.98608 0
M  V30 16871 H 1586.53 -0.10322 1.4363 0
M  V30 16872 H 1588.48 -2.63576 3.28794 0
M  V30 16873 H 1587.2 -2.54354 2.04869 0
M  V30 16874 H 1585.86 -1.00516 3.52551 0
M  V30 16875 H 1585.51 -3.47889 3.63293 0
M  V30 16876 H 1585.21 -2.71207 5.21268 0
M  V30 16877 H 1586.73 -3.60098 4.93114 0
M  V30 16878 H 1588.15 -1.41693 5.55514 0
M  V30 16879 H 1586.54 -0.734727 5.95585 0
M  V30 16880 H 1587.61 0.141851 4.84692 0
M  V30 16881 N 1588.96 -1.5727 -0.101874 0
M  V30 16882 C 1589.91 -1.98011 -1.13029 0
M  V30 16883 C 1590.89 -0.857554 -1.36143 0
M  V30 16884 O 1592.08 -1.12135 -1.36948 0
M  V30 16885 C 1589.21 -2.4024 -2.45234 0
M  V30 16886 C 1588.3 -3.59166 -2.25522 0
M  V30 16887 N 1588.69 -4.74317 -1.75662 0
M  V30 16888 C 1586.99 -3.65132 -2.56115 0
M  V30 16889 C 1587.69 -5.56286 -1.70061 0
M  V30 16890 N 1586.66 -4.99262 -2.15031 0
M  V30 16891 H 1590.47 -2.84493 -0.737611 0
M  V30 16892 H 1587.98 -1.59426 -0.309395 0
M  V30 16893 H 1589.98 -2.67652 -3.19637 0
M  V30 16894 H 1588.64 -1.55131 -2.85245 0
M  V30 16895 H 1589.65 -4.972 -1.44958 0
M  V30 16896 H 1586.33 -2.9067 -2.99696 0
M  V30 16897 H 1587.72 -6.58682 -1.3262 0
M  V30 16898 N 1590.44 0.372521 -1.53134 0
M  V30 16899 C 1591.68 1.11589 -1.6898 0
M  V30 16900 C 1592.01 1.89503 -0.438049 0
M  V30 16901 O 1591.27 1.86911 0.579891 0
M  V30 16902 C 1591.56 2.10742 -2.88656 0
M  V30 16903 C 1591.23 1.49361 -4.25443 0
M  V30 16904 C 1589.89 1.32348 -4.62642 0
M  V30 16905 C 1592.24 1.04889 -5.10537 0
M  V30 16906 C 1589.57 0.694368 -5.82577 0
M  V30 16907 C 1591.92 0.433809 -6.31111 0
M  V30 16908 C 1590.59 0.251118 -6.67027 0
M  V30 16909 H 1589.86 0.408333 -0.618341 0
M  V30 16910 H 1592.51 0.398507 -1.87308 0
M  V30 16911 H 1590.81 2.88759 -2.64812 0
M  V30 16912 H 1592.51 2.682 -2.98111 0
M  V30 16913 H 1589.1 1.63594 -3.9615 0
M  V30 16914 H 1593.28 1.16829 -4.82353 0
M  V30 16915 H 1588.54 0.541171 -6.09 0
M  V30 16916 H 1592.71 0.0809859 -6.96353 0
M  V30 16917 H 1590.34 -0.23844 -7.59826 0
M  V30 16918 N 1591.91 1.44376 0.631925 0
M  V30 16919 C 1593.16 1.46827 1.38875 0
M  V30 16920 C 1593.48 0.101789 1.94734 0
M  V30 16921 O 1592.75 -0.86579 1.7573 0
M  V30 16922 H 1591.33 0.540642 0.515475 0
M  V30 16923 H 1593.99 1.80148 0.743822 0
M  V30 16924 H 1593.09 2.19321 2.22047 0
M  V30 16925 N 1593.39 -0.872258 1.31261 0
M  V30 16926 C 1594.3 -2.01185 1.20673 0
M  V30 16927 C 1595.32 -1.73558 0.123921 0
M  V30 16928 O 1596.49 -1.98487 0.341288 0
M  V30 16929 C 1593.56 -3.34481 0.91232 0
M  V30 16930 C 1592.62 -3.75446 2.08179 0
M  V30 16931 C 1591.85 -5.02382 1.80134 0
M  V30 16932 O 1592.08 -5.6564 0.735358 0
M  V30 16933 O 1591.01 -5.40059 2.65744 0
M  V30 16934 H 1594.84 -2.13049 2.16434 0
M  V30 16935 H 1592.42 -1.00021 1.10978 0
M  V30 16936 H 1594.3 -4.14419 0.763879 0
M  V30 16937 H 1592.98 -3.23696 -0.0152802 0
M  V30 16938 H 1591.88 -2.96159 2.28562 0
M  V30 16939 H 1593.22 -3.90853 2.99156 0
M  V30 16940 N 1594.87 -1.14184 -1.08627 0
M  V30 16941 C 1595.82 -0.826718 -2.15486 0
M  V30 16942 C 1596.79 0.214769 -1.64706 0
M  V30 16943 O 1597.97 0.0851909 -1.9061 0
M  V30 16944 C 1595.11 -0.307888 -3.43724 0
M  V30 16945 C 1594.22 -1.40941 -4.08362 0
M  V30 16946 C 1593.36 -0.848059 -5.24387 0
M  V30 16947 C 1592.4 -1.92741 -5.80962 0
M  V30 16948 N 1591.54 -1.3834 -6.88336 0
M  V30 16949 H 1596.38 -1.74198 -2.41783 0
M  V30 16950 H 1593.91 -0.869406 -1.18658 0
M  V30 16951 H 1595.87 0.0111149 -4.17199 0
M  V30 16952 H 1594.5 0.570488 -3.17719 0
M  V30 16953 H 1593.55 -1.84485 -3.3267 0
M  V30 16954 H 1594.86 -2.22485 -4.46433 0
M  V30 16955 H 1594.02 -0.480826 -6.04792 0
M  V30 16956 H 1592.76 -0.00163783 -4.877 0
M  V30 16957 H 1591.76 -2.30362 -4.99213 0
M  V30 16958 H 1592.99 -2.77738 -6.19708 0
M  V30 16959 H 1590.93 -0.559124 -6.53613 0
M  V30 16960 H 1590.85 -2.13524 -7.2522 0
M  V30 16961 H 1592.12 -1.044 -7.72477 0
M  V30 16962 N 1596.35 1.26749 -0.936613 0
M  V30 16963 C 1597.31 2.24794 -0.447243 0
M  V30 16964 C 1598.31 1.54688 0.439135 0
M  V30 16965 O 1599.5 1.72553 0.238957 0
M  V30 16966 C 1596.63 3.39036 0.355958 0
M  V30 16967 H 1597.83 2.696 -1.31361 0
M  V30 16968 H 1595.38 1.38825 -0.718143 0
M  V30 16969 H 1596.11 2.99625 1.24077 0
M  V30 16970 H 1595.9 3.91101 -0.279691 0
M  V30 16971 H 1597.39 4.11887 0.688421 0
M  V30 16972 N 1597.83 0.703118 1.41046 0
M  V30 16973 C 1599.1 0.164985 1.94903 0
M  V30 16974 C 1599.48 -1.32665 1.64205 0
M  V30 16975 O 1598.83 -2.07675 0.953058 0
M  V30 16976 C 1599.04 0.464354 3.45897 0
M  V30 16977 C 1600.39 0.396205 4.22747 0
M  V30 16978 O 1601.41 0.399698 3.5395 0
M  V30 16979 O 1600.27 0.362874 5.45294 0
M  V30 16980 H 1597.37 0.0193901 0.826773 0
M  V30 16981 H 1599.91 0.779796 1.50722 0
M  V30 16982 H 1598.68 1.49653 3.61552 0
M  V30 16983 H 1598.31 -0.18105 3.97188 0
M  V30 16984 N 1599.3 -1.51086 0.448402 0
M  V30 16985 C 1600.53 -2.07081 -0.115038 0
M  V30 16986 C 1600.95 -1.31253 -1.34737 0
M  V30 16987 O 1600.31 -0.353613 -1.77818 0
M  V30 16988 C 1600.36 -3.58321 -0.404803 0
M  V30 16989 O 1599.46 -3.84567 -1.48936 0
M  V30 16990 H 1598.81 -0.663993 0.00299118 0
M  V30 16991 H 1601.34 -1.94564 0.632921 0
M  V30 16992 H 1601.35 -4.02756 -0.652013 0
M  V30 16993 H 1600.02 -4.12934 0.495838 0
M  V30 16994 H 1598.6 -3.51987 -1.23124 0
M  V30 16995 N 1600.78 -0.180154 -1.56567 0
M  V30 16996 C 1601.69 0.758959 -2.21984 0
M  V30 16997 C 1602.71 1.24631 -1.21422 0
M  V30 16998 O 1603.88 1.29659 -1.54112 0
M  V30 16999 C 1600.95 1.96744 -2.85469 0
M  V30 17000 C 1600.01 1.52612 -4.01258 0
M  V30 17001 C 1599.24 2.677 -4.61706 0
M  V30 17002 O 1599.47 3.84799 -4.21054 0
M  V30 17003 O 1598.4 2.41269 -5.51428 0
M  V30 17004 H 1602.23 0.231919 -3.02813 0
M  V30 17005 H 1599.81 0.0484552 -1.49321 0
M  V30 17006 H 1601.69 2.67404 -3.25689 0
M  V30 17007 H 1600.37 2.48337 -2.0763 0
M  V30 17008 H 1599.28 0.78877 -3.6569 0
M  V30 17009 H 1600.61 1.05701 -4.80716 0
M  V30 17010 N 1602.26 1.57322 0.0935319 0
M  V30 17011 C 1603.21 2.03184 1.13222 0
M  V30 17012 C 1604.2 0.933184 1.41379 0
M  V30 17013 O 1605.41 1.11836 1.41042 0
M  V30 17014 H 1601.78 0.647541 0.382354 0
M  V30 17015 H 1603.75 2.89606 0.719105 0
M  V30 17016 C 1602.5 2.47336 2.44378 0
M  V30 17017 H 1601.83 3.31456 2.23556 0
M  V30 17018 H 1603.27 2.83199 3.15554 0
M  V30 17019 C 1601.73 1.34728 3.08788 0
M  V30 17020 O 1602.26 0.677285 3.95949 0
M  V30 17021 N 1600.46 1.09787 2.69063 0
M  V30 17022 H 1600.01 1.64451 1.98277 0
M  V30 17023 H 1599.97 0.346436 3.12485 0
M  V30 17024 N 1603.74 -0.364395 1.53329 0
M  V30 17025 C 1604.67 -1.46658 1.76137 0
M  V30 17026 C 1605.68 -1.496 0.642166 0
M  V30 17027 O 1606.87 -1.53058 0.918452 0
M  V30 17028 C 1603.97 -2.85417 1.8273 0
M  V30 17029 C 1603.15 -3.06158 3.12388 0
M  V30 17030 C 1602.2 -4.25038 3.10208 0
M  V30 17031 O 1601.23 -4.20156 3.84002 0
M  V30 17032 N 1602.43 -5.32511 2.31111 0
M  V30 17033 H 1605.2 -1.27471 2.7124 0
M  V30 17034 H 1602.76 -0.554127 1.52122 0
M  V30 17035 H 1604.75 -3.63086 1.78748 0
M  V30 17036 H 1603.32 -2.97845 0.949058 0
M  V30 17037 H 1602.54 -2.16139 3.29663 0
M  V30 17038 H 1603.83 -3.16885 3.98072 0
M  V30 17039 H 1603.23 -5.39341 1.70669 0
M  V30 17040 H 1601.78 -6.08752 2.32946 0
M  V30 17041 N 1605.22 -1.44709 -0.62426 0
M  V30 17042 C 1606.18 -1.51738 -1.7178 0
M  V30 17043 C 1607.18 -0.398646 -1.5578 0
M  V30 17044 O 1608.37 -0.661525 -1.61151 0
M  V30 17045 C 1605.5 -1.39792 -3.1092 0
M  V30 17046 H 1606.69 -2.49154 -1.6692 0
M  V30 17047 H 1604.25 -1.31903 -0.838531 0
M  V30 17048 H 1604.98 -0.434955 -3.2137 0
M  V30 17049 H 1604.77 -2.20919 -3.2394 0
M  V30 17050 H 1606.26 -1.47706 -3.90606 0
M  V30 17051 N 1606.69 0.865285 -1.31722 0
M  V30 17052 C 1608.11 1.15179 -1.10481 0
M  V30 17053 C 1608.31 2.01132 0.121667 0
M  V30 17054 O 1607.37 2.39167 0.809645 0
M  V30 17055 C 1608.68 1.8394 -2.3788 0
M  V30 17056 C 1610.23 1.96621 -2.43535 0
M  V30 17057 C 1610.7 2.68796 -3.70827 0
M  V30 17058 N 1612.19 2.76329 -3.71748 0
M  V30 17059 C 1612.93 3.32798 -4.6694 0
M  V30 17060 N 1612.42 3.90162 -5.7249 0
M  V30 17061 N 1614.22 3.30801 -4.54453 0
M  V30 17062 H 1606.37 0.292632 -2.10374 0
M  V30 17063 H 1608.63 0.192252 -0.928301 0
M  V30 17064 H 1608.34 1.28233 -3.27489 0
M  V30 17065 H 1608.21 2.84182 -2.48034 0
M  V30 17066 H 1610.6 2.5149 -1.54392 0
M  V30 17067 H 1610.68 0.954071 -2.37342 0
M  V30 17068 H 1610.32 2.14593 -4.60339 0
M  V30 17069 H 1610.25 3.70427 -3.74288 0
M  V30 17070 H 1612.74 2.35621 -2.95451 0
M  V30 17071 H 1613.06 4.31376 -6.41198 0
M  V30 17072 H 1611.4 3.88525 -5.76258 0
M  V30 17073 H 1614.59 2.85227 -3.71165 0
M  V30 17074 H 1614.77 3.74511 -5.28815 0
M  V30 17075 N 1608.17 1.14759 1.0802 0
M  V30 17076 C 1609.12 0.838134 2.15044 0
M  V30 17077 C 1610.09 -0.206031 1.64817 0
M  V30 17078 O 1611.27 -0.0750812 1.90652 0
M  V30 17079 C 1608.41 0.326112 3.43556 0
M  V30 17080 C 1607.53 1.43104 4.07609 0
M  V30 17081 C 1606.66 0.875857 5.2393 0
M  V30 17082 C 1605.7 1.9582 5.79932 0
M  V30 17083 N 1604.84 1.41989 6.87593 0
M  V30 17084 H 1609.68 1.75478 2.40856 0
M  V30 17085 H 1607.22 0.875686 1.18195 0
M  V30 17086 H 1609.17 0.0110103 4.17199 0
M  V30 17087 H 1607.8 -0.55363 3.18017 0
M  V30 17088 H 1606.86 1.86247 3.31687 0
M  V30 17089 H 1608.17 2.24849 4.45246 0
M  V30 17090 H 1607.32 0.512893 6.04528 0
M  V30 17091 H 1606.06 0.0275017 4.87692 0
M  V30 17092 H 1605.07 2.33006 4.97984 0
M  V30 17093 H 1606.29 2.81021 6.18227 0
M  V30 17094 H 1604.24 0.593779 6.53307 0
M  V30 17095 H 1604.15 2.17367 7.24077 0
M  V30 17096 H 1605.42 1.08495 7.71913 0
M  V30 17097 N 1609.65 -1.26251 0.943322 0
M  V30 17098 C 1610.88 -1.97452 0.607969 0
M  V30 17099 C 1611.29 -1.70422 -0.82177 0
M  V30 17100 O 1610.63 -0.970323 -1.55982 0
M  V30 17101 C 1610.69 -3.51092 0.772938 0
M  V30 17102 C 1610.36 -4.01777 2.17771 0
M  V30 17103 C 1611.35 -4.1335 3.15338 0
M  V30 17104 C 1609.04 -4.35732 2.49886 0
M  V30 17105 C 1611.03 -4.58175 4.43119 0
M  V30 17106 C 1608.72 -4.80245 3.779 0
M  V30 17107 C 1609.72 -4.91427 4.74329 0
M  V30 17108 O 1609.41 -5.34958 6.00063 0
M  V30 17109 H 1609.14 -0.636465 0.227791 0
M  V30 17110 H 1611.69 -1.61671 1.26695 0
M  V30 17111 H 1609.92 -3.86658 0.0568252 0
M  V30 17112 H 1611.61 -4.03505 0.440326 0
M  V30 17113 H 1612.38 -3.87361 2.91851 0
M  V30 17114 H 1608.26 -4.26261 1.75563 0
M  V30 17115 H 1611.8 -4.66818 5.18389 0
M  V30 17116 H 1607.7 -5.05678 4.01198 0
M  V30 17117 H 1608.47 -5.53173 6.03276 0
M  V30 17118 N 1611.13 -0.710588 -1.40671 0
M  V30 17119 C 1612.06 -0.00399749 -2.282 0
M  V30 17120 C 1613.04 0.772757 -1.43064 0
M  V30 17121 O 1614.22 0.760441 -1.72481 0
M  V30 17122 C 1611.35 1.00173 -3.23548 0
M  V30 17123 C 1610.4 0.316378 -4.25325 0
M  V30 17124 S 1611.23 -0.952126 -5.26968 0
M  V30 17125 C 1612.39 0.0516252 -6.25879 0
M  V30 17126 H 1612.62 -0.746334 -2.8778 0
M  V30 17127 H 1610.15 -0.50142 -1.46031 0
M  V30 17128 H 1612.11 1.57679 -3.79009 0
M  V30 17129 H 1610.77 1.71674 -2.63034 0
M  V30 17130 H 1609.96 1.07649 -4.92369 0
M  V30 17131 H 1609.57 -0.185995 -3.73537 0
M  V30 17132 H 1611.86 0.900088 -6.71494 0
M  V30 17133 H 1612.8 -0.585297 -7.05677 0
M  V30 17134 H 1613.21 0.413117 -5.62986 0
M  V30 17135 N 1612.61 1.50847 -0.456408 0
M  V30 17136 C 1613.56 2.29805 0.359529 0
M  V30 17137 C 1614.55 1.3646 1.00374 0
M  V30 17138 O 1615.76 1.53718 0.936524 0
M  V30 17139 H 1612.13 0.739825 0.134772 0
M  V30 17140 H 1614.1 2.96603 -0.327009 0
M  V30 17141 C 1612.85 3.16597 1.43741 0
M  V30 17142 H 1612.17 3.88323 0.95108 0
M  V30 17143 H 1613.61 3.74866 1.98119 0
M  V30 17144 C 1612.07 2.3322 2.43126 0
M  V30 17145 O 1612.6 2.00504 3.48082 0
M  V30 17146 N 1610.81 1.96078 2.1448 0
M  V30 17147 H 1610.36 2.22883 1.29155 0
M  V30 17148 H 1610.31 1.40592 2.81214 0
M  V30 17149 N 1614.09 0.188454 1.56469 0
M  V30 17150 C 1615.05 -0.721282 2.17555 0
M  V30 17151 C 1616.05 -1.14579 1.1282 0
M  V30 17152 O 1617.24 -1.05996 1.38241 0
M  V30 17153 C 1614.37 -1.9839 2.77226 0
M  V30 17154 H 1615.56 -0.189218 2.99302 0
M  V30 17155 H 1613.12 -0.0611533 1.5618 0
M  V30 17156 H 1613.85 -2.55864 1.99259 0
M  V30 17157 H 1613.64 -1.68831 3.53891 0
M  V30 17158 H 1615.13 -2.63277 3.24153 0
M  V30 17159 N 1615.56 -1.5737 -0.0851874 0
M  V30 17160 C 1616.81 -1.86864 -0.78802 0
M  V30 17161 C 1617.14 -0.778936 -1.77894 0
M  V30 17162 O 1616.42 0.212132 -1.9334 0
M  V30 17163 C 1616.7 -3.27006 -1.50795 0
M  V30 17164 C 1616.55 -4.46615 -0.534354 0
M  V30 17165 C 1617.87 -3.65187 -2.45614 0
M  V30 17166 H 1614.99 -0.679657 -0.285017 0
M  V30 17167 H 1617.63 -1.8993 -0.0514443 0
M  V30 17168 H 1615.78 -3.24522 -2.13583 0
M  V30 17169 H 1617.46 -4.61217 0.0872761 0
M  V30 17170 H 1615.7 -4.33536 0.151455 0
M  V30 17171 H 1616.37 -5.41423 -1.07544 0
M  V30 17172 H 1618.85 -3.68678 -1.92913 0
M  V30 17173 H 1617.72 -4.64158 -2.92999 0
M  V30 17174 H 1617.98 -2.944 -3.2982 0
M  V30 17175 N 1617.04 0.356258 -1.53521 0
M  V30 17176 C 1618.46 0.698546 -1.43501 0
M  V30 17177 C 1618.66 1.92926 -0.581547 0
M  V30 17178 O 1617.71 2.5241 -0.0675947 0
M  V30 17179 C 1619.03 0.903047 -2.8682 0
M  V30 17180 C 1620.57 1.00247 -2.96512 0
M  V30 17181 C 1621.05 1.23938 -4.40912 0
M  V30 17182 N 1622.54 1.30687 -4.44382 0
M  V30 17183 C 1623.28 1.50745 -5.5323 0
M  V30 17184 N 1622.77 1.68058 -6.72107 0
M  V30 17185 N 1624.56 1.5319 -5.40823 0
M  V30 17186 H 1616.72 -0.453102 -2.07511 0
M  V30 17187 H 1618.98 -0.140708 -0.937499 0
M  V30 17188 H 1618.68 0.070416 -3.5163 0
M  V30 17189 H 1618.56 1.80847 -3.3102 0
M  V30 17190 H 1620.95 1.82564 -2.3185 0
M  V30 17191 H 1621.03 0.0742303 -2.55692 0
M  V30 17192 H 1620.67 0.421189 -5.06151 0
M  V30 17193 H 1620.6 2.18098 -4.79313 0
M  V30 17194 H 1623.09 1.18883 -3.58713 0
M  V30 17195 H 1623.4 1.82963 -7.50829 0
M  V30 17196 H 1621.75 1.65219 -6.75076 0
M  V30 17197 H 1624.94 1.39237 -4.46912 0
M  V30 17198 H 1625.11 1.6848 -6.25714 0
M  V30 17199 N 1618.52 1.45038 0.616577 0
M  V30 17200 C 1619.47 1.53022 1.7278 0
M  V30 17201 C 1620.44 0.376778 1.6177 0
M  V30 17202 O 1621.62 0.589006 1.81481 0
M  V30 17203 C 1618.76 1.49432 3.11069 0
M  V30 17204 C 1617.87 2.7526 3.3295 0
M  V30 17205 C 1617.01 2.63403 4.61294 0
M  V30 17206 C 1616.05 3.84327 4.76402 0
M  V30 17207 N 1615.19 3.71058 5.96037 0
M  V30 17208 H 1620.03 2.47957 1.65292 0
M  V30 17209 H 1617.56 1.23046 0.806102 0
M  V30 17210 H 1619.52 1.45339 3.91066 0
M  V30 17211 H 1618.15 0.580542 3.17537 0
M  V30 17212 H 1617.2 2.89479 2.46792 0
M  V30 17213 H 1618.51 3.64978 3.39989 0
M  V30 17214 H 1617.67 2.57226 5.49472 0
M  V30 17215 H 1616.41 1.7127 4.56638 0
M  V30 17216 H 1615.41 3.90873 3.8665 0
M  V30 17217 H 1616.64 4.77515 4.82863 0
M  V30 17218 H 1614.58 2.81687 5.92443 0
M  V30 17219 H 1614.5 4.54403 6.04197 0
M  V30 17220 H 1615.77 3.68798 6.86738 0
M  V30 17221 N 1620 -0.858287 1.32179 0
M  V30 17222 C 1621.41 -1.14591 1.1109 0
M  V30 17223 C 1621.61 -2.01194 -0.110998 0
M  V30 17224 O 1620.67 -2.39593 -0.79695 0
M  V30 17225 C 1621.98 -1.82675 2.38852 0
M  V30 17226 C 1623.53 -1.95326 2.44574 0
M  V30 17227 C 1624.01 -2.66826 3.72247 0
M  V30 17228 N 1625.5 -2.74353 3.73208 0
M  V30 17229 C 1626.23 -3.30317 4.68698 0
M  V30 17230 N 1625.73 -3.87121 5.74552 0
M  V30 17231 N 1627.52 -3.28386 4.562 0
M  V30 17232 H 1619.67 -0.281471 2.10527 0
M  V30 17233 H 1621.93 -0.187326 0.929308 0
M  V30 17234 H 1621.64 -1.26495 3.28165 0
M  V30 17235 H 1621.51 -2.82862 2.49537 0
M  V30 17236 H 1623.9 -2.50668 1.55723 0
M  V30 17237 H 1623.98 -0.94147 2.37844 0
M  V30 17238 H 1623.63 -2.12149 4.61471 0
M  V30 17239 H 1623.56 -3.68437 3.76247 0
M  V30 17240 H 1626.05 -2.34051 2.96696 0
M  V30 17241 H 1626.36 -4.2797 6.43476 0
M  V30 17242 H 1624.71 -3.85463 5.78311 0
M  V30 17243 H 1627.9 -2.83254 3.72672 0
M  V30 17244 H 1628.07 -3.71701 5.30794 0
M  V30 17245 N 1621.48 -1.1533 -1.07409 0
M  V30 17246 C 1622.42 -0.849527 -2.14597 0
M  V30 17247 C 1623.39 0.197288 -1.64924 0
M  V30 17248 O 1624.58 0.0649694 -1.90689 0
M  V30 17249 C 1621.72 -0.344327 -3.43378 0
M  V30 17250 C 1620.83 -1.45264 -4.06844 0
M  V30 17251 C 1619.97 -0.90363 -5.23458 0
M  V30 17252 C 1619 -1.98892 -5.78885 0
M  V30 17253 N 1618.14 -1.45633 -6.8683 0
M  V30 17254 H 1622.98 -1.76753 -2.39922 0
M  V30 17255 H 1620.52 -0.881942 -1.17729 0
M  V30 17256 H 1622.48 -0.0331352 -4.17187 0
M  V30 17257 H 1621.11 0.536757 -3.18306 0
M  V30 17258 H 1620.16 -1.88003 -3.30695 0
M  V30 17259 H 1621.47 -2.27207 -4.44048 0
M  V30 17260 H 1620.62 -0.544945 -6.04248 0
M  V30 17261 H 1619.36 -0.0533648 -4.87671 0
M  V30 17262 H 1618.37 -2.35644 -4.96741 0
M  V30 17263 H 1619.59 -2.84295 -6.16728 0
M  V30 17264 H 1617.54 -0.628417 -6.52983 0
M  V30 17265 H 1617.46 -2.21204 -7.22914 0
M  V30 17266 H 1618.72 -1.12587 -7.71326 0
M  V30 17267 N 1622.95 1.25748 -0.950004 0
M  V30 17268 C 1624.2 1.92954 -0.601104 0
M  V30 17269 C 1624.52 1.74817 0.863953 0
M  V30 17270 O 1623.79 1.10904 1.61484 0
M  V30 17271 H 1622.37 0.714077 -0.219325 0
M  V30 17272 H 1625.03 1.53009 -1.20724 0
M  V30 17273 H 1624.13 3.00959 -0.826447 0
M  V30 17274 N 1624.43 0.718038 1.40292 0
M  V30 17275 C 1625.36 0.0818367 2.33357 0
M  V30 17276 C 1626.34 -0.742854 1.53022 0
M  V30 17277 O 1627.53 -0.691281 1.8148 0
M  V30 17278 C 1624.66 -0.838843 3.37017 0
M  V30 17279 C 1623.61 -0.119589 4.27833 0
M  V30 17280 C 1622.94 -1.15615 5.22051 0
M  V30 17281 C 1624.24 1.02769 5.1209 0
M  V30 17282 H 1625.93 0.859167 2.86808 0
M  V30 17283 H 1623.48 0.414606 1.37902 0
M  V30 17284 H 1625.43 -1.29332 4.01063 0
M  V30 17285 H 1624.15 -1.6481 2.81967 0
M  V30 17286 H 1622.81 0.315088 3.65243 0
M  V30 17287 H 1622.46 -1.95852 4.63304 0
M  V30 17288 H 1622.16 -0.679767 5.83655 0
M  V30 17289 H 1623.69 -1.61068 5.88973 0
M  V30 17290 H 1625.1 0.652461 5.69575 0
M  V30 17291 H 1623.5 1.4326 5.82749 0
M  V30 17292 H 1624.57 1.85723 4.47923 0
M  V30 17293 N 1625.91 -1.50602 0.464402 0
M  V30 17294 C 1627.14 -2.06401 -0.0906449 0
M  V30 17295 C 1627.55 -1.32913 -1.3465 0
M  V30 17296 O 1626.89 -0.389959 -1.79513 0
M  V30 17297 C 1626.95 -3.56655 -0.451375 0
M  V30 17298 C 1626.62 -4.51584 0.701504 0
M  V30 17299 C 1627.61 -4.95259 1.5816 0
M  V30 17300 C 1625.3 -4.94354 0.88993 0
M  V30 17301 C 1627.29 -5.80404 2.63458 0
M  V30 17302 C 1624.98 -5.79283 1.94615 0
M  V30 17303 C 1625.98 -6.22208 2.81684 0
M  V30 17304 O 1625.67 -7.05446 3.85489 0
M  V30 17305 H 1625.4 -0.676 0.000751268 0
M  V30 17306 H 1627.95 -1.94836 0.650235 0
M  V30 17307 H 1626.18 -3.66098 -1.24535 0
M  V30 17308 H 1627.87 -3.94848 -0.940722 0
M  V30 17309 H 1628.64 -4.6289 1.44768 0
M  V30 17310 H 1624.52 -4.60467 0.221708 0
M  V30 17311 H 1628.06 -6.13829 3.3145 0
M  V30 17312 H 1623.96 -6.11064 2.08016 0
M  V30 17313 H 1624.73 -7.23682 3.82396 0
M  V30 17314 N 1627.39 -0.19675 -1.56367 0
M  V30 17315 C 1628.63 0.442238 -1.97919 0
M  V30 17316 C 1628.97 1.61156 -1.08362 0
M  V30 17317 O 1628.24 1.94024 -0.135969 0
M  V30 17318 C 1628.53 0.90078 -3.48652 0
M  V30 17319 C 1628.38 -0.270471 -4.48986 0
M  V30 17320 C 1629.7 1.7657 -4.03126 0
M  V30 17321 H 1626.82 0.159276 -0.719583 0
M  V30 17322 H 1629.46 -0.288004 -1.87805 0
M  V30 17323 H 1627.61 1.52302 -3.57402 0
M  V30 17324 H 1629.28 -0.908176 -4.52272 0
M  V30 17325 H 1627.52 -0.921973 -4.23889 0
M  V30 17326 H 1628.19 0.0929101 -5.51922 0
M  V30 17327 H 1630.67 1.24091 -3.97166 0
M  V30 17328 H 1629.55 2.0555 -5.0896 0
M  V30 17329 H 1629.81 2.72047 -3.48486 0
M  V30 17330 N 1628.87 1.57413 0.0768405 0
M  V30 17331 C 1629.78 2.06688 1.10983 0
M  V30 17332 C 1630.79 0.995392 1.42716 0
M  V30 17333 O 1631.97 1.30977 1.52994 0
M  V30 17334 C 1629.03 2.49676 2.40546 0
M  V30 17335 C 1628.09 3.71101 2.1583 0
M  V30 17336 C 1627.33 4.1203 3.39216 0
M  V30 17337 O 1627.55 3.52877 4.48145 0
M  V30 17338 O 1626.48 5.04856 3.27726 0
M  V30 17339 H 1630.31 2.95012 0.721242 0
M  V30 17340 H 1627.9 1.46546 0.290624 0
M  V30 17341 H 1629.78 2.77871 3.16805 0
M  V30 17342 H 1628.45 1.64484 2.78795 0
M  V30 17343 H 1627.36 3.47996 1.37293 0
M  V30 17344 H 1628.69 4.5713 1.82465 0
M  V30 17345 N 1630.34 -0.348112 1.53707 0
M  V30 17346 C 1631.25 -1.45079 1.84361 0
M  V30 17347 C 1632.27 -1.5779 0.733375 0
M  V30 17348 O 1633.45 -1.73353 1.02522 0
M  V30 17349 C 1630.51 -2.80127 2.04278 0
M  V30 17350 C 1629.57 -2.76799 3.28148 0
M  V30 17351 C 1628.81 -4.05406 3.47105 0
M  V30 17352 O 1629.03 -5.02454 2.69992 0
M  V30 17353 O 1627.96 -4.10155 4.40519 0
M  V30 17354 H 1631.79 -1.22093 2.78077 0
M  V30 17355 H 1629.37 -0.539863 1.39305 0
M  V30 17356 H 1631.26 -3.60115 2.18849 0
M  V30 17357 H 1629.93 -3.03055 1.13751 0
M  V30 17358 H 1628.84 -1.95448 3.18984 0
M  V30 17359 H 1630.17 -2.58826 4.18653 0
M  V30 17360 N 1631.82 -1.45363 -0.608876 0
M  V30 17361 C 1632.77 -1.53936 -1.71966 0
M  V30 17362 C 1633.74 -0.385352 -1.61568 0
M  V30 17363 O 1634.92 -0.598622 -1.81166 0
M  V30 17364 C 1632.06 -1.51079 -3.10272 0
M  V30 17365 C 1631.18 -2.77022 -3.31486 0
M  V30 17366 C 1630.31 -2.65846 -4.59891 0
M  V30 17367 C 1629.35 -3.86848 -4.74357 0
M  V30 17368 N 1628.49 -3.74214 -5.94061 0
M  V30 17369 H 1633.33 -2.4883 -1.63974 0
M  V30 17370 H 1630.87 -1.23472 -0.799565 0
M  V30 17371 H 1632.82 -1.47411 -3.90289 0
M  V30 17372 H 1631.45 -0.597374 -3.17224 0
M  V30 17373 H 1630.51 -2.90783 -2.45253 0
M  V30 17374 H 1631.82 -3.66776 -3.38049 0
M  V30 17375 H 1630.97 -2.60136 -5.48101 0
M  V30 17376 H 1629.71 -1.73689 -4.55723 0
M  V30 17377 H 1628.72 -3.92918 -3.84572 0
M  V30 17378 H 1629.94 -4.80069 -4.80324 0
M  V30 17379 H 1627.89 -2.84825 -5.9094 0
M  V30 17380 H 1627.8 -4.57601 -6.01779 0
M  V30 17381 H 1629.07 -3.72434 -6.84772 0
M  V30 17382 N 1633.3 0.851265 -1.32632 0
M  V30 17383 C 1634.55 1.60057 -1.22738 0
M  V30 17384 C 1634.86 1.94485 0.208525 0
M  V30 17385 O 1636.07 2.68083 0.429361 0
M  V30 17386 C 1634.52 2.88634 -2.14985 0
M  V30 17387 C 1634.13 2.61617 -3.63676 0
M  V30 17388 C 1635.88 3.6665 -2.13935 0
M  V30 17389 C 1633.78 3.86215 -4.47875 0
M  V30 17390 H 1632.71 0.600617 -0.455824 0
M  V30 17391 H 1635.36 0.939671 -1.57615 0
M  V30 17392 H 1633.75 3.56199 -1.73027 0
M  V30 17393 H 1634.92 2.02342 -4.13998 0
M  V30 17394 H 1633.24 1.96926 -3.66891 0
M  V30 17395 H 1635.83 4.59114 -2.74078 0
M  V30 17396 H 1636.18 4.00636 -1.13121 0
M  V30 17397 H 1636.71 3.05993 -2.54192 0
M  V30 17398 H 1633.45 3.57367 -5.49517 0
M  V30 17399 H 1632.97 4.44874 -4.02302 0
M  V30 17400 H 1634.65 4.5392 -4.61049 0
M  V30 17401 N 1634.78 1.15898 1.06796 0
M  V30 17402 C 1636.02 0.938728 1.79766 0
M  V30 17403 C 1636.36 -0.53249 1.86757 0
M  V30 17404 O 1635.63 -1.39492 1.35544 0
M  V30 17405 C 1635.92 1.56062 3.24525 0
M  V30 17406 C 1635.77 3.10283 3.25645 0
M  V30 17407 C 1637.09 1.25108 4.21943 0
M  V30 17408 H 1634.21 0.342451 0.652607 0
M  V30 17409 H 1636.85 1.4315 1.24933 0
M  V30 17410 H 1635 1.14158 3.71349 0
M  V30 17411 H 1636.67 3.61132 2.87021 0
M  V30 17412 H 1634.91 3.43879 2.64443 0
M  V30 17413 H 1635.58 3.48913 4.27743 0
M  V30 17414 H 1638.06 1.61364 3.83537 0
M  V30 17415 H 1636.94 1.7123 5.21509 0
M  V30 17416 H 1637.2 0.169043 4.41777 0
M  V30 17417 N 1636.26 -1.25243 0.956659 0
M  V30 17418 C 1637.17 -2.29529 0.48515 0
M  V30 17419 C 1638.18 -1.68121 -0.448494 0
M  V30 17420 O 1639.36 -1.98773 -0.324243 0
M  V30 17421 C 1636.42 -3.45952 -0.227611 0
M  V30 17422 C 1635.48 -4.22795 0.744495 0
M  V30 17423 C 1634.72 -5.3366 0.0656539 0
M  V30 17424 O 1634.94 -5.58722 -1.14829 0
M  V30 17425 O 1633.87 -5.97181 0.75222 0
M  V30 17426 H 1637.7 -2.71955 1.35181 0
M  V30 17427 H 1635.29 -1.30729 0.723203 0
M  V30 17428 H 1637.17 -4.16687 -0.628474 0
M  V30 17429 H 1635.84 -3.05524 -1.06942 0
M  V30 17430 H 1634.75 -3.5448 1.1956 0
M  V30 17431 H 1636.08 -4.67012 1.55438 0
M  V30 17432 N 1637.73 -0.725468 -1.3991 0
M  V30 17433 C 1638.68 -0.0555314 -2.27932 0
M  V30 17434 C 1639.67 0.722435 -1.4377 0
M  V30 17435 O 1640.86 0.593011 -1.6677 0
M  V30 17436 C 1637.99 0.858122 -3.32402 0
M  V30 17437 C 1637.08 0.0748146 -4.24034 0
M  V30 17438 N 1637.47 -0.947093 -4.96854 0
M  V30 17439 C 1635.76 0.305902 -4.4495 0
M  V30 17440 C 1636.47 -1.41861 -5.64137 0
M  V30 17441 N 1635.44 -0.738949 -5.38554 0
M  V30 17442 H 1639.24 -0.838606 -2.81682 0
M  V30 17443 H 1636.76 -0.558938 -1.52478 0
M  V30 17444 H 1638.75 1.35347 -3.94318 0
M  V30 17445 H 1637.41 1.64046 -2.80212 0
M  V30 17446 H 1638.43 -1.32821 -5.00579 0
M  V30 17447 H 1635.1 1.06379 -4.0372 0
M  V30 17448 H 1636.49 -2.26829 -6.32454 0
M  V30 17449 N 1639.21 1.50354 -0.472382 0
M  V30 17450 C 1640.18 2.27096 0.30981 0
M  V30 17451 C 1641.18 1.3193 0.919306 0
M  V30 17452 O 1642.37 1.55344 0.788284 0
M  V30 17453 C 1639.5 3.08924 1.44149 0
M  V30 17454 H 1640.69 2.97692 -0.363228 0
M  V30 17455 H 1638.24 1.5465 -0.226483 0
M  V30 17456 H 1638.98 2.42828 2.14954 0
M  V30 17457 H 1638.76 3.78862 1.01023 0
M  V30 17458 H 1640.25 3.66961 1.99323 0
M  V30 17459 N 1640.69 0.205039 1.56261 0
M  V30 17460 C 1641.6 -0.723548 2.23164 0
M  V30 17461 C 1642.62 -1.22683 1.23389 0
M  V30 17462 O 1643.79 -1.27191 1.56155 0
M  V30 17463 C 1640.86 -1.92178 2.88563 0
M  V30 17464 C 1639.92 -1.46209 4.03635 0
M  V30 17465 C 1639.15 -2.60321 4.65906 0
M  V30 17466 O 1639.38 -3.78051 4.27122 0
M  V30 17467 O 1638.31 -2.32465 5.55197 0
M  V30 17468 H 1642.14 -0.183715 3.03144 0
M  V30 17469 H 1639.72 -0.0246933 1.4938 0
M  V30 17470 H 1641.6 -2.62188 3.29902 0
M  V30 17471 H 1640.28 -2.45003 2.11555 0
M  V30 17472 H 1639.18 -0.730492 3.66899 0
M  V30 17473 H 1640.52 -0.980402 4.82337 0
M  V30 17474 N 1642.17 -1.57451 -0.0684915 0
M  V30 17475 C 1643.12 -2.03916 -1.08105 0
M  V30 17476 C 1644.09 -0.920418 -1.38266 0
M  V30 17477 O 1645.27 -1.18831 -1.49277 0
M  V30 17478 C 1642.41 -2.49075 -2.38863 0
M  V30 17479 C 1641.52 -3.74581 -2.15204 0
M  V30 17480 C 1640.66 -4.08509 -3.39549 0
M  V30 17481 C 1639.7 -5.27046 -3.11269 0
M  V30 17482 N 1638.84 -5.56597 -4.27954 0
M  V30 17483 H 1643.68 -2.90188 -0.677843 0
M  V30 17484 H 1641.21 -1.43507 -0.32313 0
M  V30 17485 H 1643.17 -2.7331 -3.1521 0
M  V30 17486 H 1641.8 -1.65776 -2.76981 0
M  V30 17487 H 1640.85 -3.57666 -1.29535 0
M  V30 17488 H 1642.16 -4.61065 -1.90317 0
M  V30 17489 H 1641.32 -4.33663 -4.24289 0
M  V30 17490 H 1640.06 -3.20599 -3.67515 0
M  V30 17491 H 1639.06 -5.01686 -2.24926 0
M  V30 17492 H 1640.29 -6.16577 -2.84622 0
M  V30 17493 H 1638.23 -4.71646 -4.55945 0
M  V30 17494 H 1638.15 -6.37506 -4.06352 0
M  V30 17495 H 1639.42 -5.86303 -5.13681 0
M  V30 17496 N 1643.65 0.339955 -1.5389 0
M  V30 17497 C 1644.58 1.43837 -1.78448 0
M  V30 17498 C 1645.59 1.48559 -0.665885 0
M  V30 17499 O 1646.78 1.51577 -0.942686 0
M  V30 17500 C 1643.88 2.82474 -1.87248 0
M  V30 17501 C 1643.05 3.01149 -3.17219 0
M  V30 17502 C 1642.11 4.20049 -3.16931 0
M  V30 17503 O 1641.14 4.13994 -3.90638 0
M  V30 17504 N 1642.34 5.28767 -2.39553 0
M  V30 17505 H 1645.11 1.2314 -2.73234 0
M  V30 17506 H 1642.67 0.529855 -1.52984 0
M  V30 17507 H 1644.66 3.60196 -1.84502 0
M  V30 17508 H 1643.23 2.96297 -0.996322 0
M  V30 17509 H 1642.45 2.10867 -3.3306 0
M  V30 17510 H 1643.74 3.10511 -4.03063 0
M  V30 17511 H 1643.14 5.36557 -1.79228 0
M  V30 17512 H 1641.69 6.04969 -2.42601 0
M  V30 17513 N 1645.13 1.45684 0.601159 0
M  V30 17514 C 1646.54 1.30232 0.922598 0
M  V30 17515 C 1646.74 0.260086 1.99814 0
M  V30 17516 O 1645.8 -0.343753 2.50149 0
M  V30 17517 C 1647.11 2.68318 1.35743 0
M  V30 17518 C 1648.66 2.76264 1.47129 0
M  V30 17519 C 1649.13 4.1489 1.93986 0
M  V30 17520 N 1650.62 4.17216 2.01209 0
M  V30 17521 C 1651.36 5.21354 2.387 0
M  V30 17522 N 1650.86 6.35833 2.75114 0
M  V30 17523 N 1652.65 5.08714 2.39095 0
M  V30 17524 H 1644.8 2.12117 -0.109634 0
M  V30 17525 H 1647.06 0.947902 0.0136129 0
M  V30 17526 H 1646.77 3.45804 0.64127 0
M  V30 17527 H 1646.64 2.97206 2.32268 0
M  V30 17528 H 1649.03 1.99077 2.17835 0
M  V30 17529 H 1649.11 2.51082 0.489028 0
M  V30 17530 H 1648.75 4.92565 1.23864 0
M  V30 17531 H 1648.68 4.37468 2.93137 0
M  V30 17532 H 1651.18 3.34607 1.75632 0
M  V30 17533 H 1651.49 7.11084 3.02622 0
M  V30 17534 H 1649.83 6.39224 2.72795 0
M  V30 17535 H 1653.02 4.18322 2.10057 0
M  V30 17536 H 1653.2 5.89989 2.67987 0
M  V30 17537 N 1646.6 -0.84422 1.33082 0
M  V30 17538 C 1647.83 -1.63133 1.27261 0
M  V30 17539 C 1648.25 -1.88142 -0.157479 0
M  V30 17540 O 1647.6 -1.4578 -1.09793 0
M  V30 17541 C 1647.65 -2.98462 2.03967 0
M  V30 17542 O 1647.38 -2.74555 3.41396 0
M  V30 17543 C 1648.88 -3.92899 2.05293 0
M  V30 17544 H 1646.1 -0.507769 0.438647 0
M  V30 17545 H 1648.64 -1.05194 1.75369 0
M  V30 17546 H 1646.8 -3.53017 1.59554 0
M  V30 17547 H 1647.21 -3.60694 3.80789 0
M  V30 17548 H 1648.68 -4.85088 2.63427 0
M  V30 17549 H 1649.16 -4.26665 1.04183 0
M  V30 17550 H 1649.77 -3.44281 2.49701 0
M  V30 17551 N 1648.08 -1.16463 -1.0618 0
M  V30 17552 C 1649.01 -0.895399 -2.1565 0
M  V30 17553 C 1649.99 0.158729 -1.69358 0
M  V30 17554 O 1651.18 0.010586 -1.94197 0
M  V30 17555 C 1648.31 -0.396959 -3.45024 0
M  V30 17556 C 1647.26 -1.38913 -4.0483 0
M  V30 17557 C 1646.59 -0.749043 -5.29427 0
M  V30 17558 C 1647.89 -2.7591 -4.43476 0
M  V30 17559 H 1649.58 -1.81085 -2.38429 0
M  V30 17560 H 1647.13 -0.872098 -1.14588 0
M  V30 17561 H 1649.08 -0.196086 -4.20944 0
M  V30 17562 H 1647.8 0.554002 -3.21867 0
M  V30 17563 H 1646.46 -1.57657 -3.30968 0
M  V30 17564 H 1646.11 0.208439 -5.02568 0
M  V30 17565 H 1645.81 -1.41128 -5.704 0
M  V30 17566 H 1647.34 -0.558217 -6.08043 0
M  V30 17567 H 1648.75 -2.60942 -5.10473 0
M  V30 17568 H 1647.15 -3.38618 -4.95437 0
M  V30 17569 H 1648.22 -3.31076 -3.54284 0
M  V30 17570 N 1649.56 1.24734 -0.963288 0
M  V30 17571 C 1650.78 1.97285 -0.639808 0
M  V30 17572 C 1651.21 1.71024 0.783099 0
M  V30 17573 O 1650.57 0.971324 1.53085 0
M  V30 17574 C 1650.62 3.48793 -0.915197 0
M  V30 17575 O 1649.72 4.124 0.00162805 0
M  V30 17576 H 1649.06 0.618196 -0.242343 0
M  V30 17577 H 1651.59 1.58627 -1.29224 0
M  V30 17578 H 1651.6 3.99155 -0.84495 0
M  V30 17579 H 1650.28 3.67235 -1.95221 0
M  V30 17580 H 1648.85 3.72702 -0.121563 0
M  V30 17581 N 1651.04 0.732878 1.39523 0
M  V30 17582 C 1651.98 0.0915149 2.30618 0
M  V30 17583 C 1652.95 -0.731943 1.49103 0
M  V30 17584 O 1654.14 -0.692343 1.77796 0
M  V30 17585 C 1651.28 -0.811387 3.35426 0
M  V30 17586 C 1650.39 0.0244578 4.31993 0
M  V30 17587 C 1649.53 -0.879521 5.23868 0
M  V30 17588 C 1648.57 -0.0387974 6.12088 0
M  V30 17589 N 1647.7 -0.898593 6.96326 0
M  V30 17590 H 1652.54 0.87399 2.84895 0
M  V30 17591 H 1650.08 0.442659 1.40282 0
M  V30 17592 H 1652.04 -1.3493 3.94778 0
M  V30 17593 H 1650.67 -1.55986 2.8261 0
M  V30 17594 H 1649.72 0.679762 3.74277 0
M  V30 17595 H 1651.03 0.674606 4.94217 0
M  V30 17596 H 1650.19 -1.48535 5.88237 0
M  V30 17597 H 1648.93 -1.56345 4.6196 0
M  V30 17598 H 1647.93 0.579847 5.46734 0
M  V30 17599 H 1649.16 0.641887 6.7606 0
M  V30 17600 H 1647.1 -1.56786 6.36988 0
M  V30 17601 H 1647.02 -0.304876 7.55385 0
M  V30 17602 H 1648.29 -1.49005 7.65126 0
M  V30 17603 N 1652.52 -1.50101 0.480349 0
M  V30 17604 C 1653.46 -2.30347 -0.322924 0
M  V30 17605 C 1654.46 -1.3804 -0.981904 0
M  V30 17606 O 1655.66 -1.55188 -0.91195 0
M  V30 17607 H 1652.04 -0.741875 -0.122985 0
M  V30 17608 H 1654.01 -2.96045 0.374155 0
M  V30 17609 C 1652.76 -3.18844 -1.38686 0
M  V30 17610 H 1652.08 -3.89787 -0.889181 0
M  V30 17611 H 1653.52 -3.77971 -1.9213 0
M  V30 17612 C 1651.98 -2.37058 -2.39385 0
M  V30 17613 O 1652.51 -2.06016 -3.44848 0
M  V30 17614 N 1650.72 -1.99465 -2.11334 0
M  V30 17615 H 1650.26 -2.24909 -1.25593 0
M  V30 17616 H 1650.22 -1.45048 -2.78942 0
M  V30 17617 N 1653.99 -0.213323 -1.5615 0
M  V30 17618 C 1654.94 0.700175 -2.19923 0
M  V30 17619 C 1655.91 1.19641 -1.15218 0
M  V30 17620 O 1657.1 1.257 -1.43542 0
M  V30 17621 C 1654.24 1.90629 -2.87671 0
M  V30 17622 C 1653.35 1.44973 -4.06948 0
M  V30 17623 C 1652.48 2.61277 -4.62502 0
M  V30 17624 C 1651.52 2.12316 -5.74098 0
M  V30 17625 N 1650.66 3.21862 -6.23978 0
M  V30 17626 H 1655.5 0.14961 -2.97624 0
M  V30 17627 H 1653.04 0.0620957 -1.46969 0
M  V30 17628 H 1654.99 2.61431 -3.2513 0
M  V30 17629 H 1653.62 2.42987 -2.12502 0
M  V30 17630 H 1652.68 0.636917 -3.7503 0
M  V30 17631 H 1653.99 1.05065 -4.87609 0
M  V30 17632 H 1653.14 3.40174 -5.02361 0
M  V30 17633 H 1651.88 3.04468 -3.80987 0
M  V30 17634 H 1650.89 1.31877 -5.33749 0
M  V30 17635 H 1652.11 1.70134 -6.57443 0
M  V30 17636 H 1650.06 3.64551 -5.45379 0
M  V30 17637 H 1649.97 2.86181 -6.9974 0
M  V30 17638 H 1651.24 4.0092 -6.68493 0
M  V30 17639 O 1655.51 1.61317 -0.0767974 0
M  V30 17640 H 1656.2 1.86346 0.528651 0
M  V30 END ATOM
M  V30 BEGIN BOND
M  V30 END BOND
M  V30 END CTAB
M  END
$$$$
