drugbank_target|Q7Z3Y4 Uncharacterized protein (DB07909)
 OpenBabel12092120473D

  0  0  0     0  0            999 V3000
M  V30 BEGIN CTAB
M  V30 COUNTS 3580 3616 0 0 0
M  V30 BEGIN ATOM
M  V30 1 H -0.908 1.98254 -0.117106 0
M  V30 2 N 0 1.576 0 0
M  V30 3 C 0.933 2.03868 1.02534 0
M  V30 4 C 1.911 0.928543 1.3348 0
M  V30 5 O 3.095 1.19667 1.45644 0
M  V30 6 C 0.222 2.43627 2.35294 0
M  V30 7 C -0.732 3.65373 2.2001 0
M  V30 8 S 0.101 5.13292 1.52614 0
M  V30 9 C 1.257 5.56322 2.86805 0
M  V30 10 H 1.49 2.90518 0.631377 0
M  V30 11 H -0.977 1.52953 0.210867 0
M  V30 12 H 0.981 2.67203 3.11629 0
M  V30 13 H -0.358 1.57376 2.7183 0
M  V30 14 H -1.165 3.90944 3.18086 0
M  V30 15 H -1.563 3.418 1.51819 0
M  V30 16 H 0.729 5.58782 3.83104 0
M  V30 17 H 1.672 6.56266 2.65933 0
M  V30 18 H 2.08 4.83886 2.90714 0
M  V30 19 N 1.4781 -0.272755 1.55222 0
M  V30 20 C 2.7551 -1.02562 1.66555 0
M  V30 21 C 3.1351 -2.04282 0.532189 0
M  V30 22 O 2.4831 -2.23662 -0.467717 0
M  V30 23 C 2.6931 -1.6822 3.05782 0
M  V30 24 C 4.0411 -2.19373 3.63539 0
M  V30 25 O 5.0651 -1.78206 3.08417 0
M  V30 26 O 3.9241 -2.94883 4.60115 0
M  V30 27 H 1.0181 -0.475755 0.676451 0
M  V30 28 H 3.5641 -0.268593 1.67561 0
M  V30 29 H 2.3361 -0.945112 3.79715 0
M  V30 30 H 1.9591 -2.50609 3.08676 0
M  V30 31 N 2.9562 -1.48159 -0.537278 0
M  V30 32 C 3.8892 -1.567 -1.65893 0
M  V30 33 C 4.8672 -0.41787 -1.57139 0
M  V30 34 O 6.0512 -0.628461 -1.77715 0
M  V30 35 C 3.1782 -1.48818 -3.04255 0
M  V30 36 C 2.2242 -2.68482 -3.31391 0
M  V30 37 S 3.0572 -4.30516 -3.1846 0
M  V30 38 C 4.2132 -4.2522 -4.59281 0
M  V30 39 H 4.4462 -2.5159 -1.58397 0
M  V30 40 H 1.9792 -1.36602 -0.719672 0
M  V30 41 H 3.9372 -1.44958 -3.84054 0
M  V30 42 H 2.5982 -0.552777 -3.09198 0
M  V30 43 H 1.7912 -2.59085 -4.32309 0
M  V30 44 H 1.3932 -2.69567 -2.59248 0
M  V30 45 H 3.6852 -3.94703 -5.5065 0
M  V30 46 H 4.6282 -5.26292 -4.73732 0
M  V30 47 H 5.0362 -3.55791 -4.38261 0
M  V30 48 N 4.4343 0.785586 -1.36625 0
M  V30 49 C 5.8503 1.08419 -1.17122 0
M  V30 50 C 6.0503 2.015 0.00208491 0
M  V30 51 O 5.1063 2.43551 0.666278 0
M  V30 52 C 6.4193 1.69498 -2.48377 0
M  V30 53 C 7.9673 1.81821 -2.54775 0
M  V30 54 C 8.4423 2.46315 -3.86126 0
M  V30 55 N 9.9333 2.53779 -3.87492 0
M  V30 56 C 10.6683 3.045 -4.85868 0
M  V30 57 N 10.1643 3.55499 -5.94637 0
M  V30 58 N 11.9573 3.03247 -4.73284 0
M  V30 59 H 4.1083 0.167264 -2.1174 0
M  V30 60 H 6.3713 0.13682 -0.938075 0
M  V30 61 H 6.0773 1.08571 -3.34522 0
M  V30 62 H 5.9513 2.6896 -2.64462 0
M  V30 63 H 8.3383 2.41884 -1.69045 0
M  V30 64 H 8.4193 0.811532 -2.42586 0
M  V30 65 H 8.0633 1.86895 -4.72263 0
M  V30 66 H 7.9933 3.47561 -3.95612 0
M  V30 67 H 10.4843 2.17672 -3.08913 0
M  V30 68 H 10.7973 3.92562 -6.65669 0
M  V30 69 H 9.1423 3.5364 -5.98301 0
M  V30 70 H 12.3333 2.62696 -3.87438 0
M  V30 71 H 12.5063 3.42467 -5.50109 0
M  V30 72 N 5.9124 1.20967 1.01018 0
M  V30 73 C 7.1584 1.02526 1.74975 0
M  V30 74 C 7.4914 -0.4408 1.89131 0
M  V30 75 O 6.7664 -1.32718 1.42184 0
M  V30 76 C 7.0494 1.71699 3.1653 0
M  V30 77 C 6.9024 3.25791 3.10129 0
M  V30 78 C 8.2214 1.45531 4.15342 0
M  V30 79 H 5.3404 0.373863 0.635134 0
M  V30 80 H 7.9824 1.49071 1.17805 0
M  V30 81 H 6.1324 1.32128 3.65341 0
M  V30 82 H 7.8044 3.74697 2.69072 0
M  V30 83 H 6.0474 3.56363 2.47362 0
M  V30 84 H 6.7184 3.69353 4.10222 0
M  V30 85 H 9.1944 1.79872 3.75213 0
M  V30 86 H 8.0704 1.96453 5.1254 0
M  V30 87 H 8.3314 0.384237 4.40427 0
M  V30 88 N 7.3905 -1.2043 1.01659 0
M  V30 89 C 8.3205 -2.25466 0.607226 0
M  V30 90 C 9.3015 -1.65853 -0.377716 0
M  V30 91 O 10.4865 -1.92409 -0.263149 0
M  V30 92 C 7.6165 -3.47256 -0.0552949 0
M  V30 93 C 6.5705 -4.19462 0.850632 0
M  V30 94 C 5.8965 -5.34673 0.0538859 0
M  V30 95 C 7.1965 -4.75603 2.15868 0
M  V30 96 H 8.8905 -2.59962 1.48526 0
M  V30 97 H 6.4365 -1.2496 0.715605 0
M  V30 98 H 8.3895 -4.19917 -0.353233 0
M  V30 99 H 7.1135 -3.11924 -0.968045 0
M  V30 100 H 5.7725 -3.48667 1.13257 0
M  V30 101 H 5.4205 -4.95585 -0.860514 0
M  V30 102 H 5.1205 -5.83913 0.657192 0
M  V30 103 H 6.6445 -6.10138 -0.237598 0
M  V30 104 H 8.0585 -5.40083 1.92311 0
M  V30 105 H 6.4555 -5.3528 2.71284 0
M  V30 106 H 7.5255 -3.94346 2.82169 0
M  V30 107 N 8.8686 -0.792821 -1.36206 0
M  V30 108 C 9.8316 -0.199459 -2.2833 0
M  V30 109 C 10.8316 0.605189 -1.48977 0
M  V30 110 O 12.0216 0.425685 -1.68919 0
M  V30 111 C 9.1536 0.723523 -3.33134 0
M  V30 112 H 10.3466 -1.01181 -2.82316 0
M  V30 113 H 7.8996 -0.562485 -1.45828 0
M  V30 114 H 8.6346 1.56008 -2.84309 0
M  V30 115 H 8.4196 0.148436 -3.91819 0
M  V30 116 H 9.9096 1.13344 -4.01924 0
M  V30 117 N 10.3467 1.47872 -0.545128 0
M  V30 118 C 11.2787 2.27869 0.246621 0
M  V30 119 C 12.2917 1.36282 0.890561 0
M  V30 120 O 13.4807 1.61207 0.766449 0
M  V30 121 C 10.5807 3.10159 1.36582 0
M  V30 122 C 9.7537 4.29627 0.820954 0
M  V30 123 C 8.8127 4.93607 1.82314 0
M  V30 124 O 7.8387 5.52366 1.37406 0
M  V30 125 N 9.0407 4.87211 3.15603 0
M  V30 126 H 11.8057 2.96459 -0.439539 0
M  V30 127 H 9.3667 1.57367 -0.380421 0
M  V30 128 H 11.3587 3.49829 2.03474 0
M  V30 129 H 9.9287 2.43891 1.9554 0
M  V30 130 H 9.1487 3.94192 -0.0244032 0
M  V30 131 H 10.4367 5.06928 0.436063 0
M  V30 132 H 9.8347 4.40651 3.54744 0
M  V30 133 H 8.3917 5.30937 3.78087 0
M  V30 134 N 11.8248 0.280983 1.55075 0
M  V30 135 C 12.7548 -0.597469 2.25727 0
M  V30 136 C 13.7358 -1.15417 1.24952 0
M  V30 137 O 14.9208 -1.18722 1.53684 0
M  V30 138 C 12.0508 -1.7789 2.98283 0
M  V30 139 C 11.0048 -1.35347 4.06036 0
M  V30 140 C 10.3308 -2.61846 4.66198 0
M  V30 141 C 11.6308 -0.499354 5.19907 0
M  V30 142 H 13.3248 -0.00824265 2.99399 0
M  V30 143 H 10.8708 -0.0025244 1.44 0
M  V30 144 H 12.8238 -2.39937 3.46422 0
M  V30 145 H 11.5478 -2.39405 2.22155 0
M  V30 146 H 10.2068 -0.756156 3.58717 0
M  V30 147 H 9.8548 -3.21632 3.86732 0
M  V30 148 H 9.5548 -2.3409 5.38958 0
M  V30 149 H 11.0788 -3.24732 5.1709 0
M  V30 150 H 12.4928 -1.02498 5.64063 0
M  V30 151 H 10.8898 -0.316424 5.99265 0
M  V30 152 H 11.9598 0.480459 4.82514 0
M  V30 153 N 13.3029 -1.57598 0.00835791 0
M  V30 154 C 14.2329 -2.1198 -0.979113 0
M  V30 155 C 15.2139 -1.03091 -1.35301 0
M  V30 156 O 16.3989 -1.30818 -1.43528 0
M  V30 157 C 13.5289 -2.62995 -2.26828 0
M  V30 158 C 12.4829 -3.76485 -2.03576 0
M  V30 159 C 11.8089 -4.13846 -3.38579 0
M  V30 160 C 13.1089 -5.0342 -1.39161 0
M  V30 161 H 14.8029 -2.94738 -0.526281 0
M  V30 162 H 12.3489 -1.41783 -0.251704 0
M  V30 163 H 14.3019 -2.99669 -2.96271 0
M  V30 164 H 13.0259 -1.7737 -2.7424 0
M  V30 165 H 11.6849 -3.40217 -1.36557 0
M  V30 166 H 11.3329 -3.25232 -3.83709 0
M  V30 167 H 11.0329 -4.90312 -3.23834 0
M  V30 168 H 12.5569 -4.53086 -4.09323 0
M  V30 169 H 13.9709 -5.37812 -1.98573 0
M  V30 170 H 12.3679 -5.84746 -1.34878 0
M  V30 171 H 13.4379 -4.83548 -0.361868 0
M  V30 172 N 14.781 0.264519 -1.55364 0
M  V30 173 C 16.029 0.993021 -1.76021 0
M  V30 174 C 16.35 1.86511 -0.569099 0
M  V30 175 O 15.62 1.91438 0.415735 0
M  V30 176 H 14.2 0.369639 -0.649135 0
M  V30 177 H 16.862 0.286707 -1.9278 0
M  V30 178 H 15.958 1.62502 -2.66457 0
M  V30 179 N 16.2591 1.48442 0.529413 0
M  V30 180 C 17.1891 1.65902 1.64313 0
M  V30 181 C 18.1701 0.507897 1.6234 0
M  V30 182 O 19.3551 0.740503 1.79528 0
M  V30 183 C 16.4851 1.69911 3.02898 0
M  V30 184 C 15.4391 2.8453 3.19729 0
M  V30 185 C 14.7651 2.73629 4.59381 0
M  V30 186 C 16.0651 4.25821 3.02447 0
M  V30 187 H 17.7591 2.5914 1.49955 0
M  V30 188 H 15.3051 1.24709 0.719982 0
M  V30 189 H 17.2581 1.80715 3.80684 0
M  V30 190 H 15.9821 0.732524 3.18279 0
M  V30 191 H 14.6411 2.73283 2.44361 0
M  V30 192 H 14.2891 1.74938 4.71599 0
M  V30 193 H 13.9891 3.50541 4.71588 0
M  V30 194 H 15.5131 2.86401 5.39265 0
M  V30 195 H 16.9271 4.37898 3.70024 0
M  V30 196 H 15.3241 5.03735 3.26146 0
M  V30 197 H 16.3941 4.42244 1.98867 0
M  V30 198 N 17.7372 -0.778329 1.37039 0
M  V30 199 C 18.6672 -1.90546 1.34962 0
M  V30 200 C 19.6482 -1.68681 0.219274 0
M  V30 201 O 20.8332 -1.89634 0.418624 0
M  V30 202 C 17.9632 -3.27734 1.14925 0
M  V30 203 C 16.9172 -3.64147 2.24902 0
M  V30 204 C 16.2432 -4.99806 1.89996 0
M  V30 205 C 17.5432 -3.71579 3.67051 0
M  V30 206 H 19.2372 -1.92541 2.29277 0
M  V30 207 H 16.7832 -0.924948 1.10366 0
M  V30 208 H 18.7362 -4.06215 1.12104 0
M  V30 209 H 17.4602 -3.26154 0.170631 0
M  V30 210 H 16.1192 -2.8797 2.26868 0
M  V30 211 H 15.7672 -4.94759 0.906796 0
M  V30 212 H 15.4672 -5.25139 2.63634 0
M  V30 213 H 16.9912 -5.80694 1.88749 0
M  V30 214 H 18.4052 -4.40227 3.67251 0
M  V30 215 H 16.8022 -4.08405 4.39688 0
M  V30 216 H 17.8722 -2.72404 4.01154 0
M  V30 217 N 19.2153 -1.21501 -1.00376 0
M  V30 218 C 20.1453 -0.999478 -2.11028 0
M  V30 219 C 21.1263 0.0759671 -1.6993 0
M  V30 220 O 22.3113 -0.0841106 -1.94018 0
M  V30 221 C 19.4413 -0.564709 -3.42678 0
M  V30 222 C 18.3953 -1.58486 -3.97576 0
M  V30 223 C 17.7213 -1.00628 -5.25146 0
M  V30 224 C 19.0213 -2.97204 -4.29496 0
M  V30 225 H 20.7153 -1.92495 -2.29317 0
M  V30 226 H 18.2613 -0.92693 -1.102 0
M  V30 227 H 20.2143 -0.401091 -4.19487 0
M  V30 228 H 18.9383 0.396411 -3.24185 0
M  V30 229 H 17.5973 -1.73606 -3.22888 0
M  V30 230 H 17.2453 -0.0368439 -5.02987 0
M  V30 231 H 16.9453 -1.68771 -5.62841 0
M  V30 232 H 18.4693 -0.854015 -6.04598 0
M  V30 233 H 19.8833 -2.8552 -4.97143 0
M  V30 234 H 18.2803 -3.62372 -4.78338 0
M  V30 235 H 19.3503 -3.47956 -3.3772 0
M  V30 236 N 20.6934 1.19889 -1.02296 0
M  V30 237 C 21.6234 2.25141 -0.619174 0
M  V30 238 C 22.6044 1.66051 0.368915 0
M  V30 239 O 23.7894 1.92546 0.252941 0
M  V30 240 C 20.9194 3.4728 0.0368783 0
M  V30 241 C 19.8734 4.19005 -0.872865 0
M  V30 242 C 19.1994 5.34637 -0.0822402 0
M  V30 243 C 20.4994 4.74452 -2.18387 0
M  V30 244 H 22.1934 2.59171 -1.49903 0
M  V30 245 H 19.7394 1.24579 -0.722222 0
M  V30 246 H 21.6924 4.20098 0.330958 0
M  V30 247 H 20.4164 3.12433 0.95149 0
M  V30 248 H 19.0754 3.48061 -1.15105 0
M  V30 249 H 18.7234 4.96034 0.83422 0
M  V30 250 H 18.4234 5.83557 -0.688149 0
M  V30 251 H 19.9474 6.10255 0.205238 0
M  V30 252 H 21.3614 5.39055 -1.95172 0
M  V30 253 H 19.7584 5.33834 -2.74119 0
M  V30 254 H 20.8284 3.92844 -2.84257 0
M  V30 255 N 22.1715 0.800033 1.35784 0
M  V30 256 C 23.4115 0.382891 2.00782 0
M  V30 257 C 23.7755 -1.02891 1.62103 0
M  V30 258 O 24.9765 -1.54771 2.19771 0
M  V30 259 C 23.2475 0.553299 3.53091 0
M  V30 260 S 24.8065 0.225608 4.3822 0
M  V30 261 H 21.6245 0.145737 0.695904 0
M  V30 262 H 24.2265 1.04085 1.65489 0
M  V30 263 H 22.9305 1.58091 3.78729 0
M  V30 264 H 22.4615 -0.120214 3.93216 0
M  V30 265 H 24.4765 -0.969074 4.86645 0
M  V30 266 N 23.6496 -1.47581 0.552962 0
M  V30 267 C 24.8966 -2.02482 0.0273243 0
M  V30 268 C 25.2246 -1.42776 -1.32081 0
M  V30 269 O 24.4796 -0.571393 -1.87173 0
M  V30 270 C 24.7786 -3.57199 -0.119728 0
M  V30 271 C 24.4446 -4.35804 1.15697 0
M  V30 272 C 23.1066 -4.57 1.50681 0
M  V30 273 C 25.4586 -4.81167 2.00319 0
M  V30 274 C 22.7866 -5.20807 2.70142 0
M  V30 275 C 25.1386 -5.46293 3.18978 0
M  V30 276 C 23.8026 -5.65722 3.54281 0
M  V30 277 H 23.0726 -0.740933 0.00999866 0
M  V30 278 H 25.7196 -1.77302 0.72362 0
M  V30 279 H 24.0246 -3.81348 -0.89896 0
M  V30 280 H 25.7216 -3.97324 -0.541718 0
M  V30 281 H 22.3116 -4.19582 0.874561 0
M  V30 282 H 26.4956 -4.64574 1.74599 0
M  V30 283 H 21.7516 -5.34045 2.97668 0
M  V30 284 H 25.9256 -5.80407 3.84838 0
M  V30 285 H 23.5526 -6.14936 4.46942 0
M  V30 286 N 25.1277 -0.289203 -1.54924 0
M  V30 287 C 26.5387 0.205791 -1.85562 0
M  V30 288 C 26.8897 1.54351 -1.2112 0
M  V30 289 O 26.0147 2.10435 -0.504601 0
M  V30 290 C 26.6097 0.380177 -3.3666 0
M  V30 291 C 25.1687 0.819395 -3.67373 0
M  V30 292 C 24.3157 -0.079159 -2.77187 0
M  V30 293 H 27.2667 -0.510577 -1.50262 0
M  V30 294 H 27.2877 1.21659 -3.60526 0
M  V30 295 H 26.7997 -0.593589 -3.83534 0
M  V30 296 H 24.9007 1.80413 -3.26009 0
M  V30 297 H 25.0137 0.646957 -4.74712 0
M  V30 298 H 23.3777 0.439565 -2.50878 0
M  V30 299 H 24.1607 -1.04906 -3.26878 0
M  V30 300 N 26.6058 1.57591 -0.0167156 0
M  V30 301 C 27.8538 1.90906 0.663285 0
M  V30 302 C 28.1748 0.892509 1.73376 0
M  V30 303 O 27.4448 -0.0677623 1.95783 0
M  V30 304 H 26.0248 0.704637 0.247983 0
M  V30 305 H 28.6868 1.94803 -0.0615909 0
M  V30 306 H 27.7828 2.9116 1.12393 0
M  V30 307 N 28.0839 -0.256276 1.55502 0
M  V30 308 C 29.0469 -1.30047 1.88734 0
M  V30 309 C 30.0469 -1.4154 0.763086 0
M  V30 310 O 31.2369 -1.40403 1.03115 0
M  V30 311 C 28.3689 -2.67953 2.10747 0
M  V30 312 H 29.5619 -1.01802 2.82093 0
M  V30 313 H 27.1149 -0.495134 1.4825 0
M  V30 314 H 27.8499 -3.01351 1.19825 0
M  V30 315 H 27.6349 -2.60993 2.92617 0
M  V30 316 H 29.1249 -3.43368 2.37673 0
M  V30 317 N 29.562 -1.4872 -0.521534 0
M  V30 318 C 30.978 -1.35028 -0.850855 0
M  V30 319 C 31.178 -0.367712 -1.98116 0
M  V30 320 O 30.234 0.208037 -2.51642 0
M  V30 321 C 31.547 -2.75263 -1.21041 0
M  V30 322 C 33.095 -2.83813 -1.31981 0
M  V30 323 C 33.57 -4.24769 -1.71276 0
M  V30 324 N 35.061 -4.27482 -1.78363 0
M  V30 325 C 35.796 -5.33494 -2.1017 0
M  V30 326 N 35.292 -6.49775 -2.40343 0
M  V30 327 N 37.085 -5.20894 -2.11248 0
M  V30 328 H 29.236 -2.11214 0.22413 0
M  V30 329 H 31.499 -0.947252 0.0376439 0
M  V30 330 H 31.205 -3.48765 -0.453415 0
M  V30 331 H 31.079 -3.09327 -2.15863 0
M  V30 332 H 33.466 -2.10561 -2.06756 0
M  V30 333 H 33.547 -2.53358 -0.352596 0
M  V30 334 H 33.191 -4.9854 -0.970588 0
M  V30 335 H 33.121 -4.52673 -2.69062 0
M  V30 336 H 35.612 -3.43611 -1.57288 0
M  V30 337 H 35.925 -7.26402 -2.63743 0
M  V30 338 H 34.27 -6.53035 -2.37844 0
M  V30 339 H 37.461 -4.29065 -1.87139 0
M  V30 340 H 37.634 -6.03612 -2.35704 0
M  V30 341 N 31.0401 0.771051 -1.3745 0
M  V30 342 C 32.2801 1.54264 -1.34096 0
M  V30 343 C 32.6441 1.91858 0.0737639 0
M  V30 344 O 33.8451 2.67797 0.23203 0
M  V30 345 C 32.1161 2.77326 -2.25445 0
M  V30 346 S 33.6751 3.67383 -2.39948 0
M  V30 347 H 30.4931 0.528122 -0.476034 0
M  V30 348 H 33.0951 0.906633 -1.73206 0
M  V30 349 H 31.7991 2.47788 -3.27153 0
M  V30 350 H 31.3301 3.45886 -1.87421 0
M  V30 351 H 33.3451 4.69334 -1.61059 0
M  V30 352 N 32.5182 1.22032 0.997298 0
M  V30 353 C 33.7952 0.950823 1.70935 0
M  V30 354 C 34.1752 -0.535292 2.042 0
M  V30 355 O 33.5232 -1.50217 1.72183 0
M  V30 356 C 33.7332 1.84386 2.96315 0
M  V30 357 C 35.0812 2.09732 3.69185 0
M  V30 358 O 36.1052 1.81798 3.06314 0
M  V30 359 O 34.9642 2.57018 4.82291 0
M  V30 360 H 32.0582 0.357204 0.745878 0
M  V30 361 H 34.6042 1.32997 1.05404 0
M  V30 362 H 33.3762 2.84928 2.68201 0
M  V30 363 H 32.9992 1.46602 3.69586 0
M  V30 364 N 33.9963 -1.19345 1.0293 0
M  V30 365 C 35.2453 -1.88363 0.721256 0
M  V30 366 C 35.5583 -1.80514 -0.753254 0
M  V30 367 O 36.7643 -2.44788 -1.17436 0
M  V30 368 C 35.2203 -3.37872 1.23978 0
M  V30 369 C 34.8283 -3.54278 2.74211 0
M  V30 370 C 36.5723 -4.12365 1.00775 0
M  V30 371 C 34.4793 -4.97682 3.19479 0
M  V30 372 H 33.4093 -0.705484 0.266098 0
M  V30 373 H 36.0603 -1.34928 1.24365 0
M  V30 374 H 34.4423 -3.90707 0.6453 0
M  V30 375 H 35.6163 -3.11769 3.39318 0
M  V30 376 H 33.9313 -2.93174 2.95699 0
M  V30 377 H 36.5283 -5.18119 1.32123 0
M  V30 378 H 36.8713 -4.16263 -0.0554308 0
M  V30 379 H 37.4043 -3.65668 1.56625 0
M  V30 380 H 34.1433 -4.98945 4.25128 0
M  V30 381 H 33.6633 -5.4095 2.591 0
M  V30 382 H 35.3423 -5.66337 3.12845 0
M  V30 383 N 35.4744 -0.807222 -1.35358 0
M  V30 384 C 36.4064 -0.175717 -2.28525 0
M  V30 385 C 37.4194 0.625354 -1.5031 0
M  V30 386 O 38.6084 0.457611 -1.72535 0
M  V30 387 C 35.7084 0.773471 -3.29956 0
M  V30 388 C 34.8814 0.0186296 -4.37396 0
M  V30 389 C 33.9404 0.886395 -5.18681 0
M  V30 390 O 32.9664 0.337106 -5.68201 0
M  V30 391 N 34.1684 2.20839 -5.36852 0
M  V30 392 H 36.9334 -0.976091 -2.83359 0
M  V30 393 H 34.4944 -0.662737 -1.47714 0
M  V30 394 H 36.4864 1.35824 -3.81227 0
M  V30 395 H 35.0564 1.47465 -2.75632 0
M  V30 396 H 34.2764 -0.747349 -3.87051 0
M  V30 397 H 35.5644 -0.501577 -5.06322 0
M  V30 398 H 34.9624 2.67858 -4.98265 0
M  V30 399 H 33.5194 2.74237 -5.91301 0
M  V30 400 N 36.9525 1.47285 -0.560781 0
M  V30 401 C 37.8855 2.27009 0.232821 0
M  V30 402 C 38.8635 1.34273 0.917039 0
M  V30 403 O 40.0475 1.63659 0.935315 0
M  V30 404 C 37.1745 3.11406 1.33206 0
M  V30 405 C 36.2205 4.19746 0.756019 0
M  V30 406 S 37.0535 5.34003 -0.400165 0
M  V30 407 C 38.2095 6.21964 0.700805 0
M  V30 408 H 38.4425 2.93971 -0.443683 0
M  V30 409 H 35.9755 1.50446 -0.347181 0
M  V30 410 H 37.9335 3.60601 1.96156 0
M  V30 411 H 36.5945 2.438 1.98041 0
M  V30 412 H 35.7875 4.78541 1.5816 0
M  V30 413 H 35.3895 3.73451 0.202619 0
M  V30 414 H 37.6815 6.58529 1.59202 0
M  V30 415 H 38.6245 7.07941 0.150126 0
M  V30 416 H 39.0325 5.5566 0.995083 0
M  V30 417 N 38.4306 0.297415 1.54768 0
M  V30 418 C 39.6586 -0.315623 2.04478 0
M  V30 419 C 40.0736 -1.47792 1.17486 0
M  V30 420 O 39.4306 -1.81404 0.19971 0
M  V30 421 C 39.4816 -0.7753 3.53088 0
M  V30 422 O 39.2026 0.340732 4.36773 0
M  V30 423 C 40.7036 -1.45386 4.18781 0
M  V30 424 H 37.9236 -0.0690887 0.667434 0
M  V30 425 H 40.4676 0.436003 1.99798 0
M  V30 426 H 38.6226 -1.47696 3.58141 0
M  V30 427 H 39.0366 -0.0165035 5.24497 0
M  V30 428 H 40.5106 -1.72669 5.24299 0
M  V30 429 H 40.9876 -2.39275 3.68299 0
M  V30 430 H 41.5936 -0.795475 4.17795 0
M  V30 431 N 39.9087 -1.5758 0.0250728 0
M  V30 432 C 40.8407 -2.06869 -0.986796 0
M  V30 433 C 41.8537 -0.991332 -1.29137 0
M  V30 434 O 43.0427 -1.26761 -1.25674 0
M  V30 435 C 40.1427 -2.47486 -2.31525 0
M  V30 436 C 39.3157 -3.78253 -2.19643 0
M  V30 437 C 38.3747 -4.05464 -3.35388 0
M  V30 438 O 37.4007 -4.75774 -3.12454 0
M  V30 439 N 38.6027 -3.55321 -4.59051 0
M  V30 440 H 41.3677 -2.94302 -0.566276 0
M  V30 441 H 38.9287 -1.6109 -0.161776 0
M  V30 442 H 40.9207 -2.62785 -3.07776 0
M  V30 443 H 39.4907 -1.65441 -2.65232 0
M  V30 444 H 38.7107 -3.7279 -1.28144 0
M  V30 445 H 39.9987 -4.63936 -2.08903 0
M  V30 446 H 39.3967 -2.98431 -4.80578 0
M  V30 447 H 37.9537 -3.75905 -5.32483 0
M  V30 448 N 41.3868 0.248026 -1.55636 0
M  V30 449 C 42.6118 0.998028 -1.81808 0
M  V30 450 C 43.0368 1.78207 -0.601979 0
M  V30 451 O 42.3948 1.75653 0.448961 0
M  V30 452 C 42.4428 1.9125 -3.05705 0
M  V30 453 O 41.5468 3.00406 -2.82542 0
M  V30 454 H 40.8878 0.284045 -0.600179 0
M  V30 455 H 43.4178 0.269357 -2.02819 0
M  V30 456 H 43.4278 2.32737 -3.35108 0
M  V30 457 H 42.1028 1.33602 -3.93857 0
M  V30 458 H 40.6798 2.63056 -2.64303 0
M  V30 459 N 42.8649 1.48995 0.513639 0
M  V30 460 C 44.2759 1.5119 1.09537 0
M  V30 461 C 44.6269 0.290906 1.94031 0
M  V30 462 O 43.7519 -0.60049 2.07902 0
M  V30 463 C 44.3469 2.73964 1.99322 0
M  V30 464 C 42.9059 2.78978 2.52682 0
M  V30 465 C 42.0529 2.44934 1.30009 0
M  V30 466 H 45.0039 1.55875 0.298125 0
M  V30 467 H 45.0249 2.53409 2.83838 0
M  V30 468 H 44.5369 3.62813 1.37799 0
M  V30 469 H 42.6379 1.94378 3.1788 0
M  V30 470 H 42.7509 3.8083 2.90698 0
M  V30 471 H 41.1149 1.9644 1.62122 0
M  V30 472 H 41.8979 3.36043 0.702131 0
M  V30 473 N 44.343 -0.763751 1.37857 0
M  V30 474 C 45.568 -1.55805 1.36893 0
M  V30 475 C 45.993 -1.88054 -0.0416135 0
M  V30 476 O 45.351 -1.49825 -1.02089 0
M  V30 477 C 45.399 -2.84012 2.22192 0
M  V30 478 O 44.503 -3.78732 1.63204 0
M  V30 479 H 43.844 -0.471638 0.46739 0
M  V30 480 H 46.374 -0.944657 1.81487 0
M  V30 481 H 46.384 -3.33037 2.35691 0
M  V30 482 H 45.059 -2.59869 3.24716 0
M  V30 483 H 43.636 -3.37402 1.58791 0
M  V30 484 N 45.8211 -1.22559 -0.990812 0
M  V30 485 C 47.0461 -1.07862 -1.77145 0
M  V30 486 C 47.4711 0.366447 -1.84496 0
M  V30 487 O 46.8291 1.26478 -1.29896 0
M  V30 488 C 46.8771 -1.69686 -3.18181 0
M  V30 489 O 45.9811 -0.951946 -4.01263 0
M  V30 490 H 45.3221 -0.378712 -0.545411 0
M  V30 491 H 47.8521 -1.62399 -1.2445 0
M  V30 492 H 47.8621 -1.74496 -3.68802 0
M  V30 493 H 46.5371 -2.74841 -3.12146 0
M  V30 494 H 45.1141 -0.980011 -3.59792 0
M  V30 495 N 47.2992 1.18797 -1.03562 0
M  V30 496 C 48.2292 2.24472 -0.643019 0
M  V30 497 C 49.2102 1.66433 0.351283 0
M  V30 498 O 50.3952 1.92803 0.232505 0
M  V30 499 C 47.5252 3.473 4.24935e-05 0
M  V30 500 C 46.4792 4.18055 -0.917257 0
M  V30 501 C 45.8052 5.34519 -0.138941 0
M  V30 502 C 47.1052 4.72109 -2.23407 0
M  V30 503 H 48.7992 2.57566 -1.52643 0
M  V30 504 H 46.3452 1.23806 -0.735394 0
M  V30 505 H 48.2982 4.20426 0.286383 0
M  V30 506 H 47.0222 3.13424 0.918299 0
M  V30 507 H 45.6812 3.46821 -1.1879 0
M  V30 508 H 45.3292 4.96891 0.781562 0
M  V30 509 H 45.0292 5.82794 -0.750005 0
M  V30 510 H 46.5532 6.10438 0.1405 0
M  V30 511 H 47.9672 5.36955 -2.00879 0
M  V30 512 H 46.3642 5.30897 -2.79765 0
M  V30 513 H 47.4342 3.89807 -2.88407 0
M  V30 514 N 48.7773 0.814389 1.34928 0
M  V30 515 C 50.0023 0.410097 2.03305 0
M  V30 516 C 50.4273 -0.973464 1.60951 0
M  V30 517 O 49.7853 -1.63185 0.789964 0
M  V30 518 C 49.8333 0.51049 3.56968 0
M  V30 519 O 48.9373 -0.473035 4.09678 0
M  V30 520 H 48.2783 0.170088 0.641846 0
M  V30 521 H 50.8083 1.10244 1.72358 0
M  V30 522 H 50.8183 0.383135 4.06197 0
M  V30 523 H 49.4933 1.51963 3.87144 0
M  V30 524 H 48.0703 -0.305272 3.71648 0
M  V30 525 N 50.2554 -1.46986 0.568584 0
M  V30 526 C 51.2184 -2.28624 -0.162366 0
M  V30 527 C 52.2184 -1.37596 -0.832103 0
M  V30 528 O 53.4084 -1.60115 -0.68622 0
M  V30 529 C 50.5404 -3.17596 -1.23878 0
M  V30 530 H 51.7334 -2.94722 0.554899 0
M  V30 531 H 49.2864 -1.52863 0.325976 0
M  V30 532 H 50.0214 -2.56214 -1.98808 0
M  V30 533 H 49.8064 -3.846 -0.763219 0
M  V30 534 H 51.2964 -3.79078 -1.75185 0
M  V30 535 N 51.7335 -0.305618 -1.54608 0
M  V30 536 C 52.9585 0.307562 -2.05107 0
M  V30 537 C 53.3835 1.46385 -1.18123 0
M  V30 538 O 52.7415 1.8034 -0.186324 0
M  V30 539 C 52.7895 0.73704 -3.52987 0
M  V30 540 O 51.8935 1.84134 -3.6901 0
M  V30 541 H 51.2345 0.0589143 -0.661381 0
M  V30 542 H 53.7645 -0.448807 -1.99617 0
M  V30 543 H 53.7745 1.02459 -3.94925 0
M  V30 544 H 52.4495 -0.108773 -4.15758 0
M  V30 545 H 51.0265 1.55398 -3.38978 0
M  V30 546 N 53.2116 1.57565 -0.0334293 0
M  V30 547 C 54.4576 1.92262 0.645226 0
M  V30 548 C 54.7906 0.910543 1.71531 0
M  V30 549 O 54.0656 -0.066099 1.94388 0
M  V30 550 C 54.3486 3.37422 1.2577 0
M  V30 551 C 54.2016 4.49369 0.196891 0
M  V30 552 C 55.5206 3.82628 2.17449 0
M  V30 553 H 52.6396 0.699171 0.233085 0
M  V30 554 H 55.2816 1.89779 -0.0915694 0
M  V30 555 H 53.4316 3.39669 1.88566 0
M  V30 556 H 55.1036 4.59254 -0.433962 0
M  V30 557 H 53.3466 4.31168 -0.477137 0
M  V30 558 H 54.0176 5.47978 0.665124 0
M  V30 559 H 56.4936 3.82145 1.64634 0
M  V30 560 H 55.3696 4.84883 2.57254 0
M  V30 561 H 55.6306 3.18376 3.0674 0
M  V30 562 N 54.6897 -0.239769 1.55765 0
M  V30 563 C 55.9377 -0.964892 1.77579 0
M  V30 564 C 56.2587 -1.85582 0.598699 0
M  V30 565 O 55.5287 -1.92075 -0.385226 0
M  V30 566 H 54.1087 -0.359265 0.654933 0
M  V30 567 H 56.7707 -0.256001 1.93211 0
M  V30 568 H 55.8667 -1.58243 2.69009 0
M  V30 569 N 56.1678 -1.49265 -0.50573 0
M  V30 570 C 57.4448 -1.49012 -1.26707 0
M  V30 571 C 57.8248 -0.215205 -2.1 0
M  V30 572 O 57.1728 0.802547 -2.13943 0
M  V30 573 C 57.3828 -2.7663 -2.12783 0
M  V30 574 C 58.7308 -3.25932 -2.72127 0
M  V30 575 O 59.7548 -2.77715 -2.23054 0
M  V30 576 O 58.6138 -4.09897 -3.61451 0
M  V30 577 H 55.7078 -0.596197 -0.57313 0
M  V30 578 H 58.2538 -1.61524 -0.52039 0
M  V30 579 H 57.0258 -3.60916 -1.5118 0
M  V30 580 H 56.6488 -2.66956 -2.94653 0
M  V30 581 N 57.6459 0.756429 -1.3826 0
M  V30 582 C 58.8739 1.54565 -1.3754 0
M  V30 583 C 59.2889 1.88767 0.0355331 0
M  V30 584 O 58.6459 1.52572 1.0014 0
M  V30 585 C 58.6969 2.84654 -2.22833 0
M  V30 586 O 58.4179 2.51912 -3.5843 0
M  V30 587 C 59.9189 3.78807 -2.30261 0
M  V30 588 H 57.1389 0.478353 -0.470553 0
M  V30 589 H 59.6829 0.936381 -1.81803 0
M  V30 590 H 57.8379 3.41965 -1.8204 0
M  V30 591 H 58.2519 3.35325 -4.03308 0
M  V30 592 H 59.7259 4.67045 -2.94233 0
M  V30 593 H 60.2029 4.19038 -1.31545 0
M  V30 594 H 60.8089 3.2742 -2.71433 0
M  V30 595 N 59.124 1.23083 0.984299 0
M  V30 596 C 60.37 1.06214 1.72761 0
M  V30 597 C 60.703 -0.400584 1.90024 0
M  V30 598 O 59.978 -1.29672 1.44967 0
M  V30 599 C 60.261 1.78375 3.12817 0
M  V30 600 C 60.114 3.32296 3.03149 0
M  V30 601 C 61.433 1.54309 4.12161 0
M  V30 602 H 58.552 0.387251 0.627061 0
M  V30 603 H 61.194 1.51536 1.14616 0
M  V30 604 H 59.344 1.39848 3.62457 0
M  V30 605 H 61.016 3.8032 2.61064 0
M  V30 606 H 59.259 3.6153 2.39747 0
M  V30 607 H 59.93 3.77972 4.02295 0
M  V30 608 H 62.406 1.87791 3.71314 0
M  V30 609 H 61.282 2.07281 5.08258 0
M  V30 610 H 61.543 0.477572 4.39513 0
M  V30 611 N 60.6021 -1.18246 1.0419 0
M  V30 612 C 61.8301 -1.92195 0.766072 0
M  V30 613 C 62.2451 -1.76247 -0.676933 0
M  V30 614 O 61.6021 -1.09293 -1.46155 0
M  V30 615 C 61.6531 -3.43568 1.12442 0
M  V30 616 O 61.3741 -3.59015 2.51078 0
M  V30 617 C 62.8751 -4.34613 0.873275 0
M  V30 618 H 60.0951 -0.610114 0.279288 0
M  V30 619 H 62.6391 -1.50007 1.38989 0
M  V30 620 H 60.7941 -3.8354 0.545542 0
M  V30 621 H 61.2081 -4.5273 2.64831 0
M  V30 622 H 62.6821 -5.39374 1.17385 0
M  V30 623 H 63.1591 -4.38781 -0.191909 0
M  V30 624 H 63.7651 -4.00341 1.43551 0
M  V30 625 N 62.0802 -0.821533 -1.34494 0
M  V30 626 C 63.3292 -0.405355 -1.97585 0
M  V30 627 C 63.6422 1.03677 -1.65863 0
M  V30 628 O 64.8482 1.55679 -2.22433 0
M  V30 629 C 63.3042 -0.673861 -3.53535 0
M  V30 630 C 62.9122 -2.12951 -3.94152 0
M  V30 631 C 64.6562 -0.32378 -4.23263 0
M  V30 632 C 62.5632 -2.34298 -5.43009 0
M  V30 633 H 61.4932 -0.147836 -0.739365 0
M  V30 634 H 64.1442 -1.00769 -1.53355 0
M  V30 635 H 62.5262 -0.00137554 -3.96 0
M  V30 636 H 63.7002 -2.84104 -3.62797 0
M  V30 637 H 62.0152 -2.44089 -3.37356 0
M  V30 638 H 64.6122 -0.461126 -5.32708 0
M  V30 639 H 64.9552 0.731586 -4.09821 0
M  V30 640 H 65.4882 -0.950786 -3.8627 0
M  V30 641 H 62.2272 -3.38335 -5.61435 0
M  V30 642 H 61.7472 -1.67687 -5.75883 0
M  V30 643 H 63.4262 -2.16588 -6.09671 0
M  V30 644 N 63.5583 1.46682 -0.576371 0
M  V30 645 C 64.7863 2.06798 -0.0649635 0
M  V30 646 C 65.2013 1.42612 1.23723 0
M  V30 647 O 64.5583 0.529203 1.74659 0
M  V30 648 C 64.6093 3.6132 0.114202 0
M  V30 649 O 64.3303 4.23104 -1.13644 0
M  V30 650 C 65.8313 4.38349 0.66069 0
M  V30 651 H 63.0513 0.668778 -0.0545616 0
M  V30 652 H 65.5953 1.88404 -0.795237 0
M  V30 653 H 63.7503 3.79162 0.794673 0
M  V30 654 H 64.1643 5.15894 -0.946253 0
M  V30 655 H 65.6383 5.47081 0.73526 0
M  V30 656 H 66.1153 4.05953 1.67627 0
M  V30 657 H 66.7213 4.25297 0.0152951 0
M  V30 658 N 65.0364 0.313813 1.54444 0
M  V30 659 C 66.2764 -0.292389 2.02298 0
M  V30 660 C 66.6404 -1.50105 1.19719 0
M  V30 661 O 67.8414 -2.17947 1.5733 0
M  V30 662 C 66.1124 -0.627682 3.51845 0
M  V30 663 S 67.6714 -1.21493 4.21646 0
M  V30 664 H 64.4894 -0.0890247 0.705405 0
M  V30 665 H 67.0914 0.444668 1.90376 0
M  V30 666 H 65.7954 0.260265 4.09574 0
M  V30 667 H 65.3264 -1.39519 3.67829 0
M  V30 668 H 67.3414 -2.5022 4.28491 0
M  V30 669 N 66.5145 -1.57545 0.0417849 0
M  V30 670 C 67.9305 -1.56467 -0.314704 0
M  V30 671 C 68.1305 -1.04859 -1.72066 0
M  V30 672 O 67.1865 -0.700983 -2.42575 0
M  V30 673 C 68.4995 -3.00317 -0.15174 0
M  V30 674 C 70.0475 -3.12201 -0.223553 0
M  V30 675 C 70.5225 -4.57913 -0.0892295 0
M  V30 676 N 72.0135 -4.6297 -0.145808 0
M  V30 677 C 72.7485 -5.73362 -0.0658459 0
M  V30 678 N 72.2445 -6.92769 0.0659282 0
M  V30 679 N 74.0375 -5.6197 -0.12075 0
M  V30 680 H 66.1885 -1.89416 0.961014 0
M  V30 681 H 68.4515 -0.871862 0.372237 0
M  V30 682 H 68.1575 -3.42073 0.817254 0
M  V30 683 H 68.0315 -3.65892 -0.916692 0
M  V30 684 H 70.4185 -2.70349 -1.18301 0
M  V30 685 H 70.4995 -2.49323 0.571994 0
M  V30 686 H 70.1435 -5.00448 0.866867 0
M  V30 687 H 70.0735 -5.18786 -0.903802 0
M  V30 688 H 72.5645 -3.7709 -0.247286 0
M  V30 689 H 72.8775 -7.72707 0.119905 0
M  V30 690 H 71.2225 -6.94927 0.100885 0
M  V30 691 H 74.4135 -4.67572 -0.222187 0
M  V30 692 H 74.5865 -6.47977 -0.0549735 0
M  V30 693 N 67.9926 0.231505 -1.5589 0
M  V30 694 C 68.9556 1.27028 -1.90779 0
M  V30 695 C 69.9556 1.40308 -0.785507 0
M  V30 696 O 71.1456 1.38744 -1.05336 0
M  V30 697 C 68.2776 2.64566 -2.14983 0
M  V30 698 H 69.4706 0.973017 -2.83677 0
M  V30 699 H 67.0236 0.471486 -1.49019 0
M  V30 700 H 67.7586 2.99406 -1.24604 0
M  V30 701 H 67.5436 2.56305 -2.96732 0
M  V30 702 H 69.0336 3.39543 -2.43105 0
M  V30 703 N 69.4707 1.49531 0.497807 0
M  V30 704 C 70.6957 1.63159 1.28039 0
M  V30 705 C 71.1207 0.30418 1.85624 0
M  V30 706 O 70.4787 -0.728618 1.66015 0
M  V30 707 C 70.5267 2.70537 2.38416 0
M  V30 708 O 69.6307 2.29931 3.42353 0
M  V30 709 H 68.9717 0.546001 0.377861 0
M  V30 710 H 71.5017 1.9574 0.59558 0
M  V30 711 H 71.5117 2.92802 2.84132 0
M  V30 712 H 70.1867 3.6689 1.95869 0
M  V30 713 H 68.7637 2.18009 3.02533 0
M  V30 714 N 70.9488 -0.749086 1.3866 0
M  V30 715 C 71.8808 -1.87273 1.32142 0
M  V30 716 C 72.8938 -1.61127 0.232787 0
M  V30 717 O 74.0828 -1.71623 0.49069 0
M  V30 718 C 71.1828 -3.23005 1.02571 0
M  V30 719 C 70.3558 -3.7662 2.22433 0
M  V30 720 C 69.4148 -4.90879 1.89537 0
M  V30 721 O 68.4408 -5.05276 2.62078 0
M  V30 722 N 69.6428 -5.74198 0.853031 0
M  V30 723 H 72.4078 -1.93373 2.28969 0
M  V30 724 H 69.9688 -0.929216 1.32579 0
M  V30 725 H 71.9608 -3.96992 0.786085 0
M  V30 726 H 70.5308 -3.12262 0.145249 0
M  V30 727 H 69.7508 -2.94147 2.62434 0
M  V30 728 H 71.0388 -4.09173 3.02415 0
M  V30 729 H 70.4368 -5.6514 0.25155 0
M  V30 730 H 68.9938 -6.48313 0.67329 0
M  V30 731 N 72.4269 -1.23603 -0.977757 0
M  V30 732 C 73.7039 -0.977897 -1.69401 0
M  V30 733 C 74.0839 0.502738 -2.05026 0
M  V30 734 O 73.4319 1.47459 -1.74551 0
M  V30 735 C 73.6419 -1.89077 -2.93345 0
M  V30 736 C 74.9899 -2.15579 -3.65802 0
M  V30 737 O 76.0139 -1.86648 -3.03383 0
M  V30 738 O 74.8729 -2.64658 -4.78141 0
M  V30 739 H 71.9669 -0.369025 -0.740101 0
M  V30 740 H 74.5129 -1.34657 -1.03274 0
M  V30 741 H 73.2849 -2.89158 -2.63634 0
M  V30 742 H 72.9079 -1.52463 -3.67207 0
M  V30 743 N 73.905 1.17692 -1.04816 0
M  V30 744 C 75.154 1.87192 -0.751132 0
M  V30 745 C 75.467 1.8169 0.724441 0
M  V30 746 O 76.673 2.46625 1.13527 0
M  V30 747 C 75.129 3.35857 -1.29338 0
M  V30 748 C 74.737 3.4987 -2.79812 0
M  V30 749 C 76.481 4.10709 -1.07322 0
M  V30 750 C 74.388 4.92536 -3.27356 0
M  V30 751 H 73.318 0.701162 -0.277288 0
M  V30 752 H 75.969 1.32932 -1.26496 0
M  V30 753 H 74.351 3.89631 -0.707376 0
M  V30 754 H 75.525 3.06332 -3.44235 0
M  V30 755 H 73.84 2.88433 -3.00325 0
M  V30 756 H 76.437 5.15952 -1.4035 0
M  V30 757 H 76.78 4.16299 -0.0108001 0
M  V30 758 H 77.313 3.6313 -1.62423 0
M  V30 759 H 74.052 4.92119 -4.33012 0
M  V30 760 H 73.572 5.3676 -2.67673 0
M  V30 761 H 75.251 5.61288 -3.21815 0
M  V30 762 N 75.3831 0.828654 1.34056 0
M  V30 763 C 76.6081 0.431637 2.02859 0
M  V30 764 C 77.0331 -0.956339 1.61975 0
M  V30 765 O 76.3911 -1.62338 0.807228 0
M  V30 766 C 76.4391 0.548323 3.56407 0
M  V30 767 O 75.5431 -0.429556 4.10157 0
M  V30 768 H 74.8841 0.176886 0.640006 0
M  V30 769 H 77.4141 1.12066 1.71179 0
M  V30 770 H 77.4241 0.426196 4.05768 0
M  V30 771 H 76.0991 1.5606 3.8551 0
M  V30 772 H 74.6761 -0.265836 3.71951 0
M  V30 773 N 76.8612 -1.46375 0.584142 0
M  V30 774 C 77.8092 -2.32042 -0.161047 0
M  V30 775 C 78.8032 -1.44569 -0.882966 0
M  V30 776 O 80.0092 -1.61186 -0.801191 0
M  V30 777 H 76.3842 -0.748659 -0.0708033 0
M  V30 778 H 78.3552 -2.92704 0.580269 0
M  V30 779 C 77.1042 -3.27762 -1.1605 0
M  V30 780 H 76.4272 -3.95051 -0.614419 0
M  V30 781 H 77.8672 -3.90481 -1.65228 0
M  V30 782 C 76.3262 -2.53218 -2.22221 0
M  V30 783 O 76.8562 -2.29628 -3.29597 0
M  V30 784 N 75.0622 -2.13756 -1.96868 0
M  V30 785 H 74.6092 -2.33142 -1.09557 0
M  V30 786 H 74.5672 -1.642 -2.68115 0
M  V30 787 N 78.3393 -0.321999 -1.54275 0
M  V30 788 C 79.5693 0.282642 -2.04658 0
M  V30 789 C 79.9773 1.46453 -1.19784 0
M  V30 790 O 79.3203 1.82367 -0.220932 0
M  V30 791 C 79.3823 0.781857 -3.50895 0
M  V30 792 C 79.0463 -0.277517 -4.56157 0
M  V30 793 C 80.0433 -1.11307 -5.07845 0
M  V30 794 C 77.7283 -0.425256 -5.00497 0
M  V30 795 C 79.7223 -2.08211 -6.02434 0
M  V30 796 C 77.4093 -1.39771 -5.94901 0
M  V30 797 C 78.4073 -2.2246 -6.45756 0
M  V30 798 O 78.0953 -3.18054 -7.38307 0
M  V30 799 H 77.8273 0.0622636 -0.673126 0
M  V30 800 H 80.3813 -0.465792 -2.00049 0
M  V30 801 H 78.6113 1.58118 -3.52896 0
M  V30 802 H 80.3003 1.30467 -3.84361 0
M  V30 803 H 81.0663 -1.00991 -4.74369 0
M  V30 804 H 76.9453 0.20847 -4.60528 0
M  V30 805 H 80.4893 -2.72791 -6.42052 0
M  V30 806 H 76.3863 -1.50152 -6.27794 0
M  V30 807 H 77.1543 -3.13275 -7.56175 0
M  V30 808 N 79.8174 1.5752 -0.0501392 0
M  V30 809 C 80.7474 2.14502 0.922566 0
M  V30 810 C 81.7284 1.06642 1.3252 0
M  V30 811 O 82.9134 1.34577 1.4001 0
M  V30 812 C 80.0434 2.68916 2.19776 0
M  V30 813 C 78.9974 3.8175 1.93523 0
M  V30 814 C 78.3234 4.22677 3.27487 0
M  V30 815 C 79.6234 5.06932 1.25765 0
M  V30 816 H 81.3174 2.9603 0.447952 0
M  V30 817 H 78.8634 1.42401 0.214024 0
M  V30 818 H 80.8164 3.07419 2.88222 0
M  V30 819 H 79.5404 1.84578 2.69441 0
M  V30 820 H 78.1994 3.43718 1.27489 0
M  V30 821 H 77.8474 3.35291 3.74952 0
M  V30 822 H 77.5474 4.98725 3.1072 0
M  V30 823 H 79.0714 4.63779 3.97166 0
M  V30 824 H 80.4854 5.42888 1.84244 0
M  V30 825 H 78.8824 5.88116 1.19328 0
M  V30 826 H 79.9524 4.84337 0.233536 0
M  V30 827 N 81.2955 -0.223234 1.56011 0
M  V30 828 C 82.2585 -1.26014 1.9145 0
M  V30 829 C 83.2585 -1.3989 0.792937 0
M  V30 830 O 84.4485 -1.38184 1.0607 0
M  V30 831 C 81.5805 -2.63422 2.16383 0
M  V30 832 H 82.7735 -0.95796 2.84189 0
M  V30 833 H 80.3265 -0.463576 1.49267 0
M  V30 834 H 81.0615 -2.98741 1.2619 0
M  V30 835 H 80.8465 -2.54728 2.98088 0
M  V30 836 H 82.3365 -3.38249 2.44903 0
M  V30 837 N 82.7736 -1.49793 -0.48987 0
M  V30 838 C 84.0196 -1.61049 -1.24236 0
M  V30 839 C 84.3746 -0.298412 -1.90072 0
M  V30 840 O 83.6676 0.702262 -1.78266 0
M  V30 841 C 83.8616 -2.71488 -2.32441 0
M  V30 842 C 83.6906 -4.13308 -1.77218 0
M  V30 843 C 82.4606 -4.79955 -1.58023 0
M  V30 844 C 84.6586 -4.98176 -1.27772 0
M  V30 845 N 82.6406 -6.06052 -0.978465 0
M  V30 846 C 84.0116 -6.14843 -0.798 0
M  V30 847 C 86.0666 -4.84091 -1.16449 0
M  V30 848 C 84.7696 -7.18975 -0.216245 0
M  V30 849 C 86.7956 -5.88382 -0.596698 0
M  V30 850 C 86.1576 -7.04285 -0.127262 0
M  V30 851 H 82.2566 -0.643611 -0.444172 0
M  V30 852 H 84.8406 -1.86842 -0.54754 0
M  V30 853 H 83.0116 -2.47449 -2.99372 0
M  V30 854 H 84.7436 -2.72205 -2.99477 0
M  V30 855 H 81.4986 -4.36936 -1.82712 0
M  V30 856 H 81.9226 -6.73407 -0.696534 0
M  V30 857 H 86.5646 -3.94786 -1.5134 0
M  V30 858 H 84.2826 -8.0797 0.144903 0
M  V30 859 H 87.8686 -5.79545 -0.511716 0
M  V30 860 H 86.7486 -7.83606 0.30523 0
M  V30 861 N 84.2517 0.741722 -1.39055 0
M  V30 862 C 85.4987 1.50114 -1.35912 0
M  V30 863 C 85.8267 1.94443 0.0470937 0
M  V30 864 O 85.0817 1.66612 1.02659 0
M  V30 865 C 85.3807 2.7592 -2.27163 0
M  V30 866 C 85.0467 2.50493 -3.74919 0
M  V30 867 C 83.7087 2.43267 -4.1518 0
M  V30 868 C 86.0607 2.28585 -4.684 0
M  V30 869 C 83.3887 2.12166 -5.46994 0
M  V30 870 C 85.7407 1.99002 -6.00484 0
M  V30 871 C 84.4047 1.90241 -6.39816 0
M  V30 872 H 83.6747 0.549306 -0.497336 0
M  V30 873 H 86.3217 0.851896 -1.71508 0
M  V30 874 H 84.6267 3.45553 -1.84663 0
M  V30 875 H 86.3237 3.33923 -2.22028 0
M  V30 876 H 82.9137 2.56992 -3.43006 0
M  V30 877 H 87.0977 2.33139 -4.38132 0
M  V30 878 H 82.3537 2.03901 -5.76398 0
M  V30 879 H 86.5277 1.81057 -6.72452 0
M  V30 880 H 84.1547 1.65907 -7.41875 0
M  V30 881 N 85.7298 1.2412 0.971189 0
M  V30 882 C 86.6618 0.988349 2.06795 0
M  V30 883 C 87.6748 -0.0409541 1.62748 0
M  V30 884 O 88.8638 0.195673 1.77424 0
M  V30 885 C 85.9638 0.469023 3.35639 0
M  V30 886 C 85.1368 1.56065 4.08611 0
M  V30 887 C 84.1958 1.04458 5.15728 0
M  V30 888 O 83.2218 1.73553 5.42096 0
M  V30 889 N 84.4238 -0.122817 5.8037 0
M  V30 890 H 87.1888 1.93265 2.29061 0
M  V30 891 H 84.7498 1.15102 1.13856 0
M  V30 892 H 86.7418 0.108613 4.04554 0
M  V30 893 H 85.3118 -0.380919 3.1027 0
M  V30 894 H 84.5318 2.09341 3.34021 0
M  V30 895 H 85.8198 2.29449 4.54126 0
M  V30 896 H 85.2178 -0.700563 5.61345 0
M  V30 897 H 83.7748 -0.424404 6.50417 0
M  V30 898 N 87.2079 -1.17134 1.05439 0
M  V30 899 C 88.1399 -2.2078 0.615539 0
M  V30 900 C 89.1529 -1.59584 -0.322001 0
M  V30 901 O 90.3419 -1.78133 -0.114344 0
M  V30 902 C 87.4419 -3.38691 -0.118938 0
M  V30 903 C 86.6149 -4.29454 0.829924 0
M  V30 904 C 85.6739 -5.26024 0.136258 0
M  V30 905 O 84.6999 -5.63952 0.77115 0
M  V30 906 N 85.9019 -5.69487 -1.1254 0
M  V30 907 H 88.6669 -2.59052 1.50705 0
M  V30 908 H 86.2279 -1.32058 0.936603 0
M  V30 909 H 88.2199 -4.00329 -0.593179 0
M  V30 910 H 86.7899 -2.98996 -0.91215 0
M  V30 911 H 86.0099 -3.65211 1.48373 0
M  V30 912 H 87.2979 -4.86984 1.47392 0
M  V30 913 H 86.6959 -5.4075 -1.6615 0
M  V30 914 H 85.2529 -6.33257 -1.54366 0
M  V30 915 N 88.686 -0.835752 -1.33615 0
M  V30 916 C 89.633 -0.26473 -2.29277 0
M  V30 917 C 90.603 0.617712 -1.54187 0
M  V30 918 O 91.788 0.556641 -1.825 0
M  V30 919 C 88.928 0.556777 -3.40579 0
M  V30 920 C 88.041 -0.349339 -4.30585 0
M  V30 921 C 87.176 0.482969 -5.29 0
M  V30 922 C 86.215 -0.421732 -6.10645 0
M  V30 923 N 85.352 0.372262 -7.01112 0
M  V30 924 H 90.192 -1.08582 -2.77514 0
M  V30 925 H 87.729 -0.546927 -1.36554 0
M  V30 926 H 89.687 1.04852 -4.03809 0
M  V30 927 H 88.317 1.34286 -2.93542 0
M  V30 928 H 87.369 -0.959372 -3.68104 0
M  V30 929 H 88.681 -1.04445 -4.87742 0
M  V30 930 H 87.835 1.03866 -5.97743 0
M  V30 931 H 86.574 1.21153 -4.72412 0
M  V30 932 H 85.579 -0.989464 -5.40823 0
M  V30 933 H 86.804 -1.14861 -6.69316 0
M  V30 934 H 84.75 1.08426 -6.46977 0
M  V30 935 H 84.667 -0.264198 -7.55538 0
M  V30 936 H 85.935 0.910293 -7.74167 0
M  V30 937 N 90.1641 1.46063 -0.591896 0
M  V30 938 C 91.5751 1.85944 -0.167822 0
M  V30 939 C 91.9261 1.49429 1.27143 0
M  V30 940 O 91.0511 0.913515 1.96173 0
M  V30 941 C 91.6461 3.37489 -0.297794 0
M  V30 942 C 90.2051 3.76332 0.0714732 0
M  V30 943 C 89.3521 2.7006 -0.629509 0
M  V30 944 H 92.3031 1.37087 -0.799555 0
M  V30 945 H 92.3241 3.77532 0.474349 0
M  V30 946 H 91.8361 3.64034 -1.3454 0
M  V30 947 H 89.9371 3.55405 1.11886 0
M  V30 948 H 90.0501 4.78088 -0.311245 0
M  V30 949 H 88.4141 2.54607 -0.0687867 0
M  V30 950 H 89.1971 2.99444 -1.67894 0
M  V30 951 N 91.6422 0.330177 1.54103 0
M  V30 952 C 92.8902 -0.269871 2.0029 0
M  V30 953 C 93.2112 -1.52133 1.21986 0
M  V30 954 O 92.4812 -1.93212 0.323438 0
M  V30 955 H 91.0612 -0.10271 0.739905 0
M  V30 956 H 93.7232 0.448249 1.89675 0
M  V30 957 H 92.8192 -0.52166 3.07709 0
M  V30 958 N 93.1203 -1.57491 0.0584922 0
M  V30 959 C 94.0673 -2.11958 -0.913376 0
M  V30 960 C 95.0373 -1.02875 -1.30407 0
M  V30 961 O 96.2223 -1.30464 -1.39226 0
M  V30 962 C 93.3623 -2.67497 -2.18035 0
M  V30 963 C 92.4753 -3.90691 -1.84349 0
M  V30 964 C 91.6103 -4.3452 -3.05559 0
M  V30 965 C 90.6493 -5.50395 -2.67827 0
M  V30 966 N 89.7863 -5.89244 -3.81754 0
M  V30 967 H 94.6263 -2.94704 -0.442017 0
M  V30 968 H 92.1633 -1.45643 -0.206545 0
M  V30 969 H 94.1213 -2.978 -2.92183 0
M  V30 970 H 92.7513 -1.87537 -2.62735 0
M  V30 971 H 91.8033 -3.66934 -1.00319 0
M  V30 972 H 93.1153 -4.7489 -1.5258 0
M  V30 973 H 92.2693 -4.66414 -3.87998 0
M  V30 974 H 91.0083 -3.49147 -3.40511 0
M  V30 975 H 90.0133 -5.18165 -1.83806 0
M  V30 976 H 91.2383 -6.3749 -2.34059 0
M  V30 977 H 89.1843 -5.06823 -4.16493 0
M  V30 978 H 89.1013 -6.68151 -3.53708 0
M  V30 979 H 90.3693 -6.25756 -4.64811 0
M  V30 980 N 94.5984 0.214957 -1.56127 0
M  V30 981 C 95.5614 1.24997 -1.92116 0
M  V30 982 C 96.5614 1.39467 -0.800344 0
M  V30 983 O 97.7514 1.37619 -1.06802 0
M  V30 984 C 94.8834 2.62271 -2.17777 0
M  V30 985 H 96.0764 0.942875 -2.84693 0
M  V30 986 H 93.6294 0.455654 -1.49511 0
M  V30 987 H 94.3644 2.98068 -1.27773 0
M  V30 988 H 94.1494 2.53143 -2.99434 0
M  V30 989 H 95.6394 3.36946 -2.46693 0
M  V30 990 N 96.0765 1.50051 0.48192 0
M  V30 991 C 97.4875 1.5348 1.06305 0
M  V30 992 C 97.8385 0.331997 1.93371 0
M  V30 993 O 96.9635 -0.556256 2.09129 0
M  V30 994 C 97.5585 2.7813 1.93466 0
M  V30 995 C 96.1175 2.84275 2.46707 0
M  V30 996 C 95.2645 2.47637 1.24785 0
M  V30 997 H 98.2155 1.56472 0.264995 0
M  V30 998 H 98.2365 2.59372 2.78399 0
M  V30 999 H 97.7485 3.65654 1.30072 0
M  V30 1000 H 95.8495 2.01077 3.13686 0
M  V30 1001 H 95.9625 3.8691 2.82555 0
M  V30 1002 H 94.3265 1.99835 1.57918 0
M  V30 1003 H 95.1095 3.37457 0.630694 0
M  V30 1004 N 97.5546 -0.734337 1.39446 0
M  V30 1005 C 98.5016 -1.84835 1.38219 0
M  V30 1006 C 99.4716 -1.64331 0.24179 0
M  V30 1007 O 100.657 -1.85728 0.437002 0
M  V30 1008 C 97.7966 -3.22355 1.23212 0
M  V30 1009 C 96.9096 -3.5456 2.46801 0
M  V30 1010 C 96.0446 -4.81485 2.24377 0
M  V30 1011 C 95.0836 -5.06536 3.43639 0
M  V30 1012 N 94.2206 -6.24665 3.20528 0
M  V30 1013 H 99.0606 -1.85219 2.33448 0
M  V30 1014 H 96.5976 -0.905039 1.15963 0
M  V30 1015 H 98.5556 -4.0174 1.12522 0
M  V30 1016 H 97.1856 -3.21248 0.316121 0
M  V30 1017 H 96.2376 -2.69872 2.68092 0
M  V30 1018 H 97.5496 -3.6899 3.3563 0
M  V30 1019 H 96.7036 -5.68852 2.10933 0
M  V30 1020 H 95.4426 -4.6923 1.32944 0
M  V30 1021 H 94.4476 -4.17632 3.5758 0
M  V30 1022 H 95.6726 -5.20676 4.35974 0
M  V30 1023 H 93.6186 -6.13696 2.3176 0
M  V30 1024 H 93.5356 -6.39685 4.02913 0
M  V30 1025 H 94.8036 -7.14868 3.10779 0
M  V30 1026 N 99.0327 -1.24633 -0.964593 0
M  V30 1027 C 100.258 -1.11596 -1.74818 0
M  V30 1028 C 100.683 0.32723 -1.85232 0
M  V30 1029 O 100.041 1.23695 -1.32549 0
M  V30 1030 C 100.089 -1.76397 -3.1451 0
M  V30 1031 O 99.1927 -1.03685 -3.99153 0
M  V30 1032 H 98.5337 -0.390196 -0.537255 0
M  V30 1033 H 101.064 -1.65002 -1.20977 0
M  V30 1034 H 101.074 -1.8228 -3.65018 0
M  V30 1035 H 99.7487 -2.81401 -3.06246 0
M  V30 1036 H 98.3257 -1.05611 -3.57632 0
M  V30 1037 N 100.511 1.16574 -1.06058 0
M  V30 1038 C 101.441 2.23057 -0.690488 0
M  V30 1039 C 102.422 1.67141 0.315901 0
M  V30 1040 O 103.607 1.93253 0.191556 0
M  V30 1041 C 100.737 3.47222 -0.073625 0
M  V30 1042 C 99.6908 4.16016 -1.00573 0
M  V30 1043 C 99.0168 5.34104 -0.252289 0
M  V30 1044 C 100.317 4.67264 -2.33371 0
M  V30 1045 H 102.011 2.54271 -1.58072 0
M  V30 1046 H 99.5568 1.22218 -0.76149 0
M  V30 1047 H 101.51 4.20939 0.19714 0
M  V30 1048 H 100.234 3.15302 0.85161 0
M  V30 1049 H 98.8928 3.44223 -1.2612 0
M  V30 1050 H 98.5408 4.98437 0.675988 0
M  V30 1051 H 98.2408 5.81072 -0.873455 0
M  V30 1052 H 99.7648 6.10599 0.0109857 0
M  V30 1053 H 101.179 5.32573 -2.12223 0
M  V30 1054 H 99.5758 5.24843 -2.90963 0
M  V30 1055 H 100.646 3.83602 -2.96611 0
M  V30 1056 N 101.989 0.842826 1.3317 0
M  V30 1057 C 103.238 0.436738 1.96915 0
M  V30 1058 C 103.551 -1.01025 1.67491 0
M  V30 1059 O 104.757 -1.5212 2.24881 0
M  V30 1060 C 103.213 0.730021 3.52418 0
M  V30 1061 C 102.821 2.19195 3.90714 0
M  V30 1062 C 104.565 0.391076 4.22695 0
M  V30 1063 C 102.472 2.42907 5.39212 0
M  V30 1064 H 101.402 0.15958 0.736919 0
M  V30 1065 H 104.053 1.03196 1.51733 0
M  V30 1066 H 102.435 0.0643755 3.95948 0
M  V30 1067 H 103.609 2.8984 3.58231 0
M  V30 1068 H 101.924 2.49425 3.33431 0
M  V30 1069 H 104.521 0.545817 5.31907 0
M  V30 1070 H 104.864 -0.666294 4.10933 0
M  V30 1071 H 105.397 1.01212 3.84709 0
M  V30 1072 H 102.136 3.47224 5.55982 0
M  V30 1073 H 101.656 1.76827 5.73142 0
M  V30 1074 H 103.335 2.2626 6.06148 0
M  V30 1075 N 103.467 -1.45747 0.599634 0
M  V30 1076 C 104.697 -2.06369 0.0977132 0
M  V30 1077 C 105.105 -1.44624 -1.21985 0
M  V30 1078 O 104.448 -0.551831 -1.75216 0
M  V30 1079 C 104.51 -3.59284 -0.124673 0
M  V30 1080 C 104.174 -4.43318 1.10987 0
M  V30 1081 C 105.171 -4.78796 2.02609 0
M  V30 1082 C 102.856 -4.84194 1.33647 0
M  V30 1083 C 104.85 -5.53997 3.15224 0
M  V30 1084 C 102.537 -5.5915 2.46565 0
M  V30 1085 C 103.535 -5.93968 3.37182 0
M  V30 1086 O 103.223 -6.67405 4.48136 0
M  V30 1087 H 102.955 -0.673122 0.0623153 0
M  V30 1088 H 105.509 -1.88104 0.824981 0
M  V30 1089 H 103.739 -3.75919 -0.906745 0
M  V30 1090 H 105.428 -4.01775 -0.577201 0
M  V30 1091 H 106.194 -4.47781 1.86325 0
M  V30 1092 H 102.073 -4.56534 0.64016 0
M  V30 1093 H 105.617 -5.81091 3.85978 0
M  V30 1094 H 101.514 -5.89579 2.62805 0
M  V30 1095 H 102.282 -6.85847 4.46717 0
M  V30 1096 N 104.945 -0.338344 -1.53925 0
M  V30 1097 C 106.193 0.259245 -2.0043 0
M  V30 1098 C 106.514 1.51484 -1.22791 0
M  V30 1099 O 105.784 1.93037 -0.33368 0
M  V30 1100 H 104.364 0.0987845 -0.740439 0
M  V30 1101 H 107.026 -0.458302 -1.89435 0
M  V30 1102 H 106.122 0.505334 -3.07982 0
M  V30 1103 N 106.423 1.57458 -0.0668435 0
M  V30 1104 C 107.386 2.11323 0.887422 0
M  V30 1105 C 108.386 1.03618 1.22964 0
M  V30 1106 O 109.576 1.29626 1.16373 0
M  V30 1107 C 106.708 2.61048 2.19242 0
M  V30 1108 H 107.901 2.96942 0.420194 0
M  V30 1109 H 105.454 1.55239 0.181793 0
M  V30 1110 H 106.189 1.78868 2.70512 0
M  V30 1111 H 105.974 3.39769 1.95702 0
M  V30 1112 H 107.464 3.02814 2.87565 0
M  V30 1113 N 107.901 -0.206675 1.56239 0
M  V30 1114 C 109.126 -0.949474 1.8439 0
M  V30 1115 C 109.551 -1.76549 0.649016 0
M  V30 1116 O 108.909 -1.76782 -0.402231 0
M  V30 1117 C 108.957 -1.83078 3.10668 0
M  V30 1118 O 108.061 -2.9281 2.90407 0
M  V30 1119 H 107.402 -0.268033 0.607499 0
M  V30 1120 H 109.932 -0.215488 2.03462 0
M  V30 1121 H 109.942 -2.2377 3.41161 0
M  V30 1122 H 108.617 -1.23112 3.97261 0
M  V30 1123 H 107.194 -2.55956 2.71184 0
M  V30 1124 N 109.379 -1.50304 -0.473955 0
M  V30 1125 C 110.604 -1.65175 -1.25427 0
M  V30 1126 C 111.029 -0.333673 -1.85117 0
M  V30 1127 O 110.387 0.702114 -1.67153 0
M  V30 1128 C 110.435 -2.74295 -2.34082 0
M  V30 1129 O 109.539 -2.35349 -3.38651 0
M  V30 1130 H 108.88 -0.551944 -0.369126 0
M  V30 1131 H 111.41 -1.96662 -0.564364 0
M  V30 1132 H 111.42 -2.97285 -2.79438 0
M  V30 1133 H 110.095 -3.69959 -1.90008 0
M  V30 1134 H 108.672 -2.22794 -2.99027 0
M  V30 1135 N 110.857 0.726932 -1.39834 0
M  V30 1136 C 111.787 1.85405 -1.41941 0
M  V30 1137 C 112.768 1.67751 -0.281728 0
M  V30 1138 O 113.953 1.8795 -0.488717 0
M  V30 1139 C 111.083 3.23243 -1.2701 0
M  V30 1140 C 110.037 3.55549 -2.38262 0
M  V30 1141 C 109.363 4.9241 -2.08415 0
M  V30 1142 C 110.663 3.577 -3.80589 0
M  V30 1143 H 112.357 1.83899 -2.36266 0
M  V30 1144 H 109.903 0.883349 -1.13723 0
M  V30 1145 H 111.856 4.01775 -1.27103 0
M  V30 1146 H 110.58 3.25296 -0.291564 0
M  V30 1147 H 109.239 2.79351 -2.37399 0
M  V30 1148 H 108.887 4.91052 -1.0898 0
M  V30 1149 H 108.587 5.14992 -2.82943 0
M  V30 1150 H 110.111 5.73289 -2.10171 0
M  V30 1151 H 111.525 4.26293 -3.83337 0
M  V30 1152 H 109.922 3.91804 -4.54543 0
M  V30 1153 H 110.992 2.57328 -4.10987 0
M  V30 1154 N 112.336 1.25143 0.95797 0
M  V30 1155 C 113.268 1.01023 2.05735 0
M  V30 1156 C 114.281 -0.0236902 1.62783 0
M  V30 1157 O 115.47 0.21448 1.77207 0
M  V30 1158 C 112.57 0.504595 3.35122 0
M  V30 1159 C 111.743 1.6039 4.06932 0
M  V30 1160 C 110.802 1.09922 5.14591 0
M  V30 1161 O 109.828 1.79293 5.40225 0
M  V30 1162 N 111.03 -0.0612545 5.80468 0
M  V30 1163 H 113.795 1.95683 2.26998 0
M  V30 1164 H 111.356 1.16303 1.12629 0
M  V30 1165 H 113.348 0.151516 4.04416 0
M  V30 1166 H 111.918 -0.347989 3.10657 0
M  V30 1167 H 111.138 2.12872 3.31782 0
M  V30 1168 H 112.426 2.34252 4.51667 0
M  V30 1169 H 111.824 -0.640985 5.62057 0
M  V30 1170 H 110.381 -0.355395 6.5083 0
M  V30 1171 N 113.814 -1.1601 1.06675 0
M  V30 1172 C 115.039 -1.91068 0.806706 0
M  V30 1173 C 115.464 -1.77112 -0.633485 0
M  V30 1174 O 114.822 -1.09908 -1.44187 0
M  V30 1175 C 114.87 -3.39655 1.21106 0
M  V30 1176 O 113.974 -4.10893 0.352189 0
M  V30 1177 H 113.315 -0.595125 0.294486 0
M  V30 1178 H 115.845 -1.46955 1.42356 0
M  V30 1179 H 115.855 -3.90434 1.18428 0
M  V30 1180 H 114.53 -3.49132 2.26008 0
M  V30 1181 H 113.107 -3.70285 0.440868 0
M  V30 1182 N 115.292 -0.849877 -1.32721 0
M  V30 1183 C 116.54 -0.450032 -1.97026 0
M  V30 1184 C 116.861 0.996604 -1.67609 0
M  V30 1185 O 116.131 1.6958 -0.980786 0
M  V30 1186 H 114.711 -0.163426 -0.728904 0
M  V30 1187 H 117.373 -1.08526 -1.6189 0
M  V30 1188 H 116.469 -0.591146 -3.0645 0
M  V30 1189 N 116.77 1.45427 -0.607355 0
M  V30 1190 C 118.016 2.0254 -0.102607 0
M  V30 1191 C 118.349 1.47478 1.26348 0
M  V30 1192 O 117.624 0.64939 1.83339 0
M  V30 1193 C 117.907 3.60044 -0.0634347 0
M  V30 1194 C 117.76 4.2544 -1.46017 0
M  V30 1195 C 119.079 4.35646 0.624514 0
M  V30 1196 H 116.198 0.73598 -0.0387607 0
M  V30 1197 H 118.84 1.73284 -0.779282 0
M  V30 1198 H 116.99 3.85101 0.512808 0
M  V30 1199 H 118.662 4.11569 -2.08347 0
M  V30 1200 H 116.905 3.83849 -2.02094 0
M  V30 1201 H 117.576 5.34342 -1.385 0
M  V30 1202 H 120.052 4.15882 0.134723 0
M  V30 1203 H 118.928 5.45376 0.621028 0
M  V30 1204 H 119.189 4.08501 1.69055 0
M  V30 1205 N 118.248 0.346503 1.53744 0
M  V30 1206 C 119.18 -0.543316 2.22667 0
M  V30 1207 C 120.193 -1.06159 1.23427 0
M  V30 1208 O 121.382 -0.971235 1.49764 0
M  V30 1209 C 118.482 -1.76076 2.89569 0
M  V30 1210 C 117.655 -1.37727 4.15151 0
M  V30 1211 C 116.714 -2.45471 4.65436 0
M  V30 1212 O 115.74 -2.08655 5.29577 0
M  V30 1213 N 116.942 -3.7677 4.41616 0
M  V30 1214 H 119.707 0.0469703 2.99663 0
M  V30 1215 H 117.268 0.170766 1.60997 0
M  V30 1216 H 119.26 -2.47593 3.20125 0
M  V30 1217 H 117.83 -2.25835 2.16142 0
M  V30 1218 H 117.05 -0.492746 3.91108 0
M  V30 1219 H 118.338 -1.09708 4.96832 0
M  V30 1220 H 117.736 -4.09467 3.90325 0
M  V30 1221 H 116.293 -4.44448 4.7677 0
M  V30 1222 N 119.726 -1.57421 0.075193 0
M  V30 1223 C 120.951 -1.98364 -0.605515 0
M  V30 1224 C 121.376 -0.953383 -1.62149 0
M  V30 1225 O 120.734 0.0806053 -1.81121 0
M  V30 1226 C 120.782 -3.38332 -1.24756 0
M  V30 1227 O 119.886 -3.37959 -2.36342 0
M  V30 1228 H 119.227 -0.645553 -0.155428 0
M  V30 1229 H 121.757 -2.04044 0.150714 0
M  V30 1230 H 121.767 -3.75591 -1.5936 0
M  V30 1231 H 120.442 -4.12846 -0.503129 0
M  V30 1232 H 119.019 -3.12474 -2.03506 0
M  V30 1233 N 121.204 0.198386 -1.56346 0
M  V30 1234 C 122.151 1.24589 -1.94284 0
M  V30 1235 C 123.121 1.454 -0.802997 0
M  V30 1236 O 124.306 1.58588 -1.06087 0
M  V30 1237 C 121.446 2.58631 -2.28482 0
M  V30 1238 C 120.559 2.45426 -3.55514 0
M  V30 1239 C 119.694 3.7215 -3.79049 0
M  V30 1240 C 118.733 3.53763 -4.99518 0
M  V30 1241 N 117.87 4.72491 -5.19323 0
M  V30 1242 H 122.71 0.915356 -2.83593 0
M  V30 1243 H 120.247 0.440629 -1.40346 0
M  V30 1244 H 122.205 3.3672 -2.46324 0
M  V30 1245 H 120.835 2.89734 -1.42317 0
M  V30 1246 H 119.887 1.58652 -3.45737 0
M  V30 1247 H 121.199 2.27772 -4.43758 0
M  V30 1248 H 120.353 4.58679 -3.97113 0
M  V30 1249 H 119.092 3.92754 -2.89129 0
M  V30 1250 H 118.097 2.65619 -4.8138 0
M  V30 1251 H 119.322 3.34607 -5.90944 0
M  V30 1252 H 117.268 4.93365 -4.3235 0
M  V30 1253 H 117.185 4.5765 -6.01741 0
M  V30 1254 H 118.453 5.6038 -5.41843 0
M  V30 1255 N 122.682 1.50554 0.465978 0
M  V30 1256 C 123.929 1.61798 1.21768 0
M  V30 1257 C 124.257 0.320696 1.91838 0
M  V30 1258 O 123.512 -0.693724 1.82992 0
M  V30 1259 C 123.811 2.75152 2.28093 0
M  V30 1260 C 123.477 4.15454 1.75239 0
M  V30 1261 C 122.139 4.53628 1.60546 0
M  V30 1262 C 124.491 5.03121 1.36083 0
M  V30 1263 C 121.819 5.77204 1.05128 0
M  V30 1264 C 124.171 6.27249 0.821056 0
M  V30 1265 C 122.835 6.64221 0.660795 0
M  V30 1266 H 122.105 0.592063 0.445582 0
M  V30 1267 H 124.752 1.84503 0.512927 0
M  V30 1268 H 123.057 2.46556 3.04496 0
M  V30 1269 H 124.754 2.81055 2.86023 0
M  V30 1270 H 121.344 3.85341 1.87644 0
M  V30 1271 H 125.528 4.74257 1.46267 0
M  V30 1272 H 120.784 6.0452 0.91462 0
M  V30 1273 H 124.958 6.94537 0.509018 0
M  V30 1274 H 122.585 7.59854 0.229226 0
M  V30 1275 N 124.16 -0.719506 1.40217 0
M  V30 1276 C 125.385 -1.51371 1.4178 0
M  V30 1277 C 125.81 -1.88091 0.0182355 0
M  V30 1278 O 125.168 -1.52997 -0.972707 0
M  V30 1279 C 125.216 -2.768 2.31115 0
M  V30 1280 O 124.32 -3.73349 1.7517 0
M  V30 1281 H 123.661 -0.456529 0.482159 0
M  V30 1282 H 126.191 -0.88644 1.844 0
M  V30 1283 H 126.201 -3.25371 2.46167 0
M  V30 1284 H 124.876 -2.49407 3.3282 0
M  V30 1285 H 123.453 -3.32179 1.69444 0
M  V30 1286 N 125.638 -1.25649 -0.95132 0
M  V30 1287 C 126.886 -1.10375 -1.69298 0
M  V30 1288 C 127.207 0.355339 -1.91735 0
M  V30 1289 O 126.477 1.25188 -1.50681 0
M  V30 1290 H 125.057 -0.405461 -0.627384 0
M  V30 1291 H 127.719 -1.57823 -1.14358 0
M  V30 1292 H 126.815 -1.61465 -2.67087 0
M  V30 1293 N 127.117 1.15442 -1.07289 0
M  V30 1294 C 128.342 1.90638 -0.816828 0
M  V30 1295 C 128.767 1.77445 0.624083 0
M  V30 1296 O 128.125 1.10671 1.43602 0
M  V30 1297 C 128.173 3.39008 -1.22906 0
M  V30 1298 O 127.277 4.10701 -0.373975 0
M  V30 1299 H 126.618 0.593555 -0.297638 0
M  V30 1300 H 129.148 1.46198 -1.43134 0
M  V30 1301 H 129.158 3.89801 -1.20497 0
M  V30 1302 H 127.833 3.47929 -2.27856 0
M  V30 1303 H 126.41 3.70046 -0.460499 0
M  V30 1304 N 128.595 0.856903 1.32268 0
M  V30 1305 C 129.843 0.460474 1.96784 0
M  V30 1306 C 130.164 -0.987701 1.68135 0
M  V30 1307 O 129.434 -1.69058 0.989765 0
M  V30 1308 H 128.014 0.167289 0.728027 0
M  V30 1309 H 130.676 1.09383 1.61312 0
M  V30 1310 H 129.772 0.60739 3.06133 0
M  V30 1311 N 130.073 -1.45103 0.615059 0
M  V30 1312 C 131.298 -2.07064 0.117988 0
M  V30 1313 C 131.723 -1.4554 -1.19163 0
M  V30 1314 O 131.081 -0.550855 -1.72729 0
M  V30 1315 C 131.129 -3.606 -0.000288387 0
M  V30 1316 O 130.233 -3.98847 -1.04856 0
M  V30 1317 H 129.574 -0.659467 0.0774581 0
M  V30 1318 H 132.104 -1.86236 0.847186 0
M  V30 1319 H 132.114 -4.07529 -0.196091 0
M  V30 1320 H 130.789 -4.04765 0.955932 0
M  V30 1321 H 129.366 -3.63577 -0.828619 0
M  V30 1322 N 131.551 -0.354651 -1.53558 0
M  V30 1323 C 132.799 0.237972 -2.00694 0
M  V30 1324 C 133.12 1.50173 -1.24391 0
M  V30 1325 O 132.39 1.92673 -0.354135 0
M  V30 1326 H 130.97 0.0909256 -0.741446 0
M  V30 1327 H 133.632 -0.478368 -1.88938 0
M  V30 1328 H 132.728 0.47264 -3.085 0
M  V30 1329 N 133.029 1.57378 -0.0835403 0
M  V30 1330 C 134.257 1.98263 0.59157 0
M  V30 1331 C 134.672 0.962302 1.62435 0
M  V30 1332 O 134.029 -0.049581 1.82433 0
M  V30 1333 C 134.08 3.39214 1.24965 0
M  V30 1334 O 133.801 4.37339 0.258186 0
M  V30 1335 C 135.302 3.95038 2.01147 0
M  V30 1336 H 132.522 0.651773 0.159477 0
M  V30 1337 H 135.066 2.03878 -0.159415 0
M  V30 1338 H 133.221 3.34649 1.95164 0
M  V30 1339 H 133.635 5.19371 0.731734 0
M  V30 1340 H 135.109 4.95848 2.42567 0
M  V30 1341 H 135.586 3.32222 2.87272 0
M  V30 1342 H 136.192 4.0304 1.35789 0
M  V30 1343 N 134.507 -0.190092 1.56449 0
M  V30 1344 C 135.784 -0.935886 1.71757 0
M  V30 1345 C 136.164 -2.01173 0.639726 0
M  V30 1346 O 135.512 -2.25827 -0.348502 0
M  V30 1347 C 135.722 -1.51775 3.1427 0
M  V30 1348 C 137.07 -1.99794 3.74656 0
M  V30 1349 O 138.094 -1.61607 3.1743 0
M  V30 1350 O 136.953 -2.70079 4.751 0
M  V30 1351 H 134.047 -0.439229 0.700719 0
M  V30 1352 H 136.593 -0.179395 1.68749 0
M  V30 1353 H 135.365 -0.742505 3.84191 0
M  V30 1354 H 134.988 -2.33894 3.21527 0
M  V30 1355 N 135.985 -1.50799 -0.457987 0
M  V30 1356 C 137.232 -1.62442 -1.20908 0
M  V30 1357 C 137.56 -0.330865 -1.91665 0
M  V30 1358 O 136.815 0.68401 -1.83357 0
M  V30 1359 C 137.114 -2.76358 -2.2663 0
M  V30 1360 C 136.78 -4.16378 -1.73033 0
M  V30 1361 C 135.442 -4.54473 -1.58138 0
M  V30 1362 C 137.794 -5.03836 -1.33413 0
M  V30 1363 C 135.122 -5.77754 -1.02065 0
M  V30 1364 C 137.474 -6.27676 -0.78778 0
M  V30 1365 C 136.138 -6.64562 -0.625561 0
M  V30 1366 H 135.408 -0.594417 -0.442435 0
M  V30 1367 H 138.055 -1.84772 -0.503136 0
M  V30 1368 H 136.36 -2.48167 -3.03184 0
M  V30 1369 H 138.057 -2.82568 -2.84528 0
M  V30 1370 H 134.647 -3.86331 -1.85598 0
M  V30 1371 H 138.831 -4.75026 -1.4375 0
M  V30 1372 H 134.087 -6.04997 -0.882547 0
M  V30 1373 H 138.261 -6.94797 -0.472177 0
M  V30 1374 H 135.888 -7.59965 -0.188926 0
M  V30 1375 N 137.463 0.71206 -1.40597 0
M  V30 1376 C 138.691 1.50111 -1.42388 0
M  V30 1377 C 139.106 1.88784 -0.0245395 0
M  V30 1378 O 138.463 1.55681 0.952351 0
M  V30 1379 C 138.514 2.7742 -2.31776 0
M  V30 1380 O 138.235 2.40382 -3.66262 0
M  V30 1381 C 139.736 3.7129 -2.42196 0
M  V30 1382 H 136.956 0.46314 -0.485533 0
M  V30 1383 H 139.5 0.878068 -1.8469 0
M  V30 1384 H 137.655 3.36001 -1.92827 0
M  V30 1385 H 138.069 3.22324 -4.13772 0
M  V30 1386 H 139.543 4.57448 -3.08943 0
M  V30 1387 H 140.02 4.14641 -1.44809 0
M  V30 1388 H 140.626 3.18619 -2.81712 0
M  V30 1389 N 138.941 1.26152 0.944643 0
M  V30 1390 C 139.871 1.09902 2.06019 0
M  V30 1391 C 140.852 0.00519538 1.70099 0
M  V30 1392 O 142.037 0.176583 1.93396 0
M  V30 1393 C 139.167 0.727562 3.39594 0
M  V30 1394 C 138.121 1.77274 3.89561 0
M  V30 1395 C 137.447 1.25569 5.19747 0
M  V30 1396 C 138.747 3.17357 4.14827 0
M  V30 1397 H 140.441 2.03217 2.19871 0
M  V30 1398 H 137.987 0.978452 1.05652 0
M  V30 1399 H 139.94 0.600777 4.17095 0
M  V30 1400 H 138.664 -0.241287 3.25707 0
M  V30 1401 H 137.323 1.88814 3.14237 0
M  V30 1402 H 136.971 0.276783 5.02238 0
M  V30 1403 H 136.671 1.95433 5.54148 0
M  V30 1404 H 138.195 1.1415 5.99835 0
M  V30 1405 H 139.609 3.08914 4.82954 0
M  V30 1406 H 138.006 3.84781 4.60504 0
M  V30 1407 H 139.076 3.63673 3.20734 0
M  V30 1408 N 140.419 -1.14872 1.07899 0
M  V30 1409 C 141.647 -1.89661 0.82683 0
M  V30 1410 C 142.062 -1.78312 -0.620519 0
M  V30 1411 O 141.419 -1.13888 -1.42604 0
M  V30 1412 C 141.47 -3.39817 1.23316 0
M  V30 1413 O 141.191 -3.50845 2.62372 0
M  V30 1414 C 142.692 -4.31615 1.0111 0
M  V30 1415 H 139.912 -0.60092 0.298557 0
M  V30 1416 H 142.456 -1.4551 1.43691 0
M  V30 1417 H 140.611 -3.8161 0.667286 0
M  V30 1418 H 141.025 -4.44076 2.79101 0
M  V30 1419 H 142.499 -5.35367 1.34486 0
M  V30 1420 H 142.976 -4.39169 -0.0522168 0
M  V30 1421 H 143.582 -3.95572 1.56215 0
M  V30 1422 N 141.898 -0.863906 -1.31812 0
M  V30 1423 C 143.147 -0.46801 -1.96195 0
M  V30 1424 C 143.46 0.983474 -1.69077 0
M  V30 1425 O 144.666 1.48523 -2.27273 0
M  V30 1426 C 143.122 -0.785995 -3.51212 0
M  V30 1427 C 142.73 -2.25383 -3.87178 0
M  V30 1428 C 144.474 -0.458274 -4.22019 0
M  V30 1429 C 142.381 -2.51455 -5.3528 0
M  V30 1430 H 141.311 -0.171283 -0.734287 0
M  V30 1431 H 143.962 -1.05597 -1.50072 0
M  V30 1432 H 142.344 -0.127359 -3.95795 0
M  V30 1433 H 143.518 -2.95502 -3.53575 0
M  V30 1434 H 141.833 -2.54698 -3.2942 0
M  V30 1435 H 144.43 -0.630369 -5.30971 0
M  V30 1436 H 144.773 0.600834 -4.11941 0
M  V30 1437 H 145.306 -1.07319 -3.8305 0
M  V30 1438 H 142.045 -3.56025 -5.50387 0
M  V30 1439 H 141.565 -1.85923 -5.70257 0
M  V30 1440 H 143.244 -2.35874 -6.02472 0
M  V30 1441 N 143.376 1.44774 -0.622745 0
M  V30 1442 C 144.601 2.06999 -0.128968 0
M  V30 1443 C 145.026 1.4617 1.1839 0
M  V30 1444 O 144.384 0.560007 1.72434 0
M  V30 1445 C 144.432 3.60595 -0.0188351 0
M  V30 1446 O 143.536 3.99398 1.02739 0
M  V30 1447 H 142.877 0.659047 -0.0809544 0
M  V30 1448 H 145.407 1.85784 -0.85705 0
M  V30 1449 H 145.417 4.07627 0.174476 0
M  V30 1450 H 144.092 4.04252 -0.977384 0
M  V30 1451 H 142.669 3.64011 0.809326 0
M  V30 1452 N 144.854 0.36279 1.53368 0
M  V30 1453 C 146.079 -0.231226 2.06107 0
M  V30 1454 C 146.504 -1.419 1.23474 0
M  V30 1455 O 145.862 -1.79524 0.253128 0
M  V30 1456 C 145.91 -0.605523 3.5548 0
M  V30 1457 O 145.014 -1.70312 3.7559 0
M  V30 1458 H 144.355 -0.034327 0.663112 0
M  V30 1459 H 146.885 0.522584 1.97814 0
M  V30 1460 H 146.895 -0.877314 3.98456 0
M  V30 1461 H 145.57 0.263004 4.15068 0
M  V30 1462 H 144.147 -1.4271 3.44512 0
M  V30 1463 N 146.332 -1.57332 0.0918853 0
M  V30 1464 C 147.262 -2.16872 -0.865371 0
M  V30 1465 C 148.243 -1.10118 -1.29646 0
M  V30 1466 O 149.428 -1.38242 -1.36392 0
M  V30 1467 C 146.558 -2.74649 -2.12569 0
M  V30 1468 C 145.512 -3.86747 -1.83333 0
M  V30 1469 C 144.838 -4.31212 -3.16166 0
M  V30 1470 C 146.138 -5.10089 -1.1228 0
M  V30 1471 H 147.832 -2.97114 -0.369307 0
M  V30 1472 H 145.378 -1.42918 -0.176194 0
M  V30 1473 H 147.331 -3.14952 -2.7997 0
M  V30 1474 H 146.055 -1.91657 -2.64452 0
M  V30 1475 H 144.714 -3.46978 -1.18331 0
M  V30 1476 H 144.362 -3.45115 -3.6593 0
M  V30 1477 H 144.062 -5.06788 -2.97388 0
M  V30 1478 H 145.586 -4.74146 -3.84731 0
M  V30 1479 H 147 -5.47582 -1.69785 0
M  V30 1480 H 145.397 -5.91073 -1.03693 0
M  V30 1481 H 146.467 -4.84786 -0.105041 0
M  V30 1482 N 147.81 0.181792 -1.56548 0
M  V30 1483 C 148.742 1.24956 -1.92142 0
M  V30 1484 C 149.755 1.41022 -0.813422 0
M  V30 1485 O 150.944 1.41212 -1.09186 0
M  V30 1486 C 148.044 2.61981 -2.14987 0
M  V30 1487 C 147.217 2.6735 -3.46183 0
M  V30 1488 C 146.276 3.85664 -3.5798 0
M  V30 1489 O 145.302 3.72148 -4.30691 0
M  V30 1490 N 146.504 5.01683 -2.92053 0
M  V30 1491 H 149.269 0.947329 -2.84334 0
M  V30 1492 H 146.83 0.371629 -1.57577 0
M  V30 1493 H 148.822 3.3958 -2.20154 0
M  V30 1494 H 147.392 2.84637 -1.2923 0
M  V30 1495 H 146.612 1.75925 -3.52766 0
M  V30 1496 H 147.9 2.67939 -4.32534 0
M  V30 1497 H 147.298 5.15564 -2.32832 0
M  V30 1498 H 145.855 5.77181 -3.0283 0
M  V30 1499 N 149.288 1.51039 0.449983 0
M  V30 1500 C 150.699 1.557 1.03026 0
M  V30 1501 C 151.05 0.372939 1.92623 0
M  V30 1502 O 150.175 -0.511771 2.10261 0
M  V30 1503 C 150.77 2.82171 1.87523 0
M  V30 1504 C 149.329 2.89444 2.40622 0
M  V30 1505 C 148.476 2.50228 1.19504 0
M  V30 1506 H 151.427 1.56999 0.231745 0
M  V30 1507 H 151.448 2.65219 2.72835 0
M  V30 1508 H 150.96 3.68331 1.22286 0
M  V30 1509 H 149.061 2.07685 3.0935 0
M  V30 1510 H 149.174 3.92816 2.74285 0
M  V30 1511 H 147.538 2.03139 1.53644 0
M  V30 1512 H 148.321 3.38719 0.558972 0
M  V30 1513 N 150.766 -0.704594 1.40972 0
M  V30 1514 C 151.676 -1.84856 1.44448 0
M  V30 1515 C 152.692 -1.70726 0.335961 0
M  V30 1516 O 153.868 -1.92799 0.582276 0
M  V30 1517 C 150.933 -3.20758 1.31587 0
M  V30 1518 C 149.994 -3.47063 2.52677 0
M  V30 1519 C 149.227 -4.76481 2.4042 0
M  V30 1520 O 149.45 -5.52341 1.42391 0
M  V30 1521 O 148.384 -5.03367 3.30007 0
M  V30 1522 H 152.21 -1.8488 2.40942 0
M  V30 1523 H 149.795 -0.85647 1.22413 0
M  V30 1524 H 151.677 -4.01913 1.26665 0
M  V30 1525 H 150.352 -3.21438 0.382049 0
M  V30 1526 H 149.259 -2.65873 2.63177 0
M  V30 1527 H 150.592 -3.5119 3.44858 0
M  V30 1528 N 152.244 -1.26651 -0.937939 0
M  V30 1529 C 153.521 -1.0313 -1.66204 0
M  V30 1530 C 153.901 0.437256 -2.06522 0
M  V30 1531 O 153.249 1.41831 -1.79154 0
M  V30 1532 C 153.459 -1.98314 -2.87181 0
M  V30 1533 C 154.807 -2.27107 -3.58758 0
M  V30 1534 O 155.831 -1.96205 -2.97291 0
M  V30 1535 O 154.69 -2.79736 -4.69479 0
M  V30 1536 H 151.784 -0.392384 -0.727986 0
M  V30 1537 H 154.33 -1.37874 -0.989382 0
M  V30 1538 H 153.102 -2.97399 -2.54302 0
M  V30 1539 H 152.725 -1.64068 -3.6217 0
M  V30 1540 N 153.722 1.14298 -1.08507 0
M  V30 1541 C 154.969 1.85359 -0.815373 0
M  V30 1542 C 155.297 1.83001 0.658865 0
M  V30 1543 O 154.552 1.25655 1.50031 0
M  V30 1544 C 154.851 3.33547 -1.28379 0
M  V30 1545 C 154.517 3.56093 -2.76602 0
M  V30 1546 C 153.179 3.61955 -3.17084 0
M  V30 1547 C 155.531 3.64834 -3.72217 0
M  V30 1548 C 152.859 3.74082 -4.51973 0
M  V30 1549 C 155.211 3.78487 -5.06883 0
M  V30 1550 C 153.875 3.82598 -5.46969 0
M  V30 1551 H 153.145 0.678276 -0.298366 0
M  V30 1552 H 155.792 1.35002 -1.35819 0
M  V30 1553 H 154.097 3.86191 -0.660593 0
M  V30 1554 H 155.794 3.86959 -1.05186 0
M  V30 1555 H 152.384 3.52179 -2.4427 0
M  V30 1556 H 156.568 3.59595 -3.42061 0
M  V30 1557 H 151.824 3.75527 -4.82483 0
M  V30 1558 H 155.998 3.84193 -5.80834 0
M  V30 1559 H 153.625 3.91747 -6.51489 0
M  V30 1560 N 155.201 0.870884 1.31352 0
M  V30 1561 C 156.164 0.332243 2.26779 0
M  V30 1562 C 157.164 -0.517302 1.52252 0
M  V30 1563 O 158.354 -0.326477 1.71113 0
M  V30 1564 C 155.486 -0.528066 3.36785 0
M  V30 1565 H 156.679 1.17469 2.75937 0
M  V30 1566 H 154.232 0.64655 1.423 0
M  V30 1567 H 154.967 -1.39167 2.92922 0
M  V30 1568 H 154.752 0.0802582 3.92018 0
M  V30 1569 H 156.242 -0.897179 4.07849 0
M  V30 1570 N 156.679 -1.44442 0.630414 0
M  V30 1571 C 157.907 -2.06414 0.141671 0
M  V30 1572 C 158.322 -1.47105 -1.18345 0
M  V30 1573 O 157.679 -0.593662 -1.72574 0
M  V30 1574 C 157.73 -3.61494 0.0199784 0
M  V30 1575 O 157.451 -4.18594 1.29269 0
M  V30 1576 C 158.952 -4.40499 -0.497544 0
M  V30 1577 H 156.172 -0.666292 0.0793452 0
M  V30 1578 H 158.716 -1.85323 0.864614 0
M  V30 1579 H 156.871 -3.8185 -0.653402 0
M  V30 1580 H 157.285 -5.12026 1.13707 0
M  V30 1581 H 158.759 -5.49433 -0.531708 0
M  V30 1582 H 159.236 -4.11895 -1.52445 0
M  V30 1583 H 159.842 -4.25061 0.142562 0
M  V30 1584 N 158.157 -0.370918 -1.53173 0
M  V30 1585 C 159.387 0.217389 -2.05453 0
M  V30 1586 C 159.795 1.42568 -1.24382 0
M  V30 1587 O 159.138 1.81571 -0.278839 0
M  V30 1588 C 159.2 0.669827 -3.53205 0
M  V30 1589 C 158.864 -0.4225 -4.55043 0
M  V30 1590 C 159.861 -1.27407 -5.04047 0
M  V30 1591 C 157.546 -0.58427 -4.9889 0
M  V30 1592 C 159.54 -2.27271 -5.95505 0
M  V30 1593 C 157.227 -1.58627 -5.90153 0
M  V30 1594 C 158.225 -2.42892 -6.38351 0
M  V30 1595 O 157.913 -3.41382 -7.27814 0
M  V30 1596 H 157.645 0.0408171 -0.674767 0
M  V30 1597 H 160.199 -0.5292 -1.98466 0
M  V30 1598 H 158.429 1.4681 -3.57748 0
M  V30 1599 H 160.118 1.18173 -3.88317 0
M  V30 1600 H 160.884 -1.16031 -4.70916 0
M  V30 1601 H 156.763 0.061851 -4.60959 0
M  V30 1602 H 160.307 -2.93079 -6.33049 0
M  V30 1603 H 156.204 -1.70048 -6.22699 0
M  V30 1604 H 156.972 -3.37173 -7.45826 0
M  V30 1605 N 159.635 1.57281 -0.100228 0
M  V30 1606 C 160.865 1.98591 0.569681 0
M  V30 1607 C 161.273 0.978315 1.61943 0
M  V30 1608 O 160.616 -0.0396108 1.83657 0
M  V30 1609 C 160.678 3.36282 1.271 0
M  V30 1610 C 160.342 4.55488 0.371409 0
M  V30 1611 C 161.339 5.18491 -0.382504 0
M  V30 1612 C 159.024 5.01474 0.287965 0
M  V30 1613 C 161.018 6.25852 -1.20779 0
M  V30 1614 C 158.705 6.08701 -0.540965 0
M  V30 1615 C 159.703 6.70755 -1.28749 0
M  V30 1616 O 159.391 7.75914 -2.10269 0
M  V30 1617 H 159.123 0.65752 0.156982 0
M  V30 1618 H 161.677 2.0463 -0.177734 0
M  V30 1619 H 159.907 3.26941 2.0651 0
M  V30 1620 H 161.596 3.62005 1.83595 0
M  V30 1621 H 162.362 4.83891 -0.3278 0
M  V30 1622 H 158.241 4.52932 0.858689 0
M  V30 1623 H 161.785 6.74218 -1.79096 0
M  V30 1624 H 157.682 6.42732 -0.597131 0
M  V30 1625 H 158.45 7.92925 -2.03007 0
M  V30 1626 N 161.113 -0.173488 1.56642 0
M  V30 1627 C 162.353 -0.896984 1.83667 0
M  V30 1628 C 162.717 -1.79523 0.680842 0
M  V30 1629 O 163.918 -2.55616 0.831488 0
M  V30 1630 C 162.189 -1.67351 3.15798 0
M  V30 1631 S 163.748 -2.44607 3.64298 0
M  V30 1632 H 160.566 -0.300464 0.644393 0
M  V30 1633 H 163.168 -0.158775 1.94854 0
M  V30 1634 H 161.872 -1.00462 3.97914 0
M  V30 1635 H 161.403 -2.45313 3.07546 0
M  V30 1636 H 163.418 -3.69261 3.31452 0
M  V30 1637 N 162.591 -1.51276 -0.441967 0
M  V30 1638 C 163.523 -1.68444 -1.55433 0
M  V30 1639 C 164.536 -0.565187 -1.52674 0
M  V30 1640 O 165.725 -0.839356 -1.57534 0
M  V30 1641 C 162.825 -1.67966 -2.94348 0
M  V30 1642 C 161.998 -2.964 -3.21661 0
M  V30 1643 C 161.057 -2.88171 -4.40277 0
M  V30 1644 O 160.083 -3.62119 -4.39157 0
M  V30 1645 N 161.285 -2.03706 -5.43584 0
M  V30 1646 H 164.05 -2.644 -1.41112 0
M  V30 1647 H 161.611 -1.49104 -0.630838 0
M  V30 1648 H 163.603 -1.60035 -3.71713 0
M  V30 1649 H 162.173 -0.796225 -3.0229 0
M  V30 1650 H 161.393 -3.18234 -2.32638 0
M  V30 1651 H 162.681 -3.81427 -3.36736 0
M  V30 1652 H 162.079 -1.42995 -5.47329 0
M  V30 1653 H 160.636 -2.01658 -6.1982 0
M  V30 1654 N 164.069 0.697108 -1.41344 0
M  V30 1655 C 165.001 1.8224 -1.39001 0
M  V30 1656 C 166.014 1.60152 -0.292428 0
M  V30 1657 O 167.203 1.69684 -0.554048 0
M  V30 1658 C 164.303 3.18976 -1.14489 0
M  V30 1659 C 163.476 3.68105 -2.36258 0
M  V30 1660 C 162.535 4.83506 -2.07625 0
M  V30 1661 O 161.561 4.95201 -2.8065 0
M  V30 1662 N 162.763 5.70637 -1.06555 0
M  V30 1663 H 165.528 1.84742 -2.35988 0
M  V30 1664 H 163.089 0.87937 -1.35936 0
M  V30 1665 H 165.081 3.93801 -0.932885 0
M  V30 1666 H 163.651 3.11508 -0.261043 0
M  V30 1667 H 162.871 2.84204 -2.7317 0
M  V30 1668 H 164.159 3.97667 -3.17393 0
M  V30 1669 H 163.557 5.63817 -0.461125 0
M  V30 1670 H 162.114 6.45368 -0.913444 0
M  V30 1671 N 165.547 1.27147 0.931209 0
M  V30 1672 C 166.777 1.15914 1.71019 0
M  V30 1673 C 167.185 -0.287112 1.87009 0
M  V30 1674 O 166.528 -1.20761 1.38429 0
M  V30 1675 C 166.59 1.76647 3.13107 0
M  V30 1676 C 166.254 3.25807 3.20467 0
M  V30 1677 C 167.251 4.22489 3.02983 0
M  V30 1678 C 164.936 3.66452 3.43538 0
M  V30 1679 C 166.93 5.57794 3.08454 0
M  V30 1680 C 164.617 5.01888 3.48643 0
M  V30 1681 C 165.615 5.97369 3.31119 0
M  V30 1682 O 165.303 7.30337 3.35952 0
M  V30 1683 H 165.035 0.404062 0.54195 0
M  V30 1684 H 167.589 1.68457 1.17521 0
M  V30 1685 H 165.819 1.18578 3.68071 0
M  V30 1686 H 167.508 1.60179 3.72958 0
M  V30 1687 H 168.274 3.92425 2.85004 0
M  V30 1688 H 164.153 2.92611 3.5623 0
M  V30 1689 H 167.697 6.32298 2.94694 0
M  V30 1690 H 163.594 5.31609 3.66145 0
M  V30 1691 H 164.362 7.38739 3.5243 0
M  V30 1692 N 167.025 -1.13721 1.09112 0
M  V30 1693 C 167.972 -2.19031 0.727591 0
M  V30 1694 C 168.942 -1.63555 -0.289656 0
M  V30 1695 O 170.127 -1.90023 -0.172026 0
M  V30 1696 C 167.267 -3.4477 0.15082 0
M  V30 1697 C 166.38 -4.14365 1.22172 0
M  V30 1698 C 165.515 -5.27709 0.608042 0
M  V30 1699 C 164.554 -5.89147 1.66047 0
M  V30 1700 N 163.691 -6.93929 1.06806 0
M  V30 1701 H 168.531 -2.49475 1.62991 0
M  V30 1702 H 166.068 -1.22499 0.81439 0
M  V30 1703 H 168.026 -4.16714 -0.201358 0
M  V30 1704 H 166.656 -3.14787 -0.714783 0
M  V30 1705 H 165.708 -3.40737 1.69122 0
M  V30 1706 H 167.02 -4.56114 2.01895 0
M  V30 1707 H 166.174 -6.06355 0.204523 0
M  V30 1708 H 164.913 -4.872 -0.220769 0
M  V30 1709 H 163.918 -5.09198 2.07357 0
M  V30 1710 H 165.143 -6.31729 2.49189 0
M  V30 1711 H 163.089 -6.55483 0.260476 0
M  V30 1712 H 163.006 -7.34202 1.8023 0
M  V30 1713 H 164.274 -7.76434 0.690644 0
M  V30 1714 N 168.503 -0.877838 -1.30888 0
M  V30 1715 C 169.728 -0.506629 -2.01117 0
M  V30 1716 C 170.153 0.895564 -1.65412 0
M  V30 1717 O 169.511 1.5923 -0.866922 0
M  V30 1718 C 169.559 -0.680223 -3.54126 0
M  V30 1719 O 168.663 0.277033 -4.11468 0
M  V30 1720 H 168.004 -0.200518 -0.633 0
M  V30 1721 H 170.534 -1.18342 -1.66902 0
M  V30 1722 H 170.544 -0.5765 -4.03907 0
M  V30 1723 H 169.219 -1.70261 -3.79452 0
M  V30 1724 H 167.796 0.127606 -3.72682 0
M  V30 1725 N 169.982 1.44106 -0.638065 0
M  V30 1726 C 171.212 2.06037 -0.152394 0
M  V30 1727 C 171.62 1.47808 1.18108 0
M  V30 1728 O 170.963 0.598092 1.73691 0
M  V30 1729 C 171.025 3.59488 0.0293714 0
M  V30 1730 C 170.689 4.4022 -1.22702 0
M  V30 1731 C 171.686 4.73256 -2.15232 0
M  V30 1732 C 169.371 4.8048 -1.46437 0
M  V30 1733 C 171.365 5.45444 -3.29802 0
M  V30 1734 C 169.052 5.52417 -2.61303 0
M  V30 1735 C 170.05 5.84819 -3.52811 0
M  V30 1736 O 169.738 6.55289 -4.65673 0
M  V30 1737 H 169.47 0.671233 -0.0801401 0
M  V30 1738 H 172.024 1.85851 -0.874563 0
M  V30 1739 H 170.254 3.78191 0.806758 0
M  V30 1740 H 171.943 4.03164 0.470475 0
M  V30 1741 H 172.709 4.42684 -1.98131 0
M  V30 1742 H 168.588 4.54676 -0.760977 0
M  V30 1743 H 172.132 5.70653 -4.01249 0
M  V30 1744 H 168.029 5.82404 -2.78344 0
M  V30 1745 H 168.797 6.73762 -4.64744 0
M  V30 1746 N 171.46 0.379036 1.52974 0
M  V30 1747 C 172.871 -0.0972525 1.86447 0
M  V30 1748 C 173.222 -1.47027 1.29914 0
M  V30 1749 O 172.347 -2.07135 0.626433 0
M  V30 1750 C 172.942 -0.183248 3.38304 0
M  V30 1751 C 171.501 -0.603812 3.71525 0
M  V30 1752 C 170.648 0.240632 2.76254 0
M  V30 1753 H 173.599 0.597316 1.4703 0
M  V30 1754 H 173.62 -1.00432 3.67006 0
M  V30 1755 H 173.132 0.816191 3.79421 0
M  V30 1756 H 171.233 -1.61099 3.35973 0
M  V30 1757 H 171.346 -0.369086 4.77676 0
M  V30 1758 H 169.71 -0.292548 2.53014 0
M  V30 1759 H 170.493 1.23786 3.20206 0
M  V30 1760 N 172.938 -1.57226 0.108567 0
M  V30 1761 C 174.184 -1.95121 -0.552761 0
M  V30 1762 C 174.517 -0.991345 -1.66991 0
M  V30 1763 O 173.792 -0.0267211 -1.94482 0
M  V30 1764 C 174.075 -3.43039 -1.09528 0
M  V30 1765 C 173.928 -4.49797 0.0177332 0
M  V30 1766 C 175.247 -3.92567 -1.98945 0
M  V30 1767 H 172.366 -0.709496 -0.199461 0
M  V30 1768 H 175.008 -1.89126 0.182011 0
M  V30 1769 H 173.158 -3.48279 -1.72146 0
M  V30 1770 H 174.83 -4.56661 0.652584 0
M  V30 1771 H 173.073 -4.284 0.682309 0
M  V30 1772 H 173.744 -5.50528 -0.402919 0
M  V30 1773 H 176.22 -3.89565 -1.46214 0
M  V30 1774 H 175.096 -4.96605 -2.33827 0
M  V30 1775 H 175.357 -3.32648 -2.91201 0
M  V30 1776 N 174.416 0.165178 -1.56732 0
M  V30 1777 C 175.644 0.896218 -1.86482 0
M  V30 1778 C 176.059 1.75555 -0.694675 0
M  V30 1779 O 175.416 1.79379 0.33607 0
M  V30 1780 C 175.467 1.76792 -3.1532 0
M  V30 1781 O 175.188 0.943239 -4.27825 0
M  V30 1782 C 176.689 2.6081 -3.58459 0
M  V30 1783 H 173.909 0.260064 -0.618553 0
M  V30 1784 H 176.453 0.163428 -2.03846 0
M  V30 1785 H 174.608 2.45398 -2.99764 0
M  V30 1786 H 175.022 1.53998 -5.01383 0
M  V30 1787 H 176.496 3.17579 -4.51495 0
M  V30 1788 H 176.973 3.35977 -2.82872 0
M  V30 1789 H 177.579 1.97526 -3.76648 0
M  V30 1790 N 175.894 1.51508 0.433938 0
M  V30 1791 C 177.141 1.64345 1.18309 0
M  V30 1792 C 177.469 0.361315 1.91115 0
M  V30 1793 O 176.724 -0.654753 1.84422 0
M  V30 1794 C 177.023 2.79928 2.22205 0
M  V30 1795 C 176.689 4.19078 1.66387 0
M  V30 1796 C 175.351 4.56932 1.50887 0
M  V30 1797 C 177.703 5.05894 1.25381 0
M  V30 1798 C 175.031 5.79305 0.928608 0
M  V30 1799 C 177.383 6.2885 0.687823 0
M  V30 1800 C 176.047 6.65473 0.519755 0
M  V30 1801 H 175.317 0.601381 0.432923 0
M  V30 1802 H 177.964 1.85549 0.473676 0
M  V30 1803 H 176.269 2.52959 2.99197 0
M  V30 1804 H 177.966 2.87059 2.79997 0
M  V30 1805 H 174.556 3.89234 1.79428 0
M  V30 1806 H 178.74 4.77253 1.36175 0
M  V30 1807 H 173.996 6.06324 0.786186 0
M  V30 1808 H 178.17 6.95461 0.361581 0
M  V30 1809 H 175.797 7.6017 0.0679979 0
M  V30 1810 N 177.372 -0.689602 1.41712 0
M  V30 1811 C 178.62 -1.4468 1.4111 0
M  V30 1812 C 178.941 -1.94986 0.0232196 0
M  V30 1813 O 178.211 -1.72097 -0.935913 0
M  V30 1814 H 176.791 -0.536847 0.519427 0
M  V30 1815 H 179.453 -0.815825 1.77004 0
M  V30 1816 H 178.549 -2.30706 2.10193 0
M  V30 1817 N 178.85 -1.27639 -0.924453 0
M  V30 1818 C 179.782 -1.06442 -2.02985 0
M  V30 1819 C 180.795 -0.0194771 -1.62788 0
M  V30 1820 O 181.984 -0.261388 -1.76576 0
M  V30 1821 C 179.084 -0.59327 -3.33667 0
M  V30 1822 C 178.257 -1.71123 -4.02537 0
M  V30 1823 C 177.316 -1.23527 -5.11495 0
M  V30 1824 O 176.342 -1.93553 -5.35281 0
M  V30 1825 N 177.544 -0.0926678 -5.80426 0
M  V30 1826 H 180.309 -2.01633 -2.2173 0
M  V30 1827 H 177.87 -1.19248 -1.09505 0
M  V30 1828 H 179.862 -0.258686 -4.03872 0
M  V30 1829 H 178.432 0.265502 -3.1147 0
M  V30 1830 H 177.652 -2.21593 -3.26022 0
M  V30 1831 H 178.94 -2.46145 -4.45298 0
M  V30 1832 H 178.338 0.491741 -5.63559 0
M  V30 1833 H 176.895 0.182714 -6.51544 0
M  V30 1834 N 180.328 1.1314 -1.09713 0
M  V30 1835 C 181.576 1.84119 -0.833338 0
M  V30 1836 C 181.897 1.84097 0.642904 0
M  V30 1837 O 181.167 1.29881 1.46655 0
M  V30 1838 H 179.747 0.681766 -0.305293 0
M  V30 1839 H 182.409 1.37038 -1.38588 0
M  V30 1840 H 181.505 2.88543 -1.18951 0
M  V30 1841 N 181.806 0.884767 1.30421 0
M  V30 1842 C 183.034 0.518044 2.0031 0
M  V30 1843 C 183.449 -0.893408 1.66324 0
M  V30 1844 O 182.806 -1.5875 0.900262 0
M  V30 1845 C 182.857 0.682997 3.54989 0
M  V30 1846 O 182.578 2.03888 3.87764 0
M  V30 1847 C 184.079 0.31924 4.42149 0
M  V30 1848 H 181.299 0.200265 0.640418 0
M  V30 1849 H 183.843 1.19001 1.6631 0
M  V30 1850 H 181.998 0.0584052 3.87356 0
M  V30 1851 H 182.412 2.05735 4.82466 0
M  V30 1852 H 183.886 0.485555 5.4986 0
M  V30 1853 H 184.363 -0.742717 4.32875 0
M  V30 1854 H 184.969 0.920147 4.15227 0
M  V30 1855 N 183.284 -1.43765 0.645699 0
M  V30 1856 C 184.231 -2.30745 -0.0504648 0
M  V30 1857 C 185.201 -1.4432 -0.822241 0
M  V30 1858 O 186.386 -1.73202 -0.800358 0
M  V30 1859 C 183.526 -3.29802 -1.0161 0
M  V30 1860 C 182.639 -4.31326 -0.241219 0
M  V30 1861 C 181.774 -5.17469 -1.19998 0
M  V30 1862 C 180.813 -6.10691 -0.415094 0
M  V30 1863 N 179.95 -6.89483 -1.32506 0
M  V30 1864 H 184.79 -2.8973 0.697155 0
M  V30 1865 H 182.327 -1.42738 0.355563 0
M  V30 1866 H 184.285 -3.85734 -1.58949 0
M  V30 1867 H 182.915 -2.72483 -1.73069 0
M  V30 1868 H 181.967 -3.77749 0.448334 0
M  V30 1869 H 183.279 -4.9743 0.369437 0
M  V30 1870 H 182.433 -5.7799 -1.84424 0
M  V30 1871 H 181.172 -4.51473 -1.84455 0
M  V30 1872 H 180.177 -5.49265 0.242565 0
M  V30 1873 H 181.402 -6.78727 0.224966 0
M  V30 1874 H 179.348 -6.26142 -1.95657 0
M  V30 1875 H 179.265 -7.52081 -0.768783 0
M  V30 1876 H 180.533 -7.54516 -1.9577 0
M  V30 1877 N 184.763 -0.387143 -1.52771 0
M  V30 1878 C 185.693 0.440551 -2.29306 0
M  V30 1879 C 186.674 1.06535 -1.32606 0
M  V30 1880 O 187.859 1.07853 -1.61497 0
M  V30 1881 C 184.989 1.56919 -3.09829 0
M  V30 1882 C 183.943 1.07054 -4.14395 0
M  V30 1883 C 183.269 2.29109 -4.83129 0
M  V30 1884 C 184.569 0.140015 -5.22112 0
M  V30 1885 H 186.263 -0.198026 -2.98744 0
M  V30 1886 H 183.809 -0.09668 -1.43675 0
M  V30 1887 H 185.762 2.15503 -3.62128 0
M  V30 1888 H 184.486 2.23532 -2.3812 0
M  V30 1889 H 183.145 0.507247 -3.63074 0
M  V30 1890 H 182.793 2.94227 -4.0797 0
M  V30 1891 H 182.493 1.96406 -5.53804 0
M  V30 1892 H 184.017 2.88339 -5.38231 0
M  V30 1893 H 185.431 0.633978 -5.69784 0
M  V30 1894 H 183.828 -0.0971485 -6.00021 0
M  V30 1895 H 184.898 -0.811711 -4.78058 0
M  V30 1896 N 186.241 1.57166 -0.116904 0
M  V30 1897 C 187.151 2.18745 0.847812 0
M  V30 1898 C 188.167 1.163 1.29423 0
M  V30 1899 O 189.343 1.48761 1.35765 0
M  V30 1900 C 186.408 2.77307 2.0809 0
M  V30 1901 C 185.469 3.94781 1.68661 0
M  V30 1902 C 184.702 4.50541 2.86091 0
M  V30 1903 O 184.925 4.05202 4.01456 0
M  V30 1904 O 183.859 5.41256 2.63298 0
M  V30 1905 H 187.685 3.01632 0.353778 0
M  V30 1906 H 185.27 1.49005 0.108599 0
M  V30 1907 H 187.152 3.14647 2.80313 0
M  V30 1908 H 185.827 1.97452 2.56504 0
M  V30 1909 H 184.734 3.62214 0.935518 0
M  V30 1910 H 186.067 4.76065 1.24991 0
M  V30 1911 N 187.719 -0.156864 1.56817 0
M  V30 1912 C 188.968 -0.869504 1.81996 0
M  V30 1913 C 189.281 -1.82777 0.696545 0
M  V30 1914 O 190.487 -2.58384 0.833658 0
M  V30 1915 C 188.943 -1.59679 3.22538 0
M  V30 1916 C 188.551 -0.681431 4.42787 0
M  V30 1917 C 190.295 -2.2968 3.56997 0
M  V30 1918 C 188.202 -1.40978 5.74351 0
M  V30 1919 H 187.132 -0.328438 0.678708 0
M  V30 1920 H 189.783 -0.1223 1.83092 0
M  V30 1921 H 188.165 -2.38927 3.158 0
M  V30 1922 H 189.339 0.0751166 4.60739 0
M  V30 1923 H 187.654 -0.0903431 4.16302 0
M  V30 1924 H 190.251 -2.84794 4.52544 0
M  V30 1925 H 190.594 -3.05707 2.82576 0
M  V30 1926 H 191.127 -1.57361 3.65352 0
M  V30 1927 H 187.866 -0.691561 6.51842 0
M  V30 1928 H 187.386 -2.13929 5.60352 0
M  V30 1929 H 189.065 -1.95337 6.16808 0
M  V30 1930 N 189.197 -1.51736 -0.425897 0
M  V30 1931 C 190.144 -1.73875 -1.51776 0
M  V30 1932 C 191.114 -0.580702 -1.55618 0
M  V30 1933 O 192.299 -0.81641 -1.72451 0
M  V30 1934 C 189.439 -1.88012 -2.89388 0
M  V30 1935 C 188.552 -3.15606 -2.94986 0
M  V30 1936 C 187.687 -3.20271 -4.23793 0
M  V30 1937 C 186.726 -4.42134 -4.23302 0
M  V30 1938 N 185.863 -4.44284 -5.43651 0
M  V30 1939 H 190.703 -2.67071 -1.32201 0
M  V30 1940 H 188.24 -1.32351 -0.642008 0
M  V30 1941 H 190.198 -1.9419 -3.69251 0
M  V30 1942 H 188.828 -0.98213 -3.07496 0
M  V30 1943 H 187.88 -3.18681 -2.07717 0
M  V30 1944 H 189.192 -4.05486 -2.90486 0
M  V30 1945 H 188.346 -3.25428 -5.12036 0
M  V30 1946 H 187.085 -2.28299 -4.30965 0
M  V30 1947 H 186.09 -4.3714 -3.3345 0
M  V30 1948 H 187.315 -5.35382 -4.17783 0
M  V30 1949 H 185.261 -3.55188 -5.51523 0
M  V30 1950 H 185.178 -5.27988 -5.41078 0
M  V30 1951 H 186.446 -4.53649 -6.33895 0
M  V30 1952 N 190.675 0.682077 -1.42076 0
M  V30 1953 C 192.091 0.994324 -1.24841 0
M  V30 1954 C 192.291 2.0096 -0.147389 0
M  V30 1955 O 191.347 2.47822 0.483782 0
M  V30 1956 C 192.66 1.50607 -2.60265 0
M  V30 1957 C 194.208 1.62421 -2.6756 0
M  V30 1958 C 194.683 2.16994 -4.03333 0
M  V30 1959 N 196.174 2.24337 -4.0525 0
M  V30 1960 C 196.909 2.67621 -5.07116 0
M  V30 1961 N 196.405 3.1041 -6.19368 0
M  V30 1962 N 198.198 2.67305 -4.94474 0
M  V30 1963 H 190.349 0.00973908 -2.12398 0
M  V30 1964 H 192.612 0.0668593 -0.945639 0
M  V30 1965 H 192.318 0.834583 -3.41654 0
M  V30 1966 H 192.192 2.48602 -2.83684 0
M  V30 1967 H 194.579 2.28678 -1.86521 0
M  V30 1968 H 194.66 0.629352 -2.47937 0
M  V30 1969 H 194.304 1.51349 -4.84826 0
M  V30 1970 H 194.234 3.17258 -4.20304 0
M  V30 1971 H 196.725 1.94158 -3.24209 0
M  V30 1972 H 197.038 3.42103 -6.92954 0
M  V30 1973 H 195.383 3.08286 -6.22884 0
M  V30 1974 H 198.574 2.33233 -4.05857 0
M  V30 1975 H 198.747 3.00718 -5.73997 0
M  V30 1976 N 192.153 1.28127 0.917671 0
M  V30 1977 C 193.381 1.17892 1.70026 0
M  V30 1978 C 193.796 -0.262958 1.8696 0
M  V30 1979 O 193.153 -1.17811 1.3938 0
M  V30 1980 C 193.204 1.86872 3.09453 0
M  V30 1981 O 192.925 3.25428 2.93306 0
M  V30 1982 C 194.426 1.8289 4.03815 0
M  V30 1983 H 191.646 0.40942 0.531617 0
M  V30 1984 H 194.19 1.69181 1.14883 0
M  V30 1985 H 192.345 1.39464 3.61426 0
M  V30 1986 H 192.759 3.59918 3.81523 0
M  V30 1987 H 194.233 2.35751 4.99125 0
M  V30 1988 H 194.71 0.800412 4.31845 0
M  V30 1989 H 195.316 2.29959 3.57769 0
M  V30 1990 N 193.631 -1.12557 1.10312 0
M  V30 1991 C 194.877 -1.84311 0.846011 0
M  V30 1992 C 195.21 -1.83805 -0.626859 0
M  V30 1993 O 194.485 -1.28268 -1.46211 0
M  V30 1994 C 194.768 -3.32048 1.39341 0
M  V30 1995 C 194.621 -3.41016 2.93305 0
M  V30 1996 C 195.94 -4.27764 1.03468 0
M  V30 1997 H 193.059 -0.669192 0.30879 0
M  V30 1998 H 195.701 -1.32057 1.36605 0
M  V30 1999 H 193.851 -3.76678 0.951087 0
M  V30 2000 H 195.523 -3.05031 3.46055 0
M  V30 2001 H 193.766 -2.81603 3.29973 0
M  V30 2002 H 194.437 -4.44948 3.26689 0
M  V30 2003 H 196.913 -3.91253 1.41633 0
M  V30 2004 H 195.789 -5.29549 1.44463 0
M  V30 2005 H 196.05 -4.42064 -0.0560404 0
M  V30 2006 N 195.109 -0.891671 -1.2995 0
M  V30 2007 C 196.072 -0.36828 -2.26222 0
M  V30 2008 C 197.072 0.493014 -1.53056 0
M  V30 2009 O 198.262 0.299213 -1.71611 0
M  V30 2010 C 195.394 0.47442 -3.37583 0
M  V30 2011 H 196.587 -1.21844 -2.74033 0
M  V30 2012 H 194.14 -0.669107 -1.41254 0
M  V30 2013 H 194.875 1.34489 -2.95099 0
M  V30 2014 H 194.66 -0.142615 -3.91841 0
M  V30 2015 H 196.15 0.83218 -4.09224 0
M  V30 2016 N 196.587 1.43421 -0.653314 0
M  V30 2017 C 197.55 2.29182 0.0287951 0
M  V30 2018 C 198.55 1.42213 0.750465 0
M  V30 2019 O 199.74 1.63843 0.591701 0
M  V30 2020 C 196.872 3.24278 1.05151 0
M  V30 2021 H 198.065 2.90985 -0.725786 0
M  V30 2022 H 195.618 1.50702 -0.414545 0
M  V30 2023 H 196.353 2.6737 1.83532 0
M  V30 2024 H 196.138 3.88396 0.537687 0
M  V30 2025 H 197.628 3.88647 1.52786 0
M  V30 2026 N 198.065 0.39524 1.52563 0
M  V30 2027 C 199.476 -0.0774719 1.86539 0
M  V30 2028 C 199.827 -1.45641 1.31466 0
M  V30 2029 O 198.952 -2.06459 0.648367 0
M  V30 2030 C 199.547 -0.147356 3.38479 0
M  V30 2031 C 198.106 -0.564373 3.72145 0
M  V30 2032 C 197.253 0.269919 2.75983 0
M  V30 2033 H 200.204 0.612876 1.46388 0
M  V30 2034 H 200.225 -0.965343 3.68051 0
M  V30 2035 H 199.737 0.856387 3.78534 0
M  V30 2036 H 197.838 -1.57527 3.37663 0
M  V30 2037 H 197.951 -0.318402 4.78041 0
M  V30 2038 H 196.315 -0.265696 2.5331 0
M  V30 2039 H 197.098 1.27175 3.18875 0
M  V30 2040 N 199.544 -1.57102 0.125237 0
M  V30 2041 C 200.769 -2.0019 -0.542101 0
M  V30 2042 C 201.194 -1.00449 -1.59034 0
M  V30 2043 O 200.552 0.0229423 -1.81285 0
M  V30 2044 C 200.6 -3.42129 -1.13929 0
M  V30 2045 O 199.704 -3.45307 -2.2547 0
M  V30 2046 H 199.045 -0.650171 -0.134812 0
M  V30 2047 H 201.575 -2.03461 0.215553 0
M  V30 2048 H 201.585 -3.80471 -1.4733 0
M  V30 2049 H 200.26 -4.14237 -0.371531 0
M  V30 2050 H 198.837 -3.1879 -1.93462 0
M  V30 2051 N 201.022 0.148545 -1.56898 0
M  V30 2052 C 202.268 0.862694 -1.83536 0
M  V30 2053 C 202.601 1.80889 -0.706604 0
M  V30 2054 O 201.876 1.92328 0.289885 0
M  V30 2055 C 202.159 1.63853 -3.20662 0
M  V30 2056 C 202.012 0.713925 -4.44098 0
M  V30 2057 C 203.331 2.60133 -3.54991 0
M  V30 2058 H 200.45 0.312179 -0.667618 0
M  V30 2059 H 203.092 0.127953 -1.89569 0
M  V30 2060 H 201.242 2.26489 -3.1565 0
M  V30 2061 H 202.914 0.098686 -4.61194 0
M  V30 2062 H 201.157 0.0234019 -4.33794 0
M  V30 2063 H 201.828 1.29278 -5.36648 0
M  V30 2064 H 204.304 2.07616 -3.60603 0
M  V30 2065 H 203.18 3.11468 -4.51972 0
M  V30 2066 H 203.441 3.41417 -2.80868 0
M  V30 2067 N 202.5 1.5196 0.417844 0
M  V30 2068 C 203.747 1.65591 1.16559 0
M  V30 2069 C 204.075 0.381565 1.90721 0
M  V30 2070 O 203.33 -0.635156 1.85106 0
M  V30 2071 C 203.629 2.82269 2.19223 0
M  V30 2072 C 203.295 4.20819 1.61933 0
M  V30 2073 C 201.957 4.58506 1.46033 0
M  V30 2074 C 204.309 5.07196 1.20008 0
M  V30 2075 C 201.637 5.80257 0.867113 0
M  V30 2076 C 203.989 6.29544 0.621086 0
M  V30 2077 C 202.653 6.65987 0.449144 0
M  V30 2078 H 201.923 0.605939 0.42652 0
M  V30 2079 H 204.57 1.86041 0.45397 0
M  V30 2080 H 202.875 2.56118 2.96498 0
M  V30 2081 H 204.572 2.90012 2.76936 0
M  V30 2082 H 201.162 3.91116 1.7529 0
M  V30 2083 H 205.346 4.7867 1.31105 0
M  V30 2084 H 200.602 6.07124 0.721833 0
M  V30 2085 H 204.776 6.95805 0.287798 0
M  V30 2086 H 202.403 7.60199 -0.012632 0
M  V30 2087 N 203.978 -0.674533 1.42435 0
M  V30 2088 C 205.227 -1.43034 1.42212 0
M  V30 2089 C 205.54 -1.95555 0.0420788 0
M  V30 2090 O 206.746 -2.71374 -0.0827558 0
M  V30 2091 C 205.202 -2.58748 2.50155 0
M  V30 2092 C 204.81 -2.12925 3.94166 0
M  V30 2093 C 206.554 -3.36257 2.59098 0
M  V30 2094 C 204.461 -3.25723 4.93618 0
M  V30 2095 H 203.391 -0.537345 0.528939 0
M  V30 2096 H 206.042 -0.73024 1.68344 0
M  V30 2097 H 204.424 -3.31128 2.17188 0
M  V30 2098 H 205.598 -1.47697 4.36488 0
M  V30 2099 H 203.913 -1.48354 3.89076 0
M  V30 2100 H 206.51 -4.20264 3.30578 0
M  V30 2101 H 206.853 -3.82866 1.63461 0
M  V30 2102 H 207.386 -2.70947 2.9126 0
M  V30 2103 H 204.125 -2.84105 5.90732 0
M  V30 2104 H 203.645 -3.89732 4.55926 0
M  V30 2105 H 205.324 -3.91186 5.15347 0
M  V30 2106 N 205.456 -1.28612 -0.910864 0
M  V30 2107 C 206.703 -1.15934 -1.66029 0
M  V30 2108 C 207.031 0.291483 -1.92303 0
M  V30 2109 O 206.286 1.22816 -1.52364 0
M  V30 2110 C 206.585 -1.90624 -3.0232 0
M  V30 2111 C 206.251 -3.40405 -2.95695 0
M  V30 2112 C 204.913 -3.81255 -2.93595 0
M  V30 2113 C 207.265 -4.359 -2.85728 0
M  V30 2114 C 204.593 -5.15936 -2.79334 0
M  V30 2115 C 206.945 -5.70657 -2.73007 0
M  V30 2116 C 205.609 -6.10779 -2.69267 0
M  V30 2117 H 204.879 -0.424234 -0.607541 0
M  V30 2118 H 207.526 -1.5942 -1.06101 0
M  V30 2119 H 205.831 -1.39696 -3.6605 0
M  V30 2120 H 207.528 -1.78228 -3.59215 0
M  V30 2121 H 204.118 -3.07927 -2.98125 0
M  V30 2122 H 208.302 -4.053 -2.86436 0
M  V30 2123 H 203.558 -5.46146 -2.74835 0
M  V30 2124 H 207.732 -6.44311 -2.64264 0
M  V30 2125 H 205.359 -7.1509 -2.57974 0
M  V30 2126 N 206.934 1.1197 -1.10907 0
M  V30 2127 C 208.345 1.65114 -0.871446 0
M  V30 2128 C 208.696 1.86885 0.597353 0
M  V30 2129 O 207.821 1.59896 1.45816 0
M  V30 2130 C 208.416 2.99944 -1.5754 0
M  V30 2131 C 206.975 3.50018 -1.38435 0
M  V30 2132 C 206.122 2.24941 -1.62164 0
M  V30 2133 H 209.073 0.956851 -1.2661 0
M  V30 2134 H 209.094 3.66651 -1.01721 0
M  V30 2135 H 208.606 2.84067 -2.64438 0
M  V30 2136 H 206.707 3.71071 -0.337214 0
M  V30 2137 H 206.82 4.29165 -2.12965 0
M  V30 2138 H 205.184 2.3229 -1.04467 0
M  V30 2139 H 205.967 2.11612 -2.70324 0
M  V30 2140 N 208.412 0.89855 1.29475 0
M  V30 2141 C 209.823 0.572537 1.77705 0
M  V30 2142 C 210.174 -0.911778 1.73727 0
M  V30 2143 O 209.299 -1.71288 1.32247 0
M  V30 2144 C 209.894 1.03252 3.22683 0
M  V30 2145 C 208.453 0.757687 3.68695 0
M  V30 2146 C 207.6 1.20787 2.49612 0
M  V30 2147 H 210.551 1.08139 1.16153 0
M  V30 2148 H 210.572 0.367307 3.78723 0
M  V30 2149 H 210.084 2.11285 3.25546 0
M  V30 2150 H 208.185 -0.310079 3.71308 0
M  V30 2151 H 208.298 1.35476 4.59547 0
M  V30 2152 H 206.662 0.626888 2.46865 0
M  V30 2153 H 207.445 2.29622 2.55203 0
M  V30 2154 N 209.89 -1.43072 0.660911 0
M  V30 2155 C 211.115 -2.06584 0.183805 0
M  V30 2156 C 211.54 -1.49257 -1.14472 0
M  V30 2157 O 210.898 -0.605528 -1.70889 0
M  V30 2158 C 210.946 -3.60418 0.114434 0
M  V30 2159 O 210.05 -4.01981 -0.921137 0
M  V30 2160 H 209.391 -0.656669 0.0983994 0
M  V30 2161 H 211.921 -1.83447 0.906006 0
M  V30 2162 H 211.931 -4.07946 -0.0663394 0
M  V30 2163 H 210.606 -4.01519 1.08422 0
M  V30 2164 H 209.183 -3.66029 -0.71253 0
M  V30 2165 N 211.368 -0.403325 -1.52352 0
M  V30 2166 C 212.645 0.232611 -1.94212 0
M  V30 2167 C 213.025 1.63133 -1.33981 0
M  V30 2168 O 212.373 2.22659 -0.513344 0
M  V30 2169 C 212.583 0.244811 -3.4814 0
M  V30 2170 C 213.931 0.46698 -4.22024 0
M  V30 2171 O 214.955 0.324419 -3.5472 0
M  V30 2172 O 213.814 0.74747 -5.41364 0
M  V30 2173 H 210.908 0.148223 -0.813609 0
M  V30 2174 H 213.454 -0.458848 -1.63379 0
M  V30 2175 H 212.226 -0.734378 -3.84347 0
M  V30 2176 H 211.849 0.980611 -3.85318 0
M  V30 2177 N 212.846 1.57033 -0.133567 0
M  V30 2178 C 213.756 2.19632 0.824564 0
M  V30 2179 C 214.772 1.17666 1.28182 0
M  V30 2180 O 215.948 1.50193 1.3418 0
M  V30 2181 C 213.013 2.79499 2.05137 0
M  V30 2182 C 212.074 3.96548 1.64464 0
M  V30 2183 C 211.307 4.5355 2.81297 0
M  V30 2184 O 211.53 4.09438 3.97136 0
M  V30 2185 O 210.464 5.44018 2.57542 0
M  V30 2186 H 214.29 3.01991 0.321766 0
M  V30 2187 H 211.875 1.49112 0.0927889 0
M  V30 2188 H 213.757 3.17602 2.7696 0
M  V30 2189 H 212.432 2.00162 2.54395 0
M  V30 2190 H 211.339 3.63186 0.897048 0
M  V30 2191 H 212.672 4.77364 1.19934 0
M  V30 2192 N 214.325 -0.140222 1.56975 0
M  V30 2193 C 215.257 -1.19818 1.95388 0
M  V30 2194 C 216.27 -1.38816 0.850525 0
M  V30 2195 O 217.459 -1.38267 1.12891 0
M  V30 2196 C 214.559 -2.56189 2.21857 0
M  V30 2197 C 213.732 -2.58077 3.5315 0
M  V30 2198 C 212.791 -3.76037 3.6808 0
M  V30 2199 O 211.817 -3.60598 4.40406 0
M  V30 2200 N 213.019 -4.93763 3.05251 0
M  V30 2201 H 215.784 -0.871609 2.86746 0
M  V30 2202 H 213.345 -0.32972 1.58507 0
M  V30 2203 H 215.337 -3.33623 2.2908 0
M  V30 2204 H 213.907 -2.81111 1.36731 0
M  V30 2205 H 213.127 -1.6651 3.57307 0
M  V30 2206 H 214.415 -2.56377 4.39486 0
M  V30 2207 H 213.813 -5.09209 2.46419 0
M  V30 2208 H 212.37 -5.68949 3.18026 0
M  V30 2209 N 215.803 -1.52179 -0.40978 0
M  V30 2210 C 216.733 -1.78435 -1.5061 0
M  V30 2211 C 217.714 -0.635295 -1.57791 0
M  V30 2212 O 218.899 -0.880823 -1.73076 0
M  V30 2213 C 216.029 -1.93444 -2.88439 0
M  V30 2214 C 214.983 -3.09038 -2.96108 0
M  V30 2215 C 214.309 -3.09268 -4.36185 0
M  V30 2216 C 215.609 -4.48508 -2.67652 0
M  V30 2217 H 217.303 -2.70237 -1.28889 0
M  V30 2218 H 214.849 -1.30036 -0.618605 0
M  V30 2219 H 216.802 -2.10394 -3.65119 0
M  V30 2220 H 215.526 -0.983129 -3.11452 0
M  V30 2221 H 214.185 -2.91837 -2.21872 0
M  V30 2222 H 213.833 -2.11861 -4.56206 0
M  V30 2223 H 213.533 -3.86907 -4.42241 0
M  V30 2224 H 215.057 -3.28348 -5.14801 0
M  V30 2225 H 216.471 -4.65918 -3.34056 0
M  V30 2226 H 214.868 -5.28059 -2.85085 0
M  V30 2227 H 215.938 -4.56649 -1.63095 0
M  V30 2228 N 217.281 0.66697 -1.42791 0
M  V30 2229 C 218.228 1.7803 -1.4688 0
M  V30 2230 C 219.198 1.6299 -0.319919 0
M  V30 2231 O 220.383 1.83432 -0.525118 0
M  V30 2232 C 217.523 3.1611 -1.38451 0
M  V30 2233 C 216.636 3.42381 -2.63437 0
M  V30 2234 C 215.771 4.70232 -2.47094 0
M  V30 2235 C 214.81 4.89564 -3.67415 0
M  V30 2236 N 213.947 6.08661 -3.49966 0
M  V30 2237 H 218.787 1.7387 -2.42019 0
M  V30 2238 H 216.324 0.84868 -1.20149 0
M  V30 2239 H 218.282 3.95914 -1.31561 0
M  V30 2240 H 216.912 3.19374 -0.469033 0
M  V30 2241 H 215.964 2.56774 -2.80662 0
M  V30 2242 H 217.276 3.52557 -3.52853 0
M  V30 2243 H 216.43 5.5814 -2.37834 0
M  V30 2244 H 215.169 4.62353 -1.5518 0
M  V30 2245 H 214.174 4.00096 -3.77099 0
M  V30 2246 H 215.399 4.99282 -4.6032 0
M  V30 2247 H 213.345 6.0194 -2.60776 0
M  V30 2248 H 213.262 6.19733 -4.32975 0
M  V30 2249 H 214.53 6.99226 -3.44532 0
M  V30 2250 N 218.759 1.29093 0.90403 0
M  V30 2251 C 219.984 1.19809 1.69294 0
M  V30 2252 C 220.409 -0.238481 1.86582 0
M  V30 2253 O 219.767 -1.1723 1.383 0
M  V30 2254 C 219.815 1.91202 3.05736 0
M  V30 2255 O 218.919 1.22611 3.93752 0
M  V30 2256 H 218.26 0.415385 0.518027 0
M  V30 2257 H 220.79 1.70586 1.12967 0
M  V30 2258 H 220.8 1.99487 3.55906 0
M  V30 2259 H 219.475 2.95692 2.92471 0
M  V30 2260 H 218.052 1.22554 3.52186 0
M  V30 2261 N 220.237 -1.11381 1.11499 0
M  V30 2262 C 221.485 -1.8277 0.862524 0
M  V30 2263 C 221.806 -1.85097 -0.613534 0
M  V30 2264 O 221.076 -1.32198 -1.4457 0
M  V30 2265 H 219.656 -0.676823 0.316101 0
M  V30 2266 H 222.318 -1.34816 1.4075 0
M  V30 2267 H 221.414 -2.86614 1.23527 0
M  V30 2268 N 221.715 -0.905404 -1.28997 0
M  V30 2269 C 222.943 -0.549846 -1.9946 0
M  V30 2270 C 223.358 0.866834 -1.67724 0
M  V30 2271 O 222.715 1.57298 -0.925404 0
M  V30 2272 C 222.766 -0.739387 -3.53858 0
M  V30 2273 O 222.487 -2.10031 -3.84472 0
M  V30 2274 C 223.988 -0.389541 -4.41585 0
M  V30 2275 H 221.208 -0.210429 -0.637151 0
M  V30 2276 H 223.752 -1.21632 -1.64396 0
M  V30 2277 H 221.907 -0.120023 -3.87214 0
M  V30 2278 H 222.321 -2.13385 -4.79132 0
M  V30 2279 H 223.795 -0.572972 -5.49018 0
M  V30 2280 H 224.272 0.673756 -4.34001 0
M  V30 2281 H 224.878 -0.986089 -4.1371 0
M  V30 2282 N 223.193 1.4272 -0.668489 0
M  V30 2283 C 224.156 2.292 0.00448567 0
M  V30 2284 C 225.156 1.43001 0.735339 0
M  V30 2285 O 226.346 1.64461 0.57429 0
M  V30 2286 C 223.478 3.25375 1.01705 0
M  V30 2287 H 224.671 2.90199 -0.756608 0
M  V30 2288 H 222.224 1.50254 -0.430506 0
M  V30 2289 H 222.959 2.69301 1.80686 0
M  V30 2290 H 222.744 3.88944 0.496463 0
M  V30 2291 H 224.234 3.90245 1.48655 0
M  V30 2292 N 224.671 0.411399 1.52136 0
M  V30 2293 C 225.896 -0.165538 2.06738 0
M  V30 2294 C 226.321 -1.379 1.27926 0
M  V30 2295 O 225.679 -1.78628 0.310114 0
M  V30 2296 C 225.727 -0.492124 3.57226 0
M  V30 2297 O 224.831 -1.58276 3.80818 0
M  V30 2298 H 224.172 -0.0132132 0.663869 0
M  V30 2299 H 226.702 0.585253 1.96051 0
M  V30 2300 H 226.712 -0.750104 4.01045 0
M  V30 2301 H 225.387 0.394922 4.14021 0
M  V30 2302 H 223.964 -1.31677 3.48877 0
M  V30 2303 N 226.149 -1.5696 0.141893 0
M  V30 2304 C 227.395 -1.9625 -0.511248 0
M  V30 2305 C 227.728 -1.02654 -1.64851 0
M  V30 2306 O 227.003 -0.0679676 -1.94381 0
M  V30 2307 C 227.286 -3.45285 -1.02227 0
M  V30 2308 C 227.139 -4.49658 0.113138 0
M  V30 2309 C 228.458 -3.96698 -1.90574 0
M  V30 2310 H 225.577 -0.713567 -0.184367 0
M  V30 2311 H 228.219 -1.88698 0.222087 0
M  V30 2312 H 226.369 -3.51852 -1.64719 0
M  V30 2313 H 228.041 -4.55174 0.749302 0
M  V30 2314 H 226.284 -4.26857 0.773026 0
M  V30 2315 H 226.955 -5.51258 -0.286053 0
M  V30 2316 H 229.431 -3.92578 -1.37918 0
M  V30 2317 H 228.307 -5.01453 -2.2324 0
M  V30 2318 H 228.568 -3.3875 -2.84079 0
M  V30 2319 N 227.627 0.131896 -1.57047 0
M  V30 2320 C 228.873 0.843179 -1.84441 0
M  V30 2321 C 229.206 1.80129 -0.725749 0
M  V30 2322 O 228.481 1.92624 0.269469 0
M  V30 2323 C 228.764 1.60442 -3.22382 0
M  V30 2324 C 228.617 0.666782 -4.4483 0
M  V30 2325 C 229.936 2.56354 -3.5773 0
M  V30 2326 H 227.055 0.305081 -0.670891 0
M  V30 2327 H 229.697 0.107839 -1.89694 0
M  V30 2328 H 227.847 2.23128 -3.18035 0
M  V30 2329 H 229.519 0.0497646 -4.61273 0
M  V30 2330 H 227.762 -0.022609 -4.33794 0
M  V30 2331 H 228.433 1.23579 -5.37989 0
M  V30 2332 H 230.909 2.0378 -3.62785 0
M  V30 2333 H 229.785 3.06657 -4.5525 0
M  V30 2334 H 230.046 3.38419 -2.84473 0
M  V30 2335 N 229.106 1.52395 0.401703 0
M  V30 2336 C 230.346 1.68498 1.15705 0
M  V30 2337 C 230.71 0.409748 1.87577 0
M  V30 2338 O 231.911 0.446983 2.65058 0
M  V30 2339 C 230.182 2.87789 2.11924 0
M  V30 2340 S 231.741 3.24415 2.95466 0
M  V30 2341 H 228.559 0.593267 0.391862 0
M  V30 2342 H 231.161 1.90408 0.443282 0
M  V30 2343 H 229.865 3.7884 1.57824 0
M  V30 2344 H 229.396 2.68175 2.87829 0
M  V30 2345 H 231.411 2.73614 4.13944 0
M  V30 2346 N 230.584 -0.659388 1.43143 0
M  V30 2347 C 231.514 -1.78422 1.50625 0
M  V30 2348 C 232.495 -1.66216 0.361443 0
M  V30 2349 O 233.68 -1.85404 0.577834 0
M  V30 2350 C 230.81 -3.16815 1.42287 0
M  V30 2351 C 229.764 -3.43777 2.54954 0
M  V30 2352 C 229.09 -4.81905 2.31671 0
M  V30 2353 C 230.39 -3.39134 3.97222 0
M  V30 2354 H 232.084 -1.72417 2.44771 0
M  V30 2355 H 229.63 -0.828084 1.17808 0
M  V30 2356 H 231.583 -3.95253 1.46127 0
M  V30 2357 H 230.307 -3.23534 0.446435 0
M  V30 2358 H 228.966 -2.67707 2.50457 0
M  V30 2359 H 228.614 -4.85294 1.32284 0
M  V30 2360 H 228.314 -5.00906 3.07192 0
M  V30 2361 H 229.838 -5.62609 2.37284 0
M  V30 2362 H 231.252 -4.07518 4.03239 0
M  V30 2363 H 229.649 -3.69671 4.72719 0
M  V30 2364 H 230.719 -2.37426 4.22797 0
M  V30 2365 N 232.062 -1.29571 -0.897171 0
M  V30 2366 C 232.992 -1.17473 -2.01798 0
M  V30 2367 C 233.973 -0.068323 -1.69963 0
M  V30 2368 O 235.158 -0.248239 -1.92607 0
M  V30 2369 C 232.288 -0.853099 -3.36659 0
M  V30 2370 C 231.242 -1.9161 -3.82713 0
M  V30 2371 C 230.568 -1.44773 -5.14728 0
M  V30 2372 C 231.868 -3.32535 -4.02763 0
M  V30 2373 H 233.562 -2.11237 -2.12177 0
M  V30 2374 H 231.108 -1.01699 -1.01948 0
M  V30 2375 H 233.061 -0.755165 -4.14578 0
M  V30 2376 H 231.785 0.120236 -3.26379 0
M  V30 2377 H 230.444 -2.00346 -3.07013 0
M  V30 2378 H 230.092 -0.462995 -5.00865 0
M  V30 2379 H 229.792 -2.15865 -5.46513 0
M  V30 2380 H 231.316 -1.36334 -5.95185 0
M  V30 2381 H 232.73 -3.26626 -4.71156 0
M  V30 2382 H 231.127 -4.01607 -4.45905 0
M  V30 2383 H 232.197 -3.75326 -3.07016 0
M  V30 2384 N 233.54 1.10788 -1.12088 0
M  V30 2385 C 234.488 2.19111 -0.780587 0
M  V30 2386 C 235.482 1.67818 0.230961 0
M  V30 2387 O 236.688 1.79777 0.0895427 0
M  V30 2388 H 233.063 0.714477 -0.234578 0
M  V30 2389 H 235.034 2.45055 -1.70266 0
M  V30 2390 C 233.783 3.46818 -0.24747 0
M  V30 2391 H 233.106 3.86646 -1.01712 0
M  V30 2392 H 234.546 4.23973 -0.0476291 0
M  V30 2393 C 233.005 3.20968 1.02378 0
M  V30 2394 O 233.535 3.42298 2.10226 0
M  V30 2395 N 231.741 2.74658 0.949271 0
M  V30 2396 H 231.288 2.57501 0.0715173 0
M  V30 2397 H 231.246 2.57739 1.80049 0
M  V30 2398 N 235.018 0.912232 1.28515 0
M  V30 2399 C 235.966 0.389597 2.29314 0
M  V30 2400 C 236.96 -0.517915 1.61289 0
M  V30 2401 O 238.166 -0.399328 1.75515 0
M  V30 2402 H 234.541 0.107386 0.744293 0
M  V30 2403 H 236.512 1.25286 2.70825 0
M  V30 2404 C 235.261 -0.356496 3.45868 0
M  V30 2405 H 234.584 0.332608 3.98414 0
M  V30 2406 H 236.024 -0.686851 4.184 0
M  V30 2407 C 234.483 -1.56383 2.98406 0
M  V30 2408 O 235.013 -2.66294 3.00749 0
M  V30 2409 N 233.219 -1.41029 2.54085 0
M  V30 2410 H 232.766 -0.516089 2.52377 0
M  V30 2411 H 232.724 -2.21939 2.22689 0
M  V30 2412 N 236.496 -1.42363 0.676048 0
M  V30 2413 C 237.743 -2.01522 0.19883 0
M  V30 2414 C 238.071 -1.53456 -1.19505 0
M  V30 2415 O 237.326 -0.727967 -1.81657 0
M  V30 2416 C 237.625 -3.56929 0.183431 0
M  V30 2417 C 237.291 -4.24431 1.52215 0
M  V30 2418 C 235.953 -4.42585 1.8887 0
M  V30 2419 C 238.305 -4.62459 2.40377 0
M  V30 2420 C 235.633 -4.96039 3.13309 0
M  V30 2421 C 237.985 -5.17294 3.64129 0
M  V30 2422 C 236.649 -5.33661 4.00951 0
M  V30 2423 H 235.919 -0.737419 0.0727571 0
M  V30 2424 H 238.566 -1.70531 0.871281 0
M  V30 2425 H 236.871 -3.87594 -0.572532 0
M  V30 2426 H 238.568 -4.00486 -0.203035 0
M  V30 2427 H 235.158 -4.10661 1.22701 0
M  V30 2428 H 239.342 -4.48105 2.13343 0
M  V30 2429 H 234.598 -5.06896 3.41857 0
M  V30 2430 H 238.772 -5.45704 4.32644 0
M  V30 2431 H 236.399 -5.74845 4.9745 0
M  V30 2432 N 237.974 -0.419461 -1.51915 0
M  V30 2433 C 239.204 0.151915 -2.06041 0
M  V30 2434 C 239.612 1.38539 -1.28855 0
M  V30 2435 O 238.955 1.80592 -0.336463 0
M  V30 2436 C 239.017 0.557119 -3.55157 0
M  V30 2437 C 238.681 -0.567054 -4.53468 0
M  V30 2438 C 239.678 -1.43379 -4.99738 0
M  V30 2439 C 237.363 -0.742693 -4.96779 0
M  V30 2440 C 239.357 -2.46102 -5.87973 0
M  V30 2441 C 237.044 -1.77322 -5.84808 0
M  V30 2442 C 238.042 -2.63078 -6.30301 0
M  V30 2443 O 237.73 -3.64364 -7.16585 0
M  V30 2444 H 237.462 0.0193293 -0.675724 0
M  V30 2445 H 240.016 -0.592073 -1.96682 0
M  V30 2446 H 238.246 1.35355 -3.62238 0
M  V30 2447 H 239.935 1.05759 -3.9188 0
M  V30 2448 H 240.701 -1.30954 -4.66986 0
M  V30 2449 H 236.58 -0.0848307 -4.60922 0
M  V30 2450 H 240.124 -3.13071 -6.23404 0
M  V30 2451 H 236.021 -1.89773 -6.16974 0
M  V30 2452 H 236.789 -3.60731 -7.34721 0
M  V30 2453 N 239.452 1.56882 -0.150215 0
M  V30 2454 C 240.863 1.82995 0.370076 0
M  V30 2455 C 241.214 1.06907 1.64515 0
M  V30 2456 O 240.339 0.315369 2.1409 0
M  V30 2457 C 240.934 3.31942 0.678208 0
M  V30 2458 C 239.493 3.58625 1.14301 0
M  V30 2459 C 238.64 2.76792 0.167778 0
M  V30 2460 H 241.591 1.54209 -0.374858 0
M  V30 2461 H 241.612 3.48272 1.53254 0
M  V30 2462 H 241.124 3.87294 -0.249991 0
M  V30 2463 H 239.225 3.08664 2.08704 0
M  V30 2464 H 239.338 4.67073 1.06676 0
M  V30 2465 H 237.702 2.45972 0.661037 0
M  V30 2466 H 238.485 3.34916 -0.754069 0
M  V30 2467 N 240.93 -0.123565 1.57115 0
M  V30 2468 C 242.346 -0.476961 1.52306 0
M  V30 2469 C 242.546 -1.82109 0.86248 0
M  V30 2470 O 241.602 -2.48586 0.442884 0
M  V30 2471 C 242.915 -0.465661 2.97073 0
M  V30 2472 C 244.463 -0.549534 3.08138 0
M  V30 2473 C 244.938 -0.568669 4.54456 0
M  V30 2474 N 246.429 -0.630237 4.58892 0
M  V30 2475 C 247.164 -0.666415 5.69514 0
M  V30 2476 N 246.66 -0.660514 6.89644 0
M  V30 2477 N 248.453 -0.709077 5.5761 0
M  V30 2478 H 240.604 0.757198 1.98445 0
M  V30 2479 H 242.867 0.278808 0.906074 0
M  V30 2480 H 242.573 0.454232 3.48754 0
M  V30 2481 H 242.447 -1.29513 3.54269 0
M  V30 2482 H 244.834 -1.45985 2.56461 0
M  V30 2483 H 244.915 0.307532 2.53945 0
M  V30 2484 H 244.559 0.337581 5.06777 0
M  V30 2485 H 244.489 -1.44256 5.06456 0
M  V30 2486 H 246.98 -0.641146 3.72421 0
M  V30 2487 H 247.293 -0.690616 7.69708 0
M  V30 2488 H 245.638 -0.628012 6.92157 0
M  V30 2489 H 248.829 -0.711019 4.62668 0
M  V30 2490 H 249.002 -0.733804 6.43832 0
M  V30 2491 N 242.408 -1.52605 -0.393616 0
M  V30 2492 C 243.318 -1.79971 -1.50492 0
M  V30 2493 C 244.334 -0.686181 -1.59899 0
M  V30 2494 O 245.51 -0.973274 -1.76322 0
M  V30 2495 C 242.575 -1.95867 -2.86072 0
M  V30 2496 C 241.636 -3.19781 -2.86424 0
M  V30 2497 C 240.869 -3.34909 -4.15538 0
M  V30 2498 O 241.092 -2.54948 -5.10253 0
M  V30 2499 O 240.026 -4.28141 -4.23059 0
M  V30 2500 H 243.852 -2.74328 -1.30299 0
M  V30 2501 H 241.437 -1.3764 -0.581005 0
M  V30 2502 H 243.319 -2.08056 -3.66457 0
M  V30 2503 H 241.994 -1.04699 -3.063 0
M  V30 2504 H 240.901 -3.13038 -2.04837 0
M  V30 2505 H 242.234 -4.1078 -2.71147 0
M  V30 2506 N 243.887 0.651787 -1.4349 0
M  V30 2507 C 244.85 1.74647 -1.48429 0
M  V30 2508 C 245.85 1.56513 -0.368817 0
M  V30 2509 O 247.04 1.62385 -0.630623 0
M  V30 2510 C 244.172 3.13533 -1.33827 0
M  V30 2511 H 245.365 1.71649 -2.4592 0
M  V30 2512 H 242.918 0.863573 -1.30277 0
M  V30 2513 H 243.653 3.22142 -0.37349 0
M  V30 2514 H 243.438 3.28101 -2.14691 0
M  V30 2515 H 244.928 3.93356 -1.40218 0
M  V30 2516 N 245.365 1.30045 0.890287 0
M  V30 2517 C 246.312 1.15976 1.99545 0
M  V30 2518 C 247.282 0.0506202 1.66023 0
M  V30 2519 O 248.467 0.219847 1.89529 0
M  V30 2520 C 245.607 0.852054 3.34416 0
M  V30 2521 C 244.72 2.04255 3.80662 0
M  V30 2522 C 243.855 1.6734 5.04154 0
M  V30 2523 C 242.894 2.82916 5.42794 0
M  V30 2524 N 242.031 2.46333 6.57468 0
M  V30 2525 H 246.871 2.10524 2.10911 0
M  V30 2526 H 244.408 1.04749 1.03276 0
M  V30 2527 H 246.366 0.654296 4.12037 0
M  V30 2528 H 244.996 -0.0565502 3.2275 0
M  V30 2529 H 244.048 2.35172 2.98995 0
M  V30 2530 H 245.36 2.90826 4.05242 0
M  V30 2531 H 244.514 1.43908 5.89386 0
M  V30 2532 H 243.253 0.779308 4.81433 0
M  V30 2533 H 242.258 3.0702 4.56091 0
M  V30 2534 H 243.483 3.73004 5.6749 0
M  V30 2535 H 241.429 1.59423 6.36334 0
M  V30 2536 H 241.346 3.26436 6.81891 0
M  V30 2537 H 242.614 2.26244 7.45945 0
M  V30 2538 N 246.843 -1.10192 1.12674 0
M  V30 2539 C 248.089 -1.82475 0.884915 0
M  V30 2540 C 248.422 -1.85093 -0.58773 0
M  V30 2541 O 247.697 -1.3134 -1.43457 0
M  V30 2542 C 247.98 -3.29018 1.46353 0
M  V30 2543 C 247.833 -3.34718 3.00473 0
M  V30 2544 C 249.152 -4.25473 1.12519 0
M  V30 2545 H 246.271 -0.662492 0.322915 0
M  V30 2546 H 248.913 -1.2913 1.39375 0
M  V30 2547 H 247.063 -3.74576 1.03077 0
M  V30 2548 H 248.735 -2.97622 3.52447 0
M  V30 2549 H 246.978 -2.74541 3.35872 0
M  V30 2550 H 247.649 -4.37918 3.36053 0
M  V30 2551 H 250.125 -3.88161 1.499 0
M  V30 2552 H 249.001 -5.26365 1.55663 0
M  V30 2553 H 249.262 -4.42084 0.0377407 0
M  V30 2554 N 248.321 -0.919034 -1.28029 0
M  V30 2555 C 249.253 -0.368762 -2.26214 0
M  V30 2556 C 250.266 0.495716 -1.55069 0
M  V30 2557 O 251.455 0.30974 -1.75792 0
M  V30 2558 C 248.555 0.491049 -3.35324 0
M  V30 2559 C 247.728 -0.352133 -4.3598 0
M  V30 2560 C 246.787 0.443622 -5.24327 0
M  V30 2561 O 245.813 -0.14566 -5.69014 0
M  V30 2562 N 247.015 1.74545 -5.53637 0
M  V30 2563 H 249.78 -1.21273 -2.74068 0
M  V30 2564 H 247.341 -0.785541 -1.41566 0
M  V30 2565 H 249.333 1.03026 -3.91366 0
M  V30 2566 H 247.903 1.23574 -2.87138 0
M  V30 2567 H 247.123 -1.07269 -3.79324 0
M  V30 2568 H 248.411 -0.928883 -5.00249 0
M  V30 2569 H 247.809 2.24666 -5.19174 0
M  V30 2570 H 246.366 2.23138 -6.12416 0
M  V30 2571 N 249.799 1.42003 -0.683588 0
M  V30 2572 C 251.045 2.02223 -0.218536 0
M  V30 2573 C 251.4 1.53126 1.16492 0
M  V30 2574 O 250.693 0.727459 1.77253 0
M  V30 2575 C 250.887 3.56827 -0.202357 0
M  V30 2576 C 250.716 4.20928 -1.5827 0
M  V30 2577 C 249.486 4.5573 -2.18262 0
M  V30 2578 C 251.684 4.47933 -2.52706 0
M  V30 2579 N 249.666 5.05056 -3.48986 0
M  V30 2580 C 251.037 4.98906 -3.68094 0
M  V30 2581 C 253.092 4.29931 -2.51125 0
M  V30 2582 C 251.795 5.33768 -4.82166 0
M  V30 2583 C 253.821 4.65875 -3.643 0
M  V30 2584 C 253.183 5.17008 -4.78417 0
M  V30 2585 H 249.282 0.771931 -0.125088 0
M  V30 2586 H 251.866 1.72729 -0.898479 0
M  V30 2587 H 250.037 3.85819 0.447029 0
M  V30 2588 H 251.769 4.03755 0.276399 0
M  V30 2589 H 248.524 4.41781 -1.70665 0
M  V30 2590 H 248.948 5.34139 -4.15962 0
M  V30 2591 H 253.59 3.89647 -1.6412 0
M  V30 2592 H 251.308 5.72981 -5.6984 0
M  V30 2593 H 254.894 4.53615 -3.64314 0
M  V30 2594 H 253.774 5.44301 -5.64541 0
M  V30 2595 N 251.277 0.427512 1.51691 0
M  V30 2596 C 252.224 -0.388867 2.275 0
M  V30 2597 C 253.194 -1.02532 1.30677 0
M  V30 2598 O 254.379 -1.0461 1.59566 0
M  V30 2599 C 251.519 -1.48954 3.11298 0
M  V30 2600 C 250.632 -0.872194 4.23104 0
M  V30 2601 C 249.767 -1.94709 4.94228 0
M  V30 2602 C 248.806 -1.30766 5.97969 0
M  V30 2603 N 247.943 -2.32349 6.62539 0
M  V30 2604 H 252.783 0.263997 2.96828 0
M  V30 2605 H 250.32 0.142033 1.46413 0
M  V30 2606 H 252.278 -2.13887 3.58201 0
M  V30 2607 H 250.908 -2.11217 2.44105 0
M  V30 2608 H 249.96 -0.111419 3.80237 0
M  V30 2609 H 251.272 -0.365264 4.97461 0
M  V30 2610 H 250.426 -2.67327 5.44629 0
M  V30 2611 H 249.165 -2.48773 4.1948 0
M  V30 2612 H 248.17 -0.566902 5.4687 0
M  V30 2613 H 249.395 -0.774483 6.74669 0
M  V30 2614 H 247.341 -2.85511 5.90609 0
M  V30 2615 H 247.258 -1.8652 7.3263 0
M  V30 2616 H 248.526 -3.04481 7.17574 0
M  V30 2617 N 252.755 -1.56801 0.158532 0
M  V30 2618 C 254.001 -1.96781 -0.490405 0
M  V30 2619 C 254.334 -1.04397 -1.63753 0
M  V30 2620 O 253.609 -0.0885805 -1.94298 0
M  V30 2621 C 253.892 -3.4635 -0.985594 0
M  V30 2622 C 253.745 -4.49512 0.160824 0
M  V30 2623 C 255.064 -3.98697 -1.86355 0
M  V30 2624 H 252.183 -0.715482 -0.176788 0
M  V30 2625 H 254.825 -1.88451 0.242088 0
M  V30 2626 H 252.975 -3.53579 -1.60978 0
M  V30 2627 H 254.647 -4.54353 0.797537 0
M  V30 2628 H 252.89 -4.26013 0.818256 0
M  V30 2629 H 253.561 -5.51531 -0.227569 0
M  V30 2630 H 256.037 -3.94019 -1.33746 0
M  V30 2631 H 254.913 -5.03792 -2.17909 0
M  V30 2632 H 255.174 -3.41744 -2.8047 0
M  V30 2633 N 254.233 0.115231 -1.57178 0
M  V30 2634 C 255.51 0.852873 -1.76027 0
M  V30 2635 C 255.89 1.97892 -0.73498 0
M  V30 2636 O 255.238 2.27232 0.24036 0
M  V30 2637 C 255.448 1.36608 -3.21153 0
M  V30 2638 C 256.796 1.81692 -3.83762 0
M  V30 2639 O 257.82 1.46278 -3.24779 0
M  V30 2640 O 256.679 2.47104 -4.87444 0
M  V30 2641 H 253.773 0.405296 -0.720877 0
M  V30 2642 H 256.319 0.0986785 -1.69413 0
M  V30 2643 H 255.091 0.558357 -3.87296 0
M  V30 2644 H 254.714 2.18287 -3.3232 0
M  V30 2645 N 255.711 1.52812 0.385517 0
M  V30 2646 C 256.659 1.78482 1.49155 0
M  V30 2647 C 257.653 0.652914 1.56312 0
M  V30 2648 O 258.859 0.835464 1.59436 0
M  V30 2649 H 255.234 0.5648 0.496493 0
M  V30 2650 H 257.205 2.71095 1.24699 0
M  V30 2651 C 255.954 1.97378 2.86247 0
M  V30 2652 H 255.277 2.83907 2.81491 0
M  V30 2653 H 256.717 2.19327 3.62866 0
M  V30 2654 C 255.176 0.74728 3.28508 0
M  V30 2655 O 255.706 -0.0736232 4.01633 0
M  V30 2656 N 253.912 0.576396 2.84826 0
M  V30 2657 H 253.459 1.24555 2.25486 0
M  V30 2658 H 253.417 -0.24288 3.1346 0
M  V30 2659 N 257.189 -0.644168 1.43834 0
M  V30 2660 C 258.152 -1.73857 1.49353 0
M  V30 2661 C 259.152 -1.56315 0.377112 0
M  V30 2662 O 260.342 -1.62048 0.639226 0
M  V30 2663 C 257.474 -3.12819 1.35488 0
M  V30 2664 H 258.667 -1.70342 2.46827 0
M  V30 2665 H 256.22 -0.856652 1.30733 0
M  V30 2666 H 256.955 -3.2194 0.390569 0
M  V30 2667 H 256.74 -3.26958 2.16428 0
M  V30 2668 H 258.23 -3.92606 1.42302 0
M  V30 2669 N 258.668 -1.30515 -0.883378 0
M  V30 2670 C 259.598 -1.19607 -2.00541 0
M  V30 2671 C 260.579 -0.086346 -1.69881 0
M  V30 2672 O 261.764 -0.268654 -1.92333 0
M  V30 2673 C 258.894 -0.888758 -3.35736 0
M  V30 2674 C 257.848 -1.95659 -3.8066 0
M  V30 2675 C 257.174 -1.50224 -5.13164 0
M  V30 2676 C 258.474 -3.36788 -3.99213 0
M  V30 2677 H 260.168 -2.13476 -2.09925 0
M  V30 2678 H 257.714 -1.02775 -1.00863 0
M  V30 2679 H 259.667 -0.799094 -4.13754 0
M  V30 2680 H 258.391 0.0856125 -3.26488 0
M  V30 2681 H 257.05 -2.03591 -3.04871 0
M  V30 2682 H 256.698 -0.516092 -5.00345 0
M  V30 2683 H 256.398 -2.2165 -5.44192 0
M  V30 2684 H 257.922 -1.42639 -5.93706 0
M  V30 2685 H 259.336 -3.31605 -4.67665 0
M  V30 2686 H 257.733 -4.06314 -4.41621 0
M  V30 2687 H 258.803 -3.78561 -3.03017 0
M  V30 2688 N 260.146 1.09593 -1.13257 0
M  V30 2689 C 261.078 2.16015 -0.766167 0
M  V30 2690 C 262.091 1.61423 0.211303 0
M  V30 2691 O 263.28 1.78498 -0.00863946 0
M  V30 2692 C 260.38 3.38706 -0.114662 0
M  V30 2693 C 259.553 4.22717 -1.12379 0
M  V30 2694 C 258.612 5.23835 -0.498301 0
M  V30 2695 O 257.638 5.573 -1.15781 0
M  V30 2696 N 258.84 5.75886 0.730417 0
M  V30 2697 H 261.605 2.48055 -1.68193 0
M  V30 2698 H 259.166 1.25292 -1.02535 0
M  V30 2699 H 261.158 4.03464 0.315991 0
M  V30 2700 H 259.728 3.04569 0.704011 0
M  V30 2701 H 258.948 3.54122 -1.73179 0
M  V30 2702 H 260.236 4.75673 -1.80589 0
M  V30 2703 H 259.634 5.50911 1.28504 0
M  V30 2704 H 258.191 6.42387 1.10376 0
M  V30 2705 N 261.624 0.925811 1.2754 0
M  V30 2706 C 262.849 0.580924 1.99098 0
M  V30 2707 C 263.274 -0.833555 1.68622 0
M  V30 2708 O 262.632 -1.55903 0.925422 0
M  V30 2709 C 262.68 0.811186 3.51358 0
M  V30 2710 O 261.784 -0.124129 4.12213 0
M  V30 2711 H 261.125 0.223873 0.625122 0
M  V30 2712 H 263.655 1.24455 1.62395 0
M  V30 2713 H 263.665 0.72601 4.01489 0
M  V30 2714 H 262.34 1.84227 3.72872 0
M  V30 2715 H 260.917 0.0108006 3.72898 0
M  V30 2716 N 263.102 -1.41638 0.69111 0
M  V30 2717 C 264.35 -2.00902 0.219758 0
M  V30 2718 C 264.671 -1.54994 -1.18329 0
M  V30 2719 O 263.941 -0.778628 -1.79762 0
M  V30 2720 H 262.521 -0.74289 0.0782558 0
M  V30 2721 H 265.183 -1.73327 0.891271 0
M  V30 2722 H 264.279 -3.11224 0.233708 0
M  V30 2723 N 264.58 -0.43555 -1.51462 0
M  V30 2724 C 265.528 0.391205 -2.29287 0
M  V30 2725 C 266.522 1.02247 -1.35062 0
M  V30 2726 O 267.728 0.957646 -1.52411 0
M  V30 2727 H 264.103 0.144968 -0.737895 0
M  V30 2728 H 266.074 -0.286051 -2.97026 0
M  V30 2729 C 264.823 1.48096 -3.14583 0
M  V30 2730 H 264.146 1.00457 -3.86973 0
M  V30 2731 H 265.586 2.03273 -3.72097 0
M  V30 2732 C 264.045 2.46321 -2.29843 0
M  V30 2733 O 264.575 3.50815 -1.95682 0
M  V30 2734 N 262.781 2.17166 -1.931 0
M  V30 2735 H 262.328 1.32218 -2.21079 0
M  V30 2736 H 262.286 2.83127 -1.36698 0
M  V30 2737 N 266.058 1.56714 -0.166846 0
M  V30 2738 C 267.283 2.01557 0.488833 0
M  V30 2739 C 267.708 1.0463 1.56314 0
M  V30 2740 O 267.066 0.0251304 1.81283 0
M  V30 2741 C 267.114 3.4503 1.04818 0
M  V30 2742 O 266.218 3.51163 2.16236 0
M  V30 2743 H 265.559 0.653516 0.117526 0
M  V30 2744 H 268.089 2.02818 -0.269421 0
M  V30 2745 H 268.099 3.84243 1.37191 0
M  V30 2746 H 266.774 4.15077 0.261572 0
M  V30 2747 H 265.351 3.23807 1.84942 0
M  V30 2748 N 267.536 -0.106894 1.57237 0
M  V30 2749 C 268.468 -1.15646 1.97885 0
M  V30 2750 C 269.481 -1.36981 0.879779 0
M  V30 2751 O 270.67 -1.35841 1.15799 0
M  V30 2752 C 267.77 -2.51425 2.27241 0
M  V30 2753 C 266.943 -2.50529 3.58545 0
M  V30 2754 C 266.002 -3.68145 3.75973 0
M  V30 2755 O 265.028 -3.51176 4.47956 0
M  V30 2756 N 266.23 -4.87177 3.15656 0
M  V30 2757 H 268.995 -0.81059 2.8853 0
M  V30 2758 H 266.556 -0.296024 1.59171 0
M  V30 2759 H 268.548 -3.28689 2.36105 0
M  V30 2760 H 267.118 -2.78147 1.42663 0
M  V30 2761 H 266.338 -1.58894 3.60758 0
M  V30 2762 H 267.626 -2.46997 4.44826 0
M  V30 2763 H 267.024 -5.03868 2.57165 0
M  V30 2764 H 265.581 -5.62075 3.30023 0
M  V30 2765 N 269.014 -1.53014 -0.377408 0
M  V30 2766 C 269.924 -1.81557 -1.48574 0
M  V30 2767 C 270.94 -0.703102 -1.59162 0
M  V30 2768 O 272.116 -0.99192 -1.75279 0
M  V30 2769 C 269.181 -1.9889 -2.83978 0
M  V30 2770 C 268.242 -3.22801 -2.83016 0
M  V30 2771 C 267.475 -3.39298 -4.11962 0
M  V30 2772 O 267.698 -2.60345 -5.0752 0
M  V30 2773 O 266.632 -4.32604 -4.18494 0
M  V30 2774 H 270.458 -2.75695 -1.27382 0
M  V30 2775 H 268.043 -1.38248 -0.566373 0
M  V30 2776 H 269.925 -2.11931 -3.6423 0
M  V30 2777 H 268.6 -1.07942 -3.05172 0
M  V30 2778 H 267.507 -3.15193 -2.01505 0
M  V30 2779 H 268.84 -4.13632 -2.66775 0
M  V30 2780 N 270.492 0.636531 -1.44174 0
M  V30 2781 C 271.717 1.42847 -1.50364 0
M  V30 2782 C 272.142 1.87665 -0.127867 0
M  V30 2783 O 271.5 1.58408 0.88185 0
M  V30 2784 C 271.548 2.62854 -2.4686 0
M  V30 2785 O 270.652 3.62501 -1.9664 0
M  V30 2786 H 269.993 0.427642 -0.507955 0
M  V30 2787 H 272.523 0.777422 -1.89255 0
M  V30 2788 H 272.533 3.10465 -2.64718 0
M  V30 2789 H 271.208 2.29578 -3.46795 0
M  V30 2790 H 269.785 3.21735 -1.88523 0
M  V30 2791 N 271.97 1.30982 0.876444 0
M  V30 2792 C 273.216 1.20474 1.63138 0
M  V30 2793 C 273.549 -0.238096 1.92735 0
M  V30 2794 O 272.824 -1.1692 1.55435 0
M  V30 2795 C 273.107 2.04244 2.96574 0
M  V30 2796 C 272.96 3.56793 2.73896 0
M  V30 2797 C 274.279 1.88684 3.97601 0
M  V30 2798 H 271.398 0.439001 0.591985 0
M  V30 2799 H 274.04 1.60704 1.01361 0
M  V30 2800 H 272.19 1.70063 3.493 0
M  V30 2801 H 273.862 4.01077 2.27892 0
M  V30 2802 H 272.105 3.80548 2.08245 0
M  V30 2803 H 272.776 4.10706 3.68815 0
M  V30 2804 H 275.252 2.18584 3.54062 0
M  V30 2805 H 274.128 2.4961 4.88862 0
M  V30 2806 H 274.389 0.848343 4.33884 0
M  V30 2807 N 273.449 -1.08991 1.13837 0
M  V30 2808 C 274.677 -1.85011 0.926202 0
M  V30 2809 C 275.092 -1.8135 -0.525127 0
M  V30 2810 O 274.449 -1.21287 -1.36366 0
M  V30 2811 C 274.5 -3.32802 1.41155 0
M  V30 2812 O 274.221 -3.36444 2.80601 0
M  V30 2813 C 275.722 -4.25649 1.23847 0
M  V30 2814 H 272.942 -0.584249 0.32999 0
M  V30 2815 H 275.486 -1.37688 1.51202 0
M  V30 2816 H 273.641 -3.77536 0.868631 0
M  V30 2817 H 274.055 -4.28657 3.02248 0
M  V30 2818 H 275.529 -5.27485 1.62675 0
M  V30 2819 H 276.006 -4.38828 0.18065 0
M  V30 2820 H 276.612 -3.86735 1.76964 0
M  V30 2821 N 274.927 -0.932562 -1.27047 0
M  V30 2822 C 275.837 -0.441219 -2.30414 0
M  V30 2823 C 276.853 0.480525 -1.67233 0
M  V30 2824 O 278.029 0.362151 -1.98117 0
M  V30 2825 C 275.094 0.293651 -3.45454 0
M  V30 2826 C 274.155 -0.663601 -4.2414 0
M  V30 2827 C 273.388 0.0362932 -5.33688 0
M  V30 2828 O 273.611 1.2548 -5.56427 0
M  V30 2829 O 272.545 -0.638015 -5.98509 0
M  V30 2830 H 276.371 -1.29962 -2.74488 0
M  V30 2831 H 273.956 -0.6981 -1.32087 0
M  V30 2832 H 275.838 0.707951 -4.15411 0
M  V30 2833 H 274.513 1.12758 -3.03426 0
M  V30 2834 H 273.42 -1.12768 -3.56699 0
M  V30 2835 H 274.753 -1.46489 -4.69896 0
M  V30 2836 N 276.405 1.4127 -0.698611 0
M  V30 2837 C 277.337 2.292 0.00399731 0
M  V30 2838 C 278.35 1.44944 0.741279 0
M  V30 2839 O 279.539 1.68416 0.591477 0
M  V30 2840 C 276.639 3.22875 1.02979 0
M  V30 2841 C 275.812 4.35904 0.36151 0
M  V30 2842 C 274.871 5.10134 1.29033 0
M  V30 2843 O 273.897 5.63809 0.781562 0
M  V30 2844 N 275.099 5.17885 2.6225 0
M  V30 2845 H 277.864 2.9014 -0.750921 0
M  V30 2846 H 275.425 1.52455 -0.544882 0
M  V30 2847 H 277.417 3.69404 1.65296 0
M  V30 2848 H 275.987 2.63221 1.68622 0
M  V30 2849 H 275.207 3.91719 -0.441584 0
M  V30 2850 H 276.495 5.08696 -0.103055 0
M  V30 2851 H 275.893 4.7573 3.061 0
M  V30 2852 H 274.45 5.6798 3.19754 0
M  V30 2853 N 277.883 0.443576 1.51229 0
M  V30 2854 C 279.16 -0.181038 1.9476 0
M  V30 2855 C 279.54 -1.59523 1.38259 0
M  V30 2856 O 278.888 -2.2122 0.572198 0
M  V30 2857 C 279.098 -0.152422 3.48667 0
M  V30 2858 C 280.446 -0.354923 4.23114 0
M  V30 2859 O 281.47 -0.230257 3.55455 0
M  V30 2860 O 280.329 -0.603674 5.43156 0
M  V30 2861 H 277.423 -0.1266 0.817252 0
M  V30 2862 H 279.969 0.502004 1.62105 0
M  V30 2863 H 278.741 0.836022 3.82265 0
M  V30 2864 H 278.364 -0.878107 3.87782 0
M  V30 2865 N 279.361 -1.56624 0.175154 0
M  V30 2866 C 280.586 -2.01813 -0.478137 0
M  V30 2867 C 281.011 -1.05457 -1.55757 0
M  V30 2868 O 280.369 -0.0347439 -1.81267 0
M  V30 2869 C 280.417 -3.45581 -1.02987 0
M  V30 2870 O 279.521 -3.52305 -2.14371 0
M  V30 2871 H 278.862 -0.65413 -0.114059 0
M  V30 2872 H 281.392 -2.02673 0.280173 0
M  V30 2873 H 281.402 -3.84965 -1.35151 0
M  V30 2874 H 280.077 -4.1521 -0.239556 0
M  V30 2875 H 278.654 -3.24783 -1.83222 0
M  V30 2876 N 280.839 0.0985539 -1.57292 0
M  V30 2877 C 281.786 1.11981 -2.01814 0
M  V30 2878 C 282.756 1.39999 -0.89384 0
M  V30 2879 O 283.941 1.5152 -1.15958 0
M  V30 2880 C 281.081 2.43577 -2.44467 0
M  V30 2881 C 280.194 2.2232 -3.70402 0
M  V30 2882 C 279.329 3.4729 -4.01949 0
M  V30 2883 C 278.368 3.2128 -5.21005 0
M  V30 2884 N 277.505 4.38507 -5.48321 0
M  V30 2885 H 282.345 0.733149 -2.88841 0
M  V30 2886 H 279.882 0.350482 -1.42864 0
M  V30 2887 H 281.84 3.20373 -2.6724 0
M  V30 2888 H 280.47 2.80097 -1.60455 0
M  V30 2889 H 279.522 1.36343 -3.55126 0
M  V30 2890 H 280.834 1.99089 -4.57345 0
M  V30 2891 H 279.988 4.32495 -4.25479 0
M  V30 2892 H 278.727 3.73572 -3.13521 0
M  V30 2893 H 277.732 2.34468 -4.97298 0
M  V30 2894 H 278.957 2.96348 -6.11028 0
M  V30 2895 H 276.903 4.64871 -4.62851 0
M  V30 2896 H 276.82 4.18455 -6.29628 0
M  V30 2897 H 278.088 5.24787 -5.76385 0
M  V30 2898 N 282.317 1.53212 0.369288 0
M  V30 2899 C 283.594 1.59815 1.12776 0
M  V30 2900 C 283.974 0.403402 2.0721 0
M  V30 2901 O 283.322 -0.606667 2.20299 0
M  V30 2902 C 283.532 2.94664 1.87013 0
M  V30 2903 C 284.88 3.49109 2.41677 0
M  V30 2904 O 285.904 2.96669 1.97144 0
M  V30 2905 O 284.763 4.40775 3.23079 0
M  V30 2906 H 281.857 0.645376 0.517125 0
M  V30 2907 H 284.403 1.65553 0.37285 0
M  V30 2908 H 283.175 3.73061 1.18071 0
M  V30 2909 H 282.798 2.92401 2.69421 0
M  V30 2910 N 283.795 -0.628877 1.44509 0
M  V30 2911 C 285.02 -1.42048 1.5112 0
M  V30 2912 C 285.445 -1.87594 0.137818 0
M  V30 2913 O 284.803 -1.58873 -0.873437 0
M  V30 2914 C 284.851 -2.61541 2.48251 0
M  V30 2915 O 283.955 -3.61453 1.98559 0
M  V30 2916 H 283.296 -0.424942 0.510216 0
M  V30 2917 H 285.826 -0.767374 1.89664 0
M  V30 2918 H 285.836 -3.09057 2.66361 0
M  V30 2919 H 284.511 -2.27736 3.48007 0
M  V30 2920 H 283.088 -3.20731 1.90227 0
M  V30 2921 N 285.273 -1.31445 -0.869486 0
M  V30 2922 C 286.501 -1.24122 -1.65534 0
M  V30 2923 C 286.916 0.193387 -1.87807 0
M  V30 2924 O 286.273 1.12557 -1.43656 0
M  V30 2925 C 286.324 -1.98229 -3.02304 0
M  V30 2926 O 286.045 -3.3609 -2.81026 0
M  V30 2927 C 287.546 -1.97751 -3.96749 0
M  V30 2928 H 284.766 -0.428868 -0.516055 0
M  V30 2929 H 287.31 -1.73328 -1.08525 0
M  V30 2930 H 285.465 -1.52782 -3.56001 0
M  V30 2931 H 285.879 -3.7383 -3.67902 0
M  V30 2932 H 287.353 -2.54114 -4.90031 0
M  V30 2933 H 287.83 -0.960137 -4.28577 0
M  V30 2934 H 288.436 -2.43079 -3.48988 0
M  V30 2935 N 286.751 1.08385 -1.14413 0
M  V30 2936 C 287.981 1.8425 -0.934644 0
M  V30 2937 C 288.389 1.81907 0.520234 0
M  V30 2938 O 287.732 1.22126 1.37226 0
M  V30 2939 C 287.794 3.32853 -1.35828 0
M  V30 2940 C 287.458 3.5893 -2.82875 0
M  V30 2941 C 288.455 3.53756 -3.80989 0
M  V30 2942 C 286.14 3.86934 -3.20293 0
M  V30 2943 C 288.134 3.76216 -5.14529 0
M  V30 2944 C 285.821 4.09047 -4.54008 0
M  V30 2945 C 286.819 4.03682 -5.50936 0
M  V30 2946 O 286.507 4.25214 -6.82238 0
M  V30 2947 H 286.239 0.588502 -0.332628 0
M  V30 2948 H 288.793 1.37792 -1.52324 0
M  V30 2949 H 287.023 3.8007 -0.713019 0
M  V30 2950 H 288.712 3.90154 -1.11957 0
M  V30 2951 H 289.478 3.32135 -3.53428 0
M  V30 2952 H 285.357 3.9023 -2.45442 0
M  V30 2953 H 288.901 3.71943 -5.90173 0
M  V30 2954 H 284.798 4.30151 -4.8129 0
M  V30 2955 H 285.566 4.42619 -6.88499 0
M  V30 2956 N 288.23 0.939286 1.26551 0
M  V30 2957 C 289.455 0.602008 1.98471 0
M  V30 2958 C 289.88 -0.815624 1.69497 0
M  V30 2959 O 289.238 -1.54912 0.941905 0
M  V30 2960 C 289.286 0.848407 3.50477 0
M  V30 2961 O 288.39 -0.0804009 4.12322 0
M  V30 2962 H 287.731 0.23049 0.622712 0
M  V30 2963 H 290.261 1.2617 1.61066 0
M  V30 2964 H 290.271 0.768553 4.00696 0
M  V30 2965 H 288.946 1.88171 3.70897 0
M  V30 2966 H 287.523 0.0503508 3.72866 0
M  V30 2967 N 289.708 -1.40897 0.706093 0
M  V30 2968 C 290.638 -2.33418 0.0620085 0
M  V30 2969 C 291.619 -1.52385 -0.755827 0
M  V30 2970 O 292.804 -1.80886 -0.706674 0
M  V30 2971 C 289.934 -3.36293 -0.867445 0
M  V30 2972 C 288.888 -4.27716 -0.155932 0
M  V30 2973 C 288.214 -5.2105 -1.20046 0
M  V30 2974 C 289.514 -5.12944 0.984149 0
M  V30 2975 H 291.208 -2.87527 0.83477 0
M  V30 2976 H 288.754 -1.38249 0.402875 0
M  V30 2977 H 290.707 -3.99949 -1.32735 0
M  V30 2978 H 289.431 -2.80556 -1.67199 0
M  V30 2979 H 288.09 -3.65498 0.284047 0
M  V30 2980 H 287.738 -4.61624 -1.99781 0
M  V30 2981 H 287.438 -5.83056 -0.729328 0
M  V30 2982 H 288.962 -5.87584 -1.66066 0
M  V30 2983 H 290.376 -5.70109 0.604048 0
M  V30 2984 H 288.773 -5.83945 1.38304 0
M  V30 2985 H 289.843 -4.49485 1.81911 0
M  V30 2986 N 291.186 -0.45159 -1.50991 0
M  V30 2987 C 292.411 0.110667 -2.07105 0
M  V30 2988 C 292.836 1.3446 -1.31538 0
M  V30 2989 O 292.194 1.77743 -0.357365 0
M  V30 2990 C 292.242 0.397238 -3.58405 0
M  V30 2991 O 291.346 1.48124 -3.84881 0
M  V30 2992 H 290.687 -0.00439271 -0.663985 0
M  V30 2993 H 293.217 -0.637026 -1.9443 0
M  V30 2994 H 293.227 0.64351 -4.02893 0
M  V30 2995 H 291.902 -0.504553 -4.12828 0
M  V30 2996 H 290.479 1.22381 -3.52246 0
M  V30 2997 N 292.664 1.56529 -0.183458 0
M  V30 2998 C 293.889 2.02064 0.467428 0
M  V30 2999 C 294.314 1.06282 1.55196 0
M  V30 3000 O 293.672 0.0443565 1.81246 0
M  V30 3001 C 293.72 3.46122 1.01153 0
M  V30 3002 O 292.824 3.53437 2.12499 0
M  V30 3003 H 292.165 0.654726 0.110588 0
M  V30 3004 H 294.695 2.02521 -0.290917 0
M  V30 3005 H 294.705 3.85676 1.33108 0
M  V30 3006 H 293.38 4.15331 0.217533 0
M  V30 3007 H 291.957 3.2575 1.81497 0
M  V30 3008 N 294.142 -0.090211 1.57342 0
M  V30 3009 C 295.37 -0.806224 1.90546 0
M  V30 3010 C 295.785 -1.72041 0.777644 0
M  V30 3011 O 295.142 -1.80778 -0.250103 0
M  V30 3012 C 295.193 -1.61546 3.23396 0
M  V30 3013 O 294.914 -0.738043 4.31839 0
M  V30 3014 C 296.415 -2.4341 3.70495 0
M  V30 3015 H 293.635 -0.230256 0.630257 0
M  V30 3016 H 296.179 -0.0659843 2.04394 0
M  V30 3017 H 294.334 -2.30816 3.11131 0
M  V30 3018 H 294.748 -1.29901 5.08159 0
M  V30 3019 H 296.222 -2.95676 4.66133 0
M  V30 3020 H 296.699 -3.22098 2.98579 0
M  V30 3021 H 297.305 -1.79331 3.85643 0
M  V30 3022 N 295.62 -1.53406 -0.361157 0
M  V30 3023 C 296.55 -1.83136 -1.44857 0
M  V30 3024 C 297.531 -0.685174 -1.5569 0
M  V30 3025 O 298.716 -0.93544 -1.70186 0
M  V30 3026 C 295.846 -2.02522 -2.82138 0
M  V30 3027 C 294.8 -3.18302 -2.86126 0
M  V30 3028 C 294.126 -3.22989 -4.26125 0
M  V30 3029 C 295.426 -4.56796 -2.53248 0
M  V30 3030 H 297.12 -2.74201 -1.20226 0
M  V30 3031 H 294.666 -1.31938 -0.576922 0
M  V30 3032 H 296.619 -2.21904 -3.58241 0
M  V30 3033 H 295.343 -1.08172 -3.08166 0
M  V30 3034 H 294.002 -2.98747 -2.12475 0
M  V30 3035 H 293.65 -2.26267 -4.49235 0
M  V30 3036 H 293.35 -4.00781 -4.29708 0
M  V30 3037 H 294.874 -3.44559 -5.04094 0
M  V30 3038 H 296.288 -4.7631 -3.19064 0
M  V30 3039 H 294.685 -5.36862 -2.68141 0
M  V30 3040 H 295.755 -4.61606 -1.48484 0
M  V30 3041 N 297.098 0.621204 -1.44841 0
M  V30 3042 C 298.326 1.40752 -1.51646 0
M  V30 3043 C 298.741 1.88246 -0.144549 0
M  V30 3044 O 298.098 1.61422 0.851416 0
M  V30 3045 C 298.149 2.62119 -2.4895 0
M  V30 3046 O 297.87 2.16602 -3.80808 0
M  V30 3047 C 299.371 3.55135 -2.65319 0
M  V30 3048 H 296.591 0.431325 -0.514004 0
M  V30 3049 H 299.135 0.758835 -1.899 0
M  V30 3050 H 297.29 3.23058 -2.13805 0
M  V30 3051 H 297.704 2.95358 -4.33433 0
M  V30 3052 H 299.178 4.36874 -3.37409 0
M  V30 3053 H 299.655 4.04592 -1.70886 0
M  V30 3054 H 300.261 3.00058 -3.01405 0
M  V30 3055 N 298.576 1.31904 0.862503 0
M  V30 3056 C 299.506 1.22782 1.98612 0
M  V30 3057 C 300.487 0.113362 1.69722 0
M  V30 3058 O 301.672 0.299218 1.91881 0
M  V30 3059 C 298.802 0.942058 3.34279 0
M  V30 3060 C 297.756 2.0169 3.77499 0
M  V30 3061 C 297.082 1.58369 5.10709 0
M  V30 3062 C 298.382 3.43096 3.93805 0
M  V30 3063 H 300.076 2.16788 2.06502 0
M  V30 3064 H 297.622 1.04366 0.992154 0
M  V30 3065 H 299.575 0.864818 4.1243 0
M  V30 3066 H 298.299 -0.0336603 3.26583 0
M  V30 3067 H 296.958 2.08416 3.01593 0
M  V30 3068 H 296.606 0.595628 4.99461 0
M  V30 3069 H 296.306 2.30279 5.40597 0
M  V30 3070 H 297.83 1.52067 5.91361 0
M  V30 3071 H 299.244 3.39003 4.62331 0
M  V30 3072 H 297.641 4.13288 4.35101 0
M  V30 3073 H 298.711 3.83334 2.96957 0
M  V30 3074 N 300.054 -1.07777 1.14986 0
M  V30 3075 C 301.279 -1.84558 0.946213 0
M  V30 3076 C 301.704 -1.81323 -0.500362 0
M  V30 3077 O 301.062 -1.20301 -1.35637 0
M  V30 3078 C 301.11 -3.29736 1.45968 0
M  V30 3079 O 300.214 -4.07149 0.65601 0
M  V30 3080 H 299.555 -0.571641 0.33782 0
M  V30 3081 H 302.085 -1.35991 1.52865 0
M  V30 3082 H 302.095 -3.80574 1.47063 0
M  V30 3083 H 300.77 -3.31406 2.51283 0
M  V30 3084 H 299.347 -3.65994 0.714322 0
M  V30 3085 N 301.532 -0.945985 -1.26051 0
M  V30 3086 C 302.479 -0.45809 -2.26208 0
M  V30 3087 C 303.449 0.484816 -1.58867 0
M  V30 3088 O 304.634 0.399969 -1.86561 0
M  V30 3089 C 301.774 0.266131 -3.44072 0
M  V30 3090 C 300.887 -0.713005 -4.26075 0
M  V30 3091 C 300.022 0.0329013 -5.3119 0
M  V30 3092 C 299.061 -0.93774 -6.04874 0
M  V30 3093 N 298.198 -0.223274 -7.01745 0
M  V30 3094 H 303.038 -1.3171 -2.67313 0
M  V30 3095 H 300.575 -0.66069 -1.31428 0
M  V30 3096 H 302.533 0.702514 -4.11243 0
M  V30 3097 H 301.163 1.08925 -3.03867 0
M  V30 3098 H 300.215 -1.26789 -3.58648 0
M  V30 3099 H 301.527 -1.45406 -4.77136 0
M  V30 3100 H 300.681 0.528335 -6.04395 0
M  V30 3101 H 299.42 0.806801 -4.8098 0
M  V30 3102 H 298.425 -1.44425 -5.30492 0
M  V30 3103 H 299.65 -1.71172 -6.57173 0
M  V30 3104 H 297.596 0.532046 -6.53839 0
M  V30 3105 H 297.513 -0.90357 -7.50581 0
M  V30 3106 H 298.781 0.250907 -7.79096 0
M  V30 3107 N 303.011 1.40521 -0.713556 0
M  V30 3108 C 303.974 2.29098 -0.0684347 0
M  V30 3109 C 304.974 1.45268 0.689472 0
M  V30 3110 O 306.164 1.66205 0.521677 0
M  V30 3111 C 303.296 3.28446 0.913024 0
M  V30 3112 H 304.489 2.87645 -0.84855 0
M  V30 3113 H 302.042 1.48809 -0.47809 0
M  V30 3114 H 302.777 2.74913 1.72027 0
M  V30 3115 H 302.562 3.90327 0.372472 0
M  V30 3116 H 304.052 3.94777 1.36165 0
M  V30 3117 N 304.489 0.459591 1.5075 0
M  V30 3118 C 305.766 -0.160371 1.94941 0
M  V30 3119 C 306.146 -1.58048 1.39943 0
M  V30 3120 O 305.494 -2.206 0.595629 0
M  V30 3121 C 305.704 -0.115432 3.48809 0
M  V30 3122 C 307.052 -0.310026 4.23467 0
M  V30 3123 O 308.076 -0.192543 3.55679 0
M  V30 3124 O 306.935 -0.546031 5.43765 0
M  V30 3125 H 304.029 -0.117925 0.818549 0
M  V30 3126 H 306.575 0.519169 1.61563 0
M  V30 3127 H 305.347 0.87652 3.81357 0
M  V30 3128 H 304.97 -0.836928 3.88692 0
M  V30 3129 N 305.967 -1.56429 0.191757 0
M  V30 3130 C 307.197 -2.01574 -0.452928 0
M  V30 3131 C 307.605 -1.07107 -1.55964 0
M  V30 3132 O 306.948 -0.067534 -1.83576 0
M  V30 3133 C 307.01 -3.43121 -1.07278 0
M  V30 3134 C 306.674 -4.56879 -0.105214 0
M  V30 3135 C 307.671 -5.15379 0.684149 0
M  V30 3136 C 305.356 -5.023 0.00489824 0
M  V30 3137 C 307.35 -6.17746 1.57062 0
M  V30 3138 C 305.037 -6.04511 0.894935 0
M  V30 3139 C 306.035 -6.62108 1.67637 0
M  V30 3140 O 305.723 -7.62335 2.55149 0
M  V30 3141 H 305.455 -0.665554 -0.118379 0
M  V30 3142 H 308.009 -2.03245 0.296737 0
M  V30 3143 H 306.239 -3.38425 -1.87097 0
M  V30 3144 H 307.928 -3.72093 -1.62177 0
M  V30 3145 H 308.694 -4.81157 0.609365 0
M  V30 3146 H 304.573 -4.57168 -0.593156 0
M  V30 3147 H 308.117 -6.6263 2.181 0
M  V30 3148 H 304.014 -6.38157 0.970847 0
M  V30 3149 H 304.782 -7.79741 2.48892 0
M  V30 3150 N 307.445 0.0818655 -1.57387 0
M  V30 3151 C 308.355 1.11642 -2.06333 0
M  V30 3152 C 309.371 1.43033 -0.99083 0
M  V30 3153 O 310.547 1.53411 -1.30488 0
M  V30 3154 C 307.612 2.41342 -2.48907 0
M  V30 3155 C 306.673 2.17014 -3.7041 0
M  V30 3156 C 305.906 3.4053 -4.10944 0
M  V30 3157 O 306.129 4.4927 -3.51444 0
M  V30 3158 O 305.063 3.29336 -5.03807 0
M  V30 3159 H 308.889 0.730657 -2.9478 0
M  V30 3160 H 306.474 0.295301 -1.46452 0
M  V30 3161 H 308.356 3.17691 -2.76858 0
M  V30 3162 H 307.031 2.79319 -1.63593 0
M  V30 3163 H 305.938 1.38403 -3.47556 0
M  V30 3164 H 307.271 1.83923 -4.56545 0
M  V30 3165 N 308.923 1.53595 0.353017 0
M  V30 3166 C 309.87 1.80919 1.43308 0
M  V30 3167 C 310.84 0.654288 1.5267 0
M  V30 3168 O 312.025 0.897759 1.6836 0
M  V30 3169 C 309.165 2.01605 2.80089 0
M  V30 3170 C 308.278 3.29321 2.79593 0
M  V30 3171 C 307.413 3.40125 4.0803 0
M  V30 3172 C 306.452 4.61826 4.01725 0
M  V30 3173 N 305.589 4.69716 5.21834 0
M  V30 3174 H 310.429 2.73074 1.19308 0
M  V30 3175 H 307.966 1.35263 0.578131 0
M  V30 3176 H 309.924 2.11586 3.59565 0
M  V30 3177 H 308.554 1.12772 3.0246 0
M  V30 3178 H 307.606 3.28229 1.92276 0
M  V30 3179 H 308.918 4.18884 2.70809 0
M  V30 3180 H 308.072 3.49488 4.95927 0
M  V30 3181 H 306.811 2.48601 4.19582 0
M  V30 3182 H 305.816 4.52552 3.12213 0
M  V30 3183 H 307.041 5.54705 3.91764 0
M  V30 3184 H 304.987 3.81097 5.33948 0
M  V30 3185 H 304.904 5.53202 5.1527 0
M  V30 3186 H 306.172 4.83376 6.11529 0
M  V30 3187 N 310.401 -0.613514 1.45168 0
M  V30 3188 C 311.351 -1.71871 1.49815 0
M  V30 3189 C 312.335 -1.56774 0.362021 0
M  V30 3190 O 313.527 -1.66212 0.608493 0
M  V30 3191 C 310.656 -3.1061 1.46207 0
M  V30 3192 C 309.742 -3.31114 2.64999 0
M  V30 3193 N 310.133 -3.21904 3.90143 0
M  V30 3194 C 308.431 -3.61966 2.6057 0
M  V30 3195 C 309.132 -3.43577 4.69393 0
M  V30 3196 N 308.108 -3.67287 4.00751 0
M  V30 3197 H 311.91 -1.63235 2.444 0
M  V30 3198 H 309.424 -0.816577 1.40377 0
M  V30 3199 H 311.421 -3.8989 1.4762 0
M  V30 3200 H 310.081 -3.20399 0.52673 0
M  V30 3201 H 311.092 -3.00436 4.21852 0
M  V30 3202 H 307.769 -3.78629 1.75916 0
M  V30 3203 H 309.159 -3.41901 5.78406 0
M  V30 3204 N 311.879 -1.3236 -0.855495 0
M  V30 3205 C 312.826 -1.21225 -1.964 0
M  V30 3206 C 313.796 -0.0946204 -1.6583 0
M  V30 3207 O 314.981 -0.27002 -1.8888 0
M  V30 3208 C 312.121 -0.940419 -3.32039 0
M  V30 3209 C 311.234 -2.14276 -3.75113 0
M  V30 3210 C 310.369 -1.80648 -4.9954 0
M  V30 3211 C 309.408 -2.97208 -5.35102 0
M  V30 3212 N 308.545 -2.63678 -6.50706 0
M  V30 3213 H 313.385 -2.16042 -2.05255 0
M  V30 3214 H 310.922 -1.07451 -1.00463 0
M  V30 3215 H 312.88 -0.763311 -4.10158 0
M  V30 3216 H 311.51 -0.0290413 -3.22787 0
M  V30 3217 H 310.562 -2.43017 -2.92655 0
M  V30 3218 H 311.874 -3.01468 -3.97389 0
M  V30 3219 H 311.028 -1.59484 -5.85363 0
M  V30 3220 H 309.767 -0.906678 -4.79198 0
M  V30 3221 H 308.772 -3.19004 -4.47791 0
M  V30 3222 H 309.997 -3.87918 -5.57401 0
M  V30 3223 H 307.943 -1.76238 -6.31883 0
M  V30 3224 H 307.86 -3.444 -6.72997 0
M  V30 3225 H 309.128 -2.45942 -7.39684 0
M  V30 3226 N 313.357 1.07166 -1.15556 0
M  V30 3227 C 314.603 1.80065 -0.932984 0
M  V30 3228 C 314.936 1.86586 0.53845 0
M  V30 3229 O 314.211 1.35098 1.39924 0
M  V30 3230 C 314.494 3.25022 -1.55025 0
M  V30 3231 C 314.347 3.26634 -3.09242 0
M  V30 3232 C 315.666 4.22341 -1.2376 0
M  V30 3233 H 312.785 0.653697 -0.340366 0
M  V30 3234 H 315.427 1.25389 -1.4275 0
M  V30 3235 H 313.577 3.71712 -1.12972 0
M  V30 3236 H 315.249 2.88173 -3.60214 0
M  V30 3237 H 313.492 2.65539 -3.43033 0
M  V30 3238 H 314.163 4.28854 -3.47546 0
M  V30 3239 H 316.639 3.8405 -1.60139 0
M  V30 3240 H 315.515 5.22053 -1.69564 0
M  V30 3241 H 315.776 4.41828 -0.154938 0
M  V30 3242 N 314.835 0.952656 1.25548 0
M  V30 3243 C 316.065 0.622592 1.96996 0
M  V30 3244 C 316.473 -0.809112 1.71026 0
M  V30 3245 O 315.816 -1.55258 0.981861 0
M  V30 3246 C 315.878 0.798946 3.5051 0
M  V30 3247 C 315.542 2.20744 4.00151 0
M  V30 3248 C 316.539 3.18394 4.11001 0
M  V30 3249 C 314.224 2.5311 4.33867 0
M  V30 3250 C 316.218 4.46504 4.54877 0
M  V30 3251 C 313.905 3.8145 4.7743 0
M  V30 3252 C 314.903 4.77959 4.87897 0
M  V30 3253 O 314.591 6.04012 5.30494 0
M  V30 3254 H 314.323 0.232503 0.634758 0
M  V30 3255 H 316.877 1.2789 1.60728 0
M  V30 3256 H 315.107 0.0854903 3.86605 0
M  V30 3257 H 316.796 0.47023 4.03167 0
M  V30 3258 H 317.562 2.94715 3.85186 0
M  V30 3259 H 313.441 1.78719 4.24948 0
M  V30 3260 H 316.985 5.21835 4.62962 0
M  V30 3261 H 312.882 4.04936 5.0269 0
M  V30 3262 H 313.65 6.0736 5.48685 0
M  V30 3263 N 316.313 -1.40141 0.720998 0
M  V30 3264 C 317.276 -2.29058 0.0805834 0
M  V30 3265 C 318.276 -1.45632 -0.681758 0
M  V30 3266 O 319.466 -1.6648 -0.512856 0
M  V30 3267 C 316.598 -3.28925 -0.895593 0
M  V30 3268 H 317.791 -2.87191 0.863793 0
M  V30 3269 H 315.344 -1.48553 0.485975 0
M  V30 3270 H 316.079 -2.75822 -1.70566 0
M  V30 3271 H 315.864 -3.90519 -0.351766 0
M  V30 3272 H 317.354 -3.95494 -1.34069 0
M  V30 3273 N 317.792 -0.46758 -1.50504 0
M  V30 3274 C 319.032 0.0874114 -2.04213 0
M  V30 3275 C 319.396 1.37301 -1.34211 0
M  V30 3276 O 320.597 2.01015 -1.78456 0
M  V30 3277 C 318.868 0.270571 -3.56374 0
M  V30 3278 S 320.427 0.784623 -4.31728 0
M  V30 3279 H 317.245 0.0176153 -0.710782 0
M  V30 3280 H 319.847 -0.633915 -1.84937 0
M  V30 3281 H 318.551 -0.670942 -4.04878 0
M  V30 3282 H 318.082 1.01811 -3.79997 0
M  V30 3283 H 320.097 2.05849 -4.51487 0
M  V30 3284 N 319.27 1.56325 -0.20005 0
M  V30 3285 C 320.18 2.22931 0.730668 0
M  V30 3286 C 321.196 1.22997 1.23076 0
M  V30 3287 O 322.372 1.55748 1.27689 0
M  V30 3288 C 319.437 2.87948 1.93098 0
M  V30 3289 C 318.498 4.03166 1.47497 0
M  V30 3290 C 317.731 4.65073 2.61807 0
M  V30 3291 O 317.954 4.25913 3.79413 0
M  V30 3292 O 316.888 5.54452 2.34237 0
M  V30 3293 H 320.714 3.03084 0.193391 0
M  V30 3294 H 318.299 1.49371 0.0294621 0
M  V30 3295 H 320.181 3.29063 2.6324 0
M  V30 3296 H 318.856 2.10771 2.45677 0
M  V30 3297 H 317.763 3.66664 0.742201 0
M  V30 3298 H 319.096 4.82022 0.995796 0
M  V30 3299 N 320.748 -0.0735177 1.57428 0
M  V30 3300 C 321.994 -0.774145 1.87443 0
M  V30 3301 C 322.327 -1.77311 0.792103 0
M  V30 3302 O 321.602 -1.93492 -0.197793 0
M  V30 3303 C 321.885 -1.48367 3.28115 0
M  V30 3304 C 321.738 -0.501227 4.46999 0
M  V30 3305 C 323.057 -2.429 3.66998 0
M  V30 3306 H 320.176 -0.279971 0.681752 0
M  V30 3307 H 322.818 -0.0373616 1.89963 0
M  V30 3308 H 320.968 -2.11171 3.26097 0
M  V30 3309 H 322.64 0.121468 4.6114 0
M  V30 3310 H 320.883 0.183593 4.33411 0
M  V30 3311 H 321.554 -1.03526 5.42205 0
M  V30 3312 H 324.03 -1.90175 3.70098 0
M  V30 3313 H 322.906 -2.89549 4.66318 0
M  V30 3314 H 323.167 -3.27628 2.96837 0
M  V30 3315 N 322.226 -1.5378 -0.344866 0
M  V30 3316 C 323.454 -1.74899 -1.10534 0
M  V30 3317 C 323.869 -0.487534 -1.82397 0
M  V30 3318 O 323.226 0.540741 -1.74305 0
M  V30 3319 C 323.277 -2.92822 -2.11984 0
M  V30 3320 O 322.998 -4.14089 -1.43044 0
M  V30 3321 C 324.499 -3.25982 -3.00417 0
M  V30 3322 H 321.719 -0.584426 -0.329678 0
M  V30 3323 H 324.263 -2.006 -0.397474 0
M  V30 3324 H 322.418 -2.69457 -2.78338 0
M  V30 3325 H 322.832 -4.80272 -2.10805 0
M  V30 3326 H 324.306 -4.11848 -3.67539 0
M  V30 3327 H 324.783 -2.42228 -3.66363 0
M  V30 3328 H 325.389 -3.51349 -2.39654 0
M  V30 3329 N 323.704 0.605807 -1.45491 0
M  V30 3330 C 324.654 1.71074 -1.50724 0
M  V30 3331 C 325.638 1.5658 -0.37033 0
M  V30 3332 O 326.83 1.65887 -0.617299 0
M  V30 3333 C 323.959 3.0983 -1.47852 0
M  V30 3334 C 323.045 3.29704 -2.66751 0
M  V30 3335 N 323.436 3.19831 -3.91844 0
M  V30 3336 C 321.734 3.60579 -2.62486 0
M  V30 3337 C 322.435 3.41083 -4.71208 0
M  V30 3338 N 321.411 3.65157 -4.02693 0
M  V30 3339 H 325.213 1.61937 -2.45263 0
M  V30 3340 H 322.727 0.80912 -1.40808 0
M  V30 3341 H 324.724 3.89101 -1.49686 0
M  V30 3342 H 323.384 3.20115 -0.543714 0
M  V30 3343 H 324.395 2.98194 -4.23439 0
M  V30 3344 H 321.072 3.7769 -1.77922 0
M  V30 3345 H 322.462 3.38828 -5.80211 0
M  V30 3346 N 325.182 1.32811 0.848464 0
M  V30 3347 C 326.114 1.18095 1.96433 0
M  V30 3348 C 327.127 0.114354 1.62398 0
M  V30 3349 O 328.316 0.363892 1.74751 0
M  V30 3350 C 325.416 0.786798 3.2964 0
M  V30 3351 C 324.589 1.943 3.91875 0
M  V30 3352 C 323.648 1.53138 5.03423 0
M  V30 3353 O 322.674 2.24432 5.23086 0
M  V30 3354 N 323.876 0.430915 5.78898 0
M  V30 3355 H 326.641 2.14218 2.09597 0
M  V30 3356 H 324.202 1.2543 1.02367 0
M  V30 3357 H 326.194 0.493715 4.01677 0
M  V30 3358 H 324.764 -0.0834541 3.12489 0
M  V30 3359 H 323.984 2.40224 3.12547 0
M  V30 3360 H 325.272 2.71689 4.30189 0
M  V30 3361 H 324.67 -0.162333 5.65467 0
M  V30 3362 H 323.227 0.197466 6.51501 0
M  V30 3363 N 326.66 -1.06551 1.16123 0
M  V30 3364 C 327.908 -1.78947 0.939267 0
M  V30 3365 C 328.229 -1.87532 -0.534476 0
M  V30 3366 O 327.499 -1.38211 -1.38833 0
M  V30 3367 H 326.079 -0.662807 0.344523 0
M  V30 3368 H 328.741 -1.28725 1.46342 0
M  V30 3369 H 327.837 -2.81117 1.35572 0
M  V30 3370 N 328.138 -0.959301 -1.25041 0
M  V30 3371 C 329.068 -0.501388 -2.28053 0
M  V30 3372 C 330.049 0.454673 -1.63911 0
M  V30 3373 O 331.234 0.352618 -1.90972 0
M  V30 3374 C 328.364 0.217224 -3.4662 0
M  V30 3375 C 327.318 -0.654034 -4.22973 0
M  V30 3376 C 326.644 0.195589 -5.34342 0
M  V30 3377 C 327.944 -1.93447 -4.85155 0
M  V30 3378 H 329.638 -1.36238 -2.66608 0
M  V30 3379 H 327.184 -0.656534 -1.28163 0
M  V30 3380 H 329.137 0.548732 -4.17812 0
M  V30 3381 H 327.861 1.1125 -3.07068 0
M  V30 3382 H 326.52 -0.968693 -3.5357 0
M  V30 3383 H 326.168 1.09076 -4.91031 0
M  V30 3384 H 325.868 -0.384091 -5.86343 0
M  V30 3385 H 327.392 0.521958 -6.08365 0
M  V30 3386 H 328.806 -1.66908 -5.48466 0
M  V30 3387 H 327.203 -2.46018 -5.47353 0
M  V30 3388 H 328.273 -2.63466 -4.07079 0
M  V30 3389 N 329.616 1.39756 -0.72842 0
M  V30 3390 C 330.841 2.05472 -0.282159 0
M  V30 3391 C 331.266 1.54549 1.07221 0
M  V30 3392 O 330.624 0.686372 1.67805 0
M  V30 3393 C 330.672 3.59462 -0.286264 0
M  V30 3394 O 329.776 4.05918 0.728298 0
M  V30 3395 H 329.117 0.651226 -0.129618 0
M  V30 3396 H 331.647 1.78915 -0.992499 0
M  V30 3397 H 331.657 4.07798 -0.128373 0
M  V30 3398 H 330.332 3.95889 -1.27456 0
M  V30 3399 H 328.909 3.69012 0.537081 0
M  V30 3400 N 331.094 0.475555 1.50254 0
M  V30 3401 C 332.319 -0.0777042 2.07254 0
M  V30 3402 C 332.744 -1.3235 1.3366 0
M  V30 3403 O 332.102 -1.77152 0.385597 0
M  V30 3404 C 332.15 -0.340169 3.58992 0
M  V30 3405 O 331.254 -1.41982 3.87188 0
M  V30 3406 H 330.595 0.0149556 0.663832 0
M  V30 3407 H 333.125 0.667878 1.93392 0
M  V30 3408 H 333.135 -0.579332 4.03866 0
M  V30 3409 H 331.81 0.570167 4.11973 0
M  V30 3410 H 330.387 -1.16762 3.54148 0
M  V30 3411 N 332.573 -1.56217 0.208337 0
M  V30 3412 C 333.984 -1.84243 -0.301904 0
M  V30 3413 C 334.335 -1.12939 -1.60434 0
M  V30 3414 O 333.46 -0.39461 -2.12772 0
M  V30 3415 C 334.055 -3.34231 -0.554543 0
M  V30 3416 C 332.614 -3.62621 -1.00912 0
M  V30 3417 C 331.761 -2.77224 -0.064933 0
M  V30 3418 H 334.712 -1.52712 0.431833 0
M  V30 3419 H 334.733 -3.5372 -1.40223 0
M  V30 3420 H 334.245 -3.86099 0.393561 0
M  V30 3421 H 332.346 -3.16197 -1.97104 0
M  V30 3422 H 332.459 -4.7071 -0.892674 0
M  V30 3423 H 330.823 -2.48256 -0.56929 0
M  V30 3424 H 331.606 -3.31887 0.877851 0
M  V30 3425 N 334.051 0.0651679 -1.57465 0
M  V30 3426 C 335.297 0.764193 -1.87851 0
M  V30 3427 C 335.63 1.76889 -0.801495 0
M  V30 3428 O 334.905 1.93594 0.187528 0
M  V30 3429 C 335.188 1.46625 -3.28897 0
M  V30 3430 C 335.041 0.477515 -4.47258 0
M  V30 3431 C 336.36 2.4095 -3.68281 0
M  V30 3432 H 333.479 0.276351 -0.683227 0
M  V30 3433 H 336.121 0.0272868 -1.8998 0
M  V30 3434 H 334.271 2.09438 -3.27212 0
M  V30 3435 H 335.943 -0.145922 -4.61069 0
M  V30 3436 H 334.186 -0.206576 -4.33308 0
M  V30 3437 H 334.857 1.0065 -5.42746 0
M  V30 3438 H 337.333 1.88209 -3.71102 0
M  V30 3439 H 336.209 2.87072 -4.67847 0
M  V30 3440 H 336.47 3.26049 -2.98571 0
M  V30 3441 N 335.529 1.53961 0.336706 0
M  V30 3442 C 336.757 1.75483 1.09605 0
M  V30 3443 C 337.172 0.4972 1.82136 0
M  V30 3444 O 336.529 -0.53149 1.74589 0
M  V30 3445 C 336.58 2.93943 2.10428 0
M  V30 3446 O 336.301 4.14842 1.40846 0
M  V30 3447 C 337.802 3.27571 2.98684 0
M  V30 3448 H 335.022 0.586166 0.326574 0
M  V30 3449 H 337.566 2.00808 0.38683 0
M  V30 3450 H 335.721 2.70929 2.76905 0
M  V30 3451 H 336.135 4.81383 2.08255 0
M  V30 3452 H 337.609 4.13791 3.6535 0
M  V30 3453 H 338.086 2.44168 3.65074 0
M  V30 3454 H 338.692 3.52615 2.37787 0
M  V30 3455 N 337.007 -0.598083 1.45811 0
M  V30 3456 C 337.954 -1.7082 1.55207 0
M  V30 3457 C 338.924 -1.61278 0.39732 0
M  V30 3458 O 340.109 -1.80717 0.612038 0
M  V30 3459 C 337.249 -3.09144 1.53376 0
M  V30 3460 C 336.362 -3.29423 2.79472 0
M  V30 3461 C 335.497 -4.57907 2.69248 0
M  V30 3462 C 334.536 -4.71476 3.90354 0
M  V30 3463 N 333.673 -5.9127 3.78608 0
M  V30 3464 H 338.513 -1.62125 2.50039 0
M  V30 3465 H 336.05 -0.790389 1.24062 0
M  V30 3466 H 338.008 -3.89186 1.50301 0
M  V30 3467 H 336.638 -3.16773 0.620876 0
M  V30 3468 H 335.69 -2.43091 2.92594 0
M  V30 3469 H 337.002 -3.3532 3.69272 0
M  V30 3470 H 336.156 -5.46157 2.64192 0
M  V30 3471 H 334.895 -4.54423 1.77063 0
M  V30 3472 H 333.9 -3.81648 3.95759 0
M  V30 3473 H 335.125 -4.76751 4.83617 0
M  V30 3474 H 333.071 -5.88813 2.89199 0
M  V30 3475 H 332.988 -5.98369 4.6205 0
M  V30 3476 H 334.256 -6.81992 3.77501 0
M  V30 3477 N 338.485 -1.33259 -0.841409 0
M  V30 3478 C 339.71 -1.2775 -1.63385 0
M  V30 3479 C 340.135 0.149188 -1.87507 0
M  V30 3480 O 339.493 1.10498 -1.43736 0
M  V30 3481 C 339.541 -2.05571 -2.96265 0
M  V30 3482 O 338.645 -1.41257 -3.87453 0
M  V30 3483 H 337.986 -0.439627 -0.497618 0
M  V30 3484 H 340.516 -1.75782 -1.04699 0
M  V30 3485 H 340.526 -2.16241 -3.45982 0
M  V30 3486 H 339.201 -3.09309 -2.7803 0
M  V30 3487 H 337.778 -1.39217 -3.45938 0
M  V30 3488 N 339.963 1.05934 -1.16686 0
M  V30 3489 C 341.21 1.788 -0.950622 0
M  V30 3490 C 341.538 1.87384 0.521305 0
M  V30 3491 O 340.793 1.36438 1.40297 0
M  V30 3492 C 341.092 3.23105 -1.52767 0
M  V30 3493 C 340.758 3.34594 -3.02254 0
M  V30 3494 C 339.42 3.37437 -3.43059 0
M  V30 3495 C 341.772 3.36219 -3.98254 0
M  V30 3496 C 339.1 3.39525 -4.78477 0
M  V30 3497 C 341.452 3.39845 -5.33562 0
M  V30 3498 C 340.116 3.40971 -5.73842 0
M  V30 3499 H 339.386 0.654275 -0.347857 0
M  V30 3500 H 342.033 1.24555 -1.45459 0
M  V30 3501 H 340.338 3.80227 -0.94524 0
M  V30 3502 H 342.035 3.7809 -1.336 0
M  V30 3503 H 338.625 3.3309 -2.6972 0
M  V30 3504 H 342.809 3.33231 -3.67792 0
M  V30 3505 H 338.065 3.38703 -5.09009 0
M  V30 3506 H 342.239 3.4005 -6.07733 0
M  V30 3507 H 339.866 3.42342 -6.78753 0
M  V30 3508 N 341.441 0.965919 1.2453 0
M  V30 3509 C 342.389 0.486506 2.27455 0
M  V30 3510 C 343.383 -0.449041 1.6334 0
M  V30 3511 O 344.589 -0.324527 1.7705 0
M  V30 3512 H 340.964 0.138857 0.739069 0
M  V30 3513 H 342.935 1.3666 2.65267 0
M  V30 3514 C 341.684 -0.209481 3.47068 0
M  V30 3515 H 341.007 0.50129 3.96645 0
M  V30 3516 H 342.447 -0.508775 4.20936 0
M  V30 3517 C 340.906 -1.43586 3.0477 0
M  V30 3518 O 341.436 -2.53299 3.11773 0
M  V30 3519 N 339.642 -1.30126 2.59838 0
M  V30 3520 H 339.189 -0.408583 2.54339 0
M  V30 3521 H 339.147 -2.12294 2.31902 0
M  V30 3522 N 342.919 -1.39368 0.735821 0
M  V30 3523 C 344.335 -1.54204 0.411492 0
M  V30 3524 C 344.535 -1.70268 -1.07755 0
M  V30 3525 O 343.591 -1.70364 -1.86366 0
M  V30 3526 C 344.904 -2.75925 1.19523 0
M  V30 3527 C 346.452 -2.89761 1.18354 0
M  V30 3528 C 346.927 -4.14421 1.94986 0
M  V30 3529 N 348.418 -4.21462 1.92156 0
M  V30 3530 C 349.153 -5.16871 2.48258 0
M  V30 3531 N 348.649 -6.18063 3.13001 0
M  V30 3532 N 350.442 -5.09093 2.38287 0
M  V30 3533 H 342.593 -1.27189 1.70108 0
M  V30 3534 H 344.856 -0.616517 0.720147 0
M  V30 3535 H 344.562 -2.70401 2.24892 0
M  V30 3536 H 344.436 -3.68614 0.800222 0
M  V30 3537 H 346.823 -2.94777 0.137975 0
M  V30 3538 H 346.904 -1.98133 1.61793 0
M  V30 3539 H 346.548 -4.10166 2.99543 0
M  V30 3540 H 346.478 -5.05095 1.48953 0
M  V30 3541 H 348.969 -3.48979 1.44991 0
M  V30 3542 H 349.282 -6.87326 3.53275 0
M  V30 3543 H 347.627 -6.18448 3.17091 0
M  V30 3544 H 350.818 -4.28973 1.8735 0
M  V30 3545 H 350.991 -5.83272 2.82308 0
M  V30 3546 N 344.397 -0.483516 -1.5 0
M  V30 3547 C 345.645 0.067027 -2.01989 0
M  V30 3548 C 345.966 1.3909 -1.36671 0
M  V30 3549 O 345.236 1.88978 -0.516152 0
M  V30 3550 H 343.816 0.0277606 -0.746484 0
M  V30 3551 H 346.478 -0.636773 -1.84204 0
M  V30 3552 H 345.574 0.209484 -3.11396 0
M  V30 3553 N 345.875 1.56104 -0.216619 0
M  V30 3554 C 346.785 2.23694 0.706982 0
M  V30 3555 C 347.801 1.24295 1.21765 0
M  V30 3556 O 348.977 1.57094 1.2603 0
M  V30 3557 C 346.042 2.8998 1.90033 0
M  V30 3558 C 345.103 4.04708 1.43213 0
M  V30 3559 C 344.336 4.67824 2.56859 0
M  V30 3560 O 344.559 4.29913 3.74874 0
M  V30 3561 O 343.493 5.56905 2.28343 0
M  V30 3562 H 347.319 3.03272 0.161235 0
M  V30 3563 H 344.904 1.49394 0.0136177 0
M  V30 3564 H 346.786 3.31837 2.59735 0
M  V30 3565 H 345.461 2.13365 2.43428 0
M  V30 3566 H 344.368 3.6743 0.70327 0
M  V30 3567 H 345.701 4.83051 0.944615 0
M  V30 3568 N 347.353 -0.0568162 1.57498 0
M  V30 3569 C 348.593 -0.758273 1.89815 0
M  V30 3570 C 348.957 -1.73978 0.812132 0
M  V30 3571 O 350.158 -2.48744 1.01881 0
M  V30 3572 C 348.429 -1.43465 3.27342 0
M  V30 3573 S 349.988 -2.1691 3.81439 0
M  V30 3574 H 346.806 -0.251836 0.664906 0
M  V30 3575 H 349.408 -0.0137997 1.95495 0
M  V30 3576 H 348.112 -0.706693 4.0427 0
M  V30 3577 H 347.643 -2.21825 3.24896 0
M  V30 3578 H 349.658 -3.43658 3.5793 0
M  V30 3579 O 348.87 -1.60255 -0.200168 0
M  V30 3580 H 349.561 -1.74563 -0.839496 0
M  V30 END ATOM
M  V30 BEGIN BOND
M  V30 END BOND
M  V30 END CTAB
M  END
$$$$
