drugbank_target|Q7Z4T2 Fibroblast growth factor 23 (DB14012)
 OpenBabel12092121123D

  0  0  0     0  0            999 V3000
M  V30 BEGIN CTAB
M  V30 COUNTS 2266 2303 0 0 0
M  V30 BEGIN ATOM
M  V30 1 H -0.908 1.98254 -0.117106 0
M  V30 2 N 0 1.576 0 0
M  V30 3 C 0.95 2.04904 0.999926 0
M  V30 4 C 1.934 0.943764 1.30315 0
M  V30 5 O 3.126 1.20753 1.29413 0
M  V30 6 C 0.255 2.55589 2.29192 0
M  V30 7 C -0.659 3.72993 2.01834 0
M  V30 8 N -0.268 4.8468 1.44635 0
M  V30 9 C -1.97 3.80924 2.31977 0
M  V30 10 C -1.269 5.66115 1.33747 0
M  V30 11 N -2.293 5.12118 1.82308 0
M  V30 12 H 1.509 2.88666 0.55217 0
M  V30 13 H -0.977 1.61092 0.205694 0
M  V30 14 H 1.02 2.87754 3.01668 0
M  V30 15 H -0.32 1.73245 2.7462 0
M  V30 16 H 0.691 5.0553 1.12516 0
M  V30 17 H -2.632 3.09434 2.8028 0
M  V30 18 H -1.242 6.65877 0.897654 0
M  V30 19 N 1.4781 -0.272755 1.55222 0
M  V30 20 C 2.7081 -1.02107 1.79604 0
M  V30 21 C 3.1161 -1.80419 0.569693 0
M  V30 22 O 2.4591 -1.77566 -0.470743 0
M  V30 23 C 2.5211 -2.02675 2.96922 0
M  V30 24 C 2.1851 -1.43299 4.33952 0
M  V30 25 C 3.1821 -0.84853 5.12929 0
M  V30 26 C 0.8671 -1.46012 4.8061 0
M  V30 27 C 2.8611 -0.299109 6.36698 0
M  V30 28 C 0.5481 -0.906833 6.04334 0
M  V30 29 C 1.5461 -0.32733 6.82215 0
M  V30 30 O 1.2341 0.217479 8.03606 0
M  V30 31 H 0.9661 -0.307322 0.602104 0
M  V30 32 H 3.5201 -0.308862 2.03065 0
M  V30 33 H 1.7501 -2.77656 2.69155 0
M  V30 34 H 3.4391 -2.63637 3.08626 0
M  V30 35 H 4.2051 -0.820265 4.78013 0
M  V30 36 H 0.0841 -1.90056 4.2 0
M  V30 37 H 3.6281 0.153852 6.9743 0
M  V30 38 H -0.4749 -0.932339 6.38731 0
M  V30 39 H 0.2931 0.106863 8.1843 0
M  V30 40 N 2.9562 -1.48159 -0.537278 0
M  V30 41 C 4.2032 -1.55804 -1.29349 0
M  V30 42 C 4.5312 -0.228802 -1.9315 0
M  V30 43 O 3.7862 0.780242 -1.79473 0
M  V30 44 C 4.0852 -2.63956 -2.40961 0
M  V30 45 C 3.7512 -4.0662 -1.94861 0
M  V30 46 C 2.4132 -4.45452 -1.82006 0
M  V30 47 C 4.7652 -4.96055 -1.59933 0
M  V30 48 C 2.0932 -5.71531 -1.32547 0
M  V30 49 C 4.4452 -6.22617 -1.11939 0
M  V30 50 C 3.1092 -6.60312 -0.976951 0
M  V30 51 H 2.3792 -0.570129 -0.473322 0
M  V30 52 H 5.0262 -1.81845 -0.600372 0
M  V30 53 H 3.3312 -2.31747 -3.15912 0
M  V30 54 H 5.0282 -2.67089 -2.99107 0
M  V30 55 H 1.6182 -3.75949 -2.05815 0
M  V30 56 H 5.8022 -4.66738 -1.68728 0
M  V30 57 H 1.0582 -5.99468 -1.202 0
M  V30 58 H 5.2322 -6.91318 -0.839811 0
M  V30 59 H 2.8592 -7.57895 -0.591501 0
M  V30 60 N 4.4343 0.785586 -1.36625 0
M  V30 61 C 5.7113 1.53198 -1.21613 0
M  V30 62 C 6.0913 2.10187 0.196113 0
M  V30 63 O 5.4393 1.94318 1.20219 0
M  V30 64 C 5.6493 2.62388 -2.30116 0
M  V30 65 C 6.9973 3.30167 -2.66974 0
M  V30 66 O 8.0213 2.72674 -2.29188 0
M  V30 67 O 6.8803 4.34077 -3.32023 0
M  V30 68 H 3.9743 0.677865 -0.473738 0
M  V30 69 H 6.5203 0.823739 -1.48367 0
M  V30 70 H 5.2923 2.18299 -3.24748 0
M  V30 71 H 4.9153 3.40827 -2.0475 0
M  V30 72 N 5.9124 1.20967 1.01018 0
M  V30 73 C 7.3234 1.02319 1.56165 0
M  V30 74 C 7.6744 -0.418546 1.91684 0
M  V30 75 O 6.7994 -1.30096 1.72928 0
M  V30 76 C 7.3944 1.85109 2.8376 0
M  V30 77 C 5.9534 1.70809 3.35412 0
M  V30 78 C 5.1004 1.82643 2.08655 0
M  V30 79 H 8.0514 1.35065 0.833255 0
M  V30 80 H 8.0724 1.35827 3.55431 0
M  V30 81 H 7.5844 2.90035 2.57878 0
M  V30 82 H 5.6854 0.685464 3.66241 0
M  V30 83 H 5.7984 2.52467 4.07182 0
M  V30 84 H 4.1624 1.25896 2.21409 0
M  V30 85 H 4.9454 2.89066 1.85191 0
M  V30 86 N 7.3905 -1.2043 1.01659 0
M  V30 87 C 8.3005 -2.2689 0.596484 0
M  V30 88 C 9.3165 -1.70107 -0.36599 0
M  V30 89 O 10.4925 -2.00117 -0.226942 0
M  V30 90 C 7.5575 -3.4665 -0.0586659 0
M  V30 91 C 6.6185 -4.18662 0.949751 0
M  V30 92 C 5.8515 -5.32705 0.32577 0
M  V30 93 O 6.0745 -5.63656 -0.874509 0
M  V30 94 O 5.0085 -5.92803 1.04249 0
M  V30 95 H 8.8345 -2.65041 1.4828 0
M  V30 96 H 6.4195 -1.27048 0.786082 0
M  V30 97 H 8.3015 -4.19256 -0.424564 0
M  V30 98 H 6.9765 -3.10375 -0.91918 0
M  V30 99 H 5.8835 -3.48229 1.36702 0
M  V30 100 H 7.2165 -4.58878 1.78023 0
M  V30 101 N 8.8686 -0.792821 -1.36206 0
M  V30 102 C 9.8166 -0.181555 -2.3189 0
M  V30 103 C 10.8106 0.661025 -1.55971 0
M  V30 104 O 12.0166 0.555728 -1.71206 0
M  V30 105 H 8.3916 -0.0399382 -0.750939 0
M  V30 106 H 10.3626 -1.00394 -2.81005 0
M  V30 107 C 9.1116 0.666444 -3.41253 0
M  V30 108 H 8.4346 0.0274489 -3.99791 0
M  V30 109 H 9.8746 1.06076 -4.10517 0
M  V30 110 C 8.3336 1.82614 -2.83114 0
M  V30 111 O 8.8636 2.9229 -2.75553 0
M  V30 112 N 7.0696 1.63333 -2.40356 0
M  V30 113 H 6.6166 0.741217 -2.46706 0
M  V30 114 H 6.5746 2.41087 -2.01803 0
M  V30 115 N 10.3467 1.47872 -0.545128 0
M  V30 116 C 11.5867 2.04391 -0.0187854 0
M  V30 117 C 11.9507 1.41162 1.30144 0
M  V30 118 O 13.1517 1.88656 1.91474 0
M  V30 119 C 11.4227 3.57299 0.0850867 0
M  V30 120 S 12.9817 4.35221 0.559302 0
M  V30 121 H 9.7997 0.710737 -0.0193301 0
M  V30 122 H 12.4017 1.81395 -0.729125 0
M  V30 123 H 11.1057 4.00847 -0.880351 0
M  V30 124 H 10.6367 3.84773 0.819348 0
M  V30 125 H 12.6517 4.61571 1.82118 0
M  V30 126 N 11.8248 0.280983 1.55075 0
M  V30 127 C 13.2408 -0.0729964 1.59433 0
M  V30 128 C 13.4408 -1.5411 1.29817 0
M  V30 129 O 12.4968 -2.29086 1.06187 0
M  V30 130 C 13.8098 0.306921 2.9913 0
M  V30 131 C 15.3578 0.254023 3.11968 0
M  V30 132 C 15.8328 0.608467 4.5394 0
M  V30 133 N 17.3238 0.560241 4.59799 0
M  V30 134 C 18.0588 0.80722 5.6769 0
M  V30 135 N 17.5548 1.11912 6.83701 0
M  V30 136 N 19.3478 0.735623 5.57266 0
M  V30 137 H 11.4988 1.238 1.7259 0
M  V30 138 H 13.7618 0.500547 0.805082 0
M  V30 139 H 13.4678 1.32816 3.25657 0
M  V30 140 H 13.3418 -0.349363 3.75579 0
M  V30 141 H 15.7288 -0.75794 2.852 0
M  V30 142 H 15.8098 0.944649 2.37718 0
M  V30 143 H 15.4538 1.61814 4.81434 0
M  V30 144 H 15.3838 -0.104013 5.26497 0
M  V30 145 H 17.8748 0.329288 3.76463 0
M  V30 146 H 18.1878 1.29409 7.61888 0
M  V30 147 H 16.5328 1.15695 6.85303 0
M  V30 148 H 19.7238 0.491752 4.6551 0
M  V30 149 H 19.8968 0.931482 6.4127 0
M  V30 150 N 13.3029 -1.57598 0.00835791 0
M  V30 151 C 14.5499 -1.90928 -0.674732 0
M  V30 152 C 14.8779 -0.88277 -1.73313 0
M  V30 153 O 14.1329 0.111294 -1.95383 0
M  V30 154 C 14.4319 -3.3101 -1.34787 0
M  V30 155 C 14.0979 -4.48922 -0.421861 0
M  V30 156 C 12.7599 -4.8091 -0.166927 0
M  V30 157 C 15.1119 -5.20755 0.215211 0
M  V30 158 C 12.4399 -5.821 0.733232 0
M  V30 159 C 14.7919 -6.22905 1.1033 0
M  V30 160 C 13.4559 -6.53346 1.36733 0
M  V30 161 H 12.7259 -0.698656 -0.246902 0
M  V30 162 H 15.3729 -1.91387 0.0656779 0
M  V30 163 H 13.6779 -3.26714 -2.16253 0
M  V30 164 H 15.3749 -3.54061 -1.8826 0
M  V30 165 H 11.9649 -4.23934 -0.630729 0
M  V30 166 H 16.1489 -4.9629 0.0312829 0
M  V30 167 H 11.4049 -6.04042 0.945712 0
M  V30 168 H 15.5789 -6.77694 1.60325 0
M  V30 169 H 13.2059 -7.31573 2.06652 0
M  V30 170 N 14.781 0.264519 -1.55364 0
M  V30 171 C 15.713 1.34965 -1.85248 0
M  V30 172 C 16.726 1.45136 -0.737525 0
M  V30 173 O 17.915 1.46801 -1.01547 0
M  V30 174 C 15.015 2.73008 -2.00797 0
M  V30 175 C 14.188 2.85324 -3.31525 0
M  V30 176 C 13.247 4.04097 -3.37034 0
M  V30 177 O 12.273 3.94455 -4.10358 0
M  V30 178 N 13.475 5.16458 -2.65049 0
M  V30 179 H 16.24 1.09672 -2.78913 0
M  V30 180 H 13.801 0.454635 -1.55386 0
M  V30 181 H 15.793 3.50772 -2.01844 0
M  V30 182 H 14.363 2.91087 -1.1396 0
M  V30 183 H 13.583 1.94377 -3.42945 0
M  V30 184 H 14.871 2.9049 -4.17724 0
M  V30 185 H 14.269 5.27181 -2.05175 0
M  V30 186 H 12.826 5.92422 -2.71809 0
M  V30 187 N 16.2591 1.48442 0.529413 0
M  V30 188 C 17.2091 1.59407 1.63014 0
M  V30 189 C 18.1931 0.451166 1.54445 0
M  V30 190 O 19.3851 0.702635 1.62456 0
M  V30 191 C 16.5141 1.63746 3.01732 0
M  V30 192 C 15.6001 2.83518 3.15402 0
M  V30 193 N 15.9911 4.07929 2.99045 0
M  V30 194 C 14.2891 2.80862 3.46457 0
M  V30 195 C 14.9901 4.8829 3.16146 0
M  V30 196 N 13.9661 4.21117 3.43746 0
M  V30 197 H 17.7681 2.53343 1.48978 0
M  V30 198 H 15.2821 1.44821 0.734885 0
M  V30 199 H 17.2791 1.69695 3.80801 0
M  V30 200 H 15.9391 0.709264 3.16859 0
M  V30 201 H 16.9501 4.38357 2.75796 0
M  V30 202 H 13.6271 1.97301 3.67938 0
M  V30 203 H 15.0171 5.97028 3.08232 0
M  V30 204 N 17.7372 -0.778329 1.37039 0
M  V30 205 C 18.6692 -1.90034 1.2814 0
M  V30 206 C 19.6822 -1.61585 0.198558 0
M  V30 207 O 20.8712 -1.72625 0.454175 0
M  V30 208 C 17.9712 -3.25108 0.956968 0
M  V30 209 C 17.1442 -3.81253 2.14394 0
M  V30 210 C 16.2032 -4.94789 1.79082 0
M  V30 211 O 15.2292 -5.10721 2.51301 0
M  V30 212 N 16.4312 -5.75878 0.731043 0
M  V30 213 H 19.1962 -1.98186 2.24816 0
M  V30 214 H 16.7572 -0.957129 1.30578 0
M  V30 215 H 18.7492 -3.9857 0.701701 0
M  V30 216 H 17.3192 -3.125 0.0789812 0
M  V30 217 H 16.5392 -2.99647 2.56135 0
M  V30 218 H 17.8272 -4.15495 2.93668 0
M  V30 219 H 17.2252 -5.65547 0.131618 0
M  V30 220 H 15.7822 -6.49596 0.535622 0
M  V30 221 N 19.2153 -1.21501 -1.00376 0
M  V30 222 C 20.4433 -1.059 -1.77744 0
M  V30 223 C 20.8583 0.391125 -1.84704 0
M  V30 224 O 20.2153 1.27133 -1.30933 0
M  V30 225 C 20.2663 -1.65111 -3.21591 0
M  V30 226 O 19.9873 -3.0445 -3.15027 0
M  V30 227 C 21.4883 -1.54637 -4.15454 0
M  V30 228 H 18.7083 -0.371825 -0.558558 0
M  V30 229 H 21.2523 -1.60865 -1.26264 0
M  V30 230 H 19.4073 -1.14235 -3.70175 0
M  V30 231 H 19.8213 -3.3278 -4.0541 0
M  V30 232 H 21.2953 -2.00808 -5.14179 0
M  V30 233 H 21.7723 -0.501022 -4.36333 0
M  V30 234 H 22.3783 -2.04767 -3.72761 0
M  V30 235 N 20.6934 1.19889 -1.02296 0
M  V30 236 C 21.6234 2.25141 -0.619174 0
M  V30 237 C 22.6044 1.66051 0.368915 0
M  V30 238 O 23.7894 1.92546 0.252941 0
M  V30 239 C 20.9194 3.4728 0.0368783 0
M  V30 240 C 19.8734 4.19005 -0.872865 0
M  V30 241 C 19.1994 5.34637 -0.0822402 0
M  V30 242 C 20.4994 4.74452 -2.18387 0
M  V30 243 H 22.1934 2.59171 -1.49903 0
M  V30 244 H 19.7394 1.24579 -0.722222 0
M  V30 245 H 21.6924 4.20098 0.330958 0
M  V30 246 H 20.4164 3.12433 0.95149 0
M  V30 247 H 19.0754 3.48061 -1.15105 0
M  V30 248 H 18.7234 4.96034 0.83422 0
M  V30 249 H 18.4234 5.83557 -0.688149 0
M  V30 250 H 19.9474 6.10255 0.205238 0
M  V30 251 H 21.3614 5.39055 -1.95172 0
M  V30 252 H 19.7584 5.33834 -2.74119 0
M  V30 253 H 20.8284 3.92844 -2.84257 0
M  V30 254 N 22.1715 0.800033 1.35784 0
M  V30 255 C 23.0815 0.207204 2.33683 0
M  V30 256 C 24.0975 -0.64631 1.61551 0
M  V30 257 O 25.2735 -0.559604 1.93469 0
M  V30 258 C 22.3385 -0.639659 3.40748 0
M  V30 259 C 21.3995 0.233585 4.28664 0
M  V30 260 C 20.6325 -0.572954 5.30616 0
M  V30 261 O 20.8555 -1.80816 5.40982 0
M  V30 262 O 19.7895 0.0327285 6.01891 0
M  V30 263 H 23.6155 1.01692 2.86169 0
M  V30 264 H 21.2005 0.561691 1.38439 0
M  V30 265 H 23.0825 -1.12223 4.06182 0
M  V30 266 H 21.7575 -1.42708 2.90544 0
M  V30 267 H 20.6645 0.763147 3.66233 0
M  V30 268 H 21.9975 0.984784 4.82248 0
M  V30 269 N 23.6496 -1.47581 0.552962 0
M  V30 270 C 24.5976 -2.31648 -0.21023 0
M  V30 271 C 25.5916 -1.42663 -0.913432 0
M  V30 272 O 26.7976 -1.5945 -0.835201 0
M  V30 273 H 23.1726 -0.746989 -0.0866676 0
M  V30 274 H 25.1436 -2.93869 0.518051 0
M  V30 275 C 23.8926 -3.25226 -1.22976 0
M  V30 276 H 23.2156 -3.93658 -0.698077 0
M  V30 277 H 24.6556 -3.86889 -1.73473 0
M  V30 278 C 23.1146 -2.48448 -2.27542 0
M  V30 279 O 23.6446 -2.22585 -3.34393 0
M  V30 280 N 21.8506 -2.09532 -2.01357 0
M  V30 281 H 21.3976 -2.30765 -1.14478 0
M  V30 282 H 21.3556 -1.58476 -2.71538 0
M  V30 283 N 25.1277 -0.289203 -1.54924 0
M  V30 284 C 26.3757 0.322879 -1.99504 0
M  V30 285 C 26.6967 1.55313 -1.1791 0
M  V30 286 O 25.9667 1.94001 -0.272097 0
M  V30 287 H 24.5467 0.122291 -0.736922 0
M  V30 288 H 27.2087 -0.397802 -1.90797 0
M  V30 289 H 26.3047 0.603061 -3.06218 0
M  V30 290 N 26.6058 1.57591 -0.0167156 0
M  V30 291 C 27.8358 1.95292 0.674149 0
M  V30 292 C 28.2438 0.891097 1.66901 0
M  V30 293 O 27.5868 -0.136908 1.83189 0
M  V30 294 C 27.6488 3.29072 1.44747 0
M  V30 295 C 27.3128 4.52879 0.612331 0
M  V30 296 C 28.3098 5.1979 -0.107126 0
M  V30 297 C 25.9948 4.99242 0.553381 0
M  V30 298 C 27.9888 6.31375 -0.874339 0
M  V30 299 C 25.6758 6.10713 -0.217546 0
M  V30 300 C 26.6738 6.76637 -0.930123 0
M  V30 301 O 26.3618 7.85969 -1.68844 0
M  V30 302 H 26.0938 0.648275 0.191615 0
M  V30 303 H 28.6478 2.05284 -0.0690148 0
M  V30 304 H 26.8778 3.15535 2.2355 0
M  V30 305 H 28.5668 3.51764 2.02526 0
M  V30 306 H 29.3328 4.84948 -0.0708392 0
M  V30 307 H 25.2118 4.47744 1.09757 0
M  V30 308 H 28.7558 6.82764 -1.43106 0
M  V30 309 H 24.6528 6.44994 -0.255593 0
M  V30 310 H 25.4208 8.02571 -1.6069 0
M  V30 311 N 28.0839 -0.256276 1.55502 0
M  V30 312 C 29.3609 -1.00789 1.67633 0
M  V30 313 C 29.7409 -2.03706 0.553826 0
M  V30 314 O 29.0889 -2.24145 -0.443969 0
M  V30 315 C 29.2989 -1.64968 3.07549 0
M  V30 316 C 30.6469 -2.15505 3.65845 0
M  V30 317 O 31.6709 -1.74925 3.1029 0
M  V30 318 O 30.5299 -2.89986 4.63217 0
M  V30 319 H 27.6239 -0.468553 0.681459 0
M  V30 320 H 30.1699 -0.250806 1.67836 0
M  V30 321 H 28.9419 -0.904785 3.80696 0
M  V30 322 H 28.5649 -2.47321 3.11317 0
M  V30 323 N 29.562 -1.4872 -0.521534 0
M  V30 324 C 30.808 -1.574 -1.27879 0
M  V30 325 C 31.141 -0.250817 -1.92573 0
M  V30 326 O 30.416 0.743934 -1.79711 0
M  V30 327 C 30.699 -2.71843 -2.36164 0
M  V30 328 C 30.552 -4.13893 -1.76105 0
M  V30 329 C 31.871 -2.82008 -3.37875 0
M  V30 330 H 28.99 -0.572941 -0.463581 0
M  V30 331 H 31.632 -1.80927 -0.580119 0
M  V30 332 H 29.782 -2.51914 -2.95756 0
M  V30 333 H 31.454 -4.45284 -1.20499 0
M  V30 334 H 29.697 -4.20498 -1.06601 0
M  V30 335 H 30.368 -4.89804 -2.5455 0
M  V30 336 H 32.844 -3.00086 -2.88249 0
M  V30 337 H 31.72 -3.63796 -4.11028 0
M  V30 338 H 31.981 -1.90511 -3.98946 0
M  V30 339 N 31.0401 0.771051 -1.3745 0
M  V30 340 C 32.2701 1.55789 -1.35696 0
M  V30 341 C 32.6781 1.89107 0.0594523 0
M  V30 342 O 32.0211 1.51984 1.03183 0
M  V30 343 C 32.0831 2.89515 -2.13123 0
M  V30 344 C 31.7471 2.78829 -3.62082 0
M  V30 345 C 32.7441 2.49812 -4.5595 0
M  V30 346 C 30.4291 2.9683 -4.05213 0
M  V30 347 C 32.4231 2.38923 -5.90927 0
M  V30 348 C 30.1101 2.85562 -5.40276 0
M  V30 349 C 31.1081 2.56649 -6.32946 0
M  V30 350 O 30.7961 2.45408 -7.65526 0
M  V30 351 H 30.5281 0.489257 -0.466481 0
M  V30 352 H 33.0821 0.963446 -1.81403 0
M  V30 353 H 31.3121 3.51081 -1.62107 0
M  V30 354 H 33.0011 3.50915 -2.03994 0
M  V30 355 H 33.7671 2.3559 -4.23937 0
M  V30 356 H 29.6461 3.18335 -3.33442 0
M  V30 357 H 33.1901 2.16277 -6.63227 0
M  V30 358 H 29.0871 2.99351 -5.71891 0
M  V30 359 H 29.8551 2.60753 -7.75855 0
M  V30 360 N 32.5182 1.22032 0.997298 0
M  V30 361 C 33.4682 0.953838 2.07089 0
M  V30 362 C 34.4522 -0.0938669 1.60626 0
M  V30 363 O 35.6442 0.116078 1.76619 0
M  V30 364 C 32.7732 0.528726 3.39204 0
M  V30 365 C 31.8592 1.61092 3.92314 0
M  V30 366 N 32.2502 2.83768 4.18699 0
M  V30 367 C 30.5482 1.48158 4.20672 0
M  V30 368 C 31.2492 3.53715 4.61802 0
M  V30 369 N 30.2252 2.81174 4.65233 0
M  V30 370 H 34.0272 1.88577 2.25424 0
M  V30 371 H 31.5412 1.11719 1.17867 0
M  V30 372 H 33.5382 0.31915 4.15677 0
M  V30 373 H 32.1982 -0.39635 3.22272 0
M  V30 374 H 33.2092 3.20238 4.07023 0
M  V30 375 H 29.8862 0.622369 4.12835 0
M  V30 376 H 31.2762 4.58793 4.90875 0
M  V30 377 N 33.9963 -1.19345 1.0293 0
M  V30 378 C 35.2213 -1.93538 0.745511 0
M  V30 379 C 35.6463 -1.75007 -0.689511 0
M  V30 380 O 35.0043 -1.05265 -1.47611 0
M  V30 381 C 35.0523 -3.43336 1.10239 0
M  V30 382 O 34.1563 -4.11806 0.221289 0
M  V30 383 H 33.4973 -0.604193 0.275404 0
M  V30 384 H 36.0273 -1.5141 1.37609 0
M  V30 385 H 36.0373 -3.94004 1.05947 0
M  V30 386 H 34.7123 -3.56146 2.14786 0
M  V30 387 H 33.2893 -3.715 0.322842 0
M  V30 388 N 35.4744 -0.807222 -1.35358 0
M  V30 389 C 36.8854 -0.44876 -1.81226 0
M  V30 390 C 37.2364 1.02929 -1.67033 0
M  V30 391 O 36.3614 1.79991 -1.20133 0
M  V30 392 C 36.9564 -0.807774 -3.2903 0
M  V30 393 C 35.5154 -0.501901 -3.73039 0
M  V30 394 C 34.6624 -1.03304 -2.57339 0
M  V30 395 H 37.6134 -0.998808 -1.23327 0
M  V30 396 H 37.6344 -0.10554 -3.80354 0
M  V30 397 H 37.1464 -1.88357 -3.39328 0
M  V30 398 H 35.2474 0.565128 -3.68289 0
M  V30 399 H 35.3604 -1.03497 -4.67787 0
M  V30 400 H 33.7244 -0.455339 -2.50597 0
M  V30 401 H 34.5074 -2.11496 -2.70415 0
M  V30 402 N 36.9525 1.47285 -0.560781 0
M  V30 403 C 37.8845 2.28118 0.222438 0
M  V30 404 C 38.8975 1.37219 0.876056 0
M  V30 405 O 40.0865 1.62011 0.749307 0
M  V30 406 C 37.1865 3.1159 1.33285 0
M  V30 407 C 36.3595 4.30473 0.77534 0
M  V30 408 C 35.4185 4.95513 1.77069 0
M  V30 409 O 34.4445 5.53792 1.31539 0
M  V30 410 N 35.6465 4.90531 3.10418 0
M  V30 411 H 38.4115 2.95976 -0.470958 0
M  V30 412 H 35.9725 1.56955 -0.39709 0
M  V30 413 H 37.9645 3.51967 1.99752 0
M  V30 414 H 36.5345 2.45951 1.92943 0
M  V30 415 H 35.7545 3.94144 -0.0662113 0
M  V30 416 H 37.0425 5.07362 0.382272 0
M  V30 417 H 36.4405 4.44389 3.5005 0
M  V30 418 H 34.9975 5.34917 3.72434 0
M  V30 419 N 38.4306 0.297415 1.54768 0
M  V30 420 C 39.6606 -0.315165 2.04182 0
M  V30 421 C 40.0686 -1.4834 1.17439 0
M  V30 422 O 39.4116 -1.82695 0.191891 0
M  V30 423 C 39.4736 -0.837583 3.49607 0
M  V30 424 C 39.1376 0.204912 4.5654 0
M  V30 425 C 40.1346 1.03214 5.09552 0
M  V30 426 C 37.8196 0.345578 5.0111 0
M  V30 427 C 39.8136 1.986 6.05671 0
M  V30 428 C 37.5006 1.30289 5.97049 0
M  V30 429 C 38.4986 2.12159 6.49213 0
M  V30 430 O 38.1866 3.06268 7.43273 0
M  V30 431 H 37.9186 -0.0729646 0.672051 0
M  V30 432 H 40.4726 0.433907 2.00765 0
M  V30 433 H 38.7026 -1.63712 3.50336 0
M  V30 434 H 40.3916 -1.36566 3.82236 0
M  V30 435 H 41.1576 0.934312 4.75916 0
M  V30 436 H 37.0366 -0.28171 4.60138 0
M  V30 437 H 40.5806 2.62542 6.46311 0
M  V30 438 H 36.4776 1.40145 6.30103 0
M  V30 439 H 37.2456 3.01205 7.61064 0
M  V30 440 N 39.9087 -1.5758 0.0250728 0
M  V30 441 C 40.8587 -2.06468 -0.967201 0
M  V30 442 C 41.8427 -0.964376 -1.28797 0
M  V30 443 O 43.0347 -1.22797 -1.27475 0
M  V30 444 C 40.1637 -2.59203 -2.25097 0
M  V30 445 C 39.2497 -3.76157 -1.95874 0
M  V30 446 N 39.6407 -4.86919 -1.36905 0
M  V30 447 C 37.9387 -3.84566 -2.25887 0
M  V30 448 C 38.6397 -5.68172 -1.24724 0
M  V30 449 N 37.6157 -5.14953 -1.74138 0
M  V30 450 H 41.4177 -2.89508 -0.506176 0
M  V30 451 H 38.9317 -1.61399 -0.18004 0
M  V30 452 H 40.9287 -2.92517 -2.97052 0
M  V30 453 H 39.5887 -1.77592 -2.71829 0
M  V30 454 H 40.5997 -5.07256 -1.04459 0
M  V30 455 H 37.2767 -3.13854 -2.75321 0
M  V30 456 H 38.6667 -6.67221 -0.791605 0
M  V30 457 N 41.3868 0.248026 -1.55636 0
M  V30 458 C 42.6338 0.976224 -1.77415 0
M  V30 459 C 42.9618 1.85361 -0.589193 0
M  V30 460 O 42.2168 1.90973 0.427529 0
M  V30 461 C 42.5158 1.86819 -3.04686 0
M  V30 462 C 42.1818 1.14625 -4.36087 0
M  V30 463 C 40.8438 0.946723 -4.71795 0
M  V30 464 C 43.1958 0.634463 -5.17324 0
M  V30 465 C 40.5238 0.223091 -5.86276 0
M  V30 466 C 42.8758 -0.0756959 -6.32555 0
M  V30 467 C 41.5398 -0.286711 -6.66884 0
M  V30 468 H 40.8098 0.357226 -0.649208 0
M  V30 469 H 43.4568 0.246415 -1.89908 0
M  V30 470 H 41.7618 2.66502 -2.872 0
M  V30 471 H 43.4588 2.43329 -3.18735 0
M  V30 472 H 40.0488 1.3117 -4.08035 0
M  V30 473 H 44.2328 0.77616 -4.90193 0
M  V30 474 H 39.4888 0.0491185 -6.1138 0
M  V30 475 H 43.6628 -0.479899 -6.94745 0
M  V30 476 H 41.2898 -0.849389 -7.5544 0
M  V30 477 N 42.8649 1.48995 0.513639 0
M  V30 478 C 43.7949 1.67636 1.62544 0
M  V30 479 C 44.7759 0.525087 1.61793 0
M  V30 480 O 45.9609 0.759502 1.78732 0
M  V30 481 C 43.0909 1.73114 3.01079 0
M  V30 482 C 42.0449 2.87905 3.16693 0
M  V30 483 C 41.3709 2.78486 4.56453 0
M  V30 484 C 42.6709 4.29005 2.97913 0
M  V30 485 H 44.3649 2.60716 1.47198 0
M  V30 486 H 41.9109 1.25465 0.706714 0
M  V30 487 H 43.8639 1.84742 3.78746 0
M  V30 488 H 42.5879 0.766241 3.17484 0
M  V30 489 H 41.2469 2.75859 2.41448 0
M  V30 490 H 40.8949 1.7993 4.69717 0
M  V30 491 H 40.5949 3.55523 4.67843 0
M  V30 492 H 42.1189 2.92104 5.36197 0
M  V30 493 H 43.5329 4.41798 3.65359 0
M  V30 494 H 41.9299 5.07166 3.20785 0
M  V30 495 H 42.9999 4.44329 1.94165 0
M  V30 496 N 44.343 -0.763751 1.37857 0
M  V30 497 C 45.589 -1.52483 1.33704 0
M  V30 498 C 45.922 -1.94051 -0.0759612 0
M  V30 499 O 45.197 -1.64675 -1.03501 0
M  V30 500 C 45.48 -2.78441 2.28348 0
M  V30 501 C 45.333 -2.43075 3.78463 0
M  V30 502 C 46.652 -3.80415 2.21298 0
M  V30 503 H 43.771 -0.553169 0.487005 0
M  V30 504 H 46.413 -0.875562 1.68624 0
M  V30 505 H 44.563 -3.33842 1.987 0
M  V30 506 H 46.235 -1.93527 4.18742 0
M  V30 507 H 44.478 -1.75666 3.96641 0
M  V30 508 H 45.149 -3.33149 4.40132 0
M  V30 509 H 47.625 -3.34527 2.47449 0
M  V30 510 H 46.501 -4.66257 2.89647 0
M  V30 511 H 46.762 -4.25262 1.20849 0
M  V30 512 N 45.8211 -1.22559 -0.990812 0
M  V30 513 C 47.0461 -1.07862 -1.77145 0
M  V30 514 C 47.4711 0.366447 -1.84496 0
M  V30 515 O 46.8291 1.26478 -1.29896 0
M  V30 516 C 46.8771 -1.69686 -3.18181 0
M  V30 517 O 45.9811 -0.951946 -4.01263 0
M  V30 518 H 45.3221 -0.378712 -0.545411 0
M  V30 519 H 47.8521 -1.62399 -1.2445 0
M  V30 520 H 47.8621 -1.74496 -3.68802 0
M  V30 521 H 46.5371 -2.74841 -3.12146 0
M  V30 522 H 45.1141 -0.980011 -3.59792 0
M  V30 523 N 47.2992 1.18797 -1.03562 0
M  V30 524 C 48.2292 2.24472 -0.643019 0
M  V30 525 C 49.2102 1.66433 0.351283 0
M  V30 526 O 50.3952 1.92803 0.232505 0
M  V30 527 C 47.5252 3.473 4.24935e-05 0
M  V30 528 C 46.4792 4.18055 -0.917257 0
M  V30 529 C 45.8052 5.34519 -0.138941 0
M  V30 530 C 47.1052 4.72109 -2.23407 0
M  V30 531 H 48.7992 2.57566 -1.52643 0
M  V30 532 H 46.3452 1.23806 -0.735394 0
M  V30 533 H 48.2982 4.20426 0.286383 0
M  V30 534 H 47.0222 3.13424 0.918299 0
M  V30 535 H 45.6812 3.46821 -1.1879 0
M  V30 536 H 45.3292 4.96891 0.781562 0
M  V30 537 H 45.0292 5.82794 -0.750005 0
M  V30 538 H 46.5532 6.10438 0.1405 0
M  V30 539 H 47.9672 5.36955 -2.00879 0
M  V30 540 H 46.3642 5.30897 -2.79765 0
M  V30 541 H 47.4342 3.89807 -2.88407 0
M  V30 542 N 48.7773 0.814389 1.34928 0
M  V30 543 C 50.0253 0.397636 1.9815 0
M  V30 544 C 50.3463 -1.04069 1.64908 0
M  V30 545 O 49.6163 -1.72121 0.93548 0
M  V30 546 H 48.1963 0.144043 0.732981 0
M  V30 547 H 50.8583 1.04195 1.6471 0
M  V30 548 H 49.9543 0.509688 3.0791 0
M  V30 549 N 50.2554 -1.46986 0.568584 0
M  V30 550 C 51.6714 -1.57946 0.229189 0
M  V30 551 C 51.8714 -1.56567 -1.26843 0
M  V30 552 O 50.9274 -1.47511 -2.04931 0
M  V30 553 C 52.2404 -2.87963 0.865909 0
M  V30 554 C 53.7884 -3.01568 0.838188 0
M  V30 555 C 54.2634 -4.34301 1.45419 0
M  V30 556 N 55.7544 -4.40965 1.41788 0
M  V30 557 C 56.4894 -5.42256 1.86403 0
M  V30 558 N 55.9854 -6.50297 2.38926 0
M  V30 559 N 57.7784 -5.3337 1.77405 0
M  V30 560 H 49.9294 -1.46126 1.54146 0
M  V30 561 H 52.1924 -0.696156 0.643484 0
M  V30 562 H 51.8984 -2.94742 1.91886 0
M  V30 563 H 51.7724 -3.75423 0.365687 0
M  V30 564 H 54.1594 -2.94379 -0.206106 0
M  V30 565 H 54.2404 -2.1562 1.37629 0
M  V30 566 H 53.8844 -4.42247 2.49761 0
M  V30 567 H 53.8144 -5.19 0.891435 0
M  V30 568 H 56.3054 -3.63484 1.03381 0
M  V30 569 H 56.6184 -7.23777 2.70863 0
M  V30 570 H 54.9634 -6.51155 2.42944 0
M  V30 571 H 58.1544 -4.47865 1.3614 0
M  V30 572 H 58.3274 -6.12169 2.12492 0
M  V30 573 N 51.7335 -0.305618 -1.54608 0
M  V30 574 C 52.6965 0.555591 -2.22364 0
M  V30 575 C 53.6965 1.05768 -1.21119 0
M  V30 576 O 54.8865 0.952972 -1.45822 0
M  V30 577 C 52.0185 1.76974 -2.91364 0
M  V30 578 H 53.2115 -0.0364572 -2.99878 0
M  V30 579 H 50.7645 -0.0565007 -1.56198 0
M  V30 580 H 51.4995 2.40151 -2.17941 0
M  V30 581 H 51.2845 1.41732 -3.65588 0
M  V30 582 H 52.7745 2.38148 -3.43038 0
M  V30 583 N 53.2116 1.57565 -0.0334293 0
M  V30 584 C 54.1586 2.10478 0.946981 0
M  V30 585 C 55.1286 1.00787 1.32027 0
M  V30 586 O 56.3136 1.28232 1.41284 0
M  V30 587 C 53.4536 2.63994 2.22263 0
M  V30 588 C 52.5666 3.87709 1.90541 0
M  V30 589 C 51.7016 4.29604 3.12433 0
M  V30 590 C 50.7406 5.46065 2.76549 0
M  V30 591 N 49.8776 5.83096 3.9108 0
M  V30 592 H 54.7176 2.93963 0.488846 0
M  V30 593 H 52.2546 1.45296 0.22969 0
M  V30 594 H 54.2126 2.93114 2.96884 0
M  V30 595 H 52.8426 1.83333 2.65685 0
M  V30 596 H 51.8946 3.65291 1.06144 0
M  V30 597 H 53.2066 4.72403 1.60116 0
M  V30 598 H 52.3606 4.60182 3.9537 0
M  V30 599 H 51.0996 3.43685 3.46023 0
M  V30 600 H 50.1046 5.15176 1.92026 0
M  V30 601 H 51.3296 6.33685 2.44171 0
M  V30 602 H 49.2756 5.00132 4.24504 0
M  V30 603 H 49.1926 6.6244 3.64293 0
M  V30 604 H 50.4606 6.18282 4.74708 0
M  V30 605 N 54.6897 -0.239769 1.55765 0
M  V30 606 C 56.1057 -0.588624 1.48349 0
M  V30 607 C 56.3057 -1.88005 0.72502 0
M  V30 608 O 55.3617 -2.51186 0.257269 0
M  V30 609 C 56.6747 -0.68474 2.928 0
M  V30 610 C 58.2227 -0.77659 3.03213 0
M  V30 611 C 58.6977 -0.904207 4.48986 0
M  V30 612 N 60.1887 -0.968896 4.52953 0
M  V30 613 C 60.9237 -1.08703 5.63002 0
M  V30 614 N 60.4197 -1.17026 6.82845 0
M  V30 615 N 62.2127 -1.12074 5.50814 0
M  V30 616 H 54.3637 0.607911 2.03515 0
M  V30 617 H 56.6267 0.21083 0.924259 0
M  V30 618 H 56.3327 0.194284 3.51163 0
M  V30 619 H 56.2067 -1.55435 3.43686 0
M  V30 620 H 58.5937 -1.64606 2.44926 0
M  V30 621 H 58.6747 0.118315 2.55526 0
M  V30 622 H 58.3187 -0.0392633 5.07885 0
M  V30 623 H 58.2487 -1.81426 4.9436 0
M  V30 624 H 60.7397 -0.915633 3.6664 0
M  V30 625 H 61.0527 -1.25966 7.62465 0
M  V30 626 H 59.3977 -1.13971 6.85591 0
M  V30 627 H 62.5887 -1.05226 4.5612 0
M  V30 628 H 62.7617 -1.20936 6.36615 0
M  V30 629 N 56.1678 -1.49265 -0.50573 0
M  V30 630 C 57.1308 -1.65075 -1.59006 0
M  V30 631 C 58.1308 -0.522768 -1.52065 0
M  V30 632 O 59.3208 -0.789117 -1.55302 0
M  V30 633 C 56.4528 -1.64369 -2.98656 0
M  V30 634 H 57.6458 -2.61784 -1.46319 0
M  V30 635 H 55.1988 -1.38226 -0.729616 0
M  V30 636 H 55.9338 -0.692272 -3.16825 0
M  V30 637 H 55.7188 -2.46282 -3.05103 0
M  V30 638 H 57.2088 -1.78674 -3.77446 0
M  V30 639 N 57.6459 0.756429 -1.3826 0
M  V30 640 C 58.8929 1.51547 -1.34312 0
M  V30 641 C 59.2209 1.94382 0.0677144 0
M  V30 642 O 58.4759 1.65514 1.04421 0
M  V30 643 C 58.7749 2.78313 -2.24224 0
M  V30 644 C 58.4409 2.54455 -3.72241 0
M  V30 645 C 57.1029 2.47657 -4.12576 0
M  V30 646 C 59.4549 2.3354 -4.65949 0
M  V30 647 C 56.7829 2.17956 -5.44713 0
M  V30 648 C 59.1349 2.05359 -5.9834 0
M  V30 649 C 57.7989 1.97016 -6.37762 0
M  V30 650 H 57.0689 0.55455 -0.491482 0
M  V30 651 H 59.7159 0.870039 -1.70595 0
M  V30 652 H 58.0209 3.47492 -1.80987 0
M  V30 653 H 59.7179 3.36259 -2.18474 0
M  V30 654 H 56.3079 2.60616 -3.40261 0
M  V30 655 H 60.4919 2.37772 -4.35635 0
M  V30 656 H 55.7479 2.10003 -5.74203 0
M  V30 657 H 59.9219 1.88179 -6.70494 0
M  V30 658 H 57.5489 1.73766 -7.40074 0
M  V30 659 N 59.124 1.23083 0.984299 0
M  V30 660 C 60.054 1.03292 2.09411 0
M  V30 661 C 61.035 -0.048923 1.7003 0
M  V30 662 O 62.22 0.114967 1.93859 0
M  V30 663 C 59.35 0.619155 3.41736 0
M  V30 664 C 58.304 1.64791 3.95004 0
M  V30 665 C 57.63 1.0897 5.23478 0
M  V30 666 C 58.93 3.03999 4.24714 0
M  V30 667 H 60.624 1.96119 2.26225 0
M  V30 668 H 58.17 0.944344 1.08711 0
M  V30 669 H 60.123 0.467777 4.18796 0
M  V30 670 H 58.847 -0.344786 3.24775 0
M  V30 671 H 57.506 1.78721 3.20085 0
M  V30 672 H 57.154 0.11686 5.02864 0
M  V30 673 H 56.854 1.77704 5.60085 0
M  V30 674 H 58.378 0.950093 6.03163 0
M  V30 675 H 59.792 2.93393 4.92538 0
M  V30 676 H 58.189 3.69936 4.72512 0
M  V30 677 H 59.259 3.53285 3.32142 0
M  V30 678 N 60.6021 -1.18246 1.0419 0
M  V30 679 C 62.0131 -1.69914 0.773698 0
M  V30 680 C 62.3641 -1.83085 -0.705297 0
M  V30 681 O 61.4891 -1.51123 -1.5489 0
M  V30 682 C 62.0841 -3.08619 1.39784 0
M  V30 683 C 60.6431 -3.57494 1.17792 0
M  V30 684 C 59.7901 -2.34013 1.48773 0
M  V30 685 H 62.7411 -1.02904 1.20816 0
M  V30 686 H 62.7621 -3.71958 0.801714 0
M  V30 687 H 62.2741 -2.99001 2.47426 0
M  V30 688 H 60.3751 -3.72406 0.120295 0
M  V30 689 H 60.4881 -4.40852 1.87581 0
M  V30 690 H 58.8521 -2.37986 0.907463 0
M  V30 691 H 59.6351 -2.27013 2.57527 0
M  V30 692 N 62.0802 -0.821533 -1.34494 0
M  V30 693 C 63.3282 -0.408139 -1.97936 0
M  V30 694 C 63.6492 1.03193 -1.65457 0
M  V30 695 O 62.9192 1.71622 -0.944595 0
M  V30 696 H 61.4992 -0.147928 -0.732206 0
M  V30 697 H 64.1612 -1.05067 -1.64155 0
M  V30 698 H 63.2572 -0.52601 -3.07635 0
M  V30 699 N 63.5583 1.46682 -0.576371 0
M  V30 700 C 64.4913 2.27243 0.208731 0
M  V30 701 C 65.4693 1.35238 0.902746 0
M  V30 702 O 66.6533 1.64641 0.917904 0
M  V30 703 C 63.7803 3.12802 1.29896 0
M  V30 704 C 62.8263 4.20524 0.711457 0
M  V30 705 S 63.6593 5.33548 -0.456781 0
M  V30 706 C 64.8153 6.22673 0.634798 0
M  V30 707 H 65.0483 2.93484 -0.474838 0
M  V30 708 H 62.5813 1.50069 -0.363118 0
M  V30 709 H 64.5393 3.62661 1.92321 0
M  V30 710 H 63.2003 2.45887 1.95444 0
M  V30 711 H 62.3933 4.80191 1.53076 0
M  V30 712 H 61.9953 3.73645 0.162999 0
M  V30 713 H 64.2873 6.60181 1.52209 0
M  V30 714 H 65.2303 7.0806 0.0750311 0
M  V30 715 H 65.6383 5.56684 0.936092 0
M  V30 716 N 65.0364 0.313813 1.54444 0
M  V30 717 C 65.9844 -0.572171 2.25453 0
M  V30 718 C 66.9784 -1.12657 1.2651 0
M  V30 719 O 68.1844 -1.07573 1.44319 0
M  V30 720 H 64.5594 -0.203146 0.724041 0
M  V30 721 H 66.5304 0.0491145 2.9836 0
M  V30 722 C 65.2794 -1.72626 3.0182 0
M  V30 723 H 64.6024 -1.30891 3.77767 0
M  V30 724 H 66.0424 -2.32199 3.54767 0
M  V30 725 C 64.5014 -2.63806 2.09542 0
M  V30 726 O 65.0314 -3.65256 1.67185 0
M  V30 727 N 63.2374 -2.31824 1.75232 0
M  V30 728 H 62.7844 -1.49368 2.09873 0
M  V30 729 H 62.7424 -2.93095 1.13767 0
M  V30 730 N 66.5145 -1.57545 0.0417849 0
M  V30 731 C 67.9255 -1.80011 -0.495259 0
M  V30 732 C 68.2765 -0.953199 -1.71489 0
M  V30 733 O 67.4015 -0.167138 -2.15754 0
M  V30 734 C 67.9965 -3.26482 -0.905265 0
M  V30 735 C 66.5555 -3.499 -1.38734 0
M  V30 736 C 65.7025 -2.74979 -0.358056 0
M  V30 737 H 68.6535 -1.56425 0.267736 0
M  V30 738 H 68.6745 -3.36887 -1.76882 0
M  V30 739 H 68.1865 -3.88096 -0.017401 0
M  V30 740 H 66.2875 -2.93553 -2.29471 0
M  V30 741 H 66.4005 -4.58615 -1.38598 0
M  V30 742 H 64.7645 -2.40834 -0.828912 0
M  V30 743 H 65.5475 -3.39315 0.521561 0
M  V30 744 N 67.9926 0.231505 -1.5589 0
M  V30 745 C 69.4036 0.799327 -1.68724 0
M  V30 746 C 69.7546 1.85398 -0.642022 0
M  V30 747 O 68.8796 2.1539 0.208784 0
M  V30 748 C 69.4746 1.45664 -3.05888 0
M  V30 749 C 68.0336 1.97197 -3.20609 0
M  V30 750 C 67.1806 0.828552 -2.64632 0
M  V30 751 H 70.1316 0.00702616 -1.58698 0
M  V30 752 H 70.1526 2.32517 -3.01191 0
M  V30 753 H 69.6646 0.688808 -3.81939 0
M  V30 754 H 67.7656 2.76813 -2.4941 0
M  V30 755 H 67.8786 2.15878 -4.27707 0
M  V30 756 H 66.2426 1.23321 -2.22854 0
M  V30 757 H 67.0256 0.0735544 -3.43221 0
M  V30 758 N 69.4707 1.49531 0.497807 0
M  V30 759 C 70.8817 1.52344 1.07927 0
M  V30 760 C 71.2327 0.311469 1.93712 0
M  V30 761 O 70.3577 -0.578405 2.08527 0
M  V30 762 C 70.9527 2.76062 1.96405 0
M  V30 763 C 69.5117 2.81643 2.49709 0
M  V30 764 C 68.6587 2.46299 1.27404 0
M  V30 765 H 71.6097 1.56182 0.281576 0
M  V30 766 H 71.6307 2.56405 2.81135 0
M  V30 767 H 71.1427 3.64254 1.33943 0
M  V30 768 H 69.2437 1.97739 3.15801 0
M  V30 769 H 69.3567 3.83891 2.86643 0
M  V30 770 H 67.7207 1.98148 1.60029 0
M  V30 771 H 68.5037 3.36769 0.66645 0
M  V30 772 N 70.9488 -0.749086 1.3866 0
M  V30 773 C 72.1788 -1.53611 1.38157 0
M  V30 774 C 72.5868 -1.89177 -0.0293595 0
M  V30 775 O 71.9298 -1.53606 -1.00752 0
M  V30 776 C 71.9918 -2.86087 2.17702 0
M  V30 777 C 71.6558 -2.73034 3.66472 0
M  V30 778 C 72.6528 -2.42526 4.59866 0
M  V30 779 C 70.3378 -2.90345 4.09884 0
M  V30 780 C 72.3318 -2.29492 5.94653 0
M  V30 781 C 70.0188 -2.7693 5.4475 0
M  V30 782 C 71.0168 -2.46547 6.36949 0
M  V30 783 O 70.7048 -2.33199 7.69333 0
M  V30 784 H 70.4368 -0.481773 0.474205 0
M  V30 785 H 72.9908 -0.934465 1.82912 0
M  V30 786 H 71.2208 -3.48458 1.67672 0
M  V30 787 H 72.9098 -3.47625 2.09551 0
M  V30 788 H 73.6758 -2.28816 4.27631 0
M  V30 789 H 69.5548 -3.1299 3.38464 0
M  V30 790 H 73.0988 -2.05698 6.66584 0
M  V30 791 H 68.9958 -2.90215 5.76581 0
M  V30 792 H 69.7638 -2.48376 7.79905 0
M  V30 793 N 72.4269 -1.23603 -0.977757 0
M  V30 794 C 73.6519 -1.09735 -1.75991 0
M  V30 795 C 74.0769 0.346858 -1.84874 0
M  V30 796 O 73.4349 1.25093 -1.3123 0
M  V30 797 C 73.4829 -1.73051 -3.16363 0
M  V30 798 O 72.5869 -0.994452 -4.0023 0
M  V30 799 H 71.9279 -0.384476 -0.541364 0
M  V30 800 H 74.4579 -1.6371 -1.2272 0
M  V30 801 H 74.4679 -1.78398 -3.66931 0
M  V30 802 H 73.1429 -2.78137 -3.09213 0
M  V30 803 H 71.7199 -1.01812 -3.58732 0
M  V30 804 N 73.905 1.17692 -1.04816 0
M  V30 805 C 74.837 2.21103 -0.603822 0
M  V30 806 C 75.85 1.59411 0.33046 0
M  V30 807 O 77.039 1.7807 0.12379 0
M  V30 808 C 74.139 3.38623 0.136898 0
M  V30 809 C 73.312 4.29888 -0.807137 0
M  V30 810 C 72.371 5.26088 -0.10836 0
M  V30 811 O 71.397 5.64353 -0.741232 0
M  V30 812 N 72.599 5.68882 1.15558 0
M  V30 813 H 75.364 2.59848 -1.49329 0
M  V30 814 H 72.925 1.32553 -0.929587 0
M  V30 815 H 74.917 4.00009 0.614401 0
M  V30 816 H 73.487 2.98508 0.927993 0
M  V30 817 H 72.707 3.65993 -1.46434 0
M  V30 818 H 73.995 4.87759 -1.44807 0
M  V30 819 H 73.393 5.39861 1.69015 0
M  V30 820 H 71.95 6.32429 1.57722 0
M  V30 821 N 75.3831 0.828654 1.34056 0
M  V30 822 C 76.6301 0.419458 1.98108 0
M  V30 823 C 76.9581 -1.01886 1.65679 0
M  V30 824 O 76.2131 -1.72539 0.923512 0
M  V30 825 C 76.5121 0.575226 3.52741 0
M  V30 826 C 76.1781 1.98012 4.05095 0
M  V30 827 C 74.8401 2.36442 4.19104 0
M  V30 828 C 77.1921 2.89824 4.33188 0
M  V30 829 C 74.5201 3.66009 4.58535 0
M  V30 830 C 76.8721 4.1886 4.74066 0
M  V30 831 C 75.5361 4.5726 4.86281 0
M  V30 832 H 74.8061 0.153491 0.724929 0
M  V30 833 H 77.4531 1.05371 1.59904 0
M  V30 834 H 75.7581 -0.142385 3.91541 0
M  V30 835 H 77.4551 0.239057 4.00287 0
M  V30 836 H 74.0451 1.67162 3.94658 0
M  V30 837 H 78.2291 2.61375 4.21897 0
M  V30 838 H 73.4851 3.95579 4.66184 0
M  V30 839 H 77.6591 4.90086 4.94761 0
M  V30 840 H 75.2861 5.57707 5.16592 0
M  V30 841 N 76.8612 -1.46375 0.584142 0
M  V30 842 C 77.7912 -2.33103 -0.136037 0
M  V30 843 C 78.7722 -1.45431 -0.882255 0
M  V30 844 O 79.9572 -1.74246 -0.857434 0
M  V30 845 C 77.0872 -3.27731 -1.14933 0
M  V30 846 C 76.0412 -4.24855 -0.517862 0
M  V30 847 C 75.3672 -5.09001 -1.63773 0
M  V30 848 C 76.6672 -5.19439 0.545886 0
M  V30 849 H 78.3612 -2.93568 0.588086 0
M  V30 850 H 75.9072 -1.41166 0.284259 0
M  V30 851 H 77.8602 -3.87261 -1.66153 0
M  V30 852 H 76.5842 -2.65377 -1.90375 0
M  V30 853 H 75.2432 -3.6659 -0.0267361 0
M  V30 854 H 74.8912 -4.43031 -2.38185 0
M  V30 855 H 74.5912 -5.74777 -1.22085 0
M  V30 856 H 76.1152 -5.71396 -2.15266 0
M  V30 857 H 77.5292 -5.73177 0.118704 0
M  V30 858 H 75.9262 -5.93566 0.88317 0
M  V30 859 H 76.9962 -4.63285 1.43162 0
M  V30 860 N 78.3393 -0.321999 -1.54275 0
M  V30 861 C 79.5643 0.285791 -2.05422 0
M  V30 862 C 79.9893 1.45124 -1.19669 0
M  V30 863 O 79.3473 1.80132 -0.205441 0
M  V30 864 C 79.3953 0.69956 -3.53749 0
M  V30 865 O 78.4993 1.8021 -3.70942 0
M  V30 866 H 77.8403 0.0518962 -0.661969 0
M  V30 867 H 80.3703 -0.469954 -1.9913 0
M  V30 868 H 80.3803 0.982649 -3.9599 0
M  V30 869 H 79.0553 -0.152864 -4.15619 0
M  V30 870 H 77.6323 1.51794 -3.40607 0
M  V30 871 N 79.8174 1.5752 -0.0501392 0
M  V30 872 C 81.2334 1.56631 0.306402 0
M  V30 873 C 81.4334 1.0577 1.71508 0
M  V30 874 O 80.4894 0.713837 2.422 0
M  V30 875 C 81.8024 3.00393 0.135811 0
M  V30 876 C 83.3504 3.12315 0.206993 0
M  V30 877 C 83.8254 4.57954 0.064944 0
M  V30 878 N 85.3164 4.63041 0.121254 0
M  V30 879 C 86.0514 5.73389 0.0354381 0
M  V30 880 N 85.5474 6.92724 -0.102666 0
M  V30 881 N 87.3404 5.62026 0.090946 0
M  V30 882 H 79.4914 1.88903 -0.971046 0
M  V30 883 H 81.7544 0.869876 -0.376855 0
M  V30 884 H 81.4604 3.41635 -0.835384 0
M  V30 885 H 81.3344 3.66373 0.897275 0
M  V30 886 H 83.7214 2.70973 1.16866 0
M  V30 887 H 83.8024 2.49016 -0.585208 0
M  V30 888 H 83.4464 4.99981 -0.893394 0
M  V30 889 H 83.3764 5.19258 0.876277 0
M  V30 890 H 85.8674 3.77216 0.227284 0
M  V30 891 H 86.1804 7.72633 -0.160882 0
M  V30 892 H 84.5254 6.94864 -0.137737 0
M  V30 893 H 87.7164 4.67684 0.197388 0
M  V30 894 H 87.8894 6.47997 0.0206089 0
M  V30 895 N 81.2955 -0.223234 1.56011 0
M  V30 896 C 82.7115 -0.572856 1.48965 0
M  V30 897 C 82.9115 -1.87225 0.74492 0
M  V30 898 O 81.9675 -2.50899 0.283896 0
M  V30 899 C 83.2805 -0.653646 2.9351 0
M  V30 900 C 84.8285 -0.744386 3.0402 0
M  V30 901 C 85.3035 -0.856535 4.49919 0
M  V30 902 N 86.7945 -0.9208 4.53955 0
M  V30 903 C 87.5295 -1.02726 5.64123 0
M  V30 904 N 87.0255 -1.09777 6.84047 0
M  V30 905 N 88.8185 -1.06226 5.51971 0
M  V30 906 H 80.9695 0.629462 2.02858 0
M  V30 907 H 83.2325 0.220621 0.921971 0
M  V30 908 H 82.9385 0.231518 3.50937 0
M  V30 909 H 82.8125 -1.51781 3.45315 0
M  V30 910 H 85.1995 -1.61999 2.46658 0
M  V30 911 H 85.2805 0.14541 2.55386 0
M  V30 912 H 84.9245 0.0146069 5.07898 0
M  V30 913 H 84.8545 -1.76172 4.96257 0
M  V30 914 H 87.3455 -0.876694 3.6759 0
M  V30 915 H 87.6585 -1.17872 7.63758 0
M  V30 916 H 86.0035 -1.06693 6.86762 0
M  V30 917 H 89.1945 -1.00382 4.5721 0
M  V30 918 H 89.3675 -1.14177 6.37862 0
M  V30 919 N 82.7736 -1.49793 -0.48987 0
M  V30 920 C 83.7216 -1.67783 -1.61095 0
M  V30 921 C 84.7156 -0.543683 -1.60438 0
M  V30 922 O 85.9216 -0.723647 -1.64813 0
M  V30 923 H 82.2966 -0.529255 -0.534222 0
M  V30 924 H 84.2676 -2.61861 -1.43078 0
M  V30 925 C 83.0166 -1.77191 -2.99164 0
M  V30 926 H 82.3396 -2.63841 -3.0038 0
M  V30 927 H 83.7796 -1.93809 -3.77113 0
M  V30 928 C 82.2386 -0.519203 -3.32875 0
M  V30 929 O 82.7686 0.350124 -4.00171 0
M  V30 930 N 80.9746 -0.378816 -2.8812 0
M  V30 931 H 80.5216 -1.08725 -2.33531 0
M  V30 932 H 80.4796 0.458239 -3.11043 0
M  V30 933 N 84.2517 0.741722 -1.39055 0
M  V30 934 C 85.1617 1.88621 -1.39496 0
M  V30 935 C 86.1777 1.71557 -0.290578 0
M  V30 936 O 87.3537 1.94275 -0.530954 0
M  V30 937 C 84.4187 3.24134 -1.23037 0
M  V30 938 C 83.4797 3.5364 -2.43387 0
M  V30 939 C 82.7127 4.82687 -2.27703 0
M  V30 940 O 82.9357 5.55922 -1.27696 0
M  V30 941 O 81.8697 5.1194 -3.16545 0
M  V30 942 H 85.6957 1.91203 -2.35956 0
M  V30 943 H 83.2807 0.888625 -1.20099 0
M  V30 944 H 85.1627 4.0513 -1.15964 0
M  V30 945 H 83.8377 3.22337 -0.296691 0
M  V30 946 H 82.7447 2.72758 -2.56035 0
M  V30 947 H 84.0777 3.60209 -3.35425 0
M  V30 948 N 85.7298 1.2412 0.971189 0
M  V30 949 C 86.9788 1.07284 1.70801 0
M  V30 950 C 87.2918 -0.388902 1.91695 0
M  V30 951 O 88.4978 -0.677379 2.62914 0
M  V30 952 C 86.9538 1.87145 3.07416 0
M  V30 953 C 86.5618 3.37707 2.94377 0
M  V30 954 C 88.3058 1.78828 3.84995 0
M  V30 955 C 86.2128 4.09925 4.26281 0
M  V30 956 H 85.1428 0.397854 0.64049 0
M  V30 957 H 87.7938 1.4817 1.0825 0
M  V30 958 H 86.1758 1.39071 3.70777 0
M  V30 959 H 87.3498 3.93335 2.4005 0
M  V30 960 H 85.6648 3.46938 2.30267 0
M  V30 961 H 88.2618 2.30089 4.82662 0
M  V30 962 H 88.6048 0.75284 4.09436 0
M  V30 963 H 89.1378 2.24563 3.28354 0
M  V30 964 H 85.8768 5.13813 4.07033 0
M  V30 965 H 85.3968 3.59083 4.80437 0
M  V30 966 H 87.0758 4.1673 4.94919 0
M  V30 967 N 87.2079 -1.17134 1.05439 0
M  V30 968 C 88.6189 -1.69084 0.791676 0
M  V30 969 C 88.9699 -1.83822 -0.685839 0
M  V30 970 O 88.0949 -1.52757 -1.53278 0
M  V30 971 C 88.6899 -3.07119 1.4305 0
M  V30 972 C 87.2489 -3.56225 1.21577 0
M  V30 973 C 86.3959 -2.32421 1.51247 0
M  V30 974 H 89.3469 -1.01617 1.219 0
M  V30 975 H 89.3679 -3.71087 0.84112 0
M  V30 976 H 88.8799 -2.9636 2.50584 0
M  V30 977 H 86.9809 -3.72257 0.159787 0
M  V30 978 H 87.0939 -4.38837 1.92246 0
M  V30 979 H 85.4579 -2.3701 0.932653 0
M  V30 980 H 86.2409 -2.24268 2.5992 0
M  V30 981 N 88.686 -0.835752 -1.33615 0
M  V30 982 C 89.616 -0.281739 -2.31794 0
M  V30 983 C 90.597 0.608833 -1.58831 0
M  V30 984 O 91.782 0.533035 -1.86741 0
M  V30 985 C 88.912 0.546612 -3.42971 0
M  V30 986 C 87.866 -0.247904 -4.27281 0
M  V30 987 C 87.192 0.704001 -5.30045 0
M  V30 988 C 88.492 -1.46324 -5.01385 0
M  V30 989 H 90.186 -1.10206 -2.78379 0
M  V30 990 H 87.732 -0.531388 -1.33837 0
M  V30 991 H 89.685 0.944467 -4.1068 0
M  V30 992 H 88.409 1.40011 -2.95067 0
M  V30 993 H 87.068 -0.627281 -3.61194 0
M  V30 994 H 86.716 1.55381 -4.78399 0
M  V30 995 H 86.416 0.176524 -5.87335 0
M  V30 996 H 87.94 1.09944 -6.0062 0
M  V30 997 H 89.354 -1.13871 -5.61877 0
M  V30 998 H 87.751 -1.92728 -5.6831 0
M  V30 999 H 88.821 -2.23467 -4.30338 0
M  V30 1000 N 90.1641 1.46063 -0.591896 0
M  V30 1001 C 91.4131 2.01547 -0.0786637 0
M  V30 1002 C 91.7261 1.46796 1.29268 0
M  V30 1003 O 92.9321 1.94157 1.89777 0
M  V30 1004 C 91.3881 3.59787 -0.0900024 0
M  V30 1005 C 90.9961 4.23534 -1.46023 0
M  V30 1006 C 92.7401 4.22895 0.368806 0
M  V30 1007 C 90.6471 5.73881 -1.4288 0
M  V30 1008 H 89.5771 0.753564 -0.0256388 0
M  V30 1009 H 92.2281 1.677 -0.744905 0
M  V30 1010 H 90.6101 3.90752 0.642586 0
M  V30 1011 H 91.7841 4.04167 -2.21328 0
M  V30 1012 H 90.0991 3.72558 -1.85982 0
M  V30 1013 H 92.6961 5.33116 0.411258 0
M  V30 1014 H 93.0391 3.9247 1.38827 0
M  V30 1015 H 93.5721 3.9659 -0.31001 0
M  V30 1016 H 90.3111 6.0898 -2.42536 0
M  V30 1017 H 89.8311 5.95486 -0.718095 0
M  V30 1018 H 91.5101 6.36776 -1.14565 0
M  V30 1019 N 91.6422 0.330177 1.54103 0
M  V30 1020 C 92.5922 -0.548456 2.21305 0
M  V30 1021 C 93.5762 -1.07651 1.19583 0
M  V30 1022 O 94.7682 -1.01243 1.45186 0
M  V30 1023 C 91.8972 -1.70559 2.97934 0
M  V30 1024 C 90.9832 -1.19212 4.07 0
M  V30 1025 N 91.3742 -0.398831 5.04225 0
M  V30 1026 C 89.6722 -1.47024 4.2107 0
M  V30 1027 C 90.3732 -0.121761 5.81573 0
M  V30 1028 N 89.3492 -0.709722 5.38947 0
M  V30 1029 H 93.1512 0.0648483 2.93828 0
M  V30 1030 H 90.6652 0.136363 1.61826 0
M  V30 1031 H 92.6622 -2.34688 3.44568 0
M  V30 1032 H 91.3222 -2.32231 2.26934 0
M  V30 1033 H 92.3332 -0.0410869 5.17884 0
M  V30 1034 H 89.0102 -2.09232 3.61287 0
M  V30 1035 H 90.4002 0.517298 6.69906 0
M  V30 1036 N 93.1203 -1.57491 0.0584922 0
M  V30 1037 C 94.3673 -1.92978 -0.613648 0
M  V30 1038 C 94.6953 -0.937461 -1.70417 0
M  V30 1039 O 93.9503 0.049078 -1.95638 0
M  V30 1040 C 94.2493 -3.3513 -1.24188 0
M  V30 1041 C 93.9153 -4.50037 -0.278826 0
M  V30 1042 C 92.5773 -4.81198 -0.0138447 0
M  V30 1043 C 94.9293 -5.19807 0.380777 0
M  V30 1044 C 92.2573 -5.79473 0.918052 0
M  V30 1045 C 94.6093 -6.19079 1.30091 0
M  V30 1046 C 93.2733 -6.48665 1.57449 0
M  V30 1047 H 92.5433 -0.706157 -0.22455 0
M  V30 1048 H 95.1903 -1.91082 0.126533 0
M  V30 1049 H 93.4953 -3.33429 -2.05749 0
M  V30 1050 H 95.1923 -3.59871 -1.769 0
M  V30 1051 H 91.7823 -4.25726 -0.495539 0
M  V30 1052 H 95.9663 -4.95939 0.189158 0
M  V30 1053 H 91.2223 -6.00727 1.1374 0
M  V30 1054 H 95.3963 -6.7225 1.81804 0
M  V30 1055 H 93.0233 -7.24628 2.29822 0
M  V30 1056 N 94.5984 0.214957 -1.56127 0
M  V30 1057 C 95.5464 1.28601 -1.93816 0
M  V30 1058 C 96.5404 1.48175 -0.821016 0
M  V30 1059 O 97.7464 1.49271 -1.0059 0
M  V30 1060 H 94.1214 0.431302 -0.616022 0
M  V30 1061 H 96.0924 0.940991 -2.83175 0
M  V30 1062 C 94.8414 2.62779 -2.27689 0
M  V30 1063 H 94.1644 2.48527 -3.13168 0
M  V30 1064 H 95.6044 3.36517 -2.57939 0
M  V30 1065 C 94.0634 3.18285 -1.10436 0
M  V30 1066 O 94.5934 4.00002 -0.368945 0
M  V30 1067 N 92.7994 2.7675 -0.886433 0
M  V30 1068 H 92.3464 2.10404 -1.48619 0
M  V30 1069 H 92.3044 3.14229 -0.103656 0
M  V30 1070 N 96.0765 1.50051 0.48192 0
M  V30 1071 C 97.3045 1.64237 1.25832 0
M  V30 1072 C 97.7195 0.321336 1.86045 0
M  V30 1073 O 97.0765 -0.695478 1.68729 0
M  V30 1074 C 97.1275 2.72548 2.37487 0
M  V30 1075 O 96.8485 3.99529 1.79745 0
M  V30 1076 C 98.3495 2.9761 3.28547 0
M  V30 1077 H 95.5695 0.55237 0.380957 0
M  V30 1078 H 98.1135 1.96207 0.576467 0
M  V30 1079 H 96.2685 2.43303 3.01467 0
M  V30 1080 H 96.6825 4.59342 2.5319 0
M  V30 1081 H 98.1565 3.77084 4.03127 0
M  V30 1082 H 98.6335 2.0826 3.86684 0
M  V30 1083 H 99.2395 3.28345 2.70314 0
M  V30 1084 N 97.5546 -0.734337 1.39446 0
M  V30 1085 C 98.9656 -1.31264 1.32766 0
M  V30 1086 C 99.3166 -1.96198 -0.00767497 0
M  V30 1087 O 98.4416 -1.96346 -0.909796 0
M  V30 1088 C 99.0366 -2.38682 2.4045 0
M  V30 1089 C 97.5956 -2.92184 2.37288 0
M  V30 1090 C 96.7426 -1.6576 2.22304 0
M  V30 1091 H 99.6936 -0.531799 1.49525 0
M  V30 1092 H 99.7146 -3.19087 2.07276 0
M  V30 1093 H 99.2266 -1.91392 3.37625 0
M  V30 1094 H 97.3276 -3.43752 1.43754 0
M  V30 1095 H 97.4406 -3.45253 3.3217 0
M  V30 1096 H 95.8046 -1.9012 1.69489 0
M  V30 1097 H 96.5876 -1.20521 3.21449 0
M  V30 1098 N 99.0327 -1.24633 -0.964593 0
M  V30 1099 C 100.282 -1.08188 -1.7023 0
M  V30 1100 C 100.595 0.37873 -1.91898 0
M  V30 1101 O 101.801 0.663427 -2.6327 0
M  V30 1102 C 100.257 -1.88773 -3.06419 0
M  V30 1103 C 99.8647 -3.39263 -2.92582 0
M  V30 1104 C 101.609 -1.80867 -3.84041 0
M  V30 1105 C 99.5157 -4.1218 -4.24101 0
M  V30 1106 H 98.4457 -0.401245 -0.638372 0
M  V30 1107 H 101.097 -1.48742 -1.07462 0
M  V30 1108 H 99.4787 -1.41035 -3.70034 0
M  V30 1109 H 100.653 -3.94603 -2.37961 0
M  V30 1110 H 98.9677 -3.48154 -2.28424 0
M  V30 1111 H 101.565 -2.32646 -4.81435 0
M  V30 1112 H 101.908 -0.774543 -4.09031 0
M  V30 1113 H 102.441 -2.26301 -3.27159 0
M  V30 1114 H 99.1797 -5.15965 -4.04303 0
M  V30 1115 H 98.6997 -3.61626 -4.78526 0
M  V30 1116 H 100.379 -4.19349 -4.92702 0
M  V30 1117 N 100.511 1.16574 -1.06058 0
M  V30 1118 C 101.922 1.68662 -0.800632 0
M  V30 1119 C 102.273 1.84184 0.67608 0
M  V30 1120 O 101.398 1.53568 1.52466 0
M  V30 1121 C 101.993 3.06356 -1.44676 0
M  V30 1122 C 100.552 3.55575 -1.23465 0
M  V30 1123 C 99.6988 2.31616 -1.52477 0
M  V30 1124 H 102.65 1.00969 -1.22438 0
M  V30 1125 H 102.671 3.70636 -0.860788 0
M  V30 1126 H 102.183 2.95027 -2.52152 0
M  V30 1127 H 100.284 3.72167 -0.179527 0
M  V30 1128 H 100.397 4.37812 -1.94571 0
M  V30 1129 H 98.7608 2.36512 -0.945209 0
M  V30 1130 H 99.5438 2.22887 -2.61106 0
M  V30 1131 N 101.989 0.842826 1.3317 0
M  V30 1132 C 103.405 0.531128 1.50503 0
M  V30 1133 C 103.605 -0.940734 1.78192 0
M  V30 1134 O 102.661 -1.72436 1.84451 0
M  V30 1135 C 103.974 1.40789 2.65705 0
M  V30 1136 C 105.522 1.40708 2.79589 0
M  V30 1137 C 105.997 2.26878 3.97857 0
M  V30 1138 N 107.488 2.24609 4.05099 0
M  V30 1139 C 108.223 2.88019 4.95815 0
M  V30 1140 N 107.719 3.60496 5.9162 0
M  V30 1141 N 109.512 2.77469 4.88843 0
M  V30 1142 H 101.663 1.79557 1.1346 0
M  V30 1143 H 103.926 0.766267 0.558156 0
M  V30 1144 H 103.632 2.454 2.51936 0
M  V30 1145 H 103.506 1.08677 3.61205 0
M  V30 1146 H 105.893 0.368668 2.92788 0
M  V30 1147 H 105.974 1.76829 1.84838 0
M  V30 1148 H 105.618 3.3078 3.85418 0
M  V30 1149 H 105.548 1.88096 4.91861 0
M  V30 1150 H 108.039 1.71906 3.36536 0
M  V30 1151 H 108.352 4.06076 6.57512 0
M  V30 1152 H 106.697 3.64604 5.91683 0
M  V30 1153 H 109.888 2.20406 4.12963 0
M  V30 1154 H 110.061 3.2717 5.59342 0
M  V30 1155 N 103.467 -1.45747 0.599634 0
M  V30 1156 C 104.883 -1.57424 0.26264 0
M  V30 1157 C 105.083 -1.59222 -1.23493 0
M  V30 1158 O 104.139 -1.51825 -2.01756 0
M  V30 1159 C 105.452 -2.86061 0.926795 0
M  V30 1160 C 107 -2.99722 0.901967 0
M  V30 1161 C 107.475 -4.31119 1.54598 0
M  V30 1162 N 108.966 -4.37858 1.5111 0
M  V30 1163 C 109.701 -5.3818 1.97863 0
M  V30 1164 N 109.197 -6.45083 2.52666 0
M  V30 1165 N 110.99 -5.29487 1.88679 0
M  V30 1166 H 103.141 -1.42823 1.57211 0
M  V30 1167 H 105.404 -0.68235 0.658105 0
M  V30 1168 H 105.11 -2.90605 1.98095 0
M  V30 1169 H 104.984 -3.74563 0.445238 0
M  V30 1170 H 107.371 -2.9475 -0.143617 0
M  V30 1171 H 107.452 -2.12652 1.42171 0
M  V30 1172 H 107.096 -4.36849 2.59085 0
M  V30 1173 H 107.026 -5.16992 1.00132 0
M  V30 1174 H 109.517 -3.61209 1.11068 0
M  V30 1175 H 109.83 -7.17869 2.86155 0
M  V30 1176 H 108.175 -6.45856 2.56701 0
M  V30 1177 H 111.366 -4.44877 1.4561 0
M  V30 1178 H 111.539 -6.07524 2.25429 0
M  V30 1179 N 104.945 -0.338344 -1.53925 0
M  V30 1180 C 105.895 0.536712 -2.21593 0
M  V30 1181 C 106.879 1.07015 -1.20153 0
M  V30 1182 O 108.071 1.00471 -1.45721 0
M  V30 1183 C 105.2 1.68977 -2.98834 0
M  V30 1184 C 104.286 1.17052 -4.07627 0
M  V30 1185 N 104.677 0.372085 -5.0443 0
M  V30 1186 C 102.975 1.44789 -4.21844 0
M  V30 1187 C 103.676 0.0909171 -5.81629 0
M  V30 1188 N 102.652 0.681131 -5.39316 0
M  V30 1189 H 106.454 -0.0804298 -2.9379 0
M  V30 1190 H 103.968 -0.144943 -1.61752 0
M  V30 1191 H 105.965 2.32857 -3.45808 0
M  V30 1192 H 104.625 2.31024 -2.28162 0
M  V30 1193 H 105.636 0.0136217 -5.17898 0
M  V30 1194 H 102.313 2.07313 -3.62391 0
M  V30 1195 H 103.703 -0.552817 -6.69622 0
M  V30 1196 N 106.423 1.57458 -0.0668435 0
M  V30 1197 C 107.651 1.97624 0.612565 0
M  V30 1198 C 108.066 0.94502 1.63447 0
M  V30 1199 O 107.423 -0.0689276 1.8237 0
M  V30 1200 C 107.474 3.37869 1.28555 0
M  V30 1201 O 107.195 4.3704 0.304557 0
M  V30 1202 C 108.696 3.92882 2.05325 0
M  V30 1203 H 105.916 0.650045 0.166381 0
M  V30 1204 H 108.46 2.04035 -0.137782 0
M  V30 1205 H 106.615 3.3256 1.98702 0
M  V30 1206 H 107.029 5.18565 0.786779 0
M  V30 1207 H 108.503 4.93247 2.47812 0
M  V30 1208 H 108.98 3.29156 2.9078 0
M  V30 1209 H 109.586 4.01577 1.40056 0
M  V30 1210 N 107.901 -0.206675 1.56239 0
M  V30 1211 C 109.317 -0.557025 1.49564 0
M  V30 1212 C 109.517 -1.86424 0.764735 0
M  V30 1213 O 108.573 -2.50584 0.310491 0
M  V30 1214 C 109.886 -0.622478 2.94186 0
M  V30 1215 C 111.434 -0.712099 3.04792 0
M  V30 1216 C 111.909 -0.808767 4.50803 0
M  V30 1217 N 113.4 -0.8726 4.54907 0
M  V30 1218 C 114.135 -0.967365 5.65181 0
M  V30 1219 N 113.631 -1.02515 6.85173 0
M  V30 1220 N 115.424 -1.00366 5.53067 0
M  V30 1221 H 107.575 0.650943 2.02179 0
M  V30 1222 H 109.838 0.230387 0.919579 0
M  V30 1223 H 109.544 0.268727 3.50672 0
M  V30 1224 H 109.418 -1.4811 3.46905 0
M  V30 1225 H 111.805 -1.59374 2.48363 0
M  V30 1226 H 111.886 0.172489 2.55218 0
M  V30 1227 H 111.53 0.0684754 5.07854 0
M  V30 1228 H 111.46 -1.70899 4.98098 0
M  V30 1229 H 113.951 -0.837657 3.68499 0
M  V30 1230 H 114.264 -1.09765 7.64965 0
M  V30 1231 H 112.609 -0.994026 6.87855 0
M  V30 1232 H 115.8 -0.95527 4.58249 0
M  V30 1233 H 115.973 -1.07405 6.39037 0
M  V30 1234 N 109.379 -1.50304 -0.473955 0
M  V30 1235 C 110.604 -1.65175 -1.25427 0
M  V30 1236 C 111.029 -0.333673 -1.85117 0
M  V30 1237 O 110.387 0.702114 -1.67153 0
M  V30 1238 C 110.435 -2.74295 -2.34082 0
M  V30 1239 O 109.539 -2.35349 -3.38651 0
M  V30 1240 H 108.88 -0.551944 -0.369126 0
M  V30 1241 H 111.41 -1.96662 -0.564364 0
M  V30 1242 H 111.42 -2.97285 -2.79438 0
M  V30 1243 H 110.095 -3.69959 -1.90008 0
M  V30 1244 H 108.672 -2.22794 -2.99027 0
M  V30 1245 N 110.857 0.726932 -1.39834 0
M  V30 1246 C 111.82 1.82269 -1.38962 0
M  V30 1247 C 112.82 1.58248 -0.285334 0
M  V30 1248 O 114.01 1.65499 -0.54366 0
M  V30 1249 C 111.142 3.20186 -1.17019 0
M  V30 1250 H 112.335 1.84443 -2.36476 0
M  V30 1251 H 109.888 0.931416 -1.25516 0
M  V30 1252 H 110.623 3.23669 -0.202204 0
M  V30 1253 H 110.408 3.3902 -1.96998 0
M  V30 1254 H 111.898 4.00235 -1.1917 0
M  V30 1255 N 112.336 1.25143 0.95797 0
M  V30 1256 C 113.246 1.06968 2.08794 0
M  V30 1257 C 114.262 0.00773911 1.73998 0
M  V30 1258 O 115.438 0.207972 2.00323 0
M  V30 1259 C 112.503 0.68691 3.39827 0
M  V30 1260 C 111.564 1.82641 3.88511 0
M  V30 1261 C 110.797 1.46181 5.1329 0
M  V30 1262 O 111.02 0.355971 5.69288 0
M  V30 1263 O 109.954 2.29085 5.566 0
M  V30 1264 H 113.78 2.01723 2.27027 0
M  V30 1265 H 111.365 1.04051 1.07209 0
M  V30 1266 H 113.247 0.485417 4.18595 0
M  V30 1267 H 111.922 -0.231417 3.22872 0
M  V30 1268 H 110.829 2.08274 3.10762 0
M  V30 1269 H 112.162 2.72386 4.09959 0
M  V30 1270 N 113.814 -1.1601 1.06675 0
M  V30 1271 C 115.091 -1.82679 0.699114 0
M  V30 1272 C 115.471 -1.94559 -0.819137 0
M  V30 1273 O 114.819 -1.49169 -1.73092 0
M  V30 1274 C 115.029 -3.19445 1.40555 0
M  V30 1275 C 116.377 -3.95171 1.55323 0
M  V30 1276 O 117.401 -3.28976 1.36577 0
M  V30 1277 O 116.26 -5.13833 1.86112 0
M  V30 1278 H 113.354 -0.788954 0.247951 0
M  V30 1279 H 115.9 -1.23179 1.16726 0
M  V30 1280 H 114.672 -3.05856 2.44065 0
M  V30 1281 H 114.295 -3.86625 0.927733 0
M  V30 1282 N 115.292 -0.849877 -1.32721 0
M  V30 1283 C 116.569 -0.372405 -1.92022 0
M  V30 1284 C 116.949 1.1435 -1.77447 0
M  V30 1285 O 116.297 1.96296 -1.16962 0
M  V30 1286 C 116.507 -0.831482 -3.3895 0
M  V30 1287 C 117.855 -0.845882 -4.16089 0
M  V30 1288 O 118.879 -0.775806 -3.47649 0
M  V30 1289 O 117.738 -0.943753 -5.38289 0
M  V30 1290 H 114.832 -0.107667 -0.819961 0
M  V30 1291 H 117.378 -0.93646 -1.41522 0
M  V30 1292 H 116.15 -1.87448 -3.4348 0
M  V30 1293 H 115.773 -0.24461 -3.96847 0
M  V30 1294 N 116.77 1.45427 -0.607355 0
M  V30 1295 C 117.995 2.07124 -0.107006 0
M  V30 1296 C 118.42 1.44906 1.19933 0
M  V30 1297 O 117.778 0.541687 1.73019 0
M  V30 1298 C 117.826 3.60595 0.0194119 0
M  V30 1299 O 116.93 3.98285 1.0697 0
M  V30 1300 H 116.271 0.659868 -0.0739597 0
M  V30 1301 H 118.801 1.86683 -0.837297 0
M  V30 1302 H 118.811 4.07419 0.2177 0
M  V30 1303 H 117.486 4.05266 -0.934453 0
M  V30 1304 H 116.063 3.63133 0.847889 0
M  V30 1305 N 118.248 0.346503 1.53744 0
M  V30 1306 C 119.158 -0.517293 2.28826 0
M  V30 1307 C 120.174 -1.10935 1.3405 0
M  V30 1308 O 121.35 -1.1244 1.6709 0
M  V30 1309 C 118.415 -1.65098 3.04866 0
M  V30 1310 C 117.476 -1.0884 4.15274 0
M  V30 1311 C 116.709 -2.16806 4.87679 0
M  V30 1312 O 116.932 -3.3758 4.59778 0
M  V30 1313 O 115.866 -1.80934 5.74061 0
M  V30 1314 H 119.692 0.0931396 3.03557 0
M  V30 1315 H 117.277 0.111458 1.48984 0
M  V30 1316 H 119.159 -2.31053 3.5241 0
M  V30 1317 H 117.834 -2.24717 2.32989 0
M  V30 1318 H 116.741 -0.3933 3.72027 0
M  V30 1319 H 118.074 -0.537036 4.89261 0
M  V30 1320 N 119.726 -1.57421 0.075193 0
M  V30 1321 C 121.142 -1.57099 -0.281444 0
M  V30 1322 C 121.342 -1.08486 -1.69803 0
M  V30 1323 O 120.398 -0.752279 -2.41033 0
M  V30 1324 C 121.711 -3.00571 -0.0880041 0
M  V30 1325 C 123.259 -3.12605 -0.157281 0
M  V30 1326 C 123.734 -4.57999 0.0079207 0
M  V30 1327 N 125.225 -4.63176 -0.0475725 0
M  V30 1328 C 125.96 -5.73373 0.0557876 0
M  V30 1329 N 125.456 -6.92473 0.21286 0
M  V30 1330 N 127.249 -5.621 -0.00152098 0
M  V30 1331 H 119.4 -1.87335 1.00098 0
M  V30 1332 H 121.663 -0.86377 0.390646 0
M  V30 1333 H 121.369 -3.40262 0.889629 0
M  V30 1334 H 121.243 -3.67754 -0.838875 0
M  V30 1335 H 123.63 -2.72798 -1.1254 0
M  V30 1336 H 123.711 -2.48053 0.62475 0
M  V30 1337 H 123.355 -4.98496 0.972824 0
M  V30 1338 H 123.285 -5.20586 -0.793556 0
M  V30 1339 H 125.776 -3.7753 -0.167244 0
M  V30 1340 H 126.089 -7.72279 0.283781 0
M  V30 1341 H 124.434 -6.94556 0.248267 0
M  V30 1342 H 127.625 -4.67938 -0.122958 0
M  V30 1343 H 127.798 -6.47948 0.0824844 0
M  V30 1344 N 121.204 0.198386 -1.56346 0
M  V30 1345 C 122.481 0.944982 -1.71258 0
M  V30 1346 C 122.861 2.0151 -0.629048 0
M  V30 1347 O 122.209 2.25639 0.360473 0
M  V30 1348 C 122.419 1.5344 -3.1346 0
M  V30 1349 C 123.767 2.01778 -3.73591 0
M  V30 1350 O 124.791 1.63288 -3.16568 0
M  V30 1351 O 123.65 2.72594 -4.73661 0
M  V30 1352 H 120.744 0.442939 -0.69838 0
M  V30 1353 H 123.29 0.188342 -1.68652 0
M  V30 1354 H 122.062 0.762869 -3.83792 0
M  V30 1355 H 121.685 2.35596 -3.20282 0
M  V30 1356 N 122.682 1.50554 0.465978 0
M  V30 1357 C 124.093 1.54599 1.04671 0
M  V30 1358 C 124.444 0.352488 1.93008 0
M  V30 1359 O 123.569 -0.534044 2.09707 0
M  V30 1360 C 124.164 2.80166 1.90505 0
M  V30 1361 C 122.723 2.86876 2.43678 0
M  V30 1362 C 121.87 2.48947 1.22151 0
M  V30 1363 H 124.821 1.56744 0.248384 0
M  V30 1364 H 124.842 2.62311 2.75633 0
M  V30 1365 H 124.354 3.67013 1.26186 0
M  V30 1366 H 122.455 2.04393 3.11536 0
M  V30 1367 H 122.568 3.89885 2.78436 0
M  V30 1368 H 120.932 2.01498 1.5579 0
M  V30 1369 H 121.715 3.38107 0.594866 0
M  V30 1370 N 124.16 -0.719506 1.40217 0
M  V30 1371 C 125.09 -1.8465 1.42922 0
M  V30 1372 C 126.071 -1.67599 0.29062 0
M  V30 1373 O 127.256 -1.87688 0.498677 0
M  V30 1374 C 124.386 -3.22565 1.28722 0
M  V30 1375 C 123.34 -3.54281 2.40144 0
M  V30 1376 C 122.666 -4.91298 2.11023 0
M  V30 1377 C 123.966 -3.55676 3.82481 0
M  V30 1378 H 125.66 -1.82644 2.37237 0
M  V30 1379 H 123.206 -0.877305 1.1419 0
M  V30 1380 H 125.159 -4.01095 1.29232 0
M  V30 1381 H 123.883 -3.25137 0.308811 0
M  V30 1382 H 122.542 -2.78088 2.38877 0
M  V30 1383 H 122.19 -4.90468 1.11582 0
M  V30 1384 H 121.89 -5.13485 2.8567 0
M  V30 1385 H 123.414 -5.72166 2.13209 0
M  V30 1386 H 124.828 -4.24254 3.85592 0
M  V30 1387 H 123.225 -3.89388 4.56614 0
M  V30 1388 H 124.295 -2.55144 4.12346 0
M  V30 1389 N 125.638 -1.25649 -0.95132 0
M  V30 1390 C 126.586 -1.06118 -2.06982 0
M  V30 1391 C 127.58 0.00889169 -1.69398 0
M  V30 1392 O 128.786 -0.146988 -1.79399 0
M  V30 1393 H 125.161 -0.326248 -0.677544 0
M  V30 1394 H 127.132 -2.00932 -2.2061 0
M  V30 1395 C 125.881 -0.700145 -3.40578 0
M  V30 1396 H 125.204 -1.51537 -3.69968 0
M  V30 1397 H 126.644 -0.603211 -4.19687 0
M  V30 1398 C 125.103 0.59403 -3.31622 0
M  V30 1399 O 125.633 1.63522 -3.66911 0
M  V30 1400 N 123.839 0.58089 -2.84735 0
M  V30 1401 H 123.386 -0.266783 -2.56215 0
M  V30 1402 H 123.344 1.44695 -2.79125 0
M  V30 1403 N 127.117 1.15442 -1.07289 0
M  V30 1404 C 128.363 1.86489 -0.796846 0
M  V30 1405 C 128.696 1.82078 0.675371 0
M  V30 1406 O 127.971 1.24346 1.4956 0
M  V30 1407 C 128.254 3.35626 -1.30489 0
M  V30 1408 C 128.107 3.48673 -2.84161 0
M  V30 1409 C 129.426 4.30357 -0.920907 0
M  V30 1410 H 126.545 0.677144 -0.290939 0
M  V30 1411 H 129.187 1.35633 -1.33056 0
M  V30 1412 H 127.337 3.79068 -0.850883 0
M  V30 1413 H 129.009 3.14099 -3.37846 0
M  V30 1414 H 127.252 2.90253 -3.22391 0
M  V30 1415 H 127.923 4.53453 -3.14777 0
M  V30 1416 H 130.399 3.94871 -1.3121 0
M  V30 1417 H 129.275 5.33193 -1.30372 0
M  V30 1418 H 129.536 4.4176 0.173226 0
M  V30 1419 N 128.595 0.856903 1.32268 0
M  V30 1420 C 129.525 0.31858 2.31316 0
M  V30 1421 C 130.506 -0.583487 1.59779 0
M  V30 1422 O 131.691 -0.503259 1.87566 0
M  V30 1423 C 128.821 -0.491979 3.43798 0
M  V30 1424 C 127.775 0.315849 4.26833 0
M  V30 1425 C 127.101 -0.619586 5.31098 0
M  V30 1426 C 128.401 1.54282 4.98993 0
M  V30 1427 H 130.095 1.14621 2.76591 0
M  V30 1428 H 127.641 0.552613 1.32974 0
M  V30 1429 H 129.594 -0.879012 4.1213 0
M  V30 1430 H 128.318 -1.35299 2.97257 0
M  V30 1431 H 126.977 0.684664 3.6015 0
M  V30 1432 H 126.625 -1.47751 4.8081 0
M  V30 1433 H 126.325 -0.0830621 5.87541 0
M  V30 1434 H 127.849 -1.00375 6.02293 0
M  V30 1435 H 129.263 1.22796 5.59995 0
M  V30 1436 H 127.66 2.01745 5.65172 0
M  V30 1437 H 128.73 2.30285 4.26728 0
M  V30 1438 N 130.073 -1.45103 0.615059 0
M  V30 1439 C 131.02 -2.30586 -0.0993978 0
M  V30 1440 C 131.99 -1.42544 -0.852669 0
M  V30 1441 O 133.175 -1.71465 -0.836917 0
M  V30 1442 C 130.315 -3.27572 -1.08583 0
M  V30 1443 C 129.428 -4.30717 -0.332656 0
M  V30 1444 C 128.563 -5.14807 -1.30947 0
M  V30 1445 C 127.602 -6.09673 -0.544538 0
M  V30 1446 N 126.739 -6.86517 -1.47101 0
M  V30 1447 H 131.579 -2.91144 0.635542 0
M  V30 1448 H 129.116 -1.4346 0.325206 0
M  V30 1449 H 131.074 -3.82276 -1.67095 0
M  V30 1450 H 129.704 -2.68751 -1.78809 0
M  V30 1451 H 128.756 -3.78615 0.368107 0
M  V30 1452 H 130.068 -4.98102 0.263842 0
M  V30 1453 H 129.222 -5.73948 -1.96643 0
M  V30 1454 H 127.961 -4.47458 -1.9399 0
M  V30 1455 H 126.966 -5.49656 0.126003 0
M  V30 1456 H 128.191 -6.79052 0.080947 0
M  V30 1457 H 126.137 -6.21851 -2.08895 0
M  V30 1458 H 126.054 -7.50281 -0.928137 0
M  V30 1459 H 127.322 -7.50194 -2.11731 0
M  V30 1460 N 131.551 -0.354651 -1.53558 0
M  V30 1461 C 132.962 0.126902 -1.86268 0
M  V30 1462 C 133.313 1.49075 -1.27558 0
M  V30 1463 O 132.438 2.08105 -0.5934 0
M  V30 1464 C 133.033 0.237046 -3.3797 0
M  V30 1465 C 131.592 0.662842 -3.70518 0
M  V30 1466 C 130.739 -0.196652 -2.76602 0
M  V30 1467 H 133.69 -0.573849 -1.47962 0
M  V30 1468 H 133.711 1.06259 -3.65362 0
M  V30 1469 H 133.223 -0.755725 -3.80671 0
M  V30 1470 H 131.324 1.66424 -3.33367 0
M  V30 1471 H 131.437 0.445034 -4.77029 0
M  V30 1472 H 129.801 0.332763 -2.52517 0
M  V30 1473 H 130.584 -1.18676 -3.22135 0
M  V30 1474 N 133.029 1.57378 -0.0835403 0
M  V30 1475 C 134.445 1.57246 0.273109 0
M  V30 1476 C 134.645 1.09385 1.69225 0
M  V30 1477 O 133.701 0.765051 2.40631 0
M  V30 1478 C 135.014 3.00614 0.0720628 0
M  V30 1479 C 136.562 3.12684 0.1407 0
M  V30 1480 C 137.037 4.57989 -0.0322094 0
M  V30 1481 N 138.528 4.63194 0.0230085 0
M  V30 1482 C 139.263 5.73335 -0.0861941 0
M  V30 1483 N 138.759 6.9235 -0.24958 0
M  V30 1484 N 140.552 5.62093 -0.0282886 0
M  V30 1485 H 132.703 1.86801 -1.0109 0
M  V30 1486 H 134.966 0.861687 -0.395222 0
M  V30 1487 H 134.672 3.39786 -0.907662 0
M  V30 1488 H 134.546 3.68193 0.81936 0
M  V30 1489 H 136.933 2.73391 1.11092 0
M  V30 1490 H 137.014 2.47719 -0.637896 0
M  V30 1491 H 136.658 4.97973 -0.999247 0
M  V30 1492 H 136.588 5.21 0.765937 0
M  V30 1493 H 139.079 3.77613 0.14722 0
M  V30 1494 H 139.392 7.72117 -0.324733 0
M  V30 1495 H 137.737 6.94415 -0.285097 0
M  V30 1496 H 140.928 4.67997 0.0981408 0
M  V30 1497 H 141.101 6.47895 -0.116845 0
M  V30 1498 N 134.507 -0.190092 1.56449 0
M  V30 1499 C 135.47 -1.21925 1.9408 0
M  V30 1500 C 136.47 -1.38176 0.822431 0
M  V30 1501 O 137.66 -1.35903 1.08977 0
M  V30 1502 C 134.792 -2.58773 2.21922 0
M  V30 1503 H 135.985 -0.897464 2.86157 0
M  V30 1504 H 133.538 -0.43181 1.50217 0
M  V30 1505 H 134.273 -2.95998 1.32499 0
M  V30 1506 H 134.058 -2.48348 3.03424 0
M  V30 1507 H 135.548 -3.32978 2.52022 0
M  V30 1508 N 135.985 -1.50799 -0.457987 0
M  V30 1509 C 137.401 -1.38515 -0.792819 0
M  V30 1510 C 137.601 -0.451409 -1.96379 0
M  V30 1511 O 136.657 0.10112 -2.52297 0
M  V30 1512 C 137.97 -2.80149 -1.09258 0
M  V30 1513 C 139.518 -2.89156 -1.19825 0
M  V30 1514 C 139.993 -4.31651 -1.53106 0
M  V30 1515 N 141.484 -4.34662 -1.60072 0
M  V30 1516 C 142.219 -5.41928 -1.87354 0
M  V30 1517 N 141.715 -6.59384 -2.12568 0
M  V30 1518 N 143.508 -5.29385 -1.88965 0
M  V30 1519 H 135.659 -2.10073 0.313511 0
M  V30 1520 H 137.922 -0.944803 0.0777862 0
M  V30 1521 H 137.628 -3.50374 -0.305084 0
M  V30 1522 H 137.502 -3.18204 -2.02549 0
M  V30 1523 H 139.889 -2.19141 -1.97639 0
M  V30 1524 H 139.97 -2.54626 -0.244821 0
M  V30 1525 H 139.614 -5.02208 -0.758266 0
M  V30 1526 H 139.544 -4.63678 -2.49621 0
M  V30 1527 H 142.035 -3.49973 -1.42573 0
M  V30 1528 H 142.348 -7.36934 -2.32696 0
M  V30 1529 H 140.693 -6.62535 -2.09933 0
M  V30 1530 H 143.884 -4.36616 -1.68772 0
M  V30 1531 H 144.057 -6.13066 -2.09891 0
M  V30 1532 N 137.463 0.71206 -1.40597 0
M  V30 1533 C 138.396 1.83582 -1.35546 0
M  V30 1534 C 139.374 1.61032 -0.225284 0
M  V30 1535 O 140.558 1.83998 -0.409519 0
M  V30 1536 C 137.685 3.19983 -1.11034 0
M  V30 1537 C 136.731 3.61355 -2.2655 0
M  V30 1538 S 137.564 3.68062 -3.88961 0
M  V30 1539 C 138.72 5.07216 -3.66719 0
M  V30 1540 H 138.953 1.87586 -2.30648 0
M  V30 1541 H 136.486 0.879182 -1.26924 0
M  V30 1542 H 138.444 3.98734 -0.975761 0
M  V30 1543 H 137.105 3.13608 -0.175798 0
M  V30 1544 H 136.298 4.60403 -2.0505 0
M  V30 1545 H 135.9 2.8987 -2.36329 0
M  V30 1546 H 138.192 5.94238 -3.25404 0
M  V30 1547 H 139.135 5.33753 -4.6531 0
M  V30 1548 H 139.543 4.77976 -3.00332 0
M  V30 1549 N 138.941 1.26152 0.944643 0
M  V30 1550 C 140.169 1.14259 1.72489 0
M  V30 1551 C 140.584 -0.302555 1.8636 0
M  V30 1552 O 139.941 -1.20741 1.36849 0
M  V30 1553 C 139.992 1.80266 3.13347 0
M  V30 1554 O 139.713 3.19133 3.00143 0
M  V30 1555 C 141.214 1.74283 4.07603 0
M  V30 1556 H 138.434 0.398051 0.540181 0
M  V30 1557 H 140.978 1.66706 1.18446 0
M  V30 1558 H 139.133 1.31766 3.64303 0
M  V30 1559 H 139.547 3.51744 3.89071 0
M  V30 1560 H 141.021 2.25111 5.04013 0
M  V30 1561 H 141.498 0.708631 4.33446 0
M  V30 1562 H 142.104 2.22319 3.62567 0
M  V30 1563 N 140.419 -1.14872 1.07899 0
M  V30 1564 C 141.83 -1.67367 0.827363 0
M  V30 1565 C 142.181 -1.85236 -0.646693 0
M  V30 1566 O 141.306 -1.55974 -1.50004 0
M  V30 1567 C 141.901 -3.04016 1.49532 0
M  V30 1568 C 140.46 -3.53566 1.29106 0
M  V30 1569 C 139.607 -2.29161 1.56143 0
M  V30 1570 H 142.558 -0.990083 1.24028 0
M  V30 1571 H 142.579 -3.69219 0.919643 0
M  V30 1572 H 142.091 -2.90978 2.56814 0
M  V30 1573 H 140.192 -3.71835 0.238713 0
M  V30 1574 H 140.305 -4.34661 2.01511 0
M  V30 1575 H 138.669 -2.34978 0.982717 0
M  V30 1576 H 139.452 -2.18705 2.64619 0
M  V30 1577 N 141.898 -0.863906 -1.31812 0
M  V30 1578 C 142.861 -0.320212 -2.26952 0
M  V30 1579 C 143.861 0.525369 -1.51975 0
M  V30 1580 O 145.051 0.335547 -1.70938 0
M  V30 1581 C 142.183 0.545919 -3.365 0
M  V30 1582 H 143.376 -1.16004 -2.76556 0
M  V30 1583 H 140.929 -0.638995 -1.42641 0
M  V30 1584 H 141.664 1.40718 -2.92179 0
M  V30 1585 H 141.449 -0.0594674 -3.92055 0
M  V30 1586 H 142.939 0.918796 -4.07367 0
M  V30 1587 N 143.376 1.44774 -0.622745 0
M  V30 1588 C 144.787 1.85546 -0.207226 0
M  V30 1589 C 145.138 1.52093 1.23944 0
M  V30 1590 O 144.263 0.95492 1.94191 0
M  V30 1591 C 144.858 3.36781 -0.369313 0
M  V30 1592 C 143.417 3.76399 -0.00836847 0
M  V30 1593 C 142.564 2.68664 -0.686651 0
M  V30 1594 H 145.515 1.3536 -0.828454 0
M  V30 1595 H 145.536 3.78453 0.394162 0
M  V30 1596 H 145.048 3.61098 -1.42231 0
M  V30 1597 H 143.149 3.57698 1.04322 0
M  V30 1598 H 143.262 4.7732 -0.412584 0
M  V30 1599 H 141.626 2.54404 -0.122777 0
M  V30 1600 H 142.409 2.95815 -1.74208 0
M  V30 1601 N 144.854 0.36279 1.53368 0
M  V30 1602 C 145.817 -0.472679 2.24273 0
M  V30 1603 C 146.817 -1.012 1.24961 0
M  V30 1604 O 148.007 -0.898194 1.49259 0
M  V30 1605 C 145.139 -1.66039 2.97731 0
M  V30 1606 H 146.332 0.14773 2.99536 0
M  V30 1607 H 143.885 0.114434 1.55881 0
M  V30 1608 H 144.62 -2.31896 2.26704 0
M  V30 1609 H 144.405 -1.28066 3.70596 0
M  V30 1610 H 145.895 -2.25252 3.51641 0
M  V30 1611 N 146.332 -1.57332 0.0918853 0
M  V30 1612 C 147.557 -1.98995 -0.584442 0
M  V30 1613 C 147.982 -0.970528 -1.61128 0
M  V30 1614 O 147.34 0.0613904 -1.81196 0
M  V30 1615 C 147.388 -3.39636 -1.21161 0
M  V30 1616 O 146.492 -3.40447 -2.32744 0
M  V30 1617 H 145.833 -0.647165 -0.148572 0
M  V30 1618 H 148.363 -2.03873 0.172347 0
M  V30 1619 H 148.373 -3.7726 -1.55367 0
M  V30 1620 H 147.048 -4.13356 -0.459313 0
M  V30 1621 H 145.625 -3.14614 -2.0018 0
M  V30 1622 N 147.81 0.181792 -1.56548 0
M  V30 1623 C 149.05 0.906711 -1.83189 0
M  V30 1624 C 149.414 1.79882 -0.671312 0
M  V30 1625 O 150.615 2.56054 -0.81792 0
M  V30 1626 C 148.886 1.69023 -3.14906 0
M  V30 1627 S 150.445 2.46535 -3.62996 0
M  V30 1628 H 147.263 0.303877 -0.642791 0
M  V30 1629 H 149.865 0.169107 -1.94767 0
M  V30 1630 H 148.569 1.02571 -3.97376 0
M  V30 1631 H 148.1 2.46941 -3.06241 0
M  V30 1632 H 150.115 3.71014 -3.29489 0
M  V30 1633 N 149.288 1.51039 0.449983 0
M  V30 1634 C 150.513 1.6715 1.22783 0
M  V30 1635 C 150.938 0.363081 1.84563 0
M  V30 1636 O 150.296 -0.675433 1.68249 0
M  V30 1637 C 150.344 2.77985 2.29689 0
M  V30 1638 O 149.448 2.40707 3.34864 0
M  V30 1639 H 148.789 0.557746 0.360299 0
M  V30 1640 H 151.319 1.97535 0.533005 0
M  V30 1641 H 151.329 3.01693 2.74673 0
M  V30 1642 H 150.004 3.72935 1.84098 0
M  V30 1643 H 148.581 2.27523 2.95445 0
M  V30 1644 N 150.766 -0.704594 1.40972 0
M  V30 1645 C 151.698 -1.82974 1.38033 0
M  V30 1646 C 152.711 -1.60305 0.283931 0
M  V30 1647 O 153.9 -1.69975 0.545042 0
M  V30 1648 C 151 -3.19578 1.12795 0
M  V30 1649 C 150.173 -3.69352 2.34302 0
M  V30 1650 C 149.232 -4.84601 2.05058 0
M  V30 1651 O 148.258 -4.96682 2.7802 0
M  V30 1652 N 149.46 -5.71194 1.03528 0
M  V30 1653 H 152.225 -1.85991 2.35005 0
M  V30 1654 H 149.786 -0.886567 1.35468 0
M  V30 1655 H 151.778 -3.9429 0.911987 0
M  V30 1656 H 150.348 -3.11642 0.24452 0
M  V30 1657 H 149.568 -2.85649 2.71659 0
M  V30 1658 H 150.856 -3.99345 3.1528 0
M  V30 1659 H 150.254 -5.64054 0.431217 0
M  V30 1660 H 148.811 -6.45843 0.879205 0
M  V30 1661 N 152.244 -1.26651 -0.937939 0
M  V30 1662 C 153.154 -1.10276 -2.07066 0
M  V30 1663 C 154.17 -0.0354197 -1.73964 0
M  V30 1664 O 155.346 -0.239816 -1.99967 0
M  V30 1665 C 152.411 -0.740887 -3.38691 0
M  V30 1666 C 151.472 -1.88799 -3.85556 0
M  V30 1667 C 150.705 -1.54329 -5.10899 0
M  V30 1668 O 150.928 -0.446494 -5.6865 0
M  V30 1669 O 149.862 -2.37911 -5.52885 0
M  V30 1670 H 153.688 -2.05309 -2.23789 0
M  V30 1671 H 151.273 -1.05743 -1.0554 0
M  V30 1672 H 153.155 -0.55195 -4.1777 0
M  V30 1673 H 151.83 0.180022 -3.23199 0
M  V30 1674 H 150.737 -2.13191 -3.07409 0
M  V30 1675 H 152.07 -2.78874 -4.05574 0
M  V30 1676 N 153.722 1.14298 -1.08507 0
M  V30 1677 C 154.652 2.21542 -0.737646 0
M  V30 1678 C 155.633 1.67773 0.280377 0
M  V30 1679 O 156.818 1.93616 0.150521 0
M  V30 1680 C 153.948 3.46988 -0.147259 0
M  V30 1681 C 152.902 4.13789 -1.09374 0
M  V30 1682 C 152.228 5.33449 -0.365524 0
M  V30 1683 C 153.528 4.62208 -2.4323 0
M  V30 1684 H 155.222 2.5086 -1.6343 0
M  V30 1685 H 152.768 1.20576 -0.787243 0
M  V30 1686 H 154.721 4.21262 0.107808 0
M  V30 1687 H 153.445 3.17037 0.784538 0
M  V30 1688 H 152.104 3.4147 -1.33393 0
M  V30 1689 H 151.752 4.99759 0.57011 0
M  V30 1690 H 151.452 5.79088 -0.996512 0
M  V30 1691 H 152.976 6.10485 -0.118534 0
M  V30 1692 H 154.39 5.27952 -2.23472 0
M  V30 1693 H 152.787 5.18553 -3.02031 0
M  V30 1694 H 153.857 3.77224 -3.04681 0
M  V30 1695 N 155.201 0.870884 1.31352 0
M  V30 1696 C 156.612 0.534714 1.78879 0
M  V30 1697 C 156.963 -0.948423 1.71754 0
M  V30 1698 O 156.088 -1.74055 1.28584 0
M  V30 1699 C 156.683 0.963839 3.24801 0
M  V30 1700 C 155.242 0.679311 3.70219 0
M  V30 1701 C 154.389 1.15465 2.52117 0
M  V30 1702 H 157.34 1.05651 1.18421 0
M  V30 1703 H 157.361 0.286892 3.79417 0
M  V30 1704 H 156.873 2.04332 3.29955 0
M  V30 1705 H 154.974 -0.388769 3.70566 0
M  V30 1706 H 155.087 1.25698 4.62317 0
M  V30 1707 H 153.451 0.574383 2.48139 0
M  V30 1708 H 154.234 2.24157 2.60016 0
M  V30 1709 N 156.679 -1.44442 0.630414 0
M  V30 1710 C 157.904 -2.06927 0.139944 0
M  V30 1711 C 158.329 -1.46795 -1.17613 0
M  V30 1712 O 157.687 -0.569144 -1.72135 0
M  V30 1713 C 157.735 -3.6058 0.0379581 0
M  V30 1714 O 156.839 -3.99937 -1.0062 0
M  V30 1715 H 156.18 -0.658608 0.0844483 0
M  V30 1716 H 158.71 -1.85327 0.866891 0
M  V30 1717 H 158.72 -4.07714 -0.152856 0
M  V30 1718 H 157.395 -4.03728 0.998809 0
M  V30 1719 H 155.972 -3.64436 -0.79001 0
M  V30 1720 N 158.157 -0.370918 -1.53173 0
M  V30 1721 C 159.12 0.460778 -2.24521 0
M  V30 1722 C 160.12 1.00536 -1.25496 0
M  V30 1723 O 161.31 0.890266 -1.49733 0
M  V30 1724 C 158.442 1.64457 -2.98608 0
M  V30 1725 H 159.635 -0.163613 -2.99453 0
M  V30 1726 H 157.188 -0.122699 -1.55818 0
M  V30 1727 H 157.923 2.30691 -2.2793 0
M  V30 1728 H 157.708 1.26099 -3.7127 0
M  V30 1729 H 159.198 2.23384 -3.5283 0
M  V30 1730 N 159.635 1.57281 -0.100228 0
M  V30 1731 C 160.545 2.17833 0.870965 0
M  V30 1732 C 161.561 1.14921 1.30649 0
M  V30 1733 O 162.737 1.47313 1.37335 0
M  V30 1734 C 159.802 2.75085 2.1102 0
M  V30 1735 C 158.863 3.9297 1.72838 0
M  V30 1736 C 158.096 4.47482 2.90854 0
M  V30 1737 O 158.319 4.00922 4.05731 0
M  V30 1738 O 157.253 5.38433 2.69023 0
M  V30 1739 H 161.079 3.0124 0.38575 0
M  V30 1740 H 158.664 1.48881 0.124397 0
M  V30 1741 H 160.546 3.11656 2.83634 0
M  V30 1742 H 159.221 1.94721 2.58584 0
M  V30 1743 H 158.128 3.61201 0.973883 0
M  V30 1744 H 159.461 4.74713 1.30033 0
M  V30 1745 N 161.113 -0.173488 1.56642 0
M  V30 1746 C 162.39 -0.917617 1.7274 0
M  V30 1747 C 162.77 -2.00484 0.661027 0
M  V30 1748 O 162.118 -2.26184 -0.32453 0
M  V30 1749 C 162.328 -1.48433 3.15862 0
M  V30 1750 C 163.676 -1.95809 3.76754 0
M  V30 1751 O 164.7 -1.58231 3.19126 0
M  V30 1752 O 163.559 -2.65024 4.77938 0
M  V30 1753 H 160.653 -0.431772 0.705338 0
M  V30 1754 H 163.199 -0.161487 1.6893 0
M  V30 1755 H 161.971 -0.701715 3.84957 0
M  V30 1756 H 161.594 -2.30471 3.23989 0
M  V30 1757 N 162.591 -1.51276 -0.441967 0
M  V30 1758 C 163.539 -1.72823 -1.55676 0
M  V30 1759 C 164.533 -0.59445 -1.58627 0
M  V30 1760 O 165.739 -0.775715 -1.62427 0
M  V30 1761 H 162.114 -0.545983 -0.517113 0
M  V30 1762 H 164.085 -2.6628 -1.34675 0
M  V30 1763 C 162.834 -1.86619 -2.93375 0
M  V30 1764 H 162.157 -2.73264 -2.91834 0
M  V30 1765 H 163.597 -2.05709 -3.70756 0
M  V30 1766 C 162.056 -0.624842 -3.31055 0
M  V30 1767 O 162.586 0.222636 -4.01083 0
M  V30 1768 N 160.792 -0.470288 -2.86769 0
M  V30 1769 H 160.339 -1.161 -2.29953 0
M  V30 1770 H 160.297 0.359051 -3.12343 0
M  V30 1771 N 164.069 0.697108 -1.41344 0
M  V30 1772 C 165.294 1.49096 -1.44171 0
M  V30 1773 C 165.719 1.88038 -0.0481568 0
M  V30 1774 O 165.077 1.54525 0.948243 0
M  V30 1775 C 165.125 2.73088 -2.3549 0
M  V30 1776 O 164.229 3.70514 -1.81088 0
M  V30 1777 H 163.57 0.448801 -0.489361 0
M  V30 1778 H 166.1 0.856992 -1.85787 0
M  V30 1779 H 166.11 3.21413 -2.51312 0
M  V30 1780 H 164.785 2.44081 -3.36745 0
M  V30 1781 H 163.362 3.29441 -1.74708 0
M  V30 1782 N 165.547 1.27147 0.931209 0
M  V30 1783 C 166.958 1.12044 1.49342 0
M  V30 1784 C 167.309 -0.295795 1.93957 0
M  V30 1785 O 166.434 -1.18835 1.80852 0
M  V30 1786 C 167.029 2.02781 2.71414 0
M  V30 1787 C 165.588 1.91794 3.2387 0
M  V30 1788 C 164.735 1.95543 1.96617 0
M  V30 1789 H 167.686 1.40091 0.745672 0
M  V30 1790 H 167.707 1.58156 3.46074 0
M  V30 1791 H 167.219 3.05848 2.38911 0
M  V30 1792 H 165.32 0.916992 3.6114 0
M  V30 1793 H 165.433 2.77852 3.90302 0
M  V30 1794 H 163.797 1.39722 2.12955 0
M  V30 1795 H 164.58 3.00259 1.66432 0
M  V30 1796 N 167.025 -1.13721 1.09112 0
M  V30 1797 C 167.958 -2.18094 0.67158 0
M  V30 1798 C 168.936 -1.59414 -0.320299 0
M  V30 1799 O 170.12 -1.87183 -0.222444 0
M  V30 1800 C 167.247 -3.38698 -0.0111189 0
M  V30 1801 C 166.293 -4.15966 0.942055 0
M  V30 1802 S 167.126 -4.7604 2.45246 0
M  V30 1803 C 168.282 -5.99994 1.78208 0
M  V30 1804 H 168.515 -2.53344 1.55577 0
M  V30 1805 H 166.048 -1.24967 0.906789 0
M  V30 1806 H 168.006 -4.08559 -0.398716 0
M  V30 1807 H 166.667 -3.01756 -0.871905 0
M  V30 1808 H 165.86 -5.02318 0.411396 0
M  V30 1809 H 165.462 -3.51745 1.2709 0
M  V30 1810 H 167.754 -6.68441 1.10424 0
M  V30 1811 H 168.697 -6.57662 2.62463 0
M  V30 1812 H 169.105 -5.50432 1.25238 0
M  V30 1813 N 168.503 -0.877838 -1.30888 0
M  V30 1814 C 169.466 -0.344265 -2.266 0
M  V30 1815 C 170.466 0.50922 -1.52524 0
M  V30 1816 O 171.656 0.317398 -1.71284 0
M  V30 1817 C 168.788 0.510198 -3.37061 0
M  V30 1818 H 169.981 -1.1893 -2.7531 0
M  V30 1819 H 167.534 -0.654088 -1.41956 0
M  V30 1820 H 168.269 1.37612 -2.93655 0
M  V30 1821 H 168.054 -0.101047 -3.9197 0
M  V30 1822 H 169.544 0.875537 -4.08319 0
M  V30 1823 N 169.982 1.44106 -0.638065 0
M  V30 1824 C 171.207 2.0685 -0.150916 0
M  V30 1825 C 171.632 1.47417 1.16833 0
M  V30 1826 O 170.99 0.578264 1.71831 0
M  V30 1827 C 171.038 3.60555 -0.05708 0
M  V30 1828 O 170.142 4.00465 0.984972 0
M  V30 1829 H 169.483 0.658151 -0.0879399 0
M  V30 1830 H 172.013 1.84865 -0.876707 0
M  V30 1831 H 172.023 4.07789 0.131232 0
M  V30 1832 H 170.698 4.03193 -1.02021 0
M  V30 1833 H 169.275 3.64849 0.770672 0
M  V30 1834 N 171.46 0.379036 1.52974 0
M  V30 1835 C 172.737 -0.263479 1.93817 0
M  V30 1836 C 173.117 -1.65244 1.31368 0
M  V30 1837 O 172.465 -2.23448 0.477856 0
M  V30 1838 C 172.675 -0.300166 3.47707 0
M  V30 1839 C 174.023 -0.534061 4.21228 0
M  V30 1840 O 175.047 -0.38081 3.54159 0
M  V30 1841 O 173.906 -0.833501 5.40106 0
M  V30 1842 H 171 -0.161149 0.811147 0
M  V30 1843 H 173.546 0.432798 1.64088 0
M  V30 1844 H 172.318 0.673138 3.85467 0
M  V30 1845 H 171.941 -1.04179 3.83709 0
M  V30 1846 N 172.938 -1.57226 0.108567 0
M  V30 1847 C 174.349 -1.8195 -0.418464 0
M  V30 1848 C 174.7 -1.02508 -1.67292 0
M  V30 1849 O 173.825 -0.258496 -2.14851 0
M  V30 1850 C 174.42 -3.30028 -0.765979 0
M  V30 1851 C 172.979 -3.55469 -1.23769 0
M  V30 1852 C 172.126 -2.7625 -0.241106 0
M  V30 1853 H 175.077 -1.55149 0.33384 0
M  V30 1854 H 175.098 -3.44086 -1.62434 0
M  V30 1855 H 174.61 -3.87821 0.147219 0
M  V30 1856 H 172.711 -3.03022 -2.16814 0
M  V30 1857 H 172.824 -4.6408 -1.19022 0
M  V30 1858 H 171.188 -2.44133 -0.72602 0
M  V30 1859 H 171.971 -3.36797 0.665007 0
M  V30 1860 N 174.416 0.165178 -1.56732 0
M  V30 1861 C 175.346 1.20651 -1.99914 0
M  V30 1862 C 176.327 1.45827 -0.875705 0
M  V30 1863 O 177.512 1.57057 -1.14223 0
M  V30 1864 C 174.642 2.54401 -2.36427 0
M  V30 1865 C 173.596 2.43782 -3.51787 0
M  V30 1866 C 172.922 3.82078 -3.7406 0
M  V30 1867 C 174.222 1.93732 -4.85041 0
M  V30 1868 H 175.916 0.847534 -2.87154 0
M  V30 1869 H 173.462 0.40625 -1.38151 0
M  V30 1870 H 175.415 3.27458 -2.65234 0
M  V30 1871 H 174.139 2.92098 -1.46103 0
M  V30 1872 H 172.798 1.73178 -3.23117 0
M  V30 1873 H 172.446 4.17179 -2.81017 0
M  V30 1874 H 172.146 3.7584 -4.51684 0
M  V30 1875 H 173.67 4.56712 -4.05274 0
M  V30 1876 H 175.084 2.56569 -5.12684 0
M  V30 1877 H 173.481 1.98428 -5.66345 0
M  V30 1878 H 174.551 0.891962 -4.76626 0
M  V30 1879 N 175.894 1.51508 0.433938 0
M  V30 1880 C 177.142 1.6402 1.18075 0
M  V30 1881 C 177.463 0.360328 1.91642 0
M  V30 1882 O 176.733 -0.623945 1.85698 0
M  V30 1883 H 175.313 0.6045 0.43885 0
M  V30 1884 H 177.975 1.88452 0.497178 0
M  V30 1885 H 177.071 2.46949 1.90847 0
M  V30 1886 N 177.372 -0.689602 1.41712 0
M  V30 1887 C 178.618 -1.45181 1.41599 0
M  V30 1888 C 178.951 -1.94181 0.0270081 0
M  V30 1889 O 178.226 -1.6993 -0.946265 0
M  V30 1890 C 178.509 -2.65945 2.42787 0
M  V30 1891 C 178.362 -2.22672 3.90816 0
M  V30 1892 C 179.681 -3.68149 2.41151 0
M  V30 1893 H 176.8 -0.526576 0.515642 0
M  V30 1894 H 179.442 -0.784947 1.73028 0
M  V30 1895 H 177.592 -3.2284 2.16116 0
M  V30 1896 H 179.264 -1.71058 4.28412 0
M  V30 1897 H 177.507 -1.54394 4.05395 0
M  V30 1898 H 178.178 -3.0935 4.57172 0
M  V30 1899 H 180.654 -3.2094 2.64834 0
M  V30 1900 H 179.53 -4.50248 3.13955 0
M  V30 1901 H 179.791 -4.18259 1.43221 0
M  V30 1902 N 178.85 -1.27639 -0.924453 0
M  V30 1903 C 180.096 -1.14336 -1.67497 0
M  V30 1904 C 180.429 0.309465 -1.91718 0
M  V30 1905 O 179.704 1.22608 -1.50989 0
M  V30 1906 C 179.987 -1.93096 -3.0395 0
M  V30 1907 C 179.84 -3.46381 -2.8695 0
M  V30 1908 C 181.159 -1.73798 -4.0433 0
M  V30 1909 H 178.278 -0.416728 -0.607871 0
M  V30 1910 H 180.92 -1.56832 -1.07256 0
M  V30 1911 H 179.07 -1.56982 -3.55372 0
M  V30 1912 H 180.742 -3.92343 -2.42621 0
M  V30 1913 H 178.985 -3.72557 -2.22225 0
M  V30 1914 H 179.656 -3.96735 -3.83804 0
M  V30 1915 H 182.132 -2.05293 -3.61931 0
M  V30 1916 H 181.008 -2.31294 -4.97789 0
M  V30 1917 H 181.269 -0.686725 -4.36734 0
M  V30 1918 N 180.328 1.1314 -1.09713 0
M  V30 1919 C 181.744 1.36477 -0.827423 0
M  V30 1920 C 181.944 1.93654 0.556817 0
M  V30 1921 O 181 2.15791 1.31112 0
M  V30 1922 C 182.313 2.31334 -1.92106 0
M  V30 1923 C 183.861 2.44943 -1.94864 0
M  V30 1924 C 184.336 3.4311 -3.0338 0
M  V30 1925 N 185.827 3.50662 -3.02639 0
M  V30 1926 C 186.562 4.2651 -3.83246 0
M  V30 1927 N 186.058 5.05485 -4.73768 0
M  V30 1928 N 187.851 4.2184 -3.71493 0
M  V30 1929 H 180.002 0.743807 -1.9895 0
M  V30 1930 H 182.265 0.389823 -0.864143 0
M  V30 1931 H 181.971 1.96483 -2.91698 0
M  V30 1932 H 181.845 3.31381 -1.80184 0
M  V30 1933 H 184.232 2.79079 -0.959099 0
M  V30 1934 H 184.313 1.4481 -2.10864 0
M  V30 1935 H 183.957 3.09704 -4.02549 0
M  V30 1936 H 183.887 4.43055 -2.84622 0
M  V30 1937 H 186.378 2.94315 -2.37039 0
M  V30 1938 H 186.691 5.60675 -5.3185 0
M  V30 1939 H 185.036 5.04708 -4.77802 0
M  V30 1940 H 188.227 3.5922 -3.00131 0
M  V30 1941 H 188.4 4.80697 -4.3455 0
M  V30 1942 N 181.806 0.884767 1.30421 0
M  V30 1943 C 183.054 0.502112 1.95763 0
M  V30 1944 C 183.375 -0.951815 1.70192 0
M  V30 1945 O 182.645 -1.6692 1.0254 0
M  V30 1946 H 181.225 0.182694 0.724315 0
M  V30 1947 H 183.887 1.1278 1.58955 0
M  V30 1948 H 182.983 0.672188 3.04775 0
M  V30 1949 N 183.284 -1.43765 0.645699 0
M  V30 1950 C 184.532 -2.01499 0.155731 0
M  V30 1951 C 184.853 -1.51151 -1.232 0
M  V30 1952 O 184.123 -0.721044 -1.82148 0
M  V30 1953 H 182.703 -0.745003 0.0545817 0
M  V30 1954 H 185.365 -1.76075 0.835677 0
M  V30 1955 H 184.461 -3.1181 0.134577 0
M  V30 1956 N 184.763 -0.387143 -1.52771 0
M  V30 1957 C 186.179 -0.037007 -1.59557 0
M  V30 1958 C 186.379 1.44801 -1.40124 0
M  V30 1959 O 185.435 2.21227 -1.21716 0
M  V30 1960 C 186.748 -0.512256 -2.96305 0
M  V30 1961 C 188.296 -0.468328 -3.09476 0
M  V30 1962 C 188.771 -0.919731 -4.4867 0
M  V30 1963 N 190.262 -0.875656 -4.54848 0
M  V30 1964 C 190.997 -1.19637 -5.6078 0
M  V30 1965 N 190.493 -1.58745 -6.74368 0
M  V30 1966 N 192.286 -1.11776 -5.50874 0
M  V30 1967 H 184.437 -1.35395 -1.63652 0
M  V30 1968 H 186.7 -0.554818 -0.768688 0
M  V30 1969 H 186.406 -1.54935 -3.15734 0
M  V30 1970 H 186.28 0.089805 -3.77093 0
M  V30 1971 H 188.667 0.559671 -2.89744 0
M  V30 1972 H 188.748 -1.10616 -2.30646 0
M  V30 1973 H 188.392 -1.94595 -4.69143 0
M  V30 1974 H 188.322 -0.258927 -5.25963 0
M  V30 1975 H 190.813 -0.587843 -3.733 0
M  V30 1976 H 191.126 -1.81586 -7.51163 0
M  V30 1977 H 189.471 -1.6263 -6.75705 0
M  V30 1978 H 192.662 -0.811264 -4.61016 0
M  V30 1979 H 192.835 -1.37103 -6.3333 0
M  V30 1980 N 186.241 1.57166 -0.116904 0
M  V30 1981 C 187.487 1.95412 0.542405 0
M  V30 1982 C 187.82 1.00019 1.66463 0
M  V30 1983 O 187.095 0.0370346 1.94465 0
M  V30 1984 C 187.378 3.43615 1.07708 0
M  V30 1985 C 187.231 4.49781 -0.0415868 0
M  V30 1986 C 188.55 3.93616 1.96861 0
M  V30 1987 H 185.669 0.710543 0.195696 0
M  V30 1988 H 188.311 1.89027 -0.192038 0
M  V30 1989 H 186.461 3.49187 1.70296 0
M  V30 1990 H 188.133 4.56308 -0.676793 0
M  V30 1991 H 186.376 4.28033 -0.705019 0
M  V30 1992 H 187.047 5.50733 0.373717 0
M  V30 1993 H 189.523 3.90335 1.44146 0
M  V30 1994 H 188.399 4.97838 2.3119 0
M  V30 1995 H 188.66 3.34188 2.89432 0
M  V30 1996 N 187.719 -0.156864 1.56817 0
M  V30 1997 C 188.667 -1.21319 1.98455 0
M  V30 1998 C 189.661 -1.45025 0.875444 0
M  V30 1999 O 190.867 -1.45435 1.0606 0
M  V30 2000 H 187.242 -0.408142 0.631605 0
M  V30 2001 H 189.213 -0.835244 2.86472 0
M  V30 2002 C 187.962 -2.54148 2.37285 0
M  V30 2003 H 187.285 -2.36733 3.22176 0
M  V30 2004 H 188.725 -3.26712 2.70251 0
M  V30 2005 C 187.184 -3.13967 1.22173 0
M  V30 2006 O 187.714 -3.98357 0.517149 0
M  V30 2007 N 185.92 -2.7327 0.988536 0
M  V30 2008 H 185.467 -2.04744 1.56326 0
M  V30 2009 H 185.425 -3.13628 0.220209 0
M  V30 2010 N 189.197 -1.51736 -0.425897 0
M  V30 2011 C 190.425 -1.68794 -1.1965 0
M  V30 2012 C 190.84 -0.390164 -1.84725 0
M  V30 2013 O 190.197 0.632376 -1.71194 0
M  V30 2014 C 190.248 -2.81174 -2.27208 0
M  V30 2015 O 189.969 -4.05925 -1.64793 0
M  V30 2016 C 191.47 -3.09599 -3.17275 0
M  V30 2017 H 188.69 -0.566128 -0.360194 0
M  V30 2018 H 191.234 -1.98211 -0.503249 0
M  V30 2019 H 189.389 -2.54324 -2.9223 0
M  V30 2020 H 189.803 -4.68423 -2.35967 0
M  V30 2021 H 191.277 -3.91786 -3.88854 0
M  V30 2022 H 191.754 -2.22468 -3.78688 0
M  V30 2023 H 192.36 -3.38151 -2.57941 0
M  V30 2024 N 190.675 0.682077 -1.42076 0
M  V30 2025 C 191.625 1.78823 -1.41444 0
M  V30 2026 C 192.609 1.58323 -0.28681 0
M  V30 2027 O 193.801 1.68926 -0.528498 0
M  V30 2028 C 190.93 3.17232 -1.3122 0
M  V30 2029 C 190.016 3.4338 -2.489 0
M  V30 2030 N 190.407 3.40152 -3.7434 0
M  V30 2031 C 188.705 3.73986 -2.43003 0
M  V30 2032 C 189.406 3.65581 -4.52466 0
M  V30 2033 N 188.382 3.85989 -3.8277 0
M  V30 2034 H 192.184 1.7471 -2.36334 0
M  V30 2035 H 189.698 0.882622 -1.36321 0
M  V30 2036 H 191.695 3.96489 -1.2885 0
M  V30 2037 H 190.355 3.22547 -0.373263 0
M  V30 2038 H 191.366 3.20221 -4.07037 0
M  V30 2039 H 188.043 3.86591 -1.57651 0
M  V30 2040 H 189.433 3.69108 -5.61435 0
M  V30 2041 N 192.153 1.28127 0.917671 0
M  V30 2042 C 193.116 1.11744 2.00115 0
M  V30 2043 C 194.116 0.0583052 1.60694 0
M  V30 2044 O 195.306 0.303755 1.71531 0
M  V30 2045 C 192.438 0.704862 3.33533 0
M  V30 2046 H 193.631 2.07966 2.16079 0
M  V30 2047 H 191.184 1.11058 1.09981 0
M  V30 2048 H 191.919 -0.258299 3.2327 0
M  V30 2049 H 191.704 1.4699 3.63505 0
M  V30 2050 H 193.194 0.612768 4.1308 0
M  V30 2051 N 193.631 -1.12557 1.10312 0
M  V30 2052 C 194.879 -1.83675 0.843091 0
M  V30 2053 C 195.2 -1.84435 -0.633131 0
M  V30 2054 O 194.47 -1.30657 -1.45964 0
M  V30 2055 H 193.05 -0.680138 0.308904 0
M  V30 2056 H 195.712 -1.36301 1.39313 0
M  V30 2057 H 194.808 -2.87908 1.2048 0
M  V30 2058 N 195.109 -0.891671 -1.2995 0
M  V30 2059 C 196.357 -0.512486 -1.95494 0
M  V30 2060 C 196.678 0.942776 -1.70695 0
M  V30 2061 O 195.948 1.66374 -1.03424 0
M  V30 2062 H 194.528 -0.186533 -0.723336 0
M  V30 2063 H 197.19 -1.13621 -1.58355 0
M  V30 2064 H 196.286 -0.688342 -3.04415 0
M  V30 2065 N 196.587 1.43421 -0.653314 0
M  V30 2066 C 197.52 2.2803 0.0879804 0
M  V30 2067 C 198.498 1.39833 0.82979 0
M  V30 2068 O 199.682 1.69275 0.829341 0
M  V30 2069 C 196.809 3.19247 1.13132 0
M  V30 2070 C 195.855 4.23704 0.487546 0
M  V30 2071 S 196.688 5.30377 -0.738961 0
M  V30 2072 C 197.844 6.25162 0.30384 0
M  V30 2073 H 198.077 2.90554 -0.629739 0
M  V30 2074 H 195.61 1.47934 -0.442156 0
M  V30 2075 H 197.568 3.72346 1.72827 0
M  V30 2076 H 196.229 2.55901 1.82136 0
M  V30 2077 H 195.422 4.87631 1.27407 0
M  V30 2078 H 195.024 3.73983 -0.0352915 0
M  V30 2079 H 197.316 6.67321 1.17 0
M  V30 2080 H 198.259 7.07463 -0.300402 0
M  V30 2081 H 198.667 5.60864 0.63969 0
M  V30 2082 N 198.065 0.39524 1.52563 0
M  V30 2083 C 199.313 -0.184678 2.01254 0
M  V30 2084 C 199.634 -1.46822 1.28329 0
M  V30 2085 O 198.904 -1.91666 0.405094 0
M  V30 2086 H 197.484 -0.0712355 0.743596 0
M  V30 2087 H 200.146 0.528293 1.87603 0
M  V30 2088 H 199.242 -0.390681 3.09645 0
M  V30 2089 N 199.544 -1.57102 0.125237 0
M  V30 2090 C 200.955 -1.82384 -0.399142 0
M  V30 2091 C 201.306 -1.04276 -1.66195 0
M  V30 2092 O 200.431 -0.281269 -2.14564 0
M  V30 2093 C 201.026 -3.30821 -0.730932 0
M  V30 2094 C 199.585 -3.56762 -1.19992 0
M  V30 2095 C 198.732 -2.7649 -0.211792 0
M  V30 2096 H 201.683 -1.54786 0.350277 0
M  V30 2097 H 201.704 -3.4579 -1.58775 0
M  V30 2098 H 201.216 -3.87643 0.188345 0
M  V30 2099 H 199.317 -3.05305 -2.13588 0
M  V30 2100 H 199.43 -4.65317 -1.14093 0
M  V30 2101 H 197.794 -2.4489 -0.700085 0
M  V30 2102 H 198.577 -3.36073 0.700691 0
M  V30 2103 N 201.022 0.148545 -1.56898 0
M  V30 2104 C 201.932 1.20293 -2.01412 0
M  V30 2105 C 202.948 1.47107 -0.929273 0
M  V30 2106 O 204.124 1.58807 -1.23863 0
M  V30 2107 C 201.189 2.51682 -2.38447 0
M  V30 2108 C 200.25 2.32529 -3.60872 0
M  V30 2109 C 199.483 3.57653 -3.96132 0
M  V30 2110 O 199.706 4.63771 -3.32073 0
M  V30 2111 O 198.64 3.50408 -4.89385 0
M  V30 2112 H 202.466 0.855025 -2.91416 0
M  V30 2113 H 200.051 0.357151 -1.45068 0
M  V30 2114 H 201.933 3.29147 -2.63135 0
M  V30 2115 H 200.608 2.86006 -1.51599 0
M  V30 2116 H 199.515 1.53019 -3.41373 0
M  V30 2117 H 200.848 2.03121 -4.48333 0
M  V30 2118 N 202.5 1.5196 0.417844 0
M  V30 2119 C 203.748 1.65263 1.16329 0
M  V30 2120 C 204.069 0.380634 1.91249 0
M  V30 2121 O 203.339 -0.604214 1.86349 0
M  V30 2122 H 201.919 0.60912 0.432414 0
M  V30 2123 H 204.581 1.88969 0.477162 0
M  V30 2124 H 203.677 2.4896 1.88217 0
M  V30 2125 N 203.978 -0.674533 1.42435 0
M  V30 2126 C 205.218 -1.4466 1.44405 0
M  V30 2127 C 205.582 -1.91911 0.0585784 0
M  V30 2128 O 206.783 -2.68759 -0.0469991 0
M  V30 2129 C 205.054 -2.61136 2.44013 0
M  V30 2130 S 206.613 -3.49981 2.64687 0
M  V30 2131 H 203.431 -0.494074 0.511284 0
M  V30 2132 H 206.033 -0.785162 1.7904 0
M  V30 2133 H 204.737 -2.24662 3.43446 0
M  V30 2134 H 204.268 -3.32153 2.10803 0
M  V30 2135 H 206.283 -4.57124 1.93007 0
M  V30 2136 N 205.456 -1.28612 -0.910864 0
M  V30 2137 C 206.872 -1.06381 -1.18976 0
M  V30 2138 C 207.072 0.191998 -2.00583 0
M  V30 2139 O 206.128 0.892869 -2.36187 0
M  V30 2140 C 207.441 -2.31295 -1.92154 0
M  V30 2141 C 208.989 -2.36503 -2.05025 0
M  V30 2142 C 209.464 -3.61191 -2.81612 0
M  V30 2143 N 210.955 -3.61847 -2.89172 0
M  V30 2144 C 211.69 -4.55004 -3.4894 0
M  V30 2145 N 211.186 -5.58482 -4.09963 0
M  V30 2146 N 212.979 -4.42594 -3.46506 0
M  V30 2147 H 205.13 -2.09221 -0.366094 0
M  V30 2148 H 207.393 -0.921003 -0.224629 0
M  V30 2149 H 207.099 -3.228 -1.39618 0
M  V30 2150 H 206.973 -2.37934 -2.9269 0
M  V30 2151 H 209.36 -1.45494 -2.5674 0
M  V30 2152 H 209.441 -2.33857 -1.03657 0
M  V30 2153 H 209.085 -4.52545 -2.30576 0
M  V30 2154 H 209.015 -3.61092 -3.83302 0
M  V30 2155 H 211.506 -2.87022 -2.45819 0
M  V30 2156 H 211.819 -6.25704 -4.53557 0
M  V30 2157 H 210.164 -5.62305 -4.08459 0
M  V30 2158 H 213.355 -3.60953 -2.98045 0
M  V30 2159 H 213.528 -5.15381 -3.92793 0
M  V30 2160 N 206.934 1.1197 -1.10907 0
M  V30 2161 C 208.345 1.65114 -0.871446 0
M  V30 2162 C 208.696 1.86885 0.597353 0
M  V30 2163 O 207.821 1.59896 1.45816 0
M  V30 2164 C 208.416 2.99944 -1.5754 0
M  V30 2165 C 206.975 3.50018 -1.38435 0
M  V30 2166 C 206.122 2.24941 -1.62164 0
M  V30 2167 H 209.073 0.956851 -1.2661 0
M  V30 2168 H 209.094 3.66651 -1.01721 0
M  V30 2169 H 208.606 2.84067 -2.64438 0
M  V30 2170 H 206.707 3.71071 -0.337214 0
M  V30 2171 H 206.82 4.29165 -2.12965 0
M  V30 2172 H 205.184 2.3229 -1.04467 0
M  V30 2173 H 205.967 2.11612 -2.70324 0
M  V30 2174 N 208.412 0.89855 1.29475 0
M  V30 2175 C 209.659 0.523882 1.95606 0
M  V30 2176 C 209.987 -0.929608 1.70847 0
M  V30 2177 O 209.242 -1.67401 1.01367 0
M  V30 2178 C 209.541 0.761398 3.49195 0
M  V30 2179 C 209.207 2.19207 3.94029 0
M  V30 2180 C 207.869 2.58326 4.05982 0
M  V30 2181 C 210.221 3.12379 4.17216 0
M  V30 2182 C 207.549 3.898 4.38489 0
M  V30 2183 C 209.901 4.43401 4.51197 0
M  V30 2184 C 208.565 4.82394 4.61359 0
M  V30 2185 H 207.835 0.191702 0.715773 0
M  V30 2186 H 210.482 1.13699 1.54094 0
M  V30 2187 H 208.787 0.0653622 3.91745 0
M  V30 2188 H 210.484 0.450904 3.98457 0
M  V30 2189 H 207.074 1.87846 3.85242 0
M  V30 2190 H 211.258 2.83371 4.07449 0
M  V30 2191 H 206.514 4.19734 4.44559 0
M  V30 2192 H 210.688 5.15623 4.68087 0
M  V30 2193 H 208.315 5.84306 4.86303 0
M  V30 2194 N 209.89 -1.43072 0.660911 0
M  V30 2195 C 210.853 -2.29194 -0.0166406 0
M  V30 2196 C 211.853 -1.42609 -0.742912 0
M  V30 2197 O 213.043 -1.64155 -0.583004 0
M  V30 2198 C 210.175 -3.24831 -1.0343 0
M  V30 2199 H 211.368 -2.90596 0.741208 0
M  V30 2200 H 208.921 -1.5048 0.422532 0
M  V30 2201 H 209.656 -2.68339 -1.82111 0
M  V30 2202 H 209.441 -3.88676 -0.517082 0
M  V30 2203 H 210.931 -3.89451 -1.50723 0
M  V30 2204 N 211.368 -0.403325 -1.52352 0
M  V30 2205 C 212.315 0.425011 -2.26853 0
M  V30 2206 C 213.285 1.04598 -1.29029 0
M  V30 2207 O 214.47 1.07135 -1.57882 0
M  V30 2208 C 211.61 1.53888 -3.08889 0
M  V30 2209 C 210.723 0.939396 -4.21663 0
M  V30 2210 C 209.858 2.02547 -4.91068 0
M  V30 2211 C 208.897 1.40263 -5.95813 0
M  V30 2212 N 208.034 2.4286 -6.58759 0
M  V30 2213 H 212.874 -0.21674 -2.97211 0
M  V30 2214 H 210.411 -0.118722 -1.4662 0
M  V30 2215 H 212.369 2.19558 -3.54753 0
M  V30 2216 H 210.999 2.15074 -2.40714 0
M  V30 2217 H 210.051 0.171898 -3.80011 0
M  V30 2218 H 211.363 0.44436 -4.96817 0
M  V30 2219 H 210.517 2.75958 -5.40308 0
M  V30 2220 H 209.256 2.55415 -4.15469 0
M  V30 2221 H 208.261 0.653833 -5.45898 0
M  V30 2222 H 209.486 0.881719 -6.73352 0
M  V30 2223 H 207.432 2.94871 -5.85992 0
M  V30 2224 H 207.349 1.98152 -7.2957 0
M  V30 2225 H 208.617 3.15858 -7.12639 0
M  V30 2226 N 212.846 1.57033 -0.133567 0
M  V30 2227 C 214.093 1.95686 0.520877 0
M  V30 2228 C 214.421 1.0177 1.6575 0
M  V30 2229 O 213.676 0.0443195 1.9565 0
M  V30 2230 C 213.975 3.40674 1.08057 0
M  V30 2231 C 213.641 4.50855 0.0637899 0
M  V30 2232 C 212.303 4.80716 -0.215757 0
M  V30 2233 C 214.655 5.17398 -0.62835 0
M  V30 2234 C 211.983 5.74433 -1.19348 0
M  V30 2235 C 214.335 6.12167 -1.5948 0
M  V30 2236 C 212.999 6.40414 -1.88218 0
M  V30 2237 H 212.269 0.716067 0.190602 0
M  V30 2238 H 214.916 1.9026 -0.217556 0
M  V30 2239 H 213.221 3.42865 1.89606 0
M  V30 2240 H 214.918 3.67902 1.59529 0
M  V30 2241 H 211.508 4.27605 0.291855 0
M  V30 2242 H 215.692 4.94472 -0.425562 0
M  V30 2243 H 210.948 5.94616 -1.42272 0
M  V30 2244 H 215.122 6.6281 -2.13671 0
M  V30 2245 H 212.749 7.12838 -2.64133 0
M  V30 2246 N 214.325 -0.140222 1.56975 0
M  V30 2247 C 215.574 -0.850152 1.82908 0
M  V30 2248 C 215.887 -1.82028 0.715892 0
M  V30 2249 O 217.093 -2.57485 0.861016 0
M  V30 2250 C 215.549 -1.5625 3.24213 0
M  V30 2251 C 215.157 -0.63443 4.43485 0
M  V30 2252 C 216.901 -2.25881 3.59413 0
M  V30 2253 C 214.808 -1.34879 5.75814 0
M  V30 2254 H 213.738 -0.321221 0.682153 0
M  V30 2255 H 216.389 -0.102874 1.83211 0
M  V30 2256 H 214.771 -2.35565 3.18316 0
M  V30 2257 H 215.945 0.12398 4.60633 0
M  V30 2258 H 214.26 -0.0461836 4.16374 0
M  V30 2259 H 216.857 -2.79978 4.5554 0
M  V30 2260 H 217.2 -3.02693 2.85802 0
M  V30 2261 H 217.733 -1.53477 3.67001 0
M  V30 2262 H 214.472 -0.622385 6.52539 0
M  V30 2263 H 213.992 -2.07974 5.6259 0
M  V30 2264 H 215.671 -1.88784 6.18845 0
M  V30 2265 O 215.842 -1.58968 -0.284834 0
M  V30 2266 H 216.533 -1.69867 -0.930848 0
M  V30 END ATOM
M  V30 BEGIN BOND
M  V30 END BOND
M  V30 END CTAB
M  END
$$$$
