drugbank_target|Q7Z4J2 Glycosyltransferase 6 domain-containing protein 1 (DB01861; DB02379; DB03435; DB03685; DB04465)
 OpenBabel12092120543D

  0  0  0     0  0            999 V3000
M  V30 BEGIN CTAB
M  V30 COUNTS 5112 5198 0 0 0
M  V30 BEGIN ATOM
M  V30 1 H -0.908 1.98254 -0.117106 0
M  V30 2 N 0 1.576 0 0
M  V30 3 C 0.933 2.03868 1.02534 0
M  V30 4 C 1.911 0.928543 1.3348 0
M  V30 5 O 3.095 1.19667 1.45644 0
M  V30 6 C 0.222 2.43627 2.35294 0
M  V30 7 C -0.732 3.65373 2.2001 0
M  V30 8 S 0.101 5.13292 1.52614 0
M  V30 9 C 1.257 5.56322 2.86805 0
M  V30 10 H 1.49 2.90518 0.631377 0
M  V30 11 H -0.977 1.52953 0.210867 0
M  V30 12 H 0.981 2.67203 3.11629 0
M  V30 13 H -0.358 1.57376 2.7183 0
M  V30 14 H -1.165 3.90944 3.18086 0
M  V30 15 H -1.563 3.418 1.51819 0
M  V30 16 H 0.729 5.58782 3.83104 0
M  V30 17 H 1.672 6.56266 2.65933 0
M  V30 18 H 2.08 4.83886 2.90714 0
M  V30 19 N 1.4781 -0.272755 1.55222 0
M  V30 20 C 2.4261 -1.35705 1.88909 0
M  V30 21 C 3.4201 -1.5112 0.765456 0
M  V30 22 O 4.6261 -1.52901 0.949802 0
M  V30 23 H 1.0011 -0.453868 0.59959 0
M  V30 24 H 2.9721 -1.04544 2.79487 0
M  V30 25 C 1.7211 -2.71049 2.17779 0
M  V30 26 H 1.0441 -2.59979 3.03728 0
M  V30 27 H 2.4841 -3.45858 2.45272 0
M  V30 28 C 0.9431 -3.22165 0.985473 0
M  V30 29 O 1.4731 -4.01096 0.220233 0
M  V30 30 N -0.3209 -2.7985 0.783108 0
M  V30 31 H -0.7739 -2.15775 1.40708 0
M  V30 32 H -0.8159 -3.14397 -0.0130392 0
M  V30 33 N 2.9562 -1.48159 -0.537278 0
M  V30 34 C 4.1812 -1.59707 -1.32319 0
M  V30 35 C 4.6062 -0.254859 -1.86365 0
M  V30 36 O 3.9642 0.772378 -1.64024 0
M  V30 37 C 4.0122 -2.6412 -2.45505 0
M  V30 38 O 3.1162 -2.20774 -3.48328 0
M  V30 39 H 2.4572 -0.535791 -0.392204 0
M  V30 40 H 4.9872 -1.94092 -0.647268 0
M  V30 41 H 4.9972 -2.85166 -2.91795 0
M  V30 42 H 3.6722 -3.61567 -2.05528 0
M  V30 43 H 2.2492 -2.09911 -3.08207 0
M  V30 44 N 4.4343 0.785586 -1.36625 0
M  V30 45 C 5.3813 1.89838 -1.31264 0
M  V30 46 C 6.3513 1.65115 -0.180633 0
M  V30 47 O 7.5363 1.87222 -0.36777 0
M  V30 48 C 4.6763 3.26706 -1.11163 0
M  V30 49 C 3.7893 3.63476 -2.33472 0
M  V30 50 C 2.9243 4.89481 -2.06353 0
M  V30 51 C 1.9633 5.18941 -3.24602 0
M  V30 52 N 1.1003 6.36131 -2.97123 0
M  V30 53 H 5.9403 1.93756 -2.26413 0
M  V30 54 H 3.4773 0.947454 -1.12524 0
M  V30 55 H 5.4353 4.05639 -0.975337 0
M  V30 56 H 4.0653 3.222 -0.196674 0
M  V30 57 H 3.1173 2.79636 -2.57891 0
M  V30 58 H 4.4293 3.81193 -3.21704 0
M  V30 59 H 3.5833 5.76288 -1.89675 0
M  V30 60 H 2.3223 4.73841 -1.15437 0
M  V30 61 H 1.3273 4.30615 -3.41834 0
M  V30 62 H 2.5523 5.36498 -4.16349 0
M  V30 63 H 0.4983 6.21875 -2.08823 0
M  V30 64 H 0.4153 6.54198 -3.78894 0
M  V30 65 H 1.6833 7.2591 -2.84033 0
M  V30 66 N 5.9124 1.20967 1.01018 0
M  V30 67 C 7.3284 0.965905 1.27053 0
M  V30 68 C 7.5284 -0.350785 1.98423 0
M  V30 69 O 6.5844 -1.07773 2.28344 0
M  V30 70 C 7.8974 2.15294 2.09926 0
M  V30 71 C 9.4454 2.19463 2.23171 0
M  V30 72 C 9.9204 3.3767 3.09424 0
M  V30 73 N 11.4114 3.37724 3.17012 0
M  V30 74 C 12.1464 4.25837 3.83993 0
M  V30 75 N 11.6424 5.24138 4.53047 0
M  V30 76 N 13.4354 4.1366 3.80581 0
M  V30 77 H 5.5864 2.0565 0.531194 0
M  V30 78 H 7.8494 0.90024 0.297106 0
M  V30 79 H 7.5554 3.10684 1.64828 0
M  V30 80 H 7.4294 2.13923 3.10672 0
M  V30 81 H 9.8164 1.24632 2.6749 0
M  V30 82 H 9.8974 2.2488 1.21912 0
M  V30 83 H 9.5414 4.32791 2.65808 0
M  V30 84 H 9.4714 3.29491 4.10784 0
M  V30 85 H 11.9624 2.6658 2.6785 0
M  V30 86 H 12.2754 5.87684 5.01844 0
M  V30 87 H 10.6204 5.28068 4.5185 0
M  V30 88 H 13.8114 3.36127 3.25785 0
M  V30 89 H 13.9844 4.82538 4.32505 0
M  V30 90 N 7.3905 -1.2043 1.01659 0
M  V30 91 C 8.3235 -2.21924 0.531521 0
M  V30 92 C 9.3015 -1.57054 -0.421032 0
M  V30 93 O 10.4855 -1.85389 -0.341035 0
M  V30 94 C 7.6125 -3.37942 -0.226496 0
M  V30 95 C 6.6585 -4.21115 0.67561 0
M  V30 96 S 7.4915 -4.90674 2.14475 0
M  V30 97 C 8.6475 -6.10113 1.3969 0
M  V30 98 H 8.8805 -2.62725 1.3915 0
M  V30 99 H 6.4135 -1.30481 0.825479 0
M  V30 100 H 8.3715 -4.05196 -0.657738 0
M  V30 101 H 7.0325 -2.956 -1.06205 0
M  V30 102 H 6.2255 -5.03918 0.091108 0
M  V30 103 H 5.8275 -3.59115 1.04463 0
M  V30 104 H 8.1195 -6.7411 0.676897 0
M  V30 105 H 9.0625 -6.73022 2.20107 0
M  V30 106 H 9.4705 -5.57283 0.899786 0
M  V30 107 N 8.8686 -0.792821 -1.36206 0
M  V30 108 C 9.7986 -0.207853 -2.32573 0
M  V30 109 C 10.7796 0.659055 -1.56813 0
M  V30 110 O 11.9646 0.592176 -1.84951 0
M  V30 111 C 9.0946 0.655449 -3.41059 0
M  V30 112 C 8.0486 -0.111842 -4.27854 0
M  V30 113 C 7.3746 0.872274 -5.27537 0
M  V30 114 C 8.6746 -1.30299 -5.05786 0
M  V30 115 H 10.3686 -1.01294 -2.81744 0
M  V30 116 H 7.9146 -0.48854 -1.3546 0
M  V30 117 H 9.8676 1.07464 -4.07467 0
M  V30 118 H 8.5916 1.49328 -2.90463 0
M  V30 119 H 7.2506 -0.512053 -3.63006 0
M  V30 120 H 6.8986 1.70523 -4.73214 0
M  V30 121 H 6.5986 0.363291 -5.86476 0
M  V30 122 H 8.1226 1.28996 -5.96818 0
M  V30 123 H 9.5366 -0.959379 -5.65216 0
M  V30 124 H 7.9336 -1.7455 -5.74154 0
M  V30 125 H 9.0036 -2.09663 -4.37229 0
M  V30 126 N 10.3467 1.47872 -0.545128 0
M  V30 127 C 11.2767 2.32661 0.197793 0
M  V30 128 C 12.2577 1.43041 0.920504 0
M  V30 129 O 13.4427 1.71912 0.90333 0
M  V30 130 C 10.5727 3.24569 1.23582 0
M  V30 131 C 9.5267 4.23333 0.630323 0
M  V30 132 C 8.8527 5.0448 1.77211 0
M  V30 133 C 10.1527 5.20704 -0.407974 0
M  V30 134 H 11.8467 2.95024 -0.510045 0
M  V30 135 H 9.3927 1.4187 -0.246731 0
M  V30 136 H 11.3457 3.8272 1.76362 0
M  V30 137 H 10.0697 2.60236 1.97344 0
M  V30 138 H 8.7287 3.6639 0.123922 0
M  V30 139 H 8.3767 4.36561 2.49847 0
M  V30 140 H 8.0767 5.71339 1.37281 0
M  V30 141 H 9.6007 5.65487 2.3034 0
M  V30 142 H 11.0147 5.7329 0.033305 0
M  V30 143 H 9.4117 5.95699 -0.725486 0
M  V30 144 H 10.4817 4.66917 -1.30828 0
M  V30 145 N 11.8248 0.280983 1.55075 0
M  V30 146 C 12.7548 -0.597469 2.25727 0
M  V30 147 C 13.7358 -1.15417 1.24952 0
M  V30 148 O 14.9208 -1.18722 1.53684 0
M  V30 149 C 12.0508 -1.7789 2.98283 0
M  V30 150 C 11.0048 -1.35347 4.06036 0
M  V30 151 C 10.3308 -2.61846 4.66198 0
M  V30 152 C 11.6308 -0.499354 5.19907 0
M  V30 153 H 13.3248 -0.00824265 2.99399 0
M  V30 154 H 10.8708 -0.0025244 1.44 0
M  V30 155 H 12.8238 -2.39937 3.46422 0
M  V30 156 H 11.5478 -2.39405 2.22155 0
M  V30 157 H 10.2068 -0.756156 3.58717 0
M  V30 158 H 9.8548 -3.21632 3.86732 0
M  V30 159 H 9.5548 -2.3409 5.38958 0
M  V30 160 H 11.0788 -3.24732 5.1709 0
M  V30 161 H 12.4928 -1.02498 5.64063 0
M  V30 162 H 10.8898 -0.316424 5.99265 0
M  V30 163 H 11.9598 0.480459 4.82514 0
M  V30 164 N 13.3029 -1.57598 0.00835791 0
M  V30 165 C 14.5489 -1.91211 -0.675732 0
M  V30 166 C 14.8819 -0.883139 -1.72958 0
M  V30 167 O 14.1569 0.097016 -1.94258 0
M  V30 168 C 14.4399 -3.35379 -1.31123 0
M  V30 169 C 14.2929 -4.48999 -0.268356 0
M  V30 170 C 15.6119 -3.7912 -2.23508 0
M  V30 171 H 12.7309 -0.695374 -0.244179 0
M  V30 172 H 15.3729 -1.89901 0.0613655 0
M  V30 173 H 13.5229 -3.36626 -1.93946 0
M  V30 174 H 15.1949 -4.59887 0.360844 0
M  V30 175 H 13.4379 -4.31873 0.408482 0
M  V30 176 H 14.1089 -5.46851 -0.752218 0
M  V30 177 H 16.5849 -3.79477 -1.70693 0
M  V30 178 H 15.4609 -4.80729 -2.64936 0
M  V30 179 H 15.7219 -3.13455 -3.11766 0
M  V30 180 N 14.781 0.264519 -1.55364 0
M  V30 181 C 15.711 1.33121 -1.91836 0
M  V30 182 C 16.692 1.51101 -0.781192 0
M  V30 183 O 17.877 1.64003 -1.04003 0
M  V30 184 C 15.007 2.68921 -2.19769 0
M  V30 185 C 13.961 2.65661 -3.35571 0
M  V30 186 C 13.287 4.05093 -3.49004 0
M  V30 187 C 14.587 2.24187 -4.71739 0
M  V30 188 H 16.281 1.02844 -2.81182 0
M  V30 189 H 13.827 0.493286 -1.35287 0
M  V30 190 H 15.78 3.43663 -2.43872 0
M  V30 191 H 14.504 3.00799 -1.27231 0
M  V30 192 H 13.163 1.93377 -3.1145 0
M  V30 193 H 12.811 4.34206 -2.53917 0
M  V30 194 H 12.511 4.03804 -4.26868 0
M  V30 195 H 14.035 4.81561 -3.75408 0
M  V30 196 H 15.449 2.88654 -4.9533 0
M  V30 197 H 13.846 2.34044 -5.52579 0
M  V30 198 H 14.916 1.19327 -4.69988 0
M  V30 199 N 16.2591 1.48442 0.529413 0
M  V30 200 C 17.5061 1.56488 1.28521 0
M  V30 201 C 17.8341 0.239042 1.93025 0
M  V30 202 O 17.0891 -0.770713 1.79885 0
M  V30 203 C 17.3881 2.6523 2.39558 0
M  V30 204 C 17.0541 4.07648 1.92702 0
M  V30 205 C 15.7161 4.46411 1.79641 0
M  V30 206 C 18.0681 4.96896 1.573 0
M  V30 207 C 15.3961 5.72226 1.29514 0
M  V30 208 C 17.7481 6.23202 1.08636 0
M  V30 209 C 16.4121 6.60821 0.941919 0
M  V30 210 H 15.6821 0.572631 0.470292 0
M  V30 211 H 18.3291 1.82161 0.59072 0
M  V30 212 H 16.6341 2.33419 3.14679 0
M  V30 213 H 18.3311 2.68671 2.97686 0
M  V30 214 H 14.9211 3.77036 2.03819 0
M  V30 215 H 19.1051 4.67626 1.66251 0
M  V30 216 H 14.3611 6.00097 1.17019 0
M  V30 217 H 18.5351 6.91753 0.803136 0
M  V30 218 H 16.1621 7.58198 0.5513 0
M  V30 219 N 17.7372 -0.778329 1.37039 0
M  V30 220 C 18.7002 -1.87301 1.32102 0
M  V30 221 C 19.7002 -1.59198 0.226405 0
M  V30 222 O 20.8902 -1.67403 0.481861 0
M  V30 223 C 18.0222 -3.24309 1.05055 0
M  V30 224 H 19.2152 -1.93093 2.29467 0
M  V30 225 H 16.7682 -0.977358 1.21973 0
M  V30 226 H 17.5032 -3.24196 0.0819373 0
M  V30 227 H 17.2882 -3.46098 1.84279 0
M  V30 228 H 18.7782 -4.04382 1.04234 0
M  V30 229 N 19.2153 -1.21501 -1.00376 0
M  V30 230 C 20.4623 -1.03299 -1.74171 0
M  V30 231 C 20.7903 0.433326 -1.89612 0
M  V30 232 O 20.0453 1.33779 -1.42834 0
M  V30 233 C 20.3443 -1.67673 -3.15627 0
M  V30 234 C 20.0103 -3.17533 -3.2013 0
M  V30 235 C 18.6723 -3.58427 -3.21067 0
M  V30 236 C 21.0243 -4.13504 -3.17275 0
M  V30 237 C 18.3523 -4.93794 -3.16835 0
M  V30 238 C 20.7043 -5.48834 -3.14585 0
M  V30 239 C 19.3683 -5.89123 -3.13831 0
M  V30 240 H 18.6383 -0.377999 -0.637336 0
M  V30 241 H 21.2853 -1.51111 -1.17634 0
M  V30 242 H 19.5903 -1.12158 -3.75404 0
M  V30 243 H 21.2873 -1.51091 -3.71446 0
M  V30 244 H 17.8773 -2.84965 -3.20145 0
M  V30 245 H 22.0613 -3.82936 -3.15711 0
M  V30 246 H 17.3173 -5.24255 -3.1459 0
M  V30 247 H 21.4913 -6.22934 -3.1133 0
M  V30 248 H 19.1183 -6.93984 -3.10307 0
M  V30 249 N 20.6934 1.19889 -1.02296 0
M  V30 250 C 21.9184 1.9393 -0.735237 0
M  V30 251 C 22.3434 1.74639 0.698782 0
M  V30 252 O 21.7014 1.04481 1.48167 0
M  V30 253 C 21.7494 3.43916 -1.08417 0
M  V30 254 O 20.8534 4.11917 -0.199446 0
M  V30 255 H 20.1944 0.605645 -0.272196 0
M  V30 256 H 22.7244 1.52137 -1.36804 0
M  V30 257 H 22.7344 3.9456 -1.03856 0
M  V30 258 H 21.4094 3.5728 -2.12894 0
M  V30 259 H 19.9864 3.71666 -0.303136 0
M  V30 260 N 22.1715 0.800033 1.35784 0
M  V30 261 C 23.1015 0.220184 2.3246 0
M  V30 262 C 24.0825 -0.65073 1.57161 0
M  V30 263 O 25.2675 -0.582359 1.85263 0
M  V30 264 C 22.3975 -0.637353 3.41402 0
M  V30 265 C 21.3515 0.134531 4.27789 0
M  V30 266 C 20.6775 -0.844285 5.27992 0
M  V30 267 C 21.9775 1.32979 5.05088 0
M  V30 268 H 23.6715 1.02787 2.81203 0
M  V30 269 H 21.2175 0.495717 1.35199 0
M  V30 270 H 23.1705 -1.05302 4.08031 0
M  V30 271 H 21.8945 -1.47785 2.91251 0
M  V30 272 H 20.5535 0.531296 3.6273 0
M  V30 273 H 20.2015 -1.68011 4.74111 0
M  V30 274 H 19.9015 -0.332184 5.8666 0
M  V30 275 H 21.4255 -1.2583 5.97494 0
M  V30 276 H 22.8395 0.98934 5.64699 0
M  V30 277 H 21.2365 1.77593 5.7322 0
M  V30 278 H 22.3065 2.11978 4.36111 0
M  V30 279 N 23.6496 -1.47581 0.552962 0
M  V30 280 C 24.5826 -2.26883 -0.244857 0
M  V30 281 C 25.5606 -1.33784 -0.924147 0
M  V30 282 O 26.7446 -1.6316 -0.943981 0
M  V30 283 C 23.8716 -3.10695 -1.34856 0
M  V30 284 C 22.9176 -4.19339 -0.778268 0
M  V30 285 S 23.7506 -5.34207 0.37184 0
M  V30 286 C 24.9066 -6.21584 -0.733779 0
M  V30 287 H 25.1396 -2.94202 0.428087 0
M  V30 288 H 22.6726 -1.50628 0.339197 0
M  V30 289 H 24.6306 -3.59555 -1.98066 0
M  V30 290 H 23.2916 -2.42746 -1.99332 0
M  V30 291 H 22.4846 -4.77695 -1.60696 0
M  V30 292 H 22.0866 -3.73338 -0.222422 0
M  V30 293 H 24.3786 -6.57676 -1.62692 0
M  V30 294 H 25.3216 -7.07851 -0.187668 0
M  V30 295 H 25.7296 -5.55125 -1.02454 0
M  V30 296 N 25.1277 -0.289203 -1.54924 0
M  V30 297 C 26.0577 0.58549 -2.2604 0
M  V30 298 C 27.0387 1.14753 -1.25562 0
M  V30 299 O 28.2237 1.17906 -1.54311 0
M  V30 300 C 25.3537 1.76305 -2.99222 0
M  V30 301 C 24.3077 1.33191 -4.06748 0
M  V30 302 C 23.6337 2.5937 -4.6758 0
M  V30 303 C 24.9337 0.471775 -5.20165 0
M  V30 304 H 26.6277 -0.00763532 -2.99399 0
M  V30 305 H 24.1737 -0.00511229 -1.43999 0
M  V30 306 H 26.1267 2.38097 -3.47689 0
M  V30 307 H 24.8507 2.38223 -2.23422 0
M  V30 308 H 23.5097 0.737121 -3.59113 0
M  V30 309 H 23.1577 3.19576 -3.88433 0
M  V30 310 H 22.8577 2.31228 -5.40192 0
M  V30 311 H 24.3817 3.21985 -5.18804 0
M  V30 312 H 25.7957 0.995056 -5.64599 0
M  V30 313 H 24.1927 0.284639 -5.99425 0
M  V30 314 H 25.2627 -0.506041 -4.82252 0
M  V30 315 N 26.6058 1.57591 -0.0167156 0
M  V30 316 C 27.8518 1.91567 0.665582 0
M  V30 317 C 28.1848 0.892298 1.72487 0
M  V30 318 O 27.4598 -0.0867127 1.94307 0
M  V30 319 C 27.7428 3.36069 1.29342 0
M  V30 320 C 27.5958 4.49135 0.244541 0
M  V30 321 C 28.9148 3.803 2.21495 0
M  V30 322 H 26.0338 0.69666 0.240488 0
M  V30 323 H 28.6758 1.89866 -0.0714356 0
M  V30 324 H 26.8258 3.3765 1.92158 0
M  V30 325 H 28.4978 4.59689 -0.385228 0
M  V30 326 H 26.7408 4.3165 -0.431379 0
M  V30 327 H 27.4118 5.47242 0.723207 0
M  V30 328 H 29.8878 3.80377 1.68678 0
M  V30 329 H 28.7638 4.82127 2.62382 0
M  V30 330 H 29.0248 3.15104 3.101 0
M  V30 331 N 28.0839 -0.256276 1.55502 0
M  V30 332 C 28.9939 -1.33882 1.92647 0
M  V30 333 C 30.0099 -1.53159 0.825727 0
M  V30 334 O 31.1859 -1.66963 1.12629 0
M  V30 335 C 28.2509 -2.6751 2.20543 0
M  V30 336 C 27.3119 -2.56836 3.43997 0
M  V30 337 C 26.5449 -3.84092 3.70553 0
M  V30 338 O 26.7679 -4.85545 2.99336 0
M  V30 339 O 25.7019 -3.83288 4.64084 0
M  V30 340 H 29.5279 -1.05374 2.84833 0
M  V30 341 H 27.1129 -0.456237 1.42263 0
M  V30 342 H 28.9949 -3.46492 2.39835 0
M  V30 343 H 27.6699 -2.9577 1.31536 0
M  V30 344 H 26.5769 -1.76172 3.30021 0
M  V30 345 H 27.9099 -2.33523 4.33275 0
M  V30 346 N 29.562 -1.4872 -0.521534 0
M  V30 347 C 30.978 -1.35028 -0.850855 0
M  V30 348 C 31.178 -0.367712 -1.98116 0
M  V30 349 O 30.234 0.208037 -2.51642 0
M  V30 350 C 31.547 -2.75263 -1.21041 0
M  V30 351 C 33.095 -2.83813 -1.31981 0
M  V30 352 C 33.57 -4.24769 -1.71276 0
M  V30 353 N 35.061 -4.27482 -1.78363 0
M  V30 354 C 35.796 -5.33494 -2.1017 0
M  V30 355 N 35.292 -6.49775 -2.40343 0
M  V30 356 N 37.085 -5.20894 -2.11248 0
M  V30 357 H 29.236 -2.11214 0.22413 0
M  V30 358 H 31.499 -0.947252 0.0376439 0
M  V30 359 H 31.205 -3.48765 -0.453415 0
M  V30 360 H 31.079 -3.09327 -2.15863 0
M  V30 361 H 33.466 -2.10561 -2.06756 0
M  V30 362 H 33.547 -2.53358 -0.352596 0
M  V30 363 H 33.191 -4.9854 -0.970588 0
M  V30 364 H 33.121 -4.52673 -2.69062 0
M  V30 365 H 35.612 -3.43611 -1.57288 0
M  V30 366 H 35.925 -7.26402 -2.63743 0
M  V30 367 H 34.27 -6.53035 -2.37844 0
M  V30 368 H 37.461 -4.29065 -1.87139 0
M  V30 369 H 37.634 -6.03612 -2.35704 0
M  V30 370 N 31.0401 0.771051 -1.3745 0
M  V30 371 C 32.2701 1.55789 -1.35696 0
M  V30 372 C 32.6781 1.89107 0.0594523 0
M  V30 373 O 32.0211 1.51984 1.03183 0
M  V30 374 C 32.0831 2.89515 -2.13123 0
M  V30 375 C 31.7471 2.78829 -3.62082 0
M  V30 376 C 32.7441 2.49812 -4.5595 0
M  V30 377 C 30.4291 2.9683 -4.05213 0
M  V30 378 C 32.4231 2.38923 -5.90927 0
M  V30 379 C 30.1101 2.85562 -5.40276 0
M  V30 380 C 31.1081 2.56649 -6.32946 0
M  V30 381 O 30.7961 2.45408 -7.65526 0
M  V30 382 H 30.5281 0.489257 -0.466481 0
M  V30 383 H 33.0821 0.963446 -1.81403 0
M  V30 384 H 31.3121 3.51081 -1.62107 0
M  V30 385 H 33.0011 3.50915 -2.03994 0
M  V30 386 H 33.7671 2.3559 -4.23937 0
M  V30 387 H 29.6461 3.18335 -3.33442 0
M  V30 388 H 33.1901 2.16277 -6.63227 0
M  V30 389 H 29.0871 2.99351 -5.71891 0
M  V30 390 H 29.8551 2.60753 -7.75855 0
M  V30 391 N 32.5182 1.22032 0.997298 0
M  V30 392 C 33.7652 1.04222 1.73621 0
M  V30 393 C 34.0932 -0.423264 1.89839 0
M  V30 394 O 33.3482 -1.3302 1.43542 0
M  V30 395 C 33.6472 1.69345 3.14733 0
M  V30 396 C 33.3132 3.19226 3.18442 0
M  V30 397 C 31.9752 3.60124 3.19161 0
M  V30 398 C 34.3272 4.15181 3.15078 0
M  V30 399 C 31.6552 4.95467 3.14212 0
M  V30 400 C 34.0072 5.50495 3.1167 0
M  V30 401 C 32.6712 5.90779 3.10703 0
M  V30 402 H 31.9412 0.381374 0.635323 0
M  V30 403 H 34.5882 1.51732 1.16831 0
M  V30 404 H 32.8932 1.14147 3.74803 0
M  V30 405 H 34.5902 1.53059 3.7064 0
M  V30 406 H 31.1802 2.86659 3.18629 0
M  V30 407 H 35.3642 3.84605 3.13676 0
M  V30 408 H 30.6202 5.25916 3.11805 0
M  V30 409 H 34.7942 6.24576 3.08022 0
M  V30 410 H 32.4212 6.9562 3.06622 0
M  V30 411 N 33.9963 -1.19345 1.0293 0
M  V30 412 C 35.4123 -1.41069 0.746446 0
M  V30 413 C 35.6123 -1.90078 -0.668776 0
M  V30 414 O 34.6683 -2.0778 -1.4347 0
M  V30 415 C 35.9813 -2.42141 1.78292 0
M  V30 416 C 37.5293 -2.55887 1.80252 0
M  V30 417 C 38.0043 -3.60214 2.8286 0
M  V30 418 N 39.4953 -3.67711 2.81679 0
M  V30 419 C 40.2303 -4.48128 3.57727 0
M  V30 420 N 39.7263 -5.32248 4.43491 0
M  V30 421 N 41.5193 -4.42782 3.46267 0
M  V30 422 H 33.6703 -0.858536 1.94275 0
M  V30 423 H 35.9333 -0.439541 0.839945 0
M  V30 424 H 35.6393 -2.13155 2.79746 0
M  V30 425 H 35.5133 -3.41323 1.60557 0
M  V30 426 H 37.9003 -2.84196 0.794757 0
M  V30 427 H 37.9813 -1.56858 2.02062 0
M  V30 428 H 37.6253 -3.32647 3.83807 0
M  V30 429 H 37.5553 -4.58895 2.58307 0
M  V30 430 H 40.0463 -3.07634 2.19476 0
M  V30 431 H 40.3593 -5.90729 4.98256 0
M  V30 432 H 38.7043 -5.31707 4.47564 0
M  V30 433 H 41.8953 -3.76107 2.78677 0
M  V30 434 H 42.0683 -5.05215 4.05785 0
M  V30 435 N 35.4744 -0.807222 -1.35358 0
M  V30 436 C 36.4224 -0.20614 -2.31685 0
M  V30 437 C 37.4164 0.644445 -1.56663 0
M  V30 438 O 38.6224 0.537538 -1.71786 0
M  V30 439 H 34.9974 -0.0479006 -0.750473 0
M  V30 440 H 36.9684 -1.03369 -2.79924 0
M  V30 441 C 35.7174 0.630212 -3.41941 0
M  V30 442 H 35.0404 -0.0149558 -3.99797 0
M  V30 443 H 36.4804 1.01716 -4.11619 0
M  V30 444 C 34.9394 1.79601 -2.85035 0
M  V30 445 O 35.4694 2.89351 -2.78637 0
M  V30 446 N 33.6754 1.60774 -2.42074 0
M  V30 447 H 33.2224 0.715009 -2.47478 0
M  V30 448 H 33.1804 2.38933 -2.04349 0
M  V30 449 N 36.9525 1.47285 -0.560781 0
M  V30 450 C 37.9025 2.27073 0.205384 0
M  V30 451 C 38.8865 1.34569 0.882044 0
M  V30 452 O 40.0785 1.58899 0.77976 0
M  V30 453 C 37.2075 3.20414 1.23247 0
M  V30 454 C 36.2935 4.20399 0.559041 0
M  V30 455 N 36.6845 5.04423 -0.372927 0
M  V30 456 C 34.9825 4.38536 0.812522 0
M  V30 457 C 35.6835 5.76655 -0.764446 0
M  V30 458 N 34.6595 5.43471 -0.11848 0
M  V30 459 H 38.4615 2.89422 -0.511117 0
M  V30 460 H 35.9755 1.57868 -0.380975 0
M  V30 461 H 37.9725 3.76262 1.79534 0
M  V30 462 H 36.6325 2.59623 1.95002 0
M  V30 463 H 37.6435 5.1248 -0.747287 0
M  V30 464 H 34.3205 3.88913 1.51832 0
M  V30 465 H 35.7105 6.54238 -1.53045 0
M  V30 466 N 38.4306 0.297415 1.54768 0
M  V30 467 C 39.3626 -0.613881 2.20826 0
M  V30 468 C 40.3756 -1.10032 1.19987 0
M  V30 469 O 41.5646 -1.01839 1.46598 0
M  V30 470 C 38.6646 -1.852 2.83821 0
M  V30 471 C 37.8376 -1.50865 4.10559 0
M  V30 472 C 36.8966 -2.60154 4.57391 0
M  V30 473 O 35.9226 -2.25398 5.2267 0
M  V30 474 N 37.1246 -3.90629 4.29406 0
M  V30 475 H 39.8896 -0.048389 2.99661 0
M  V30 476 H 37.4506 0.11946 1.61459 0
M  V30 477 H 39.4426 -2.57652 3.12086 0
M  V30 478 H 38.0126 -2.32597 2.08847 0
M  V30 479 H 37.2326 -0.616925 3.89343 0
M  V30 480 H 38.5206 -1.25458 4.9309 0
M  V30 481 H 37.9186 -4.21677 3.77101 0
M  V30 482 H 36.4756 -4.59391 4.62388 0
M  V30 483 N 39.9087 -1.5758 0.0250728 0
M  V30 484 C 41.1547 -1.91917 -0.655413 0
M  V30 485 C 41.4877 -0.901433 -1.72011 0
M  V30 486 O 40.7627 0.0764069 -1.9435 0
M  V30 487 C 41.0457 -3.36751 -1.27558 0
M  V30 488 C 40.8987 -4.49258 -0.220719 0
M  V30 489 C 42.2177 -3.81469 -2.19475 0
M  V30 490 H 39.3367 -0.697925 -0.23679 0
M  V30 491 H 41.9787 -1.89825 0.0815036 0
M  V30 492 H 40.1287 -3.38664 -1.90365 0
M  V30 493 H 41.8007 -4.59478 0.409601 0
M  V30 494 H 40.0437 -4.31415 0.454264 0
M  V30 495 H 40.7147 -5.47618 -0.694175 0
M  V30 496 H 43.1907 -3.81266 -1.66659 0
M  V30 497 H 42.0667 -4.83512 -2.59822 0
M  V30 498 H 42.3277 -3.16744 -3.08424 0
M  V30 499 N 41.3868 0.248026 -1.55636 0
M  V30 500 C 42.2968 1.32859 -1.93354 0
M  V30 501 C 43.3128 1.52719 -0.833838 0
M  V30 502 O 44.4888 1.66363 -1.13513 0
M  V30 503 C 41.5538 2.66337 -2.21958 0
M  V30 504 C 40.6148 2.55008 -3.45354 0
M  V30 505 C 39.8478 3.82121 -3.72584 0
M  V30 506 O 40.0708 4.83951 -3.01907 0
M  V30 507 O 39.0048 3.80822 -4.6611 0
M  V30 508 H 42.8308 1.03862 -2.85388 0
M  V30 509 H 40.4158 0.448686 -1.42503 0
M  V30 510 H 42.2978 3.45216 -2.4167 0
M  V30 511 H 40.9728 2.95068 -1.33103 0
M  V30 512 H 39.8798 1.7442 -3.30951 0
M  V30 513 H 41.2128 2.31222 -4.34508 0
M  V30 514 N 42.8649 1.48995 0.513639 0
M  V30 515 C 43.7749 1.67443 1.64317 0
M  V30 516 C 44.7909 0.556947 1.64846 0
M  V30 517 O 45.9669 0.830082 1.83498 0
M  V30 518 C 43.0319 1.72515 3.00732 0
M  V30 519 C 42.0929 2.96009 3.1093 0
M  V30 520 C 41.3259 3.00829 4.40837 0
M  V30 521 O 41.5489 2.13594 5.28898 0
M  V30 522 O 40.4829 3.93168 4.55744 0
M  V30 523 H 44.3089 2.63106 1.51687 0
M  V30 524 H 41.8939 1.32588 0.688543 0
M  V30 525 H 43.7759 1.78277 3.81831 0
M  V30 526 H 42.4509 0.800278 3.13651 0
M  V30 527 H 41.3579 2.9577 2.29065 0
M  V30 528 H 42.6909 3.87934 3.02933 0
M  V30 529 N 44.343 -0.763751 1.37857 0
M  V30 530 C 45.273 -1.89103 1.36975 0
M  V30 531 C 46.254 -1.68439 0.237152 0
M  V30 532 O 47.439 -1.8918 0.438713 0
M  V30 533 C 44.569 -3.26496 1.18395 0
M  V30 534 C 43.523 -3.61741 2.28751 0
M  V30 535 C 42.849 -4.97762 1.95286 0
M  V30 536 C 44.149 -3.67665 3.70972 0
M  V30 537 H 45.843 -1.90099 2.31307 0
M  V30 538 H 43.389 -0.91319 1.11341 0
M  V30 539 H 45.342 -4.05003 1.16406 0
M  V30 540 H 44.066 -3.25955 0.205215 0
M  V30 541 H 42.725 -2.85547 2.29909 0
M  V30 542 H 42.373 -4.93769 0.959221 0
M  V30 543 H 42.073 -5.22313 2.69189 0
M  V30 544 H 43.597 -5.7866 1.94898 0
M  V30 545 H 45.011 -4.36307 3.719 0
M  V30 546 H 43.408 -4.03718 4.43995 0
M  V30 547 H 44.478 -2.68134 4.0402 0
M  V30 548 N 45.8211 -1.22559 -0.990812 0
M  V30 549 C 47.2371 -0.985996 -1.255 0
M  V30 550 C 47.4371 0.319173 -1.98956 0
M  V30 551 O 46.4931 1.04127 -2.3003 0
M  V30 552 C 47.8061 -2.18607 -2.06474 0
M  V30 553 C 49.3541 -2.22985 -2.19651 0
M  V30 554 C 49.8291 -3.4255 -3.04012 0
M  V30 555 N 51.3201 -3.42725 -3.11599 0
M  V30 556 C 52.0551 -4.31892 -3.7717 0
M  V30 557 N 51.5511 -5.31279 -4.44651 0
M  V30 558 N 53.3441 -4.19662 -3.73952 0
M  V30 559 H 45.4951 -2.06469 -0.49841 0
M  V30 560 H 47.7581 -0.904853 -0.282747 0
M  V30 561 H 47.4641 -3.13267 -1.59865 0
M  V30 562 H 47.3381 -2.18838 -3.07229 0
M  V30 563 H 49.7251 -1.28871 -2.65474 0
M  V30 564 H 49.8061 -2.26791 -1.18319 0
M  V30 565 H 49.4501 -4.36965 -2.58889 0
M  V30 566 H 49.3801 -3.35984 -4.0549 0
M  V30 567 H 51.8711 -2.70807 -2.63575 0
M  V30 568 H 52.1841 -5.95593 -4.92431 0
M  V30 569 H 50.5291 -5.3519 -4.43392 0
M  V30 570 H 53.7201 -3.41268 -3.20396 0
M  V30 571 H 53.8931 -4.89358 -4.24774 0
M  V30 572 N 47.2992 1.18797 -1.03562 0
M  V30 573 C 48.2292 2.24472 -0.643019 0
M  V30 574 C 49.2102 1.66433 0.351283 0
M  V30 575 O 50.3952 1.92803 0.232505 0
M  V30 576 C 47.5252 3.473 4.24935e-05 0
M  V30 577 C 46.4792 4.18055 -0.917257 0
M  V30 578 C 45.8052 5.34519 -0.138941 0
M  V30 579 C 47.1052 4.72109 -2.23407 0
M  V30 580 H 48.7992 2.57566 -1.52643 0
M  V30 581 H 46.3452 1.23806 -0.735394 0
M  V30 582 H 48.2982 4.20426 0.286383 0
M  V30 583 H 47.0222 3.13424 0.918299 0
M  V30 584 H 45.6812 3.46821 -1.1879 0
M  V30 585 H 45.3292 4.96891 0.781562 0
M  V30 586 H 45.0292 5.82794 -0.750005 0
M  V30 587 H 46.5532 6.10438 0.1405 0
M  V30 588 H 47.9672 5.36955 -2.00879 0
M  V30 589 H 46.3642 5.30897 -2.79765 0
M  V30 590 H 47.4342 3.89807 -2.88407 0
M  V30 591 N 48.7773 0.814389 1.34928 0
M  V30 592 C 50.0023 0.410097 2.03305 0
M  V30 593 C 50.4273 -0.973464 1.60951 0
M  V30 594 O 49.7853 -1.63185 0.789964 0
M  V30 595 C 49.8333 0.51049 3.56968 0
M  V30 596 O 48.9373 -0.473035 4.09678 0
M  V30 597 H 48.2783 0.170088 0.641846 0
M  V30 598 H 50.8083 1.10244 1.72358 0
M  V30 599 H 50.8183 0.383135 4.06197 0
M  V30 600 H 49.4933 1.51963 3.87144 0
M  V30 601 H 48.0703 -0.305272 3.71648 0
M  V30 602 N 50.2554 -1.46986 0.568584 0
M  V30 603 C 51.5324 -1.95592 -0.0174074 0
M  V30 604 C 51.9124 -1.51124 -1.47393 0
M  V30 605 O 51.2604 -0.755329 -2.15655 0
M  V30 606 C 51.4704 -3.48719 0.139913 0
M  V30 607 C 52.8184 -4.246 0.000426376 0
M  V30 608 O 53.8424 -3.56135 0.0680316 0
M  V30 609 O 52.7014 -5.46302 -0.146988 0
M  V30 610 H 49.7954 -0.82498 -0.0577599 0
M  V30 611 H 52.3414 -1.57335 0.635909 0
M  V30 612 H 51.1134 -3.73927 1.15301 0
M  V30 613 H 50.7364 -3.93771 -0.550491 0
M  V30 614 N 51.7335 -0.305618 -1.54608 0
M  V30 615 C 52.9795 0.295595 -2.01241 0
M  V30 616 C 53.3345 1.51171 -1.19018 0
M  V30 617 O 52.6275 1.89832 -0.259684 0
M  V30 618 C 52.8215 0.698983 -3.50498 0
M  V30 619 C 52.6505 -0.476491 -4.47168 0
M  V30 620 C 51.4205 -0.969963 -4.95903 0
M  V30 621 C 53.6185 -1.32294 -4.96994 0
M  V30 622 N 51.6005 -2.11172 -5.76437 0
M  V30 623 C 52.9715 -2.31212 -5.75275 0
M  V30 624 C 55.0265 -1.35278 -4.7917 0
M  V30 625 C 53.7295 -3.32896 -6.37631 0
M  V30 626 C 55.7555 -2.35823 -5.42348 0
M  V30 627 C 55.1175 -3.33469 -6.20466 0
M  V30 628 H 51.2165 0.0724992 -0.778632 0
M  V30 629 H 53.8005 -0.436583 -1.89742 0
M  V30 630 H 51.9715 1.40032 -3.62278 0
M  V30 631 H 53.7035 1.28013 -3.8392 0
M  V30 632 H 50.4585 -0.544178 -4.70463 0
M  V30 633 H 50.8825 -2.68714 -6.21387 0
M  V30 634 H 55.5245 -0.61157 -4.18354 0
M  V30 635 H 53.2425 -4.07933 -6.97579 0
M  V30 636 H 56.8285 -2.38911 -5.30484 0
M  V30 637 H 55.7085 -4.09996 -6.68485 0
M  V30 638 N 53.2116 1.57565 -0.0334293 0
M  V30 639 C 54.4586 1.91978 0.644272 0
M  V30 640 C 54.7866 0.910231 1.71887 0
M  V30 641 O 54.0416 -0.0801961 1.95536 0
M  V30 642 C 54.3406 3.33112 1.29504 0
M  V30 643 C 54.0066 4.49537 0.350388 0
M  V30 644 C 52.6686 4.81115 0.0903974 0
M  V30 645 C 55.0206 5.20347 -0.298032 0
M  V30 646 C 52.3486 5.8086 -0.825746 0
M  V30 647 C 54.7006 6.2107 -1.20226 0
M  V30 648 C 53.3646 6.51088 -1.4711 0
M  V30 649 H 52.6346 0.702496 0.235756 0
M  V30 650 H 55.2816 1.91259 -0.0961176 0
M  V30 651 H 53.5866 3.30113 2.11028 0
M  V30 652 H 55.2836 3.57011 1.82603 0
M  V30 653 H 51.8736 4.24883 0.563205 0
M  V30 654 H 56.0576 4.96178 -0.110234 0
M  V30 655 H 51.3136 6.02461 -1.04169 0
M  V30 656 H 55.4876 6.75057 -1.71086 0
M  V30 657 H 53.1146 7.28193 -2.18264 0
M  V30 658 N 54.6897 -0.239769 1.55765 0
M  V30 659 C 55.6397 -1.30002 1.87306 0
M  V30 660 C 56.6237 -1.43156 0.73452 0
M  V30 661 O 57.8157 -1.46277 0.99659 0
M  V30 662 C 54.9447 -2.65409 2.17745 0
M  V30 663 C 54.0307 -2.56231 3.37945 0
M  V30 664 N 54.4217 -2.16689 4.57033 0
M  V30 665 C 52.7197 -2.87229 3.41197 0
M  V30 666 C 53.4207 -2.18318 5.39177 0
M  V30 667 N 52.3967 -2.58098 4.78421 0
M  V30 668 H 56.1987 -0.984912 2.76906 0
M  V30 669 H 53.7127 -0.448381 1.56087 0
M  V30 670 H 55.7097 -3.41934 2.38509 0
M  V30 671 H 54.3697 -2.97781 1.29448 0
M  V30 672 H 55.3807 -1.88116 4.82528 0
M  V30 673 H 52.0577 -3.24094 2.63191 0
M  V30 674 H 53.4477 -1.90025 6.44469 0
M  V30 675 N 56.1678 -1.49265 -0.50573 0
M  V30 676 C 57.5788 -1.51769 -1.08734 0
M  V30 677 C 57.9298 -0.301192 -1.93874 0
M  V30 678 O 57.0548 0.589456 -2.08217 0
M  V30 679 C 57.6498 -2.75017 -1.97867 0
M  V30 680 C 56.2088 -2.80314 -2.51199 0
M  V30 681 C 55.3558 -2.4562 -1.28709 0
M  V30 682 H 58.3068 -1.56031 -0.289855 0
M  V30 683 H 58.3278 -2.5491 -2.82491 0
M  V30 684 H 57.8398 -3.63539 -1.35873 0
M  V30 685 H 55.9408 -1.96061 -3.16845 0
M  V30 686 H 56.0538 -3.82366 -2.88675 0
M  V30 687 H 54.4178 -1.97297 -1.61078 0
M  V30 688 H 55.2008 -3.36411 -0.6843 0
M  V30 689 N 57.6459 0.756429 -1.3826 0
M  V30 690 C 59.0619 1.0591 -1.19395 0
M  V30 691 C 59.2619 2.01459 -0.0406567 0
M  V30 692 O 58.3179 2.44909 0.614467 0
M  V30 693 C 59.6309 1.64191 -2.51916 0
M  V30 694 C 61.1789 1.76376 -2.58574 0
M  V30 695 C 61.6539 2.38069 -3.91264 0
M  V30 696 N 63.1449 2.45503 -3.92788 0
M  V30 697 C 63.8799 2.94126 -4.92217 0
M  V30 698 N 63.3759 3.42805 -6.02043 0
M  V30 699 N 65.1689 2.9314 -4.7961 0
M  V30 700 H 57.3199 0.122313 -2.12048 0
M  V30 701 H 59.5829 0.116892 -0.940766 0
M  V30 702 H 59.2889 1.01451 -3.3675 0
M  V30 703 H 59.1629 2.6329 -2.70108 0
M  V30 704 H 61.5499 2.38244 -1.74137 0
M  V30 705 H 61.6309 0.759894 -2.44252 0
M  V30 706 H 61.2749 1.76835 -4.76121 0
M  V30 707 H 61.2049 3.39091 -4.02895 0
M  V30 708 H 63.6959 2.1107 -3.13461 0
M  V30 709 H 64.0089 3.78354 -6.73846 0
M  V30 710 H 62.3539 3.4087 -6.05667 0
M  V30 711 H 65.5449 2.54419 -3.92923 0
M  V30 712 H 65.7179 3.30721 -5.5725 0
M  V30 713 N 59.124 1.23083 0.984299 0
M  V30 714 C 60.071 1.00854 2.07598 0
M  V30 715 C 61.041 -0.0726709 1.65941 0
M  V30 716 O 62.226 0.0786535 1.90638 0
M  V30 717 C 59.366 0.601645 3.39815 0
M  V30 718 C 58.479 1.75456 3.94765 0
M  V30 719 C 57.614 1.29482 5.15177 0
M  V30 720 C 56.653 2.41873 5.62284 0
M  V30 721 N 55.79 1.96885 6.73929 0
M  V30 722 H 60.63 1.943 2.25946 0
M  V30 723 H 58.167 0.968001 1.10762 0
M  V30 724 H 60.125 0.346854 4.15756 0
M  V30 725 H 58.755 -0.295803 3.21442 0
M  V30 726 H 57.807 2.12346 3.15616 0
M  V30 727 H 59.119 2.59965 4.25699 0
M  V30 728 H 58.273 0.997923 5.98437 0
M  V30 729 H 57.012 0.420046 4.85888 0
M  V30 730 H 56.017 2.72342 4.77608 0
M  V30 731 H 57.242 3.29881 5.93595 0
M  V30 732 H 55.188 1.11782 6.46406 0
M  V30 733 H 55.105 2.74956 7.04227 0
M  V30 734 H 56.373 1.70289 7.60672 0
M  V30 735 N 60.6021 -1.18246 1.0419 0
M  V30 736 C 62.0181 -1.40269 0.761366 0
M  V30 737 C 62.2181 -1.90777 -0.648578 0
M  V30 738 O 61.2741 -2.0929 -1.41258 0
M  V30 739 C 62.5871 -2.40237 1.8085 0
M  V30 740 C 64.1351 -2.53961 1.82955 0
M  V30 741 C 64.6101 -3.57194 2.86664 0
M  V30 742 N 66.1011 -3.64702 2.85563 0
M  V30 743 C 66.8361 -4.44309 3.6246 0
M  V30 744 N 66.3321 -5.27514 4.49111 0
M  V30 745 N 68.1251 -4.39084 3.50944 0
M  V30 746 H 60.2761 -0.837882 1.95175 0
M  V30 747 H 62.5391 -0.430608 0.84456 0
M  V30 748 H 62.2451 -2.10176 2.81991 0
M  V30 749 H 62.1191 -3.39601 1.64168 0
M  V30 750 H 64.5061 -2.83338 0.824855 0
M  V30 751 H 64.5871 -1.54706 2.03715 0
M  V30 752 H 64.2311 -3.28558 3.87314 0
M  V30 753 H 64.1611 -4.5613 2.6316 0
M  V30 754 H 66.6521 -3.05289 2.22727 0
M  V30 755 H 66.9651 -5.85411 5.04493 0
M  V30 756 H 65.3101 -5.2693 4.53178 0
M  V30 757 H 68.5011 -3.7313 2.82651 0
M  V30 758 H 68.6741 -5.00883 4.11121 0
M  V30 759 N 62.0802 -0.821533 -1.34494 0
M  V30 760 C 63.4912 -0.467956 -1.8074 0
M  V30 761 C 63.8422 1.01151 -1.68116 0
M  V30 762 O 62.9672 1.78707 -1.22036 0
M  V30 763 C 63.5622 -0.842627 -3.28154 0
M  V30 764 C 62.1212 -0.541439 -3.72485 0
M  V30 765 C 61.2682 -1.06028 -2.56229 0
M  V30 766 H 64.2192 -1.01183 -1.22261 0
M  V30 767 H 64.2402 -0.145876 -3.8022 0
M  V30 768 H 63.7522 -1.91945 -3.37311 0
M  V30 769 H 61.8532 0.526034 -3.68868 0
M  V30 770 H 61.9662 -1.08453 -4.66663 0
M  V30 771 H 60.3302 -0.481892 -2.501 0
M  V30 772 H 61.1132 -2.14352 -2.68157 0
M  V30 773 N 63.5583 1.46682 -0.576371 0
M  V30 774 C 64.8353 1.95599 0.00703437 0
M  V30 775 C 65.2153 1.51904 1.46589 0
M  V30 776 O 64.5633 0.766755 2.15251 0
M  V30 777 C 64.7733 3.4864 -0.158404 0
M  V30 778 C 66.1213 4.24594 -0.0229439 0
M  V30 779 O 67.1453 3.56094 -0.0869173 0
M  V30 780 O 66.0043 5.46373 0.118015 0
M  V30 781 H 63.0983 0.825275 0.053384 0
M  V30 782 H 65.6443 1.56996 -0.644244 0
M  V30 783 H 64.4163 3.7331 -1.17282 0
M  V30 784 H 64.0393 3.94057 0.5296 0
M  V30 785 N 65.0364 0.313813 1.54444 0
M  V30 786 C 66.2824 -0.292108 2.00685 0
M  V30 787 C 66.6154 -1.52548 1.20177 0
M  V30 788 O 65.8904 -1.92452 0.281531 0
M  V30 789 C 66.1734 -0.635968 3.5444 0
M  V30 790 C 66.0264 0.607437 4.4568 0
M  V30 791 C 67.3454 -1.45747 4.15266 0
M  V30 792 H 64.4644 -0.104697 0.729526 0
M  V30 793 H 67.1064 0.428457 1.85106 0
M  V30 794 H 65.2564 -1.24986 3.67846 0
M  V30 795 H 66.9284 1.24581 4.44159 0
M  V30 796 H 65.1714 1.23822 4.15753 0
M  V30 797 H 65.8424 0.322515 5.51057 0
M  V30 798 H 68.3184 -0.938645 4.05375 0
M  V30 799 H 67.1944 -1.66683 5.2298 0
M  V30 800 H 67.4554 -2.45063 3.67963 0
M  V30 801 N 66.5145 -1.57545 0.0417849 0
M  V30 802 C 67.7635 -1.91494 -0.633492 0
M  V30 803 C 68.0765 -0.921084 -1.72556 0
M  V30 804 O 69.2825 -1.15228 -2.45835 0
M  V30 805 C 67.7385 -3.40072 -1.17808 0
M  V30 806 C 67.3465 -4.47843 -0.118633 0
M  V30 807 C 69.0905 -3.8307 -1.82915 0
M  V30 808 C 66.9975 -5.87529 -0.675578 0
M  V30 809 H 65.9275 -0.714653 -0.24039 0
M  V30 810 H 68.5785 -1.83175 0.109148 0
M  V30 811 H 66.9605 -3.43364 -1.97274 0
M  V30 812 H 68.1345 -4.56128 0.654494 0
M  V30 813 H 66.4495 -4.14128 0.434414 0
M  V30 814 H 69.0465 -4.84794 -2.25563 0
M  V30 815 H 69.3895 -3.1881 -2.67705 0
M  V30 816 H 69.9225 -3.82255 -1.10119 0
M  V30 817 H 66.6615 -6.55362 0.134475 0
M  V30 818 H 66.1815 -5.82824 -1.4169 0
M  V30 819 H 67.8605 -6.36491 -1.1614 0
M  V30 820 N 67.9926 0.231505 -1.5589 0
M  V30 821 C 69.2206 0.974505 -1.82513 0
M  V30 822 C 69.6356 1.78344 -0.619591 0
M  V30 823 O 68.9926 1.77792 0.411848 0
M  V30 824 C 69.0436 1.90007 -3.07538 0
M  V30 825 O 68.7646 1.12385 -4.2344 0
M  V30 826 C 70.2656 2.75779 -3.47075 0
M  V30 827 H 67.4856 0.286065 -0.606966 0
M  V30 828 H 70.0296 0.249739 -2.02969 0
M  V30 829 H 68.1846 2.57891 -2.89086 0
M  V30 830 H 68.5986 1.75125 -4.944 0
M  V30 831 H 70.0726 3.36443 -4.37619 0
M  V30 832 H 70.5496 3.47672 -2.68367 0
M  V30 833 H 71.1556 2.13323 -3.67931 0
M  V30 834 N 69.4707 1.49531 0.497807 0
M  V30 835 C 70.4177 1.66436 1.59899 0
M  V30 836 C 71.3877 0.505793 1.58212 0
M  V30 837 O 72.5727 0.733202 1.7615 0
M  V30 838 C 69.7127 1.7399 2.98029 0
M  V30 839 C 68.8257 3.01172 3.09708 0
M  V30 840 C 67.9607 2.99686 4.38591 0
M  V30 841 C 66.9997 4.21434 4.43914 0
M  V30 842 N 66.1367 4.1784 5.64229 0
M  V30 843 H 70.9767 2.60459 1.44793 0
M  V30 844 H 68.5137 1.29137 0.704423 0
M  V30 845 H 70.4717 1.76352 3.78095 0
M  V30 846 H 69.1017 0.834301 3.11832 0
M  V30 847 H 68.1537 3.08408 2.22685 0
M  V30 848 H 69.4657 3.91165 3.09502 0
M  V30 849 H 68.6197 3.00628 5.2698 0
M  V30 850 H 67.3587 2.07477 4.41367 0
M  V30 851 H 66.3637 4.20733 3.53926 0
M  V30 852 H 67.5887 5.14839 4.42851 0
M  V30 853 H 65.5347 3.28469 5.67841 0
M  V30 854 H 65.4517 5.01571 5.65652 0
M  V30 855 H 66.7197 4.22889 6.54817 0
M  V30 856 N 70.9488 -0.749086 1.3866 0
M  V30 857 C 72.1768 -1.53834 1.38358 0
M  V30 858 C 72.5918 -1.88783 -0.0255219 0
M  V30 859 O 71.9488 -1.53101 -0.993292 0
M  V30 860 C 71.9998 -2.83468 2.2434 0
M  V30 861 O 71.7208 -2.50008 3.5976 0
M  V30 862 C 73.2218 -3.7758 2.32267 0
M  V30 863 H 70.4418 -0.47585 0.473083 0
M  V30 864 H 72.9858 -0.926726 1.82297 0
M  V30 865 H 71.1408 -3.40995 1.83851 0
M  V30 866 H 71.5548 -3.33182 4.05081 0
M  V30 867 H 73.0288 -4.65478 2.96706 0
M  V30 868 H 73.5058 -4.18334 1.33765 0
M  V30 869 H 74.1118 -3.25976 2.73166 0
M  V30 870 N 72.4269 -1.23603 -0.977757 0
M  V30 871 C 73.7039 -0.977897 -1.69401 0
M  V30 872 C 74.0839 0.502738 -2.05026 0
M  V30 873 O 73.4319 1.47459 -1.74551 0
M  V30 874 C 73.6419 -1.89077 -2.93345 0
M  V30 875 C 74.9899 -2.15579 -3.65802 0
M  V30 876 O 76.0139 -1.86648 -3.03383 0
M  V30 877 O 74.8729 -2.64658 -4.78141 0
M  V30 878 H 71.9669 -0.369025 -0.740101 0
M  V30 879 H 74.5129 -1.34657 -1.03274 0
M  V30 880 H 73.2849 -2.89158 -2.63634 0
M  V30 881 H 72.9079 -1.52463 -3.67207 0
M  V30 882 N 73.905 1.17692 -1.04816 0
M  V30 883 C 75.151 1.88389 -0.766892 0
M  V30 884 C 75.506 1.79282 0.698269 0
M  V30 885 O 74.799 1.18739 1.50372 0
M  V30 886 C 74.993 3.37462 -1.17703 0
M  V30 887 C 74.822 3.6108 -2.68051 0
M  V30 888 C 73.592 3.78018 -3.35307 0
M  V30 889 C 75.79 3.61039 -3.66273 0
M  V30 890 N 73.772 3.89444 -4.74559 0
M  V30 891 C 75.143 3.78269 -4.91235 0
M  V30 892 C 77.198 3.44168 -3.59796 0
M  V30 893 C 75.901 3.80376 -6.10497 0
M  V30 894 C 77.927 3.4756 -4.78493 0
M  V30 895 C 77.289 3.65295 -6.02278 0
M  V30 896 H 73.388 0.707651 -0.332798 0
M  V30 897 H 75.972 1.41314 -1.33934 0
M  V30 898 H 74.143 3.83214 -0.63257 0
M  V30 899 H 75.875 3.95759 -0.845989 0
M  V30 900 H 72.63 3.77714 -2.85708 0
M  V30 901 H 73.054 3.98962 -5.46954 0
M  V30 902 H 77.696 3.29396 -2.65062 0
M  V30 903 H 75.414 3.93933 -7.05579 0
M  V30 904 H 79 3.3577 -4.75131 0
M  V30 905 H 77.88 3.6782 -6.92588 0
M  V30 906 N 75.3831 0.828654 1.34056 0
M  V30 907 C 76.3131 0.269443 2.3194 0
M  V30 908 C 77.2941 -0.617247 1.58506 0
M  V30 909 O 78.4791 -0.542931 1.86456 0
M  V30 910 C 75.6091 -0.564793 3.42677 0
M  V30 911 C 74.5631 0.225241 4.27407 0
M  V30 912 C 73.8891 -0.7321 5.29664 0
M  V30 913 C 75.1891 1.43663 5.02154 0
M  V30 914 H 76.8831 1.08728 2.7896 0
M  V30 915 H 74.4291 0.524283 1.34117 0
M  V30 916 H 76.3821 -0.966233 4.10173 0
M  V30 917 H 75.1061 -1.41574 2.9432 0
M  V30 918 H 73.7651 0.608117 3.61521 0
M  V30 919 H 73.4131 -1.57916 4.77568 0
M  V30 920 H 73.1131 -0.20767 5.87233 0
M  V30 921 H 74.6371 -1.13128 6.00029 0
M  V30 922 H 76.0511 1.1089 5.62473 0
M  V30 923 H 74.4481 1.89711 5.69324 0
M  V30 924 H 75.5181 2.21181 4.31517 0
M  V30 925 N 76.8612 -1.46375 0.584142 0
M  V30 926 C 77.8242 -2.28784 -0.138108 0
M  V30 927 C 78.8242 -1.38471 -0.817462 0
M  V30 928 O 80.0142 -1.60833 -0.669199 0
M  V30 929 C 77.1462 -3.18892 -1.20503 0
M  V30 930 H 78.3392 -2.94117 0.586127 0
M  V30 931 H 75.8922 -1.52509 0.342171 0
M  V30 932 H 76.6272 -2.58309 -1.96079 0
M  V30 933 H 76.4122 -3.85388 -0.722384 0
M  V30 934 H 77.9022 -3.80914 -1.71155 0
M  V30 935 N 78.3393 -0.321999 -1.54275 0
M  V30 936 C 79.7503 0.166384 -1.85957 0
M  V30 937 C 80.1013 1.51747 -1.24367 0
M  V30 938 O 79.2263 2.09317 -0.549124 0
M  V30 939 C 79.8213 0.308681 -3.37391 0
M  V30 940 C 78.3803 0.741286 -3.69028 0
M  V30 941 C 77.5273 -0.137937 -2.76957 0
M  V30 942 H 80.4783 -0.542335 -1.49146 0
M  V30 943 H 80.4993 1.13984 -3.63026 0
M  V30 944 H 80.0113 -0.674809 -3.82188 0
M  V30 945 H 78.1123 1.73458 -3.29762 0
M  V30 946 H 78.2253 0.546118 -4.75977 0
M  V30 947 H 76.5893 0.386251 -2.51754 0
M  V30 948 H 77.3723 -1.11816 -3.2458 0
M  V30 949 N 79.8174 1.5752 -0.0501392 0
M  V30 950 C 81.0634 1.92936 0.624798 0
M  V30 951 C 81.3964 0.928685 1.70555 0
M  V30 952 O 80.6714 -0.0454779 1.94447 0
M  V30 953 C 80.9544 3.38737 1.22185 0
M  V30 954 C 80.8074 4.49552 0.149218 0
M  V30 955 C 82.1264 3.84913 2.13378 0
M  V30 956 H 79.2454 0.701604 0.225657 0
M  V30 957 H 81.8874 1.89671 -0.111693 0
M  V30 958 H 80.0374 3.4165 1.84953 0
M  V30 959 H 81.7094 4.58768 -0.482648 0
M  V30 960 H 79.9524 4.30638 -0.522841 0
M  V30 961 H 80.6234 5.48653 0.606966 0
M  V30 962 H 83.0994 3.8387 1.60572 0
M  V30 963 H 81.9754 4.87584 2.52097 0
M  V30 964 H 82.2364 3.21611 3.03346 0
M  V30 965 N 81.2955 -0.223234 1.56011 0
M  V30 966 C 82.2255 -1.27988 1.95298 0
M  V30 967 C 83.2065 -1.48976 0.820979 0
M  V30 968 O 84.3915 -1.61188 1.08315 0
M  V30 969 C 81.5215 -2.63 2.26822 0
M  V30 970 C 80.4755 -2.56671 3.42497 0
M  V30 971 C 79.8015 -3.95697 3.59622 0
M  V30 972 C 81.1015 -2.11601 4.77517 0
M  V30 973 H 82.7955 -0.953525 2.8381 0
M  V30 974 H 80.3415 -0.457244 1.36548 0
M  V30 975 H 82.2945 -3.37077 2.52898 0
M  V30 976 H 81.0185 -2.9732 1.35161 0
M  V30 977 H 79.6775 -1.85051 3.16467 0
M  V30 978 H 79.3255 -4.27322 2.6534 0
M  V30 979 H 79.0255 -3.92345 4.37424 0
M  V30 980 H 80.5495 -4.71438 3.88044 0
M  V30 981 H 81.9635 -2.7542 5.02809 0
M  V30 982 H 80.3605 -2.19311 5.5859 0
M  V30 983 H 81.4305 -1.06824 4.72987 0
M  V30 984 N 82.7736 -1.49793 -0.48987 0
M  V30 985 C 84.0196 -1.61049 -1.24236 0
M  V30 986 C 84.3746 -0.298412 -1.90072 0
M  V30 987 O 83.6676 0.702262 -1.78266 0
M  V30 988 C 83.8616 -2.71488 -2.32441 0
M  V30 989 C 83.6906 -4.13308 -1.77218 0
M  V30 990 C 82.4606 -4.79955 -1.58023 0
M  V30 991 C 84.6586 -4.98176 -1.27772 0
M  V30 992 N 82.6406 -6.06052 -0.978465 0
M  V30 993 C 84.0116 -6.14843 -0.798 0
M  V30 994 C 86.0666 -4.84091 -1.16449 0
M  V30 995 C 84.7696 -7.18975 -0.216245 0
M  V30 996 C 86.7956 -5.88382 -0.596698 0
M  V30 997 C 86.1576 -7.04285 -0.127262 0
M  V30 998 H 82.2566 -0.643611 -0.444172 0
M  V30 999 H 84.8406 -1.86842 -0.54754 0
M  V30 1000 H 83.0116 -2.47449 -2.99372 0
M  V30 1001 H 84.7436 -2.72205 -2.99477 0
M  V30 1002 H 81.4986 -4.36936 -1.82712 0
M  V30 1003 H 81.9226 -6.73407 -0.696534 0
M  V30 1004 H 86.5646 -3.94786 -1.5134 0
M  V30 1005 H 84.2826 -8.0797 0.144903 0
M  V30 1006 H 87.8686 -5.79545 -0.511716 0
M  V30 1007 H 86.7486 -7.83606 0.30523 0
M  V30 1008 N 84.2517 0.741722 -1.39055 0
M  V30 1009 C 85.1617 1.88621 -1.39496 0
M  V30 1010 C 86.1777 1.71557 -0.290578 0
M  V30 1011 O 87.3537 1.94275 -0.530954 0
M  V30 1012 C 84.4187 3.24134 -1.23037 0
M  V30 1013 C 83.4797 3.5364 -2.43387 0
M  V30 1014 C 82.7127 4.82687 -2.27703 0
M  V30 1015 O 82.9357 5.55922 -1.27696 0
M  V30 1016 O 81.8697 5.1194 -3.16545 0
M  V30 1017 H 85.6957 1.91203 -2.35956 0
M  V30 1018 H 83.2807 0.888625 -1.20099 0
M  V30 1019 H 85.1627 4.0513 -1.15964 0
M  V30 1020 H 83.8377 3.22337 -0.296691 0
M  V30 1021 H 82.7447 2.72758 -2.56035 0
M  V30 1022 H 84.0777 3.60209 -3.35425 0
M  V30 1023 N 85.7298 1.2412 0.971189 0
M  V30 1024 C 86.9778 1.07668 1.71032 0
M  V30 1025 C 87.2988 -0.385797 1.91146 0
M  V30 1026 O 86.5688 -1.27569 1.4867 0
M  V30 1027 H 85.1488 0.395429 0.633755 0
M  V30 1028 H 87.8108 1.55984 1.16855 0
M  V30 1029 H 86.9068 1.57195 2.69622 0
M  V30 1030 N 87.2079 -1.17134 1.05439 0
M  V30 1031 C 88.4359 -1.91372 0.786414 0
M  V30 1032 C 88.8509 -1.76955 -0.658202 0
M  V30 1033 O 88.2079 -1.10838 -1.44987 0
M  V30 1034 C 88.2589 -3.42356 1.1608 0
M  V30 1035 O 87.9799 -3.56332 2.54871 0
M  V30 1036 C 89.4809 -4.33663 0.919322 0
M  V30 1037 H 86.7009 -0.607118 0.285743 0
M  V30 1038 H 89.2449 -1.48525 1.40572 0
M  V30 1039 H 87.3999 -3.82939 0.586191 0
M  V30 1040 H 87.8139 -4.49896 2.69618 0
M  V30 1041 H 89.2879 -5.38099 1.231 0
M  V30 1042 H 89.7649 -4.38959 -0.145359 0
M  V30 1043 H 90.3709 -3.98796 1.47789 0
M  V30 1044 N 88.686 -0.835752 -1.33615 0
M  V30 1045 C 89.933 -0.429959 -1.97883 0
M  V30 1046 C 90.261 1.01006 -1.66217 0
M  V30 1047 O 89.516 1.72047 -0.93265 0
M  V30 1048 C 89.815 -0.593925 -3.52431 0
M  V30 1049 C 89.481 -2.00158 -4.04039 0
M  V30 1050 C 88.143 -2.38662 -4.17844 0
M  V30 1051 C 90.495 -2.92117 -4.31644 0
M  V30 1052 C 87.823 -3.68435 -4.56588 0
M  V30 1053 C 90.175 -4.21368 -4.71838 0
M  V30 1054 C 88.839 -4.59833 -4.83849 0
M  V30 1055 H 88.109 -0.157333 -0.724104 0
M  V30 1056 H 90.756 -1.06217 -1.59343 0
M  V30 1057 H 89.061 0.121619 -3.91611 0
M  V30 1058 H 90.758 -0.260282 -4.00154 0
M  V30 1059 H 87.348 -1.69252 -3.93766 0
M  V30 1060 H 91.532 -2.63608 -4.20505 0
M  V30 1061 H 86.788 -3.98046 -4.64079 0
M  V30 1062 H 90.962 -4.92703 -4.92155 0
M  V30 1063 H 88.589 -5.60438 -5.13627 0
M  V30 1064 N 90.1641 1.46063 -0.591896 0
M  V30 1065 C 91.4411 1.95595 -0.0137119 0
M  V30 1066 C 91.8211 1.5345 1.4497 0
M  V30 1067 O 91.1691 0.789543 2.14426 0
M  V30 1068 C 91.3791 3.48453 -0.195373 0
M  V30 1069 C 92.7271 4.24546 -0.0679765 0
M  V30 1070 O 93.7511 3.55982 -0.124681 0
M  V30 1071 O 92.6101 5.46467 0.0600579 0
M  V30 1072 H 89.7041 0.825795 0.0446279 0
M  V30 1073 H 92.2501 1.56303 -0.660859 0
M  V30 1074 H 91.0221 3.72045 -1.21235 0
M  V30 1075 H 90.6451 3.94597 0.487775 0
M  V30 1076 N 91.6422 0.330177 1.54103 0
M  V30 1077 C 93.0582 -0.0222371 1.59585 0
M  V30 1078 C 93.2582 -1.49902 1.34654 0
M  V30 1079 O 92.3142 -2.25592 1.13421 0
M  V30 1080 C 93.6272 0.401932 2.98002 0
M  V30 1081 C 95.1752 0.353145 3.11001 0
M  V30 1082 C 95.6502 0.752576 4.51775 0
M  V30 1083 N 97.1412 0.706239 4.57784 0
M  V30 1084 C 97.8762 0.987417 5.64834 0
M  V30 1085 N 97.3722 1.33607 6.79795 0
M  V30 1086 N 99.1652 0.91254 5.54643 0
M  V30 1087 H 91.3162 1.29228 1.68564 0
M  V30 1088 H 93.5792 0.525906 0.78875 0
M  V30 1089 H 93.2852 1.4311 3.21267 0
M  V30 1090 H 93.1592 -0.229699 3.765 0
M  V30 1091 H 95.5462 -0.666822 2.87467 0
M  V30 1092 H 95.6272 1.0198 2.34593 0
M  V30 1093 H 95.2712 1.77049 4.76042 0
M  V30 1094 H 95.2012 0.0635409 5.26562 0
M  V30 1095 H 97.6922 0.44889 3.75224 0
M  V30 1096 H 98.0052 1.53582 7.57385 0
M  V30 1097 H 96.3502 1.37439 6.81275 0
M  V30 1098 H 99.5412 0.639601 4.6371 0
M  V30 1099 H 99.7142 1.13503 6.37982 0
M  V30 1100 N 93.1203 -1.57491 0.0584922 0
M  V30 1101 C 94.5363 -1.56792 -0.298091 0
M  V30 1102 C 94.7363 -1.06679 -1.70944 0
M  V30 1103 O 93.7923 -0.726672 -2.41818 0
M  V30 1104 C 95.1053 -3.00461 -0.119879 0
M  V30 1105 C 96.6533 -3.1242 -0.190428 0
M  V30 1106 C 97.1283 -4.57982 -0.0406567 0
M  V30 1107 N 98.6193 -4.63099 -0.0966958 0
M  V30 1108 C 99.3543 -5.734 -0.00502943 0
M  V30 1109 N 98.8503 -6.9266 0.139402 0
M  V30 1110 N 100.643 -5.62067 -0.0611391 0
M  V30 1111 H 92.7943 -1.88386 0.98105 0
M  V30 1112 H 95.0573 -0.867865 0.381463 0
M  V30 1113 H 94.7633 -3.41187 0.85349 0
M  V30 1114 H 94.6373 -3.66843 -0.877833 0
M  V30 1115 H 97.0243 -2.71589 -1.15427 0
M  V30 1116 H 97.1053 -2.48702 0.598405 0
M  V30 1117 H 96.7493 -4.995 0.919897 0
M  V30 1118 H 96.6793 -5.19715 -0.848727 0
M  V30 1119 H 99.1703 -3.77331 -0.207277 0
M  V30 1120 H 99.4833 -7.72536 0.201855 0
M  V30 1121 H 97.8283 -6.94781 0.174586 0
M  V30 1122 H 101.019 -4.67782 -0.172583 0
M  V30 1123 H 101.192 -6.47999 0.0137562 0
M  V30 1124 N 94.5984 0.214957 -1.56127 0
M  V30 1125 C 95.8444 0.939762 -1.79712 0
M  V30 1126 C 96.1774 1.83723 -0.629247 0
M  V30 1127 O 95.4524 1.90925 0.371197 0
M  V30 1128 C 95.7354 1.77306 -3.13424 0
M  V30 1129 C 95.5884 0.90164 -4.40671 0
M  V30 1130 C 96.9074 2.74956 -3.43638 0
M  V30 1131 H 94.0264 0.340214 -0.653776 0
M  V30 1132 H 96.6684 0.20824 -1.88855 0
M  V30 1133 H 94.8184 2.39673 -3.0576 0
M  V30 1134 H 96.4904 0.294206 -4.60361 0
M  V30 1135 H 94.7334 0.207368 -4.33304 0
M  V30 1136 H 95.4044 1.51923 -5.30682 0
M  V30 1137 H 97.8804 2.22724 -3.51473 0
M  V30 1138 H 96.7564 3.30358 -4.38355 0
M  V30 1139 H 97.0174 3.53023 -2.66134 0
M  V30 1140 N 96.0765 1.50051 0.48192 0
M  V30 1141 C 97.0065 1.71046 1.58951 0
M  V30 1142 C 97.9875 0.559288 1.60642 0
M  V30 1143 O 99.1725 0.797243 1.77081 0
M  V30 1144 C 96.3025 1.79462 2.97339 0
M  V30 1145 C 95.2565 2.94558 3.10515 0
M  V30 1146 C 94.5825 2.88105 4.50444 0
M  V30 1147 C 95.8825 4.35227 2.88747 0
M  V30 1148 H 97.5765 2.6378 1.41635 0
M  V30 1149 H 95.1225 1.26936 0.679942 0
M  V30 1150 H 97.0755 1.92734 3.74742 0
M  V30 1151 H 95.7995 0.833412 3.15788 0
M  V30 1152 H 94.4585 2.80918 2.35543 0
M  V30 1153 H 94.1065 1.89853 4.65795 0
M  V30 1154 H 93.8065 3.65366 4.60197 0
M  V30 1155 H 95.3305 3.03412 5.29881 0
M  V30 1156 H 96.7445 4.49449 3.55905 0
M  V30 1157 H 95.1415 5.13856 3.09955 0
M  V30 1158 H 96.2115 4.48347 1.84696 0
M  V30 1159 N 97.5546 -0.734337 1.39446 0
M  V30 1160 C 98.4646 -1.87879 1.40495 0
M  V30 1161 C 99.4806 -1.714 0.299672 0
M  V30 1162 O 100.657 -1.93991 0.541249 0
M  V30 1163 C 97.7216 -3.23477 1.24754 0
M  V30 1164 C 96.7826 -3.52344 2.45259 0
M  V30 1165 C 96.0156 -4.81473 2.30259 0
M  V30 1166 O 96.2386 -5.55237 1.30643 0
M  V30 1167 O 95.1726 -5.10254 3.19256 0
M  V30 1168 H 98.9986 -1.89949 2.36966 0
M  V30 1169 H 96.5836 -0.882243 1.20569 0
M  V30 1170 H 98.4656 -4.04509 1.18111 0
M  V30 1171 H 97.1406 -3.22176 0.313781 0
M  V30 1172 H 96.0476 -2.71396 2.57478 0
M  V30 1173 H 97.3806 -3.58426 3.37331 0
M  V30 1174 N 99.0327 -1.24633 -0.964593 0
M  V30 1175 C 99.9797 -1.04144 -2.05968 0
M  V30 1176 C 100.95 0.046262 -1.66036 0
M  V30 1177 O 102.135 -0.108972 -1.90489 0
M  V30 1178 C 99.2747 -0.65563 -3.38815 0
M  V30 1179 C 98.3877 -1.81714 -3.91923 0
M  V30 1180 C 97.5227 -1.37662 -5.13052 0
M  V30 1181 C 96.5617 -2.50788 -5.58365 0
M  V30 1182 N 95.6987 -2.07582 -6.70712 0
M  V30 1183 H 100.539 -1.9787 -2.22827 0
M  V30 1184 H 98.0757 -0.9855 -1.09208 0
M  V30 1185 H 100.034 -0.412954 -4.15151 0
M  V30 1186 H 98.6637 0.244627 -3.21872 0
M  V30 1187 H 97.7157 -2.1734 -3.12198 0
M  V30 1188 H 99.0277 -2.66705 -4.21509 0
M  V30 1189 H 98.1817 -1.093 -5.96773 0
M  V30 1190 H 96.9207 -0.497293 -4.85158 0
M  V30 1191 H 95.9257 -2.79906 -4.73215 0
M  V30 1192 H 97.1507 -3.39283 -5.88272 0
M  V30 1193 H 95.0967 -1.22051 -6.44546 0
M  V30 1194 H 95.0137 -2.86125 -6.99763 0
M  V30 1195 H 96.2817 -1.82369 -7.57867 0
M  V30 1196 N 100.511 1.16574 -1.06058 0
M  V30 1197 C 101.461 2.18854 -0.63929 0
M  V30 1198 C 102.445 1.57505 0.328798 0
M  V30 1199 O 103.637 1.76408 0.144623 0
M  V30 1200 C 100.766 3.43291 -0.0247203 0
M  V30 1201 C 99.8518 4.11722 -1.01716 0
M  V30 1202 N 100.243 4.55841 -2.19186 0
M  V30 1203 C 98.5408 4.37872 -0.847569 0
M  V30 1204 C 99.2418 5.08751 -2.82042 0
M  V30 1205 N 98.2178 5.01489 -2.09784 0
M  V30 1206 H 102.02 2.5068 -1.53417 0
M  V30 1207 H 99.5338 1.32999 -0.931935 0
M  V30 1208 H 101.531 4.15856 0.294915 0
M  V30 1209 H 100.191 3.12954 0.865448 0
M  V30 1210 H 101.202 4.49649 -2.56975 0
M  V30 1211 H 97.8788 4.17499 -0.00918848 0
M  V30 1212 H 99.2688 5.52944 -3.81709 0
M  V30 1213 N 101.989 0.842826 1.3317 0
M  V30 1214 C 103.219 0.453397 2.01564 0
M  V30 1215 C 103.627 -0.951147 1.63554 0
M  V30 1216 O 102.97 -1.63021 0.846746 0
M  V30 1217 C 103.032 0.499013 3.5602 0
M  V30 1218 C 102.696 1.86037 4.1742 0
M  V30 1219 C 103.693 2.82416 4.36506 0
M  V30 1220 C 101.378 2.15428 4.53757 0
M  V30 1221 C 103.372 4.06346 4.91082 0
M  V30 1222 C 101.059 3.39615 5.0804 0
M  V30 1223 C 102.057 4.3489 5.26649 0
M  V30 1224 O 101.745 5.5688 5.79776 0
M  V30 1225 H 101.477 0.177871 0.652179 0
M  V30 1226 H 104.031 1.13808 1.70988 0
M  V30 1227 H 102.261 -0.242467 3.85939 0
M  V30 1228 H 103.95 0.126852 4.05702 0
M  V30 1229 H 104.716 2.6101 4.08777 0
M  V30 1230 H 100.595 1.42061 4.38565 0
M  V30 1231 H 104.139 4.80722 5.05522 0
M  V30 1232 H 100.036 3.60876 5.352 0
M  V30 1233 H 100.804 5.58674 5.98185 0
M  V30 1234 N 103.467 -1.45747 0.599634 0
M  V30 1235 C 104.883 -1.57424 0.26264 0
M  V30 1236 C 105.083 -1.59222 -1.23493 0
M  V30 1237 O 104.139 -1.51825 -2.01756 0
M  V30 1238 C 105.452 -2.86061 0.926795 0
M  V30 1239 C 107 -2.99722 0.901967 0
M  V30 1240 C 107.475 -4.31119 1.54598 0
M  V30 1241 N 108.966 -4.37858 1.5111 0
M  V30 1242 C 109.701 -5.3818 1.97863 0
M  V30 1243 N 109.197 -6.45083 2.52666 0
M  V30 1244 N 110.99 -5.29487 1.88679 0
M  V30 1245 H 103.141 -1.42823 1.57211 0
M  V30 1246 H 105.404 -0.68235 0.658105 0
M  V30 1247 H 105.11 -2.90605 1.98095 0
M  V30 1248 H 104.984 -3.74563 0.445238 0
M  V30 1249 H 107.371 -2.9475 -0.143617 0
M  V30 1250 H 107.452 -2.12652 1.42171 0
M  V30 1251 H 107.096 -4.36849 2.59085 0
M  V30 1252 H 107.026 -5.16992 1.00132 0
M  V30 1253 H 109.517 -3.61209 1.11068 0
M  V30 1254 H 109.83 -7.17869 2.86155 0
M  V30 1255 H 108.175 -6.45856 2.56701 0
M  V30 1256 H 111.366 -4.44877 1.4561 0
M  V30 1257 H 111.539 -6.07524 2.25429 0
M  V30 1258 N 104.945 -0.338344 -1.53925 0
M  V30 1259 C 106.361 0.0137736 -1.59594 0
M  V30 1260 C 106.561 1.49186 -1.35447 0
M  V30 1261 O 105.617 2.24987 -1.14616 0
M  V30 1262 C 106.93 -0.41773 -2.97784 0
M  V30 1263 C 108.478 -0.369633 -3.1081 0
M  V30 1264 C 108.953 -0.776524 -4.51369 0
M  V30 1265 N 110.444 -0.730506 -4.57403 0
M  V30 1266 C 111.179 -1.01736 -5.64303 0
M  V30 1267 N 110.675 -1.3721 -6.79077 0
M  V30 1268 N 112.468 -0.941942 -5.54151 0
M  V30 1269 H 104.619 -1.3012 -1.67876 0
M  V30 1270 H 106.882 -0.530082 -0.78595 0
M  V30 1271 H 106.588 -1.44811 -3.20504 0
M  V30 1272 H 106.462 0.209729 -3.76616 0
M  V30 1273 H 108.849 0.651568 -2.87817 0
M  V30 1274 H 108.93 -1.03223 -2.34049 0
M  V30 1275 H 108.574 -1.79571 -4.75096 0
M  V30 1276 H 108.504 -0.0914649 -5.26521 0
M  V30 1277 H 110.995 -0.468783 -3.74981 0
M  V30 1278 H 111.308 -1.57597 -7.5656 0
M  V30 1279 H 109.653 -1.4105 -6.80536 0
M  V30 1280 H 112.844 -0.664184 -4.63364 0
M  V30 1281 H 113.017 -1.16884 -6.37371 0
M  V30 1282 N 106.423 1.57458 -0.0668435 0
M  V30 1283 C 107.839 1.56947 0.289772 0
M  V30 1284 C 108.039 1.07584 1.70376 0
M  V30 1285 O 107.095 0.739486 2.41429 0
M  V30 1286 C 108.408 3.0052 0.103943 0
M  V30 1287 C 109.956 3.12517 0.173857 0
M  V30 1288 C 110.431 4.57997 0.0163682 0
M  V30 1289 N 111.922 4.63144 0.0721352 0
M  V30 1290 C 112.657 5.73394 -0.0253794 0
M  V30 1291 N 112.153 6.92576 -0.176133 0
M  V30 1292 N 113.946 5.62091 0.0313305 0
M  V30 1293 H 106.097 1.87863 -0.991027 0
M  V30 1294 H 108.36 0.86583 -0.38606 0
M  V30 1295 H 108.066 3.40729 -0.871572 0
M  V30 1296 H 107.94 3.67304 0.858366 0
M  V30 1297 H 110.327 2.72197 1.13985 0
M  V30 1298 H 110.408 2.48381 -0.611586 0
M  V30 1299 H 110.052 4.99005 -0.946374 0
M  V30 1300 H 109.982 5.20158 0.821153 0
M  V30 1301 H 112.473 3.77436 0.187263 0
M  V30 1302 H 112.786 7.72418 -0.242821 0
M  V30 1303 H 111.131 6.94678 -0.211429 0
M  V30 1304 H 114.322 4.67867 0.147773 0
M  V30 1305 H 114.495 6.47982 -0.048121 0
M  V30 1306 N 107.901 -0.206675 1.56239 0
M  V30 1307 C 108.849 -1.27571 1.94495 0
M  V30 1308 C 109.843 -1.47737 0.828862 0
M  V30 1309 O 111.049 -1.48735 1.0138 0
M  V30 1310 H 107.424 -0.428029 0.6183 0
M  V30 1311 H 109.395 -0.925961 2.8367 0
M  V30 1312 C 108.144 -2.61568 2.29079 0
M  V30 1313 H 107.467 -2.46863 3.14482 0
M  V30 1314 H 108.907 -3.35144 2.5972 0
M  V30 1315 C 107.366 -3.17695 1.12123 0
M  V30 1316 O 107.896 -3.99801 0.390153 0
M  V30 1317 N 106.102 -2.76276 0.901097 0
M  V30 1318 H 105.649 -2.09613 1.49733 0
M  V30 1319 H 105.607 -3.1417 0.120319 0
M  V30 1320 N 109.379 -1.50304 -0.473955 0
M  V30 1321 C 110.628 -1.60392 -1.22301 0
M  V30 1322 C 110.941 -0.308411 -1.93153 0
M  V30 1323 O 112.147 -0.288156 -2.69966 0
M  V30 1324 C 110.603 -2.83109 -2.2221 0
M  V30 1325 C 110.211 -4.19524 -1.57173 0
M  V30 1326 C 111.955 -3.0254 -2.97775 0
M  V30 1327 C 109.862 -5.33431 -2.55353 0
M  V30 1328 H 108.792 -0.597286 -0.460179 0
M  V30 1329 H 111.443 -1.76731 -0.493803 0
M  V30 1330 H 109.825 -2.60322 -2.9841 0
M  V30 1331 H 110.999 -4.52554 -0.867824 0
M  V30 1332 H 109.314 -4.05674 -0.939002 0
M  V30 1333 H 111.911 -3.84811 -3.71248 0
M  V30 1334 H 112.254 -2.14154 -3.56992 0
M  V30 1335 H 112.787 -3.25494 -2.28688 0
M  V30 1336 H 109.526 -6.23962 -2.00878 0
M  V30 1337 H 109.046 -5.04823 -3.23904 0
M  V30 1338 H 110.725 -5.63887 -3.17239 0
M  V30 1339 N 110.857 0.726932 -1.39834 0
M  V30 1340 C 112.085 1.51613 -1.40787 0
M  V30 1341 C 112.5 1.88799 -0.00451505 0
M  V30 1342 O 111.857 1.54662 0.968809 0
M  V30 1343 C 111.908 2.79863 -2.28821 0
M  V30 1344 O 111.629 2.44253 -3.63692 0
M  V30 1345 C 113.13 3.73837 -2.38245 0
M  V30 1346 H 110.35 0.468264 -0.480593 0
M  V30 1347 H 112.894 0.897607 -1.83748 0
M  V30 1348 H 111.049 3.38027 -1.89252 0
M  V30 1349 H 111.463 3.26695 -4.1033 0
M  V30 1350 H 112.937 4.60699 -3.04073 0
M  V30 1351 H 113.414 4.16153 -1.40403 0
M  V30 1352 H 114.02 3.21589 -2.78317 0
M  V30 1353 N 112.336 1.25143 0.95797 0
M  V30 1354 C 113.582 1.09855 1.70469 0
M  V30 1355 C 113.915 -0.360187 1.90831 0
M  V30 1356 O 113.19 -1.26568 1.47685 0
M  V30 1357 C 113.473 1.8497 3.08963 0
M  V30 1358 C 113.326 3.38652 2.96032 0
M  V30 1359 C 114.645 1.63016 4.08795 0
M  V30 1360 H 111.764 0.400465 0.618706 0
M  V30 1361 H 114.406 1.53933 1.11376 0
M  V30 1362 H 112.556 1.47505 3.59409 0
M  V30 1363 H 114.228 3.85772 2.52938 0
M  V30 1364 H 112.471 3.66534 2.32025 0
M  V30 1365 H 113.142 3.8642 3.94187 0
M  V30 1366 H 115.618 1.95625 3.67247 0
M  V30 1367 H 114.494 2.18015 5.03747 0
M  V30 1368 H 114.755 0.570692 4.38401 0
M  V30 1369 N 113.814 -1.1601 1.06675 0
M  V30 1370 C 115.062 -1.86264 0.784229 0
M  V30 1371 C 115.383 -1.82328 -0.691488 0
M  V30 1372 O 114.653 -1.25947 -1.50047 0
M  V30 1373 H 113.233 -0.689621 0.28711 0
M  V30 1374 H 115.895 -1.40664 1.34906 0
M  V30 1375 H 114.991 -2.91595 1.11259 0
M  V30 1376 N 115.292 -0.849877 -1.32721 0
M  V30 1377 C 116.222 -0.306308 -2.31482 0
M  V30 1378 C 117.203 0.591952 -1.59468 0
M  V30 1379 O 118.388 0.513199 -1.87296 0
M  V30 1380 C 115.518 0.510204 -3.43532 0
M  V30 1381 C 114.472 -0.293209 -4.26994 0
M  V30 1382 C 113.798 0.647743 -5.30762 0
M  V30 1383 C 115.098 -1.51634 -4.99804 0
M  V30 1384 H 116.792 -1.13153 -2.77195 0
M  V30 1385 H 114.338 -0.545553 -1.33266 0
M  V30 1386 H 116.291 0.900856 -4.11658 0
M  V30 1387 H 115.015 1.36874 -2.96535 0
M  V30 1388 H 113.674 -0.665555 -3.60508 0
M  V30 1389 H 113.322 1.50299 -4.8002 0
M  V30 1390 H 113.022 0.11422 -5.87489 0
M  V30 1391 H 114.546 1.03567 -6.01753 0
M  V30 1392 H 115.96 -1.19824 -5.60638 0
M  V30 1393 H 114.357 -1.98745 -5.66234 0
M  V30 1394 H 115.427 -2.28018 -4.27943 0
M  V30 1395 N 116.77 1.45427 -0.607355 0
M  V30 1396 C 117.733 2.28974 0.101693 0
M  V30 1397 C 118.733 1.39754 0.795329 0
M  V30 1398 O 119.923 1.61878 0.643527 0
M  V30 1399 C 117.055 3.20768 1.15414 0
M  V30 1400 H 118.248 2.93147 -0.632844 0
M  V30 1401 H 115.801 1.51945 -0.366391 0
M  V30 1402 H 116.536 2.61395 1.91945 0
M  V30 1403 H 116.321 3.86489 0.66098 0
M  V30 1404 H 117.811 3.83589 1.65073 0
M  V30 1405 N 118.248 0.346503 1.53744 0
M  V30 1406 C 119.494 -0.249473 2.0126 0
M  V30 1407 C 119.827 -1.49965 1.23386 0
M  V30 1408 O 119.102 -1.91811 0.32229 0
M  V30 1409 C 119.385 -0.560643 3.55709 0
M  V30 1410 C 119.238 0.701836 4.44291 0
M  V30 1411 C 120.557 -1.36905 4.18264 0
M  V30 1412 H 117.676 -0.0891987 0.731582 0
M  V30 1413 H 120.318 0.467624 1.84156 0
M  V30 1414 H 118.468 -1.17156 3.70414 0
M  V30 1415 H 120.14 1.33974 4.41417 0
M  V30 1416 H 118.383 1.32612 4.13033 0
M  V30 1417 H 119.054 0.43933 5.50249 0
M  V30 1418 H 121.53 -0.852448 4.07275 0
M  V30 1419 H 120.406 -1.55553 5.26398 0
M  V30 1420 H 120.667 -2.37203 3.73078 0
M  V30 1421 N 119.726 -1.57421 0.075193 0
M  V30 1422 C 120.973 -1.93618 -0.593146 0
M  V30 1423 C 121.301 -0.955484 -1.69413 0
M  V30 1424 O 120.556 0.0283251 -1.9568 0
M  V30 1425 C 120.855 -3.36428 -1.20626 0
M  V30 1426 C 120.521 -4.50307 -0.231078 0
M  V30 1427 C 119.183 -4.81186 0.0371936 0
M  V30 1428 C 121.535 -5.19374 0.435888 0
M  V30 1429 C 118.863 -5.78466 0.979461 0
M  V30 1430 C 121.215 -6.17665 1.3665 0
M  V30 1431 C 119.879 -6.46958 1.6432 0
M  V30 1432 H 119.149 -0.708499 -0.217047 0
M  V30 1433 H 121.796 -1.90937 0.146793 0
M  V30 1434 H 120.101 -3.35592 -2.02201 0
M  V30 1435 H 121.798 -3.61727 -1.73073 0
M  V30 1436 H 118.388 -4.26227 -0.450357 0
M  V30 1437 H 122.572 -4.95711 0.241748 0
M  V30 1438 H 117.828 -5.99487 1.20106 0
M  V30 1439 H 122.002 -6.70284 1.88924 0
M  V30 1440 H 119.629 -7.2215 2.37494 0
M  V30 1441 N 121.204 0.198386 -1.56346 0
M  V30 1442 C 122.167 1.22952 -1.93431 0
M  V30 1443 C 123.167 1.38611 -0.815092 0
M  V30 1444 O 124.357 1.36479 -1.08255 0
M  V30 1445 C 121.489 2.59946 -2.20546 0
M  V30 1446 H 122.682 0.912626 -2.85677 0
M  V30 1447 H 120.235 0.43977 -1.49986 0
M  V30 1448 H 120.97 2.96696 -1.30927 0
M  V30 1449 H 120.755 2.49953 -3.02102 0
M  V30 1450 H 122.245 3.3431 -2.50253 0
M  V30 1451 N 122.682 1.50554 0.465978 0
M  V30 1452 C 123.91 1.65563 1.24083 0
M  V30 1453 C 124.325 0.341051 1.85694 0
M  V30 1454 O 123.682 -0.677543 1.69457 0
M  V30 1455 C 123.733 2.75051 2.34583 0
M  V30 1456 O 123.454 4.01413 1.75497 0
M  V30 1457 C 124.955 3.01078 3.25372 0
M  V30 1458 H 122.175 0.55638 0.375077 0
M  V30 1459 H 124.719 1.96807 0.555624 0
M  V30 1460 H 122.874 2.46486 2.9887 0
M  V30 1461 H 123.288 4.62002 2.48303 0
M  V30 1462 H 124.762 3.81339 3.99105 0
M  V30 1463 H 125.239 2.12349 3.84453 0
M  V30 1464 H 125.845 3.31194 2.66816 0
M  V30 1465 N 124.16 -0.719506 1.40217 0
M  V30 1466 C 125.408 -1.47641 1.3801 0
M  V30 1467 C 125.729 -1.94992 -0.018145 0
M  V30 1468 O 124.999 -1.70073 -0.972207 0
M  V30 1469 H 123.579 -0.547744 0.507923 0
M  V30 1470 H 126.241 -0.853187 1.75233 0
M  V30 1471 H 125.337 -2.35112 2.05253 0
M  V30 1472 N 125.638 -1.25649 -0.95132 0
M  V30 1473 C 127.054 -1.02542 -1.223 0
M  V30 1474 C 127.254 0.255715 -1.99871 0
M  V30 1475 O 126.31 0.967558 -2.33226 0
M  V30 1476 C 127.623 -2.25065 -1.99415 0
M  V30 1477 C 129.171 -2.29861 -2.12446 0
M  V30 1478 C 129.646 -3.52048 -2.92961 0
M  V30 1479 N 131.137 -3.52465 -3.00538 0
M  V30 1480 C 131.872 -4.43672 -3.63239 0
M  V30 1481 N 131.368 -5.45157 -4.27523 0
M  V30 1482 N 133.161 -4.31346 -3.60412 0
M  V30 1483 H 125.312 -2.07951 -0.432471 0
M  V30 1484 H 127.575 -0.91339 -0.253816 0
M  V30 1485 H 127.281 -3.18194 -1.49817 0
M  V30 1486 H 127.155 -2.28502 -3.00111 0
M  V30 1487 H 129.542 -1.37252 -2.61239 0
M  V30 1488 H 129.623 -2.3044 -1.11044 0
M  V30 1489 H 129.267 -4.44981 -2.44856 0
M  V30 1490 H 129.197 -3.48715 -3.94596 0
M  V30 1491 H 131.688 -2.79056 -2.54826 0
M  V30 1492 H 132.001 -6.10958 -4.73234 0
M  V30 1493 H 130.346 -5.49025 -4.26141 0
M  V30 1494 H 133.537 -3.51288 -3.09377 0
M  V30 1495 H 133.71 -5.02624 -4.0899 0
M  V30 1496 N 127.117 1.15442 -1.07289 0
M  V30 1497 C 128.364 1.86213 -0.795668 0
M  V30 1498 C 128.692 1.82291 0.678238 0
M  V30 1499 O 127.947 1.24057 1.51355 0
M  V30 1500 C 128.246 3.3489 -1.24834 0
M  V30 1501 C 127.912 3.59007 -2.72809 0
M  V30 1502 C 126.574 3.65298 -3.13227 0
M  V30 1503 C 128.926 3.68762 -3.68326 0
M  V30 1504 C 126.254 3.78854 -4.4798 0
M  V30 1505 C 128.606 3.83842 -5.0284 0
M  V30 1506 C 127.27 3.88378 -5.4288 0
M  V30 1507 H 126.54 0.681403 -0.291155 0
M  V30 1508 H 129.187 1.36435 -1.34379 0
M  V30 1509 H 127.492 3.8687 -0.619595 0
M  V30 1510 H 129.189 3.88052 -1.01076 0
M  V30 1511 H 125.779 3.5475 -2.40521 0
M  V30 1512 H 129.963 3.63202 -3.38227 0
M  V30 1513 H 125.219 3.80623 -4.78472 0
M  V30 1514 H 129.393 3.90332 -5.76727 0
M  V30 1515 H 127.02 3.98635 -6.47298 0
M  V30 1516 N 128.595 0.856903 1.32268 0
M  V30 1517 C 129.558 0.308171 2.27119 0
M  V30 1518 C 130.558 -0.533421 1.51695 0
M  V30 1519 O 131.748 -0.344607 1.70757 0
M  V30 1520 C 128.88 -0.563757 3.36206 0
M  V30 1521 H 130.073 1.14535 2.77167 0
M  V30 1522 H 127.626 0.631421 1.42978 0
M  V30 1523 H 128.361 -1.42266 2.91429 0
M  V30 1524 H 128.146 0.0386749 3.92081 0
M  V30 1525 H 129.636 -0.940386 4.06874 0
M  V30 1526 N 130.073 -1.45103 0.615059 0
M  V30 1527 C 130.983 -2.34382 -0.101034 0
M  V30 1528 C 131.999 -1.51681 -0.852585 0
M  V30 1529 O 133.175 -1.8446 -0.808484 0
M  V30 1530 C 130.24 -3.29417 -1.08099 0
M  V30 1531 C 129.301 -4.28025 -0.330577 0
M  V30 1532 C 128.534 -5.1852 -1.26385 0
M  V30 1533 O 128.757 -5.12598 -2.50198 0
M  V30 1534 O 127.691 -5.97122 -0.756866 0
M  V30 1535 H 131.517 -2.97033 0.632855 0
M  V30 1536 H 129.102 -1.4461 0.375293 0
M  V30 1537 H 130.984 -3.87958 -1.6452 0
M  V30 1538 H 129.659 -2.69321 -1.79577 0
M  V30 1539 H 128.566 -3.73078 0.276283 0
M  V30 1540 H 129.899 -4.90997 0.343866 0
M  V30 1541 N 131.551 -0.354651 -1.53558 0
M  V30 1542 C 132.461 0.50515 -2.29097 0
M  V30 1543 C 133.477 1.10223 -1.34636 0
M  V30 1544 O 134.653 1.11553 -1.67684 0
M  V30 1545 C 131.718 1.63479 -3.05738 0
M  V30 1546 C 130.779 1.06636 -4.15845 0
M  V30 1547 C 130.012 2.14217 -4.88822 0
M  V30 1548 O 130.235 3.35137 -4.61562 0
M  V30 1549 O 129.169 1.77887 -5.75013 0
M  V30 1550 H 132.995 -0.109237 -3.03503 0
M  V30 1551 H 130.58 -0.119357 -1.48922 0
M  V30 1552 H 132.462 2.2918 -3.5363 0
M  V30 1553 H 131.137 2.23478 -2.34178 0
M  V30 1554 H 130.044 0.373565 -3.7223 0
M  V30 1555 H 131.377 0.511081 -4.89539 0
M  V30 1556 N 133.029 1.57378 -0.0835403 0
M  V30 1557 C 134.259 1.97975 0.590713 0
M  V30 1558 C 134.667 0.961083 1.62972 0
M  V30 1559 O 134.01 -0.0590879 1.83605 0
M  V30 1560 C 134.072 3.34915 1.3066 0
M  V30 1561 C 133.736 4.55069 0.419698 0
M  V30 1562 C 134.733 5.18868 -0.32749 0
M  V30 1563 C 132.418 5.0114 0.341137 0
M  V30 1564 C 134.412 6.27098 -1.14134 0
M  V30 1565 C 132.099 6.0924 -0.476374 0
M  V30 1566 C 133.097 6.72083 -1.21627 0
M  V30 1567 O 132.785 7.781 -2.02028 0
M  V30 1568 H 132.517 0.655818 0.163947 0
M  V30 1569 H 135.071 2.04807 -0.156021 0
M  V30 1570 H 133.301 3.24733 2.09966 0
M  V30 1571 H 134.99 3.60037 1.87424 0
M  V30 1572 H 135.756 4.84211 -0.276459 0
M  V30 1573 H 131.635 4.51996 0.90668 0
M  V30 1574 H 135.179 6.7608 -1.71935 0
M  V30 1575 H 131.076 6.43329 -0.528927 0
M  V30 1576 H 131.844 7.95034 -1.94586 0
M  V30 1577 N 134.507 -0.190092 1.56449 0
M  V30 1578 C 135.437 -1.23816 1.97969 0
M  V30 1579 C 136.418 -1.47201 0.852395 0
M  V30 1580 O 137.603 -1.58854 1.1171 0
M  V30 1581 C 134.733 -2.5813 2.3235 0
M  V30 1582 C 133.687 -2.49348 3.47864 0
M  V30 1583 C 133.013 -3.8798 3.67934 0
M  V30 1584 C 134.313 -2.01424 4.81898 0
M  V30 1585 H 136.007 -0.89311 2.85769 0
M  V30 1586 H 133.553 -0.428177 1.37487 0
M  V30 1587 H 135.506 -3.31637 2.59991 0
M  V30 1588 H 134.23 -2.94386 1.41438 0
M  V30 1589 H 132.889 -1.78297 3.20321 0
M  V30 1590 H 132.537 -4.21597 2.74344 0
M  V30 1591 H 132.237 -3.82978 4.45648 0
M  V30 1592 H 133.761 -4.63101 3.97957 0
M  V30 1593 H 135.175 -2.64693 5.08538 0
M  V30 1594 H 133.572 -2.07413 5.63116 0
M  V30 1595 H 134.642 -0.967677 4.75146 0
M  V30 1596 N 135.985 -1.50799 -0.457987 0
M  V30 1597 C 137.401 -1.38515 -0.792819 0
M  V30 1598 C 137.601 -0.451409 -1.96379 0
M  V30 1599 O 136.657 0.10112 -2.52297 0
M  V30 1600 C 137.97 -2.80149 -1.09258 0
M  V30 1601 C 139.518 -2.89156 -1.19825 0
M  V30 1602 C 139.993 -4.31651 -1.53106 0
M  V30 1603 N 141.484 -4.34662 -1.60072 0
M  V30 1604 C 142.219 -5.41928 -1.87354 0
M  V30 1605 N 141.715 -6.59384 -2.12568 0
M  V30 1606 N 143.508 -5.29385 -1.88965 0
M  V30 1607 H 135.659 -2.10073 0.313511 0
M  V30 1608 H 137.922 -0.944803 0.0777862 0
M  V30 1609 H 137.628 -3.50374 -0.305084 0
M  V30 1610 H 137.502 -3.18204 -2.02549 0
M  V30 1611 H 139.889 -2.19141 -1.97639 0
M  V30 1612 H 139.97 -2.54626 -0.244821 0
M  V30 1613 H 139.614 -5.02208 -0.758266 0
M  V30 1614 H 139.544 -4.63678 -2.49621 0
M  V30 1615 H 142.035 -3.49973 -1.42573 0
M  V30 1616 H 142.348 -7.36934 -2.32696 0
M  V30 1617 H 140.693 -6.62535 -2.09933 0
M  V30 1618 H 143.884 -4.36616 -1.68772 0
M  V30 1619 H 144.057 -6.13066 -2.09891 0
M  V30 1620 N 137.463 0.71206 -1.40597 0
M  V30 1621 C 138.874 1.29135 -1.34837 0
M  V30 1622 C 139.225 1.96186 -0.0235395 0
M  V30 1623 O 138.35 1.97768 0.878444 0
M  V30 1624 C 138.945 2.34827 -2.44217 0
M  V30 1625 C 137.504 2.88371 -2.41907 0
M  V30 1626 C 136.651 1.62202 -2.24913 0
M  V30 1627 H 139.602 0.507944 -1.50352 0
M  V30 1628 H 139.623 3.15749 -2.12327 0
M  V30 1629 H 139.135 1.85996 -3.40627 0
M  V30 1630 H 137.236 3.41422 -1.49204 0
M  V30 1631 H 137.349 3.39925 -3.37621 0
M  V30 1632 H 135.713 1.874 -1.72492 0
M  V30 1633 H 136.496 1.15391 -3.23326 0
M  V30 1634 N 138.941 1.26152 0.944643 0
M  V30 1635 C 140.188 1.11492 1.69044 0
M  V30 1636 C 140.516 -0.342366 1.91463 0
M  V30 1637 O 139.771 -1.26812 1.49054 0
M  V30 1638 C 140.07 1.82541 3.07268 0
M  V30 1639 C 139.736 3.32445 3.04616 0
M  V30 1640 C 138.398 3.73337 3.036 0
M  V30 1641 C 140.75 4.28171 2.97185 0
M  V30 1642 C 138.078 5.08348 2.92915 0
M  V30 1643 C 140.43 5.63218 2.88041 0
M  V30 1644 C 139.094 6.03426 2.85366 0
M  V30 1645 H 138.364 0.407977 0.618576 0
M  V30 1646 H 141.011 1.56551 1.10291 0
M  V30 1647 H 139.316 1.29941 3.69625 0
M  V30 1648 H 141.013 1.68642 3.63815 0
M  V30 1649 H 137.603 2.99915 3.06185 0
M  V30 1650 H 141.787 3.97563 2.97081 0
M  V30 1651 H 137.043 5.38667 2.89219 0
M  V30 1652 H 141.217 6.37078 2.81254 0
M  V30 1653 H 138.844 7.07999 2.76842 0
M  V30 1654 N 140.419 -1.14872 1.07899 0
M  V30 1655 C 141.349 -2.2193 0.725887 0
M  V30 1656 C 142.33 -1.67622 -0.28927 0
M  V30 1657 O 143.515 -1.93533 -0.160787 0
M  V30 1658 C 140.645 -3.47061 0.128856 0
M  V30 1659 C 139.599 -4.14363 1.07178 0
M  V30 1660 C 138.925 -5.33636 0.337229 0
M  V30 1661 C 140.225 -4.63492 2.40775 0
M  V30 1662 H 141.919 -2.51724 1.62097 0
M  V30 1663 H 139.465 -1.20991 0.780838 0
M  V30 1664 H 141.418 -4.21199 -0.130147 0
M  V30 1665 H 140.142 -3.16617 -0.80134 0
M  V30 1666 H 138.801 -3.42173 1.3158 0
M  V30 1667 H 138.449 -4.99449 -0.596606 0
M  V30 1668 H 138.149 -5.79609 0.965788 0
M  V30 1669 H 139.673 -6.10539 0.0861567 0
M  V30 1670 H 141.087 -5.2913 2.20669 0
M  V30 1671 H 139.484 -5.20148 2.99276 0
M  V30 1672 H 140.554 -3.78834 3.02676 0
M  V30 1673 N 141.898 -0.863906 -1.31812 0
M  V30 1674 C 142.848 -0.286898 -2.26188 0
M  V30 1675 C 143.832 0.572577 -1.50367 0
M  V30 1676 O 145.024 0.420447 -1.71934 0
M  V30 1677 C 142.153 0.515849 -3.39402 0
M  V30 1678 C 141.239 -0.356531 -4.22599 0
M  V30 1679 N 141.63 -1.44716 -4.84656 0
M  V30 1680 C 139.928 -0.147898 -4.45755 0
M  V30 1681 C 140.629 -1.98462 -5.46798 0
M  V30 1682 N 139.605 -1.28247 -5.28255 0
M  V30 1683 H 143.407 -1.12055 -2.717 0
M  V30 1684 H 140.921 -0.711012 -1.46008 0
M  V30 1685 H 142.918 0.945701 -4.06032 0
M  V30 1686 H 141.578 1.34718 -2.95434 0
M  V30 1687 H 142.589 -1.83008 -4.84488 0
M  V30 1688 H 139.266 0.647973 -4.12441 0
M  V30 1689 H 140.656 -2.89932 -6.06126 0
M  V30 1690 N 143.376 1.44774 -0.622745 0
M  V30 1691 C 144.601 2.06999 -0.128968 0
M  V30 1692 C 145.026 1.4617 1.1839 0
M  V30 1693 O 144.384 0.560007 1.72434 0
M  V30 1694 C 144.432 3.60595 -0.0188351 0
M  V30 1695 O 143.536 3.99398 1.02739 0
M  V30 1696 H 142.877 0.659047 -0.0809544 0
M  V30 1697 H 145.407 1.85784 -0.85705 0
M  V30 1698 H 145.417 4.07627 0.174476 0
M  V30 1699 H 144.092 4.04252 -0.977384 0
M  V30 1700 H 142.669 3.64011 0.809326 0
M  V30 1701 N 144.854 0.36279 1.53368 0
M  V30 1702 C 145.817 -0.472679 2.24273 0
M  V30 1703 C 146.817 -1.012 1.24961 0
M  V30 1704 O 148.007 -0.898194 1.49259 0
M  V30 1705 C 145.139 -1.66039 2.97731 0
M  V30 1706 H 146.332 0.14773 2.99536 0
M  V30 1707 H 143.885 0.114434 1.55881 0
M  V30 1708 H 144.62 -2.31896 2.26704 0
M  V30 1709 H 144.405 -1.28066 3.70596 0
M  V30 1710 H 145.895 -2.25252 3.51641 0
M  V30 1711 N 146.332 -1.57332 0.0918853 0
M  V30 1712 C 147.28 -2.15075 -0.885747 0
M  V30 1713 C 148.274 -1.09277 -1.29441 0
M  V30 1714 O 149.48 -1.27627 -1.26931 0
M  V30 1715 H 145.855 -0.687966 -0.303656 0
M  V30 1716 H 147.826 -2.96047 -0.373995 0
M  V30 1717 C 146.575 -2.74325 -2.13638 0
M  V30 1718 H 145.898 -3.55418 -1.8308 0
M  V30 1719 H 147.338 -3.183 -2.80109 0
M  V30 1720 C 145.797 -1.70062 -2.90827 0
M  V30 1721 O 146.327 -1.13763 -3.85254 0
M  V30 1722 N 144.533 -1.40628 -2.54307 0
M  V30 1723 H 144.08 -1.866 -1.7759 0
M  V30 1724 H 144.038 -0.711043 -3.06254 0
M  V30 1725 N 147.81 0.181792 -1.56548 0
M  V30 1726 C 148.757 1.22521 -1.95595 0
M  V30 1727 C 149.727 1.4454 -0.818373 0
M  V30 1728 O 150.912 1.57454 -1.07763 0
M  V30 1729 C 148.052 2.56193 -2.31212 0
M  V30 1730 C 147.165 2.41641 -3.58097 0
M  V30 1731 C 146.3 3.68108 -3.82975 0
M  V30 1732 C 145.339 3.48445 -5.03242 0
M  V30 1733 N 144.476 4.66956 -5.24306 0
M  V30 1734 H 149.316 0.885226 -2.84548 0
M  V30 1735 H 146.853 0.425718 -1.40805 0
M  V30 1736 H 148.811 3.34088 -2.49882 0
M  V30 1737 H 147.441 2.88208 -1.45382 0
M  V30 1738 H 146.493 1.54976 -3.474 0
M  V30 1739 H 147.805 2.23052 -4.46149 0
M  V30 1740 H 146.959 4.54441 -4.01956 0
M  V30 1741 H 145.698 3.89666 -2.93278 0
M  V30 1742 H 144.703 2.60499 -4.8417 0
M  V30 1743 H 145.928 3.2832 -5.9446 0
M  V30 1744 H 143.874 4.88752 -4.37559 0
M  V30 1745 H 143.791 4.51242 -6.06561 0
M  V30 1746 H 145.059 5.54602 -5.47756 0
M  V30 1747 N 149.288 1.51039 0.449983 0
M  V30 1748 C 150.238 1.67824 1.54335 0
M  V30 1749 C 151.222 0.5324 1.51836 0
M  V30 1750 O 152.414 0.787762 1.58503 0
M  V30 1751 C 149.543 1.7951 2.92628 0
M  V30 1752 C 148.629 2.99838 2.9993 0
M  V30 1753 N 149.02 4.23207 2.77001 0
M  V30 1754 C 147.318 2.98832 3.31082 0
M  V30 1755 C 148.019 5.04361 2.89818 0
M  V30 1756 N 146.995 4.38746 3.2094 0
M  V30 1757 H 150.797 2.60884 1.35339 0
M  V30 1758 H 148.311 1.48513 0.657085 0
M  V30 1759 H 150.308 1.89642 3.7127 0
M  V30 1760 H 148.968 0.876227 3.12654 0
M  V30 1761 H 149.979 4.5236 2.52172 0
M  V30 1762 H 146.656 2.16527 3.56963 0
M  V30 1763 H 148.046 6.12528 2.76151 0
M  V30 1764 N 150.766 -0.704594 1.40972 0
M  V30 1765 C 152.013 -1.46458 1.39844 0
M  V30 1766 C 152.341 -1.94499 0.00447594 0
M  V30 1767 O 151.596 -1.69275 -0.982057 0
M  V30 1768 C 151.895 -2.698 2.34399 0
M  V30 1769 C 151.561 -2.40464 3.81429 0
M  V30 1770 C 150.223 -2.32174 4.21484 0
M  V30 1771 C 152.575 -2.16086 4.74296 0
M  V30 1772 C 149.903 -1.97589 5.52427 0
M  V30 1773 C 152.255 -1.83011 6.05549 0
M  V30 1774 C 150.919 -1.7321 6.44635 0
M  V30 1775 H 150.189 -0.535927 0.511725 0
M  V30 1776 H 152.836 -0.806124 1.73706 0
M  V30 1777 H 151.141 -3.40536 1.93759 0
M  V30 1778 H 152.838 -3.27919 2.30804 0
M  V30 1779 H 149.428 -2.47808 3.49699 0
M  V30 1780 H 153.612 -2.2144 4.4416 0
M  V30 1781 H 148.868 -1.88547 5.81601 0
M  V30 1782 H 153.042 -1.63164 6.77016 0
M  V30 1783 H 150.669 -1.46179 7.46013 0
M  V30 1784 N 152.244 -1.26651 -0.937939 0
M  V30 1785 C 153.177 -1.02811 -2.03728 0
M  V30 1786 C 154.155 0.0481915 -1.62529 0
M  V30 1787 O 155.339 -0.0948839 -1.88261 0
M  V30 1788 C 152.466 -0.557517 -3.3408 0
M  V30 1789 C 151.512 -1.62686 -3.94253 0
M  V30 1790 S 152.345 -3.21667 -4.28125 0
M  V30 1791 C 153.501 -2.76384 -5.61572 0
M  V30 1792 H 153.734 -1.95891 -2.23638 0
M  V30 1793 H 151.267 -1.10367 -1.07974 0
M  V30 1794 H 153.225 -0.292674 -4.09455 0
M  V30 1795 H 151.886 0.353062 -3.12109 0
M  V30 1796 H 151.079 -1.24866 -4.88287 0
M  V30 1797 H 150.681 -1.84324 -3.25424 0
M  V30 1798 H 152.973 -2.2105 -6.40424 0
M  V30 1799 H 153.916 -3.69123 -6.0428 0
M  V30 1800 H 154.324 -2.15847 -5.21604 0
M  V30 1801 N 153.722 1.14298 -1.08507 0
M  V30 1802 C 154.95 1.89219 -0.836876 0
M  V30 1803 C 155.365 1.78638 0.611054 0
M  V30 1804 O 154.722 1.14643 1.41998 0
M  V30 1805 C 154.773 3.39158 -1.25116 0
M  V30 1806 O 154.494 3.49449 -2.64229 0
M  V30 1807 C 155.995 4.31073 -1.03398 0
M  V30 1808 H 153.215 0.599328 -0.301739 0
M  V30 1809 H 155.759 1.44746 -1.44461 0
M  V30 1810 H 153.914 3.81251 -0.687514 0
M  V30 1811 H 154.328 4.42589 -2.81452 0
M  V30 1812 H 155.802 5.34646 -1.37323 0
M  V30 1813 H 156.279 4.3919 0.0289259 0
M  V30 1814 H 156.885 3.94738 -1.58311 0
M  V30 1815 N 155.201 0.870884 1.31352 0
M  V30 1816 C 156.449 0.48132 1.96285 0
M  V30 1817 C 156.77 -0.969813 1.69173 0
M  V30 1818 O 156.04 -1.67998 1.00764 0
M  V30 1819 H 154.62 0.175002 0.726212 0
M  V30 1820 H 157.282 1.11087 1.60143 0
M  V30 1821 H 156.378 0.639825 3.05471 0
M  V30 1822 N 156.679 -1.44442 0.630414 0
M  V30 1823 C 157.909 -2.06115 0.141465 0
M  V30 1824 C 158.317 -1.47179 -1.1889 0
M  V30 1825 O 157.66 -0.588873 -1.74006 0
M  V30 1826 C 157.722 -3.59467 -0.0484355 0
M  V30 1827 C 157.386 -4.40864 1.20366 0
M  V30 1828 C 158.383 -4.74391 2.12719 0
M  V30 1829 C 156.068 -4.8125 1.43887 0
M  V30 1830 C 158.062 -5.47186 3.26904 0
M  V30 1831 C 155.749 -5.53795 2.5837 0
M  V30 1832 C 156.747 -5.86682 3.49705 0
M  V30 1833 O 156.435 -6.57749 4.62191 0
M  V30 1834 H 156.167 -0.671648 0.0765792 0
M  V30 1835 H 158.721 -1.86312 0.864695 0
M  V30 1836 H 156.951 -3.77758 -0.826803 0
M  V30 1837 H 158.64 -4.02909 -0.491849 0
M  V30 1838 H 159.406 -4.43728 1.95781 0
M  V30 1839 H 155.285 -4.55073 0.736853 0
M  V30 1840 H 158.829 -5.72773 3.98217 0
M  V30 1841 H 154.726 -5.83872 2.75251 0
M  V30 1842 H 155.494 -6.76217 4.61164 0
M  V30 1843 N 158.157 -0.370918 -1.53173 0
M  V30 1844 C 159.573 -0.0200818 -1.59587 0
M  V30 1845 C 159.773 1.46279 -1.38581 0
M  V30 1846 O 158.829 2.22506 -1.19363 0
M  V30 1847 C 160.142 -0.4808 -2.96831 0
M  V30 1848 C 161.69 -0.435477 -3.09956 0
M  V30 1849 C 162.165 -0.872092 -4.4962 0
M  V30 1850 N 163.656 -0.827364 -4.55751 0
M  V30 1851 C 164.391 -1.13683 -5.62018 0
M  V30 1852 N 163.887 -1.51584 -6.76014 0
M  V30 1853 N 165.68 -1.05927 -5.52029 0
M  V30 1854 H 157.831 -1.33652 -1.65079 0
M  V30 1855 H 160.094 -0.546634 -0.774529 0
M  V30 1856 H 159.8 -1.51577 -3.1736 0
M  V30 1857 H 159.674 0.129796 -3.76977 0
M  V30 1858 H 162.061 0.590371 -2.89134 0
M  V30 1859 H 162.142 -1.08164 -2.31806 0
M  V30 1860 H 161.786 -1.89608 -4.71181 0
M  V30 1861 H 161.716 -0.203127 -5.26208 0
M  V30 1862 H 164.207 -0.548216 -3.73902 0
M  V30 1863 H 164.52 -1.73609 -7.53047 0
M  V30 1864 H 162.865 -1.55454 -6.77391 0
M  V30 1865 H 166.056 -0.762321 -4.61851 0
M  V30 1866 H 166.229 -1.30378 -6.34749 0
M  V30 1867 N 159.635 1.57281 -0.100228 0
M  V30 1868 C 160.881 1.94826 0.563101 0
M  V30 1869 C 161.214 0.982475 1.67514 0
M  V30 1870 O 160.489 0.0164069 1.94493 0
M  V30 1871 C 160.772 3.42453 1.11346 0
M  V30 1872 C 160.625 4.498 0.00612081 0
M  V30 1873 C 161.944 3.91506 2.01024 0
M  V30 1874 H 159.063 0.708428 0.203221 0
M  V30 1875 H 161.705 1.8922 -0.171979 0
M  V30 1876 H 159.855 3.47361 1.7399 0
M  V30 1877 H 161.527 4.57 -0.628357 0
M  V30 1878 H 159.77 4.28756 -0.659581 0
M  V30 1879 H 160.441 5.50306 0.432109 0
M  V30 1880 H 162.917 3.88784 1.48278 0
M  V30 1881 H 161.793 4.95358 2.36457 0
M  V30 1882 H 162.054 3.31099 2.92961 0
M  V30 1883 N 161.113 -0.173488 1.56642 0
M  V30 1884 C 162.362 -0.888758 1.81063 0
M  V30 1885 C 162.675 -1.83506 0.67712 0
M  V30 1886 O 163.881 -2.59254 0.806206 0
M  V30 1887 C 162.337 -1.63091 3.20826 0
M  V30 1888 C 161.945 -0.728357 4.4204 0
M  V30 1889 C 163.689 -2.33454 3.54541 0
M  V30 1890 C 161.596 -1.47062 5.72823 0
M  V30 1891 H 160.526 -0.335618 0.675186 0
M  V30 1892 H 163.177 -0.141712 1.82952 0
M  V30 1893 H 161.559 -2.42263 3.13248 0
M  V30 1894 H 162.733 0.0262449 4.60793 0
M  V30 1895 H 161.048 -0.134492 4.16183 0
M  V30 1896 H 163.645 -2.89578 4.49498 0
M  V30 1897 H 163.988 -3.08687 2.79317 0
M  V30 1898 H 164.521 -1.61227 3.63663 0
M  V30 1899 H 161.26 -0.760658 6.51072 0
M  V30 1900 H 160.78 -2.1986 5.58052 0
M  V30 1901 H 162.459 -2.01868 6.14702 0
M  V30 1902 N 162.591 -1.51276 -0.441967 0
M  V30 1903 C 163.838 -1.63715 -1.19179 0
M  V30 1904 C 164.166 -0.351175 -1.91303 0
M  V30 1905 O 163.421 0.664524 -1.84072 0
M  V30 1906 C 163.72 -2.78746 -2.23686 0
M  V30 1907 C 163.386 -4.18189 -1.68607 0
M  V30 1908 C 162.048 -4.56125 -1.53308 0
M  V30 1909 C 164.4 -5.05222 -1.28062 0
M  V30 1910 C 161.728 -5.78804 -0.959317 0
M  V30 1911 C 164.08 -6.28476 -0.721162 0
M  V30 1912 C 162.744 -6.65188 -0.55504 0
M  V30 1913 H 162.014 -0.599076 -0.436106 0
M  V30 1914 H 164.661 -1.85296 -0.48351 0
M  V30 1915 H 162.966 -2.51369 -3.00535 0
M  V30 1916 H 164.663 -2.8557 -2.81515 0
M  V30 1917 H 161.253 -3.88277 -1.8149 0
M  V30 1918 H 165.437 -4.76524 -1.38704 0
M  V30 1919 H 160.693 -6.05899 -0.81833 0
M  V30 1920 H 164.867 -6.95259 -0.398458 0
M  V30 1921 H 162.494 -7.60123 -0.108311 0
M  V30 1922 N 164.069 0.697108 -1.41344 0
M  V30 1923 C 165.299 1.48377 -1.43763 0
M  V30 1924 C 165.707 1.89156 -0.0408726 0
M  V30 1925 O 165.05 1.57239 0.949812 0
M  V30 1926 C 165.112 2.7781 -2.2817 0
M  V30 1927 C 164.776 2.59244 -3.76353 0
M  V30 1928 C 165.773 2.25292 -4.68551 0
M  V30 1929 C 163.458 2.74933 -4.20378 0
M  V30 1930 C 165.452 2.07264 -6.02761 0
M  V30 1931 C 163.139 2.56521 -5.54653 0
M  V30 1932 C 164.137 2.22737 -6.4566 0
M  V30 1933 O 163.825 2.04485 -7.77458 0
M  V30 1934 H 163.557 0.463842 -0.491759 0
M  V30 1935 H 166.111 0.865934 -1.86255 0
M  V30 1936 H 164.341 3.41995 -1.8049 0
M  V30 1937 H 166.03 3.39608 -2.22309 0
M  V30 1938 H 166.796 2.12787 -4.35829 0
M  V30 1939 H 162.675 3.00213 -3.49848 0
M  V30 1940 H 166.219 1.80817 -6.73759 0
M  V30 1941 H 162.116 2.68616 -5.86955 0
M  V30 1942 H 162.884 2.1926 -7.88586 0
M  V30 1943 N 165.547 1.27147 0.931209 0
M  V30 1944 C 166.796 1.12664 1.67302 0
M  V30 1945 C 167.109 -0.327718 1.92835 0
M  V30 1946 O 168.315 -0.593392 2.64936 0
M  V30 1947 C 166.771 1.9683 3.01307 0
M  V30 1948 C 166.379 3.46901 2.83485 0
M  V30 1949 C 168.123 1.90985 3.79111 0
M  V30 1950 C 166.03 4.23279 4.13024 0
M  V30 1951 H 164.96 0.41803 0.627509 0
M  V30 1952 H 167.611 1.51539 1.03481 0
M  V30 1953 H 165.993 1.50797 3.66164 0
M  V30 1954 H 167.167 4.00773 2.27415 0
M  V30 1955 H 165.482 3.54088 2.19113 0
M  V30 1956 H 168.079 2.45328 4.75098 0
M  V30 1957 H 168.422 0.882718 4.06834 0
M  V30 1958 H 168.955 2.34895 3.21044 0
M  V30 1959 H 165.694 5.26503 3.90481 0
M  V30 1960 H 165.214 3.74186 4.6877 0
M  V30 1961 H 166.893 4.32265 4.81411 0
M  V30 1962 N 167.025 -1.13721 1.09112 0
M  V30 1963 C 167.958 -2.18094 0.67158 0
M  V30 1964 C 168.936 -1.59414 -0.320299 0
M  V30 1965 O 170.12 -1.87183 -0.222444 0
M  V30 1966 C 167.247 -3.38698 -0.0111189 0
M  V30 1967 C 166.293 -4.15966 0.942055 0
M  V30 1968 S 167.126 -4.7604 2.45246 0
M  V30 1969 C 168.282 -5.99994 1.78208 0
M  V30 1970 H 168.515 -2.53344 1.55577 0
M  V30 1971 H 166.048 -1.24967 0.906789 0
M  V30 1972 H 168.006 -4.08559 -0.398716 0
M  V30 1973 H 166.667 -3.01756 -0.871905 0
M  V30 1974 H 165.86 -5.02318 0.411396 0
M  V30 1975 H 165.462 -3.51745 1.2709 0
M  V30 1976 H 167.754 -6.68441 1.10424 0
M  V30 1977 H 168.697 -6.57662 2.62463 0
M  V30 1978 H 169.105 -5.50432 1.25238 0
M  V30 1979 N 168.503 -0.877838 -1.30888 0
M  V30 1980 C 169.749 -0.493426 -1.96706 0
M  V30 1981 C 170.082 0.953504 -1.6918 0
M  V30 1982 O 169.357 1.67266 -0.992594 0
M  V30 1983 C 169.64 -0.760429 -3.51979 0
M  V30 1984 C 169.493 -2.25747 -3.89048 0
M  V30 1985 C 170.812 -0.232148 -4.39487 0
M  V30 1986 H 167.931 -0.180746 -0.714493 0
M  V30 1987 H 170.573 -1.10052 -1.54882 0
M  V30 1988 H 168.723 -0.243715 -3.87735 0
M  V30 1989 H 170.395 -2.84204 -3.63354 0
M  V30 1990 H 168.638 -2.72694 -3.37373 0
M  V30 1991 H 169.309 -2.39491 -4.97341 0
M  V30 1992 H 171.785 -0.674314 -4.106 0
M  V30 1993 H 170.661 -0.448355 -5.47066 0
M  V30 1994 H 170.922 0.866297 -4.33529 0
M  V30 1995 N 169.982 1.44106 -0.638065 0
M  V30 1996 C 171.259 1.95453 -0.0759321 0
M  V30 1997 C 171.639 1.57984 1.40015 0
M  V30 1998 O 170.987 0.857361 2.11806 0
M  V30 1999 C 171.197 3.47655 -0.306132 0
M  V30 2000 C 172.545 4.24114 -0.203008 0
M  V30 2001 O 173.569 3.55405 -0.237871 0
M  V30 2002 O 172.428 5.46381 -0.113827 0
M  V30 2003 H 169.522 0.826797 0.0183332 0
M  V30 2004 H 172.068 1.54122 -0.710251 0
M  V30 2005 H 170.84 3.68 -1.3301 0
M  V30 2006 H 170.463 3.95949 0.361991 0
M  V30 2007 N 171.46 0.379036 1.52974 0
M  V30 2008 C 172.423 -0.448865 2.24762 0
M  V30 2009 C 173.423 -0.998689 1.26027 0
M  V30 2010 O 174.613 -0.882313 1.50203 0
M  V30 2011 C 171.745 -1.62872 2.99476 0
M  V30 2012 H 172.938 0.179491 2.99362 0
M  V30 2013 H 170.491 0.13096 1.5575 0
M  V30 2014 H 171.226 -2.29479 2.29151 0
M  V30 2015 H 171.011 -1.24128 3.71934 0
M  V30 2016 H 172.501 -2.2151 3.5401 0
M  V30 2017 N 172.938 -1.57226 0.108567 0
M  V30 2018 C 174.185 -1.94833 -0.551943 0
M  V30 2019 C 174.513 -0.991204 -1.67348 0
M  V30 2020 O 173.768 -0.0131878 -1.95696 0
M  V30 2021 C 174.067 -3.38911 -1.13463 0
M  V30 2022 C 173.733 -4.50696 -0.135509 0
M  V30 2023 C 172.395 -4.80998 0.139252 0
M  V30 2024 C 174.747 -5.18333 0.545957 0
M  V30 2025 C 172.075 -5.76259 1.10194 0
M  V30 2026 C 174.427 -6.14627 1.49721 0
M  V30 2027 C 173.091 -6.43327 1.78006 0
M  V30 2028 H 172.361 -0.712944 -0.20197 0
M  V30 2029 H 175.008 -1.90582 0.18726 0
M  V30 2030 H 173.313 -3.39805 -1.95037 0
M  V30 2031 H 175.01 -3.65317 -1.65362 0
M  V30 2032 H 171.6 -4.27087 -0.359846 0
M  V30 2033 H 175.784 -4.95087 0.346842 0
M  V30 2034 H 171.04 -5.96804 1.32795 0
M  V30 2035 H 175.214 -6.66126 2.03099 0
M  V30 2036 H 172.841 -7.1695 2.52759 0
M  V30 2037 N 174.416 0.165178 -1.56732 0
M  V30 2038 C 175.663 0.880807 -1.8234 0
M  V30 2039 C 175.991 1.81977 -0.686621 0
M  V30 2040 O 175.246 1.92971 0.325697 0
M  V30 2041 C 175.545 1.70405 -3.1416 0
M  V30 2042 C 175.211 0.913475 -4.4155 0
M  V30 2043 C 173.873 0.695303 -4.7615 0
M  V30 2044 C 176.225 0.359349 -5.1996 0
M  V30 2045 C 173.553 -0.0879947 -5.86634 0
M  V30 2046 C 175.905 -0.410893 -6.31264 0
M  V30 2047 C 174.569 -0.639808 -6.64427 0
M  V30 2048 H 173.839 0.32231 -0.667231 0
M  V30 2049 H 176.486 0.145402 -1.90947 0
M  V30 2050 H 174.791 2.50903 -3.00923 0
M  V30 2051 H 176.488 2.26091 -3.31186 0
M  V30 2052 H 173.078 1.09357 -4.14414 0
M  V30 2053 H 177.262 0.515228 -4.93618 0
M  V30 2054 H 172.518 -0.27503 -6.10781 0
M  V30 2055 H 176.692 -0.847494 -6.91224 0
M  V30 2056 H 174.319 -1.24864 -7.49875 0
M  V30 2057 N 175.894 1.51508 0.433938 0
M  V30 2058 C 176.841 1.73068 1.52696 0
M  V30 2059 C 177.811 0.572441 1.55924 0
M  V30 2060 O 178.996 0.807253 1.72882 0
M  V30 2061 C 176.136 1.86474 2.90381 0
M  V30 2062 C 175.249 3.14037 2.96656 0
M  V30 2063 C 174.384 3.18019 4.25485 0
M  V30 2064 C 173.423 4.39882 4.2564 0
M  V30 2065 N 172.56 4.41394 5.45999 0
M  V30 2066 H 177.4 2.66366 1.33615 0
M  V30 2067 H 174.937 1.32008 0.649018 0
M  V30 2068 H 176.895 1.92229 3.70275 0
M  V30 2069 H 175.525 0.965809 3.08013 0
M  V30 2070 H 174.577 3.17575 2.09404 0
M  V30 2071 H 175.889 4.0394 2.92633 0
M  V30 2072 H 175.043 3.22708 5.13755 0
M  V30 2073 H 173.782 2.2601 4.3217 0
M  V30 2074 H 172.787 4.35366 3.35763 0
M  V30 2075 H 174.012 5.33159 4.20617 0
M  V30 2076 H 171.958 3.52258 5.53399 0
M  V30 2077 H 171.875 5.25111 5.4387 0
M  V30 2078 H 173.143 4.50281 6.36292 0
M  V30 2079 N 177.372 -0.689602 1.41712 0
M  V30 2080 C 178.302 -1.81577 1.46806 0
M  V30 2081 C 179.283 -1.66945 0.326105 0
M  V30 2082 O 180.468 -1.86588 0.538377 0
M  V30 2083 C 177.598 -3.19762 1.35535 0
M  V30 2084 C 176.552 -3.49107 2.47605 0
M  V30 2085 C 175.878 -4.86711 2.21397 0
M  V30 2086 C 177.178 -3.47483 3.89939 0
M  V30 2087 H 178.872 -1.7757 2.41058 0
M  V30 2088 H 176.418 -0.852887 1.16025 0
M  V30 2089 H 178.371 -3.98263 1.3771 0
M  V30 2090 H 177.095 -3.24409 0.377708 0
M  V30 2091 H 175.754 -2.72959 2.44722 0
M  V30 2092 H 175.402 -4.8799 1.21961 0
M  V30 2093 H 175.102 -5.0731 2.96497 0
M  V30 2094 H 176.626 -5.67515 2.25297 0
M  V30 2095 H 178.04 -4.1598 3.94505 0
M  V30 2096 H 176.437 -3.79615 4.64771 0
M  V30 2097 H 177.507 -2.46341 4.17665 0
M  V30 2098 N 178.85 -1.27639 -0.924453 0
M  V30 2099 C 180.261 -1.12834 -1.48746 0
M  V30 2100 C 180.612 0.285505 -1.94112 0
M  V30 2101 O 179.737 1.17874 -1.81479 0
M  V30 2102 C 180.332 -2.04217 -2.70334 0
M  V30 2103 C 178.891 -1.93509 -3.22848 0
M  V30 2104 C 178.038 -1.96583 -1.95577 0
M  V30 2105 H 180.989 -1.40484 -0.738233 0
M  V30 2106 H 181.01 -1.59989 -3.4523 0
M  V30 2107 H 180.522 -3.07111 -2.37285 0
M  V30 2108 H 178.623 -0.936131 -3.60649 0
M  V30 2109 H 178.736 -2.79917 -3.88823 0
M  V30 2110 H 177.1 -1.4085 -2.12211 0
M  V30 2111 H 177.883 -3.01137 -1.64837 0
M  V30 2112 N 180.328 1.1314 -1.09713 0
M  V30 2113 C 181.605 1.80762 -0.747302 0
M  V30 2114 C 181.985 1.96663 0.767265 0
M  V30 2115 O 181.333 1.53706 1.69076 0
M  V30 2116 C 181.543 3.15606 -1.48975 0
M  V30 2117 C 182.891 3.90914 -1.65746 0
M  V30 2118 O 183.915 3.25239 -1.45251 0
M  V30 2119 O 182.774 5.08718 -1.9967 0
M  V30 2120 H 179.868 0.782103 -0.268782 0
M  V30 2121 H 182.414 1.20041 -1.19951 0
M  V30 2122 H 181.186 2.99278 -2.52088 0
M  V30 2123 H 180.809 3.84029 -1.02991 0
M  V30 2124 N 181.806 0.884767 1.30421 0
M  V30 2125 C 183.055 0.499164 1.95426 0
M  V30 2126 C 183.368 -0.95645 1.70621 0
M  V30 2127 O 184.574 -1.44889 2.29607 0
M  V30 2128 C 183.03 0.84177 3.49917 0
M  V30 2129 C 182.638 2.31514 3.83543 0
M  V30 2130 C 184.382 0.525355 4.21237 0
M  V30 2131 C 182.289 2.59939 5.31212 0
M  V30 2132 H 181.219 0.182944 0.73147 0
M  V30 2133 H 183.87 1.07971 1.48373 0
M  V30 2134 H 182.252 0.190311 3.95542 0
M  V30 2135 H 183.426 3.0109 3.48829 0
M  V30 2136 H 181.741 2.59907 3.25326 0
M  V30 2137 H 184.338 0.714762 5.29901 0
M  V30 2138 H 184.681 -0.535222 4.12845 0
M  V30 2139 H 185.214 1.134 3.81294 0
M  V30 2140 H 181.953 3.64736 5.44654 0
M  V30 2141 H 181.473 1.94972 5.67227 0
M  V30 2142 H 183.152 2.45429 5.98643 0
M  V30 2143 N 183.284 -1.43765 0.645699 0
M  V30 2144 C 184.194 -2.34544 -0.0512957 0
M  V30 2145 C 185.21 -1.53455 -0.82022 0
M  V30 2146 O 186.386 -1.86133 -0.769176 0
M  V30 2147 C 183.451 -3.31636 -1.01087 0
M  V30 2148 C 182.512 -4.2863 -0.239712 0
M  V30 2149 C 181.745 -5.21084 -1.15358 0
M  V30 2150 O 181.968 -5.1779 -2.39269 0
M  V30 2151 O 180.902 -5.98593 -0.630038 0
M  V30 2152 H 184.728 -2.95624 0.695718 0
M  V30 2153 H 182.313 -1.43781 0.405882 0
M  V30 2154 H 184.195 -3.9136 -1.56254 0
M  V30 2155 H 182.87 -2.73069 -1.73824 0
M  V30 2156 H 181.777 -3.72408 0.355356 0
M  V30 2157 H 183.11 -4.90157 0.447936 0
M  V30 2158 N 184.763 -0.387143 -1.52771 0
M  V30 2159 C 186.174 0.0873634 -1.86495 0
M  V30 2160 C 186.525 1.46336 -1.30691 0
M  V30 2161 O 185.65 2.068 -0.637409 0
M  V30 2162 C 186.245 0.165305 -3.38396 0
M  V30 2163 C 184.804 0.584101 -3.7184 0
M  V30 2164 C 183.951 -0.255279 -2.76122 0
M  V30 2165 H 186.902 -0.605104 -1.46711 0
M  V30 2166 H 186.923 0.984848 -3.67534 0
M  V30 2167 H 186.435 -0.836301 -3.78982 0
M  V30 2168 H 184.536 1.59315 -3.36823 0
M  V30 2169 H 184.649 0.343749 -4.77865 0
M  V30 2170 H 183.013 0.279126 -2.53166 0
M  V30 2171 H 183.796 -1.25482 -3.19545 0
M  V30 2172 N 186.241 1.57166 -0.116904 0
M  V30 2173 C 187.466 1.999 0.55271 0
M  V30 2174 C 187.891 0.996039 1.59564 0
M  V30 2175 O 187.249 -0.032556 1.81271 0
M  V30 2176 C 187.297 3.4152 1.15742 0
M  V30 2177 O 186.401 3.44106 2.27299 0
M  V30 2178 H 185.742 0.649447 0.138258 0
M  V30 2179 H 188.272 2.03573 -0.204759 0
M  V30 2180 H 188.282 3.79684 1.49346 0
M  V30 2181 H 186.957 4.14034 0.393493 0
M  V30 2182 H 185.534 3.17759 1.9515 0
M  V30 2183 N 187.719 -0.156864 1.56817 0
M  V30 2184 C 189.13 -0.717916 1.72345 0
M  V30 2185 C 189.481 -1.82124 0.729747 0
M  V30 2186 O 188.606 -2.16141 -0.105781 0
M  V30 2187 C 189.201 -1.30904 3.12489 0
M  V30 2188 C 187.76 -1.81676 3.29653 0
M  V30 2189 C 186.907 -0.701349 2.68284 0
M  V30 2190 H 189.858 0.0686989 1.58551 0
M  V30 2191 H 189.879 -2.17882 3.11942 0
M  V30 2192 H 189.391 -0.505796 3.8479 0
M  V30 2193 H 187.492 -2.64598 2.62333 0
M  V30 2194 H 187.605 -1.95226 4.3752 0
M  V30 2195 H 185.969 -1.12548 2.28484 0
M  V30 2196 H 186.752 0.0902846 3.43181 0
M  V30 2197 N 189.197 -1.51736 -0.425897 0
M  V30 2198 C 190.127 -1.76827 -1.52494 0
M  V30 2199 C 191.108 -0.618524 -1.58456 0
M  V30 2200 O 192.293 -0.862416 -1.74 0
M  V30 2201 C 189.423 -1.90374 -2.90474 0
M  V30 2202 C 188.377 -3.0588 -2.99369 0
M  V30 2203 C 187.703 -3.04625 -4.3944 0
M  V30 2204 C 189.003 -4.45644 -2.72394 0
M  V30 2205 H 190.697 -2.68855 -1.31748 0
M  V30 2206 H 188.243 -1.29372 -0.632362 0
M  V30 2207 H 190.196 -2.0651 -3.6733 0
M  V30 2208 H 188.92 -0.95004 -3.12477 0
M  V30 2209 H 187.579 -2.89467 -2.24954 0
M  V30 2210 H 187.227 -2.0701 -4.58428 0
M  V30 2211 H 186.927 -3.82195 -4.46319 0
M  V30 2212 H 188.451 -3.22869 -5.18255 0
M  V30 2213 H 189.865 -4.62348 -3.38979 0
M  V30 2214 H 188.262 -5.25006 -2.9067 0
M  V30 2215 H 189.332 -4.54893 -1.67929 0
M  V30 2216 N 190.675 0.682077 -1.42076 0
M  V30 2217 C 192.091 0.994324 -1.24841 0
M  V30 2218 C 192.291 2.0096 -0.147389 0
M  V30 2219 O 191.347 2.47822 0.483782 0
M  V30 2220 C 192.66 1.50607 -2.60265 0
M  V30 2221 C 194.208 1.62421 -2.6756 0
M  V30 2222 C 194.683 2.16994 -4.03333 0
M  V30 2223 N 196.174 2.24337 -4.0525 0
M  V30 2224 C 196.909 2.67621 -5.07116 0
M  V30 2225 N 196.405 3.1041 -6.19368 0
M  V30 2226 N 198.198 2.67305 -4.94474 0
M  V30 2227 H 190.349 0.00973908 -2.12398 0
M  V30 2228 H 192.612 0.0668593 -0.945639 0
M  V30 2229 H 192.318 0.834583 -3.41654 0
M  V30 2230 H 192.192 2.48602 -2.83684 0
M  V30 2231 H 194.579 2.28678 -1.86521 0
M  V30 2232 H 194.66 0.629352 -2.47937 0
M  V30 2233 H 194.304 1.51349 -4.84826 0
M  V30 2234 H 194.234 3.17258 -4.20304 0
M  V30 2235 H 196.725 1.94158 -3.24209 0
M  V30 2236 H 197.038 3.42103 -6.92954 0
M  V30 2237 H 195.383 3.08286 -6.22884 0
M  V30 2238 H 198.574 2.33233 -4.05857 0
M  V30 2239 H 198.747 3.00718 -5.73997 0
M  V30 2240 N 192.153 1.28127 0.917671 0
M  V30 2241 C 193.381 1.17892 1.70026 0
M  V30 2242 C 193.796 -0.262958 1.8696 0
M  V30 2243 O 193.153 -1.17811 1.3938 0
M  V30 2244 C 193.204 1.86872 3.09453 0
M  V30 2245 O 192.925 3.25428 2.93306 0
M  V30 2246 C 194.426 1.8289 4.03815 0
M  V30 2247 H 191.646 0.40942 0.531617 0
M  V30 2248 H 194.19 1.69181 1.14883 0
M  V30 2249 H 192.345 1.39464 3.61426 0
M  V30 2250 H 192.759 3.59918 3.81523 0
M  V30 2251 H 194.233 2.35751 4.99125 0
M  V30 2252 H 194.71 0.800412 4.31845 0
M  V30 2253 H 195.316 2.29959 3.57769 0
M  V30 2254 N 193.631 -1.12557 1.10312 0
M  V30 2255 C 194.878 -1.84038 0.844759 0
M  V30 2256 C 195.206 -1.84026 -0.629668 0
M  V30 2257 O 194.461 -1.28026 -1.48013 0
M  V30 2258 C 194.76 -3.31462 1.33669 0
M  V30 2259 C 194.426 -3.51647 2.82232 0
M  V30 2260 C 193.088 -3.56864 3.22802 0
M  V30 2261 C 195.44 -3.58867 3.77974 0
M  V30 2262 C 192.768 -3.66844 4.57867 0
M  V30 2263 C 195.12 -3.70375 5.1284 0
M  V30 2264 C 193.784 -3.73848 5.52986 0
M  V30 2265 H 193.054 -0.673444 0.309119 0
M  V30 2266 H 195.701 -1.32824 1.37949 0
M  V30 2267 H 194.006 -3.85091 0.721949 0
M  V30 2268 H 195.703 -3.85236 1.11329 0
M  V30 2269 H 192.293 -3.48249 2.49842 0
M  V30 2270 H 196.477 -3.54107 3.47738 0
M  V30 2271 H 191.733 -3.67804 4.88396 0
M  V30 2272 H 195.907 -3.74904 5.86873 0
M  V30 2273 H 193.534 -3.81333 6.57639 0
M  V30 2274 N 195.109 -0.891671 -1.2995 0
M  V30 2275 C 196.056 -0.361736 -2.27948 0
M  V30 2276 C 197.026 0.551761 -1.56668 0
M  V30 2277 O 198.211 0.478736 -1.84696 0
M  V30 2278 C 195.351 0.411825 -3.42634 0
M  V30 2279 C 194.464 -0.531651 -4.28716 0
M  V30 2280 C 193.599 0.258167 -5.30572 0
M  V30 2281 C 192.638 -0.680349 -6.08307 0
M  V30 2282 N 191.775 0.0745613 -7.0206 0
M  V30 2283 H 196.615 -1.20254 -2.72659 0
M  V30 2284 H 194.152 -0.604352 -1.34112 0
M  V30 2285 H 196.11 0.876304 -4.07893 0
M  V30 2286 H 194.74 1.21715 -2.98974 0
M  V30 2287 H 193.792 -1.11463 -3.63703 0
M  V30 2288 H 195.104 -1.25038 -4.82874 0
M  V30 2289 H 194.258 0.784204 -6.0161 0
M  V30 2290 H 192.997 1.01008 -4.77126 0
M  V30 2291 H 192.002 -1.21796 -5.3614 0
M  V30 2292 H 193.227 -1.43145 -6.63842 0
M  V30 2293 H 191.173 0.808883 -6.50994 0
M  V30 2294 H 191.09 -0.584409 -7.53738 0
M  V30 2295 H 192.358 0.581123 -7.77331 0
M  V30 2296 N 196.587 1.43421 -0.653314 0
M  V30 2297 C 197.55 2.29182 0.0287951 0
M  V30 2298 C 198.55 1.42213 0.750465 0
M  V30 2299 O 199.74 1.63843 0.591701 0
M  V30 2300 C 196.872 3.24278 1.05151 0
M  V30 2301 H 198.065 2.90985 -0.725786 0
M  V30 2302 H 195.618 1.50702 -0.414545 0
M  V30 2303 H 196.353 2.6737 1.83532 0
M  V30 2304 H 196.138 3.88396 0.537687 0
M  V30 2305 H 197.628 3.88647 1.52786 0
M  V30 2306 N 198.065 0.39524 1.52563 0
M  V30 2307 C 199.312 -0.185044 2.01653 0
M  V30 2308 C 199.64 -1.46317 1.28146 0
M  V30 2309 O 198.895 -1.9213 0.372074 0
M  V30 2310 C 199.194 -0.493444 3.53977 0
M  V30 2311 C 198.86 0.69384 4.4553 0
M  V30 2312 C 197.522 1.01954 4.70275 0
M  V30 2313 C 199.874 1.48785 4.99512 0
M  V30 2314 C 197.202 2.14069 5.46252 0
M  V30 2315 C 199.554 2.59965 5.76716 0
M  V30 2316 C 198.218 2.93037 5.99738 0
M  V30 2317 H 197.488 -0.0677123 0.7379 0
M  V30 2318 H 200.135 0.533807 1.8391 0
M  V30 2319 H 198.44 -1.29369 3.69825 0
M  V30 2320 H 200.137 -0.955163 3.89458 0
M  V30 2321 H 196.727 0.429987 4.26438 0
M  V30 2322 H 200.911 1.24946 4.80315 0
M  V30 2323 H 196.167 2.40056 5.62302 0
M  V30 2324 H 200.341 3.21887 6.17545 0
M  V30 2325 H 197.968 3.8003 6.58393 0
M  V30 2326 N 199.544 -1.57102 0.125237 0
M  V30 2327 C 200.491 -2.15641 -0.822655 0
M  V30 2328 C 201.461 -1.08313 -1.25927 0
M  V30 2329 O 202.646 -1.36251 -1.33567 0
M  V30 2330 C 199.786 -2.76504 -2.06494 0
M  V30 2331 C 198.899 -3.98158 -1.67612 0
M  V30 2332 C 198.034 -4.47088 -2.86854 0
M  V30 2333 C 197.073 -5.6126 -2.44242 0
M  V30 2334 N 196.21 -6.04905 -3.56419 0
M  V30 2335 H 201.05 -2.96313 -0.316625 0
M  V30 2336 H 198.587 -1.46388 -0.144588 0
M  V30 2337 H 200.545 -3.09925 -2.79289 0
M  V30 2338 H 199.175 -1.98512 -2.54545 0
M  V30 2339 H 198.227 -3.70858 -0.846661 0
M  V30 2340 H 199.539 -4.80934 -1.32301 0
M  V30 2341 H 198.693 -4.82451 -3.67867 0
M  V30 2342 H 197.432 -3.63275 -3.25396 0
M  V30 2343 H 196.437 -5.25495 -1.61663 0
M  V30 2344 H 197.662 -6.46843 -2.0681 0
M  V30 2345 H 195.608 -5.24032 -3.94623 0
M  V30 2346 H 195.525 -6.82552 -3.25051 0
M  V30 2347 H 196.793 -6.44907 -4.37853 0
M  V30 2348 N 201.022 0.148545 -1.56898 0
M  V30 2349 C 202.268 0.862694 -1.83536 0
M  V30 2350 C 202.601 1.80889 -0.706604 0
M  V30 2351 O 201.876 1.92328 0.289885 0
M  V30 2352 C 202.159 1.63853 -3.20662 0
M  V30 2353 C 202.012 0.713925 -4.44098 0
M  V30 2354 C 203.331 2.60133 -3.54991 0
M  V30 2355 H 200.45 0.312179 -0.667618 0
M  V30 2356 H 203.092 0.127953 -1.89569 0
M  V30 2357 H 201.242 2.26489 -3.1565 0
M  V30 2358 H 202.914 0.098686 -4.61194 0
M  V30 2359 H 201.157 0.0234019 -4.33794 0
M  V30 2360 H 201.828 1.29278 -5.36648 0
M  V30 2361 H 204.304 2.07616 -3.60603 0
M  V30 2362 H 203.18 3.11468 -4.51972 0
M  V30 2363 H 203.441 3.41417 -2.80868 0
M  V30 2364 N 202.5 1.5196 0.417844 0
M  V30 2365 C 203.748 1.65263 1.16329 0
M  V30 2366 C 204.069 0.380634 1.91249 0
M  V30 2367 O 203.339 -0.604214 1.86349 0
M  V30 2368 H 201.919 0.60912 0.432414 0
M  V30 2369 H 204.581 1.88969 0.477162 0
M  V30 2370 H 203.677 2.4896 1.88217 0
M  V30 2371 N 203.978 -0.674533 1.42435 0
M  V30 2372 C 205.206 -1.46283 1.46317 0
M  V30 2373 C 205.621 -1.88653 0.0745836 0
M  V30 2374 O 204.978 -1.58151 -0.91074 0
M  V30 2375 C 205.029 -2.71178 2.3905 0
M  V30 2376 O 204.75 -2.30586 3.72507 0
M  V30 2377 C 206.251 -3.64738 2.51955 0
M  V30 2378 H 203.471 -0.450104 0.497642 0
M  V30 2379 H 206.015 -0.828792 1.86953 0
M  V30 2380 H 204.17 -3.3077 2.01667 0
M  V30 2381 H 204.584 -3.11241 4.22172 0
M  V30 2382 H 206.058 -4.49096 3.20962 0
M  V30 2383 H 206.535 -4.10656 1.55752 0
M  V30 2384 H 207.141 -3.11038 2.90061 0
M  V30 2385 N 205.456 -1.28612 -0.910864 0
M  V30 2386 C 206.366 -1.14643 -2.0468 0
M  V30 2387 C 207.382 -0.0723121 -1.7385 0
M  V30 2388 O 208.558 -0.282178 -1.99413 0
M  V30 2389 C 205.623 -0.812561 -3.37044 0
M  V30 2390 C 204.684 -1.96935 -3.81465 0
M  V30 2391 C 203.917 -1.65131 -5.07511 0
M  V30 2392 O 204.14 -0.567013 -5.67575 0
M  V30 2393 O 203.074 -2.49585 -5.47714 0
M  V30 2394 H 206.9 -2.1001 -2.19384 0
M  V30 2395 H 204.485 -1.07958 -1.03274 0
M  V30 2396 H 206.367 -0.640441 -4.16505 0
M  V30 2397 H 205.042 0.111426 -3.23508 0
M  V30 2398 H 203.949 -2.19664 -3.02818 0
M  V30 2399 H 205.282 -2.87414 -3.99567 0
M  V30 2400 N 206.934 1.1197 -1.10907 0
M  V30 2401 C 208.35 1.35591 -0.841852 0
M  V30 2402 C 208.55 1.94233 0.536246 0
M  V30 2403 O 207.606 2.1717 1.28816 0
M  V30 2404 C 208.919 2.29284 -1.94549 0
M  V30 2405 C 210.467 2.42862 -1.97451 0
M  V30 2406 C 210.942 3.39873 -3.07002 0
M  V30 2407 N 212.433 3.47433 -3.06341 0
M  V30 2408 C 213.168 4.22421 -3.87748 0
M  V30 2409 N 212.664 5.00432 -4.79103 0
M  V30 2410 N 214.457 4.17876 -3.75946 0
M  V30 2411 H 206.608 0.722664 -1.99728 0
M  V30 2412 H 208.871 0.380635 -0.868229 0
M  V30 2413 H 208.577 1.93378 -2.93765 0
M  V30 2414 H 208.451 3.29452 -1.83688 0
M  V30 2415 H 210.838 2.78046 -0.988645 0
M  V30 2416 H 210.919 1.42566 -2.12388 0
M  V30 2417 H 210.563 3.05417 -4.05811 0
M  V30 2418 H 210.493 4.40011 -2.89306 0
M  V30 2419 H 212.984 2.91784 -2.40147 0
M  V30 2420 H 213.297 5.55002 -5.37766 0
M  V30 2421 H 211.642 4.99612 -4.83128 0
M  V30 2422 H 214.833 3.56016 -3.03924 0
M  V30 2423 H 215.006 4.76061 -4.39624 0
M  V30 2424 N 208.412 0.89855 1.29475 0
M  V30 2425 C 209.658 0.534065 1.96263 0
M  V30 2426 C 210.013 -0.909415 1.69551 0
M  V30 2427 O 209.306 -1.63596 0.997349 0
M  V30 2428 C 209.5 0.761398 3.49195 0
M  V30 2429 C 209.329 2.22542 3.90775 0
M  V30 2430 C 208.099 2.87264 4.15701 0
M  V30 2431 C 210.297 3.20051 4.02581 0
M  V30 2432 N 208.279 4.24121 4.4384 0
M  V30 2433 C 209.65 4.42023 4.34759 0
M  V30 2434 C 211.705 3.15657 3.85052 0
M  V30 2435 C 210.408 5.60161 4.51235 0
M  V30 2436 C 212.434 4.33078 4.02737 0
M  V30 2437 C 211.796 5.5382 4.35273 0
M  V30 2438 H 207.895 0.245013 0.742625 0
M  V30 2439 H 210.479 1.15912 1.56437 0
M  V30 2440 H 208.65 0.165732 3.88046 0
M  V30 2441 H 210.382 0.362462 4.03074 0
M  V30 2442 H 207.137 2.38064 4.09417 0
M  V30 2443 H 207.561 4.94839 4.6202 0
M  V30 2444 H 212.203 2.23396 3.58962 0
M  V30 2445 H 209.921 6.52913 4.76162 0
M  V30 2446 H 213.507 4.31163 3.90628 0
M  V30 2447 H 212.387 6.43166 4.48672 0
M  V30 2448 N 209.89 -1.43072 0.660911 0
M  V30 2449 C 211.136 -2.02545 0.186337 0
M  V30 2450 C 211.491 -1.51253 -1.18913 0
M  V30 2451 O 210.784 -0.699167 -1.78388 0
M  V30 2452 C 210.978 -3.57103 0.145563 0
M  V30 2453 C 210.807 -4.23393 1.51554 0
M  V30 2454 C 209.577 -4.59144 2.10984 0
M  V30 2455 C 211.775 -4.51897 2.45548 0
M  V30 2456 N 209.757 -5.10545 3.40907 0
M  V30 2457 C 211.128 -5.04698 3.6011 0
M  V30 2458 C 213.183 -4.33872 2.44253 0
M  V30 2459 C 211.886 -5.41371 4.73613 0
M  V30 2460 C 213.912 -4.71612 3.56842 0
M  V30 2461 C 213.274 -5.24553 4.70131 0
M  V30 2462 H 209.373 -0.773823 0.112792 0
M  V30 2463 H 211.957 -1.74137 0.870885 0
M  V30 2464 H 210.128 -3.85059 -0.508353 0
M  V30 2465 H 211.86 -4.03264 -0.340598 0
M  V30 2466 H 208.615 -4.4444 1.63615 0
M  V30 2467 H 209.039 -5.40689 4.07411 0
M  V30 2468 H 213.681 -3.92208 1.579 0
M  V30 2469 H 211.399 -5.81975 5.60652 0
M  V30 2470 H 214.985 -4.59354 3.57051 0
M  V30 2471 H 213.865 -5.53213 5.5581 0
M  V30 2472 N 211.368 -0.403325 -1.52352 0
M  V30 2473 C 212.298 0.416205 -2.29761 0
M  V30 2474 C 213.279 1.05123 -1.33728 0
M  V30 2475 O 214.464 1.06134 -1.62632 0
M  V30 2476 C 211.594 1.53624 -3.11475 0
M  V30 2477 C 210.548 1.02653 -4.15507 0
M  V30 2478 C 209.874 2.23971 -4.85532 0
M  V30 2479 C 211.174 0.08463 -5.22231 0
M  V30 2480 H 212.868 -0.229701 -2.98518 0
M  V30 2481 H 210.414 -0.111913 -1.43564 0
M  V30 2482 H 212.367 2.1165 -3.64393 0
M  V30 2483 H 211.091 2.20994 -2.40477 0
M  V30 2484 H 209.75 0.46871 -3.63591 0
M  V30 2485 H 209.398 2.89883 -4.11068 0
M  V30 2486 H 209.098 1.90521 -5.55856 0
M  V30 2487 H 210.622 2.82614 -5.41259 0
M  V30 2488 H 212.036 0.573509 -5.70424 0
M  V30 2489 H 210.433 -0.160783 -5.99885 0
M  V30 2490 H 211.503 -0.86237 -4.7717 0
M  V30 2491 N 212.846 1.57033 -0.133567 0
M  V30 2492 C 214.123 1.87256 0.56522 0
M  V30 2493 C 214.503 1.03726 1.83859 0
M  V30 2494 O 213.851 0.120247 2.28183 0
M  V30 2495 C 214.061 3.3865 0.843636 0
M  V30 2496 C 215.409 4.07574 1.19032 0
M  V30 2497 O 216.433 3.43752 0.933429 0
M  V30 2498 O 215.292 5.20259 1.67312 0
M  V30 2499 H 212.386 0.775678 0.286796 0
M  V30 2500 H 214.932 1.68855 -0.169168 0
M  V30 2501 H 213.704 3.91257 -0.0581149 0
M  V30 2502 H 213.327 3.62532 1.63268 0
M  V30 2503 N 214.325 -0.140222 1.56975 0
M  V30 2504 C 215.573 -0.850005 1.83356 0
M  V30 2505 C 215.894 -1.81399 0.71551 0
M  V30 2506 O 215.164 -1.94136 -0.262294 0
M  V30 2507 H 213.744 -0.316886 0.676456 0
M  V30 2508 H 216.406 -0.132608 1.94448 0
M  V30 2509 H 215.502 -1.40814 2.78528 0
M  V30 2510 N 215.803 -1.52179 -0.40978 0
M  V30 2511 C 217.214 -1.58377 -0.988615 0
M  V30 2512 C 217.565 -0.423879 -1.91566 0
M  V30 2513 O 216.69 0.455844 -2.11544 0
M  V30 2514 C 217.285 -2.87044 -1.79976 0
M  V30 2515 C 215.844 -2.95722 -2.32863 0
M  V30 2516 C 214.991 -2.53309 -1.12828 0
M  V30 2517 H 217.942 -1.57558 -0.190039 0
M  V30 2518 H 217.963 -2.7236 -2.65707 0
M  V30 2519 H 217.475 -3.71444 -1.12478 0
M  V30 2520 H 215.576 -2.15814 -3.03735 0
M  V30 2521 H 215.689 -3.99951 -2.63773 0
M  V30 2522 H 214.053 -2.07142 -1.48204 0
M  V30 2523 H 214.836 -3.40082 -0.46897 0
M  V30 2524 N 217.281 0.66697 -1.42791 0
M  V30 2525 C 218.211 1.79218 -1.49677 0
M  V30 2526 C 219.192 1.66405 -0.352623 0
M  V30 2527 O 220.377 1.85708 -0.567993 0
M  V30 2528 C 217.507 3.17565 -1.40605 0
M  V30 2529 C 216.461 3.45124 -2.53127 0
M  V30 2530 C 215.787 4.83127 -2.29112 0
M  V30 2531 C 217.087 3.41236 -3.95418 0
M  V30 2532 H 218.781 1.73713 -2.43853 0
M  V30 2533 H 216.327 0.83432 -1.17367 0
M  V30 2534 H 218.28 3.96022 -1.44029 0
M  V30 2535 H 217.004 3.23767 -0.429271 0
M  V30 2536 H 215.663 2.69031 -2.49034 0
M  V30 2537 H 215.311 4.85988 -1.29709 0
M  V30 2538 H 215.011 5.02528 -3.04531 0
M  V30 2539 H 216.535 5.63859 -2.34297 0
M  V30 2540 H 217.949 4.09651 -4.01073 0
M  V30 2541 H 216.346 3.72173 -4.70752 0
M  V30 2542 H 217.416 2.39665 -4.21532 0
M  V30 2543 N 218.759 1.29093 0.90403 0
M  V30 2544 C 220.005 1.16986 1.65656 0
M  V30 2545 C 220.338 -0.278925 1.92186 0
M  V30 2546 O 219.613 -1.2019 1.5292 0
M  V30 2547 C 219.896 1.97908 3.0084 0
M  V30 2548 C 219.749 3.50903 2.81403 0
M  V30 2549 C 221.068 1.80208 4.01513 0
M  V30 2550 H 218.187 0.426346 0.601164 0
M  V30 2551 H 220.829 1.58518 1.04747 0
M  V30 2552 H 218.979 1.62616 3.52829 0
M  V30 2553 H 220.651 3.96153 2.36348 0
M  V30 2554 H 218.894 3.76045 2.1627 0
M  V30 2555 H 219.565 4.02791 3.77443 0
M  V30 2556 H 222.041 2.11025 3.58619 0
M  V30 2557 H 220.917 2.39184 4.94047 0
M  V30 2558 H 221.178 0.756119 4.35586 0
M  V30 2559 N 220.237 -1.11381 1.11499 0
M  V30 2560 C 221.187 -2.15555 0.74298 0
M  V30 2561 C 222.171 -1.58894 -0.253276 0
M  V30 2562 O 223.363 -1.76897 -0.0602918 0
M  V30 2563 C 220.492 -3.42782 0.188481 0
M  V30 2564 C 219.578 -4.064 1.21244 0
M  V30 2565 N 219.969 -4.44864 2.40685 0
M  V30 2566 C 218.267 -4.3333 1.05552 0
M  V30 2567 C 218.968 -4.94715 3.05994 0
M  V30 2568 N 217.944 -4.90909 2.33472 0
M  V30 2569 H 221.746 -2.43074 1.65203 0
M  V30 2570 H 219.26 -1.28401 0.994329 0
M  V30 2571 H 221.257 -4.16789 -0.0961693 0
M  V30 2572 H 219.917 -3.16727 -0.715149 0
M  V30 2573 H 220.928 -4.36876 2.78136 0
M  V30 2574 H 217.605 -4.1698 0.208372 0
M  V30 2575 H 218.995 -5.34103 4.07656 0
M  V30 2576 N 221.715 -0.905404 -1.28997 0
M  V30 2577 C 222.961 -0.535039 -1.95615 0
M  V30 2578 C 223.294 0.917404 -1.71165 0
M  V30 2579 O 222.569 1.65123 -1.02785 0
M  V30 2580 C 222.852 -0.834918 -3.50287 0
M  V30 2581 C 222.705 -2.33948 -3.84172 0
M  V30 2582 C 224.024 -0.325318 -4.38896 0
M  V30 2583 H 221.143 -0.195861 -0.710498 0
M  V30 2584 H 223.785 -1.13313 -1.52513 0
M  V30 2585 H 221.935 -0.325904 -3.87131 0
M  V30 2586 H 223.607 -2.91847 -3.57243 0
M  V30 2587 H 221.85 -2.79789 -3.31513 0
M  V30 2588 H 222.521 -2.49987 -4.92149 0
M  V30 2589 H 224.997 -0.761256 -4.09077 0
M  V30 2590 H 223.873 -0.564295 -5.45992 0
M  V30 2591 H 224.134 0.774144 -4.35269 0
M  V30 2592 N 223.193 1.4272 -0.668489 0
M  V30 2593 C 224.14 2.30796 0.0137489 0
M  V30 2594 C 225.11 1.4561 0.799177 0
M  V30 2595 O 226.295 1.74453 0.772702 0
M  V30 2596 C 223.435 3.31377 0.963507 0
M  V30 2597 C 222.548 4.31655 0.172569 0
M  V30 2598 C 221.683 5.19312 1.1175 0
M  V30 2599 C 220.722 6.11274 0.317886 0
M  V30 2600 N 219.859 6.91504 1.2152 0
M  V30 2601 H 224.699 2.88585 -0.743161 0
M  V30 2602 H 222.236 1.42154 -0.378226 0
M  V30 2603 H 224.194 3.88214 1.52792 0
M  V30 2604 H 222.824 2.75202 1.68712 0
M  V30 2605 H 221.876 3.76988 -0.508374 0
M  V30 2606 H 223.188 4.96779 -0.448527 0
M  V30 2607 H 222.342 5.80851 1.75206 0
M  V30 2608 H 221.081 4.5435 1.77249 0
M  V30 2609 H 220.086 5.48809 -0.329918 0
M  V30 2610 H 221.311 6.78283 -0.332917 0
M  V30 2611 H 219.257 6.29176 1.85671 0
M  V30 2612 H 219.174 7.53209 0.649036 0
M  V30 2613 H 220.442 7.57535 1.83742 0
M  V30 2614 N 224.671 0.411399 1.52136 0
M  V30 2615 C 225.896 -0.165538 2.06738 0
M  V30 2616 C 226.321 -1.379 1.27926 0
M  V30 2617 O 225.679 -1.78628 0.310114 0
M  V30 2618 C 225.727 -0.492124 3.57226 0
M  V30 2619 O 224.831 -1.58276 3.80818 0
M  V30 2620 H 224.172 -0.0132132 0.663869 0
M  V30 2621 H 226.702 0.585253 1.96051 0
M  V30 2622 H 226.712 -0.750104 4.01045 0
M  V30 2623 H 225.387 0.394922 4.14021 0
M  V30 2624 H 223.964 -1.31677 3.48877 0
M  V30 2625 N 226.149 -1.5696 0.141893 0
M  V30 2626 C 227.079 -2.19516 -0.795936 0
M  V30 2627 C 228.06 -1.14187 -1.26077 0
M  V30 2628 O 229.245 -1.42511 -1.31925 0
M  V30 2629 C 226.375 -2.81272 -2.03723 0
M  V30 2630 C 225.329 -3.92384 -1.70936 0
M  V30 2631 C 224.655 -4.41052 -3.02287 0
M  V30 2632 C 225.955 -5.13403 -0.959954 0
M  V30 2633 H 227.649 -2.98138 -0.274596 0
M  V30 2634 H 225.195 -1.43406 -0.130636 0
M  V30 2635 H 227.148 -3.237 -2.69808 0
M  V30 2636 H 225.872 -1.99973 -2.58221 0
M  V30 2637 H 224.531 -3.50566 -1.07232 0
M  V30 2638 H 224.179 -3.56582 -3.54765 0
M  V30 2639 H 223.879 -5.15993 -2.81114 0
M  V30 2640 H 225.403 -4.86146 -3.69451 0
M  V30 2641 H 226.817 -5.52706 -1.52279 0
M  V30 2642 H 225.214 -5.94073 -0.848357 0
M  V30 2643 H 226.284 -4.84875 0.0492434 0
M  V30 2644 N 227.627 0.131896 -1.57047 0
M  V30 2645 C 228.875 0.840269 -1.83804 0
M  V30 2646 C 229.196 1.81017 -0.72512 0
M  V30 2647 O 228.466 1.94272 0.251995 0
M  V30 2648 H 227.046 0.313294 -0.678127 0
M  V30 2649 H 229.708 0.122294 -1.94516 0
M  V30 2650 H 228.804 1.39335 -2.79271 0
M  V30 2651 N 229.106 1.52395 0.401703 0
M  V30 2652 C 230.016 1.7917 1.51444 0
M  V30 2653 C 231.032 0.677691 1.6026 0
M  V30 2654 O 232.208 0.963909 1.76835 0
M  V30 2655 C 229.273 1.94347 2.87107 0
M  V30 2656 C 228.334 3.18257 2.88116 0
M  V30 2657 C 227.567 3.32701 4.17308 0
M  V30 2658 O 227.79 2.52238 5.11598 0
M  V30 2659 O 226.724 4.25891 4.25324 0
M  V30 2660 H 230.55 2.73633 1.31752 0
M  V30 2661 H 228.135 1.3733 0.588296 0
M  V30 2662 H 230.017 2.06109 3.67555 0
M  V30 2663 H 228.692 1.03073 3.06851 0
M  V30 2664 H 227.599 3.11947 2.06494 0
M  V30 2665 H 228.932 4.09336 2.73322 0
M  V30 2666 N 230.584 -0.659388 1.43143 0
M  V30 2667 C 231.534 -1.7655 1.44271 0
M  V30 2668 C 232.518 -1.57847 0.311961 0
M  V30 2669 O 233.71 -1.68064 0.555306 0
M  V30 2670 C 230.839 -3.15104 1.36251 0
M  V30 2671 C 229.925 -3.39377 2.54331 0
M  V30 2672 N 230.316 -3.34153 3.79704 0
M  V30 2673 C 228.614 -3.70072 2.48922 0
M  V30 2674 C 229.315 -3.58337 4.58225 0
M  V30 2675 N 228.291 -3.79851 3.88863 0
M  V30 2676 H 232.093 -1.70928 2.39083 0
M  V30 2677 H 229.607 -0.860823 1.37708 0
M  V30 2678 H 231.604 -3.94389 1.35141 0
M  V30 2679 H 230.264 -3.21913 0.424531 0
M  V30 2680 H 231.275 -3.13704 4.1208 0
M  V30 2681 H 227.952 -3.84034 1.63781 0
M  V30 2682 H 229.342 -3.60129 5.67236 0
M  V30 2683 N 232.062 -1.29571 -0.897171 0
M  V30 2684 C 233.311 -1.1706 -1.64256 0
M  V30 2685 C 233.624 0.276476 -1.93636 0
M  V30 2686 O 234.83 0.52294 -2.66416 0
M  V30 2687 C 233.286 -2.0475 -2.95982 0
M  V30 2688 C 232.894 -3.54295 -2.74187 0
M  V30 2689 C 234.638 -2.0097 -3.73914 0
M  V30 2690 C 232.545 -4.34081 -4.01656 0
M  V30 2691 H 231.475 -0.43452 -0.616205 0
M  V30 2692 H 234.126 -1.54229 -0.994268 0
M  V30 2693 H 232.508 -1.60452 -3.62038 0
M  V30 2694 H 233.682 -4.06662 -2.1671 0
M  V30 2695 H 231.997 -3.59773 -2.09648 0
M  V30 2696 H 234.594 -2.57838 -4.68427 0
M  V30 2697 H 234.937 -0.990273 -4.0435 0
M  V30 2698 H 235.47 -2.43325 -3.14703 0
M  V30 2699 H 232.209 -5.36671 -3.76384 0
M  V30 2700 H 231.729 -3.86483 -4.58684 0
M  V30 2701 H 233.408 -4.44877 -4.69781 0
M  V30 2702 N 233.54 1.10788 -1.12088 0
M  V30 2703 C 234.503 2.15207 -0.788577 0
M  V30 2704 C 235.503 1.59609 0.195317 0
M  V30 2705 O 236.693 1.74174 -0.0300193 0
M  V30 2706 C 233.825 3.4047 -0.171174 0
M  V30 2707 H 235.018 2.46116 -1.71368 0
M  V30 2708 H 232.571 1.26089 -0.923652 0
M  V30 2709 H 233.306 3.15176 0.763832 0
M  V30 2710 H 233.091 3.82109 -0.879514 0
M  V30 2711 H 234.581 4.17576 0.04496 0
M  V30 2712 N 235.018 0.912232 1.28515 0
M  V30 2713 C 236.243 0.559774 1.99703 0
M  V30 2714 C 236.668 -0.851393 1.67729 0
M  V30 2715 O 236.026 -1.56875 0.908834 0
M  V30 2716 C 236.074 0.773874 3.52198 0
M  V30 2717 O 235.178 -0.167842 4.12058 0
M  V30 2718 H 234.519 0.21723 0.627461 0
M  V30 2719 H 237.049 1.22725 1.63706 0
M  V30 2720 H 237.059 0.683386 4.02236 0
M  V30 2721 H 235.734 1.80261 3.74805 0
M  V30 2722 H 234.311 -0.0287509 3.72889 0
M  V30 2723 N 236.496 -1.42363 0.676048 0
M  V30 2724 C 237.446 -2.27987 -0.0242903 0
M  V30 2725 C 238.43 -1.41153 -0.772319 0
M  V30 2726 O 239.622 -1.64592 -0.651025 0
M  V30 2727 C 236.751 -3.29195 -0.973953 0
M  V30 2728 C 235.837 -4.23512 -0.223202 0
M  V30 2729 N 236.228 -4.99865 0.772589 0
M  V30 2730 C 234.526 -4.43606 -0.461469 0
M  V30 2731 C 235.227 -5.68757 1.22027 0
M  V30 2732 N 234.203 -5.40811 0.549975 0
M  V30 2733 H 238.005 -2.84445 0.73949 0
M  V30 2734 H 235.519 -1.54341 0.50522 0
M  V30 2735 H 237.516 -3.89339 -1.49067 0
M  V30 2736 H 236.176 -2.74298 -1.73755 0
M  V30 2737 H 237.187 -5.04921 1.15217 0
M  V30 2738 H 233.864 -3.99749 -1.20446 0
M  V30 2739 H 235.254 -6.40007 2.0455 0
M  V30 2740 N 237.974 -0.419461 -1.51915 0
M  V30 2741 C 239.223 0.154346 -2.01109 0
M  V30 2742 C 239.536 1.45338 -1.30905 0
M  V30 2743 O 240.742 2.10906 -1.7097 0
M  V30 2744 C 239.198 0.325615 -3.58424 0
M  V30 2745 C 238.806 -0.961934 -4.37551 0
M  V30 2746 C 240.55 0.854155 -4.15818 0
M  V30 2747 C 238.457 -0.757287 -5.86531 0
M  V30 2748 H 237.387 0.0614563 -0.751491 0
M  V30 2749 H 240.038 -0.54649 -1.75173 0
M  V30 2750 H 238.42 1.08903 -3.80731 0
M  V30 2751 H 239.594 -1.7323 -4.26999 0
M  V30 2752 H 237.909 -1.41766 -3.91524 0
M  V30 2753 H 240.506 1.02346 -5.24814 0
M  V30 2754 H 240.849 1.83172 -3.73837 0
M  V30 2755 H 241.382 0.149528 -3.97519 0
M  V30 2756 H 238.121 -1.70671 -6.32892 0
M  V30 2757 H 237.641 -0.0264061 -5.99794 0
M  V30 2758 H 239.32 -0.403482 -6.45741 0
M  V30 2759 N 239.452 1.56882 -0.150215 0
M  V30 2760 C 240.384 2.14057 0.819286 0
M  V30 2761 C 241.397 1.09082 1.20851 0
M  V30 2762 O 242.586 1.36347 1.15203 0
M  V30 2763 C 239.686 2.65102 2.11127 0
M  V30 2764 C 238.859 3.94511 1.88891 0
M  V30 2765 C 237.918 4.30834 3.02107 0
M  V30 2766 O 236.944 4.99099 2.73659 0
M  V30 2767 N 238.146 3.90676 4.29363 0
M  V30 2768 H 240.911 2.97871 0.330618 0
M  V30 2769 H 238.472 1.61866 0.0332538 0
M  V30 2770 H 240.464 2.86411 2.85921 0
M  V30 2771 H 239.034 1.85994 2.51247 0
M  V30 2772 H 238.254 3.81795 0.981152 0
M  V30 2773 H 239.542 4.7907 1.71376 0
M  V30 2774 H 238.94 3.35677 4.55343 0
M  V30 2775 H 237.497 4.1703 5.00928 0
M  V30 2776 N 240.93 -0.123565 1.57115 0
M  V30 2777 C 242.207 -0.862196 1.75572 0
M  V30 2778 C 242.587 -1.98279 0.724475 0
M  V30 2779 O 241.935 -2.27102 -0.252407 0
M  V30 2780 C 242.145 -1.38309 3.20424 0
M  V30 2781 C 243.493 -1.83724 3.82793 0
M  V30 2782 O 244.517 -1.47999 3.23998 0
M  V30 2783 O 243.376 -2.49685 4.86127 0
M  V30 2784 H 240.47 -0.409113 0.718718 0
M  V30 2785 H 243.016 -0.107661 1.69358 0
M  V30 2786 H 241.788 -0.578889 3.86994 0
M  V30 2787 H 241.411 -2.20046 3.31158 0
M  V30 2788 N 242.408 -1.52605 -0.393616 0
M  V30 2789 C 243.318 -1.79971 -1.50492 0
M  V30 2790 C 244.334 -0.686181 -1.59899 0
M  V30 2791 O 245.51 -0.973274 -1.76322 0
M  V30 2792 C 242.575 -1.95867 -2.86072 0
M  V30 2793 C 241.636 -3.19781 -2.86424 0
M  V30 2794 C 240.869 -3.34909 -4.15538 0
M  V30 2795 O 241.092 -2.54948 -5.10253 0
M  V30 2796 O 240.026 -4.28141 -4.23059 0
M  V30 2797 H 243.852 -2.74328 -1.30299 0
M  V30 2798 H 241.437 -1.3764 -0.581005 0
M  V30 2799 H 243.319 -2.08056 -3.66457 0
M  V30 2800 H 241.994 -1.04699 -3.063 0
M  V30 2801 H 240.901 -3.13038 -2.04837 0
M  V30 2802 H 242.234 -4.1078 -2.71147 0
M  V30 2803 N 243.887 0.651787 -1.4349 0
M  V30 2804 C 245.133 1.41376 -1.45398 0
M  V30 2805 C 245.466 1.94041 -0.0784823 0
M  V30 2806 O 244.741 1.72379 0.900878 0
M  V30 2807 C 245.024 2.59414 -2.49752 0
M  V30 2808 C 244.877 2.12232 -3.96582 0
M  V30 2809 C 246.196 3.61626 -2.50827 0
M  V30 2810 H 243.315 0.512719 -0.529422 0
M  V30 2811 H 245.957 0.738796 -1.75048 0
M  V30 2812 H 244.107 3.16997 -2.246 0
M  V30 2813 H 245.779 1.59639 -4.32797 0
M  V30 2814 H 244.022 1.43592 -4.09346 0
M  V30 2815 H 244.693 2.9712 -4.65214 0
M  V30 2816 H 247.169 3.13805 -2.7325 0
M  V30 2817 H 246.045 4.41766 -3.25783 0
M  V30 2818 H 246.306 4.14314 -1.5426 0
M  V30 2819 N 245.365 1.30045 0.890287 0
M  V30 2820 C 246.642 1.09227 1.62262 0
M  V30 2821 C 247.022 -0.360305 2.08002 0
M  V30 2822 O 246.37 -1.35084 1.84295 0
M  V30 2823 C 246.58 2.08835 2.79623 0
M  V30 2824 C 247.928 2.40266 3.50082 0
M  V30 2825 O 248.952 2.07104 2.89804 0
M  V30 2826 O 247.811 2.96967 4.58773 0
M  V30 2827 H 244.905 0.419132 0.712922 0
M  V30 2828 H 247.451 1.41451 0.937529 0
M  V30 2829 H 246.223 3.06633 2.43089 0
M  V30 2830 H 245.846 1.77397 3.55832 0
M  V30 2831 N 246.843 -1.10192 1.12674 0
M  V30 2832 C 248.09 -1.82205 0.883606 0
M  V30 2833 C 248.418 -1.8532 -0.590492 0
M  V30 2834 O 247.673 -1.31137 -1.45264 0
M  V30 2835 C 247.972 -3.28552 1.4067 0
M  V30 2836 C 247.638 -3.45582 2.89627 0
M  V30 2837 C 246.3 -3.49937 3.30299 0
M  V30 2838 C 248.652 -3.50768 3.85501 0
M  V30 2839 C 245.98 -3.57049 4.65546 0
M  V30 2840 C 248.332 -3.59414 5.20581 0
M  V30 2841 C 246.996 -3.62034 5.60792 0
M  V30 2842 H 246.266 -0.666735 0.323334 0
M  V30 2843 H 248.913 -1.29868 1.40736 0
M  V30 2844 H 247.218 -3.83473 0.80347 0
M  V30 2845 H 248.915 -3.82788 1.19475 0
M  V30 2846 H 245.505 -3.42871 2.57172 0
M  V30 2847 H 249.689 -3.46651 3.55171 0
M  V30 2848 H 244.945 -3.57361 4.96088 0
M  V30 2849 H 249.119 -3.62371 5.94693 0
M  V30 2850 H 246.746 -3.67298 6.6558 0
M  V30 2851 N 248.321 -0.919034 -1.28029 0
M  V30 2852 C 249.251 -0.428581 -2.29533 0
M  V30 2853 C 250.232 0.50659 -1.62381 0
M  V30 2854 O 251.417 0.413195 -1.89753 0
M  V30 2855 C 248.547 0.327388 -3.45753 0
M  V30 2856 C 247.501 -0.519137 -4.2484 0
M  V30 2857 C 246.827 0.365486 -5.33449 0
M  V30 2858 C 248.127 -1.77914 -4.91064 0
M  V30 2859 H 249.821 -1.27687 -2.70807 0
M  V30 2860 H 247.367 -0.615428 -1.30186 0
M  V30 2861 H 249.32 0.681378 -4.15855 0
M  V30 2862 H 248.044 1.20963 -3.03374 0
M  V30 2863 H 246.703 -0.855717 -3.56473 0
M  V30 2864 H 246.351 1.24642 -4.87312 0
M  V30 2865 H 246.051 -0.197356 -5.87268 0
M  V30 2866 H 247.575 0.715241 -6.06396 0
M  V30 2867 H 248.989 -1.49374 -5.53498 0
M  V30 2868 H 247.386 -2.2848 -5.54903 0
M  V30 2869 H 248.456 -2.50382 -4.15255 0
M  V30 2870 N 249.799 1.42003 -0.683588 0
M  V30 2871 C 251.046 2.01413 -0.209514 0
M  V30 2872 C 251.374 1.54088 1.1869 0
M  V30 2873 O 250.629 0.737591 1.81268 0
M  V30 2874 C 250.928 3.56827 -0.202357 0
M  V30 2875 C 250.594 4.23617 -1.54464 0
M  V30 2876 C 249.256 4.41577 -1.91215 0
M  V30 2877 C 251.608 4.61178 -2.42826 0
M  V30 2878 C 248.936 4.9437 -3.15935 0
M  V30 2879 C 251.288 5.15355 -3.66867 0
M  V30 2880 C 249.952 5.31528 -4.03776 0
M  V30 2881 H 249.222 0.737023 -0.0766668 0
M  V30 2882 H 251.869 1.70067 -0.880312 0
M  V30 2883 H 250.174 3.87892 0.551969 0
M  V30 2884 H 251.871 4.00588 0.181793 0
M  V30 2885 H 248.461 4.10004 -1.24877 0
M  V30 2886 H 252.645 4.46968 -2.15717 0
M  V30 2887 H 247.901 5.05076 -3.44541 0
M  V30 2888 H 252.075 5.43402 -4.35531 0
M  V30 2889 H 249.702 5.72199 -5.00492 0
M  V30 2890 N 251.277 0.427512 1.51691 0
M  V30 2891 C 252.502 -0.143601 2.06902 0
M  V30 2892 C 252.927 -1.36536 1.29382 0
M  V30 2893 O 252.285 -1.78289 0.329043 0
M  V30 2894 C 252.333 -0.454207 3.57728 0
M  V30 2895 O 251.437 -1.54228 3.82475 0
M  V30 2896 H 250.778 -0.00617128 0.663971 0
M  V30 2897 H 253.308 0.606014 1.95419 0
M  V30 2898 H 253.318 -0.707525 4.01818 0
M  V30 2899 H 251.993 0.438812 4.13579 0
M  V30 2900 H 250.57 -1.2797 3.50254 0
M  V30 2901 N 252.755 -1.56801 0.158532 0
M  V30 2902 C 253.688 -2.13148 -0.815065 0
M  V30 2903 C 254.666 -1.0581 -1.23462 0
M  V30 2904 O 255.85 -1.3371 -1.32868 0
M  V30 2905 C 252.977 -2.6606 -2.09594 0
M  V30 2906 C 252.023 -3.85651 -1.82141 0
M  V30 2907 S 252.856 -5.26041 -1.00207 0
M  V30 2908 C 254.012 -5.8235 -2.29389 0
M  V30 2909 H 254.245 -2.95396 -0.335937 0
M  V30 2910 H 251.778 -1.54299 -0.0559391 0
M  V30 2911 H 253.736 -2.97195 -2.8317 0
M  V30 2912 H 252.397 -1.83921 -2.54621 0
M  V30 2913 H 251.59 -4.20958 -2.77147 0
M  V30 2914 H 251.192 -3.55338 -1.16667 0
M  V30 2915 H 253.484 -5.94485 -3.24952 0
M  V30 2916 H 254.427 -6.79688 -1.9857 0
M  V30 2917 H 254.835 -5.10675 -2.40564 0
M  V30 2918 N 254.233 0.115231 -1.57178 0
M  V30 2919 C 255.196 1.12526 -1.99676 0
M  V30 2920 C 256.196 1.34095 -0.88742 0
M  V30 2921 O 257.386 1.30548 -1.15337 0
M  V30 2922 C 254.518 2.4789 -2.34015 0
M  V30 2923 H 255.711 0.759912 -2.90113 0
M  V30 2924 H 253.264 0.359648 -1.52106 0
M  V30 2925 H 253.999 2.89339 -1.4647 0
M  V30 2926 H 253.784 2.33588 -3.14927 0
M  V30 2927 H 255.274 3.20575 -2.67622 0
M  V30 2928 N 255.711 1.52812 0.385517 0
M  V30 2929 C 256.674 1.77188 1.45386 0
M  V30 2930 C 257.674 0.641953 1.4743 0
M  V30 2931 O 258.864 0.910033 1.4854 0
M  V30 2932 C 255.996 1.87582 2.8465 0
M  V30 2933 H 257.189 2.72583 1.25054 0
M  V30 2934 H 254.742 1.43586 0.617467 0
M  V30 2935 H 255.477 0.941849 3.10322 0
M  V30 2936 H 255.262 2.69748 2.84567 0
M  V30 2937 H 256.752 2.08102 3.62054 0
M  V30 2938 N 257.189 -0.644168 1.43834 0
M  V30 2939 C 258.137 -1.77793 1.49974 0
M  V30 2940 C 259.131 -1.65253 0.372536 0
M  V30 2941 O 260.337 -1.7149 0.546924 0
M  V30 2942 H 256.712 -0.58675 0.47035 0
M  V30 2943 H 258.683 -1.69736 2.45423 0
M  V30 2944 C 257.432 -3.16087 1.4486 0
M  V30 2945 H 256.755 -3.26378 2.30905 0
M  V30 2946 H 258.195 -3.95349 1.53217 0
M  V30 2947 C 256.654 -3.36484 0.167463 0
M  V30 2948 O 257.184 -3.94298 -0.767609 0
M  V30 2949 N 255.39 -2.90504 0.0747556 0
M  V30 2950 H 254.937 -2.4364 0.836507 0
M  V30 2951 H 254.895 -3.04527 -0.781714 0
M  V30 2952 N 258.668 -1.30515 -0.883378 0
M  V30 2953 C 259.6 -1.12846 -1.99496 0
M  V30 2954 C 260.613 -0.0712571 -1.62644 0
M  V30 2955 O 261.802 -0.317432 -1.75655 0
M  V30 2956 C 258.902 -0.699123 -3.3161 0
M  V30 2957 C 258.075 -1.83842 -3.96889 0
M  V30 2958 C 257.134 -1.39737 -5.07307 0
M  V30 2959 O 256.16 -2.10485 -5.28852 0
M  V30 2960 N 257.362 -0.277279 -5.79837 0
M  V30 2961 H 260.127 -2.08585 -2.15203 0
M  V30 2962 H 257.688 -1.22672 -1.05656 0
M  V30 2963 H 259.68 -0.387044 -4.02845 0
M  V30 2964 H 258.25 0.166276 -3.12157 0
M  V30 2965 H 257.47 -2.31853 -3.18807 0
M  V30 2966 H 258.758 -2.60187 -4.37241 0
M  V30 2967 H 258.156 0.3122 -5.64838 0
M  V30 2968 H 256.713 -0.0246623 -6.51795 0
M  V30 2969 N 260.146 1.09593 -1.13257 0
M  V30 2970 C 261.392 1.82003 -0.89458 0
M  V30 2971 C 261.725 1.85402 0.577906 0
M  V30 2972 O 261 1.32099 1.42759 0
M  V30 2973 C 261.283 3.28237 -1.48096 0
M  V30 2974 C 261.136 3.3312 -3.02244 0
M  V30 2975 C 262.455 4.24871 -1.14774 0
M  V30 2976 H 259.574 0.66077 -0.326424 0
M  V30 2977 H 262.216 1.28389 -1.40058 0
M  V30 2978 H 260.366 3.74024 -1.05062 0
M  V30 2979 H 262.038 2.95748 -3.54021 0
M  V30 2980 H 260.281 2.72756 -3.37323 0
M  V30 2981 H 260.952 4.3613 -3.38371 0
M  V30 2982 H 263.428 3.87361 -1.51957 0
M  V30 2983 H 262.304 5.25532 -1.58452 0
M  V30 2984 H 262.565 4.42058 -0.0611849 0
M  V30 2985 N 261.624 0.925811 1.2754 0
M  V30 2986 C 262.871 0.565255 1.94451 0
M  V30 2987 C 263.199 -0.89316 1.7278 0
M  V30 2988 O 262.454 -1.65213 1.04895 0
M  V30 2989 C 262.753 0.835296 3.47502 0
M  V30 2990 C 262.419 2.27515 3.89291 0
M  V30 2991 C 261.081 2.66879 4.00411 0
M  V30 2992 C 263.433 3.21158 4.10496 0
M  V30 2993 C 260.761 3.99014 4.30122 0
M  V30 2994 C 263.113 4.52871 4.4169 0
M  V30 2995 C 261.777 4.92072 4.51023 0
M  V30 2996 H 261.047 0.206841 0.711546 0
M  V30 2997 H 263.694 1.16942 1.51647 0
M  V30 2998 H 261.999 0.148442 3.91519 0
M  V30 2999 H 263.696 0.535322 3.97411 0
M  V30 3000 H 260.286 1.95976 3.81171 0
M  V30 3001 H 264.47 2.9195 4.01346 0
M  V30 3002 H 259.726 4.2907 4.35556 0
M  V30 3003 H 263.9 5.25436 4.57045 0
M  V30 3004 H 261.527 5.9449 4.738 0
M  V30 3005 N 263.102 -1.41638 0.69111 0
M  V30 3006 C 264.034 -2.29194 -0.0161523 0
M  V30 3007 C 265.047 -1.44549 -0.748955 0
M  V30 3008 O 266.236 -1.681 -0.6004 0
M  V30 3009 C 263.336 -3.22325 -1.0469 0
M  V30 3010 C 262.509 -4.35706 -0.384621 0
M  V30 3011 C 261.568 -5.09443 -1.31737 0
M  V30 3012 O 260.594 -5.63386 -0.811451 0
M  V30 3013 N 261.796 -5.16487 -2.64993 0
M  V30 3014 H 264.561 -2.90534 0.735523 0
M  V30 3015 H 262.122 -1.52742 0.53679 0
M  V30 3016 H 264.114 -3.68522 -1.67252 0
M  V30 3017 H 262.684 -2.62323 -1.70015 0
M  V30 3018 H 261.904 -3.91948 0.420804 0
M  V30 3019 H 263.192 -5.08743 0.0760765 0
M  V30 3020 H 262.59 -4.741 -3.08619 0
M  V30 3021 H 261.147 -5.66276 -3.22761 0
M  V30 3022 N 264.58 -0.43555 -1.51462 0
M  V30 3023 C 265.528 0.391205 -2.29287 0
M  V30 3024 C 266.522 1.02247 -1.35062 0
M  V30 3025 O 267.728 0.957646 -1.52411 0
M  V30 3026 H 264.103 0.144968 -0.737895 0
M  V30 3027 H 266.074 -0.286051 -2.97026 0
M  V30 3028 C 264.823 1.48096 -3.14583 0
M  V30 3029 H 264.146 1.00457 -3.86973 0
M  V30 3030 H 265.586 2.03273 -3.72097 0
M  V30 3031 C 264.045 2.46321 -2.29843 0
M  V30 3032 O 264.575 3.50815 -1.95682 0
M  V30 3033 N 262.781 2.17166 -1.931 0
M  V30 3034 H 262.328 1.32218 -2.21079 0
M  V30 3035 H 262.286 2.83127 -1.36698 0
M  V30 3036 N 266.058 1.56714 -0.166846 0
M  V30 3037 C 266.968 2.21331 0.777791 0
M  V30 3038 C 267.984 1.20358 1.25658 0
M  V30 3039 O 269.16 1.53005 1.30964 0
M  V30 3040 C 266.225 2.83787 1.99163 0
M  V30 3041 C 265.286 3.99947 1.56016 0
M  V30 3042 C 264.519 4.59415 2.71613 0
M  V30 3043 O 264.742 4.17769 3.88362 0
M  V30 3044 O 263.676 5.49359 2.45945 0
M  V30 3045 H 267.502 3.02605 0.257636 0
M  V30 3046 H 265.087 1.49275 0.0611393 0
M  V30 3047 H 266.969 3.23405 2.70161 0
M  V30 3048 H 265.644 2.05513 2.50092 0
M  V30 3049 H 264.551 3.65007 0.819809 0
M  V30 3050 H 265.884 4.79801 1.09782 0
M  V30 3051 N 267.536 -0.106894 1.57237 0
M  V30 3052 C 268.783 -0.812526 1.85484 0
M  V30 3053 C 269.111 -1.79304 0.753687 0
M  V30 3054 O 268.366 -1.94047 -0.253853 0
M  V30 3055 C 268.665 -1.58628 3.20268 0
M  V30 3056 C 268.331 -0.748967 4.44636 0
M  V30 3057 C 266.993 -0.518104 4.78403 0
M  V30 3058 C 269.345 -0.166122 5.20935 0
M  V30 3059 C 266.673 0.305659 5.85903 0
M  V30 3060 C 269.025 0.644899 6.29304 0
M  V30 3061 C 267.689 0.885965 6.61594 0
M  V30 3062 H 266.959 -0.297324 0.678734 0
M  V30 3063 H 269.606 -0.0744332 1.91355 0
M  V30 3064 H 267.911 -2.39562 3.10028 0
M  V30 3065 H 269.608 -2.13643 3.39349 0
M  V30 3066 H 266.198 -0.939006 4.18187 0
M  V30 3067 H 270.382 -0.33167 4.95191 0
M  V30 3068 H 265.638 0.501528 6.0934 0
M  V30 3069 H 269.812 1.10345 6.87602 0
M  V30 3070 H 267.439 1.52609 7.44725 0
M  V30 3071 N 269.014 -1.53014 -0.377408 0
M  V30 3072 C 270.262 -1.6829 -1.11906 0
M  V30 3073 C 270.583 -0.431206 -1.90173 0
M  V30 3074 O 269.853 0.554595 -1.87886 0
M  V30 3075 H 268.433 -0.620371 -0.416112 0
M  V30 3076 H 271.095 -1.90167 -0.426893 0
M  V30 3077 H 270.191 -2.53862 -1.8155 0
M  V30 3078 N 270.492 0.636531 -1.44174 0
M  V30 3079 C 271.738 1.39826 -1.4689 0
M  V30 3080 C 272.071 1.93947 -0.0990585 0
M  V30 3081 O 271.346 1.73325 0.882544 0
M  V30 3082 C 271.629 2.56751 -2.5249 0
M  V30 3083 C 271.482 2.08014 -3.98811 0
M  V30 3084 C 272.801 3.58946 -2.54649 0
M  V30 3085 H 269.92 0.507075 -0.53483 0
M  V30 3086 H 272.562 0.720188 -1.75822 0
M  V30 3087 H 270.712 3.14597 -2.2795 0
M  V30 3088 H 272.384 1.5504 -4.34466 0
M  V30 3089 H 270.627 1.39242 -4.10846 0
M  V30 3090 H 271.298 2.92169 -4.68339 0
M  V30 3091 H 273.774 3.1089 -2.76563 0
M  V30 3092 H 272.65 4.38286 -3.3045 0
M  V30 3093 H 272.911 4.12655 -1.58646 0
M  V30 3094 N 271.97 1.30982 0.876444 0
M  V30 3095 C 272.88 1.2003 2.01569 0
M  V30 3096 C 273.896 0.11838 1.73597 0
M  V30 3097 O 275.072 0.33495 1.98595 0
M  V30 3098 C 272.137 0.901637 3.34771 0
M  V30 3099 C 271.198 2.06979 3.76109 0
M  V30 3100 C 270.431 1.78529 5.02954 0
M  V30 3101 O 270.654 0.717296 5.65872 0
M  V30 3102 O 269.588 2.64019 5.40905 0
M  V30 3103 H 273.414 2.15753 2.13739 0
M  V30 3104 H 270.999 1.10658 1.00375 0
M  V30 3105 H 272.881 0.750645 4.1466 0
M  V30 3106 H 271.556 -0.0256141 3.2369 0
M  V30 3107 H 270.463 2.27616 2.96887 0
M  V30 3108 H 271.796 2.97907 3.91807 0
M  V30 3109 N 273.449 -1.08991 1.13837 0
M  V30 3110 C 274.677 -1.85011 0.926202 0
M  V30 3111 C 275.092 -1.8135 -0.525127 0
M  V30 3112 O 274.449 -1.21287 -1.36366 0
M  V30 3113 C 274.5 -3.32802 1.41155 0
M  V30 3114 O 274.221 -3.36444 2.80601 0
M  V30 3115 C 275.722 -4.25649 1.23847 0
M  V30 3116 H 272.942 -0.584249 0.32999 0
M  V30 3117 H 275.486 -1.37688 1.51202 0
M  V30 3118 H 273.641 -3.77536 0.868631 0
M  V30 3119 H 274.055 -4.28657 3.02248 0
M  V30 3120 H 275.529 -5.27485 1.62675 0
M  V30 3121 H 276.006 -4.38828 0.18065 0
M  V30 3122 H 276.612 -3.86735 1.76964 0
M  V30 3123 N 274.927 -0.932562 -1.27047 0
M  V30 3124 C 275.857 -0.452902 -2.29066 0
M  V30 3125 C 276.838 0.489338 -1.62909 0
M  V30 3126 O 278.023 0.393046 -1.90181 0
M  V30 3127 C 275.153 0.290698 -3.46081 0
M  V30 3128 C 274.107 -0.564168 -4.24265 0
M  V30 3129 C 273.433 0.308886 -5.33807 0
M  V30 3130 C 274.733 -1.83112 -4.89149 0
M  V30 3131 H 276.427 -1.30552 -2.69437 0
M  V30 3132 H 273.973 -0.629201 -1.29526 0
M  V30 3133 H 275.926 0.637233 -4.16554 0
M  V30 3134 H 274.65 1.17738 -3.0464 0
M  V30 3135 H 273.309 -0.893477 -3.55545 0
M  V30 3136 H 272.957 1.19467 -4.88607 0
M  V30 3137 H 272.657 -0.259633 -5.87026 0
M  V30 3138 H 274.181 0.650884 -6.07121 0
M  V30 3139 H 275.595 -1.55236 -5.51883 0
M  V30 3140 H 273.992 -2.34353 -5.52448 0
M  V30 3141 H 275.062 -2.54772 -4.12576 0
M  V30 3142 N 276.405 1.4127 -0.698611 0
M  V30 3143 C 277.653 2.00782 -0.230409 0
M  V30 3144 C 277.974 1.5562 1.17505 0
M  V30 3145 O 277.244 0.78815 1.79346 0
M  V30 3146 H 275.824 0.742464 -0.0821944 0
M  V30 3147 H 278.486 1.72852 -0.90045 0
M  V30 3148 H 277.582 3.11095 -0.25021 0
M  V30 3149 N 277.883 0.443576 1.51229 0
M  V30 3150 C 279.294 -0.0180867 1.86691 0
M  V30 3151 C 279.645 -1.41384 1.36033 0
M  V30 3152 O 278.77 -2.04291 0.713722 0
M  V30 3153 C 279.365 -0.039597 3.38777 0
M  V30 3154 C 277.924 -0.445692 3.73752 0
M  V30 3155 C 277.071 0.357584 2.74985 0
M  V30 3156 H 280.022 0.659138 1.44364 0
M  V30 3157 H 280.043 -0.847761 3.70936 0
M  V30 3158 H 279.555 0.976382 3.75617 0
M  V30 3159 H 277.656 -1.46704 3.42503 0
M  V30 3160 H 277.769 -0.166155 4.78812 0
M  V30 3161 H 276.133 -0.184973 2.54027 0
M  V30 3162 H 276.916 1.37256 3.14668 0
M  V30 3163 N 279.361 -1.56624 0.175154 0
M  V30 3164 C 280.291 -2.21155 -0.749195 0
M  V30 3165 C 281.272 -1.16836 -1.23626 0
M  V30 3166 O 282.457 -1.45277 -1.28873 0
M  V30 3167 C 279.587 -2.8553 -1.97711 0
M  V30 3168 C 278.541 -3.95921 -1.62575 0
M  V30 3169 C 277.867 -4.47365 -2.92864 0
M  V30 3170 C 279.167 -5.15323 -0.850838 0
M  V30 3171 H 280.861 -2.98653 -0.211295 0
M  V30 3172 H 278.407 -1.43651 -0.100188 0
M  V30 3173 H 280.36 -3.2935 -2.62881 0
M  V30 3174 H 279.084 -2.05406 -2.53921 0
M  V30 3175 H 277.743 -3.52762 -0.997719 0
M  V30 3176 H 277.391 -3.64027 -3.47122 0
M  V30 3177 H 277.091 -5.21839 -2.70106 0
M  V30 3178 H 278.615 -4.93873 -3.59056 0
M  V30 3179 H 280.029 -5.55812 -1.40521 0
M  V30 3180 H 278.426 -5.95739 -0.722154 0
M  V30 3181 H 279.496 -4.84661 0.152082 0
M  V30 3182 N 280.839 0.0985539 -1.57292 0
M  V30 3183 C 282.085 0.803867 -1.86188 0
M  V30 3184 C 282.418 1.78549 -0.763794 0
M  V30 3185 O 281.693 1.93153 0.22855 0
M  V30 3186 C 281.976 1.53568 -3.25713 0
M  V30 3187 C 281.829 0.572277 -4.46145 0
M  V30 3188 C 283.148 2.48708 -3.63087 0
M  V30 3189 H 280.267 0.290781 -0.677211 0
M  V30 3190 H 282.909 0.0675783 -1.8988 0
M  V30 3191 H 281.059 2.16332 -3.22696 0
M  V30 3192 H 282.731 -0.0480894 -4.61275 0
M  V30 3193 H 280.974 -0.114618 -4.33649 0
M  V30 3194 H 281.645 1.12139 -5.40489 0
M  V30 3195 H 284.121 1.96039 -3.67026 0
M  V30 3196 H 282.997 2.96932 -4.61652 0
M  V30 3197 H 283.258 3.32309 -2.91588 0
M  V30 3198 N 282.317 1.53212 0.369288 0
M  V30 3199 C 283.28 1.7872 1.43498 0
M  V30 3200 C 284.28 0.657554 1.46741 0
M  V30 3201 O 285.47 0.925736 1.47566 0
M  V30 3202 C 282.602 1.90591 2.82645 0
M  V30 3203 H 283.795 2.73894 1.22156 0
M  V30 3204 H 281.348 1.44233 0.602203 0
M  V30 3205 H 282.083 0.974709 3.09306 0
M  V30 3206 H 281.868 2.72751 2.8169 0
M  V30 3207 H 283.358 2.11931 3.59826 0
M  V30 3208 N 283.795 -0.628877 1.44509 0
M  V30 3209 C 284.727 -1.754 1.47538 0
M  V30 3210 C 285.74 -1.58575 0.368506 0
M  V30 3211 O 286.929 -1.66847 0.634376 0
M  V30 3212 C 284.029 -3.1315 1.29577 0
M  V30 3213 C 283.202 -3.56413 2.53551 0
M  V30 3214 C 282.261 -4.7305 2.30457 0
M  V30 3215 O 281.287 -4.81247 3.03957 0
M  V30 3216 N 282.489 -5.64903 1.3366 0
M  V30 3217 H 285.254 -1.73272 2.44534 0
M  V30 3218 H 282.815 -0.813512 1.39977 0
M  V30 3219 H 284.807 -3.88902 1.11971 0
M  V30 3220 H 283.377 -3.09908 0.409371 0
M  V30 3221 H 282.597 -2.70847 2.86419 0
M  V30 3222 H 283.885 -3.82071 3.36005 0
M  V30 3223 H 283.283 -5.60975 0.729604 0
M  V30 3224 H 281.84 -6.40275 1.22032 0
M  V30 3225 N 285.273 -1.31445 -0.869486 0
M  V30 3226 C 286.203 -1.21727 -1.99261 0
M  V30 3227 C 287.184 -0.104359 -1.6978 0
M  V30 3228 O 288.369 -0.289038 -1.92037 0
M  V30 3229 C 285.499 -0.924317 -3.34774 0
M  V30 3230 C 284.453 -1.99685 -3.78563 0
M  V30 3231 C 283.779 -1.55658 -5.11541 0
M  V30 3232 C 285.079 -3.41003 -3.95619 0
M  V30 3233 H 286.773 -2.1569 -2.07649 0
M  V30 3234 H 284.319 -1.03839 -0.997675 0
M  V30 3235 H 286.272 -0.842934 -4.12883 0
M  V30 3236 H 284.996 0.0509793 -3.2656 0
M  V30 3237 H 283.655 -2.06813 -3.02694 0
M  V30 3238 H 283.303 -0.569132 -4.9977 0
M  V30 3239 H 283.003 -2.27409 -5.41811 0
M  V30 3240 H 284.527 -1.48928 -5.92159 0
M  V30 3241 H 285.941 -3.36547 -4.64122 0
M  V30 3242 H 284.338 -4.10975 -4.37286 0
M  V30 3243 H 285.408 -3.81754 -2.98985 0
M  V30 3244 N 286.751 1.08385 -1.14413 0
M  V30 3245 C 287.701 2.13509 -0.79987 0
M  V30 3246 C 288.685 1.5951 0.211059 0
M  V30 3247 O 289.877 1.76995 0.0133694 0
M  V30 3248 C 287.006 3.42162 -0.279297 0
M  V30 3249 C 286.092 4.03042 -1.31976 0
M  V30 3250 N 286.483 4.38327 -2.52395 0
M  V30 3251 C 284.781 4.30379 -1.17004 0
M  V30 3252 C 285.482 4.86428 -3.19003 0
M  V30 3253 N 284.458 4.84547 -2.46405 0
M  V30 3254 H 288.26 2.38609 -1.7159 0
M  V30 3255 H 285.774 1.2572 -1.02802 0
M  V30 3256 H 287.771 4.16898 -0.0143688 0
M  V30 3257 H 286.431 3.18511 0.630923 0
M  V30 3258 H 287.442 4.29349 -2.89621 0
M  V30 3259 H 284.119 4.16281 -0.318854 0
M  V30 3260 H 285.509 5.23107 -4.21674 0
M  V30 3261 N 288.23 0.939286 1.26551 0
M  V30 3262 C 289.193 0.451987 2.24699 0
M  V30 3263 C 290.193 -0.435869 1.5478 0
M  V30 3264 O 291.383 -0.235314 1.72603 0
M  V30 3265 C 288.515 -0.348801 3.39111 0
M  V30 3266 H 289.708 1.3193 2.69322 0
M  V30 3267 H 287.261 0.721072 1.38673 0
M  V30 3268 H 287.996 -1.23444 2.99887 0
M  V30 3269 H 287.781 0.287945 3.91041 0
M  V30 3270 H 289.271 -0.679726 4.12031 0
M  V30 3271 N 289.708 -1.40897 0.706093 0
M  V30 3272 C 290.954 -2.01849 0.250681 0
M  V30 3273 C 291.309 -1.5496 -1.14041 0
M  V30 3274 O 290.602 -0.755566 -1.76073 0
M  V30 3275 C 290.796 -3.5646 0.259099 0
M  V30 3276 C 290.625 -4.18357 1.64947 0
M  V30 3277 C 289.395 -4.522 2.25485 0
M  V30 3278 C 291.593 -4.43856 2.598 0
M  V30 3279 N 289.575 -4.9944 3.56977 0
M  V30 3280 C 290.946 -4.92986 3.75985 0
M  V30 3281 C 293.001 -4.25882 2.57933 0
M  V30 3282 C 291.704 -5.2603 4.90597 0
M  V30 3283 C 293.73 -4.6002 3.71665 0
M  V30 3284 C 293.092 -5.09331 4.86581 0
M  V30 3285 H 289.191 -0.769843 0.137353 0
M  V30 3286 H 291.775 -1.71278 0.925845 0
M  V30 3287 H 289.946 -3.86481 -0.385592 0
M  V30 3288 H 291.678 -4.04144 -0.21213 0
M  V30 3289 H 288.433 -4.3901 1.77671 0
M  V30 3290 H 288.857 -5.27454 4.24407 0
M  V30 3291 H 293.499 -3.86986 1.70298 0
M  V30 3292 H 291.217 -5.63843 5.78884 0
M  V30 3293 H 294.803 -4.47762 3.71484 0
M  V30 3294 H 293.683 -5.35251 5.73129 0
M  V30 3295 N 291.186 -0.45159 -1.50991 0
M  V30 3296 C 292.432 0.102439 -2.03142 0
M  V30 3297 C 292.787 1.39138 -1.32884 0
M  V30 3298 O 292.08 1.86493 -0.439438 0
M  V30 3299 C 292.274 0.361728 -3.55565 0
M  V30 3300 C 292.103 -0.900535 -4.40591 0
M  V30 3301 C 290.873 -1.43821 -4.844 0
M  V30 3302 C 293.071 -1.79063 -4.82121 0
M  V30 3303 N 291.053 -2.65153 -5.53685 0
M  V30 3304 C 292.424 -2.84991 -5.50618 0
M  V30 3305 C 294.479 -1.80334 -4.64095 0
M  V30 3306 C 293.182 -3.92155 -6.02998 0
M  V30 3307 C 295.208 -2.86442 -5.17402 0
M  V30 3308 C 294.57 -3.9109 -5.85857 0
M  V30 3309 H 290.669 -0.00204537 -0.781997 0
M  V30 3310 H 293.253 -0.615446 -1.84717 0
M  V30 3311 H 291.424 1.04865 -3.73976 0
M  V30 3312 H 293.156 0.908372 -3.94374 0
M  V30 3313 H 289.911 -0.990117 -4.63135 0
M  V30 3314 H 290.335 -3.26717 -5.92946 0
M  V30 3315 H 294.977 -1.00753 -4.1062 0
M  V30 3316 H 292.695 -4.72565 -6.55521 0
M  V30 3317 H 296.281 -2.88386 -5.05297 0
M  V30 3318 H 295.161 -4.71845 -6.26364 0
M  V30 3319 N 292.664 1.56529 -0.183458 0
M  V30 3320 C 293.894 2.01331 0.463612 0
M  V30 3321 C 294.302 1.06278 1.5653 0
M  V30 3322 O 293.645 0.0577976 1.83609 0
M  V30 3323 C 293.707 3.42547 1.09096 0
M  V30 3324 C 293.371 4.56817 0.129442 0
M  V30 3325 C 294.368 5.15734 -0.656807 0
M  V30 3326 C 292.053 5.02295 0.02174 0
M  V30 3327 C 294.047 6.1857 -1.53784 0
M  V30 3328 C 291.734 6.04978 -0.862864 0
M  V30 3329 C 292.732 6.62988 -1.64123 0
M  V30 3330 O 292.42 7.63677 -2.51103 0
M  V30 3331 H 292.152 0.664917 0.121907 0
M  V30 3332 H 294.706 2.034 -0.285954 0
M  V30 3333 H 292.936 3.37428 1.88889 0
M  V30 3334 H 294.625 3.71228 1.64148 0
M  V30 3335 H 295.391 4.81473 -0.583839 0
M  V30 3336 H 291.27 4.56847 0.617392 0
M  V30 3337 H 294.814 6.63777 -2.14583 0
M  V30 3338 H 290.711 6.38663 -0.93699 0
M  V30 3339 H 291.479 7.81049 -2.44753 0
M  V30 3340 N 294.142 -0.090211 1.57342 0
M  V30 3341 C 295.389 -0.792807 1.86335 0
M  V30 3342 C 295.717 -1.78494 0.772662 0
M  V30 3343 O 294.972 -1.94305 -0.233258 0
M  V30 3344 C 295.271 -1.55222 3.21933 0
M  V30 3345 C 294.937 -0.701765 4.45406 0
M  V30 3346 C 293.599 -0.467334 4.78925 0
M  V30 3347 C 295.951 -0.11086 5.21082 0
M  V30 3348 C 293.279 0.367785 5.85546 0
M  V30 3349 C 295.631 0.711609 6.28585 0
M  V30 3350 C 294.295 0.956086 6.60617 0
M  V30 3351 H 293.565 -0.290109 0.681849 0
M  V30 3352 H 296.212 -0.0541332 1.91423 0
M  V30 3353 H 294.517 -2.3626 3.12551 0
M  V30 3354 H 296.214 -2.10032 3.41595 0
M  V30 3355 H 292.804 -0.894598 4.1916 0
M  V30 3356 H 296.988 -0.279129 4.95514 0
M  V30 3357 H 292.244 0.566128 6.08773 0
M  V30 3358 H 296.418 1.17632 6.86393 0
M  V30 3359 H 294.045 1.60499 7.43064 0
M  V30 3360 N 295.62 -1.53406 -0.361157 0
M  V30 3361 C 297.036 -1.43277 -0.703124 0
M  V30 3362 C 297.236 -0.575384 -1.9311 0
M  V30 3363 O 296.292 -0.0595362 -2.5243 0
M  V30 3364 C 297.605 -2.8653 -0.9122 0
M  V30 3365 C 299.153 -2.96191 -1.01193 0
M  V30 3366 C 299.628 -4.40514 -1.25345 0
M  V30 3367 N 301.119 -4.43962 -1.32105 0
M  V30 3368 C 301.854 -5.52746 -1.5251 0
M  V30 3369 N 301.35 -6.71567 -1.70203 0
M  V30 3370 N 303.143 -5.40331 -1.54916 0
M  V30 3371 H 295.294 -2.07654 0.446475 0
M  V30 3372 H 297.557 -0.937944 0.137715 0
M  V30 3373 H 297.263 -3.51605 -0.0816414 0
M  V30 3374 H 297.137 -3.30441 -1.81903 0
M  V30 3375 H 299.524 -2.31266 -1.83303 0
M  V30 3376 H 299.605 -2.55667 -0.0823929 0
M  V30 3377 H 299.249 -5.06014 -0.437346 0
M  V30 3378 H 299.179 -4.78614 -2.19627 0
M  V30 3379 H 301.67 -3.58332 -1.20028 0
M  V30 3380 H 301.983 -7.50241 -1.85359 0
M  V30 3381 H 300.328 -6.74545 -1.67373 0
M  V30 3382 H 303.519 -4.46465 -1.40663 0
M  V30 3383 H 303.692 -6.25173 -1.70477 0
M  V30 3384 N 297.098 0.621204 -1.44841 0
M  V30 3385 C 298.046 1.75385 -1.52784 0
M  V30 3386 C 299.04 1.64639 -0.398779 0
M  V30 3387 O 300.246 1.70598 -0.574137 0
M  V30 3388 H 296.621 0.579193 -0.479625 0
M  V30 3389 H 298.592 1.6581 -2.48092 0
M  V30 3390 C 297.341 3.13742 -1.4987 0
M  V30 3391 H 296.664 3.22663 -2.36069 0
M  V30 3392 H 298.104 3.92861 -1.59487 0
M  V30 3393 C 296.563 3.36175 -0.220973 0
M  V30 3394 O 297.093 3.95469 0.704782 0
M  V30 3395 N 295.299 2.90348 -0.120963 0
M  V30 3396 H 294.846 2.42278 -0.875162 0
M  V30 3397 H 294.804 3.05732 0.733168 0
M  V30 3398 N 298.576 1.31904 0.862503 0
M  V30 3399 C 299.804 1.24998 1.64873 0
M  V30 3400 C 300.219 -0.183425 1.87907 0
M  V30 3401 O 299.576 -1.11794 1.44251 0
M  V30 3402 C 299.627 1.99829 3.01248 0
M  V30 3403 O 299.348 3.37575 2.79239 0
M  V30 3404 C 300.849 1.99852 3.95694 0
M  V30 3405 H 298.069 0.431599 0.513773 0
M  V30 3406 H 300.613 1.73901 1.07604 0
M  V30 3407 H 298.768 1.54668 3.55185 0
M  V30 3408 H 299.182 3.75776 3.65914 0
M  V30 3409 H 300.656 2.56709 4.88676 0
M  V30 3410 H 301.133 0.982852 4.28062 0
M  V30 3411 H 301.739 2.44926 3.47694 0
M  V30 3412 N 300.054 -1.07777 1.14986 0
M  V30 3413 C 301.001 -2.14867 0.842672 0
M  V30 3414 C 301.971 -1.6486 -0.202552 0
M  V30 3415 O 303.156 -1.90668 -0.0710568 0
M  V30 3416 C 300.296 -3.43486 0.333363 0
M  V30 3417 C 299.409 -4.07306 1.43965 0
M  V30 3418 C 298.544 -5.23744 0.886914 0
M  V30 3419 C 297.583 -5.79517 1.97043 0
M  V30 3420 N 296.72 -6.87291 1.4344 0
M  V30 3421 H 301.56 -2.40485 1.75986 0
M  V30 3422 H 299.097 -1.1801 0.878179 0
M  V30 3423 H 301.055 -4.17195 0.0198163 0
M  V30 3424 H 299.685 -3.18133 -0.546916 0
M  V30 3425 H 298.737 -3.31293 1.86946 0
M  V30 3426 H 300.049 -4.44771 2.25788 0
M  V30 3427 H 299.203 -6.04419 0.525651 0
M  V30 3428 H 297.942 -4.87685 0.0377957 0
M  V30 3429 H 296.947 -4.97491 2.34057 0
M  V30 3430 H 298.172 -6.17632 2.82325 0
M  V30 3431 H 296.118 -6.5318 0.607567 0
M  V30 3432 H 296.035 -7.23617 2.18895 0
M  V30 3433 H 297.303 -7.71682 1.10124 0
M  V30 3434 N 301.532 -0.945985 -1.26051 0
M  V30 3435 C 302.48 -0.450259 -2.282 0
M  V30 3436 C 303.474 0.47497 -1.62605 0
M  V30 3437 O 304.68 0.352653 -1.76512 0
M  V30 3438 H 301.055 -0.127081 -0.741184 0
M  V30 3439 H 303.026 -1.32422 -2.67408 0
M  V30 3440 C 301.775 0.26467 -3.46691 0
M  V30 3441 H 301.098 -0.438123 -3.97392 0
M  V30 3442 H 302.538 0.575678 -4.20074 0
M  V30 3443 C 300.997 1.48416 -3.02447 0
M  V30 3444 O 301.527 2.58227 -3.07704 0
M  V30 3445 N 299.733 1.34243 -2.57735 0
M  V30 3446 H 299.28 0.448994 -2.53657 0
M  V30 3447 H 299.238 2.15957 -2.28495 0
M  V30 3448 N 303.011 1.40521 -0.713556 0
M  V30 3449 C 304.258 2.00923 -0.25219 0
M  V30 3450 C 304.586 1.56571 1.15395 0
M  V30 3451 O 303.841 0.775874 1.79663 0
M  V30 3452 C 304.14 3.56317 -0.278 0
M  V30 3453 C 303.806 4.20246 -1.63415 0
M  V30 3454 C 302.468 4.37422 -2.00538 0
M  V30 3455 C 304.82 4.55923 -2.52554 0
M  V30 3456 C 302.148 4.87558 -3.2635 0
M  V30 3457 C 304.5 5.07458 -3.77716 0
M  V30 3458 C 303.164 5.22843 -4.14959 0
M  V30 3459 H 302.434 0.735231 -0.0922829 0
M  V30 3460 H 305.081 1.68161 -0.916188 0
M  V30 3461 H 303.386 3.88976 0.469567 0
M  V30 3462 H 305.083 4.00883 0.0967819 0
M  V30 3463 H 301.673 4.07263 -1.33546 0
M  V30 3464 H 305.857 4.42291 -2.25149 0
M  V30 3465 H 301.113 4.97654 -3.55176 0
M  V30 3466 H 305.287 5.34041 -4.4696 0
M  V30 3467 H 302.914 5.61454 -5.12516 0
M  V30 3468 N 304.489 0.459591 1.5075 0
M  V30 3469 C 305.9 0.00171547 1.867 0
M  V30 3470 C 306.251 -1.39934 1.37525 0
M  V30 3471 O 305.376 -2.03523 0.735349 0
M  V30 3472 C 305.971 -0.00366298 3.388 0
M  V30 3473 C 304.53 -0.406026 3.74204 0
M  V30 3474 C 303.677 0.38673 2.7459 0
M  V30 3475 H 306.628 0.674413 1.43657 0
M  V30 3476 H 306.649 -0.808371 3.71814 0
M  V30 3477 H 306.161 1.01617 3.74561 0
M  V30 3478 H 304.262 -1.43063 3.4404 0
M  V30 3479 H 304.375 -0.115362 4.78961 0
M  V30 3480 H 302.739 -0.158019 2.54209 0
M  V30 3481 H 303.522 1.40585 3.13194 0
M  V30 3482 N 305.967 -1.56429 0.191757 0
M  V30 3483 C 307.197 -2.01574 -0.452928 0
M  V30 3484 C 307.605 -1.07107 -1.55964 0
M  V30 3485 O 306.948 -0.067534 -1.83576 0
M  V30 3486 C 307.01 -3.43121 -1.07278 0
M  V30 3487 C 306.674 -4.56879 -0.105214 0
M  V30 3488 C 307.671 -5.15379 0.684149 0
M  V30 3489 C 305.356 -5.023 0.00489824 0
M  V30 3490 C 307.35 -6.17746 1.57062 0
M  V30 3491 C 305.037 -6.04511 0.894935 0
M  V30 3492 C 306.035 -6.62108 1.67637 0
M  V30 3493 O 305.723 -7.62335 2.55149 0
M  V30 3494 H 305.455 -0.665554 -0.118379 0
M  V30 3495 H 308.009 -2.03245 0.296737 0
M  V30 3496 H 306.239 -3.38425 -1.87097 0
M  V30 3497 H 307.928 -3.72093 -1.62177 0
M  V30 3498 H 308.694 -4.81157 0.609365 0
M  V30 3499 H 304.573 -4.57168 -0.593156 0
M  V30 3500 H 308.117 -6.6263 2.181 0
M  V30 3501 H 304.014 -6.38157 0.970847 0
M  V30 3502 H 304.782 -7.79741 2.48892 0
M  V30 3503 N 307.445 0.0818655 -1.57387 0
M  V30 3504 C 308.355 1.11642 -2.06333 0
M  V30 3505 C 309.371 1.43033 -0.99083 0
M  V30 3506 O 310.547 1.53411 -1.30488 0
M  V30 3507 C 307.612 2.41342 -2.48907 0
M  V30 3508 C 306.673 2.17014 -3.7041 0
M  V30 3509 C 305.906 3.4053 -4.10944 0
M  V30 3510 O 306.129 4.4927 -3.51444 0
M  V30 3511 O 305.063 3.29336 -5.03807 0
M  V30 3512 H 308.889 0.730657 -2.9478 0
M  V30 3513 H 306.474 0.295301 -1.46452 0
M  V30 3514 H 308.356 3.17691 -2.76858 0
M  V30 3515 H 307.031 2.79319 -1.63593 0
M  V30 3516 H 305.938 1.38403 -3.47556 0
M  V30 3517 H 307.271 1.83923 -4.56545 0
M  V30 3518 N 308.923 1.53595 0.353017 0
M  V30 3519 C 310.339 1.43648 0.695516 0
M  V30 3520 C 310.539 0.585617 1.92802 0
M  V30 3521 O 309.595 0.0729223 2.52395 0
M  V30 3522 C 310.908 2.8701 0.896991 0
M  V30 3523 C 312.456 2.96723 0.996209 0
M  V30 3524 C 312.931 4.41173 1.23007 0
M  V30 3525 N 314.422 4.44657 1.29749 0
M  V30 3526 C 315.157 5.53547 1.49577 0
M  V30 3527 N 314.653 6.72461 1.66639 0
M  V30 3528 N 316.446 5.41145 1.52048 0
M  V30 3529 H 308.597 2.07415 -0.457481 0
M  V30 3530 H 310.86 0.9372 -0.142687 0
M  V30 3531 H 310.566 3.51644 0.0629938 0
M  V30 3532 H 310.44 3.31401 1.80148 0
M  V30 3533 H 312.827 2.32235 1.82074 0
M  V30 3534 H 312.908 2.55707 0.0688331 0
M  V30 3535 H 312.552 5.06238 0.410505 0
M  V30 3536 H 312.482 4.79772 2.17086 0
M  V30 3537 H 314.973 3.58963 1.18126 0
M  V30 3538 H 315.286 7.51214 1.81378 0
M  V30 3539 H 313.631 6.75423 1.63794 0
M  V30 3540 H 316.822 4.47205 1.38294 0
M  V30 3541 H 316.995 6.26068 1.67159 0
M  V30 3542 N 310.401 -0.613514 1.45168 0
M  V30 3543 C 311.817 -0.933629 1.29443 0
M  V30 3544 C 312.017 -2.00028 0.243101 0
M  V30 3545 O 311.073 -2.49848 -0.364992 0
M  V30 3546 C 312.386 -1.38018 2.67155 0
M  V30 3547 C 313.934 -1.49471 2.75004 0
M  V30 3548 C 314.409 -1.97503 4.13227 0
M  V30 3549 N 315.9 -2.04746 4.15491 0
M  V30 3550 C 316.635 -2.43121 5.19307 0
M  V30 3551 N 316.131 -2.80506 6.33473 0
M  V30 3552 N 317.924 -2.43408 5.06664 0
M  V30 3553 H 310.075 0.0916097 2.12202 0
M  V30 3554 H 312.338 -0.0216655 0.947752 0
M  V30 3555 H 312.044 -0.670625 3.45247 0
M  V30 3556 H 311.918 -2.34784 2.95222 0
M  V30 3557 H 314.305 -2.19519 1.9722 0
M  V30 3558 H 314.386 -0.510342 2.50657 0
M  V30 3559 H 314.03 -1.28045 4.91495 0
M  V30 3560 H 313.96 -2.96843 4.34962 0
M  V30 3561 H 316.451 -1.78468 3.33103 0
M  V30 3562 H 316.764 -3.08652 7.08487 0
M  V30 3563 H 315.109 -2.78216 6.36884 0
M  V30 3564 H 318.3 -2.13604 4.16523 0
M  V30 3565 H 318.473 -2.72989 5.87691 0
M  V30 3566 N 311.879 -1.3236 -0.855495 0
M  V30 3567 C 313.29 -1.2056 -1.42556 0
M  V30 3568 C 313.641 0.182209 -1.95352 0
M  V30 3569 O 312.766 1.08088 -1.87472 0
M  V30 3570 C 313.361 -2.1826 -2.59129 0
M  V30 3571 C 311.92 -2.10351 -3.12137 0
M  V30 3572 C 311.067 -2.06674 -1.84882 0
M  V30 3573 H 314.018 -1.442 -0.662727 0
M  V30 3574 H 314.039 -1.78064 -3.36264 0
M  V30 3575 H 313.551 -3.19257 -2.20673 0
M  V30 3576 H 311.652 -1.12599 -3.55179 0
M  V30 3577 H 311.765 -3.00135 -3.73438 0
M  V30 3578 H 310.129 -1.51901 -2.04446 0
M  V30 3579 H 310.912 -3.09451 -1.48643 0
M  V30 3580 N 313.357 1.07166 -1.15556 0
M  V30 3581 C 314.585 1.83514 -0.955519 0
M  V30 3582 C 315 1.82163 0.49621 0
M  V30 3583 O 314.357 1.23441 1.34419 0
M  V30 3584 C 314.408 3.30515 -1.46432 0
M  V30 3585 O 314.129 3.31937 -2.85918 0
M  V30 3586 C 315.63 4.23625 -1.30603 0
M  V30 3587 H 312.85 0.578926 -0.339244 0
M  V30 3588 H 315.394 1.35265 -1.53374 0
M  V30 3589 H 313.549 3.76106 -0.928584 0
M  V30 3590 H 313.963 4.23794 -3.09029 0
M  V30 3591 H 315.437 5.24831 -1.71047 0
M  V30 3592 H 315.914 4.38485 -0.250441 0
M  V30 3593 H 316.52 3.83871 -1.83094 0
M  V30 3594 N 314.835 0.952656 1.25548 0
M  V30 3595 C 316.06 0.623025 1.97821 0
M  V30 3596 C 316.485 -0.7976 1.70352 0
M  V30 3597 O 315.843 -1.53905 0.958283 0
M  V30 3598 C 315.891 0.885532 3.49558 0
M  V30 3599 O 314.995 -0.0366641 4.12384 0
M  V30 3600 H 314.336 0.237082 0.620232 0
M  V30 3601 H 316.866 1.27871 1.59719 0
M  V30 3602 H 316.876 0.811009 3.99858 0
M  V30 3603 H 315.551 1.92094 3.6888 0
M  V30 3604 H 314.128 0.0898954 3.72792 0
M  V30 3605 N 316.313 -1.40141 0.720998 0
M  V30 3606 C 317.276 -2.29058 0.0805834 0
M  V30 3607 C 318.276 -1.45632 -0.681758 0
M  V30 3608 O 319.466 -1.6648 -0.512856 0
M  V30 3609 C 316.598 -3.28925 -0.895593 0
M  V30 3610 H 317.791 -2.87191 0.863793 0
M  V30 3611 H 315.344 -1.48553 0.485975 0
M  V30 3612 H 316.079 -2.75822 -1.70566 0
M  V30 3613 H 315.864 -3.90519 -0.351766 0
M  V30 3614 H 317.354 -3.95494 -1.34069 0
M  V30 3615 N 317.792 -0.46758 -1.50504 0
M  V30 3616 C 318.755 0.317059 -2.26996 0
M  V30 3617 C 319.755 0.923513 -1.31635 0
M  V30 3618 O 320.945 0.793239 -1.55091 0
M  V30 3619 C 318.077 1.45134 -3.08462 0
M  V30 3620 H 319.27 -0.353723 -2.97807 0
M  V30 3621 H 316.823 -0.221545 -1.54722 0
M  V30 3622 H 317.558 2.15728 -2.4214 0
M  V30 3623 H 317.343 1.02232 -3.78538 0
M  V30 3624 H 318.833 2.00493 -3.66323 0
M  V30 3625 N 319.27 1.56325 -0.20005 0
M  V30 3626 C 320.51 1.99619 0.439519 0
M  V30 3627 C 320.874 1.08423 1.58456 0
M  V30 3628 O 322.075 1.40973 2.28867 0
M  V30 3629 C 320.346 3.46314 0.883258 0
M  V30 3630 S 321.905 4.11634 1.51997 0
M  V30 3631 H 318.723 0.697007 0.140363 0
M  V30 3632 H 321.325 1.93118 -0.304282 0
M  V30 3633 H 320.029 4.10381 0.0398967 0
M  V30 3634 H 319.56 3.56643 1.6604 0
M  V30 3635 H 321.575 4.09049 2.8088 0
M  V30 3636 N 320.748 -0.0735177 1.57428 0
M  V30 3637 C 321.997 -0.771809 1.86349 0
M  V30 3638 C 322.31 -1.78828 0.792452 0
M  V30 3639 O 323.516 -2.53602 0.96945 0
M  V30 3640 C 321.972 -1.42358 3.30548 0
M  V30 3641 C 321.58 -0.445761 4.45777 0
M  V30 3642 C 323.324 -2.10434 3.6867 0
M  V30 3643 C 321.231 -1.10335 5.81016 0
M  V30 3644 H 320.161 -0.291999 0.695164 0
M  V30 3645 H 322.812 -0.0250749 1.83483 0
M  V30 3646 H 321.194 -2.21852 3.28021 0
M  V30 3647 H 322.368 0.319239 4.59693 0
M  V30 3648 H 320.683 0.130457 4.16196 0
M  V30 3649 H 323.28 -2.60405 4.67004 0
M  V30 3650 H 323.623 -2.90298 2.98383 0
M  V30 3651 H 324.156 -1.37773 3.7318 0
M  V30 3652 H 320.895 -0.345061 6.54591 0
M  V30 3653 H 320.415 -1.83925 5.70904 0
M  V30 3654 H 322.094 -1.62367 6.26295 0
M  V30 3655 N 322.226 -1.5378 -0.344866 0
M  V30 3656 C 323.637 -1.62428 -0.920552 0
M  V30 3657 C 323.988 -0.504747 -1.89596 0
M  V30 3658 O 323.113 0.365711 -2.13287 0
M  V30 3659 C 323.708 -2.94419 -1.67639 0
M  V30 3660 C 322.267 -3.05333 -2.20111 0
M  V30 3661 C 321.414 -2.57866 -1.01982 0
M  V30 3662 H 324.365 -1.58222 -0.123042 0
M  V30 3663 H 324.386 -2.83384 -2.53917 0
M  V30 3664 H 323.898 -3.7588 -0.966224 0
M  V30 3665 H 321.999 -2.28502 -2.94308 0
M  V30 3666 H 322.112 -4.10778 -2.46573 0
M  V30 3667 H 320.476 -2.13241 -1.39285 0
M  V30 3668 H 321.259 -3.41765 -0.324308 0
M  V30 3669 N 323.704 0.605807 -1.45491 0
M  V30 3670 C 324.951 1.36476 -1.49601 0
M  V30 3671 C 325.279 1.94007 -0.138452 0
M  V30 3672 O 324.534 1.75638 0.863114 0
M  V30 3673 C 324.833 2.53012 -2.52428 0
M  V30 3674 C 324.499 2.13617 -3.97087 0
M  V30 3675 C 323.161 2.02587 -4.36477 0
M  V30 3676 C 325.513 1.82899 -4.88055 0
M  V30 3677 C 322.841 1.59064 -5.64726 0
M  V30 3678 C 325.193 1.40861 -6.16718 0
M  V30 3679 C 323.857 1.28391 -6.55036 0
M  V30 3680 H 323.127 0.499402 -0.547429 0
M  V30 3681 H 325.774 0.684546 -1.78847 0
M  V30 3682 H 324.079 3.26379 -2.16758 0
M  V30 3683 H 325.776 3.1124 -2.52845 0
M  V30 3684 H 322.366 2.23129 -3.65939 0
M  V30 3685 H 326.55 1.90317 -4.58359 0
M  V30 3686 H 321.806 1.48034 -5.93208 0
M  V30 3687 H 325.98 1.16138 -6.86648 0
M  V30 3688 H 323.607 0.944403 -7.54311 0
M  V30 3689 N 325.182 1.32811 0.848464 0
M  V30 3690 C 326.43 1.23479 1.59991 0
M  V30 3691 C 326.751 -0.201853 1.93952 0
M  V30 3692 O 326.021 -1.12818 1.60153 0
M  V30 3693 H 324.601 0.454034 0.593179 0
M  V30 3694 H 327.263 1.66412 1.01455 0
M  V30 3695 H 326.359 1.82178 2.53412 0
M  V30 3696 N 326.66 -1.06551 1.16123 0
M  V30 3697 C 327.592 -2.13908 0.823171 0
M  V30 3698 C 328.605 -1.61926 -0.16843 0
M  V30 3699 O 329.794 -1.78412 0.055962 0
M  V30 3700 C 326.894 -3.38283 0.204424 0
M  V30 3701 C 326.067 -4.19589 1.23548 0
M  V30 3702 C 325.126 -5.2233 0.637011 0
M  V30 3703 O 324.152 -5.54034 1.30516 0
M  V30 3704 N 325.354 -5.77621 -0.577474 0
M  V30 3705 H 328.119 -2.43508 1.74711 0
M  V30 3706 H 325.68 -1.2253 1.05821 0
M  V30 3707 H 327.672 -4.0416 -0.208909 0
M  V30 3708 H 326.242 -3.06329 -0.623012 0
M  V30 3709 H 325.462 -3.49406 1.82507 0
M  V30 3710 H 326.75 -4.70718 1.93137 0
M  V30 3711 H 326.148 -5.54125 -1.13853 0
M  V30 3712 H 324.705 -6.45087 -0.933053 0
M  V30 3713 N 328.138 -0.959301 -1.25041 0
M  V30 3714 C 329.386 -0.615393 -1.92503 0
M  V30 3715 C 329.707 0.850969 -1.75452 0
M  V30 3716 O 328.977 1.60658 -1.12098 0
M  V30 3717 H 327.557 -0.224613 -0.712431 0
M  V30 3718 H 330.219 -1.21855 -1.5211 0
M  V30 3719 H 329.315 -0.848738 -3.00338 0
M  V30 3720 N 329.616 1.39756 -0.72842 0
M  V30 3721 C 330.893 1.94574 -0.200079 0
M  V30 3722 C 331.273 1.66569 1.29684 0
M  V30 3723 O 330.621 0.990326 2.05924 0
M  V30 3724 C 330.831 3.45004 -0.526608 0
M  V30 3725 C 332.179 4.21965 -0.472318 0
M  V30 3726 O 333.203 3.53173 -0.463413 0
M  V30 3727 O 332.062 5.44552 -0.461075 0
M  V30 3728 H 329.156 0.826289 -0.0342851 0
M  V30 3729 H 331.702 1.49293 -0.806829 0
M  V30 3730 H 330.474 3.58796 -1.56144 0
M  V30 3731 H 330.097 3.97449 0.109449 0
M  V30 3732 N 331.094 0.475555 1.50254 0
M  V30 3733 C 332.341 -0.0778919 2.0235 0
M  V30 3734 C 332.669 -1.39319 1.35722 0
M  V30 3735 O 331.924 -1.89888 0.473395 0
M  V30 3736 C 332.223 -0.305114 3.56095 0
M  V30 3737 C 331.889 0.92903 4.41225 0
M  V30 3738 C 330.551 1.26739 4.6421 0
M  V30 3739 C 332.903 1.75054 4.90923 0
M  V30 3740 C 330.231 2.42724 5.34137 0
M  V30 3741 C 332.583 2.9017 5.62125 0
M  V30 3742 C 331.247 3.24416 5.83362 0
M  V30 3743 H 330.517 -0.0285027 0.740452 0
M  V30 3744 H 333.164 0.630543 1.80821 0
M  V30 3745 H 331.469 -1.09584 3.76163 0
M  V30 3746 H 333.166 -0.747377 3.93974 0
M  V30 3747 H 329.756 0.655428 4.23559 0
M  V30 3748 H 333.94 1.50231 4.73016 0
M  V30 3749 H 329.196 2.69525 5.48786 0
M  V30 3750 H 333.37 3.54169 5.99614 0
M  V30 3751 H 330.997 4.14396 6.37323 0
M  V30 3752 N 332.573 -1.56217 0.208337 0
M  V30 3753 C 333.803 -2.02043 -0.431523 0
M  V30 3754 C 334.211 -1.08755 -1.54819 0
M  V30 3755 O 333.554 -0.0870009 -1.83494 0
M  V30 3756 C 333.616 -3.44239 -1.03633 0
M  V30 3757 C 333.28 -4.56965 -0.0567502 0
M  V30 3758 C 334.277 -5.14624 0.738773 0
M  V30 3759 C 331.962 -5.02266 0.0581736 0
M  V30 3760 C 333.956 -6.16045 1.63605 0
M  V30 3761 C 331.643 -6.03528 0.959001 0
M  V30 3762 C 332.641 -6.60293 1.7465 0
M  V30 3763 O 332.329 -7.59586 2.6322 0
M  V30 3764 H 332.061 -0.666772 -0.111313 0
M  V30 3765 H 334.615 -2.02919 0.318277 0
M  V30 3766 H 332.845 -3.40391 -1.83497 0
M  V30 3767 H 334.534 -3.73793 -1.58221 0
M  V30 3768 H 335.3 -4.80483 0.660364 0
M  V30 3769 H 331.179 -4.57771 -0.544633 0
M  V30 3770 H 334.723 -6.60279 2.25116 0
M  V30 3771 H 330.62 -6.37092 1.03848 0
M  V30 3772 H 331.388 -7.77057 2.57148 0
M  V30 3773 N 334.051 0.0651679 -1.57465 0
M  V30 3774 C 335.281 0.774683 -1.91526 0
M  V30 3775 C 335.689 1.71305 -0.803196 0
M  V30 3776 O 335.032 1.82231 0.231881 0
M  V30 3777 C 335.094 1.61645 -3.21109 0
M  V30 3778 C 334.758 0.846753 -4.49087 0
M  V30 3779 C 335.755 0.163024 -5.19644 0
M  V30 3780 C 333.44 0.811966 -4.95694 0
M  V30 3781 C 335.434 -0.54519 -6.35064 0
M  V30 3782 C 333.121 0.0999836 -6.11018 0
M  V30 3783 C 334.119 -0.577388 -6.80555 0
M  V30 3784 O 333.807 -1.27789 -7.93678 0
M  V30 3785 H 333.539 0.225031 -0.637446 0
M  V30 3786 H 336.093 0.0377134 -2.05365 0
M  V30 3787 H 334.323 2.39638 -3.03497 0
M  V30 3788 H 336.012 2.20525 -3.40769 0
M  V30 3789 H 336.778 0.181163 -4.84662 0
M  V30 3790 H 332.657 1.32867 -4.41438 0
M  V30 3791 H 336.201 -1.07446 -6.89276 0
M  V30 3792 H 332.098 0.0797945 -6.45451 0
M  V30 3793 H 332.866 -1.18784 -8.09835 0
M  V30 3794 N 335.529 1.53961 0.336706 0
M  V30 3795 C 336.777 1.71197 1.07405 0
M  V30 3796 C 337.098 0.481475 1.88962 0
M  V30 3797 O 336.368 -0.504585 1.8929 0
M  V30 3798 H 334.948 0.631185 0.399517 0
M  V30 3799 H 337.61 1.91232 0.376323 0
M  V30 3800 H 336.706 2.58587 1.74755 0
M  V30 3801 N 337.007 -0.598083 1.45811 0
M  V30 3802 C 337.955 -1.72932 1.55555 0
M  V30 3803 C 338.949 -1.63984 0.424921 0
M  V30 3804 O 340.155 -1.69663 0.601205 0
M  V30 3805 H 336.53 -0.571489 0.488779 0
M  V30 3806 H 338.501 -1.61842 2.50699 0
M  V30 3807 C 337.25 -3.11318 1.54843 0
M  V30 3808 H 336.573 -3.18867 2.41172 0
M  V30 3809 H 338.013 -3.90274 1.65717 0
M  V30 3810 C 336.472 -3.3578 0.274427 0
M  V30 3811 O 337.002 -3.9654 -0.641778 0
M  V30 3812 N 335.208 -2.90119 0.167139 0
M  V30 3813 H 334.755 -2.40855 0.913596 0
M  V30 3814 H 334.713 -3.0686 -0.684435 0
M  V30 3815 N 338.485 -1.33259 -0.841409 0
M  V30 3816 C 339.415 -1.25926 -1.96634 0
M  V30 3817 C 340.396 -0.140349 -1.6952 0
M  V30 3818 O 341.581 -0.329707 -1.91381 0
M  V30 3819 C 338.711 -0.99512 -3.32738 0
M  V30 3820 C 337.665 -2.0767 -3.74242 0
M  V30 3821 C 336.991 -1.66474 -5.08125 0
M  V30 3822 C 338.291 -3.49318 -3.88297 0
M  V30 3823 H 339.985 -2.20046 -2.03027 0
M  V30 3824 H 337.531 -1.05931 -0.975425 0
M  V30 3825 H 339.484 -0.930323 -4.11002 0
M  V30 3826 H 338.208 -0.0183004 -3.26595 0
M  V30 3827 H 336.867 -2.13187 -2.98239 0
M  V30 3828 H 336.515 -0.675012 -4.9845 0
M  V30 3829 H 336.215 -2.3885 -5.36865 0
M  V30 3830 H 337.739 -1.61455 -5.88867 0
M  V30 3831 H 339.153 -3.46316 -4.56879 0
M  V30 3832 H 337.55 -4.20158 -4.28471 0
M  V30 3833 H 338.62 -3.8801 -2.9082 0
M  V30 3834 N 339.963 1.05934 -1.16686 0
M  V30 3835 C 340.896 2.1295 -0.820225 0
M  V30 3836 C 341.874 1.61242 0.209722 0
M  V30 3837 O 343.058 1.88271 0.0929688 0
M  V30 3838 C 340.185 3.3797 -0.22223 0
M  V30 3839 C 339.231 4.08488 -1.22637 0
M  V30 3840 S 340.064 4.58015 -2.77457 0
M  V30 3841 C 341.22 5.86292 -2.19117 0
M  V30 3842 H 341.453 2.42025 -1.72659 0
M  V30 3843 H 338.986 1.18423 -0.990722 0
M  V30 3844 H 340.944 4.10335 0.116322 0
M  V30 3845 H 339.605 3.07045 0.66196 0
M  V30 3846 H 338.798 4.98291 -0.756455 0
M  V30 3847 H 338.4 3.42154 -1.51019 0
M  V30 3848 H 340.692 6.59246 -1.56209 0
M  V30 3849 H 341.635 6.38019 -3.07144 0
M  V30 3850 H 342.043 5.40497 -1.62858 0
M  V30 3851 N 341.441 0.965919 1.2453 0
M  V30 3852 C 342.687 0.62776 1.92839 0
M  V30 3853 C 343.02 -0.834694 1.75347 0
M  V30 3854 O 342.295 -1.60031 1.10546 0
M  V30 3855 C 342.578 1.00109 3.45905 0
M  V30 3856 C 342.431 2.52011 3.72573 0
M  V30 3857 C 343.75 0.53435 4.36844 0
M  V30 3858 H 340.869 0.229537 0.700344 0
M  V30 3859 H 343.511 1.2046 1.46933 0
M  V30 3860 H 341.661 0.510238 3.85135 0
M  V30 3861 H 343.333 3.08559 3.42912 0
M  V30 3862 H 341.576 2.95287 3.17786 0
M  V30 3863 H 342.247 2.73183 4.79661 0
M  V30 3864 H 344.723 0.955565 4.04979 0
M  V30 3865 H 343.599 0.824152 5.42678 0
M  V30 3866 H 343.86 -0.565589 4.38467 0
M  V30 3867 N 342.919 -1.39368 0.735821 0
M  V30 3868 C 344.167 -2.00101 0.283562 0
M  V30 3869 C 344.488 -1.5868 -1.13338 0
M  V30 3870 O 343.758 -0.835423 -1.77193 0
M  V30 3871 H 342.338 -0.740024 0.101851 0
M  V30 3872 H 345 -1.70404 0.945962 0
M  V30 3873 H 344.096 -3.10323 0.332604 0
M  V30 3874 N 344.397 -0.483516 -1.5 0
M  V30 3875 C 345.645 0.067027 -2.01989 0
M  V30 3876 C 345.966 1.3909 -1.36671 0
M  V30 3877 O 345.236 1.88978 -0.516152 0
M  V30 3878 H 343.816 0.0277606 -0.746484 0
M  V30 3879 H 346.478 -0.636773 -1.84204 0
M  V30 3880 H 345.574 0.209484 -3.11396 0
M  V30 3881 N 345.875 1.56104 -0.216619 0
M  V30 3882 C 347.103 2.02563 0.421413 0
M  V30 3883 C 347.518 1.0965 1.53695 0
M  V30 3884 O 346.875 0.10521 1.82196 0
M  V30 3885 C 346.926 3.48584 0.957665 0
M  V30 3886 O 346.647 4.37953 -0.113389 0
M  V30 3887 C 348.148 4.10664 1.66943 0
M  V30 3888 H 345.368 0.662944 0.103665 0
M  V30 3889 H 347.912 2.01793 -0.331629 0
M  V30 3890 H 346.067 3.49985 1.661 0
M  V30 3891 H 346.481 5.23704 0.288932 0
M  V30 3892 H 347.955 5.14622 1.99671 0
M  V30 3893 H 348.432 3.55373 2.58083 0
M  V30 3894 H 349.038 4.13098 1.01142 0
M  V30 3895 N 347.353 -0.0568162 1.57498 0
M  V30 3896 C 348.764 -0.606858 1.76562 0
M  V30 3897 C 349.115 -1.77114 0.844094 0
M  V30 3898 O 348.24 -2.16376 0.0318911 0
M  V30 3899 C 348.835 -1.10766 3.20182 0
M  V30 3900 C 347.394 -1.60344 3.40539 0
M  V30 3901 C 346.541 -0.529311 2.72201 0
M  V30 3902 H 349.492 0.169393 1.57793 0
M  V30 3903 H 349.513 -1.97602 3.25167 0
M  V30 3904 H 349.025 -0.26006 3.87228 0
M  V30 3905 H 347.126 -2.47379 2.78629 0
M  V30 3906 H 347.239 -1.67006 4.4905 0
M  V30 3907 H 345.603 -0.977893 2.35179 0
M  V30 3908 H 346.386 0.308352 3.41912 0
M  V30 3909 N 348.832 -1.54138 -0.328536 0
M  V30 3910 C 349.782 -1.79557 -1.4051 0
M  V30 3911 C 350.766 -0.651373 -1.47126 0
M  V30 3912 O 351.958 -0.911226 -1.51742 0
M  V30 3913 C 349.087 -2.02196 -2.77438 0
M  V30 3914 C 348.173 -3.22724 -2.75155 0
M  V30 3915 N 348.564 -4.43881 -2.42494 0
M  V30 3916 C 346.862 -3.24196 -3.06289 0
M  V30 3917 C 347.563 -5.25797 -2.48822 0
M  V30 3918 N 346.539 -4.62862 -2.8506 0
M  V30 3919 H 350.341 -2.70814 -1.1418 0
M  V30 3920 H 347.855 -1.53265 -0.536991 0
M  V30 3921 H 349.852 -2.18546 -3.55026 0
M  V30 3922 H 348.512 -1.12191 -3.04702 0
M  V30 3923 H 349.523 -4.70969 -2.15428 0
M  V30 3924 H 346.2 -2.44208 -3.38627 0
M  V30 3925 H 347.59 -6.32535 -2.26603 0
M  V30 3926 N 350.31 0.590341 -1.46126 0
M  V30 3927 C 351.258 1.72105 -1.5647 0
M  V30 3928 C 352.252 1.63756 -0.433612 0
M  V30 3929 O 353.458 1.69342 -0.610194 0
M  V30 3930 H 349.833 0.568889 -0.491802 0
M  V30 3931 H 351.804 1.6051 -2.51553 0
M  V30 3932 C 350.553 3.10493 -1.56491 0
M  V30 3933 H 349.876 3.17583 -2.4286 0
M  V30 3934 H 351.316 3.8939 -1.67785 0
M  V30 3935 C 349.775 3.3563 -0.292231 0
M  V30 3936 O 350.305 3.96875 0.620739 0
M  V30 3937 N 348.511 2.90026 -0.182523 0
M  V30 3938 H 348.058 2.40367 -0.926356 0
M  V30 3939 H 348.016 3.07218 0.668152 0
M  V30 3940 N 351.788 1.33704 0.83433 0
M  V30 3941 C 353.037 1.24763 1.58484 0
M  V30 3942 C 353.35 -0.183775 1.94735 0
M  V30 3943 O 354.556 -0.395234 2.68608 0
M  V30 3944 C 353.012 2.18638 2.85876 0
M  V30 3945 C 352.62 3.66974 2.56971 0
M  V30 3946 C 354.364 2.18581 3.63899 0
M  V30 3947 C 352.271 4.5275 3.80488 0
M  V30 3948 H 351.201 0.463425 0.594772 0
M  V30 3949 H 353.852 1.58797 0.919551 0
M  V30 3950 H 352.234 1.77542 3.5397 0
M  V30 3951 H 353.408 4.16538 1.9706 0
M  V30 3952 H 351.723 3.69366 1.92244 0
M  V30 3953 H 354.32 2.79894 4.55591 0
M  V30 3954 H 354.663 1.18207 3.99165 0
M  V30 3955 H 355.196 2.58062 3.02735 0
M  V30 3956 H 351.935 5.54017 3.5035 0
M  V30 3957 H 351.455 4.07927 4.39722 0
M  V30 3958 H 353.134 4.66784 4.4802 0
M  V30 3959 N 353.266 -1.05314 1.17247 0
M  V30 3960 C 354.196 -2.1498 0.911362 0
M  V30 3961 C 355.177 -1.69471 -0.146169 0
M  V30 3962 O 356.362 -1.942 0.003812 0
M  V30 3963 C 353.492 -3.4472 0.422528 0
M  V30 3964 C 352.446 -4.03789 1.4191 0
M  V30 3965 C 351.772 -5.28858 0.788274 0
M  V30 3966 C 353.072 -4.41418 2.7919 0
M  V30 3967 H 354.766 -2.3708 1.82848 0
M  V30 3968 H 352.312 -1.13938 0.880569 0
M  V30 3969 H 354.265 -4.20787 0.227289 0
M  V30 3970 H 352.989 -3.22269 -0.530123 0
M  V30 3971 H 351.648 -3.2979 1.60106 0
M  V30 3972 H 351.296 -5.02709 -0.171173 0
M  V30 3973 H 350.996 -5.69338 1.45353 0
M  V30 3974 H 352.52 -6.07612 0.603282 0
M  V30 3975 H 353.934 -5.08524 2.64719 0
M  V30 3976 H 352.331 -4.92913 3.42282 0
M  V30 3977 H 353.401 -3.51819 3.33693 0
M  V30 3978 N 354.744 -0.972509 -1.24016 0
M  V30 3979 C 356.021 -0.553733 -1.87598 0
M  V30 3980 C 356.401 0.969158 -1.87538 0
M  V30 3981 O 355.749 1.84255 -1.35139 0
M  V30 3982 C 355.959 -1.15076 -3.29482 0
M  V30 3983 C 357.307 -1.23862 -4.06132 0
M  V30 3984 O 358.331 -1.10363 -3.38672 0
M  V30 3985 O 357.19 -1.45252 -5.26844 0
M  V30 3986 H 354.284 -0.185331 -0.805966 0
M  V30 3987 H 356.83 -1.06709 -1.31952 0
M  V30 3988 H 355.602 -2.19333 -3.2405 0
M  V30 3989 H 355.225 -0.621746 -3.92709 0
M  V30 3990 N 356.222 1.38976 -0.743202 0
M  V30 3991 C 357.469 2.00343 -0.294752 0
M  V30 3992 C 357.797 1.58983 1.12047 0
M  V30 3993 O 357.052 0.813809 1.77977 0
M  V30 3994 C 357.351 3.55647 -0.353517 0
M  V30 3995 C 357.017 4.16685 -1.72292 0
M  V30 3996 C 355.679 4.3307 -2.09771 0
M  V30 3997 C 358.031 4.50464 -2.62168 0
M  V30 3998 C 355.359 4.80526 -3.36618 0
M  V30 3999 C 357.711 4.99332 -3.88395 0
M  V30 4000 C 356.375 5.13924 -4.25956 0
M  V30 4001 H 355.645 0.733108 -0.107857 0
M  V30 4002 H 358.292 1.6618 -0.951651 0
M  V30 4003 H 356.597 3.89884 0.386954 0
M  V30 4004 H 358.294 4.00998 0.0117269 0
M  V30 4005 H 354.884 4.04339 -1.42155 0
M  V30 4006 H 359.068 4.37416 -2.3448 0
M  V30 4007 H 354.324 4.90008 -3.65653 0
M  V30 4008 H 358.498 5.2444 -4.58187 0
M  V30 4009 H 356.125 5.50457 -5.2431 0
M  V30 4010 N 357.7 0.491464 1.49741 0
M  V30 4011 C 358.949 -0.0582189 2.01616 0
M  V30 4012 C 359.262 -1.38927 1.3769 0
M  V30 4013 O 360.468 -2.02509 1.80838 0
M  V30 4014 C 358.924 -0.154235 3.59569 0
M  V30 4015 C 358.532 1.1696 4.32463 0
M  V30 4016 C 360.276 -0.65479 4.1942 0
M  V30 4017 C 358.183 1.03627 5.8225 0
M  V30 4018 H 357.113 -0.0255317 0.753568 0
M  V30 4019 H 359.764 0.629445 1.72367 0
M  V30 4020 H 358.146 -0.906138 3.85493 0
M  V30 4021 H 359.32 1.93405 4.18248 0
M  V30 4022 H 357.635 1.60285 3.84315 0
M  V30 4023 H 360.232 -0.771903 5.29099 0
M  V30 4024 H 360.575 -1.65127 3.8215 0
M  V30 4025 H 361.108 0.040304 3.9778 0
M  V30 4026 H 357.847 2.00672 6.24028 0
M  V30 4027 H 357.367 0.312546 5.98985 0
M  V30 4028 H 359.046 0.711114 6.4308 0
M  V30 4029 N 359.178 -1.55987 0.224894 0
M  V30 4030 C 360.125 -2.20436 -0.68385 0
M  V30 4031 C 361.095 -1.16102 -1.18783 0
M  V30 4032 O 362.28 -1.4447 -1.24632 0
M  V30 4033 C 359.42 -2.89076 -1.88491 0
M  V30 4034 C 358.533 -4.08012 -1.41951 0
M  V30 4035 C 357.668 -4.64426 -2.5784 0
M  V30 4036 C 356.707 -5.75656 -2.08053 0
M  V30 4037 N 355.844 -6.26347 -3.17227 0
M  V30 4038 H 360.684 -2.97727 -0.12754 0
M  V30 4039 H 358.221 -1.47011 -0.0511978 0
M  V30 4040 H 360.179 -3.27059 -2.59014 0
M  V30 4041 H 358.809 -2.14298 -2.41405 0
M  V30 4042 H 357.861 -3.75492 -0.609095 0
M  V30 4043 H 359.173 -4.88375 -1.01447 0
M  V30 4044 H 358.327 -5.04869 -3.3644 0
M  V30 4045 H 357.066 -3.83233 -3.01635 0
M  V30 4046 H 356.071 -5.34712 -1.27916 0
M  V30 4047 H 357.296 -6.58686 -1.65255 0
M  V30 4048 H 355.242 -5.48067 -3.60497 0
M  V30 4049 H 355.159 -7.01843 -2.80986 0
M  V30 4050 H 356.427 -6.71447 -3.95953 0
M  V30 4051 N 360.656 0.0484629 -1.57525 0
M  V30 4052 C 361.566 1.07241 -2.08654 0
M  V30 4053 C 362.582 1.409 -1.02095 0
M  V30 4054 O 363.758 1.50609 -1.33712 0
M  V30 4055 C 360.823 2.36008 -2.5397 0
M  V30 4056 C 359.884 2.09108 -3.7493 0
M  V30 4057 C 359.117 3.31736 -4.18075 0
M  V30 4058 O 359.34 4.41714 -3.60895 0
M  V30 4059 O 358.274 3.18576 -5.10679 0
M  V30 4060 H 362.1 0.667965 -2.96263 0
M  V30 4061 H 359.685 0.26417 -1.47046 0
M  V30 4062 H 361.567 3.11747 -2.83535 0
M  V30 4063 H 360.242 2.75786 -1.69481 0
M  V30 4064 H 359.149 1.31 -3.50414 0
M  V30 4065 H 360.482 1.74198 -4.60343 0
M  V30 4066 N 362.134 1.5431 0.320358 0
M  V30 4067 C 363.364 1.7638 1.07582 0
M  V30 4068 C 363.772 0.513944 1.82086 0
M  V30 4069 O 363.115 -0.525123 1.76035 0
M  V30 4070 C 363.177 2.9055 2.1171 0
M  V30 4071 C 362.841 4.2934 1.56575 0
M  V30 4072 C 363.838 5.10077 1.00586 0
M  V30 4073 C 361.523 4.75893 1.60722 0
M  V30 4074 C 363.517 6.35477 0.494756 0
M  V30 4075 C 361.204 6.0126 1.09224 0
M  V30 4076 C 362.202 6.80886 0.53696 0
M  V30 4077 O 361.89 8.03894 0.0297371 0
M  V30 4078 H 361.622 0.592369 0.325692 0
M  V30 4079 H 364.176 2.02019 0.37116 0
M  V30 4080 H 362.406 2.60489 2.85801 0
M  V30 4081 H 364.095 3.00373 2.73003 0
M  V30 4082 H 364.861 4.75265 0.966869 0
M  V30 4083 H 360.74 4.13957 2.02882 0
M  V30 4084 H 364.284 6.97574 0.0606842 0
M  V30 4085 H 360.181 6.35562 1.12831 0
M  V30 4086 H 360.949 8.18372 0.14486 0
M  V30 4087 N 363.613 -0.582584 1.46437 0
M  V30 4088 C 364.543 -1.70187 1.59871 0
M  V30 4089 C 365.524 -1.64066 0.449042 0
M  V30 4090 O 366.709 -1.82081 0.6753 0
M  V30 4091 C 363.839 -3.08827 1.58881 0
M  V30 4092 C 362.793 -3.29779 2.72819 0
M  V30 4093 C 362.119 -4.68947 2.5689 0
M  V30 4094 C 363.419 -3.17601 4.1464 0
M  V30 4095 H 365.113 -1.592 2.53566 0
M  V30 4096 H 362.659 -0.764472 1.22032 0
M  V30 4097 H 364.612 -3.86951 1.66873 0
M  V30 4098 H 363.336 -3.20713 0.617306 0
M  V30 4099 H 361.995 -2.54054 2.64296 0
M  V30 4100 H 361.643 -4.77599 1.57823 0
M  V30 4101 H 361.343 -4.83919 3.33312 0
M  V30 4102 H 362.867 -5.4924 2.66773 0
M  V30 4103 H 364.281 -3.8557 4.24274 0
M  V30 4104 H 362.678 -3.44094 4.9165 0
M  V30 4105 H 363.748 -2.14681 4.34788 0
M  V30 4106 N 365.091 -1.34144 -0.827227 0
M  V30 4107 C 366.039 -1.25364 -1.95925 0
M  V30 4108 C 367.033 -0.152608 -1.68711 0
M  V30 4109 O 368.239 -0.317311 -1.77181 0
M  V30 4110 H 364.614 -0.389342 -0.643364 0
M  V30 4111 H 366.585 -2.21045 -2.00454 0
M  V30 4112 C 365.334 -1.02158 -3.32354 0
M  V30 4113 H 364.657 -1.86111 -3.5384 0
M  V30 4114 H 366.097 -1.00048 -4.12027 0
M  V30 4115 C 364.556 0.275244 -3.35774 0
M  V30 4116 O 365.086 1.27806 -3.80826 0
M  V30 4117 N 363.292 0.306853 -2.88975 0
M  V30 4118 H 362.839 -0.509777 -2.52506 0
M  V30 4119 H 362.797 1.17432 -2.91646 0
M  V30 4120 N 366.569 1.04691 -1.17803 0
M  V30 4121 C 367.817 1.7743 -0.967617 0
M  V30 4122 C 368.138 1.88359 0.504574 0
M  V30 4123 O 367.408 1.40402 1.36617 0
M  V30 4124 H 365.988 0.657242 -0.355024 0
M  V30 4125 H 368.65 1.2638 -1.48371 0
M  V30 4126 H 367.746 2.78924 -1.40027 0
M  V30 4127 N 368.047 0.979072 1.23499 0
M  V30 4128 C 369.293 0.648178 1.92163 0
M  V30 4129 C 369.626 -0.816049 1.76222 0
M  V30 4130 O 368.901 -1.58849 1.12237 0
M  V30 4131 C 369.184 1.03773 3.44824 0
M  V30 4132 C 369.037 2.55948 3.69879 0
M  V30 4133 C 370.356 0.580653 4.36253 0
M  V30 4134 H 367.475 0.236952 0.69787 0
M  V30 4135 H 370.117 1.22012 1.45647 0
M  V30 4136 H 368.267 0.551058 3.84572 0
M  V30 4137 H 369.939 3.12179 3.3962 0
M  V30 4138 H 368.182 2.98641 3.14636 0
M  V30 4139 H 368.853 2.78255 4.76737 0
M  V30 4140 H 371.329 0.998465 4.03943 0
M  V30 4141 H 370.205 0.881663 5.41773 0
M  V30 4142 H 370.466 -0.519052 4.39042 0
M  V30 4143 N 369.525 -1.3858 0.750561 0
M  V30 4144 C 370.774 -1.99424 0.302172 0
M  V30 4145 C 371.087 -1.60254 -1.12152 0
M  V30 4146 O 372.293 -2.14046 -1.67023 0
M  V30 4147 C 370.749 -3.56558 0.489307 0
M  V30 4148 C 370.357 -4.04682 1.92189 0
M  V30 4149 C 372.101 -4.24374 0.103478 0
M  V30 4150 C 370.008 -5.54446 2.05775 0
M  V30 4151 H 368.938 -0.746046 0.10923 0
M  V30 4152 H 371.589 -1.58383 0.92667 0
M  V30 4153 H 369.971 -3.95472 -0.204329 0
M  V30 4154 H 371.145 -3.77065 2.64875 0
M  V30 4155 H 369.46 -3.4958 2.26236 0
M  V30 4156 H 372.057 -5.34384 0.183787 0
M  V30 4157 H 372.4 -4.05468 -0.943481 0
M  V30 4158 H 372.933 -3.90688 0.748854 0
M  V30 4159 H 369.672 -5.78252 3.08714 0
M  V30 4160 H 369.192 -5.83816 1.37546 0
M  V30 4161 H 370.871 -6.20099 1.84626 0
M  V30 4162 N 371.003 -0.499398 -1.49478 0
M  V30 4163 C 371.953 0.299103 -2.2603 0
M  V30 4164 C 372.937 0.936934 -1.30807 0
M  V30 4165 O 374.129 0.844798 -1.55538 0
M  V30 4166 C 371.258 1.36391 -3.15044 0
M  V30 4167 C 370.344 0.732398 -4.17728 0
M  V30 4168 N 370.735 -0.164028 -5.05534 0
M  V30 4169 C 369.033 0.993162 -4.34801 0
M  V30 4170 C 369.734 -0.525345 -5.79323 0
M  V30 4171 N 368.71 0.106348 -5.43496 0
M  V30 4172 H 372.512 -0.391003 -2.91287 0
M  V30 4173 H 370.026 -0.31537 -1.59308 0
M  V30 4174 H 372.023 1.94939 -3.68516 0
M  V30 4175 H 370.683 2.05571 -2.51338 0
M  V30 4176 H 371.694 -0.534736 -5.15132 0
M  V30 4177 H 368.371 1.67783 -3.82302 0
M  V30 4178 H 369.761 -1.25862 -6.60006 0
M  V30 4179 N 372.481 1.55866 -0.233164 0
M  V30 4180 C 373.758 1.90471 0.444988 0
M  V30 4181 C 374.138 1.15209 1.7689 0
M  V30 4182 O 373.486 0.265119 2.26957 0
M  V30 4183 C 373.696 3.4333 0.626559 0
M  V30 4184 C 375.044 4.14319 0.92871 0
M  V30 4185 O 376.068 3.48993 0.712926 0
M  V30 4186 O 374.927 5.29846 1.33887 0
M  V30 4187 H 372.021 0.792347 0.236885 0
M  V30 4188 H 374.567 1.67437 -0.276211 0
M  V30 4189 H 373.339 3.90095 -0.306822 0
M  V30 4190 H 372.962 3.72181 1.39881 0
M  V30 4191 N 373.959 -0.0401083 1.57549 0
M  V30 4192 C 375.208 -0.732108 1.87944 0
M  V30 4193 C 375.521 -1.77107 0.830206 0
M  V30 4194 O 376.727 -2.51488 1.02302 0
M  V30 4195 C 375.183 -1.35315 3.33494 0
M  V30 4196 C 374.791 -0.351105 4.46622 0
M  V30 4197 C 376.535 -2.02566 3.73051 0
M  V30 4198 C 374.442 -0.979859 5.83226 0
M  V30 4199 H 373.372 -0.277188 0.701201 0
M  V30 4200 H 376.023 0.0138501 1.83495 0
M  V30 4201 H 374.405 -2.14844 3.32653 0
M  V30 4202 H 375.579 0.416674 4.58912 0
M  V30 4203 H 373.894 0.218708 4.15825 0
M  V30 4204 H 376.491 -2.50441 4.72423 0
M  V30 4205 H 376.834 -2.83904 3.04474 0
M  V30 4206 H 377.367 -1.29827 3.76018 0
M  V30 4207 H 374.106 -0.206135 6.55176 0
M  V30 4208 H 373.626 -1.71774 5.74677 0
M  V30 4209 H 375.305 -1.49046 6.29599 0
M  V30 4210 N 375.437 -1.54477 -0.31217 0
M  V30 4211 C 376.384 -1.84655 -1.38461 0
M  V30 4212 C 377.354 -0.694536 -1.50882 0
M  V30 4213 O 378.539 -0.942081 -1.6592 0
M  V30 4214 C 375.679 -2.0896 -2.74645 0
M  V30 4215 C 374.792 -3.36618 -2.70763 0
M  V30 4216 C 373.927 -3.50824 -3.98868 0
M  V30 4217 C 372.966 -4.72315 -3.89339 0
M  V30 4218 N 372.103 -4.83387 -5.09197 0
M  V30 4219 H 376.943 -2.76142 -1.12026 0
M  V30 4220 H 374.48 -1.36748 -0.542065 0
M  V30 4221 H 376.438 -2.21045 -3.53829 0
M  V30 4222 H 375.068 -1.20752 -2.99364 0
M  V30 4223 H 374.12 -3.33211 -1.83506 0
M  V30 4224 H 375.432 -4.25917 -2.59608 0
M  V30 4225 H 374.586 -3.62513 -4.86486 0
M  V30 4226 H 373.325 -2.59638 -4.12843 0
M  V30 4227 H 372.33 -4.6067 -3.00105 0
M  V30 4228 H 373.555 -5.64897 -3.76919 0
M  V30 4229 H 371.501 -3.9512 -5.23657 0
M  V30 4230 H 371.418 -5.66669 -5.00422 0
M  V30 4231 H 372.686 -4.9942 -5.98498 0
M  V30 4232 N 376.915 0.57481 -1.46744 0
M  V30 4233 C 377.863 1.70435 -1.58286 0
M  V30 4234 C 378.857 1.63287 -0.450956 0
M  V30 4235 O 380.063 1.68685 -0.628121 0
M  V30 4236 H 376.438 0.56364 -0.497809 0
M  V30 4237 H 378.409 1.57833 -2.53242 0
M  V30 4238 C 377.158 3.08815 -1.59776 0
M  V30 4239 H 376.481 3.1499 -2.46214 0
M  V30 4240 H 377.921 3.87588 -1.71905 0
M  V30 4241 C 376.38 3.35301 -0.327812 0
M  V30 4242 O 376.91 3.97511 0.57861 0
M  V30 4243 N 375.116 2.89816 -0.213274 0
M  V30 4244 H 374.663 2.39371 -0.951798 0
M  V30 4245 H 374.621 3.0791 0.63553 0
M  V30 4246 N 378.394 1.34581 0.820102 0
M  V30 4247 C 379.642 1.26845 1.57336 0
M  V30 4248 C 379.963 -0.160667 1.94337 0
M  V30 4249 O 379.233 -1.09396 1.6251 0
M  V30 4250 H 377.813 0.466514 0.583415 0
M  V30 4251 H 380.475 1.68526 0.979027 0
M  V30 4252 H 379.571 1.87513 2.4949 0
M  V30 4253 N 379.872 -1.04064 1.18357 0
M  V30 4254 C 380.802 -2.14001 0.934113 0
M  V30 4255 C 381.783 -1.69616 -0.128186 0
M  V30 4256 O 382.968 -1.94185 0.0244093 0
M  V30 4257 C 380.098 -3.44253 0.459066 0
M  V30 4258 C 379.052 -4.02261 1.46185 0
M  V30 4259 C 378.378 -5.27992 0.844322 0
M  V30 4260 C 379.678 -4.38432 2.83856 0
M  V30 4261 H 381.372 -2.35127 1.85352 0
M  V30 4262 H 378.918 -1.12998 0.892604 0
M  V30 4263 H 380.871 -4.20522 0.271907 0
M  V30 4264 H 379.595 -3.22813 -0.495912 0
M  V30 4265 H 378.254 -3.28074 1.63595 0
M  V30 4266 H 377.902 -5.02862 -0.117845 0
M  V30 4267 H 377.602 -5.67765 1.51384 0
M  V30 4268 H 379.126 -6.06938 0.667693 0
M  V30 4269 H 380.54 -5.05688 2.70098 0
M  V30 4270 H 378.937 -4.89254 3.47491 0
M  V30 4271 H 380.007 -3.4826 3.37406 0
M  V30 4272 N 381.35 -0.985608 -1.22978 0
M  V30 4273 C 382.298 -0.522631 -2.26652 0
M  V30 4274 C 383.292 0.422998 -1.64034 0
M  V30 4275 O 384.498 0.296319 -1.77544 0
M  V30 4276 H 380.873 -0.150597 -0.736766 0
M  V30 4277 H 382.844 -1.40863 -2.63059 0
M  V30 4278 C 381.593 0.154238 -3.47358 0
M  V30 4279 H 380.916 -0.564329 -3.95797 0
M  V30 4280 H 382.356 0.441744 -4.21693 0
M  V30 4281 C 380.815 1.38719 -3.07016 0
M  V30 4282 O 381.345 2.48307 -3.15764 0
M  V30 4283 N 379.551 1.25975 -2.61875 0
M  V30 4284 H 379.098 0.368068 -2.54957 0
M  V30 4285 H 379.056 2.08578 -2.3525 0
M  V30 4286 N 382.828 1.3818 -0.7579 0
M  V30 4287 C 384.053 2.04827 -0.325679 0
M  V30 4288 C 384.478 1.56788 1.03919 0
M  V30 4289 O 383.836 0.721811 1.66312 0
M  V30 4290 C 383.884 3.58774 -0.362447 0
M  V30 4291 O 382.988 4.07372 0.642033 0
M  V30 4292 H 382.329 0.64833 -0.143402 0
M  V30 4293 H 384.859 1.7677 -1.03023 0
M  V30 4294 H 384.869 4.07434 -0.214844 0
M  V30 4295 H 383.544 3.93096 -1.35824 0
M  V30 4296 H 382.121 3.70068 0.458688 0
M  V30 4297 N 384.306 0.507319 1.49211 0
M  V30 4298 C 385.534 -0.0315749 2.06876 0
M  V30 4299 C 385.949 -1.30241 1.36685 0
M  V30 4300 O 385.306 -1.76937 0.447152 0
M  V30 4301 C 385.357 -0.282627 3.60393 0
M  V30 4302 O 385.078 0.937835 4.27944 0
M  V30 4303 C 386.579 -0.864453 4.3479 0
M  V30 4304 H 383.799 0.0233048 0.670595 0
M  V30 4305 H 386.343 0.706484 1.91909 0
M  V30 4306 H 384.498 -0.97068 3.75042 0
M  V30 4307 H 384.912 0.704567 5.19746 0
M  V30 4308 H 386.386 -0.989664 5.43056 0
M  V30 4309 H 386.863 -1.86382 3.97692 0
M  V30 4310 H 387.469 -0.213672 4.24763 0
M  V30 4311 N 385.784 -1.5574 0.241426 0
M  V30 4312 C 387.014 -2.02913 -0.38857 0
M  V30 4313 C 387.422 -1.12014 -1.52478 0
M  V30 4314 O 386.765 -0.125903 -1.83268 0
M  V30 4315 C 386.827 -3.4636 -0.963075 0
M  V30 4316 C 386.491 -4.56982 0.0401916 0
M  V30 4317 C 387.488 -5.12941 0.847766 0
M  V30 4318 C 385.173 -5.0203 0.164699 0
M  V30 4319 C 387.167 -6.12437 1.76636 0
M  V30 4320 C 384.854 -6.01358 1.0868 0
M  V30 4321 C 385.852 -6.5644 1.88616 0
M  V30 4322 O 385.54 -7.53831 2.79273 0
M  V30 4323 H 385.272 -0.668983 -0.0971452 0
M  V30 4324 H 387.826 -2.02198 0.361248 0
M  V30 4325 H 386.056 -3.44206 -1.76235 0
M  V30 4326 H 387.745 -3.77065 -1.50257 0
M  V30 4327 H 388.511 -4.78974 0.762133 0
M  V30 4328 H 384.39 -4.58824 -0.447411 0
M  V30 4329 H 387.934 -6.55355 2.39071 0
M  V30 4330 H 383.831 -6.34746 1.17338 0
M  V30 4331 H 384.599 -7.71428 2.73572 0
M  V30 4332 N 387.262 0.0317525 -1.57568 0
M  V30 4333 C 388.172 1.05021 -2.0978 0
M  V30 4334 C 389.188 1.39809 -1.03583 0
M  V30 4335 O 390.364 1.49182 -1.35302 0
M  V30 4336 C 387.429 2.33301 -2.56459 0
M  V30 4337 C 386.49 2.0512 -3.77127 0
M  V30 4338 C 385.723 3.27283 -4.2157 0
M  V30 4339 O 385.946 4.37861 -3.65559 0
M  V30 4340 O 384.88 3.13141 -5.14029 0
M  V30 4341 H 388.706 0.636505 -2.96955 0
M  V30 4342 H 386.291 0.248559 -1.47318 0
M  V30 4343 H 388.173 3.08722 -2.86825 0
M  V30 4344 H 386.848 2.73973 -1.72397 0
M  V30 4345 H 385.755 1.27276 -3.51784 0
M  V30 4346 H 387.088 1.69305 -4.62165 0
M  V30 4347 N 388.74 1.54641 0.303973 0
M  V30 4348 C 389.687 1.85386 1.37479 0
M  V30 4349 C 390.657 0.702528 1.50512 0
M  V30 4350 O 391.842 0.950867 1.65418 0
M  V30 4351 C 388.982 2.10413 2.73533 0
M  V30 4352 C 388.095 3.38049 2.68974 0
M  V30 4353 C 387.23 3.52934 3.97002 0
M  V30 4354 C 386.269 4.74373 3.86829 0
M  V30 4355 N 385.406 4.8608 5.06627 0
M  V30 4356 H 390.246 2.76732 1.1056 0
M  V30 4357 H 387.783 1.37034 0.534805 0
M  V30 4358 H 389.741 2.22919 3.52652 0
M  V30 4359 H 388.371 1.22338 2.98719 0
M  V30 4360 H 387.423 3.3418 1.81736 0
M  V30 4361 H 388.735 4.27288 2.57346 0
M  V30 4362 H 387.889 3.65088 4.84557 0
M  V30 4363 H 386.628 2.61824 4.1146 0
M  V30 4364 H 385.633 4.62255 2.97658 0
M  V30 4365 H 386.858 5.66888 3.73918 0
M  V30 4366 H 384.804 3.97891 5.21554 0
M  V30 4367 H 384.721 5.69315 4.9741 0
M  V30 4368 H 385.989 5.02587 5.95841 0
M  V30 4369 N 390.218 -0.567019 1.47046 0
M  V30 4370 C 391.168 -1.67018 1.55207 0
M  V30 4371 C 392.152 -1.55543 0.411714 0
M  V30 4372 O 393.344 -1.64192 0.661064 0
M  V30 4373 C 390.473 -3.05801 1.56014 0
M  V30 4374 C 389.559 -3.22515 2.75399 0
M  V30 4375 N 389.95 -3.09329 4.00186 0
M  V30 4376 C 388.248 -3.53493 2.71954 0
M  V30 4377 C 388.949 -3.2847 4.80086 0
M  V30 4378 N 387.925 -3.54352 4.12233 0
M  V30 4379 H 391.727 -1.55377 2.4947 0
M  V30 4380 H 389.241 -0.771503 1.42904 0
M  V30 4381 H 391.238 -3.84996 1.59949 0
M  V30 4382 H 389.898 -3.18561 0.628396 0
M  V30 4383 H 390.909 -2.86863 4.31196 0
M  V30 4384 H 387.586 -3.7284 1.87873 0
M  V30 4385 H 388.976 -3.23326 5.88991 0
M  V30 4386 N 391.696 -1.35014 -0.812953 0
M  V30 4387 C 392.626 -1.30069 -1.93919 0
M  V30 4388 C 393.607 -0.176275 -1.69184 0
M  V30 4389 O 394.792 -0.370227 -1.90638 0
M  V30 4390 C 391.922 -1.06547 -3.30552 0
M  V30 4391 C 390.876 -2.15561 -3.69753 0
M  V30 4392 C 390.202 -1.77214 -5.04479 0
M  V30 4393 C 391.502 -3.57476 -3.808 0
M  V30 4394 H 393.196 -2.24303 -1.98314 0
M  V30 4395 H 390.742 -1.07977 -0.952736 0
M  V30 4396 H 392.695 -1.01729 -4.08937 0
M  V30 4397 H 391.419 -0.0875719 -3.26483 0
M  V30 4398 H 390.078 -2.19466 -2.9365 0
M  V30 4399 H 389.726 -0.780589 -4.96906 0
M  V30 4400 H 389.426 -2.50184 -5.31678 0
M  V30 4401 H 390.95 -1.7391 -5.8531 0
M  V30 4402 H 392.364 -3.55929 -4.4943 0
M  V30 4403 H 390.761 -4.29152 -4.19462 0
M  V30 4404 H 391.831 -3.94091 -2.82525 0
M  V30 4405 N 393.175 1.03435 -1.18907 0
M  V30 4406 C 394.123 2.13703 -0.918353 0
M  V30 4407 C 395.117 1.68947 0.123767 0
M  V30 4408 O 396.323 1.79983 -0.0249701 0
M  V30 4409 H 392.698 0.698112 -0.279542 0
M  V30 4410 H 394.669 2.33731 -1.85506 0
M  V30 4411 C 393.418 3.44542 -0.467532 0
M  V30 4412 H 392.741 3.79394 -1.26095 0
M  V30 4413 H 394.181 4.22812 -0.317164 0
M  V30 4414 C 392.64 3.26829 0.817588 0
M  V30 4415 O 393.17 3.54975 1.88031 0
M  V30 4416 N 391.376 2.80139 0.772677 0
M  V30 4417 H 390.923 2.57434 -0.0923883 0
M  V30 4418 H 390.881 2.68668 1.63294 0
M  V30 4419 N 394.653 0.992116 1.22453 0
M  V30 4420 C 395.6 0.541731 2.24352 0
M  V30 4421 C 396.57 -0.425519 1.60557 0
M  V30 4422 O 397.755 -0.330453 1.87917 0
M  V30 4423 C 394.895 -0.138248 3.44823 0
M  V30 4424 C 394.008 0.870649 4.23136 0
M  V30 4425 C 393.143 0.164269 5.30946 0
M  V30 4426 C 392.182 1.16159 6.00977 0
M  V30 4427 N 391.319 0.483568 7.00433 0
M  V30 4428 H 396.159 1.41541 2.62241 0
M  V30 4429 H 393.696 0.709013 1.28885 0
M  V30 4430 H 395.654 -0.5494 4.13567 0
M  V30 4431 H 394.284 -0.975721 3.077 0
M  V30 4432 H 393.336 1.40013 3.53696 0
M  V30 4433 H 394.648 1.63014 4.7141 0
M  V30 4434 H 393.802 -0.303653 6.0594 0
M  V30 4435 H 392.541 -0.627733 4.83643 0
M  V30 4436 H 391.546 1.64015 5.24766 0
M  V30 4437 H 392.771 1.95445 6.50368 0
M  V30 4438 H 390.717 -0.289012 6.55363 0
M  V30 4439 H 390.634 1.18152 7.4671 0
M  V30 4440 H 391.902 0.0384219 7.79491 0
M  V30 4441 N 396.131 -1.37776 0.765217 0
M  V30 4442 C 397.361 -2.03828 0.337277 0
M  V30 4443 C 397.769 -1.57841 -1.04321 0
M  V30 4444 O 397.112 -0.752043 -1.67601 0
M  V30 4445 C 397.174 -3.58292 0.294407 0
M  V30 4446 C 396.838 -4.27384 1.61838 0
M  V30 4447 C 397.835 -4.51956 2.56967 0
M  V30 4448 C 395.52 -4.65345 1.89102 0
M  V30 4449 C 397.514 -5.13536 3.77571 0
M  V30 4450 C 395.201 -5.26647 3.09978 0
M  V30 4451 C 396.199 -5.50679 4.04032 0
M  V30 4452 O 395.887 -6.10702 5.2278 0
M  V30 4453 H 395.619 -0.661292 0.140248 0
M  V30 4454 H 398.173 -1.77222 1.03834 0
M  V30 4455 H 396.403 -3.83918 -0.462983 0
M  V30 4456 H 398.092 -4.05763 -0.105581 0
M  V30 4457 H 398.858 -4.23048 2.37183 0
M  V30 4458 H 394.737 -4.45978 1.16725 0
M  V30 4459 H 398.281 -5.3221 4.50997 0
M  V30 4460 H 394.178 -5.54979 3.29649 0
M  V30 4461 H 394.946 -6.29183 5.23517 0
M  V30 4462 N 397.609 -0.515225 -1.4894 0
M  V30 4463 C 398.856 0.024215 -2.02486 0
M  V30 4464 C 399.184 1.35671 -1.39368 0
M  V30 4465 O 398.439 1.88566 -0.523574 0
M  V30 4466 C 398.738 0.210595 -3.56779 0
M  V30 4467 C 398.404 -1.04569 -4.38607 0
M  V30 4468 C 397.066 -1.39002 -4.60686 0
M  V30 4469 C 399.418 -1.88008 -4.86109 0
M  V30 4470 C 396.746 -2.568 -5.27514 0
M  V30 4471 C 399.098 -3.04972 -5.54234 0
M  V30 4472 C 397.762 -3.39768 -5.74555 0
M  V30 4473 H 397.032 0.00886088 -0.740947 0
M  V30 4474 H 399.679 -0.678263 -1.79086 0
M  V30 4475 H 397.984 0.99572 -3.78936 0
M  V30 4476 H 399.681 0.642659 -3.95817 0
M  V30 4477 H 396.271 -0.767497 -4.21672 0
M  V30 4478 H 400.455 -1.62719 -4.68867 0
M  V30 4479 H 395.711 -2.8398 -5.41447 0
M  V30 4480 H 399.885 -3.69943 -5.90013 0
M  V30 4481 H 397.512 -4.31148 -6.26112 0
M  V30 4482 N 399.087 1.5561 -0.249682 0
M  V30 4483 C 400.317 2.03116 0.377803 0
M  V30 4484 C 400.725 1.12822 1.51881 0
M  V30 4485 O 400.068 0.13562 1.83199 0
M  V30 4486 C 400.13 3.46866 0.944693 0
M  V30 4487 C 399.794 4.56955 -0.0644259 0
M  V30 4488 C 400.791 5.12485 -0.874957 0
M  V30 4489 C 398.476 5.01936 -0.19132 0
M  V30 4490 C 400.47 6.11491 -1.79881 0
M  V30 4491 C 398.157 6.00773 -1.11868 0
M  V30 4492 C 399.155 6.5543 -1.92095 0
M  V30 4493 O 398.843 7.5234 -2.83267 0
M  V30 4494 H 398.575 0.669489 0.0935961 0
M  V30 4495 H 401.129 2.02004 -0.371966 0
M  V30 4496 H 399.359 3.45136 1.74407 0
M  V30 4497 H 401.048 3.77856 1.48255 0
M  V30 4498 H 401.814 4.78564 -0.787523 0
M  V30 4499 H 397.693 4.59055 0.423072 0
M  V30 4500 H 401.237 6.54078 -2.42543 0
M  V30 4501 H 397.134 6.34114 -1.20703 0
M  V30 4502 H 397.902 7.69966 -2.7766 0
M  V30 4503 N 400.565 -0.0233959 1.57583 0
M  V30 4504 C 401.495 -1.02162 2.09965 0
M  V30 4505 C 402.476 -1.3735 1.00344 0
M  V30 4506 O 403.661 -1.46135 1.27899 0
M  V30 4507 C 400.791 -2.32081 2.58371 0
M  V30 4508 C 399.745 -2.1112 3.72307 0
M  V30 4509 C 399.071 -3.46848 4.06941 0
M  V30 4510 C 400.371 -1.49276 5.00514 0
M  V30 4511 H 402.065 -0.585557 2.93618 0
M  V30 4512 H 399.611 -0.280218 1.41247 0
M  V30 4513 H 401.564 -3.02249 2.93639 0
M  V30 4514 H 400.288 -2.77758 1.71808 0
M  V30 4515 H 398.947 -1.43384 3.37397 0
M  V30 4516 H 398.595 -3.90184 3.17436 0
M  V30 4517 H 398.295 -3.33646 4.83688 0
M  V30 4518 H 399.819 -4.18369 4.44747 0
M  V30 4519 H 401.233 -2.09368 5.33702 0
M  V30 4520 H 399.63 -1.46632 5.8191 0
M  V30 4521 H 400.7 -0.459217 4.82721 0
M  V30 4522 N 402.043 -1.548 -0.295768 0
M  V30 4523 C 402.991 -1.86874 -1.38495 0
M  V30 4524 C 403.985 -0.742938 -1.52239 0
M  V30 4525 O 405.191 -0.926999 -1.54294 0
M  V30 4526 H 401.566 -0.592786 -0.462719 0
M  V30 4527 H 403.537 -2.77904 -1.08682 0
M  V30 4528 C 402.286 -2.13732 -2.74252 0
M  V30 4529 H 401.609 -2.99835 -2.64459 0
M  V30 4530 H 403.049 -2.4011 -3.49461 0
M  V30 4531 C 401.508 -0.937539 -3.23592 0
M  V30 4532 O 402.038 -0.160665 -4.01379 0
M  V30 4533 N 400.244 -0.741478 -2.80981 0
M  V30 4534 H 399.791 -1.37489 -2.1784 0
M  V30 4535 H 399.749 0.0597103 -3.14343 0
M  V30 4536 N 403.521 0.559213 -1.47345 0
M  V30 4537 C 404.468 1.66645 -1.59682 0
M  V30 4538 C 405.438 1.60168 -0.43994 0
M  V30 4539 O 406.623 1.79031 -0.659736 0
M  V30 4540 C 403.763 3.04969 -1.61518 0
M  V30 4541 C 402.876 3.21897 -2.88108 0
M  V30 4542 C 402.011 4.50608 -2.81294 0
M  V30 4543 C 401.05 4.60961 -4.02717 0
M  V30 4544 N 400.187 5.81024 -3.94151 0
M  V30 4545 H 405.027 1.55439 -2.54249 0
M  V30 4546 H 402.564 0.757219 -1.26113 0
M  V30 4547 H 404.522 3.85064 -1.60566 0
M  V30 4548 H 403.152 3.15015 -0.704645 0
M  V30 4549 H 402.204 2.35248 -2.98936 0
M  V30 4550 H 403.516 3.25412 -3.78032 0
M  V30 4551 H 402.67 5.3896 -2.7858 0
M  V30 4552 H 401.409 4.49568 -1.89049 0
M  V30 4553 H 400.414 3.71021 -4.05738 0
M  V30 4554 H 401.639 4.63761 -4.96087 0
M  V30 4555 H 399.585 5.80938 -3.04708 0
M  V30 4556 H 399.502 5.85909 -4.77752 0
M  V30 4557 H 400.77 6.71744 -3.9545 0
M  V30 4558 N 404.999 1.35443 0.805782 0
M  V30 4559 C 406.41 1.25768 1.37983 0
M  V30 4560 C 406.761 -0.10958 1.95894 0
M  V30 4561 O 405.886 -1.01056 1.91355 0
M  V30 4562 C 406.481 2.27727 2.5085 0
M  V30 4563 C 405.04 2.2179 3.04115 0
M  V30 4564 C 404.187 2.13393 1.77084 0
M  V30 4565 H 407.138 1.4656 0.608752 0
M  V30 4566 H 407.159 1.90422 3.29424 0
M  V30 4567 H 406.671 3.27227 2.08671 0
M  V30 4568 H 404.772 1.25703 3.50756 0
M  V30 4569 H 404.885 3.13788 3.62042 0
M  V30 4570 H 403.249 1.59384 1.98668 0
M  V30 4571 H 404.032 3.14755 1.37056 0
M  V30 4572 N 406.477 -1.02803 1.19454 0
M  V30 4573 C 407.705 -1.79841 1.02297 0
M  V30 4574 C 408.12 -1.83879 -0.428259 0
M  V30 4575 O 407.477 -1.28345 -1.29745 0
M  V30 4576 C 407.528 -3.24852 1.58598 0
M  V30 4577 O 407.249 -3.21097 2.98041 0
M  V30 4578 C 408.75 -4.18485 1.46236 0
M  V30 4579 H 405.97 -0.565936 0.360496 0
M  V30 4580 H 408.514 -1.2948 1.58288 0
M  V30 4581 H 406.669 -3.72401 1.06753 0
M  V30 4582 H 407.083 -4.12033 3.24545 0
M  V30 4583 H 408.557 -5.18121 1.90407 0
M  V30 4584 H 409.034 -4.37254 0.41301 0
M  V30 4585 H 409.64 -3.76811 1.97215 0
M  V30 4586 N 407.956 -0.998596 -1.21925 0
M  V30 4587 C 408.903 -0.553621 -2.24062 0
M  V30 4588 C 409.873 0.416999 -1.6078 0
M  V30 4589 O 411.058 0.320482 -1.88089 0
M  V30 4590 C 408.198 0.119959 -3.44891 0
M  V30 4591 C 407.311 -0.893077 -4.22668 0
M  V30 4592 C 406.446 -0.192424 -5.30851 0
M  V30 4593 C 405.485 -1.19344 -6.00353 0
M  V30 4594 N 404.622 -0.520707 -7.00166 0
M  V30 4595 H 409.462 -1.4293 -2.61486 0
M  V30 4596 H 406.999 -0.715838 -1.28507 0
M  V30 4597 H 408.957 0.527459 -4.13852 0
M  V30 4598 H 407.587 0.959389 -3.08214 0
M  V30 4599 H 406.639 -1.41886 -3.52948 0
M  V30 4600 H 407.951 -1.65512 -4.70539 0
M  V30 4601 H 407.105 0.271515 -6.06092 0
M  V30 4602 H 405.844 0.602075 -4.83969 0
M  V30 4603 H 404.849 -1.66795 -5.23889 0
M  V30 4604 H 406.074 -1.98891 -6.49322 0
M  V30 4605 H 404.02 0.254252 -6.55507 0
M  V30 4606 H 403.937 -1.2211 -7.46073 0
M  V30 4607 H 405.205 -0.0797596 -7.79459 0
M  V30 4608 N 409.434 1.37368 -0.772513 0
M  V30 4609 C 410.364 2.32856 -0.173304 0
M  V30 4610 C 411.345 1.55818 0.682262 0
M  V30 4611 O 412.53 1.84052 0.619566 0
M  V30 4612 C 409.66 3.40048 0.706007 0
M  V30 4613 C 408.614 4.27973 -0.0483144 0
M  V30 4614 C 407.94 5.26184 0.950491 0
M  V30 4615 C 409.24 5.07665 -1.22776 0
M  V30 4616 H 410.934 2.83217 -0.971002 0
M  V30 4617 H 408.48 1.3617 -0.468377 0
M  V30 4618 H 410.433 4.05827 1.13501 0
M  V30 4619 H 409.157 2.88214 1.53623 0
M  V30 4620 H 407.816 3.63726 -0.458107 0
M  V30 4621 H 407.464 4.7063 1.77529 0
M  V30 4622 H 407.164 5.85872 0.450314 0
M  V30 4623 H 408.688 5.94838 1.37842 0
M  V30 4624 H 410.102 5.66578 -0.875366 0
M  V30 4625 H 408.499 5.76681 -1.66007 0
M  V30 4626 H 409.569 4.40294 -2.03149 0
M  V30 4627 N 410.912 0.523116 1.48665 0
M  V30 4628 C 411.842 -0.23231 2.32342 0
M  V30 4629 C 412.823 -0.941637 1.41659 0
M  V30 4630 O 414.008 -0.928751 1.70552 0
M  V30 4631 C 411.138 -1.28387 3.22698 0
M  V30 4632 C 410.092 -0.693098 4.22351 0
M  V30 4633 C 409.418 -1.8468 5.01794 0
M  V30 4634 C 410.718 0.33063 5.21252 0
M  V30 4635 H 412.412 0.466192 2.95748 0
M  V30 4636 H 409.958 0.225643 1.42221 0
M  V30 4637 H 411.911 -1.82024 3.80059 0
M  V30 4638 H 410.635 -2.01186 2.57278 0
M  V30 4639 H 409.294 -0.178299 3.66166 0
M  V30 4640 H 408.942 -2.56301 4.32804 0
M  V30 4641 H 408.642 -1.45747 5.69238 0
M  V30 4642 H 410.166 -2.38709 5.62006 0
M  V30 4643 H 411.58 -0.118407 5.73178 0
M  V30 4644 H 409.977 0.636974 5.9671 0
M  V30 4645 H 411.047 1.23883 4.68808 0
M  V30 4646 N 412.39 -1.55475 0.257931 0
M  V30 4647 C 413.615 -2.04064 -0.370488 0
M  V30 4648 C 414.04 -1.13565 -1.49948 0
M  V30 4649 O 413.398 -0.130781 -1.80828 0
M  V30 4650 C 413.446 -3.50554 -0.845237 0
M  V30 4651 O 412.55 -3.63173 -1.95394 0
M  V30 4652 H 411.891 -0.659257 -0.0792243 0
M  V30 4653 H 414.421 -2.00903 0.387212 0
M  V30 4654 H 414.431 -3.91588 -1.14555 0
M  V30 4655 H 413.106 -4.15896 -0.0191259 0
M  V30 4656 H 411.683 -3.34039 -1.65748 0
M  V30 4657 N 413.868 0.0150385 -1.57593 0
M  V30 4658 C 415.279 0.559832 -1.78109 0
M  V30 4659 C 415.63 1.74814 -0.890756 0
M  V30 4660 O 414.755 2.16216 -0.0892482 0
M  V30 4661 C 415.35 1.02238 -3.23006 0
M  V30 4662 C 413.909 1.51258 -3.44671 0
M  V30 4663 C 413.056 0.456955 -2.73509 0
M  V30 4664 H 416.007 -0.211169 -1.57289 0
M  V30 4665 H 416.028 1.88912 -3.30292 0
M  V30 4666 H 415.54 0.157302 -3.87781 0
M  V30 4667 H 413.641 2.39905 -2.8509 0
M  V30 4668 H 413.754 1.55042 -4.5332 0
M  V30 4669 H 412.118 0.915196 -2.37689 0
M  V30 4670 H 412.901 -0.398896 -3.40975 0
M  V30 4671 N 415.346 1.54954 0.287554 0
M  V30 4672 C 416.309 1.86076 1.33823 0
M  V30 4673 C 417.309 0.734414 1.43049 0
M  V30 4674 O 418.499 1.00266 1.42452 0
M  V30 4675 C 415.631 2.05305 2.72144 0
M  V30 4676 H 416.824 2.79984 1.07465 0
M  V30 4677 H 414.377 1.47223 0.524902 0
M  V30 4678 H 415.112 1.1373 3.03704 0
M  V30 4679 H 414.897 2.873 2.66836 0
M  V30 4680 H 416.387 2.30706 3.48087 0
M  V30 4681 N 416.824 -0.551391 1.4764 0
M  V30 4682 C 418.054 -1.33163 1.57959 0
M  V30 4683 C 418.462 -1.87785 0.23094 0
M  V30 4684 O 417.805 -1.65996 -0.786825 0
M  V30 4685 C 417.867 -2.53449 2.54958 0
M  V30 4686 C 417.531 -2.20071 4.00522 0
M  V30 4687 C 418.528 -1.77017 4.88836 0
M  V30 4688 C 416.213 -2.31252 4.45901 0
M  V30 4689 C 418.207 -1.4558 6.20552 0
M  V30 4690 C 415.894 -1.99427 5.77644 0
M  V30 4691 C 416.892 -1.56659 6.64791 0
M  V30 4692 O 416.58 -1.25242 7.94084 0
M  V30 4693 H 416.312 -0.412022 0.535923 0
M  V30 4694 H 418.866 -0.674186 1.9402 0
M  V30 4695 H 417.096 -3.22104 2.13976 0
M  V30 4696 H 418.785 -3.15523 2.55343 0
M  V30 4697 H 419.551 -1.67867 4.55023 0
M  V30 4698 H 415.43 -2.63498 3.78272 0
M  V30 4699 H 418.974 -1.12125 6.8853 0
M  V30 4700 H 414.871 -2.08211 6.10998 0
M  V30 4701 H 415.639 -1.38822 8.06642 0
M  V30 4702 N 418.302 -1.35869 -0.798587 0
M  V30 4703 C 419.527 -1.32883 -1.59238 0
M  V30 4704 C 419.952 0.0894587 -1.87887 0
M  V30 4705 O 419.31 1.05869 -1.47178 0
M  V30 4706 C 419.358 -2.14892 -2.89575 0
M  V30 4707 O 418.462 -1.53512 -3.82763 0
M  V30 4708 H 417.803 -0.455236 -0.48338 0
M  V30 4709 H 420.333 -1.79024 -0.990539 0
M  V30 4710 H 420.343 -2.27139 -3.38928 0
M  V30 4711 H 419.018 -3.17998 -2.68049 0
M  V30 4712 H 417.595 -1.50153 -3.41334 0
M  V30 4713 N 419.78 1.02168 -1.19998 0
M  V30 4714 C 421.026 1.7606 -1.01855 0
M  V30 4715 C 421.381 1.87178 0.445222 0
M  V30 4716 O 420.674 1.3828 1.32624 0
M  V30 4717 C 420.868 3.18081 -1.62969 0
M  V30 4718 C 420.697 3.20809 -3.15137 0
M  V30 4719 C 419.467 3.28342 -3.84083 0
M  V30 4720 C 421.665 3.07268 -4.1242 0
M  V30 4721 N 419.647 3.2052 -5.23584 0
M  V30 4722 C 421.018 3.0716 -5.38566 0
M  V30 4723 C 423.073 2.91448 -4.03686 0
M  V30 4724 C 421.776 2.92853 -6.56985 0
M  V30 4725 C 423.802 2.78494 -5.21723 0
M  V30 4726 C 423.164 2.79046 -6.46771 0
M  V30 4727 H 419.263 0.655192 -0.426905 0
M  V30 4728 H 421.847 1.21564 -1.52087 0
M  V30 4729 H 420.018 3.70882 -1.15329 0
M  V30 4730 H 421.75 3.80375 -1.38192 0
M  V30 4731 H 418.505 3.34859 -3.34913 0
M  V30 4732 H 418.929 3.19997 -5.96599 0
M  V30 4733 H 423.571 2.89838 -3.07821 0
M  V30 4734 H 421.289 2.93213 -7.53028 0
M  V30 4735 H 424.875 2.67278 -5.16773 0
M  V30 4736 H 423.755 2.69134 -7.36571 0
M  V30 4737 N 421.258 1.00505 1.21394 0
M  V30 4738 C 422.535 0.603277 1.86064 0
M  V30 4739 C 422.915 -0.919095 1.90042 0
M  V30 4740 O 422.263 -1.80607 1.39977 0
M  V30 4741 C 422.473 1.23772 3.26315 0
M  V30 4742 C 423.821 1.34586 4.02705 0
M  V30 4743 O 424.845 1.19304 3.35626 0
M  V30 4744 O 423.704 1.59169 5.22807 0
M  V30 4745 H 420.798 0.206634 0.800769 0
M  V30 4746 H 423.344 1.1017 1.29076 0
M  V30 4747 H 422.116 2.27848 3.18121 0
M  V30 4748 H 421.739 0.725648 3.90922 0
M  V30 4749 N 422.737 -1.36956 0.779787 0
M  V30 4750 C 423.667 -2.32761 0.185651 0
M  V30 4751 C 424.648 -1.56177 -0.673989 0
M  V30 4752 O 425.833 -1.84378 -0.609797 0
M  V30 4753 C 422.963 -3.40418 -0.687964 0
M  V30 4754 C 421.917 -4.27941 0.0710102 0
M  V30 4755 C 421.243 -5.26681 -0.922573 0
M  V30 4756 C 422.543 -5.07006 1.25467 0
M  V30 4757 H 424.237 -2.82698 0.986008 0
M  V30 4758 H 421.783 -1.3592 0.475592 0
M  V30 4759 H 423.736 -4.06423 -1.11348 0
M  V30 4760 H 422.46 -2.89025 -1.52093 0
M  V30 4761 H 421.119 -3.63478 0.47739 0
M  V30 4762 H 420.767 -4.71565 -1.7503 0
M  V30 4763 H 420.467 -5.86103 -0.419237 0
M  V30 4764 H 421.991 -5.9556 -1.34686 0
M  V30 4765 H 423.405 -5.66105 0.905401 0
M  V30 4766 H 421.802 -5.75793 1.69063 0
M  V30 4767 H 422.872 -4.3921 2.05481 0
M  V30 4768 N 424.215 -0.530993 -1.48385 0
M  V30 4769 C 425.178 0.220497 -2.28137 0
M  V30 4770 C 426.178 0.866851 -1.35434 0
M  V30 4771 O 427.368 0.726746 -1.58316 0
M  V30 4772 C 424.5 1.31921 -3.1434 0
M  V30 4773 H 425.693 -0.479714 -2.96038 0
M  V30 4774 H 423.246 -0.286968 -1.53643 0
M  V30 4775 H 423.981 2.05264 -2.51072 0
M  V30 4776 H 423.766 0.86085 -3.82533 0
M  V30 4777 H 425.256 1.84776 -3.74497 0
M  V30 4778 N 425.693 1.55336 -0.266172 0
M  V30 4779 C 426.94 1.99397 0.353158 0
M  V30 4780 C 427.268 1.15451 1.56529 0
M  V30 4781 O 426.523 0.209974 1.9457 0
M  V30 4782 C 426.822 3.48606 0.787957 0
M  V30 4783 C 426.488 4.49773 -0.318541 0
M  V30 4784 C 425.15 4.77158 -0.62239 0
M  V30 4785 C 427.502 5.10212 -1.06459 0
M  V30 4786 C 424.83 5.62251 -1.67602 0
M  V30 4787 C 427.182 5.96449 -2.10788 0
M  V30 4788 C 425.846 6.22158 -2.41817 0
M  V30 4789 H 425.116 0.729644 0.12923 0
M  V30 4790 H 427.763 1.87732 -0.37802 0
M  V30 4791 H 426.068 3.57701 1.59866 0
M  V30 4792 H 427.765 3.80098 1.27775 0
M  V30 4793 H 424.355 4.2854 -0.0715925 0
M  V30 4794 H 428.539 4.89086 -0.843098 0
M  V30 4795 H 423.795 5.80419 -1.92155 0
M  V30 4796 H 427.969 6.42317 -2.69076 0
M  V30 4797 H 425.596 6.87888 -3.23596 0
M  V30 4798 N 427.171 -0.0066808 1.57599 0
M  V30 4799 C 428.396 -0.707738 1.94951 0
M  V30 4800 C 428.821 -1.66882 0.867868 0
M  V30 4801 O 428.179 -1.80457 -0.17458 0
M  V30 4802 C 428.227 -1.42162 3.31394 0
M  V30 4803 O 427.331 -2.53578 3.25226 0
M  V30 4804 H 426.672 -0.188752 0.636607 0
M  V30 4805 H 429.202 0.0445193 2.04552 0
M  V30 4806 H 429.212 -1.78655 3.66806 0
M  V30 4807 H 427.887 -0.716903 4.09675 0
M  V30 4808 H 426.464 -2.19463 3.01481 0
M  V30 4809 N 428.649 -1.55105 -0.279332 0
M  V30 4810 C 430.06 -1.66186 -0.850832 0
M  V30 4811 C 430.411 -0.584707 -1.87285 0
M  V30 4812 O 429.536 0.274919 -2.14647 0
M  V30 4813 C 430.131 -3.01264 -1.55001 0
M  V30 4814 C 428.69 -3.14394 -2.06963 0
M  V30 4815 C 427.837 -2.61959 -0.909536 0
M  V30 4816 H 430.788 -1.58602 -0.0558235 0
M  V30 4817 H 430.809 -2.93899 -2.41669 0
M  V30 4818 H 430.321 -3.7964 -0.805931 0
M  V30 4819 H 428.422 -2.4078 -2.84352 0
M  V30 4820 H 428.535 -4.20867 -2.28928 0
M  V30 4821 H 426.899 -2.18957 -1.30116 0
M  V30 4822 H 427.682 -3.42833 -0.179062 0
M  V30 4823 N 430.127 0.543554 -1.4793 0
M  V30 4824 C 431.538 1.12561 -1.48953 0
M  V30 4825 C 431.889 1.94578 -0.251754 0
M  V30 4826 O 431.014 2.0665 0.642255 0
M  V30 4827 C 431.609 2.04801 -2.69892 0
M  V30 4828 C 430.168 2.58251 -2.73831 0
M  V30 4829 C 429.315 1.34918 -2.42265 0
M  V30 4830 H 432.266 0.32947 -1.55242 0
M  V30 4831 H 432.287 2.88886 -2.47639 0
M  V30 4832 H 431.799 1.4508 -3.59963 0
M  V30 4833 H 429.9 3.21732 -1.87934 0
M  V30 4834 H 430.013 2.98312 -3.74895 0
M  V30 4835 H 428.377 1.66046 -1.93134 0
M  V30 4836 H 429.16 0.769693 -3.3456 0
M  V30 4837 N 431.605 1.3629 0.791371 0
M  V30 4838 C 433.016 1.27225 1.36641 0
M  V30 4839 C 433.367 -0.0887968 1.95999 0
M  V30 4840 O 432.492 -0.990207 1.92416 0
M  V30 4841 C 433.087 2.30375 2.48421 0
M  V30 4842 C 431.646 2.25004 3.01746 0
M  V30 4843 C 430.793 2.15259 1.7481 0
M  V30 4844 H 433.744 1.47198 0.593173 0
M  V30 4845 H 433.765 1.93905 3.27385 0
M  V30 4846 H 433.277 3.29422 2.05189 0
M  V30 4847 H 431.378 1.29417 3.49403 0
M  V30 4848 H 431.491 3.1761 3.58693 0
M  V30 4849 H 429.855 1.61482 1.96966 0
M  V30 4850 H 430.638 3.16191 1.33709 0
M  V30 4851 N 433.083 -1.0153 1.20538 0
M  V30 4852 C 434.015 -2.10224 0.913155 0
M  V30 4853 C 435.028 -1.62495 -0.0995998 0
M  V30 4854 O 436.217 -1.78014 0.131582 0
M  V30 4855 C 433.317 -3.37111 0.347717 0
M  V30 4856 C 432.49 -4.13971 1.41233 0
M  V30 4857 C 431.549 -5.19158 0.857976 0
M  V30 4858 O 430.575 -5.48 1.53897 0
M  V30 4859 N 431.777 -5.7955 -0.331966 0
M  V30 4860 H 434.542 -2.35879 1.84881 0
M  V30 4861 H 432.103 -1.17931 1.10923 0
M  V30 4862 H 434.095 -4.04683 -0.0373026 0
M  V30 4863 H 432.665 -3.08696 -0.492527 0
M  V30 4864 H 431.885 -3.41351 1.97163 0
M  V30 4865 H 433.173 -4.62103 2.12928 0
M  V30 4866 H 432.571 -5.58455 -0.902478 0
M  V30 4867 H 431.128 -6.48464 -0.65861 0
M  V30 4868 N 434.561 -1.01147 -1.20859 0
M  V30 4869 C 435.81 -0.693214 -1.89413 0
M  V30 4870 C 436.123 0.779969 -1.79376 0
M  V30 4871 O 437.329 1.21057 -2.43017 0
M  V30 4872 C 435.785 -1.18949 -3.39675 0
M  V30 4873 C 435.393 -2.68921 -3.58309 0
M  V30 4874 C 437.137 -0.94642 -4.13815 0
M  V30 4875 C 435.044 -3.12056 -5.0237 0
M  V30 4876 H 433.974 -0.255595 -0.709357 0
M  V30 4877 H 436.625 -1.22349 -1.36759 0
M  V30 4878 H 435.007 -0.587228 -3.91622 0
M  V30 4879 H 436.181 -3.34652 -3.16772 0
M  V30 4880 H 434.496 -2.91314 -2.97532 0
M  V30 4881 H 437.093 -1.24417 -5.20023 0
M  V30 4882 H 437.436 0.117219 -4.16135 0
M  V30 4883 H 437.969 -1.5118 -3.67953 0
M  V30 4884 H 434.708 -4.17674 -5.05202 0
M  V30 4885 H 434.228 -2.51041 -5.44737 0
M  V30 4886 H 435.907 -3.04403 -5.70918 0
M  V30 4887 N 436.039 1.36541 -0.78704 0
M  V30 4888 C 436.971 2.28761 -0.141773 0
M  V30 4889 C 437.984 1.49365 0.647599 0
M  V30 4890 O 439.173 1.71836 0.483173 0
M  V30 4891 C 436.273 3.28771 0.822368 0
M  V30 4892 C 435.446 4.3732 0.0835594 0
M  V30 4893 C 434.505 5.17307 0.963296 0
M  V30 4894 O 433.531 5.67638 0.421419 0
M  V30 4895 N 434.733 5.33515 2.28784 0
M  V30 4896 H 437.498 2.84777 -0.933919 0
M  V30 4897 H 435.059 1.48682 -0.640735 0
M  V30 4898 H 437.051 3.79169 1.41468 0
M  V30 4899 H 435.621 2.73412 1.5154 0
M  V30 4900 H 434.841 3.88118 -0.689809 0
M  V30 4901 H 436.129 5.0701 -0.426358 0
M  V30 4902 H 435.527 4.94234 2.75226 0
M  V30 4903 H 434.084 5.87165 2.82985 0
M  V30 4904 N 437.518 0.538854 1.48102 0
M  V30 4905 C 438.748 0.0122958 2.06596 0
M  V30 4906 C 439.156 -1.27861 1.39457 0
M  V30 4907 O 438.499 -1.77348 0.478907 0
M  V30 4908 C 438.561 -0.273131 3.58461 0
M  V30 4909 C 438.225 0.92561 4.47528 0
M  V30 4910 C 439.222 1.82637 4.86765 0
M  V30 4911 C 436.907 1.13511 4.89306 0
M  V30 4912 C 438.901 2.92047 5.66558 0
M  V30 4913 C 436.588 2.23233 5.68868 0
M  V30 4914 C 437.586 3.12333 6.07402 0
M  V30 4915 O 437.274 4.20155 6.85365 0
M  V30 4916 H 437.006 0.0344283 0.675123 0
M  V30 4917 H 439.56 0.746494 1.91355 0
M  V30 4918 H 437.79 -1.06141 3.71848 0
M  V30 4919 H 439.479 -0.742842 3.99045 0
M  V30 4920 H 440.245 1.67649 4.55103 0
M  V30 4921 H 436.124 0.450835 4.5879 0
M  V30 4922 H 439.668 3.6162 5.96554 0
M  V30 4923 H 435.565 2.38201 5.99942 0
M  V30 4924 H 436.333 4.17975 7.03732 0
M  V30 4925 N 438.996 -1.55193 0.274407 0
M  V30 4926 C 440.242 -1.99877 -0.343086 0
M  V30 4927 C 440.575 -1.16256 -1.55558 0
M  V30 4928 O 439.85 -0.232462 -1.93106 0
M  V30 4929 C 440.133 -3.52706 -0.725965 0
M  V30 4930 C 439.986 -4.47081 0.493818 0
M  V30 4931 C 441.305 -4.11422 -1.56268 0
M  V30 4932 H 438.424 -0.726625 -0.123229 0
M  V30 4933 H 441.066 -1.86136 0.38121 0
M  V30 4934 H 439.216 -3.64546 -1.34307 0
M  V30 4935 H 440.888 -4.47186 1.13237 0
M  V30 4936 H 439.131 -4.1877 1.13201 0
M  V30 4937 H 439.802 -5.51699 0.18217 0
M  V30 4938 H 442.278 -4.02855 -1.04151 0
M  V30 4939 H 441.154 -5.18568 -1.79939 0
M  V30 4940 H 441.415 -3.61607 -2.54348 0
M  V30 4941 N 440.474 -0.00167713 -1.576 0
M  V30 4942 C 441.421 0.989195 -2.08527 0
M  V30 4943 C 442.391 1.34031 -0.981065 0
M  V30 4944 O 443.576 1.43839 -1.2536 0
M  V30 4945 C 440.716 2.27537 -2.59463 0
M  V30 4946 C 439.829 1.98314 -3.83791 0
M  V30 4947 C 438.964 3.21025 -4.23222 0
M  V30 4948 C 438.003 2.87495 -5.40382 0
M  V30 4949 N 437.14 4.02749 -5.75098 0
M  V30 4950 H 441.98 0.547973 -2.92919 0
M  V30 4951 H 439.517 0.258917 -1.44803 0
M  V30 4952 H 441.475 3.02729 -2.87073 0
M  V30 4953 H 440.105 2.69325 -1.77943 0
M  V30 4954 H 439.157 1.13482 -3.63078 0
M  V30 4955 H 440.469 1.69601 -4.69081 0
M  V30 4956 H 439.623 4.04561 -4.52123 0
M  V30 4957 H 438.362 3.52877 -3.36644 0
M  V30 4958 H 437.367 2.02367 -5.11202 0
M  V30 4959 H 438.592 2.56889 -6.28637 0
M  V30 4960 H 436.538 4.34494 -4.91478 0
M  V30 4961 H 436.455 3.77566 -6.54966 0
M  V30 4962 H 437.723 4.87068 -6.08592 0
M  V30 4963 N 441.952 1.55251 0.271103 0
M  V30 4964 C 443.198 1.76207 1.00394 0
M  V30 4965 C 443.531 0.562604 1.85872 0
M  V30 4966 O 442.806 -0.439785 1.89463 0
M  V30 4967 C 443.089 3.06828 1.8849 0
M  V30 4968 C 442.942 4.37134 1.05992 0
M  V30 4969 C 444.261 3.33503 2.87165 0
M  V30 4970 H 441.38 0.641086 0.363562 0
M  V30 4971 H 444.022 1.87982 0.276189 0
M  V30 4972 H 442.172 2.96921 2.5054 0
M  V30 4973 H 443.844 4.59001 0.459978 0
M  V30 4974 H 442.087 4.32275 0.363443 0
M  V30 4975 H 442.758 5.2486 1.70955 0
M  V30 4976 H 445.234 3.43215 2.3525 0
M  V30 4977 H 444.11 4.2616 3.45946 0
M  V30 4978 H 444.371 2.53235 3.62387 0
M  V30 4979 N 443.43 -0.535701 1.48216 0
M  V30 4980 C 444.393 -1.623 1.61838 0
M  V30 4981 C 445.393 -1.53087 0.492024 0
M  V30 4982 O 446.583 -1.5686 0.757668 0
M  V30 4983 C 443.715 -3.01907 1.58319 0
M  V30 4984 H 444.908 -1.51564 2.58783 0
M  V30 4985 H 442.461 -0.757317 1.36727 0
M  V30 4986 H 443.196 -3.18155 0.628299 0
M  V30 4987 H 442.981 -3.10003 2.40085 0
M  V30 4988 H 444.471 -3.80969 1.71033 0
M  V30 4989 N 444.908 -1.36708 -0.784132 0
M  V30 4990 C 445.858 -1.2799 -1.88686 0
M  V30 4991 C 446.842 -0.170282 -1.59996 0
M  V30 4992 O 448.034 -0.403571 -1.72338 0
M  V30 4993 C 445.163 -1.07674 -3.25977 0
M  V30 4994 C 444.249 -2.23127 -3.60659 0
M  V30 4995 N 444.64 -3.48467 -3.66612 0
M  V30 4996 C 442.938 -2.15009 -3.90752 0
M  V30 4997 C 443.639 -4.24525 -3.97685 0
M  V30 4998 N 442.615 -3.53524 -4.12943 0
M  V30 4999 H 446.417 -2.22927 -1.91522 0
M  V30 5000 H 443.931 -1.29503 -0.979933 0
M  V30 5001 H 445.928 -0.995151 -4.04849 0
M  V30 5002 H 444.588 -0.13643 -3.24413 0
M  V30 5003 H 445.599 -3.82534 -3.49125 0
M  V30 5004 H 442.276 -1.28963 -3.97083 0
M  V30 5005 H 443.666 -5.32944 -4.0917 0
M  V30 5006 N 446.386 1.0089 -1.21074 0
M  V30 5007 C 447.663 1.71834 -0.934469 0
M  V30 5008 C 448.043 2.0368 0.554753 0
M  V30 5009 O 447.391 1.70742 1.51854 0
M  V30 5010 C 447.601 2.98061 -1.8155 0
M  V30 5011 C 448.949 3.7117 -2.06199 0
M  V30 5012 O 449.973 3.08034 -1.78867 0
M  V30 5013 O 448.832 4.84721 -2.52404 0
M  V30 5014 H 445.926 0.749253 -0.35007 0
M  V30 5015 H 448.472 1.06668 -1.31985 0
M  V30 5016 H 447.244 2.70908 -2.82355 0
M  V30 5017 H 446.867 3.70968 -1.43068 0
M  V30 5018 N 447.864 1.01787 1.20321 0
M  V30 5019 C 449.089 0.727009 1.9424 0
M  V30 5020 C 449.514 -0.706179 1.74341 0
M  V30 5021 O 448.872 -1.48609 1.03852 0
M  V30 5022 C 448.92 1.06958 3.44372 0
M  V30 5023 O 448.024 0.181983 4.11998 0
M  V30 5024 H 447.365 0.269626 0.606793 0
M  V30 5025 H 449.895 1.36158 1.52716 0
M  V30 5026 H 449.905 1.02182 3.94997 0
M  V30 5027 H 448.58 2.11378 3.58179 0
M  V30 5028 H 447.157 0.287378 3.71791 0
M  V30 5029 N 449.342 -1.36122 0.79427 0
M  V30 5030 C 450.274 -2.28683 0.153903 0
M  V30 5031 C 451.287 -1.49707 -0.639669 0
M  V30 5032 O 452.476 -1.7209 -0.474054 0
M  V30 5033 C 449.576 -3.29202 -0.804921 0
M  V30 5034 C 448.749 -4.37358 -0.060366 0
M  V30 5035 C 447.808 -5.17811 -0.935849 0
M  V30 5036 O 446.834 -5.67853 -0.391309 0
M  V30 5037 N 448.036 -5.34721 -2.25951 0
M  V30 5038 H 450.801 -2.84278 0.949008 0
M  V30 5039 H 448.362 -1.4834 0.648611 0
M  V30 5040 H 450.354 -3.79914 -1.39455 0
M  V30 5041 H 448.924 -2.74212 -1.50088 0
M  V30 5042 H 448.144 -3.87746 0.710382 0
M  V30 5043 H 449.432 -5.06777 0.45324 0
M  V30 5044 H 448.83 -4.95687 -2.72601 0
M  V30 5045 H 447.387 -5.88657 -2.79867 0
M  V30 5046 N 450.82 -0.546701 -1.47814 0
M  V30 5047 C 452.236 -0.205717 -1.58269 0
M  V30 5048 C 452.436 1.29153 -1.54667 0
M  V30 5049 O 451.492 2.07098 -1.44453 0
M  V30 5050 C 452.805 -0.823065 -2.89216 0
M  V30 5051 C 454.353 -0.793328 -3.02779 0
M  V30 5052 C 454.828 -1.38955 -4.36412 0
M  V30 5053 N 456.319 -1.35227 -4.43021 0
M  V30 5054 C 457.054 -1.78333 -5.44963 0
M  V30 5055 N 456.55 -2.29246 -6.53772 0
M  V30 5056 N 458.343 -1.69467 -5.35945 0
M  V30 5057 H 450.494 -1.5196 -1.48398 0
M  V30 5058 H 452.757 -0.633078 -0.705632 0
M  V30 5059 H 452.463 -1.8749 -2.97558 0
M  V30 5060 H 452.337 -0.309915 -3.75925 0
M  V30 5061 H 454.724 0.249784 -2.94041 0
M  V30 5062 H 454.805 -1.34412 -2.17639 0
M  V30 5063 H 454.449 -2.43168 -4.45906 0
M  V30 5064 H 454.379 -0.814291 -5.20266 0
M  V30 5065 H 456.87 -0.979739 -3.64979 0
M  V30 5066 H 457.183 -2.60089 -7.27718 0
M  V30 5067 H 455.528 -2.3325 -6.5469 0
M  V30 5068 H 458.719 -1.29477 -4.49837 0
M  V30 5069 H 458.892 -2.03381 -6.15256 0
M  V30 5070 N 452.299 1.55045 -0.282633 0
M  V30 5071 C 453.246 2.22822 0.601566 0
M  V30 5072 C 454.216 1.20431 1.14392 0
M  V30 5073 O 455.401 1.48996 1.19184 0
M  V30 5074 C 452.541 2.95873 1.77632 0
M  V30 5075 C 451.654 4.12999 1.26711 0
M  V30 5076 C 450.789 4.73676 2.40426 0
M  V30 5077 C 449.828 5.82981 1.86545 0
M  V30 5078 N 448.965 6.3769 2.93762 0
M  V30 5079 H 453.805 2.97995 0.0169528 0
M  V30 5080 H 451.342 1.471 -0.00339964 0
M  V30 5081 H 453.3 3.36447 2.46697 0
M  V30 5082 H 451.93 2.2311 2.33285 0
M  V30 5083 H 450.982 3.77494 0.469314 0
M  V30 5084 H 452.294 4.91803 0.832518 0
M  V30 5085 H 451.448 5.17008 3.17471 0
M  V30 5086 H 450.187 3.94164 2.87203 0
M  V30 5087 H 449.192 5.39092 1.07983 0
M  V30 5088 H 450.417 6.64366 1.40694 0
M  V30 5089 H 448.363 5.61069 3.39908 0
M  V30 5090 H 448.28 7.11788 2.54744 0
M  V30 5091 H 449.548 6.8568 3.7076 0
M  V30 5092 N 453.777 0.010035 1.57597 0
M  V30 5093 C 454.707 -0.976857 2.12084 0
M  V30 5094 C 455.688 -1.35191 1.03235 0
M  V30 5095 O 456.873 -1.43389 1.3097 0
M  V30 5096 C 454.003 -2.26548 2.63236 0
M  V30 5097 C 452.957 -2.03175 3.76701 0
M  V30 5098 C 452.283 -3.38138 4.14206 0
M  V30 5099 C 453.583 -1.38625 5.03568 0
M  V30 5100 H 455.277 -0.523145 2.94794 0
M  V30 5101 H 452.823 -0.250195 1.4181 0
M  V30 5102 H 454.776 -2.95952 2.99984 0
M  V30 5103 H 453.5 -2.74051 1.77661 0
M  V30 5104 H 452.159 -1.36195 3.40362 0
M  V30 5105 H 451.807 -3.83363 3.25641 0
M  V30 5106 H 451.507 -3.23312 4.90656 0
M  V30 5107 H 453.031 -4.08841 4.53521 0
M  V30 5108 H 454.445 -1.98 5.38023 0
M  V30 5109 H 452.842 -1.34256 5.84889 0
M  V30 5110 H 453.912 -0.356722 4.83586 0
M  V30 5111 O 455.294 -1.6096 -0.132018 0
M  V30 5112 H 455.985 -1.77966 -0.764703 0
M  V30 END ATOM
M  V30 BEGIN BOND
M  V30 END BOND
M  V30 END CTAB
M  END
$$$$
